ligand
 OpenBabel02271912153D
libRbt.so/2013.1/901 2013/11/27
 11 12  0  0  0  0  0  0  0  0999 V2000
  -11.9172  -12.6249    8.9451 N   0  0  0  0  0  0  0  0  0  0  0  0
  -11.5396  -13.9044    9.0966 C   0  0  0  0  0  0  0  0  0  0  0  0
  -11.5597  -14.4603   10.3048 N   0  0  0  0  0  0  0  0  0  0  0  0
  -11.1318  -14.6254    8.0407 N   0  0  0  0  0  0  0  0  0  0  0  0
  -11.0904  -14.0817    6.8153 C   0  0  0  0  0  0  0  0  0  0  0  0
  -11.4756  -12.7599    6.6307 C   0  0  0  0  0  0  0  0  0  0  0  0
  -11.8968  -12.0340    7.7399 C   0  0  0  0  0  0  0  0  0  0  0  0
  -12.2834  -10.7686    7.6070 N   0  0  0  0  0  0  0  0  0  0  0  0
  -11.3252  -12.4757    5.3405 N   0  0  0  0  0  0  0  0  0  0  0  0
  -10.8650  -13.5676    4.7339 C   0  0  0  0  0  0  0  0  0  0  0  0
  -10.7211  -14.5462    5.6251 N   0  0  0  0  0  0  0  0  0  0  0  0
  1  7  2  0  0  0  0
  1  2  1  0  0  0  0
  2  3  1  0  0  0  0
  2  4  2  0  0  0  0
  4  5  1  0  0  0  0
  5  6  2  0  0  0  0
  5 11  1  0  0  0  0
  6  7  1  0  0  0  0
  6  9  1  0  0  0  0
  7  8  1  0  0  0  0
  9 10  1  0  0  0  0
 10 11  2  0  0  0  0
M  END
>  <CHROM.1>
-11.44127795,-13.25825156,7.37689186,2.00250739,-1.22054337,2.07416239

>  <Name>
ligand

>  <RI>
0

>  <Rbt.Current_Directory>
/home/itssahil/PROJECTS/Mol_Feturizer/Test_systems_manuscript/rnas/2b57

>  <Rbt.Executable>
rbdock ($Id: //depot/dev/client3/rdock/2013.1/src/exe/rbdock.cxx#4 $)

>  <Rbt.Library>
libRbt.so (2013.1, Build901 2013/11/27)

>  <Rbt.Parameter_File>
/export/apps/rDock/src/rDock_2013.1_src/data/scripts/dock_solv.prm

>  <Rbt.Receptor>
prm/pocket_docking_5.prm

>  <SCORE>
-11.4153

>  <SCORE.INTER>
-11.4153

>  <SCORE.INTER.CONST>
1

>  <SCORE.INTER.POLAR>
0

>  <SCORE.INTER.ROT>
0

>  <SCORE.INTER.SOLV>
20.9939

>  <SCORE.INTER.VDW>
-18.2082

>  <SCORE.INTER.norm>
-1.03776

>  <SCORE.INTRA>
0

>  <SCORE.INTRA.DIHEDRAL>
0

>  <SCORE.INTRA.DIHEDRAL.0>
0

>  <SCORE.INTRA.POLAR>
0

>  <SCORE.INTRA.POLAR.0>
0

>  <SCORE.INTRA.REPUL>
0

>  <SCORE.INTRA.REPUL.0>
0

>  <SCORE.INTRA.SOLV>
0

>  <SCORE.INTRA.SOLV.lig_0>
-48.3454

>  <SCORE.INTRA.VDW>
0

>  <SCORE.INTRA.VDW.0>
0

>  <SCORE.INTRA.norm>
0

>  <SCORE.RESTR>
0

>  <SCORE.RESTR.CAVITY>
0

>  <SCORE.RESTR.norm>
0

>  <SCORE.SYSTEM>
0

>  <SCORE.SYSTEM.CONST>
0

>  <SCORE.SYSTEM.DIHEDRAL>
0

>  <SCORE.SYSTEM.SOLV>
0

>  <SCORE.SYSTEM.norm>
0

>  <SCORE.heavy>
11

>  <SCORE.norm>
-1.03776

>  <RMSD>
0.466

$$$$
ligand
 OpenBabel02271912153D
libRbt.so/2013.1/901 2013/11/27
 11 12  0  0  0  0  0  0  0  0999 V2000
  -11.9148  -12.6619    8.9391 N   0  0  0  0  0  0  0  0  0  0  0  0
  -11.5602  -13.9504    9.0689 C   0  0  0  0  0  0  0  0  0  0  0  0
  -11.6004  -14.5291   10.2657 N   0  0  0  0  0  0  0  0  0  0  0  0
  -11.1552  -14.6575    8.0026 N   0  0  0  0  0  0  0  0  0  0  0  0
  -11.0938  -14.0910    6.7885 C   0  0  0  0  0  0  0  0  0  0  0  0
  -11.4551  -12.7595    6.6265 C   0  0  0  0  0  0  0  0  0  0  0  0
  -11.8739  -12.0481    7.7460 C   0  0  0  0  0  0  0  0  0  0  0  0
  -12.2379  -10.7741    7.6345 N   0  0  0  0  0  0  0  0  0  0  0  0
  -11.2885  -12.4529    5.3434 N   0  0  0  0  0  0  0  0  0  0  0  0
  -10.8414  -13.5405    4.7195 C   0  0  0  0  0  0  0  0  0  0  0  0
  -10.7218  -14.5384    5.5926 N   0  0  0  0  0  0  0  0  0  0  0  0
  1  7  2  0  0  0  0
  1  2  1  0  0  0  0
  2  3  1  0  0  0  0
  2  4  2  0  0  0  0
  4  5  1  0  0  0  0
  5  6  2  0  0  0  0
  5 11  1  0  0  0  0
  6  7  1  0  0  0  0
  6  9  1  0  0  0  0
  7  8  1  0  0  0  0
  9 10  1  0  0  0  0
 10 11  2  0  0  0  0
M  END
>  <CHROM.1>
-11.43576586,-13.27271066,7.36302431,2.05008370,-1.23062461,2.13840019

>  <Name>
ligand

>  <RI>
0

>  <Rbt.Current_Directory>
/home/itssahil/PROJECTS/Mol_Feturizer/Test_systems_manuscript/rnas/2b57

>  <Rbt.Executable>
rbdock ($Id: //depot/dev/client3/rdock/2013.1/src/exe/rbdock.cxx#4 $)

>  <Rbt.Library>
libRbt.so (2013.1, Build901 2013/11/27)

>  <Rbt.Parameter_File>
/export/apps/rDock/src/rDock_2013.1_src/data/scripts/dock_solv.prm

>  <Rbt.Receptor>
prm/pocket_docking_5.prm

>  <SCORE>
-11.4343

>  <SCORE.INTER>
-11.4343

>  <SCORE.INTER.CONST>
1

>  <SCORE.INTER.POLAR>
0

>  <SCORE.INTER.ROT>
0

>  <SCORE.INTER.SOLV>
21.2293

>  <SCORE.INTER.VDW>
-18.2993

>  <SCORE.INTER.norm>
-1.03948

>  <SCORE.INTRA>
0

>  <SCORE.INTRA.DIHEDRAL>
0

>  <SCORE.INTRA.DIHEDRAL.0>
0

>  <SCORE.INTRA.POLAR>
0

>  <SCORE.INTRA.POLAR.0>
0

>  <SCORE.INTRA.REPUL>
0

>  <SCORE.INTRA.REPUL.0>
0

>  <SCORE.INTRA.SOLV>
0

>  <SCORE.INTRA.SOLV.lig_0>
-48.3454

>  <SCORE.INTRA.VDW>
0

>  <SCORE.INTRA.VDW.0>
0

>  <SCORE.INTRA.norm>
0

>  <SCORE.RESTR>
0

>  <SCORE.RESTR.CAVITY>
0

>  <SCORE.RESTR.norm>
0

>  <SCORE.SYSTEM>
0

>  <SCORE.SYSTEM.CONST>
0

>  <SCORE.SYSTEM.DIHEDRAL>
0

>  <SCORE.SYSTEM.SOLV>
0

>  <SCORE.SYSTEM.norm>
0

>  <SCORE.heavy>
11

>  <SCORE.norm>
-1.03948

>  <RMSD>
0.481

$$$$
ligand
 OpenBabel02271912153D
libRbt.so/2013.1/901 2013/11/27
 11 12  0  0  0  0  0  0  0  0999 V2000
  -11.8915  -12.5986    8.9327 N   0  0  0  0  0  0  0  0  0  0  0  0
  -11.5613  -13.8933    9.0644 C   0  0  0  0  0  0  0  0  0  0  0  0
  -11.6052  -14.4674   10.2634 N   0  0  0  0  0  0  0  0  0  0  0  0
  -11.1769  -14.6116    7.9979 N   0  0  0  0  0  0  0  0  0  0  0  0
  -11.1122  -14.0502    6.7816 C   0  0  0  0  0  0  0  0  0  0  0  0
  -11.4483  -12.7124    6.6175 C   0  0  0  0  0  0  0  0  0  0  0  0
  -11.8460  -11.9895    7.7373 C   0  0  0  0  0  0  0  0  0  0  0  0
  -12.1857  -10.7089    7.6239 N   0  0  0  0  0  0  0  0  0  0  0  0
  -11.2838  -12.4132    5.3324 N   0  0  0  0  0  0  0  0  0  0  0  0
  -10.8620  -13.5113    4.7093 C   0  0  0  0  0  0  0  0  0  0  0  0
  -10.7565  -14.5086    5.5849 N   0  0  0  0  0  0  0  0  0  0  0  0
  1  7  2  0  0  0  0
  1  2  1  0  0  0  0
  2  3  1  0  0  0  0
  2  4  2  0  0  0  0
  4  5  1  0  0  0  0
  5  6  2  0  0  0  0
  5 11  1  0  0  0  0
  6  7  1  0  0  0  0
  6  9  1  0  0  0  0
  7  8  1  0  0  0  0
  9 10  1  0  0  0  0
 10 11  2  0  0  0  0
M  END
>  <CHROM.1>
-11.43438033,-13.22357699,7.35558838,2.06663520,-1.25048807,2.15084797

>  <Name>
ligand

>  <RI>
0

>  <Rbt.Current_Directory>
/home/itssahil/PROJECTS/Mol_Feturizer/Test_systems_manuscript/rnas/2b57

>  <Rbt.Executable>
rbdock ($Id: //depot/dev/client3/rdock/2013.1/src/exe/rbdock.cxx#4 $)

>  <Rbt.Library>
libRbt.so (2013.1, Build901 2013/11/27)

>  <Rbt.Parameter_File>
/export/apps/rDock/src/rDock_2013.1_src/data/scripts/dock_solv.prm

>  <Rbt.Receptor>
prm/pocket_docking_3.prm

>  <SCORE>
-11.3957

>  <SCORE.INTER>
-11.3957

>  <SCORE.INTER.CONST>
1

>  <SCORE.INTER.POLAR>
0

>  <SCORE.INTER.ROT>
0

>  <SCORE.INTER.SOLV>
21.3868

>  <SCORE.INTER.VDW>
-18.3261

>  <SCORE.INTER.norm>
-1.03597

>  <SCORE.INTRA>
0

>  <SCORE.INTRA.DIHEDRAL>
0

>  <SCORE.INTRA.DIHEDRAL.0>
0

>  <SCORE.INTRA.POLAR>
0

>  <SCORE.INTRA.POLAR.0>
0

>  <SCORE.INTRA.REPUL>
0

>  <SCORE.INTRA.REPUL.0>
0

>  <SCORE.INTRA.SOLV>
0

>  <SCORE.INTRA.SOLV.lig_0>
-48.3454

>  <SCORE.INTRA.VDW>
0

>  <SCORE.INTRA.VDW.0>
0

>  <SCORE.INTRA.norm>
0

>  <SCORE.RESTR>
0

>  <SCORE.RESTR.CAVITY>
0

>  <SCORE.RESTR.norm>
0

>  <SCORE.SYSTEM>
0

>  <SCORE.SYSTEM.CONST>
0

>  <SCORE.SYSTEM.DIHEDRAL>
0

>  <SCORE.SYSTEM.SOLV>
0

>  <SCORE.SYSTEM.norm>
0

>  <SCORE.heavy>
11

>  <SCORE.norm>
-1.03597

>  <RMSD>
0.486

$$$$
ligand
 OpenBabel02271912153D
libRbt.so/2013.1/901 2013/11/27
 11 12  0  0  0  0  0  0  0  0999 V2000
  -11.8906  -12.6621    8.9072 N   0  0  0  0  0  0  0  0  0  0  0  0
  -11.5418  -13.9532    9.0265 C   0  0  0  0  0  0  0  0  0  0  0  0
  -11.5711  -14.5376   10.2209 N   0  0  0  0  0  0  0  0  0  0  0  0
  -11.1535  -14.6574    7.9520 N   0  0  0  0  0  0  0  0  0  0  0  0
  -11.1033  -14.0852    6.7400 C   0  0  0  0  0  0  0  0  0  0  0  0
  -11.4587  -12.7509    6.5888 C   0  0  0  0  0  0  0  0  0  0  0  0
  -11.8602  -12.0427    7.7166 C   0  0  0  0  0  0  0  0  0  0  0  0
  -12.2182  -10.7661    7.6157 N   0  0  0  0  0  0  0  0  0  0  0  0
  -11.3056  -12.4390    5.3053 N   0  0  0  0  0  0  0  0  0  0  0  0
  -10.8721  -13.5260    4.6709 C   0  0  0  0  0  0  0  0  0  0  0  0
  -10.7479  -14.5289    5.5377 N   0  0  0  0  0  0  0  0  0  0  0  0
  1  7  2  0  0  0  0
  1  2  1  0  0  0  0
  2  3  1  0  0  0  0
  2  4  2  0  0  0  0
  4  5  1  0  0  0  0
  5  6  2  0  0  0  0
  5 11  1  0  0  0  0
  6  7  1  0  0  0  0
  6  9  1  0  0  0  0
  7  8  1  0  0  0  0
  9 10  1  0  0  0  0
 10 11  2  0  0  0  0
M  END
>  <CHROM.1>
-11.43365832,-13.26783674,7.32255672,2.02877844,-1.24174730,2.12316713

>  <Name>
ligand

>  <RI>
0

>  <Rbt.Current_Directory>
/home/itssahil/PROJECTS/Mol_Feturizer/Test_systems_manuscript/rnas/2b57

>  <Rbt.Executable>
rbdock ($Id: //depot/dev/client3/rdock/2013.1/src/exe/rbdock.cxx#4 $)

>  <Rbt.Library>
libRbt.so (2013.1, Build901 2013/11/27)

>  <Rbt.Parameter_File>
/export/apps/rDock/src/rDock_2013.1_src/data/scripts/dock_solv.prm

>  <Rbt.Receptor>
prm/pocket_docking_6.prm

>  <SCORE>
-11.4462

>  <SCORE.INTER>
-11.4462

>  <SCORE.INTER.CONST>
1

>  <SCORE.INTER.POLAR>
0

>  <SCORE.INTER.ROT>
0

>  <SCORE.INTER.SOLV>
21.3281

>  <SCORE.INTER.VDW>
-18.3402

>  <SCORE.INTER.norm>
-1.04056

>  <SCORE.INTRA>
0

>  <SCORE.INTRA.DIHEDRAL>
0

>  <SCORE.INTRA.DIHEDRAL.0>
0

>  <SCORE.INTRA.POLAR>
0

>  <SCORE.INTRA.POLAR.0>
0

>  <SCORE.INTRA.REPUL>
0

>  <SCORE.INTRA.REPUL.0>
0

>  <SCORE.INTRA.SOLV>
0

>  <SCORE.INTRA.SOLV.lig_0>
-48.3454

>  <SCORE.INTRA.VDW>
0

>  <SCORE.INTRA.VDW.0>
0

>  <SCORE.INTRA.norm>
0

>  <SCORE.RESTR>
0

>  <SCORE.RESTR.CAVITY>
0

>  <SCORE.RESTR.norm>
0

>  <SCORE.SYSTEM>
0

>  <SCORE.SYSTEM.CONST>
0

>  <SCORE.SYSTEM.DIHEDRAL>
0

>  <SCORE.SYSTEM.SOLV>
0

>  <SCORE.SYSTEM.norm>
0

>  <SCORE.heavy>
11

>  <SCORE.norm>
-1.04056

>  <RMSD>
0.521

$$$$
ligand
 OpenBabel02271912153D
libRbt.so/2013.1/901 2013/11/27
 11 12  0  0  0  0  0  0  0  0999 V2000
  -11.8967  -12.6903    8.9068 N   0  0  0  0  0  0  0  0  0  0  0  0
  -11.5547  -13.9826    9.0317 C   0  0  0  0  0  0  0  0  0  0  0  0
  -11.5993  -14.5651   10.2265 N   0  0  0  0  0  0  0  0  0  0  0  0
  -11.1579  -14.6901    7.9624 N   0  0  0  0  0  0  0  0  0  0  0  0
  -11.0923  -14.1199    6.7502 C   0  0  0  0  0  0  0  0  0  0  0  0
  -11.4405  -12.7843    6.5932 C   0  0  0  0  0  0  0  0  0  0  0  0
  -11.8510  -12.0728    7.7157 C   0  0  0  0  0  0  0  0  0  0  0  0
  -12.2024  -10.7948    7.6091 N   0  0  0  0  0  0  0  0  0  0  0  0
  -11.2723  -12.4750    5.3110 N   0  0  0  0  0  0  0  0  0  0  0  0
  -10.8367  -13.5648    4.6829 C   0  0  0  0  0  0  0  0  0  0  0  0
  -10.7261  -14.5669    5.5524 N   0  0  0  0  0  0  0  0  0  0  0  0
  1  7  2  0  0  0  0
  1  2  1  0  0  0  0
  2  3  1  0  0  0  0
  2  4  2  0  0  0  0
  4  5  1  0  0  0  0
  5  6  2  0  0  0  0
  5 11  1  0  0  0  0
  6  7  1  0  0  0  0
  6  9  1  0  0  0  0
  7  8  1  0  0  0  0
  9 10  1  0  0  0  0
 10 11  2  0  0  0  0
M  END
>  <CHROM.1>
-11.42544463,-13.30029328,7.32799031,2.06359449,-1.23956811,2.15462814

>  <Name>
ligand

>  <RI>
0

>  <Rbt.Current_Directory>
/home/itssahil/PROJECTS/Mol_Feturizer/Test_systems_manuscript/rnas/2b57

>  <Rbt.Executable>
rbdock ($Id: //depot/dev/client3/rdock/2013.1/src/exe/rbdock.cxx#4 $)

>  <Rbt.Library>
libRbt.so (2013.1, Build901 2013/11/27)

>  <Rbt.Parameter_File>
/export/apps/rDock/src/rDock_2013.1_src/data/scripts/dock_solv.prm

>  <Rbt.Receptor>
prm/pocket_docking_7.prm

>  <SCORE>
-11.4541

>  <SCORE.INTER>
-11.4541

>  <SCORE.INTER.CONST>
1

>  <SCORE.INTER.POLAR>
0

>  <SCORE.INTER.ROT>
0

>  <SCORE.INTER.SOLV>
21.3643

>  <SCORE.INTER.VDW>
-18.3575

>  <SCORE.INTER.norm>
-1.04128

>  <SCORE.INTRA>
0

>  <SCORE.INTRA.DIHEDRAL>
0

>  <SCORE.INTRA.DIHEDRAL.0>
0

>  <SCORE.INTRA.POLAR>
0

>  <SCORE.INTRA.POLAR.0>
0

>  <SCORE.INTRA.REPUL>
0

>  <SCORE.INTRA.REPUL.0>
0

>  <SCORE.INTRA.SOLV>
0

>  <SCORE.INTRA.SOLV.lig_0>
-48.3454

>  <SCORE.INTRA.VDW>
0

>  <SCORE.INTRA.VDW.0>
0

>  <SCORE.INTRA.norm>
0

>  <SCORE.RESTR>
0

>  <SCORE.RESTR.CAVITY>
0

>  <SCORE.RESTR.norm>
0

>  <SCORE.SYSTEM>
0

>  <SCORE.SYSTEM.CONST>
0

>  <SCORE.SYSTEM.DIHEDRAL>
0

>  <SCORE.SYSTEM.SOLV>
0

>  <SCORE.SYSTEM.norm>
0

>  <SCORE.heavy>
11

>  <SCORE.norm>
-1.04128

>  <RMSD>
0.524

$$$$
ligand
 OpenBabel02271912153D
libRbt.so/2013.1/901 2013/11/27
 11 12  0  0  0  0  0  0  0  0999 V2000
  -11.8721  -12.6786    8.9063 N   0  0  0  0  0  0  0  0  0  0  0  0
  -11.5234  -13.9692    9.0311 C   0  0  0  0  0  0  0  0  0  0  0  0
  -11.5515  -14.5482   10.2281 N   0  0  0  0  0  0  0  0  0  0  0  0
  -11.1365  -14.6783    7.9594 N   0  0  0  0  0  0  0  0  0  0  0  0
  -11.0876  -14.1116    6.7447 C   0  0  0  0  0  0  0  0  0  0  0  0
  -11.4430  -12.7779    6.5879 C   0  0  0  0  0  0  0  0  0  0  0  0
  -11.8430  -12.0646    7.7130 C   0  0  0  0  0  0  0  0  0  0  0  0
  -12.2009  -10.7884    7.6067 N   0  0  0  0  0  0  0  0  0  0  0  0
  -11.2912  -12.4719    5.3028 N   0  0  0  0  0  0  0  0  0  0  0  0
  -10.8587  -13.5618    4.6729 C   0  0  0  0  0  0  0  0  0  0  0  0
  -10.7337  -14.5608    5.5440 N   0  0  0  0  0  0  0  0  0  0  0  0
  1  7  2  0  0  0  0
  1  2  1  0  0  0  0
  2  3  1  0  0  0  0
  2  4  2  0  0  0  0
  4  5  1  0  0  0  0
  5  6  2  0  0  0  0
  5 11  1  0  0  0  0
  6  7  1  0  0  0  0
  6  9  1  0  0  0  0
  7  8  1  0  0  0  0
  9 10  1  0  0  0  0
 10 11  2  0  0  0  0
M  END
>  <CHROM.1>
-11.41714707,-13.29159308,7.32393754,2.02604576,-1.24252119,2.11605877

>  <Name>
ligand

>  <RI>
0

>  <Rbt.Current_Directory>
/home/itssahil/PROJECTS/Mol_Feturizer/Test_systems_manuscript/rnas/2b57

>  <Rbt.Executable>
rbdock ($Id: //depot/dev/client3/rdock/2013.1/src/exe/rbdock.cxx#4 $)

>  <Rbt.Library>
libRbt.so (2013.1, Build901 2013/11/27)

>  <Rbt.Parameter_File>
/export/apps/rDock/src/rDock_2013.1_src/data/scripts/dock_solv.prm

>  <Rbt.Receptor>
prm/pocket_docking_8.prm

>  <SCORE>
-11.4545

>  <SCORE.INTER>
-11.4545

>  <SCORE.INTER.CONST>
1

>  <SCORE.INTER.POLAR>
0

>  <SCORE.INTER.ROT>
0

>  <SCORE.INTER.SOLV>
21.3716

>  <SCORE.INTER.VDW>
-18.3602

>  <SCORE.INTER.norm>
-1.04132

>  <SCORE.INTRA>
0

>  <SCORE.INTRA.DIHEDRAL>
0

>  <SCORE.INTRA.DIHEDRAL.0>
0

>  <SCORE.INTRA.POLAR>
0

>  <SCORE.INTRA.POLAR.0>
0

>  <SCORE.INTRA.REPUL>
0

>  <SCORE.INTRA.REPUL.0>
0

>  <SCORE.INTRA.SOLV>
0

>  <SCORE.INTRA.SOLV.lig_0>
-48.3454

>  <SCORE.INTRA.VDW>
0

>  <SCORE.INTRA.VDW.0>
0

>  <SCORE.INTRA.norm>
0

>  <SCORE.RESTR>
0

>  <SCORE.RESTR.CAVITY>
0

>  <SCORE.RESTR.norm>
0

>  <SCORE.SYSTEM>
0

>  <SCORE.SYSTEM.CONST>
0

>  <SCORE.SYSTEM.DIHEDRAL>
0

>  <SCORE.SYSTEM.SOLV>
0

>  <SCORE.SYSTEM.norm>
0

>  <SCORE.heavy>
11

>  <SCORE.norm>
-1.04132

>  <RMSD>
0.529

$$$$
ligand
 OpenBabel02271912153D
libRbt.so/2013.1/901 2013/11/27
 11 12  0  0  0  0  0  0  0  0999 V2000
  -11.8853  -12.6937    8.8989 N   0  0  0  0  0  0  0  0  0  0  0  0
  -11.5444  -13.9865    9.0217 C   0  0  0  0  0  0  0  0  0  0  0  0
  -11.5853  -14.5697   10.2164 N   0  0  0  0  0  0  0  0  0  0  0  0
  -11.1523  -14.6937    7.9507 N   0  0  0  0  0  0  0  0  0  0  0  0
  -11.0905  -14.1229    6.7385 C   0  0  0  0  0  0  0  0  0  0  0  0
  -11.4377  -12.7868    6.5837 C   0  0  0  0  0  0  0  0  0  0  0  0
  -11.8433  -12.0755    7.7081 C   0  0  0  0  0  0  0  0  0  0  0  0
  -12.1937  -10.7970    7.6035 N   0  0  0  0  0  0  0  0  0  0  0  0
  -11.2738  -12.4768    5.3011 N   0  0  0  0  0  0  0  0  0  0  0  0
  -10.8417  -13.5667    4.6707 C   0  0  0  0  0  0  0  0  0  0  0  0
  -10.7291  -14.5695    5.5391 N   0  0  0  0  0  0  0  0  0  0  0  0
  1  7  2  0  0  0  0
  1  2  1  0  0  0  0
  2  3  1  0  0  0  0
  2  4  2  0  0  0  0
  4  5  1  0  0  0  0
  5  6  2  0  0  0  0
  5 11  1  0  0  0  0
  6  7  1  0  0  0  0
  6  9  1  0  0  0  0
  7  8  1  0  0  0  0
  9 10  1  0  0  0  0
 10 11  2  0  0  0  0
M  END
>  <CHROM.1>
-11.42056247,-13.30324683,7.31804422,2.05614303,-1.24251703,2.14820772

>  <Name>
ligand

>  <RI>
0

>  <Rbt.Current_Directory>
/home/itssahil/PROJECTS/Mol_Feturizer/Test_systems_manuscript/rnas/2b57

>  <Rbt.Executable>
rbdock ($Id: //depot/dev/client3/rdock/2013.1/src/exe/rbdock.cxx#4 $)

>  <Rbt.Library>
libRbt.so (2013.1, Build901 2013/11/27)

>  <Rbt.Parameter_File>
/export/apps/rDock/src/rDock_2013.1_src/data/scripts/dock_solv.prm

>  <Rbt.Receptor>
prm/blind_docking_100.prm

>  <SCORE>
-11.4515

>  <SCORE.INTER>
-11.4515

>  <SCORE.INTER.CONST>
1

>  <SCORE.INTER.POLAR>
0

>  <SCORE.INTER.ROT>
0

>  <SCORE.INTER.SOLV>
21.3994

>  <SCORE.INTER.VDW>
-18.3675

>  <SCORE.INTER.norm>
-1.04105

>  <SCORE.INTRA>
0

>  <SCORE.INTRA.DIHEDRAL>
0

>  <SCORE.INTRA.DIHEDRAL.0>
0

>  <SCORE.INTRA.POLAR>
0

>  <SCORE.INTRA.POLAR.0>
0

>  <SCORE.INTRA.REPUL>
0

>  <SCORE.INTRA.REPUL.0>
0

>  <SCORE.INTRA.SOLV>
0

>  <SCORE.INTRA.SOLV.lig_0>
-48.3454

>  <SCORE.INTRA.VDW>
0

>  <SCORE.INTRA.VDW.0>
0

>  <SCORE.INTRA.norm>
0

>  <SCORE.RESTR>
0

>  <SCORE.RESTR.CAVITY>
0

>  <SCORE.RESTR.norm>
0

>  <SCORE.SYSTEM>
0

>  <SCORE.SYSTEM.CONST>
0

>  <SCORE.SYSTEM.DIHEDRAL>
0

>  <SCORE.SYSTEM.SOLV>
0

>  <SCORE.SYSTEM.norm>
0

>  <SCORE.heavy>
11

>  <SCORE.norm>
-1.04105

>  <RMSD>
0.536

$$$$
ligand
 OpenBabel02271912153D
libRbt.so/2013.1/901 2013/11/27
 11 12  0  0  0  0  0  0  0  0999 V2000
  -11.8786  -12.7912    8.9021 N   0  0  0  0  0  0  0  0  0  0  0  0
  -11.5083  -14.0796    8.9769 C   0  0  0  0  0  0  0  0  0  0  0  0
  -11.5101  -14.7001   10.1533 N   0  0  0  0  0  0  0  0  0  0  0  0
  -11.1260  -14.7448    7.8758 N   0  0  0  0  0  0  0  0  0  0  0  0
  -11.1034  -14.1356    6.6811 C   0  0  0  0  0  0  0  0  0  0  0  0
  -11.4816  -12.8031    6.5758 C   0  0  0  0  0  0  0  0  0  0  0  0
  -11.8763  -12.1357    7.7306 C   0  0  0  0  0  0  0  0  0  0  0  0
  -12.2554  -10.8625    7.6739 N   0  0  0  0  0  0  0  0  0  0  0  0
  -11.3532  -12.4503    5.3003 N   0  0  0  0  0  0  0  0  0  0  0  0
  -10.9130  -13.5107    4.6267 C   0  0  0  0  0  0  0  0  0  0  0  0
  -10.7600  -14.5372    5.4606 N   0  0  0  0  0  0  0  0  0  0  0  0
  1  7  2  0  0  0  0
  1  2  1  0  0  0  0
  2  3  1  0  0  0  0
  2  4  2  0  0  0  0
  4  5  1  0  0  0  0
  5  6  2  0  0  0  0
  5 11  1  0  0  0  0
  6  7  1  0  0  0  0
  6  9  1  0  0  0  0
  7  8  1  0  0  0  0
  9 10  1  0  0  0  0
 10 11  2  0  0  0  0
M  END
>  <CHROM.1>
-11.43718954,-13.34153953,7.29311966,1.96395214,-1.23619367,2.09214716

>  <Name>
ligand

>  <RI>
0

>  <Rbt.Current_Directory>
/home/itssahil/PROJECTS/Mol_Feturizer/Test_systems_manuscript/rnas/2b57

>  <Rbt.Executable>
rbdock ($Id: //depot/dev/client3/rdock/2013.1/src/exe/rbdock.cxx#4 $)

>  <Rbt.Library>
libRbt.so (2013.1, Build901 2013/11/27)

>  <Rbt.Parameter_File>
/export/apps/rDock/src/rDock_2013.1_src/data/scripts/dock_solv.prm

>  <Rbt.Receptor>
prm/pocket_docking_4.prm

>  <SCORE>
-11.4913

>  <SCORE.INTER>
-11.4913

>  <SCORE.INTER.CONST>
1

>  <SCORE.INTER.POLAR>
0

>  <SCORE.INTER.ROT>
0

>  <SCORE.INTER.SOLV>
21.3532

>  <SCORE.INTER.VDW>
-18.3786

>  <SCORE.INTER.norm>
-1.04467

>  <SCORE.INTRA>
0

>  <SCORE.INTRA.DIHEDRAL>
0

>  <SCORE.INTRA.DIHEDRAL.0>
0

>  <SCORE.INTRA.POLAR>
0

>  <SCORE.INTRA.POLAR.0>
0

>  <SCORE.INTRA.REPUL>
0

>  <SCORE.INTRA.REPUL.0>
0

>  <SCORE.INTRA.SOLV>
0

>  <SCORE.INTRA.SOLV.lig_0>
-48.3454

>  <SCORE.INTRA.VDW>
0

>  <SCORE.INTRA.VDW.0>
0

>  <SCORE.INTRA.norm>
0

>  <SCORE.RESTR>
0

>  <SCORE.RESTR.CAVITY>
0

>  <SCORE.RESTR.norm>
0

>  <SCORE.SYSTEM>
0

>  <SCORE.SYSTEM.CONST>
0

>  <SCORE.SYSTEM.DIHEDRAL>
0

>  <SCORE.SYSTEM.SOLV>
0

>  <SCORE.SYSTEM.norm>
0

>  <SCORE.heavy>
11

>  <SCORE.norm>
-1.04467

>  <RMSD>
0.568

$$$$
ligand
 OpenBabel02271912153D
libRbt.so/2013.1/901 2013/11/27
 11 12  0  0  0  0  0  0  0  0999 V2000
  -11.8786  -12.7886    8.8948 N   0  0  0  0  0  0  0  0  0  0  0  0
  -11.5148  -14.0787    8.9726 C   0  0  0  0  0  0  0  0  0  0  0  0
  -11.5241  -14.6977   10.1497 N   0  0  0  0  0  0  0  0  0  0  0  0
  -11.1316  -14.7472    7.8738 N   0  0  0  0  0  0  0  0  0  0  0  0
  -11.1015  -14.1397    6.6784 C   0  0  0  0  0  0  0  0  0  0  0  0
  -11.4728  -12.8055    6.5700 C   0  0  0  0  0  0  0  0  0  0  0  0
  -11.8686  -12.1347    7.7225 C   0  0  0  0  0  0  0  0  0  0  0  0
  -12.2412  -10.8597    7.6628 N   0  0  0  0  0  0  0  0  0  0  0  0
  -11.3379  -12.4549    5.2946 N   0  0  0  0  0  0  0  0  0  0  0  0
  -10.9004  -13.5184    4.6240 C   0  0  0  0  0  0  0  0  0  0  0  0
  -10.7556  -14.5445    5.4598 N   0  0  0  0  0  0  0  0  0  0  0  0
  1  7  2  0  0  0  0
  1  2  1  0  0  0  0
  2  3  1  0  0  0  0
  2  4  2  0  0  0  0
  4  5  1  0  0  0  0
  5  6  2  0  0  0  0
  5 11  1  0  0  0  0
  6  7  1  0  0  0  0
  6  9  1  0  0  0  0
  7  8  1  0  0  0  0
  9 10  1  0  0  0  0
 10 11  2  0  0  0  0
M  END
>  <CHROM.1>
-11.43375837,-13.34320504,7.28816221,1.98138579,-1.23851348,2.10735106

>  <Name>
ligand

>  <RI>
0

>  <Rbt.Current_Directory>
/home/itssahil/PROJECTS/Mol_Feturizer/Test_systems_manuscript/rnas/2b57

>  <Rbt.Executable>
rbdock ($Id: //depot/dev/client3/rdock/2013.1/src/exe/rbdock.cxx#4 $)

>  <Rbt.Library>
libRbt.so (2013.1, Build901 2013/11/27)

>  <Rbt.Parameter_File>
/export/apps/rDock/src/rDock_2013.1_src/data/scripts/dock_solv.prm

>  <Rbt.Receptor>
prm/pocket_docking_5.prm

>  <SCORE>
-11.52

>  <SCORE.INTER>
-11.52

>  <SCORE.INTER.CONST>
1

>  <SCORE.INTER.POLAR>
0

>  <SCORE.INTER.ROT>
0

>  <SCORE.INTER.SOLV>
21.3943

>  <SCORE.INTER.VDW>
-18.4114

>  <SCORE.INTER.norm>
-1.04727

>  <SCORE.INTRA>
0

>  <SCORE.INTRA.DIHEDRAL>
0

>  <SCORE.INTRA.DIHEDRAL.0>
0

>  <SCORE.INTRA.POLAR>
0

>  <SCORE.INTRA.POLAR.0>
0

>  <SCORE.INTRA.REPUL>
0

>  <SCORE.INTRA.REPUL.0>
0

>  <SCORE.INTRA.SOLV>
0

>  <SCORE.INTRA.SOLV.lig_0>
-48.3454

>  <SCORE.INTRA.VDW>
0

>  <SCORE.INTRA.VDW.0>
0

>  <SCORE.INTRA.norm>
0

>  <SCORE.RESTR>
0

>  <SCORE.RESTR.CAVITY>
0

>  <SCORE.RESTR.norm>
0

>  <SCORE.SYSTEM>
0

>  <SCORE.SYSTEM.CONST>
0

>  <SCORE.SYSTEM.DIHEDRAL>
0

>  <SCORE.SYSTEM.SOLV>
0

>  <SCORE.SYSTEM.norm>
0

>  <SCORE.heavy>
11

>  <SCORE.norm>
-1.04727

>  <RMSD>
0.573

$$$$
ligand
 OpenBabel02271912153D
libRbt.so/2013.1/901 2013/11/27
 11 12  0  0  0  0  0  0  0  0999 V2000
  -11.8559  -12.7278    8.8743 N   0  0  0  0  0  0  0  0  0  0  0  0
  -11.5110  -14.0208    8.9829 C   0  0  0  0  0  0  0  0  0  0  0  0
  -11.5384  -14.6140   10.1730 N   0  0  0  0  0  0  0  0  0  0  0  0
  -11.1285  -14.7183    7.9019 N   0  0  0  0  0  0  0  0  0  0  0  0
  -11.0803  -14.1372    6.6941 C   0  0  0  0  0  0  0  0  0  0  0  0
  -11.4319  -12.8007    6.5539 C   0  0  0  0  0  0  0  0  0  0  0  0
  -11.8274  -12.0996    7.6883 C   0  0  0  0  0  0  0  0  0  0  0  0
  -12.1815  -10.8211    7.5981 N   0  0  0  0  0  0  0  0  0  0  0  0
  -11.2819  -12.4797    5.2723 N   0  0  0  0  0  0  0  0  0  0  0  0
  -10.8540  -13.5633    4.6285 C   0  0  0  0  0  0  0  0  0  0  0  0
  -10.7303  -14.5731    5.4873 N   0  0  0  0  0  0  0  0  0  0  0  0
  1  7  2  0  0  0  0
  1  2  1  0  0  0  0
  2  3  1  0  0  0  0
  2  4  2  0  0  0  0
  4  5  1  0  0  0  0
  5  6  2  0  0  0  0
  5 11  1  0  0  0  0
  6  7  1  0  0  0  0
  6  9  1  0  0  0  0
  7  8  1  0  0  0  0
  9 10  1  0  0  0  0
 10 11  2  0  0  0  0
M  END
>  <CHROM.1>
-11.40614424,-13.32316096,7.28374486,2.02556170,-1.24623283,2.12757554

>  <Name>
ligand

>  <RI>
0

>  <Rbt.Current_Directory>
/home/itssahil/PROJECTS/Mol_Feturizer/Test_systems_manuscript/rnas/2b57

>  <Rbt.Executable>
rbdock ($Id: //depot/dev/client3/rdock/2013.1/src/exe/rbdock.cxx#4 $)

>  <Rbt.Library>
libRbt.so (2013.1, Build901 2013/11/27)

>  <Rbt.Parameter_File>
/export/apps/rDock/src/rDock_2013.1_src/data/scripts/dock_solv.prm

>  <Rbt.Receptor>
prm/pocket_docking_6.prm

>  <SCORE>
-11.473

>  <SCORE.INTER>
-11.473

>  <SCORE.INTER.CONST>
1

>  <SCORE.INTER.POLAR>
0

>  <SCORE.INTER.ROT>
0

>  <SCORE.INTER.SOLV>
21.4775

>  <SCORE.INTER.VDW>
-18.4078

>  <SCORE.INTER.norm>
-1.043

>  <SCORE.INTRA>
0

>  <SCORE.INTRA.DIHEDRAL>
0

>  <SCORE.INTRA.DIHEDRAL.0>
0

>  <SCORE.INTRA.POLAR>
0

>  <SCORE.INTRA.POLAR.0>
0

>  <SCORE.INTRA.REPUL>
0

>  <SCORE.INTRA.REPUL.0>
0

>  <SCORE.INTRA.SOLV>
0

>  <SCORE.INTRA.SOLV.lig_0>
-48.3454

>  <SCORE.INTRA.VDW>
0

>  <SCORE.INTRA.VDW.0>
0

>  <SCORE.INTRA.norm>
0

>  <SCORE.RESTR>
0

>  <SCORE.RESTR.CAVITY>
0

>  <SCORE.RESTR.norm>
0

>  <SCORE.SYSTEM>
0

>  <SCORE.SYSTEM.CONST>
0

>  <SCORE.SYSTEM.DIHEDRAL>
0

>  <SCORE.SYSTEM.SOLV>
0

>  <SCORE.SYSTEM.norm>
0

>  <SCORE.heavy>
11

>  <SCORE.norm>
-1.043

>  <RMSD>
0.576

$$$$
ligand
 OpenBabel02271912153D
libRbt.so/2013.1/901 2013/11/27
 11 12  0  0  0  0  0  0  0  0999 V2000
  -11.8536  -12.7207    8.8706 N   0  0  0  0  0  0  0  0  0  0  0  0
  -11.5145  -14.0149    8.9838 C   0  0  0  0  0  0  0  0  0  0  0  0
  -11.5461  -14.6041   10.1758 N   0  0  0  0  0  0  0  0  0  0  0  0
  -11.1337  -14.7176    7.9057 N   0  0  0  0  0  0  0  0  0  0  0  0
  -11.0814  -14.1407    6.6959 C   0  0  0  0  0  0  0  0  0  0  0  0
  -11.4269  -12.8031    6.5510 C   0  0  0  0  0  0  0  0  0  0  0  0
  -11.8208  -12.0966    7.6825 C   0  0  0  0  0  0  0  0  0  0  0  0
  -12.1692  -10.8169    7.5876 N   0  0  0  0  0  0  0  0  0  0  0  0
  -11.2739  -12.4870    5.2685 N   0  0  0  0  0  0  0  0  0  0  0  0
  -10.8500  -13.5747    4.6287 C   0  0  0  0  0  0  0  0  0  0  0  0
  -10.7318  -14.5821    5.4911 N   0  0  0  0  0  0  0  0  0  0  0  0
  1  7  2  0  0  0  0
  1  2  1  0  0  0  0
  2  3  1  0  0  0  0
  2  4  2  0  0  0  0
  4  5  1  0  0  0  0
  5  6  2  0  0  0  0
  5 11  1  0  0  0  0
  6  7  1  0  0  0  0
  6  9  1  0  0  0  0
  7  8  1  0  0  0  0
  9 10  1  0  0  0  0
 10 11  2  0  0  0  0
M  END
>  <CHROM.1>
-11.40444204,-13.32331547,7.28252589,2.03635552,-1.24928184,2.13452403

>  <Name>
ligand

>  <RI>
0

>  <Rbt.Current_Directory>
/home/itssahil/PROJECTS/Mol_Feturizer/Test_systems_manuscript/rnas/2b57

>  <Rbt.Executable>
rbdock ($Id: //depot/dev/client3/rdock/2013.1/src/exe/rbdock.cxx#4 $)

>  <Rbt.Library>
libRbt.so (2013.1, Build901 2013/11/27)

>  <Rbt.Parameter_File>
/export/apps/rDock/src/rDock_2013.1_src/data/scripts/dock_solv.prm

>  <Rbt.Receptor>
prm/pocket_docking_5.prm

>  <SCORE>
-11.4742

>  <SCORE.INTER>
-11.4742

>  <SCORE.INTER.CONST>
1

>  <SCORE.INTER.POLAR>
0

>  <SCORE.INTER.ROT>
0

>  <SCORE.INTER.SOLV>
21.5027

>  <SCORE.INTER.VDW>
-18.417

>  <SCORE.INTER.norm>
-1.04311

>  <SCORE.INTRA>
0

>  <SCORE.INTRA.DIHEDRAL>
0

>  <SCORE.INTRA.DIHEDRAL.0>
0

>  <SCORE.INTRA.POLAR>
0

>  <SCORE.INTRA.POLAR.0>
0

>  <SCORE.INTRA.REPUL>
0

>  <SCORE.INTRA.REPUL.0>
0

>  <SCORE.INTRA.SOLV>
0

>  <SCORE.INTRA.SOLV.lig_0>
-48.3454

>  <SCORE.INTRA.VDW>
0

>  <SCORE.INTRA.VDW.0>
0

>  <SCORE.INTRA.norm>
0

>  <SCORE.RESTR>
0

>  <SCORE.RESTR.CAVITY>
0

>  <SCORE.RESTR.norm>
0

>  <SCORE.SYSTEM>
0

>  <SCORE.SYSTEM.CONST>
0

>  <SCORE.SYSTEM.DIHEDRAL>
0

>  <SCORE.SYSTEM.SOLV>
0

>  <SCORE.SYSTEM.norm>
0

>  <SCORE.heavy>
11

>  <SCORE.norm>
-1.04311

>  <RMSD>
0.578

$$$$
ligand
 OpenBabel02271912153D
libRbt.so/2013.1/901 2013/11/27
 11 12  0  0  0  0  0  0  0  0999 V2000
  -11.8520  -12.7189    8.8711 N   0  0  0  0  0  0  0  0  0  0  0  0
  -11.5095  -14.0123    8.9828 C   0  0  0  0  0  0  0  0  0  0  0  0
  -11.5379  -14.6026   10.1743 N   0  0  0  0  0  0  0  0  0  0  0  0
  -11.1284  -14.7131    7.9035 N   0  0  0  0  0  0  0  0  0  0  0  0
  -11.0793  -14.1351    6.6942 C   0  0  0  0  0  0  0  0  0  0  0  0
  -11.4284  -12.7982    6.5509 C   0  0  0  0  0  0  0  0  0  0  0  0
  -11.8224  -12.0937    7.6836 C   0  0  0  0  0  0  0  0  0  0  0  0
  -12.1741  -10.8147    7.5903 N   0  0  0  0  0  0  0  0  0  0  0  0
  -11.2779  -12.4806    5.2685 N   0  0  0  0  0  0  0  0  0  0  0  0
  -10.8522  -13.5666    4.6272 C   0  0  0  0  0  0  0  0  0  0  0  0
  -10.7303  -14.5745    5.4885 N   0  0  0  0  0  0  0  0  0  0  0  0
  1  7  2  0  0  0  0
  1  2  1  0  0  0  0
  2  3  1  0  0  0  0
  2  4  2  0  0  0  0
  4  5  1  0  0  0  0
  5  6  2  0  0  0  0
  5 11  1  0  0  0  0
  6  7  1  0  0  0  0
  6  9  1  0  0  0  0
  7  8  1  0  0  0  0
  9 10  1  0  0  0  0
 10 11  2  0  0  0  0
M  END
>  <CHROM.1>
-11.40353294,-13.31897979,7.28196542,2.02838295,-1.24789678,2.12783021

>  <Name>
ligand

>  <RI>
0

>  <Rbt.Current_Directory>
/home/itssahil/PROJECTS/Mol_Feturizer/Test_systems_manuscript/rnas/2b57

>  <Rbt.Executable>
rbdock ($Id: //depot/dev/client3/rdock/2013.1/src/exe/rbdock.cxx#4 $)

>  <Rbt.Library>
libRbt.so (2013.1, Build901 2013/11/27)

>  <Rbt.Parameter_File>
/export/apps/rDock/src/rDock_2013.1_src/data/scripts/dock_solv.prm

>  <Rbt.Receptor>
prm/pocket_docking_7.prm

>  <SCORE>
-11.4787

>  <SCORE.INTER>
-11.4787

>  <SCORE.INTER.CONST>
1

>  <SCORE.INTER.POLAR>
0

>  <SCORE.INTER.ROT>
0

>  <SCORE.INTER.SOLV>
21.4902

>  <SCORE.INTER.VDW>
-18.4159

>  <SCORE.INTER.norm>
-1.04352

>  <SCORE.INTRA>
0

>  <SCORE.INTRA.DIHEDRAL>
0

>  <SCORE.INTRA.DIHEDRAL.0>
0

>  <SCORE.INTRA.POLAR>
0

>  <SCORE.INTRA.POLAR.0>
0

>  <SCORE.INTRA.REPUL>
0

>  <SCORE.INTRA.REPUL.0>
0

>  <SCORE.INTRA.SOLV>
0

>  <SCORE.INTRA.SOLV.lig_0>
-48.3454

>  <SCORE.INTRA.VDW>
0

>  <SCORE.INTRA.VDW.0>
0

>  <SCORE.INTRA.norm>
0

>  <SCORE.RESTR>
0

>  <SCORE.RESTR.CAVITY>
0

>  <SCORE.RESTR.norm>
0

>  <SCORE.SYSTEM>
0

>  <SCORE.SYSTEM.CONST>
0

>  <SCORE.SYSTEM.DIHEDRAL>
0

>  <SCORE.SYSTEM.SOLV>
0

>  <SCORE.SYSTEM.norm>
0

>  <SCORE.heavy>
11

>  <SCORE.norm>
-1.04352

>  <RMSD>
0.578

$$$$
ligand
 OpenBabel02271912153D
libRbt.so/2013.1/901 2013/11/27
 11 12  0  0  0  0  0  0  0  0999 V2000
  -11.8974  -12.7249    8.8602 N   0  0  0  0  0  0  0  0  0  0  0  0
  -11.5792  -14.0247    8.9700 C   0  0  0  0  0  0  0  0  0  0  0  0
  -11.6341  -14.6200   10.1581 N   0  0  0  0  0  0  0  0  0  0  0  0
  -11.1958  -14.7269    7.8925 N   0  0  0  0  0  0  0  0  0  0  0  0
  -11.1202  -14.1442    6.6869 C   0  0  0  0  0  0  0  0  0  0  0  0
  -11.4438  -12.8007    6.5455 C   0  0  0  0  0  0  0  0  0  0  0  0
  -11.8408  -12.0947    7.6763 C   0  0  0  0  0  0  0  0  0  0  0  0
  -12.1688  -10.8094    7.5846 N   0  0  0  0  0  0  0  0  0  0  0  0
  -11.2705  -12.4798    5.2668 N   0  0  0  0  0  0  0  0  0  0  0  0
  -10.8552  -13.5701    4.6259 C   0  0  0  0  0  0  0  0  0  0  0  0
  -10.7627  -14.5840    5.4838 N   0  0  0  0  0  0  0  0  0  0  0  0
  1  7  2  0  0  0  0
  1  2  1  0  0  0  0
  2  3  1  0  0  0  0
  2  4  2  0  0  0  0
  4  5  1  0  0  0  0
  5  6  2  0  0  0  0
  5 11  1  0  0  0  0
  6  7  1  0  0  0  0
  6  9  1  0  0  0  0
  7  8  1  0  0  0  0
  9 10  1  0  0  0  0
 10 11  2  0  0  0  0
M  END
>  <CHROM.1>
-11.43803789,-13.32529654,7.27424189,2.09528102,-1.25494456,2.19617425

>  <Name>
ligand

>  <RI>
0

>  <Rbt.Current_Directory>
/home/itssahil/PROJECTS/Mol_Feturizer/Test_systems_manuscript/rnas/2b57

>  <Rbt.Executable>
rbdock ($Id: //depot/dev/client3/rdock/2013.1/src/exe/rbdock.cxx#4 $)

>  <Rbt.Library>
libRbt.so (2013.1, Build901 2013/11/27)

>  <Rbt.Parameter_File>
/export/apps/rDock/src/rDock_2013.1_src/data/scripts/dock_solv.prm

>  <Rbt.Receptor>
prm/pocket_docking_4.prm

>  <SCORE>
-11.4416

>  <SCORE.INTER>
-11.4416

>  <SCORE.INTER.CONST>
1

>  <SCORE.INTER.POLAR>
0

>  <SCORE.INTER.ROT>
0

>  <SCORE.INTER.SOLV>
21.5102

>  <SCORE.INTER.VDW>
-18.3978

>  <SCORE.INTER.norm>
-1.04015

>  <SCORE.INTRA>
0

>  <SCORE.INTRA.DIHEDRAL>
0

>  <SCORE.INTRA.DIHEDRAL.0>
0

>  <SCORE.INTRA.POLAR>
0

>  <SCORE.INTRA.POLAR.0>
0

>  <SCORE.INTRA.REPUL>
0

>  <SCORE.INTRA.REPUL.0>
0

>  <SCORE.INTRA.SOLV>
0

>  <SCORE.INTRA.SOLV.lig_0>
-48.3454

>  <SCORE.INTRA.VDW>
0

>  <SCORE.INTRA.VDW.0>
0

>  <SCORE.INTRA.norm>
0

>  <SCORE.RESTR>
0

>  <SCORE.RESTR.CAVITY>
0

>  <SCORE.RESTR.norm>
0

>  <SCORE.SYSTEM>
0

>  <SCORE.SYSTEM.CONST>
0

>  <SCORE.SYSTEM.DIHEDRAL>
0

>  <SCORE.SYSTEM.SOLV>
0

>  <SCORE.SYSTEM.norm>
0

>  <SCORE.heavy>
11

>  <SCORE.norm>
-1.04015

>  <RMSD>
0.580

$$$$
ligand
 OpenBabel02271912153D
libRbt.so/2013.1/901 2013/11/27
 11 12  0  0  0  0  0  0  0  0999 V2000
  -11.8572  -12.7083    8.8638 N   0  0  0  0  0  0  0  0  0  0  0  0
  -11.5273  -14.0043    8.9834 C   0  0  0  0  0  0  0  0  0  0  0  0
  -11.5687  -14.5889   10.1774 N   0  0  0  0  0  0  0  0  0  0  0  0
  -11.1459  -14.7135    7.9098 N   0  0  0  0  0  0  0  0  0  0  0  0
  -11.0839  -14.1414    6.6982 C   0  0  0  0  0  0  0  0  0  0  0  0
  -11.4197  -12.8021    6.5467 C   0  0  0  0  0  0  0  0  0  0  0  0
  -11.8144  -12.0888    7.6737 C   0  0  0  0  0  0  0  0  0  0  0  0
  -12.1537  -10.8071    7.5724 N   0  0  0  0  0  0  0  0  0  0  0  0
  -11.2583  -12.4917    5.2639 N   0  0  0  0  0  0  0  0  0  0  0  0
  -10.8386  -13.5845    4.6302 C   0  0  0  0  0  0  0  0  0  0  0  0
  -10.7314  -14.5896    5.4967 N   0  0  0  0  0  0  0  0  0  0  0  0
  1  7  2  0  0  0  0
  1  2  1  0  0  0  0
  2  3  1  0  0  0  0
  2  4  2  0  0  0  0
  4  5  1  0  0  0  0
  5  6  2  0  0  0  0
  5 11  1  0  0  0  0
  6  7  1  0  0  0  0
  6  9  1  0  0  0  0
  7  8  1  0  0  0  0
  9 10  1  0  0  0  0
 10 11  2  0  0  0  0
M  END
>  <CHROM.1>
-11.40429810,-13.31973295,7.28024075,2.06096330,-1.25224269,2.15421603

>  <Name>
ligand

>  <RI>
0

>  <Rbt.Current_Directory>
/home/itssahil/PROJECTS/Mol_Feturizer/Test_systems_manuscript/rnas/2b57

>  <Rbt.Executable>
rbdock ($Id: //depot/dev/client3/rdock/2013.1/src/exe/rbdock.cxx#4 $)

>  <Rbt.Library>
libRbt.so (2013.1, Build901 2013/11/27)

>  <Rbt.Parameter_File>
/export/apps/rDock/src/rDock_2013.1_src/data/scripts/dock_solv.prm

>  <Rbt.Receptor>
prm/pocket_docking_4.prm

>  <SCORE>
-11.4751

>  <SCORE.INTER>
-11.4751

>  <SCORE.INTER.CONST>
1

>  <SCORE.INTER.POLAR>
0

>  <SCORE.INTER.ROT>
0

>  <SCORE.INTER.SOLV>
21.5443

>  <SCORE.INTER.VDW>
-18.4315

>  <SCORE.INTER.norm>
-1.04319

>  <SCORE.INTRA>
0

>  <SCORE.INTRA.DIHEDRAL>
0

>  <SCORE.INTRA.DIHEDRAL.0>
0

>  <SCORE.INTRA.POLAR>
0

>  <SCORE.INTRA.POLAR.0>
0

>  <SCORE.INTRA.REPUL>
0

>  <SCORE.INTRA.REPUL.0>
0

>  <SCORE.INTRA.SOLV>
0

>  <SCORE.INTRA.SOLV.lig_0>
-48.3454

>  <SCORE.INTRA.VDW>
0

>  <SCORE.INTRA.VDW.0>
0

>  <SCORE.INTRA.norm>
0

>  <SCORE.RESTR>
0

>  <SCORE.RESTR.CAVITY>
0

>  <SCORE.RESTR.norm>
0

>  <SCORE.SYSTEM>
0

>  <SCORE.SYSTEM.CONST>
0

>  <SCORE.SYSTEM.DIHEDRAL>
0

>  <SCORE.SYSTEM.SOLV>
0

>  <SCORE.SYSTEM.norm>
0

>  <SCORE.heavy>
11

>  <SCORE.norm>
-1.04319

>  <RMSD>
0.580

$$$$
ligand
 OpenBabel02271912153D
libRbt.so/2013.1/901 2013/11/27
 11 12  0  0  0  0  0  0  0  0999 V2000
  -11.8602  -12.7050    8.8646 N   0  0  0  0  0  0  0  0  0  0  0  0
  -11.5237  -14.0005    8.9703 C   0  0  0  0  0  0  0  0  0  0  0  0
  -11.5478  -14.5941   10.1603 N   0  0  0  0  0  0  0  0  0  0  0  0
  -11.1529  -14.7001    7.8867 N   0  0  0  0  0  0  0  0  0  0  0  0
  -11.1083  -14.1188    6.6788 C   0  0  0  0  0  0  0  0  0  0  0  0
  -11.4514  -12.7797    6.5415 C   0  0  0  0  0  0  0  0  0  0  0  0
  -11.8348  -12.0765    7.6787 C   0  0  0  0  0  0  0  0  0  0  0  0
  -12.1805  -10.7955    7.5913 N   0  0  0  0  0  0  0  0  0  0  0  0
  -11.3072  -12.4591    5.2591 N   0  0  0  0  0  0  0  0  0  0  0  0
  -10.8910  -13.5455    4.6121 C   0  0  0  0  0  0  0  0  0  0  0  0
  -10.7690  -14.5565    5.4697 N   0  0  0  0  0  0  0  0  0  0  0  0
  1  7  2  0  0  0  0
  1  2  1  0  0  0  0
  2  3  1  0  0  0  0
  2  4  2  0  0  0  0
  4  5  1  0  0  0  0
  5  6  2  0  0  0  0
  5 11  1  0  0  0  0
  6  7  1  0  0  0  0
  6  9  1  0  0  0  0
  7  8  1  0  0  0  0
  9 10  1  0  0  0  0
 10 11  2  0  0  0  0
M  END
>  <CHROM.1>
-11.42469304,-13.30274803,7.27090187,2.02024093,-1.25552269,2.12300542

>  <Name>
ligand

>  <RI>
0

>  <Rbt.Current_Directory>
/home/itssahil/PROJECTS/Mol_Feturizer/Test_systems_manuscript/rnas/2b57

>  <Rbt.Executable>
rbdock ($Id: //depot/dev/client3/rdock/2013.1/src/exe/rbdock.cxx#4 $)

>  <Rbt.Library>
libRbt.so (2013.1, Build901 2013/11/27)

>  <Rbt.Parameter_File>
/export/apps/rDock/src/rDock_2013.1_src/data/scripts/dock_solv.prm

>  <Rbt.Receptor>
prm/pocket_docking_3.prm

>  <SCORE>
-11.481

>  <SCORE.INTER>
-11.481

>  <SCORE.INTER.CONST>
1

>  <SCORE.INTER.POLAR>
0

>  <SCORE.INTER.ROT>
0

>  <SCORE.INTER.SOLV>
21.4918

>  <SCORE.INTER.VDW>
-18.4179

>  <SCORE.INTER.norm>
-1.04372

>  <SCORE.INTRA>
0

>  <SCORE.INTRA.DIHEDRAL>
0

>  <SCORE.INTRA.DIHEDRAL.0>
0

>  <SCORE.INTRA.POLAR>
0

>  <SCORE.INTRA.POLAR.0>
0

>  <SCORE.INTRA.REPUL>
0

>  <SCORE.INTRA.REPUL.0>
0

>  <SCORE.INTRA.SOLV>
0

>  <SCORE.INTRA.SOLV.lig_0>
-48.3454

>  <SCORE.INTRA.VDW>
0

>  <SCORE.INTRA.VDW.0>
0

>  <SCORE.INTRA.norm>
0

>  <SCORE.RESTR>
0

>  <SCORE.RESTR.CAVITY>
0

>  <SCORE.RESTR.norm>
0

>  <SCORE.SYSTEM>
0

>  <SCORE.SYSTEM.CONST>
0

>  <SCORE.SYSTEM.DIHEDRAL>
0

>  <SCORE.SYSTEM.SOLV>
0

>  <SCORE.SYSTEM.norm>
0

>  <SCORE.heavy>
11

>  <SCORE.norm>
-1.04372

>  <RMSD>
0.581

$$$$
ligand
 OpenBabel02271912153D
libRbt.so/2013.1/901 2013/11/27
 11 12  0  0  0  0  0  0  0  0999 V2000
  -11.8646  -12.7323    8.8682 N   0  0  0  0  0  0  0  0  0  0  0  0
  -11.5318  -14.0290    8.9711 C   0  0  0  0  0  0  0  0  0  0  0  0
  -11.5675  -14.6278   10.1581 N   0  0  0  0  0  0  0  0  0  0  0  0
  -11.1532  -14.7245    7.8876 N   0  0  0  0  0  0  0  0  0  0  0  0
  -11.0968  -14.1380    6.6827 C   0  0  0  0  0  0  0  0  0  0  0  0
  -11.4358  -12.7976    6.5484 C   0  0  0  0  0  0  0  0  0  0  0  0
  -11.8275  -12.0985    7.6854 C   0  0  0  0  0  0  0  0  0  0  0  0
  -12.1696  -10.8164    7.6006 N   0  0  0  0  0  0  0  0  0  0  0  0
  -11.2798  -12.4717    5.2688 N   0  0  0  0  0  0  0  0  0  0  0  0
  -10.8604  -13.5560    4.6205 C   0  0  0  0  0  0  0  0  0  0  0  0
  -10.7480  -14.5711    5.4746 N   0  0  0  0  0  0  0  0  0  0  0  0
  1  7  2  0  0  0  0
  1  2  1  0  0  0  0
  2  3  1  0  0  0  0
  2  4  2  0  0  0  0
  4  5  1  0  0  0  0
  5  6  2  0  0  0  0
  5 11  1  0  0  0  0
  6  7  1  0  0  0  0
  6  9  1  0  0  0  0
  7  8  1  0  0  0  0
  9 10  1  0  0  0  0
 10 11  2  0  0  0  0
M  END
>  <CHROM.1>
-11.41655531,-13.32390393,7.27568667,2.04746851,-1.25272351,2.15331492

>  <Name>
ligand

>  <RI>
0

>  <Rbt.Current_Directory>
/home/itssahil/PROJECTS/Mol_Feturizer/Test_systems_manuscript/rnas/2b57

>  <Rbt.Executable>
rbdock ($Id: //depot/dev/client3/rdock/2013.1/src/exe/rbdock.cxx#4 $)

>  <Rbt.Library>
libRbt.so (2013.1, Build901 2013/11/27)

>  <Rbt.Parameter_File>
/export/apps/rDock/src/rDock_2013.1_src/data/scripts/dock_solv.prm

>  <Rbt.Receptor>
prm/pocket_docking_4.prm

>  <SCORE>
-11.4886

>  <SCORE.INTER>
-11.4886

>  <SCORE.INTER.CONST>
1

>  <SCORE.INTER.POLAR>
0

>  <SCORE.INTER.ROT>
0

>  <SCORE.INTER.SOLV>
21.5369

>  <SCORE.INTER.VDW>
-18.4381

>  <SCORE.INTER.norm>
-1.04442

>  <SCORE.INTRA>
0

>  <SCORE.INTRA.DIHEDRAL>
0

>  <SCORE.INTRA.DIHEDRAL.0>
0

>  <SCORE.INTRA.POLAR>
0

>  <SCORE.INTRA.POLAR.0>
0

>  <SCORE.INTRA.REPUL>
0

>  <SCORE.INTRA.REPUL.0>
0

>  <SCORE.INTRA.SOLV>
0

>  <SCORE.INTRA.SOLV.lig_0>
-48.3454

>  <SCORE.INTRA.VDW>
0

>  <SCORE.INTRA.VDW.0>
0

>  <SCORE.INTRA.norm>
0

>  <SCORE.RESTR>
0

>  <SCORE.RESTR.CAVITY>
0

>  <SCORE.RESTR.norm>
0

>  <SCORE.SYSTEM>
0

>  <SCORE.SYSTEM.CONST>
0

>  <SCORE.SYSTEM.DIHEDRAL>
0

>  <SCORE.SYSTEM.SOLV>
0

>  <SCORE.SYSTEM.norm>
0

>  <SCORE.heavy>
11

>  <SCORE.norm>
-1.04442

>  <RMSD>
0.583

$$$$
ligand
 OpenBabel02271912153D
libRbt.so/2013.1/901 2013/11/27
 11 12  0  0  0  0  0  0  0  0999 V2000
  -11.8594  -12.7093    8.8624 N   0  0  0  0  0  0  0  0  0  0  0  0
  -11.5304  -14.0063    8.9734 C   0  0  0  0  0  0  0  0  0  0  0  0
  -11.5651  -14.5969   10.1646 N   0  0  0  0  0  0  0  0  0  0  0  0
  -11.1566  -14.7104    7.8938 N   0  0  0  0  0  0  0  0  0  0  0  0
  -11.1013  -14.1323    6.6848 C   0  0  0  0  0  0  0  0  0  0  0  0
  -11.4363  -12.7918    6.5422 C   0  0  0  0  0  0  0  0  0  0  0  0
  -11.8231  -12.0838    7.6753 C   0  0  0  0  0  0  0  0  0  0  0  0
  -12.1615  -10.8012    7.5826 N   0  0  0  0  0  0  0  0  0  0  0  0
  -11.2824  -12.4751    5.2600 N   0  0  0  0  0  0  0  0  0  0  0  0
  -10.8680  -13.5652    4.6181 C   0  0  0  0  0  0  0  0  0  0  0  0
  -10.7567  -14.5747    5.4789 N   0  0  0  0  0  0  0  0  0  0  0  0
  1  7  2  0  0  0  0
  1  2  1  0  0  0  0
  2  3  1  0  0  0  0
  2  4  2  0  0  0  0
  4  5  1  0  0  0  0
  5  6  2  0  0  0  0
  5 11  1  0  0  0  0
  6  7  1  0  0  0  0
  6  9  1  0  0  0  0
  7  8  1  0  0  0  0
  9 10  1  0  0  0  0
 10 11  2  0  0  0  0
M  END
>  <CHROM.1>
-11.41701855,-13.31317835,7.27298235,2.04659484,-1.25665717,2.14565970

>  <Name>
ligand

>  <RI>
0

>  <Rbt.Current_Directory>
/home/itssahil/PROJECTS/Mol_Feturizer/Test_systems_manuscript/rnas/2b57

>  <Rbt.Executable>
rbdock ($Id: //depot/dev/client3/rdock/2013.1/src/exe/rbdock.cxx#4 $)

>  <Rbt.Library>
libRbt.so (2013.1, Build901 2013/11/27)

>  <Rbt.Parameter_File>
/export/apps/rDock/src/rDock_2013.1_src/data/scripts/dock_solv.prm

>  <Rbt.Receptor>
prm/pocket_docking_7.prm

>  <SCORE>
-11.5043

>  <SCORE.INTER>
-11.5043

>  <SCORE.INTER.CONST>
1

>  <SCORE.INTER.POLAR>
0

>  <SCORE.INTER.ROT>
0

>  <SCORE.INTER.SOLV>
21.5407

>  <SCORE.INTER.VDW>
-18.4498

>  <SCORE.INTER.norm>
-1.04585

>  <SCORE.INTRA>
0

>  <SCORE.INTRA.DIHEDRAL>
0

>  <SCORE.INTRA.DIHEDRAL.0>
0

>  <SCORE.INTRA.POLAR>
0

>  <SCORE.INTRA.POLAR.0>
0

>  <SCORE.INTRA.REPUL>
0

>  <SCORE.INTRA.REPUL.0>
0

>  <SCORE.INTRA.SOLV>
0

>  <SCORE.INTRA.SOLV.lig_0>
-48.3454

>  <SCORE.INTRA.VDW>
0

>  <SCORE.INTRA.VDW.0>
0

>  <SCORE.INTRA.norm>
0

>  <SCORE.RESTR>
0

>  <SCORE.RESTR.CAVITY>
0

>  <SCORE.RESTR.norm>
0

>  <SCORE.SYSTEM>
0

>  <SCORE.SYSTEM.CONST>
0

>  <SCORE.SYSTEM.DIHEDRAL>
0

>  <SCORE.SYSTEM.SOLV>
0

>  <SCORE.SYSTEM.norm>
0

>  <SCORE.heavy>
11

>  <SCORE.norm>
-1.04585

>  <RMSD>
0.583

$$$$
ligand
 OpenBabel02271912153D
libRbt.so/2013.1/901 2013/11/27
 11 12  0  0  0  0  0  0  0  0999 V2000
  -11.8537  -12.7070    8.8635 N   0  0  0  0  0  0  0  0  0  0  0  0
  -11.5240  -14.0036    8.9764 C   0  0  0  0  0  0  0  0  0  0  0  0
  -11.5503  -14.5903   10.1697 N   0  0  0  0  0  0  0  0  0  0  0  0
  -11.1578  -14.7113    7.8965 N   0  0  0  0  0  0  0  0  0  0  0  0
  -11.1111  -14.1371    6.6853 C   0  0  0  0  0  0  0  0  0  0  0  0
  -11.4470  -12.7970    6.5406 C   0  0  0  0  0  0  0  0  0  0  0  0
  -11.8258  -12.0853    7.6741 C   0  0  0  0  0  0  0  0  0  0  0  0
  -12.1647  -10.8030    7.5797 N   0  0  0  0  0  0  0  0  0  0  0  0
  -11.3022  -12.4845    5.2564 N   0  0  0  0  0  0  0  0  0  0  0  0
  -10.8924  -13.5767    4.6151 C   0  0  0  0  0  0  0  0  0  0  0  0
  -10.7751  -14.5834    5.4784 N   0  0  0  0  0  0  0  0  0  0  0  0
  1  7  2  0  0  0  0
  1  2  1  0  0  0  0
  2  3  1  0  0  0  0
  2  4  2  0  0  0  0
  4  5  1  0  0  0  0
  5  6  2  0  0  0  0
  5 11  1  0  0  0  0
  6  7  1  0  0  0  0
  6  9  1  0  0  0  0
  7  8  1  0  0  0  0
  9 10  1  0  0  0  0
 10 11  2  0  0  0  0
M  END
>  <CHROM.1>
-11.42259257,-13.31604349,7.27296490,2.02723586,-1.26050097,2.12399072

>  <Name>
ligand

>  <RI>
0

>  <Rbt.Current_Directory>
/home/itssahil/PROJECTS/Mol_Feturizer/Test_systems_manuscript/rnas/2b57

>  <Rbt.Executable>
rbdock ($Id: //depot/dev/client3/rdock/2013.1/src/exe/rbdock.cxx#4 $)

>  <Rbt.Library>
libRbt.so (2013.1, Build901 2013/11/27)

>  <Rbt.Parameter_File>
/export/apps/rDock/src/rDock_2013.1_src/data/scripts/dock_solv.prm

>  <Rbt.Receptor>
prm/pocket_docking_3.prm

>  <SCORE>
-11.485

>  <SCORE.INTER>
-11.485

>  <SCORE.INTER.CONST>
1

>  <SCORE.INTER.POLAR>
0

>  <SCORE.INTER.ROT>
0

>  <SCORE.INTER.SOLV>
21.5289

>  <SCORE.INTER.VDW>
-18.433

>  <SCORE.INTER.norm>
-1.04409

>  <SCORE.INTRA>
0

>  <SCORE.INTRA.DIHEDRAL>
0

>  <SCORE.INTRA.DIHEDRAL.0>
0

>  <SCORE.INTRA.POLAR>
0

>  <SCORE.INTRA.POLAR.0>
0

>  <SCORE.INTRA.REPUL>
0

>  <SCORE.INTRA.REPUL.0>
0

>  <SCORE.INTRA.SOLV>
0

>  <SCORE.INTRA.SOLV.lig_0>
-48.3454

>  <SCORE.INTRA.VDW>
0

>  <SCORE.INTRA.VDW.0>
0

>  <SCORE.INTRA.norm>
0

>  <SCORE.RESTR>
0

>  <SCORE.RESTR.CAVITY>
0

>  <SCORE.RESTR.norm>
0

>  <SCORE.SYSTEM>
0

>  <SCORE.SYSTEM.CONST>
0

>  <SCORE.SYSTEM.DIHEDRAL>
0

>  <SCORE.SYSTEM.SOLV>
0

>  <SCORE.SYSTEM.norm>
0

>  <SCORE.heavy>
11

>  <SCORE.norm>
-1.04409

>  <RMSD>
0.584

$$$$
ligand
 OpenBabel02271912153D
libRbt.so/2013.1/901 2013/11/27
 11 12  0  0  0  0  0  0  0  0999 V2000
  -11.8745  -12.7798    8.8783 N   0  0  0  0  0  0  0  0  0  0  0  0
  -11.5296  -14.0744    8.9665 C   0  0  0  0  0  0  0  0  0  0  0  0
  -11.5569  -14.6862   10.1472 N   0  0  0  0  0  0  0  0  0  0  0  0
  -11.1472  -14.7548    7.8748 N   0  0  0  0  0  0  0  0  0  0  0  0
  -11.0991  -14.1548    6.6761 C   0  0  0  0  0  0  0  0  0  0  0  0
  -11.4507  -12.8162    6.5570 C   0  0  0  0  0  0  0  0  0  0  0  0
  -11.8461  -12.1331    7.7024 C   0  0  0  0  0  0  0  0  0  0  0  0
  -12.2002  -10.8533    7.6322 N   0  0  0  0  0  0  0  0  0  0  0  0
  -11.3007  -12.4752    5.2807 N   0  0  0  0  0  0  0  0  0  0  0  0
  -10.8729  -13.5486    4.6198 C   0  0  0  0  0  0  0  0  0  0  0  0
  -10.7492  -14.5717    5.4627 N   0  0  0  0  0  0  0  0  0  0  0  0
  1  7  2  0  0  0  0
  1  2  1  0  0  0  0
  2  3  1  0  0  0  0
  2  4  2  0  0  0  0
  4  5  1  0  0  0  0
  5  6  2  0  0  0  0
  5 11  1  0  0  0  0
  6  7  1  0  0  0  0
  6  9  1  0  0  0  0
  7  8  1  0  0  0  0
  9 10  1  0  0  0  0
 10 11  2  0  0  0  0
M  END
>  <CHROM.1>
-11.42487966,-13.35013677,7.27856908,2.02536743,-1.24627939,2.14310292

>  <Name>
ligand

>  <RI>
0

>  <Rbt.Current_Directory>
/home/itssahil/PROJECTS/Mol_Feturizer/Test_systems_manuscript/rnas/2b57

>  <Rbt.Executable>
rbdock ($Id: //depot/dev/client3/rdock/2013.1/src/exe/rbdock.cxx#4 $)

>  <Rbt.Library>
libRbt.so (2013.1, Build901 2013/11/27)

>  <Rbt.Parameter_File>
/export/apps/rDock/src/rDock_2013.1_src/data/scripts/dock_solv.prm

>  <Rbt.Receptor>
prm/pocket_docking_8.prm

>  <SCORE>
-11.5518

>  <SCORE.INTER>
-11.5518

>  <SCORE.INTER.CONST>
1

>  <SCORE.INTER.POLAR>
0

>  <SCORE.INTER.ROT>
0

>  <SCORE.INTER.SOLV>
21.5005

>  <SCORE.INTER.VDW>
-18.468

>  <SCORE.INTER.norm>
-1.05016

>  <SCORE.INTRA>
0

>  <SCORE.INTRA.DIHEDRAL>
0

>  <SCORE.INTRA.DIHEDRAL.0>
0

>  <SCORE.INTRA.POLAR>
0

>  <SCORE.INTRA.POLAR.0>
0

>  <SCORE.INTRA.REPUL>
0

>  <SCORE.INTRA.REPUL.0>
0

>  <SCORE.INTRA.SOLV>
0

>  <SCORE.INTRA.SOLV.lig_0>
-48.3454

>  <SCORE.INTRA.VDW>
0

>  <SCORE.INTRA.VDW.0>
0

>  <SCORE.INTRA.norm>
0

>  <SCORE.RESTR>
0

>  <SCORE.RESTR.CAVITY>
0

>  <SCORE.RESTR.norm>
0

>  <SCORE.SYSTEM>
0

>  <SCORE.SYSTEM.CONST>
0

>  <SCORE.SYSTEM.DIHEDRAL>
0

>  <SCORE.SYSTEM.SOLV>
0

>  <SCORE.SYSTEM.norm>
0

>  <SCORE.heavy>
11

>  <SCORE.norm>
-1.05016

>  <RMSD>
0.585

$$$$
ligand
 OpenBabel02271912153D
libRbt.so/2013.1/901 2013/11/27
 11 12  0  0  0  0  0  0  0  0999 V2000
  -11.8616  -12.7174    8.8615 N   0  0  0  0  0  0  0  0  0  0  0  0
  -11.5311  -14.0144    8.9684 C   0  0  0  0  0  0  0  0  0  0  0  0
  -11.5647  -14.6086   10.1578 N   0  0  0  0  0  0  0  0  0  0  0  0
  -11.1569  -14.7148    7.8865 N   0  0  0  0  0  0  0  0  0  0  0  0
  -11.1027  -14.1330    6.6793 C   0  0  0  0  0  0  0  0  0  0  0  0
  -11.4393  -12.7924    6.5408 C   0  0  0  0  0  0  0  0  0  0  0  0
  -11.8265  -12.0882    7.6762 C   0  0  0  0  0  0  0  0  0  0  0  0
  -12.1663  -10.8057    7.5875 N   0  0  0  0  0  0  0  0  0  0  0  0
  -11.2862  -12.4716    5.2595 N   0  0  0  0  0  0  0  0  0  0  0  0
  -10.8708  -13.5593    4.6142 C   0  0  0  0  0  0  0  0  0  0  0  0
  -10.7581  -14.5713    5.4719 N   0  0  0  0  0  0  0  0  0  0  0  0
  1  7  2  0  0  0  0
  1  2  1  0  0  0  0
  2  3  1  0  0  0  0
  2  4  2  0  0  0  0
  4  5  1  0  0  0  0
  5  6  2  0  0  0  0
  5 11  1  0  0  0  0
  6  7  1  0  0  0  0
  6  9  1  0  0  0  0
  7  8  1  0  0  0  0
  9 10  1  0  0  0  0
 10 11  2  0  0  0  0
M  END
>  <CHROM.1>
-11.41913242,-13.31596632,7.27002728,2.04359637,-1.25591804,2.14584019

>  <Name>
ligand

>  <RI>
0

>  <Rbt.Current_Directory>
/home/itssahil/PROJECTS/Mol_Feturizer/Test_systems_manuscript/rnas/2b57

>  <Rbt.Executable>
rbdock ($Id: //depot/dev/client3/rdock/2013.1/src/exe/rbdock.cxx#4 $)

>  <Rbt.Library>
libRbt.so (2013.1, Build901 2013/11/27)

>  <Rbt.Parameter_File>
/export/apps/rDock/src/rDock_2013.1_src/data/scripts/dock_solv.prm

>  <Rbt.Receptor>
prm/pocket_docking_3.prm

>  <SCORE>
-11.5041

>  <SCORE.INTER>
-11.5041

>  <SCORE.INTER.CONST>
1

>  <SCORE.INTER.POLAR>
0

>  <SCORE.INTER.ROT>
0

>  <SCORE.INTER.SOLV>
21.5328

>  <SCORE.INTER.VDW>
-18.447

>  <SCORE.INTER.norm>
-1.04583

>  <SCORE.INTRA>
0

>  <SCORE.INTRA.DIHEDRAL>
0

>  <SCORE.INTRA.DIHEDRAL.0>
0

>  <SCORE.INTRA.POLAR>
0

>  <SCORE.INTRA.POLAR.0>
0

>  <SCORE.INTRA.REPUL>
0

>  <SCORE.INTRA.REPUL.0>
0

>  <SCORE.INTRA.SOLV>
0

>  <SCORE.INTRA.SOLV.lig_0>
-48.3454

>  <SCORE.INTRA.VDW>
0

>  <SCORE.INTRA.VDW.0>
0

>  <SCORE.INTRA.norm>
0

>  <SCORE.RESTR>
0

>  <SCORE.RESTR.CAVITY>
0

>  <SCORE.RESTR.norm>
0

>  <SCORE.SYSTEM>
0

>  <SCORE.SYSTEM.CONST>
0

>  <SCORE.SYSTEM.DIHEDRAL>
0

>  <SCORE.SYSTEM.SOLV>
0

>  <SCORE.SYSTEM.norm>
0

>  <SCORE.heavy>
11

>  <SCORE.norm>
-1.04583

>  <RMSD>
0.586

$$$$
ligand
 OpenBabel02271912153D
libRbt.so/2013.1/901 2013/11/27
 11 12  0  0  0  0  0  0  0  0999 V2000
  -11.8964  -12.7023    8.8444 N   0  0  0  0  0  0  0  0  0  0  0  0
  -11.5425  -13.9917    8.9665 C   0  0  0  0  0  0  0  0  0  0  0  0
  -11.5716  -14.5743   10.1618 N   0  0  0  0  0  0  0  0  0  0  0  0
  -11.1493  -14.6961    7.8940 N   0  0  0  0  0  0  0  0  0  0  0  0
  -11.0992  -14.1258    6.6811 C   0  0  0  0  0  0  0  0  0  0  0  0
  -11.4600  -12.7932    6.5269 C   0  0  0  0  0  0  0  0  0  0  0  0
  -11.8664  -12.0848    7.6529 C   0  0  0  0  0  0  0  0  0  0  0  0
  -12.2296  -10.8098    7.5491 N   0  0  0  0  0  0  0  0  0  0  0  0
  -11.3058  -12.4828    5.2433 N   0  0  0  0  0  0  0  0  0  0  0  0
  -10.8666  -13.5690    4.6115 C   0  0  0  0  0  0  0  0  0  0  0  0
  -10.7399  -14.5700    5.4802 N   0  0  0  0  0  0  0  0  0  0  0  0
  1  7  2  0  0  0  0
  1  2  1  0  0  0  0
  2  3  1  0  0  0  0
  2  4  2  0  0  0  0
  4  5  1  0  0  0  0
  5  6  2  0  0  0  0
  5 11  1  0  0  0  0
  6  7  1  0  0  0  0
  6  9  1  0  0  0  0
  7  8  1  0  0  0  0
  9 10  1  0  0  0  0
 10 11  2  0  0  0  0
M  END
>  <CHROM.1>
-11.43410866,-13.30880584,7.26163710,2.02686184,-1.23724639,2.11967736

>  <Name>
ligand

>  <RI>
0

>  <Rbt.Current_Directory>
/home/itssahil/PROJECTS/Mol_Feturizer/Test_systems_manuscript/rnas/2b57

>  <Rbt.Executable>
rbdock ($Id: //depot/dev/client3/rdock/2013.1/src/exe/rbdock.cxx#4 $)

>  <Rbt.Library>
libRbt.so (2013.1, Build901 2013/11/27)

>  <Rbt.Parameter_File>
/export/apps/rDock/src/rDock_2013.1_src/data/scripts/dock_solv.prm

>  <Rbt.Receptor>
prm/pocket_docking_6.prm

>  <SCORE>
-11.4686

>  <SCORE.INTER>
-11.4686

>  <SCORE.INTER.CONST>
1

>  <SCORE.INTER.POLAR>
0

>  <SCORE.INTER.ROT>
0

>  <SCORE.INTER.SOLV>
21.2718

>  <SCORE.INTER.VDW>
-18.3363

>  <SCORE.INTER.norm>
-1.0426

>  <SCORE.INTRA>
0

>  <SCORE.INTRA.DIHEDRAL>
0

>  <SCORE.INTRA.DIHEDRAL.0>
0

>  <SCORE.INTRA.POLAR>
0

>  <SCORE.INTRA.POLAR.0>
0

>  <SCORE.INTRA.REPUL>
0

>  <SCORE.INTRA.REPUL.0>
0

>  <SCORE.INTRA.SOLV>
0

>  <SCORE.INTRA.SOLV.lig_0>
-48.3454

>  <SCORE.INTRA.VDW>
0

>  <SCORE.INTRA.VDW.0>
0

>  <SCORE.INTRA.norm>
0

>  <SCORE.RESTR>
0

>  <SCORE.RESTR.CAVITY>
0

>  <SCORE.RESTR.norm>
0

>  <SCORE.SYSTEM>
0

>  <SCORE.SYSTEM.CONST>
0

>  <SCORE.SYSTEM.DIHEDRAL>
0

>  <SCORE.SYSTEM.SOLV>
0

>  <SCORE.SYSTEM.norm>
0

>  <SCORE.heavy>
11

>  <SCORE.norm>
-1.0426

>  <RMSD>
0.586

$$$$
ligand
 OpenBabel02271912153D
libRbt.so/2013.1/901 2013/11/27
 11 12  0  0  0  0  0  0  0  0999 V2000
  -11.8731  -12.7801    8.8780 N   0  0  0  0  0  0  0  0  0  0  0  0
  -11.5283  -14.0748    8.9649 C   0  0  0  0  0  0  0  0  0  0  0  0
  -11.5552  -14.6876   10.1450 N   0  0  0  0  0  0  0  0  0  0  0  0
  -11.1464  -14.7543    7.8724 N   0  0  0  0  0  0  0  0  0  0  0  0
  -11.0988  -14.1533    6.6743 C   0  0  0  0  0  0  0  0  0  0  0  0
  -11.4503  -12.8146    6.5565 C   0  0  0  0  0  0  0  0  0  0  0  0
  -11.8451  -12.1324    7.7025 C   0  0  0  0  0  0  0  0  0  0  0  0
  -12.1991  -10.8525    7.6336 N   0  0  0  0  0  0  0  0  0  0  0  0
  -11.3009  -12.4724    5.2803 N   0  0  0  0  0  0  0  0  0  0  0  0
  -10.8735  -13.5453    4.6183 C   0  0  0  0  0  0  0  0  0  0  0  0
  -10.7495  -14.5692    5.4603 N   0  0  0  0  0  0  0  0  0  0  0  0
  1  7  2  0  0  0  0
  1  2  1  0  0  0  0
  2  3  1  0  0  0  0
  2  4  2  0  0  0  0
  4  5  1  0  0  0  0
  5  6  2  0  0  0  0
  5 11  1  0  0  0  0
  6  7  1  0  0  0  0
  6  9  1  0  0  0  0
  7  8  1  0  0  0  0
  9 10  1  0  0  0  0
 10 11  2  0  0  0  0
M  END
>  <CHROM.1>
-11.42424133,-13.34909138,7.27752720,2.02441678,-1.24661414,2.14304716

>  <Name>
ligand

>  <RI>
0

>  <Rbt.Current_Directory>
/home/itssahil/PROJECTS/Mol_Feturizer/Test_systems_manuscript/rnas/2b57

>  <Rbt.Executable>
rbdock ($Id: //depot/dev/client3/rdock/2013.1/src/exe/rbdock.cxx#4 $)

>  <Rbt.Library>
libRbt.so (2013.1, Build901 2013/11/27)

>  <Rbt.Parameter_File>
/export/apps/rDock/src/rDock_2013.1_src/data/scripts/dock_solv.prm

>  <Rbt.Receptor>
prm/pocket_docking_8.prm

>  <SCORE>
-11.5514

>  <SCORE.INTER>
-11.5514

>  <SCORE.INTER.CONST>
1

>  <SCORE.INTER.POLAR>
0

>  <SCORE.INTER.ROT>
0

>  <SCORE.INTER.SOLV>
21.508

>  <SCORE.INTER.VDW>
-18.4703

>  <SCORE.INTER.norm>
-1.05013

>  <SCORE.INTRA>
0

>  <SCORE.INTRA.DIHEDRAL>
0

>  <SCORE.INTRA.DIHEDRAL.0>
0

>  <SCORE.INTRA.POLAR>
0

>  <SCORE.INTRA.POLAR.0>
0

>  <SCORE.INTRA.REPUL>
0

>  <SCORE.INTRA.REPUL.0>
0

>  <SCORE.INTRA.SOLV>
0

>  <SCORE.INTRA.SOLV.lig_0>
-48.3454

>  <SCORE.INTRA.VDW>
0

>  <SCORE.INTRA.VDW.0>
0

>  <SCORE.INTRA.norm>
0

>  <SCORE.RESTR>
0

>  <SCORE.RESTR.CAVITY>
0

>  <SCORE.RESTR.norm>
0

>  <SCORE.SYSTEM>
0

>  <SCORE.SYSTEM.CONST>
0

>  <SCORE.SYSTEM.DIHEDRAL>
0

>  <SCORE.SYSTEM.SOLV>
0

>  <SCORE.SYSTEM.norm>
0

>  <SCORE.heavy>
11

>  <SCORE.norm>
-1.05013

>  <RMSD>
0.586

$$$$
ligand
 OpenBabel02271912153D
libRbt.so/2013.1/901 2013/11/27
 11 12  0  0  0  0  0  0  0  0999 V2000
  -11.9095  -12.6931    8.8379 N   0  0  0  0  0  0  0  0  0  0  0  0
  -11.5677  -13.9856    8.9624 C   0  0  0  0  0  0  0  0  0  0  0  0
  -11.6115  -14.5682   10.1572 N   0  0  0  0  0  0  0  0  0  0  0  0
  -11.1720  -14.6930    7.8927 N   0  0  0  0  0  0  0  0  0  0  0  0
  -11.1073  -14.1227    6.6805 C   0  0  0  0  0  0  0  0  0  0  0  0
  -11.4552  -12.7870    6.5240 C   0  0  0  0  0  0  0  0  0  0  0  0
  -11.8645  -12.0755    7.6469 C   0  0  0  0  0  0  0  0  0  0  0  0
  -12.2158  -10.7974    7.5407 N   0  0  0  0  0  0  0  0  0  0  0  0
  -11.2880  -12.4775    5.2417 N   0  0  0  0  0  0  0  0  0  0  0  0
  -10.8532  -13.5674    4.6131 C   0  0  0  0  0  0  0  0  0  0  0  0
  -10.7421  -14.5696    5.4824 N   0  0  0  0  0  0  0  0  0  0  0  0
  1  7  2  0  0  0  0
  1  2  1  0  0  0  0
  2  3  1  0  0  0  0
  2  4  2  0  0  0  0
  4  5  1  0  0  0  0
  5  6  2  0  0  0  0
  5 11  1  0  0  0  0
  6  7  1  0  0  0  0
  6  9  1  0  0  0  0
  7  8  1  0  0  0  0
  9 10  1  0  0  0  0
 10 11  2  0  0  0  0
M  END
>  <CHROM.1>
-11.43968939,-13.30306059,7.25868581,2.06196111,-1.24025120,2.15320935

>  <Name>
ligand

>  <RI>
0

>  <Rbt.Current_Directory>
/home/itssahil/PROJECTS/Mol_Feturizer/Test_systems_manuscript/rnas/2b57

>  <Rbt.Executable>
rbdock ($Id: //depot/dev/client3/rdock/2013.1/src/exe/rbdock.cxx#4 $)

>  <Rbt.Library>
libRbt.so (2013.1, Build901 2013/11/27)

>  <Rbt.Parameter_File>
/export/apps/rDock/src/rDock_2013.1_src/data/scripts/dock_solv.prm

>  <Rbt.Receptor>
prm/pocket_docking_4.prm

>  <SCORE>
-11.4549

>  <SCORE.INTER>
-11.4549

>  <SCORE.INTER.CONST>
1

>  <SCORE.INTER.POLAR>
0

>  <SCORE.INTER.ROT>
0

>  <SCORE.INTER.SOLV>
21.2969

>  <SCORE.INTER.VDW>
-18.3356

>  <SCORE.INTER.norm>
-1.04136

>  <SCORE.INTRA>
0

>  <SCORE.INTRA.DIHEDRAL>
0

>  <SCORE.INTRA.DIHEDRAL.0>
0

>  <SCORE.INTRA.POLAR>
0

>  <SCORE.INTRA.POLAR.0>
0

>  <SCORE.INTRA.REPUL>
0

>  <SCORE.INTRA.REPUL.0>
0

>  <SCORE.INTRA.SOLV>
0

>  <SCORE.INTRA.SOLV.lig_0>
-48.3454

>  <SCORE.INTRA.VDW>
0

>  <SCORE.INTRA.VDW.0>
0

>  <SCORE.INTRA.norm>
0

>  <SCORE.RESTR>
0

>  <SCORE.RESTR.CAVITY>
0

>  <SCORE.RESTR.norm>
0

>  <SCORE.SYSTEM>
0

>  <SCORE.SYSTEM.CONST>
0

>  <SCORE.SYSTEM.DIHEDRAL>
0

>  <SCORE.SYSTEM.SOLV>
0

>  <SCORE.SYSTEM.norm>
0

>  <SCORE.heavy>
11

>  <SCORE.norm>
-1.04136

>  <RMSD>
0.587

$$$$
ligand
 OpenBabel02271912153D
libRbt.so/2013.1/901 2013/11/27
 11 12  0  0  0  0  0  0  0  0999 V2000
  -11.9107  -12.6944    8.8367 N   0  0  0  0  0  0  0  0  0  0  0  0
  -11.5679  -13.9867    8.9603 C   0  0  0  0  0  0  0  0  0  0  0  0
  -11.6113  -14.5701   10.1548 N   0  0  0  0  0  0  0  0  0  0  0  0
  -11.1717  -14.6931    7.8903 N   0  0  0  0  0  0  0  0  0  0  0  0
  -11.1074  -14.1221    6.6784 C   0  0  0  0  0  0  0  0  0  0  0  0
  -11.4563  -12.7865    6.5227 C   0  0  0  0  0  0  0  0  0  0  0  0
  -11.8662  -12.0760    7.6460 C   0  0  0  0  0  0  0  0  0  0  0  0
  -12.2184  -10.7981    7.5407 N   0  0  0  0  0  0  0  0  0  0  0  0
  -11.2893  -12.4762    5.2406 N   0  0  0  0  0  0  0  0  0  0  0  0
  -10.8537  -13.5653    4.6113 C   0  0  0  0  0  0  0  0  0  0  0  0
  -10.7418  -14.5680    5.4800 N   0  0  0  0  0  0  0  0  0  0  0  0
  1  7  2  0  0  0  0
  1  2  1  0  0  0  0
  2  3  1  0  0  0  0
  2  4  2  0  0  0  0
  4  5  1  0  0  0  0
  5  6  2  0  0  0  0
  5 11  1  0  0  0  0
  6  7  1  0  0  0  0
  6  9  1  0  0  0  0
  7  8  1  0  0  0  0
  9 10  1  0  0  0  0
 10 11  2  0  0  0  0
M  END
>  <CHROM.1>
-11.44041737,-13.30304271,7.25707956,2.06072129,-1.23960773,2.15264800

>  <Name>
ligand

>  <RI>
0

>  <Rbt.Current_Directory>
/home/itssahil/PROJECTS/Mol_Feturizer/Test_systems_manuscript/rnas/2b57

>  <Rbt.Executable>
rbdock ($Id: //depot/dev/client3/rdock/2013.1/src/exe/rbdock.cxx#4 $)

>  <Rbt.Library>
libRbt.so (2013.1, Build901 2013/11/27)

>  <Rbt.Parameter_File>
/export/apps/rDock/src/rDock_2013.1_src/data/scripts/dock_solv.prm

>  <Rbt.Receptor>
prm/pocket_docking_7.prm

>  <SCORE>
-11.4551

>  <SCORE.INTER>
-11.4551

>  <SCORE.INTER.CONST>
1

>  <SCORE.INTER.POLAR>
0

>  <SCORE.INTER.ROT>
0

>  <SCORE.INTER.SOLV>
21.2922

>  <SCORE.INTER.VDW>
-18.3341

>  <SCORE.INTER.norm>
-1.04138

>  <SCORE.INTRA>
0

>  <SCORE.INTRA.DIHEDRAL>
0

>  <SCORE.INTRA.DIHEDRAL.0>
0

>  <SCORE.INTRA.POLAR>
0

>  <SCORE.INTRA.POLAR.0>
0

>  <SCORE.INTRA.REPUL>
0

>  <SCORE.INTRA.REPUL.0>
0

>  <SCORE.INTRA.SOLV>
0

>  <SCORE.INTRA.SOLV.lig_0>
-48.3454

>  <SCORE.INTRA.VDW>
0

>  <SCORE.INTRA.VDW.0>
0

>  <SCORE.INTRA.norm>
0

>  <SCORE.RESTR>
0

>  <SCORE.RESTR.CAVITY>
0

>  <SCORE.RESTR.norm>
0

>  <SCORE.SYSTEM>
0

>  <SCORE.SYSTEM.CONST>
0

>  <SCORE.SYSTEM.DIHEDRAL>
0

>  <SCORE.SYSTEM.SOLV>
0

>  <SCORE.SYSTEM.norm>
0

>  <SCORE.heavy>
11

>  <SCORE.norm>
-1.04138

>  <RMSD>
0.588

$$$$
ligand
 OpenBabel02271912153D
libRbt.so/2013.1/901 2013/11/27
 11 12  0  0  0  0  0  0  0  0999 V2000
  -11.8594  -12.7219    8.8613 N   0  0  0  0  0  0  0  0  0  0  0  0
  -11.5246  -14.0179    8.9659 C   0  0  0  0  0  0  0  0  0  0  0  0
  -11.5543  -14.6139   10.1545 N   0  0  0  0  0  0  0  0  0  0  0  0
  -11.1499  -14.7157    7.8824 N   0  0  0  0  0  0  0  0  0  0  0  0
  -11.0996  -14.1320    6.6759 C   0  0  0  0  0  0  0  0  0  0  0  0
  -11.4408  -12.7923    6.5399 C   0  0  0  0  0  0  0  0  0  0  0  0
  -11.8283  -12.0910    7.6769 C   0  0  0  0  0  0  0  0  0  0  0  0
  -12.1723  -10.8094    7.5906 N   0  0  0  0  0  0  0  0  0  0  0  0
  -11.2909  -12.4693    5.2588 N   0  0  0  0  0  0  0  0  0  0  0  0
  -10.8730  -13.5547    4.6113 C   0  0  0  0  0  0  0  0  0  0  0  0
  -10.7557  -14.5675    5.4673 N   0  0  0  0  0  0  0  0  0  0  0  0
  1  7  2  0  0  0  0
  1  2  1  0  0  0  0
  2  3  1  0  0  0  0
  2  4  2  0  0  0  0
  4  5  1  0  0  0  0
  5  6  2  0  0  0  0
  5 11  1  0  0  0  0
  6  7  1  0  0  0  0
  6  9  1  0  0  0  0
  7  8  1  0  0  0  0
  9 10  1  0  0  0  0
 10 11  2  0  0  0  0
M  END
>  <CHROM.1>
-11.41769714,-13.31681638,7.26830528,2.03347770,-1.25413152,2.13762095

>  <Name>
ligand

>  <RI>
0

>  <Rbt.Current_Directory>
/home/itssahil/PROJECTS/Mol_Feturizer/Test_systems_manuscript/rnas/2b57

>  <Rbt.Executable>
rbdock ($Id: //depot/dev/client3/rdock/2013.1/src/exe/rbdock.cxx#4 $)

>  <Rbt.Library>
libRbt.so (2013.1, Build901 2013/11/27)

>  <Rbt.Parameter_File>
/export/apps/rDock/src/rDock_2013.1_src/data/scripts/dock_solv.prm

>  <Rbt.Receptor>
prm/pocket_docking_7.prm

>  <SCORE>
-11.4988

>  <SCORE.INTER>
-11.4988

>  <SCORE.INTER.CONST>
1

>  <SCORE.INTER.POLAR>
0

>  <SCORE.INTER.ROT>
0

>  <SCORE.INTER.SOLV>
21.5193

>  <SCORE.INTER.VDW>
-18.439

>  <SCORE.INTER.norm>
-1.04534

>  <SCORE.INTRA>
0

>  <SCORE.INTRA.DIHEDRAL>
0

>  <SCORE.INTRA.DIHEDRAL.0>
0

>  <SCORE.INTRA.POLAR>
0

>  <SCORE.INTRA.POLAR.0>
0

>  <SCORE.INTRA.REPUL>
0

>  <SCORE.INTRA.REPUL.0>
0

>  <SCORE.INTRA.SOLV>
0

>  <SCORE.INTRA.SOLV.lig_0>
-48.3454

>  <SCORE.INTRA.VDW>
0

>  <SCORE.INTRA.VDW.0>
0

>  <SCORE.INTRA.norm>
0

>  <SCORE.RESTR>
0

>  <SCORE.RESTR.CAVITY>
0

>  <SCORE.RESTR.norm>
0

>  <SCORE.SYSTEM>
0

>  <SCORE.SYSTEM.CONST>
0

>  <SCORE.SYSTEM.DIHEDRAL>
0

>  <SCORE.SYSTEM.SOLV>
0

>  <SCORE.SYSTEM.norm>
0

>  <SCORE.heavy>
11

>  <SCORE.norm>
-1.04534

>  <RMSD>
0.588

$$$$
ligand
 OpenBabel02271912153D
libRbt.so/2013.1/901 2013/11/27
 11 12  0  0  0  0  0  0  0  0999 V2000
  -11.9038  -12.6933    8.8371 N   0  0  0  0  0  0  0  0  0  0  0  0
  -11.5610  -13.9856    8.9601 C   0  0  0  0  0  0  0  0  0  0  0  0
  -11.6017  -14.5688   10.1547 N   0  0  0  0  0  0  0  0  0  0  0  0
  -11.1674  -14.6922    7.8892 N   0  0  0  0  0  0  0  0  0  0  0  0
  -11.1057  -14.1213    6.6771 C   0  0  0  0  0  0  0  0  0  0  0  0
  -11.4547  -12.7857    6.5221 C   0  0  0  0  0  0  0  0  0  0  0  0
  -11.8619  -12.0750    7.6463 C   0  0  0  0  0  0  0  0  0  0  0  0
  -12.2141  -10.7970    7.5416 N   0  0  0  0  0  0  0  0  0  0  0  0
  -11.2907  -12.4755    5.2396 N   0  0  0  0  0  0  0  0  0  0  0  0
  -10.8567  -13.5647    4.6094 C   0  0  0  0  0  0  0  0  0  0  0  0
  -10.7431  -14.5674    5.4779 N   0  0  0  0  0  0  0  0  0  0  0  0
  1  7  2  0  0  0  0
  1  2  1  0  0  0  0
  2  3  1  0  0  0  0
  2  4  2  0  0  0  0
  4  5  1  0  0  0  0
  5  6  2  0  0  0  0
  5 11  1  0  0  0  0
  6  7  1  0  0  0  0
  6  9  1  0  0  0  0
  7  8  1  0  0  0  0
  9 10  1  0  0  0  0
 10 11  2  0  0  0  0
M  END
>  <CHROM.1>
-11.43728770,-13.30212266,7.25646096,2.05511657,-1.24104710,2.14725590

>  <Name>
ligand

>  <RI>
0

>  <Rbt.Current_Directory>
/home/itssahil/PROJECTS/Mol_Feturizer/Test_systems_manuscript/rnas/2b57

>  <Rbt.Executable>
rbdock ($Id: //depot/dev/client3/rdock/2013.1/src/exe/rbdock.cxx#4 $)

>  <Rbt.Library>
libRbt.so (2013.1, Build901 2013/11/27)

>  <Rbt.Parameter_File>
/export/apps/rDock/src/rDock_2013.1_src/data/scripts/dock_solv.prm

>  <Rbt.Receptor>
prm/pocket_docking_3.prm

>  <SCORE>
-11.4543

>  <SCORE.INTER>
-11.4543

>  <SCORE.INTER.CONST>
1

>  <SCORE.INTER.POLAR>
0

>  <SCORE.INTER.ROT>
0

>  <SCORE.INTER.SOLV>
21.3065

>  <SCORE.INTER.VDW>
-18.3384

>  <SCORE.INTER.norm>
-1.0413

>  <SCORE.INTRA>
0

>  <SCORE.INTRA.DIHEDRAL>
0

>  <SCORE.INTRA.DIHEDRAL.0>
0

>  <SCORE.INTRA.POLAR>
0

>  <SCORE.INTRA.POLAR.0>
0

>  <SCORE.INTRA.REPUL>
0

>  <SCORE.INTRA.REPUL.0>
0

>  <SCORE.INTRA.SOLV>
0

>  <SCORE.INTRA.SOLV.lig_0>
-48.3454

>  <SCORE.INTRA.VDW>
0

>  <SCORE.INTRA.VDW.0>
0

>  <SCORE.INTRA.norm>
0

>  <SCORE.RESTR>
0

>  <SCORE.RESTR.CAVITY>
0

>  <SCORE.RESTR.norm>
0

>  <SCORE.SYSTEM>
0

>  <SCORE.SYSTEM.CONST>
0

>  <SCORE.SYSTEM.DIHEDRAL>
0

>  <SCORE.SYSTEM.SOLV>
0

>  <SCORE.SYSTEM.norm>
0

>  <SCORE.heavy>
11

>  <SCORE.norm>
-1.0413

>  <RMSD>
0.589

$$$$
ligand
 OpenBabel02271912153D
libRbt.so/2013.1/901 2013/11/27
 11 12  0  0  0  0  0  0  0  0999 V2000
  -11.8952  -12.7044    8.8456 N   0  0  0  0  0  0  0  0  0  0  0  0
  -11.5697  -14.0019    8.9615 C   0  0  0  0  0  0  0  0  0  0  0  0
  -11.6163  -14.5906   10.1532 N   0  0  0  0  0  0  0  0  0  0  0  0
  -11.1874  -14.7083    7.8863 N   0  0  0  0  0  0  0  0  0  0  0  0
  -11.1202  -14.1321    6.6770 C   0  0  0  0  0  0  0  0  0  0  0  0
  -11.4514  -12.7911    6.5294 C   0  0  0  0  0  0  0  0  0  0  0  0
  -11.8471  -12.0807    7.6579 C   0  0  0  0  0  0  0  0  0  0  0  0
  -12.1821  -10.7976    7.5603 N   0  0  0  0  0  0  0  0  0  0  0  0
  -11.2853  -12.4767    5.2482 N   0  0  0  0  0  0  0  0  0  0  0  0
  -10.8672  -13.5685    4.6117 C   0  0  0  0  0  0  0  0  0  0  0  0
  -10.7656  -14.5769    5.4749 N   0  0  0  0  0  0  0  0  0  0  0  0
  1  7  2  0  0  0  0
  1  2  1  0  0  0  0
  2  3  1  0  0  0  0
  2  4  2  0  0  0  0
  4  5  1  0  0  0  0
  5  6  2  0  0  0  0
  5 11  1  0  0  0  0
  6  7  1  0  0  0  0
  6  9  1  0  0  0  0
  7  8  1  0  0  0  0
  9 10  1  0  0  0  0
 10 11  2  0  0  0  0
M  END
>  <CHROM.1>
-11.43966730,-13.31149138,7.26110693,2.07410982,-1.25321790,2.17032510

>  <Name>
ligand

>  <RI>
0

>  <Rbt.Current_Directory>
/home/itssahil/PROJECTS/Mol_Feturizer/Test_systems_manuscript/rnas/2b57

>  <Rbt.Executable>
rbdock ($Id: //depot/dev/client3/rdock/2013.1/src/exe/rbdock.cxx#4 $)

>  <Rbt.Library>
libRbt.so (2013.1, Build901 2013/11/27)

>  <Rbt.Parameter_File>
/export/apps/rDock/src/rDock_2013.1_src/data/scripts/dock_solv.prm

>  <Rbt.Receptor>
prm/pocket_docking_5.prm

>  <SCORE>
-11.4346

>  <SCORE.INTER>
-11.4346

>  <SCORE.INTER.CONST>
1

>  <SCORE.INTER.POLAR>
0

>  <SCORE.INTER.ROT>
0

>  <SCORE.INTER.SOLV>
21.4359

>  <SCORE.INTER.VDW>
-18.3684

>  <SCORE.INTER.norm>
-1.03951

>  <SCORE.INTRA>
0

>  <SCORE.INTRA.DIHEDRAL>
0

>  <SCORE.INTRA.DIHEDRAL.0>
0

>  <SCORE.INTRA.POLAR>
0

>  <SCORE.INTRA.POLAR.0>
0

>  <SCORE.INTRA.REPUL>
0

>  <SCORE.INTRA.REPUL.0>
0

>  <SCORE.INTRA.SOLV>
0

>  <SCORE.INTRA.SOLV.lig_0>
-48.3454

>  <SCORE.INTRA.VDW>
0

>  <SCORE.INTRA.VDW.0>
0

>  <SCORE.INTRA.norm>
0

>  <SCORE.RESTR>
0

>  <SCORE.RESTR.CAVITY>
0

>  <SCORE.RESTR.norm>
0

>  <SCORE.SYSTEM>
0

>  <SCORE.SYSTEM.CONST>
0

>  <SCORE.SYSTEM.DIHEDRAL>
0

>  <SCORE.SYSTEM.SOLV>
0

>  <SCORE.SYSTEM.norm>
0

>  <SCORE.heavy>
11

>  <SCORE.norm>
-1.03951

>  <RMSD>
0.589

$$$$
ligand
 OpenBabel02271912153D
libRbt.so/2013.1/901 2013/11/27
 11 12  0  0  0  0  0  0  0  0999 V2000
  -11.8650  -12.7327    8.8633 N   0  0  0  0  0  0  0  0  0  0  0  0
  -11.5335  -14.0299    8.9644 C   0  0  0  0  0  0  0  0  0  0  0  0
  -11.5638  -14.6287   10.1516 N   0  0  0  0  0  0  0  0  0  0  0  0
  -11.1614  -14.7259    7.8789 N   0  0  0  0  0  0  0  0  0  0  0  0
  -11.1106  -14.1394    6.6738 C   0  0  0  0  0  0  0  0  0  0  0  0
  -11.4484  -12.7985    6.5413 C   0  0  0  0  0  0  0  0  0  0  0  0
  -11.8332  -12.0990    7.6803 C   0  0  0  0  0  0  0  0  0  0  0  0
  -12.1741  -10.8164    7.5974 N   0  0  0  0  0  0  0  0  0  0  0  0
  -11.2986  -12.4727    5.2609 N   0  0  0  0  0  0  0  0  0  0  0  0
  -10.8841  -13.5576    4.6104 C   0  0  0  0  0  0  0  0  0  0  0  0
  -10.7687  -14.5729    5.4639 N   0  0  0  0  0  0  0  0  0  0  0  0
  1  7  2  0  0  0  0
  1  2  1  0  0  0  0
  2  3  1  0  0  0  0
  2  4  2  0  0  0  0
  4  5  1  0  0  0  0
  5  6  2  0  0  0  0
  5 11  1  0  0  0  0
  6  7  1  0  0  0  0
  6  9  1  0  0  0  0
  7  8  1  0  0  0  0
  9 10  1  0  0  0  0
 10 11  2  0  0  0  0
M  END
>  <CHROM.1>
-11.42608995,-13.32487832,7.26846344,2.03583265,-1.25670292,2.14230547

>  <Name>
ligand

>  <RI>
0

>  <Rbt.Current_Directory>
/home/itssahil/PROJECTS/Mol_Feturizer/Test_systems_manuscript/rnas/2b57

>  <Rbt.Executable>
rbdock ($Id: //depot/dev/client3/rdock/2013.1/src/exe/rbdock.cxx#4 $)

>  <Rbt.Library>
libRbt.so (2013.1, Build901 2013/11/27)

>  <Rbt.Parameter_File>
/export/apps/rDock/src/rDock_2013.1_src/data/scripts/dock_solv.prm

>  <Rbt.Receptor>
prm/pocket_docking_7.prm

>  <SCORE>
-11.4859

>  <SCORE.INTER>
-11.4859

>  <SCORE.INTER.CONST>
1

>  <SCORE.INTER.POLAR>
0

>  <SCORE.INTER.ROT>
0

>  <SCORE.INTER.SOLV>
21.5296

>  <SCORE.INTER.VDW>
-18.4338

>  <SCORE.INTER.norm>
-1.04418

>  <SCORE.INTRA>
0

>  <SCORE.INTRA.DIHEDRAL>
0

>  <SCORE.INTRA.DIHEDRAL.0>
0

>  <SCORE.INTRA.POLAR>
0

>  <SCORE.INTRA.POLAR.0>
0

>  <SCORE.INTRA.REPUL>
0

>  <SCORE.INTRA.REPUL.0>
0

>  <SCORE.INTRA.SOLV>
0

>  <SCORE.INTRA.SOLV.lig_0>
-48.3454

>  <SCORE.INTRA.VDW>
0

>  <SCORE.INTRA.VDW.0>
0

>  <SCORE.INTRA.norm>
0

>  <SCORE.RESTR>
0

>  <SCORE.RESTR.CAVITY>
0

>  <SCORE.RESTR.norm>
0

>  <SCORE.SYSTEM>
0

>  <SCORE.SYSTEM.CONST>
0

>  <SCORE.SYSTEM.DIHEDRAL>
0

>  <SCORE.SYSTEM.SOLV>
0

>  <SCORE.SYSTEM.norm>
0

>  <SCORE.heavy>
11

>  <SCORE.norm>
-1.04418

>  <RMSD>
0.589

$$$$
ligand
 OpenBabel02271912153D
libRbt.so/2013.1/901 2013/11/27
 11 12  0  0  0  0  0  0  0  0999 V2000
  -11.9457  -12.7613    8.8472 N   0  0  0  0  0  0  0  0  0  0  0  0
  -11.5971  -14.0535    8.9540 C   0  0  0  0  0  0  0  0  0  0  0  0
  -11.6431  -14.6541   10.1398 N   0  0  0  0  0  0  0  0  0  0  0  0
  -11.1923  -14.7426    7.8759 N   0  0  0  0  0  0  0  0  0  0  0  0
  -11.1251  -14.1539    6.6726 C   0  0  0  0  0  0  0  0  0  0  0  0
  -11.4800  -12.8180    6.5343 C   0  0  0  0  0  0  0  0  0  0  0  0
  -11.8988  -12.1257    7.6658 C   0  0  0  0  0  0  0  0  0  0  0  0
  -12.2569  -10.8482    7.5770 N   0  0  0  0  0  0  0  0  0  0  0  0
  -11.3086  -12.4885    5.2576 N   0  0  0  0  0  0  0  0  0  0  0  0
  -10.8646  -13.5664    4.6149 C   0  0  0  0  0  0  0  0  0  0  0  0
  -10.7518  -14.5808    5.4697 N   0  0  0  0  0  0  0  0  0  0  0  0
  1  7  2  0  0  0  0
  1  2  1  0  0  0  0
  2  3  1  0  0  0  0
  2  4  2  0  0  0  0
  4  5  1  0  0  0  0
  5  6  2  0  0  0  0
  5 11  1  0  0  0  0
  6  7  1  0  0  0  0
  6  9  1  0  0  0  0
  7  8  1  0  0  0  0
  9 10  1  0  0  0  0
 10 11  2  0  0  0  0
M  END
>  <CHROM.1>
-11.46500883,-13.34491329,7.26131139,2.06419318,-1.23284409,2.17023326

>  <Name>
ligand

>  <RI>
0

>  <Rbt.Current_Directory>
/home/itssahil/PROJECTS/Mol_Feturizer/Test_systems_manuscript/rnas/2b57

>  <Rbt.Executable>
rbdock ($Id: //depot/dev/client3/rdock/2013.1/src/exe/rbdock.cxx#4 $)

>  <Rbt.Library>
libRbt.so (2013.1, Build901 2013/11/27)

>  <Rbt.Parameter_File>
/export/apps/rDock/src/rDock_2013.1_src/data/scripts/dock_solv.prm

>  <Rbt.Receptor>
prm/pocket_docking_8.prm

>  <SCORE>
-11.4154

>  <SCORE.INTER>
-11.4154

>  <SCORE.INTER.CONST>
1

>  <SCORE.INTER.POLAR>
0

>  <SCORE.INTER.ROT>
0

>  <SCORE.INTER.SOLV>
21.2665

>  <SCORE.INTER.VDW>
-18.2991

>  <SCORE.INTER.norm>
-1.03777

>  <SCORE.INTRA>
0

>  <SCORE.INTRA.DIHEDRAL>
0

>  <SCORE.INTRA.DIHEDRAL.0>
0

>  <SCORE.INTRA.POLAR>
0

>  <SCORE.INTRA.POLAR.0>
0

>  <SCORE.INTRA.REPUL>
0

>  <SCORE.INTRA.REPUL.0>
0

>  <SCORE.INTRA.SOLV>
0

>  <SCORE.INTRA.SOLV.lig_0>
-48.3454

>  <SCORE.INTRA.VDW>
0

>  <SCORE.INTRA.VDW.0>
0

>  <SCORE.INTRA.norm>
0

>  <SCORE.RESTR>
0

>  <SCORE.RESTR.CAVITY>
0

>  <SCORE.RESTR.norm>
0

>  <SCORE.SYSTEM>
0

>  <SCORE.SYSTEM.CONST>
0

>  <SCORE.SYSTEM.DIHEDRAL>
0

>  <SCORE.SYSTEM.SOLV>
0

>  <SCORE.SYSTEM.norm>
0

>  <SCORE.heavy>
11

>  <SCORE.norm>
-1.03777

>  <RMSD>
0.589

$$$$
ligand
 OpenBabel02271912153D
libRbt.so/2013.1/901 2013/11/27
 11 12  0  0  0  0  0  0  0  0999 V2000
  -11.8552  -12.7139    8.8581 N   0  0  0  0  0  0  0  0  0  0  0  0
  -11.5216  -14.0100    8.9651 C   0  0  0  0  0  0  0  0  0  0  0  0
  -11.5499  -14.6032   10.1552 N   0  0  0  0  0  0  0  0  0  0  0  0
  -11.1494  -14.7107    7.8826 N   0  0  0  0  0  0  0  0  0  0  0  0
  -11.1005  -14.1299    6.6747 C   0  0  0  0  0  0  0  0  0  0  0  0
  -11.4405  -12.7901    6.5361 C   0  0  0  0  0  0  0  0  0  0  0  0
  -11.8254  -12.0858    7.6721 C   0  0  0  0  0  0  0  0  0  0  0  0
  -12.1683  -10.8041    7.5833 N   0  0  0  0  0  0  0  0  0  0  0  0
  -11.2924  -12.4703    5.2540 N   0  0  0  0  0  0  0  0  0  0  0  0
  -10.8768  -13.5577    4.6083 C   0  0  0  0  0  0  0  0  0  0  0  0
  -10.7590  -14.5686    5.4666 N   0  0  0  0  0  0  0  0  0  0  0  0
  1  7  2  0  0  0  0
  1  2  1  0  0  0  0
  2  3  1  0  0  0  0
  2  4  2  0  0  0  0
  4  5  1  0  0  0  0
  5  6  2  0  0  0  0
  5 11  1  0  0  0  0
  6  7  1  0  0  0  0
  6  9  1  0  0  0  0
  7  8  1  0  0  0  0
  9 10  1  0  0  0  0
 10 11  2  0  0  0  0
M  END
>  <CHROM.1>
-11.41676301,-13.31300113,7.26570124,2.03072986,-1.25590239,2.13266037

>  <Name>
ligand

>  <RI>
0

>  <Rbt.Current_Directory>
/home/itssahil/PROJECTS/Mol_Feturizer/Test_systems_manuscript/rnas/2b57

>  <Rbt.Executable>
rbdock ($Id: //depot/dev/client3/rdock/2013.1/src/exe/rbdock.cxx#4 $)

>  <Rbt.Library>
libRbt.so (2013.1, Build901 2013/11/27)

>  <Rbt.Parameter_File>
/export/apps/rDock/src/rDock_2013.1_src/data/scripts/dock_solv.prm

>  <Rbt.Receptor>
prm/blind_docking_100.prm

>  <SCORE>
-11.5019

>  <SCORE.INTER>
-11.5019

>  <SCORE.INTER.CONST>
1

>  <SCORE.INTER.POLAR>
0

>  <SCORE.INTER.ROT>
0

>  <SCORE.INTER.SOLV>
21.5232

>  <SCORE.INTER.VDW>
-18.4423

>  <SCORE.INTER.norm>
-1.04563

>  <SCORE.INTRA>
0

>  <SCORE.INTRA.DIHEDRAL>
0

>  <SCORE.INTRA.DIHEDRAL.0>
0

>  <SCORE.INTRA.POLAR>
0

>  <SCORE.INTRA.POLAR.0>
0

>  <SCORE.INTRA.REPUL>
0

>  <SCORE.INTRA.REPUL.0>
0

>  <SCORE.INTRA.SOLV>
0

>  <SCORE.INTRA.SOLV.lig_0>
-48.3454

>  <SCORE.INTRA.VDW>
0

>  <SCORE.INTRA.VDW.0>
0

>  <SCORE.INTRA.norm>
0

>  <SCORE.RESTR>
0

>  <SCORE.RESTR.CAVITY>
0

>  <SCORE.RESTR.norm>
0

>  <SCORE.SYSTEM>
0

>  <SCORE.SYSTEM.CONST>
0

>  <SCORE.SYSTEM.DIHEDRAL>
0

>  <SCORE.SYSTEM.SOLV>
0

>  <SCORE.SYSTEM.norm>
0

>  <SCORE.heavy>
11

>  <SCORE.norm>
-1.04563

>  <RMSD>
0.590

$$$$
ligand
 OpenBabel02271912153D
libRbt.so/2013.1/901 2013/11/27
 11 12  0  0  0  0  0  0  0  0999 V2000
  -11.8292  -12.7668    8.8823 N   0  0  0  0  0  0  0  0  0  0  0  0
  -11.4618  -14.0551    8.9717 C   0  0  0  0  0  0  0  0  0  0  0  0
  -11.4560  -14.6595   10.1565 N   0  0  0  0  0  0  0  0  0  0  0  0
  -11.0902  -14.7365    7.8768 N   0  0  0  0  0  0  0  0  0  0  0  0
  -11.0755  -14.1438    6.6738 C   0  0  0  0  0  0  0  0  0  0  0  0
  -11.4507  -12.8117    6.5533 C   0  0  0  0  0  0  0  0  0  0  0  0
  -11.8343  -12.1275    7.7019 C   0  0  0  0  0  0  0  0  0  0  0  0
  -12.2102  -10.8540    7.6308 N   0  0  0  0  0  0  0  0  0  0  0  0
  -11.3316  -12.4768    5.2721 N   0  0  0  0  0  0  0  0  0  0  0  0
  -10.8998  -13.5476    4.6096 C   0  0  0  0  0  0  0  0  0  0  0  0
  -10.7430  -14.5630    5.4562 N   0  0  0  0  0  0  0  0  0  0  0  0
  1  7  2  0  0  0  0
  1  2  1  0  0  0  0
  2  3  1  0  0  0  0
  2  4  2  0  0  0  0
  4  5  1  0  0  0  0
  5  6  2  0  0  0  0
  5 11  1  0  0  0  0
  6  7  1  0  0  0  0
  6  9  1  0  0  0  0
  7  8  1  0  0  0  0
  9 10  1  0  0  0  0
 10 11  2  0  0  0  0
M  END
>  <CHROM.1>
-11.40213033,-13.34041236,7.27749159,1.94679315,-1.24256868,2.06224264

>  <Name>
ligand

>  <RI>
0

>  <Rbt.Current_Directory>
/home/itssahil/PROJECTS/Mol_Feturizer/Test_systems_manuscript/rnas/2b57

>  <Rbt.Executable>
rbdock ($Id: //depot/dev/client3/rdock/2013.1/src/exe/rbdock.cxx#4 $)

>  <Rbt.Library>
libRbt.so (2013.1, Build901 2013/11/27)

>  <Rbt.Parameter_File>
/export/apps/rDock/src/rDock_2013.1_src/data/scripts/dock_solv.prm

>  <Rbt.Receptor>
prm/blind_docking_40.prm

>  <SCORE>
-11.472

>  <SCORE.INTER>
-11.472

>  <SCORE.INTER.CONST>
1

>  <SCORE.INTER.POLAR>
0

>  <SCORE.INTER.ROT>
0

>  <SCORE.INTER.SOLV>
21.4297

>  <SCORE.INTER.VDW>
-18.3912

>  <SCORE.INTER.norm>
-1.04291

>  <SCORE.INTRA>
0

>  <SCORE.INTRA.DIHEDRAL>
0

>  <SCORE.INTRA.DIHEDRAL.0>
0

>  <SCORE.INTRA.POLAR>
0

>  <SCORE.INTRA.POLAR.0>
0

>  <SCORE.INTRA.REPUL>
0

>  <SCORE.INTRA.REPUL.0>
0

>  <SCORE.INTRA.SOLV>
0

>  <SCORE.INTRA.SOLV.lig_0>
-48.3454

>  <SCORE.INTRA.VDW>
0

>  <SCORE.INTRA.VDW.0>
0

>  <SCORE.INTRA.norm>
0

>  <SCORE.RESTR>
0

>  <SCORE.RESTR.CAVITY>
0

>  <SCORE.RESTR.norm>
0

>  <SCORE.SYSTEM>
0

>  <SCORE.SYSTEM.CONST>
0

>  <SCORE.SYSTEM.DIHEDRAL>
0

>  <SCORE.SYSTEM.SOLV>
0

>  <SCORE.SYSTEM.norm>
0

>  <SCORE.heavy>
11

>  <SCORE.norm>
-1.04291

>  <RMSD>
0.590

$$$$
ligand
 OpenBabel02271912153D
libRbt.so/2013.1/901 2013/11/27
 11 12  0  0  0  0  0  0  0  0999 V2000
  -11.8806  -12.7828    8.8725 N   0  0  0  0  0  0  0  0  0  0  0  0
  -11.5387  -14.0783    8.9589 C   0  0  0  0  0  0  0  0  0  0  0  0
  -11.5703  -14.6925   10.1382 N   0  0  0  0  0  0  0  0  0  0  0  0
  -11.1549  -14.7573    7.8667 N   0  0  0  0  0  0  0  0  0  0  0  0
  -11.1026  -14.1550    6.6695 C   0  0  0  0  0  0  0  0  0  0  0  0
  -11.4510  -12.8154    6.5522 C   0  0  0  0  0  0  0  0  0  0  0  0
  -11.8478  -12.1337    7.6979 C   0  0  0  0  0  0  0  0  0  0  0  0
  -12.1990  -10.8531    7.6295 N   0  0  0  0  0  0  0  0  0  0  0  0
  -11.2971  -12.4721    5.2769 N   0  0  0  0  0  0  0  0  0  0  0  0
  -10.8699  -13.5451    4.6149 C   0  0  0  0  0  0  0  0  0  0  0  0
  -10.7505  -14.5701    5.4560 N   0  0  0  0  0  0  0  0  0  0  0  0
  1  7  2  0  0  0  0
  1  2  1  0  0  0  0
  2  3  1  0  0  0  0
  2  4  2  0  0  0  0
  4  5  1  0  0  0  0
  5  6  2  0  0  0  0
  5 11  1  0  0  0  0
  6  7  1  0  0  0  0
  6  9  1  0  0  0  0
  7  8  1  0  0  0  0
  9 10  1  0  0  0  0
 10 11  2  0  0  0  0
M  END
>  <CHROM.1>
-11.42814840,-13.35082906,7.27269690,2.03566990,-1.24669504,2.15490185

>  <Name>
ligand

>  <RI>
0

>  <Rbt.Current_Directory>
/home/itssahil/PROJECTS/Mol_Feturizer/Test_systems_manuscript/rnas/2b57

>  <Rbt.Executable>
rbdock ($Id: //depot/dev/client3/rdock/2013.1/src/exe/rbdock.cxx#4 $)

>  <Rbt.Library>
libRbt.so (2013.1, Build901 2013/11/27)

>  <Rbt.Parameter_File>
/export/apps/rDock/src/rDock_2013.1_src/data/scripts/dock_solv.prm

>  <Rbt.Receptor>
prm/pocket_docking_4.prm

>  <SCORE>
-11.5235

>  <SCORE.INTER>
-11.5235

>  <SCORE.INTER.CONST>
1

>  <SCORE.INTER.POLAR>
0

>  <SCORE.INTER.ROT>
0

>  <SCORE.INTER.SOLV>
21.5129

>  <SCORE.INTER.VDW>
-18.4533

>  <SCORE.INTER.norm>
-1.0476

>  <SCORE.INTRA>
0

>  <SCORE.INTRA.DIHEDRAL>
0

>  <SCORE.INTRA.DIHEDRAL.0>
0

>  <SCORE.INTRA.POLAR>
0

>  <SCORE.INTRA.POLAR.0>
0

>  <SCORE.INTRA.REPUL>
0

>  <SCORE.INTRA.REPUL.0>
0

>  <SCORE.INTRA.SOLV>
0

>  <SCORE.INTRA.SOLV.lig_0>
-48.3454

>  <SCORE.INTRA.VDW>
0

>  <SCORE.INTRA.VDW.0>
0

>  <SCORE.INTRA.norm>
0

>  <SCORE.RESTR>
0

>  <SCORE.RESTR.CAVITY>
0

>  <SCORE.RESTR.norm>
0

>  <SCORE.SYSTEM>
0

>  <SCORE.SYSTEM.CONST>
0

>  <SCORE.SYSTEM.DIHEDRAL>
0

>  <SCORE.SYSTEM.SOLV>
0

>  <SCORE.SYSTEM.norm>
0

>  <SCORE.heavy>
11

>  <SCORE.norm>
-1.0476

>  <RMSD>
0.590

$$$$
ligand
 OpenBabel02271912153D
libRbt.so/2013.1/901 2013/11/27
 11 12  0  0  0  0  0  0  0  0999 V2000
  -11.9190  -12.6912    8.8324 N   0  0  0  0  0  0  0  0  0  0  0  0
  -11.5851  -13.9857    8.9571 C   0  0  0  0  0  0  0  0  0  0  0  0
  -11.6350  -14.5685   10.1516 N   0  0  0  0  0  0  0  0  0  0  0  0
  -11.1911  -14.6950    7.8881 N   0  0  0  0  0  0  0  0  0  0  0  0
  -11.1203  -14.1247    6.6763 C   0  0  0  0  0  0  0  0  0  0  0  0
  -11.4601  -12.7869    6.5195 C   0  0  0  0  0  0  0  0  0  0  0  0
  -11.8678  -12.0734    7.6418 C   0  0  0  0  0  0  0  0  0  0  0  0
  -12.2113  -10.7933    7.5353 N   0  0  0  0  0  0  0  0  0  0  0  0
  -11.2882  -12.4779    5.2377 N   0  0  0  0  0  0  0  0  0  0  0  0
  -10.8583  -13.5701    4.6096 C   0  0  0  0  0  0  0  0  0  0  0  0
  -10.7551  -14.5733    5.4788 N   0  0  0  0  0  0  0  0  0  0  0  0
  1  7  2  0  0  0  0
  1  2  1  0  0  0  0
  2  3  1  0  0  0  0
  2  4  2  0  0  0  0
  4  5  1  0  0  0  0
  5  6  2  0  0  0  0
  5 11  1  0  0  0  0
  6  7  1  0  0  0  0
  6  9  1  0  0  0  0
  7  8  1  0  0  0  0
  9 10  1  0  0  0  0
 10 11  2  0  0  0  0
M  END
>  <CHROM.1>
-11.44926759,-13.30331210,7.25401672,2.07784453,-1.24385138,2.16862386

>  <Name>
ligand

>  <RI>
0

>  <Rbt.Current_Directory>
/home/itssahil/PROJECTS/Mol_Feturizer/Test_systems_manuscript/rnas/2b57

>  <Rbt.Executable>
rbdock ($Id: //depot/dev/client3/rdock/2013.1/src/exe/rbdock.cxx#4 $)

>  <Rbt.Library>
libRbt.so (2013.1, Build901 2013/11/27)

>  <Rbt.Parameter_File>
/export/apps/rDock/src/rDock_2013.1_src/data/scripts/dock_solv.prm

>  <Rbt.Receptor>
prm/pocket_docking_5.prm

>  <SCORE>
-11.4523

>  <SCORE.INTER>
-11.4523

>  <SCORE.INTER.CONST>
1

>  <SCORE.INTER.POLAR>
0

>  <SCORE.INTER.ROT>
0

>  <SCORE.INTER.SOLV>
21.3086

>  <SCORE.INTER.VDW>
-18.3378

>  <SCORE.INTER.norm>
-1.04112

>  <SCORE.INTRA>
0

>  <SCORE.INTRA.DIHEDRAL>
0

>  <SCORE.INTRA.DIHEDRAL.0>
0

>  <SCORE.INTRA.POLAR>
0

>  <SCORE.INTRA.POLAR.0>
0

>  <SCORE.INTRA.REPUL>
0

>  <SCORE.INTRA.REPUL.0>
0

>  <SCORE.INTRA.SOLV>
0

>  <SCORE.INTRA.SOLV.lig_0>
-48.3454

>  <SCORE.INTRA.VDW>
0

>  <SCORE.INTRA.VDW.0>
0

>  <SCORE.INTRA.norm>
0

>  <SCORE.RESTR>
0

>  <SCORE.RESTR.CAVITY>
0

>  <SCORE.RESTR.norm>
0

>  <SCORE.SYSTEM>
0

>  <SCORE.SYSTEM.CONST>
0

>  <SCORE.SYSTEM.DIHEDRAL>
0

>  <SCORE.SYSTEM.SOLV>
0

>  <SCORE.SYSTEM.norm>
0

>  <SCORE.heavy>
11

>  <SCORE.norm>
-1.04112

>  <RMSD>
0.590

$$$$
ligand
 OpenBabel02271912153D
libRbt.so/2013.1/901 2013/11/27
 11 12  0  0  0  0  0  0  0  0999 V2000
  -11.8548  -12.7141    8.8577 N   0  0  0  0  0  0  0  0  0  0  0  0
  -11.5209  -14.0102    8.9647 C   0  0  0  0  0  0  0  0  0  0  0  0
  -11.5495  -14.6034   10.1548 N   0  0  0  0  0  0  0  0  0  0  0  0
  -11.1482  -14.7106    7.8823 N   0  0  0  0  0  0  0  0  0  0  0  0
  -11.0990  -14.1297    6.6745 C   0  0  0  0  0  0  0  0  0  0  0  0
  -11.4392  -12.7900    6.5359 C   0  0  0  0  0  0  0  0  0  0  0  0
  -11.8247  -12.0858    7.6718 C   0  0  0  0  0  0  0  0  0  0  0  0
  -12.1679  -10.8042    7.5831 N   0  0  0  0  0  0  0  0  0  0  0  0
  -11.2907  -12.4700    5.2539 N   0  0  0  0  0  0  0  0  0  0  0  0
  -10.8746  -13.5572    4.6083 C   0  0  0  0  0  0  0  0  0  0  0  0
  -10.7570  -14.5682    5.4664 N   0  0  0  0  0  0  0  0  0  0  0  0
  1  7  2  0  0  0  0
  1  2  1  0  0  0  0
  2  3  1  0  0  0  0
  2  4  2  0  0  0  0
  4  5  1  0  0  0  0
  5  6  2  0  0  0  0
  5 11  1  0  0  0  0
  6  7  1  0  0  0  0
  6  9  1  0  0  0  0
  7  8  1  0  0  0  0
  9 10  1  0  0  0  0
 10 11  2  0  0  0  0
M  END
>  <CHROM.1>
-11.41564685,-13.31294363,7.26546312,2.03132602,-1.25550444,2.13332703

>  <Name>
ligand

>  <RI>
0

>  <Rbt.Current_Directory>
/home/itssahil/PROJECTS/Mol_Feturizer/Test_systems_manuscript/rnas/2b57

>  <Rbt.Executable>
rbdock ($Id: //depot/dev/client3/rdock/2013.1/src/exe/rbdock.cxx#4 $)

>  <Rbt.Library>
libRbt.so (2013.1, Build901 2013/11/27)

>  <Rbt.Parameter_File>
/export/apps/rDock/src/rDock_2013.1_src/data/scripts/dock_solv.prm

>  <Rbt.Receptor>
prm/pocket_docking_7.prm

>  <SCORE>
-11.5021

>  <SCORE.INTER>
-11.5021

>  <SCORE.INTER.CONST>
1

>  <SCORE.INTER.POLAR>
0

>  <SCORE.INTER.ROT>
0

>  <SCORE.INTER.SOLV>
21.5242

>  <SCORE.INTER.VDW>
-18.4428

>  <SCORE.INTER.norm>
-1.04564

>  <SCORE.INTRA>
0

>  <SCORE.INTRA.DIHEDRAL>
0

>  <SCORE.INTRA.DIHEDRAL.0>
0

>  <SCORE.INTRA.POLAR>
0

>  <SCORE.INTRA.POLAR.0>
0

>  <SCORE.INTRA.REPUL>
0

>  <SCORE.INTRA.REPUL.0>
0

>  <SCORE.INTRA.SOLV>
0

>  <SCORE.INTRA.SOLV.lig_0>
-48.3454

>  <SCORE.INTRA.VDW>
0

>  <SCORE.INTRA.VDW.0>
0

>  <SCORE.INTRA.norm>
0

>  <SCORE.RESTR>
0

>  <SCORE.RESTR.CAVITY>
0

>  <SCORE.RESTR.norm>
0

>  <SCORE.SYSTEM>
0

>  <SCORE.SYSTEM.CONST>
0

>  <SCORE.SYSTEM.DIHEDRAL>
0

>  <SCORE.SYSTEM.SOLV>
0

>  <SCORE.SYSTEM.norm>
0

>  <SCORE.heavy>
11

>  <SCORE.norm>
-1.04564

>  <RMSD>
0.590

$$$$
ligand
 OpenBabel02271912153D
libRbt.so/2013.1/901 2013/11/27
 11 12  0  0  0  0  0  0  0  0999 V2000
  -11.9215  -12.7083    8.8357 N   0  0  0  0  0  0  0  0  0  0  0  0
  -11.5808  -14.0016    8.9543 C   0  0  0  0  0  0  0  0  0  0  0  0
  -11.6278  -14.5904   10.1459 N   0  0  0  0  0  0  0  0  0  0  0  0
  -11.1829  -14.7037    7.8819 N   0  0  0  0  0  0  0  0  0  0  0  0
  -11.1149  -14.1271    6.6728 C   0  0  0  0  0  0  0  0  0  0  0  0
  -11.4617  -12.7904    6.5225 C   0  0  0  0  0  0  0  0  0  0  0  0
  -11.8733  -12.0845    7.6481 C   0  0  0  0  0  0  0  0  0  0  0  0
  -12.2235  -10.8057    7.5477 N   0  0  0  0  0  0  0  0  0  0  0  0
  -11.2912  -12.4744    5.2422 N   0  0  0  0  0  0  0  0  0  0  0  0
  -10.8555  -13.5612    4.6089 C   0  0  0  0  0  0  0  0  0  0  0  0
  -10.7471  -14.5680    5.4733 N   0  0  0  0  0  0  0  0  0  0  0  0
  1  7  2  0  0  0  0
  1  2  1  0  0  0  0
  2  3  1  0  0  0  0
  2  4  2  0  0  0  0
  4  5  1  0  0  0  0
  5  6  2  0  0  0  0
  5 11  1  0  0  0  0
  6  7  1  0  0  0  0
  6  9  1  0  0  0  0
  7  8  1  0  0  0  0
  9 10  1  0  0  0  0
 10 11  2  0  0  0  0
M  END
>  <CHROM.1>
-11.44825063,-13.31033211,7.25446908,2.06915064,-1.23941006,2.16521570

>  <Name>
ligand

>  <RI>
0

>  <Rbt.Current_Directory>
/home/itssahil/PROJECTS/Mol_Feturizer/Test_systems_manuscript/rnas/2b57

>  <Rbt.Executable>
rbdock ($Id: //depot/dev/client3/rdock/2013.1/src/exe/rbdock.cxx#4 $)

>  <Rbt.Library>
libRbt.so (2013.1, Build901 2013/11/27)

>  <Rbt.Parameter_File>
/export/apps/rDock/src/rDock_2013.1_src/data/scripts/dock_solv.prm

>  <Rbt.Receptor>
prm/blind_docking_100.prm

>  <SCORE>
-11.4496

>  <SCORE.INTER>
-11.4496

>  <SCORE.INTER.CONST>
1

>  <SCORE.INTER.POLAR>
0

>  <SCORE.INTER.ROT>
0

>  <SCORE.INTER.SOLV>
21.2928

>  <SCORE.INTER.VDW>
-18.3307

>  <SCORE.INTER.norm>
-1.04088

>  <SCORE.INTRA>
0

>  <SCORE.INTRA.DIHEDRAL>
0

>  <SCORE.INTRA.DIHEDRAL.0>
0

>  <SCORE.INTRA.POLAR>
0

>  <SCORE.INTRA.POLAR.0>
0

>  <SCORE.INTRA.REPUL>
0

>  <SCORE.INTRA.REPUL.0>
0

>  <SCORE.INTRA.SOLV>
0

>  <SCORE.INTRA.SOLV.lig_0>
-48.3454

>  <SCORE.INTRA.VDW>
0

>  <SCORE.INTRA.VDW.0>
0

>  <SCORE.INTRA.norm>
0

>  <SCORE.RESTR>
0

>  <SCORE.RESTR.CAVITY>
0

>  <SCORE.RESTR.norm>
0

>  <SCORE.SYSTEM>
0

>  <SCORE.SYSTEM.CONST>
0

>  <SCORE.SYSTEM.DIHEDRAL>
0

>  <SCORE.SYSTEM.SOLV>
0

>  <SCORE.SYSTEM.norm>
0

>  <SCORE.heavy>
11

>  <SCORE.norm>
-1.04088

>  <RMSD>
0.591

$$$$
ligand
 OpenBabel02271912153D
libRbt.so/2013.1/901 2013/11/27
 11 12  0  0  0  0  0  0  0  0999 V2000
  -11.8543  -12.7920    8.8810 N   0  0  0  0  0  0  0  0  0  0  0  0
  -11.5003  -14.0843    8.9668 C   0  0  0  0  0  0  0  0  0  0  0  0
  -11.5163  -14.6965   10.1474 N   0  0  0  0  0  0  0  0  0  0  0  0
  -11.1201  -14.7620    7.8725 N   0  0  0  0  0  0  0  0  0  0  0  0
  -11.0834  -14.1615    6.6738 C   0  0  0  0  0  0  0  0  0  0  0  0
  -11.4445  -12.8253    6.5571 C   0  0  0  0  0  0  0  0  0  0  0  0
  -11.8374  -12.1449    7.7050 C   0  0  0  0  0  0  0  0  0  0  0  0
  -12.2004  -10.8675    7.6373 N   0  0  0  0  0  0  0  0  0  0  0  0
  -11.3047  -12.4830    5.2799 N   0  0  0  0  0  0  0  0  0  0  0  0
  -10.8740  -13.5535    4.6162 C   0  0  0  0  0  0  0  0  0  0  0  0
  -10.7383  -14.5759    5.4581 N   0  0  0  0  0  0  0  0  0  0  0  0
  1  7  2  0  0  0  0
  1  2  1  0  0  0  0
  2  3  1  0  0  0  0
  2  4  2  0  0  0  0
  4  5  1  0  0  0  0
  5  6  2  0  0  0  0
  5 11  1  0  0  0  0
  6  7  1  0  0  0  0
  6  9  1  0  0  0  0
  7  8  1  0  0  0  0
  9 10  1  0  0  0  0
 10 11  2  0  0  0  0
M  END
>  <CHROM.1>
-11.41077752,-13.35910854,7.27835495,1.99807650,-1.24395971,2.11742577

>  <Name>
ligand

>  <RI>
0

>  <Rbt.Current_Directory>
/home/itssahil/PROJECTS/Mol_Feturizer/Test_systems_manuscript/rnas/2b57

>  <Rbt.Executable>
rbdock ($Id: //depot/dev/client3/rdock/2013.1/src/exe/rbdock.cxx#4 $)

>  <Rbt.Library>
libRbt.so (2013.1, Build901 2013/11/27)

>  <Rbt.Parameter_File>
/export/apps/rDock/src/rDock_2013.1_src/data/scripts/dock_solv.prm

>  <Rbt.Receptor>
prm/blind_docking_40.prm

>  <SCORE>
-11.5644

>  <SCORE.INTER>
-11.5644

>  <SCORE.INTER.CONST>
1

>  <SCORE.INTER.POLAR>
0

>  <SCORE.INTER.ROT>
0

>  <SCORE.INTER.SOLV>
21.4955

>  <SCORE.INTER.VDW>
-18.4748

>  <SCORE.INTER.norm>
-1.05131

>  <SCORE.INTRA>
0

>  <SCORE.INTRA.DIHEDRAL>
0

>  <SCORE.INTRA.DIHEDRAL.0>
0

>  <SCORE.INTRA.POLAR>
0

>  <SCORE.INTRA.POLAR.0>
0

>  <SCORE.INTRA.REPUL>
0

>  <SCORE.INTRA.REPUL.0>
0

>  <SCORE.INTRA.SOLV>
0

>  <SCORE.INTRA.SOLV.lig_0>
-48.3454

>  <SCORE.INTRA.VDW>
0

>  <SCORE.INTRA.VDW.0>
0

>  <SCORE.INTRA.norm>
0

>  <SCORE.RESTR>
0

>  <SCORE.RESTR.CAVITY>
0

>  <SCORE.RESTR.norm>
0

>  <SCORE.SYSTEM>
0

>  <SCORE.SYSTEM.CONST>
0

>  <SCORE.SYSTEM.DIHEDRAL>
0

>  <SCORE.SYSTEM.SOLV>
0

>  <SCORE.SYSTEM.norm>
0

>  <SCORE.heavy>
11

>  <SCORE.norm>
-1.05131

>  <RMSD>
0.591

$$$$
ligand
 OpenBabel02271912153D
libRbt.so/2013.1/901 2013/11/27
 11 12  0  0  0  0  0  0  0  0999 V2000
  -11.8881  -12.6775    8.8356 N   0  0  0  0  0  0  0  0  0  0  0  0
  -11.5412  -13.9683    8.9631 C   0  0  0  0  0  0  0  0  0  0  0  0
  -11.5737  -14.5457   10.1609 N   0  0  0  0  0  0  0  0  0  0  0  0
  -11.1516  -14.6793    7.8936 N   0  0  0  0  0  0  0  0  0  0  0  0
  -11.0983  -14.1143    6.6784 C   0  0  0  0  0  0  0  0  0  0  0  0
  -11.4518  -12.7804    6.5186 C   0  0  0  0  0  0  0  0  0  0  0  0
  -11.8546  -12.0651    7.6415 C   0  0  0  0  0  0  0  0  0  0  0  0
  -12.2107  -10.7887    7.5324 N   0  0  0  0  0  0  0  0  0  0  0  0
  -11.2957  -12.4762    5.2337 N   0  0  0  0  0  0  0  0  0  0  0  0
  -10.8624  -13.5675    4.6065 C   0  0  0  0  0  0  0  0  0  0  0  0
  -10.7412  -14.5654    5.4794 N   0  0  0  0  0  0  0  0  0  0  0  0
  1  7  2  0  0  0  0
  1  2  1  0  0  0  0
  2  3  1  0  0  0  0
  2  4  2  0  0  0  0
  4  5  1  0  0  0  0
  5  6  2  0  0  0  0
  5 11  1  0  0  0  0
  6  7  1  0  0  0  0
  6  9  1  0  0  0  0
  7  8  1  0  0  0  0
  9 10  1  0  0  0  0
 10 11  2  0  0  0  0
M  END
>  <CHROM.1>
-11.42882704,-13.29309235,7.25545733,2.03606371,-1.24179296,2.12420599

>  <Name>
ligand

>  <RI>
0

>  <Rbt.Current_Directory>
/home/itssahil/PROJECTS/Mol_Feturizer/Test_systems_manuscript/rnas/2b57

>  <Rbt.Executable>
rbdock ($Id: //depot/dev/client3/rdock/2013.1/src/exe/rbdock.cxx#4 $)

>  <Rbt.Library>
libRbt.so (2013.1, Build901 2013/11/27)

>  <Rbt.Parameter_File>
/export/apps/rDock/src/rDock_2013.1_src/data/scripts/dock_solv.prm

>  <Rbt.Receptor>
prm/blind_docking_60.prm

>  <SCORE>
-11.4497

>  <SCORE.INTER>
-11.4497

>  <SCORE.INTER.CONST>
1

>  <SCORE.INTER.POLAR>
0

>  <SCORE.INTER.ROT>
0

>  <SCORE.INTER.SOLV>
21.3038

>  <SCORE.INTER.VDW>
-18.3344

>  <SCORE.INTER.norm>
-1.04088

>  <SCORE.INTRA>
0

>  <SCORE.INTRA.DIHEDRAL>
0

>  <SCORE.INTRA.DIHEDRAL.0>
0

>  <SCORE.INTRA.POLAR>
0

>  <SCORE.INTRA.POLAR.0>
0

>  <SCORE.INTRA.REPUL>
0

>  <SCORE.INTRA.REPUL.0>
0

>  <SCORE.INTRA.SOLV>
0

>  <SCORE.INTRA.SOLV.lig_0>
-48.3454

>  <SCORE.INTRA.VDW>
0

>  <SCORE.INTRA.VDW.0>
0

>  <SCORE.INTRA.norm>
0

>  <SCORE.RESTR>
0

>  <SCORE.RESTR.CAVITY>
0

>  <SCORE.RESTR.norm>
0

>  <SCORE.SYSTEM>
0

>  <SCORE.SYSTEM.CONST>
0

>  <SCORE.SYSTEM.DIHEDRAL>
0

>  <SCORE.SYSTEM.SOLV>
0

>  <SCORE.SYSTEM.norm>
0

>  <SCORE.heavy>
11

>  <SCORE.norm>
-1.04088

>  <RMSD>
0.591

$$$$
ligand
 OpenBabel02271912153D
libRbt.so/2013.1/901 2013/11/27
 11 12  0  0  0  0  0  0  0  0999 V2000
  -11.8647  -12.7790    8.8725 N   0  0  0  0  0  0  0  0  0  0  0  0
  -11.4985  -14.0675    8.9648 C   0  0  0  0  0  0  0  0  0  0  0  0
  -11.5106  -14.6744   10.1482 N   0  0  0  0  0  0  0  0  0  0  0  0
  -11.1101  -14.7464    7.8742 N   0  0  0  0  0  0  0  0  0  0  0  0
  -11.0772  -14.1512    6.6728 C   0  0  0  0  0  0  0  0  0  0  0  0
  -11.4509  -12.8190    6.5494 C   0  0  0  0  0  0  0  0  0  0  0  0
  -11.8521  -12.1372    7.6936 C   0  0  0  0  0  0  0  0  0  0  0  0
  -12.2272  -10.8636    7.6194 N   0  0  0  0  0  0  0  0  0  0  0  0
  -11.3124  -12.4812    5.2709 N   0  0  0  0  0  0  0  0  0  0  0  0
  -10.8703  -13.5506    4.6128 C   0  0  0  0  0  0  0  0  0  0  0  0
  -10.7262  -14.5677    5.4596 N   0  0  0  0  0  0  0  0  0  0  0  0
  1  7  2  0  0  0  0
  1  2  1  0  0  0  0
  2  3  1  0  0  0  0
  2  4  2  0  0  0  0
  4  5  1  0  0  0  0
  5  6  2  0  0  0  0
  5 11  1  0  0  0  0
  6  7  1  0  0  0  0
  6  9  1  0  0  0  0
  7  8  1  0  0  0  0
  9 10  1  0  0  0  0
 10 11  2  0  0  0  0
M  END
>  <CHROM.1>
-11.41322297,-13.34915678,7.27318036,1.98714304,-1.23492662,2.10250253

>  <Name>
ligand

>  <RI>
0

>  <Rbt.Current_Directory>
/home/itssahil/PROJECTS/Mol_Feturizer/Test_systems_manuscript/rnas/2b57

>  <Rbt.Executable>
rbdock ($Id: //depot/dev/client3/rdock/2013.1/src/exe/rbdock.cxx#4 $)

>  <Rbt.Library>
libRbt.so (2013.1, Build901 2013/11/27)

>  <Rbt.Parameter_File>
/export/apps/rDock/src/rDock_2013.1_src/data/scripts/dock_solv.prm

>  <Rbt.Receptor>
prm/pocket_docking_4.prm

>  <SCORE>
-11.5318

>  <SCORE.INTER>
-11.5318

>  <SCORE.INTER.CONST>
1

>  <SCORE.INTER.POLAR>
0

>  <SCORE.INTER.ROT>
0

>  <SCORE.INTER.SOLV>
21.372

>  <SCORE.INTER.VDW>
-18.4119

>  <SCORE.INTER.norm>
-1.04835

>  <SCORE.INTRA>
0

>  <SCORE.INTRA.DIHEDRAL>
0

>  <SCORE.INTRA.DIHEDRAL.0>
0

>  <SCORE.INTRA.POLAR>
0

>  <SCORE.INTRA.POLAR.0>
0

>  <SCORE.INTRA.REPUL>
0

>  <SCORE.INTRA.REPUL.0>
0

>  <SCORE.INTRA.SOLV>
0

>  <SCORE.INTRA.SOLV.lig_0>
-48.3454

>  <SCORE.INTRA.VDW>
0

>  <SCORE.INTRA.VDW.0>
0

>  <SCORE.INTRA.norm>
0

>  <SCORE.RESTR>
0

>  <SCORE.RESTR.CAVITY>
0

>  <SCORE.RESTR.norm>
0

>  <SCORE.SYSTEM>
0

>  <SCORE.SYSTEM.CONST>
0

>  <SCORE.SYSTEM.DIHEDRAL>
0

>  <SCORE.SYSTEM.SOLV>
0

>  <SCORE.SYSTEM.norm>
0

>  <SCORE.heavy>
11

>  <SCORE.norm>
-1.04835

>  <RMSD>
0.591

$$$$
ligand
 OpenBabel02271912153D
libRbt.so/2013.1/901 2013/11/27
 11 12  0  0  0  0  0  0  0  0999 V2000
  -11.8837  -12.6695    8.8345 N   0  0  0  0  0  0  0  0  0  0  0  0
  -11.5392  -13.9607    8.9643 C   0  0  0  0  0  0  0  0  0  0  0  0
  -11.5713  -14.5354   10.1634 N   0  0  0  0  0  0  0  0  0  0  0  0
  -11.1525  -14.6747    7.8958 N   0  0  0  0  0  0  0  0  0  0  0  0
  -11.0997  -14.1124    6.6793 C   0  0  0  0  0  0  0  0  0  0  0  0
  -11.4506  -12.7782    6.5172 C   0  0  0  0  0  0  0  0  0  0  0  0
  -11.8505  -12.0597    7.6391 C   0  0  0  0  0  0  0  0  0  0  0  0
  -12.2042  -10.7827    7.5277 N   0  0  0  0  0  0  0  0  0  0  0  0
  -11.2956  -12.4770    5.2314 N   0  0  0  0  0  0  0  0  0  0  0  0
  -10.8653  -13.5705    4.6060 C   0  0  0  0  0  0  0  0  0  0  0  0
  -10.7450  -14.5668    5.4808 N   0  0  0  0  0  0  0  0  0  0  0  0
  1  7  2  0  0  0  0
  1  2  1  0  0  0  0
  2  3  1  0  0  0  0
  2  4  2  0  0  0  0
  4  5  1  0  0  0  0
  5  6  2  0  0  0  0
  5 11  1  0  0  0  0
  6  7  1  0  0  0  0
  6  9  1  0  0  0  0
  7  8  1  0  0  0  0
  9 10  1  0  0  0  0
 10 11  2  0  0  0  0
M  END
>  <CHROM.1>
-11.42774905,-13.28932052,7.25507288,2.03587601,-1.24420624,2.12189501

>  <Name>
ligand

>  <RI>
0

>  <Rbt.Current_Directory>
/home/itssahil/PROJECTS/Mol_Feturizer/Test_systems_manuscript/rnas/2b57

>  <Rbt.Executable>
rbdock ($Id: //depot/dev/client3/rdock/2013.1/src/exe/rbdock.cxx#4 $)

>  <Rbt.Library>
libRbt.so (2013.1, Build901 2013/11/27)

>  <Rbt.Parameter_File>
/export/apps/rDock/src/rDock_2013.1_src/data/scripts/dock_solv.prm

>  <Rbt.Receptor>
prm/pocket_docking_6.prm

>  <SCORE>
-11.449

>  <SCORE.INTER>
-11.449

>  <SCORE.INTER.CONST>
1

>  <SCORE.INTER.POLAR>
0

>  <SCORE.INTER.ROT>
0

>  <SCORE.INTER.SOLV>
21.3148

>  <SCORE.INTER.VDW>
-18.3376

>  <SCORE.INTER.norm>
-1.04082

>  <SCORE.INTRA>
0

>  <SCORE.INTRA.DIHEDRAL>
0

>  <SCORE.INTRA.DIHEDRAL.0>
0

>  <SCORE.INTRA.POLAR>
0

>  <SCORE.INTRA.POLAR.0>
0

>  <SCORE.INTRA.REPUL>
0

>  <SCORE.INTRA.REPUL.0>
0

>  <SCORE.INTRA.SOLV>
0

>  <SCORE.INTRA.SOLV.lig_0>
-48.3454

>  <SCORE.INTRA.VDW>
0

>  <SCORE.INTRA.VDW.0>
0

>  <SCORE.INTRA.norm>
0

>  <SCORE.RESTR>
0

>  <SCORE.RESTR.CAVITY>
0

>  <SCORE.RESTR.norm>
0

>  <SCORE.SYSTEM>
0

>  <SCORE.SYSTEM.CONST>
0

>  <SCORE.SYSTEM.DIHEDRAL>
0

>  <SCORE.SYSTEM.SOLV>
0

>  <SCORE.SYSTEM.norm>
0

>  <SCORE.heavy>
11

>  <SCORE.norm>
-1.04082

>  <RMSD>
0.591

$$$$
ligand
 OpenBabel02271912153D
libRbt.so/2013.1/901 2013/11/27
 11 12  0  0  0  0  0  0  0  0999 V2000
  -11.8553  -12.7129    8.8587 N   0  0  0  0  0  0  0  0  0  0  0  0
  -11.5321  -14.0118    8.9646 C   0  0  0  0  0  0  0  0  0  0  0  0
  -11.5635  -14.6052   10.1545 N   0  0  0  0  0  0  0  0  0  0  0  0
  -11.1673  -14.7149    7.8813 N   0  0  0  0  0  0  0  0  0  0  0  0
  -11.1155  -14.1339    6.6735 C   0  0  0  0  0  0  0  0  0  0  0  0
  -11.4448  -12.7914    6.5361 C   0  0  0  0  0  0  0  0  0  0  0  0
  -11.8222  -12.0845    7.6730 C   0  0  0  0  0  0  0  0  0  0  0  0
  -12.1547  -10.8000    7.5853 N   0  0  0  0  0  0  0  0  0  0  0  0
  -11.2960  -12.4722    5.2539 N   0  0  0  0  0  0  0  0  0  0  0  0
  -10.8902  -13.5626    4.6071 C   0  0  0  0  0  0  0  0  0  0  0  0
  -10.7795  -14.5749    5.4647 N   0  0  0  0  0  0  0  0  0  0  0  0
  1  7  2  0  0  0  0
  1  2  1  0  0  0  0
  2  3  1  0  0  0  0
  2  4  2  0  0  0  0
  4  5  1  0  0  0  0
  5  6  2  0  0  0  0
  5 11  1  0  0  0  0
  6  7  1  0  0  0  0
  6  9  1  0  0  0  0
  7  8  1  0  0  0  0
  9 10  1  0  0  0  0
 10 11  2  0  0  0  0
M  END
>  <CHROM.1>
-11.42419688,-13.31481401,7.26541766,2.04088944,-1.26359615,2.14280146

>  <Name>
ligand

>  <RI>
0

>  <Rbt.Current_Directory>
/home/itssahil/PROJECTS/Mol_Feturizer/Test_systems_manuscript/rnas/2b57

>  <Rbt.Executable>
rbdock ($Id: //depot/dev/client3/rdock/2013.1/src/exe/rbdock.cxx#4 $)

>  <Rbt.Library>
libRbt.so (2013.1, Build901 2013/11/27)

>  <Rbt.Parameter_File>
/export/apps/rDock/src/rDock_2013.1_src/data/scripts/dock_solv.prm

>  <Rbt.Receptor>
prm/pocket_docking_6.prm

>  <SCORE>
-11.4901

>  <SCORE.INTER>
-11.4901

>  <SCORE.INTER.CONST>
1

>  <SCORE.INTER.POLAR>
0

>  <SCORE.INTER.ROT>
0

>  <SCORE.INTER.SOLV>
21.5868

>  <SCORE.INTER.VDW>
-18.4557

>  <SCORE.INTER.norm>
-1.04456

>  <SCORE.INTRA>
0

>  <SCORE.INTRA.DIHEDRAL>
0

>  <SCORE.INTRA.DIHEDRAL.0>
0

>  <SCORE.INTRA.POLAR>
0

>  <SCORE.INTRA.POLAR.0>
0

>  <SCORE.INTRA.REPUL>
0

>  <SCORE.INTRA.REPUL.0>
0

>  <SCORE.INTRA.SOLV>
0

>  <SCORE.INTRA.SOLV.lig_0>
-48.3454

>  <SCORE.INTRA.VDW>
0

>  <SCORE.INTRA.VDW.0>
0

>  <SCORE.INTRA.norm>
0

>  <SCORE.RESTR>
0

>  <SCORE.RESTR.CAVITY>
0

>  <SCORE.RESTR.norm>
0

>  <SCORE.SYSTEM>
0

>  <SCORE.SYSTEM.CONST>
0

>  <SCORE.SYSTEM.DIHEDRAL>
0

>  <SCORE.SYSTEM.SOLV>
0

>  <SCORE.SYSTEM.norm>
0

>  <SCORE.heavy>
11

>  <SCORE.norm>
-1.04456

>  <RMSD>
0.591

$$$$
ligand
 OpenBabel02271912153D
libRbt.so/2013.1/901 2013/11/27
 11 12  0  0  0  0  0  0  0  0999 V2000
  -11.8418  -12.7765    8.8845 N   0  0  0  0  0  0  0  0  0  0  0  0
  -11.5213  -14.0779    8.9636 C   0  0  0  0  0  0  0  0  0  0  0  0
  -11.5521  -14.6953   10.1413 N   0  0  0  0  0  0  0  0  0  0  0  0
  -11.1598  -14.7598    7.8657 N   0  0  0  0  0  0  0  0  0  0  0  0
  -11.1087  -14.1546    6.6698 C   0  0  0  0  0  0  0  0  0  0  0  0
  -11.4351  -12.8089    6.5601 C   0  0  0  0  0  0  0  0  0  0  0  0
  -11.8092  -12.1243    7.7117 C   0  0  0  0  0  0  0  0  0  0  0  0
  -12.1390  -10.8376    7.6506 N   0  0  0  0  0  0  0  0  0  0  0  0
  -11.2877  -12.4641    5.2844 N   0  0  0  0  0  0  0  0  0  0  0  0
  -10.8854  -13.5421    4.6150 C   0  0  0  0  0  0  0  0  0  0  0  0
  -10.7755  -14.5718    5.4518 N   0  0  0  0  0  0  0  0  0  0  0  0
  1  7  2  0  0  0  0
  1  2  1  0  0  0  0
  2  3  1  0  0  0  0
  2  4  2  0  0  0  0
  4  5  1  0  0  0  0
  5  6  2  0  0  0  0
  5 11  1  0  0  0  0
  6  7  1  0  0  0  0
  6  9  1  0  0  0  0
  7  8  1  0  0  0  0
  9 10  1  0  0  0  0
 10 11  2  0  0  0  0
M  END
>  <CHROM.1>
-11.41456908,-13.34697018,7.27865950,2.04039575,-1.26631052,2.16256219

>  <Name>
ligand

>  <RI>
0

>  <Rbt.Current_Directory>
/home/itssahil/PROJECTS/Mol_Feturizer/Test_systems_manuscript/rnas/2b57

>  <Rbt.Executable>
rbdock ($Id: //depot/dev/client3/rdock/2013.1/src/exe/rbdock.cxx#4 $)

>  <Rbt.Library>
libRbt.so (2013.1, Build901 2013/11/27)

>  <Rbt.Parameter_File>
/export/apps/rDock/src/rDock_2013.1_src/data/scripts/dock_solv.prm

>  <Rbt.Receptor>
prm/pocket_docking_6.prm

>  <SCORE>
-11.5171

>  <SCORE.INTER>
-11.5171

>  <SCORE.INTER.CONST>
1

>  <SCORE.INTER.POLAR>
0

>  <SCORE.INTER.ROT>
0

>  <SCORE.INTER.SOLV>
21.7478

>  <SCORE.INTER.VDW>
-18.5274

>  <SCORE.INTER.norm>
-1.04701

>  <SCORE.INTRA>
0

>  <SCORE.INTRA.DIHEDRAL>
0

>  <SCORE.INTRA.DIHEDRAL.0>
0

>  <SCORE.INTRA.POLAR>
0

>  <SCORE.INTRA.POLAR.0>
0

>  <SCORE.INTRA.REPUL>
0

>  <SCORE.INTRA.REPUL.0>
0

>  <SCORE.INTRA.SOLV>
0

>  <SCORE.INTRA.SOLV.lig_0>
-48.3454

>  <SCORE.INTRA.VDW>
0

>  <SCORE.INTRA.VDW.0>
0

>  <SCORE.INTRA.norm>
0

>  <SCORE.RESTR>
0

>  <SCORE.RESTR.CAVITY>
0

>  <SCORE.RESTR.norm>
0

>  <SCORE.SYSTEM>
0

>  <SCORE.SYSTEM.CONST>
0

>  <SCORE.SYSTEM.DIHEDRAL>
0

>  <SCORE.SYSTEM.SOLV>
0

>  <SCORE.SYSTEM.norm>
0

>  <SCORE.heavy>
11

>  <SCORE.norm>
-1.04701

>  <RMSD>
0.591

$$$$
ligand
 OpenBabel02271912153D
libRbt.so/2013.1/901 2013/11/27
 11 12  0  0  0  0  0  0  0  0999 V2000
  -11.8572  -12.7905    8.8795 N   0  0  0  0  0  0  0  0  0  0  0  0
  -11.5060  -14.0839    8.9604 C   0  0  0  0  0  0  0  0  0  0  0  0
  -11.5301  -14.7023   10.1377 N   0  0  0  0  0  0  0  0  0  0  0  0
  -11.1205  -14.7563    7.8649 N   0  0  0  0  0  0  0  0  0  0  0  0
  -11.0756  -14.1495    6.6696 C   0  0  0  0  0  0  0  0  0  0  0  0
  -11.4336  -12.8120    6.5580 C   0  0  0  0  0  0  0  0  0  0  0  0
  -11.8321  -12.1371    7.7071 C   0  0  0  0  0  0  0  0  0  0  0  0
  -12.1924  -10.8587    7.6441 N   0  0  0  0  0  0  0  0  0  0  0  0
  -11.2856  -12.4631    5.2835 N   0  0  0  0  0  0  0  0  0  0  0  0
  -10.8528  -13.5308    4.6166 C   0  0  0  0  0  0  0  0  0  0  0  0
  -10.7239  -14.5579    5.4538 N   0  0  0  0  0  0  0  0  0  0  0  0
  1  7  2  0  0  0  0
  1  2  1  0  0  0  0
  2  3  1  0  0  0  0
  2  4  2  0  0  0  0
  4  5  1  0  0  0  0
  5  6  2  0  0  0  0
  5 11  1  0  0  0  0
  6  7  1  0  0  0  0
  6  9  1  0  0  0  0
  7  8  1  0  0  0  0
  9 10  1  0  0  0  0
 10 11  2  0  0  0  0
M  END
>  <CHROM.1>
-11.40511655,-13.34975267,7.27651586,2.01671584,-1.24231658,2.14044473

>  <Name>
ligand

>  <RI>
0

>  <Rbt.Current_Directory>
/home/itssahil/PROJECTS/Mol_Feturizer/Test_systems_manuscript/rnas/2b57

>  <Rbt.Executable>
rbdock ($Id: //depot/dev/client3/rdock/2013.1/src/exe/rbdock.cxx#4 $)

>  <Rbt.Library>
libRbt.so (2013.1, Build901 2013/11/27)

>  <Rbt.Parameter_File>
/export/apps/rDock/src/rDock_2013.1_src/data/scripts/dock_solv.prm

>  <Rbt.Receptor>
prm/pocket_docking_6.prm

>  <SCORE>
-11.5445

>  <SCORE.INTER>
-11.5445

>  <SCORE.INTER.CONST>
1

>  <SCORE.INTER.POLAR>
0

>  <SCORE.INTER.ROT>
0

>  <SCORE.INTER.SOLV>
21.5405

>  <SCORE.INTER.VDW>
-18.4765

>  <SCORE.INTER.norm>
-1.0495

>  <SCORE.INTRA>
0

>  <SCORE.INTRA.DIHEDRAL>
0

>  <SCORE.INTRA.DIHEDRAL.0>
0

>  <SCORE.INTRA.POLAR>
0

>  <SCORE.INTRA.POLAR.0>
0

>  <SCORE.INTRA.REPUL>
0

>  <SCORE.INTRA.REPUL.0>
0

>  <SCORE.INTRA.SOLV>
0

>  <SCORE.INTRA.SOLV.lig_0>
-48.3454

>  <SCORE.INTRA.VDW>
0

>  <SCORE.INTRA.VDW.0>
0

>  <SCORE.INTRA.norm>
0

>  <SCORE.RESTR>
0

>  <SCORE.RESTR.CAVITY>
0

>  <SCORE.RESTR.norm>
0

>  <SCORE.SYSTEM>
0

>  <SCORE.SYSTEM.CONST>
0

>  <SCORE.SYSTEM.DIHEDRAL>
0

>  <SCORE.SYSTEM.SOLV>
0

>  <SCORE.SYSTEM.norm>
0

>  <SCORE.heavy>
11

>  <SCORE.norm>
-1.0495

>  <RMSD>
0.591

$$$$
ligand
 OpenBabel02271912153D
libRbt.so/2013.1/901 2013/11/27
 11 12  0  0  0  0  0  0  0  0999 V2000
  -11.8959  -12.6740    8.8323 N   0  0  0  0  0  0  0  0  0  0  0  0
  -11.5587  -13.9672    8.9607 C   0  0  0  0  0  0  0  0  0  0  0  0
  -11.5982  -14.5443   10.1584 N   0  0  0  0  0  0  0  0  0  0  0  0
  -11.1719  -14.6811    7.8921 N   0  0  0  0  0  0  0  0  0  0  0  0
  -11.1116  -14.1166    6.6769 C   0  0  0  0  0  0  0  0  0  0  0  0
  -11.4549  -12.7802    6.5163 C   0  0  0  0  0  0  0  0  0  0  0  0
  -11.8551  -12.0619    7.6382 C   0  0  0  0  0  0  0  0  0  0  0  0
  -12.2017  -10.7829    7.5282 N   0  0  0  0  0  0  0  0  0  0  0  0
  -11.2937  -12.4772    5.2317 N   0  0  0  0  0  0  0  0  0  0  0  0
  -10.8668  -13.5716    4.6056 C   0  0  0  0  0  0  0  0  0  0  0  0
  -10.7550  -14.5704    5.4788 N   0  0  0  0  0  0  0  0  0  0  0  0
  1  7  2  0  0  0  0
  1  2  1  0  0  0  0
  2  3  1  0  0  0  0
  2  4  2  0  0  0  0
  4  5  1  0  0  0  0
  5  6  2  0  0  0  0
  5 11  1  0  0  0  0
  6  7  1  0  0  0  0
  6  9  1  0  0  0  0
  7  8  1  0  0  0  0
  9 10  1  0  0  0  0
 10 11  2  0  0  0  0
M  END
>  <CHROM.1>
-11.43745728,-13.29296224,7.25322551,2.05432782,-1.24672125,2.14145122

>  <Name>
ligand

>  <RI>
0

>  <Rbt.Current_Directory>
/home/itssahil/PROJECTS/Mol_Feturizer/Test_systems_manuscript/rnas/2b57

>  <Rbt.Executable>
rbdock ($Id: //depot/dev/client3/rdock/2013.1/src/exe/rbdock.cxx#4 $)

>  <Rbt.Library>
libRbt.so (2013.1, Build901 2013/11/27)

>  <Rbt.Parameter_File>
/export/apps/rDock/src/rDock_2013.1_src/data/scripts/dock_solv.prm

>  <Rbt.Receptor>
prm/blind_docking_40.prm

>  <SCORE>
-11.4533

>  <SCORE.INTER>
-11.4533

>  <SCORE.INTER.CONST>
1

>  <SCORE.INTER.POLAR>
0

>  <SCORE.INTER.ROT>
0

>  <SCORE.INTER.SOLV>
21.3268

>  <SCORE.INTER.VDW>
-18.3445

>  <SCORE.INTER.norm>
-1.04121

>  <SCORE.INTRA>
0

>  <SCORE.INTRA.DIHEDRAL>
0

>  <SCORE.INTRA.DIHEDRAL.0>
0

>  <SCORE.INTRA.POLAR>
0

>  <SCORE.INTRA.POLAR.0>
0

>  <SCORE.INTRA.REPUL>
0

>  <SCORE.INTRA.REPUL.0>
0

>  <SCORE.INTRA.SOLV>
0

>  <SCORE.INTRA.SOLV.lig_0>
-48.3454

>  <SCORE.INTRA.VDW>
0

>  <SCORE.INTRA.VDW.0>
0

>  <SCORE.INTRA.norm>
0

>  <SCORE.RESTR>
0

>  <SCORE.RESTR.CAVITY>
0

>  <SCORE.RESTR.norm>
0

>  <SCORE.SYSTEM>
0

>  <SCORE.SYSTEM.CONST>
0

>  <SCORE.SYSTEM.DIHEDRAL>
0

>  <SCORE.SYSTEM.SOLV>
0

>  <SCORE.SYSTEM.norm>
0

>  <SCORE.heavy>
11

>  <SCORE.norm>
-1.04121

>  <RMSD>
0.592

$$$$
ligand
 OpenBabel02271912153D
libRbt.so/2013.1/901 2013/11/27
 11 12  0  0  0  0  0  0  0  0999 V2000
  -11.8369  -12.7522    8.8696 N   0  0  0  0  0  0  0  0  0  0  0  0
  -11.4850  -14.0444    8.9650 C   0  0  0  0  0  0  0  0  0  0  0  0
  -11.4995  -14.6471   10.1505 N   0  0  0  0  0  0  0  0  0  0  0  0
  -11.1084  -14.7315    7.8753 N   0  0  0  0  0  0  0  0  0  0  0  0
  -11.0733  -14.1407    6.6717 C   0  0  0  0  0  0  0  0  0  0  0  0
  -11.4324  -12.8048    6.5452 C   0  0  0  0  0  0  0  0  0  0  0  0
  -11.8215  -12.1146    7.6884 C   0  0  0  0  0  0  0  0  0  0  0  0
  -12.1824  -10.8371    7.6113 N   0  0  0  0  0  0  0  0  0  0  0  0
  -11.2948  -12.4730    5.2649 N   0  0  0  0  0  0  0  0  0  0  0  0
  -10.8674  -13.5495    4.6089 C   0  0  0  0  0  0  0  0  0  0  0  0
  -10.7316  -14.5653    5.4587 N   0  0  0  0  0  0  0  0  0  0  0  0
  1  7  2  0  0  0  0
  1  2  1  0  0  0  0
  2  3  1  0  0  0  0
  2  4  2  0  0  0  0
  4  5  1  0  0  0  0
  5  6  2  0  0  0  0
  5 11  1  0  0  0  0
  6  7  1  0  0  0  0
  6  9  1  0  0  0  0
  7  8  1  0  0  0  0
  9 10  1  0  0  0  0
 10 11  2  0  0  0  0
M  END
>  <CHROM.1>
-11.39794337,-13.33287256,7.27059324,1.99499378,-1.24660915,2.10649852

>  <Name>
ligand

>  <RI>
0

>  <Rbt.Current_Directory>
/home/itssahil/PROJECTS/Mol_Feturizer/Test_systems_manuscript/rnas/2b57

>  <Rbt.Executable>
rbdock ($Id: //depot/dev/client3/rdock/2013.1/src/exe/rbdock.cxx#4 $)

>  <Rbt.Library>
libRbt.so (2013.1, Build901 2013/11/27)

>  <Rbt.Parameter_File>
/export/apps/rDock/src/rDock_2013.1_src/data/scripts/dock_solv.prm

>  <Rbt.Receptor>
prm/pocket_docking_3.prm

>  <SCORE>
-11.5181

>  <SCORE.INTER>
-11.5181

>  <SCORE.INTER.CONST>
1

>  <SCORE.INTER.POLAR>
0

>  <SCORE.INTER.ROT>
0

>  <SCORE.INTER.SOLV>
21.508

>  <SCORE.INTER.VDW>
-18.4481

>  <SCORE.INTER.norm>
-1.0471

>  <SCORE.INTRA>
0

>  <SCORE.INTRA.DIHEDRAL>
0

>  <SCORE.INTRA.DIHEDRAL.0>
0

>  <SCORE.INTRA.POLAR>
0

>  <SCORE.INTRA.POLAR.0>
0

>  <SCORE.INTRA.REPUL>
0

>  <SCORE.INTRA.REPUL.0>
0

>  <SCORE.INTRA.SOLV>
0

>  <SCORE.INTRA.SOLV.lig_0>
-48.3454

>  <SCORE.INTRA.VDW>
0

>  <SCORE.INTRA.VDW.0>
0

>  <SCORE.INTRA.norm>
0

>  <SCORE.RESTR>
0

>  <SCORE.RESTR.CAVITY>
0

>  <SCORE.RESTR.norm>
0

>  <SCORE.SYSTEM>
0

>  <SCORE.SYSTEM.CONST>
0

>  <SCORE.SYSTEM.DIHEDRAL>
0

>  <SCORE.SYSTEM.SOLV>
0

>  <SCORE.SYSTEM.norm>
0

>  <SCORE.heavy>
11

>  <SCORE.norm>
-1.0471

>  <RMSD>
0.594

$$$$
ligand
 OpenBabel02271912153D
libRbt.so/2013.1/901 2013/11/27
 11 12  0  0  0  0  0  0  0  0999 V2000
  -11.8685  -12.7771    8.8669 N   0  0  0  0  0  0  0  0  0  0  0  0
  -11.5039  -14.0659    8.9614 C   0  0  0  0  0  0  0  0  0  0  0  0
  -11.5192  -14.6714   10.1455 N   0  0  0  0  0  0  0  0  0  0  0  0
  -11.1139  -14.7465    7.8725 N   0  0  0  0  0  0  0  0  0  0  0  0
  -11.0777  -14.1526    6.6704 C   0  0  0  0  0  0  0  0  0  0  0  0
  -11.4496  -12.8201    6.5448 C   0  0  0  0  0  0  0  0  0  0  0  0
  -11.8525  -12.1366    7.6873 C   0  0  0  0  0  0  0  0  0  0  0  0
  -12.2260  -10.8627    7.6110 N   0  0  0  0  0  0  0  0  0  0  0  0
  -11.3079  -12.4839    5.2662 N   0  0  0  0  0  0  0  0  0  0  0  0
  -10.8656  -13.5544    4.6102 C   0  0  0  0  0  0  0  0  0  0  0  0
  -10.7245  -14.5708    5.4584 N   0  0  0  0  0  0  0  0  0  0  0  0
  1  7  2  0  0  0  0
  1  2  1  0  0  0  0
  2  3  1  0  0  0  0
  2  4  2  0  0  0  0
  4  5  1  0  0  0  0
  5  6  2  0  0  0  0
  5 11  1  0  0  0  0
  6  7  1  0  0  0  0
  6  9  1  0  0  0  0
  7  8  1  0  0  0  0
  9 10  1  0  0  0  0
 10 11  2  0  0  0  0
M  END
>  <CHROM.1>
-11.41410539,-13.34949949,7.26921507,1.99458062,-1.23478306,2.10842930

>  <Name>
ligand

>  <RI>
0

>  <Rbt.Current_Directory>
/home/itssahil/PROJECTS/Mol_Feturizer/Test_systems_manuscript/rnas/2b57

>  <Rbt.Executable>
rbdock ($Id: //depot/dev/client3/rdock/2013.1/src/exe/rbdock.cxx#4 $)

>  <Rbt.Library>
libRbt.so (2013.1, Build901 2013/11/27)

>  <Rbt.Parameter_File>
/export/apps/rDock/src/rDock_2013.1_src/data/scripts/dock_solv.prm

>  <Rbt.Receptor>
prm/pocket_docking_4.prm

>  <SCORE>
-11.5433

>  <SCORE.INTER>
-11.5433

>  <SCORE.INTER.CONST>
1

>  <SCORE.INTER.POLAR>
0

>  <SCORE.INTER.ROT>
0

>  <SCORE.INTER.SOLV>
21.3707

>  <SCORE.INTER.VDW>
-18.4191

>  <SCORE.INTER.norm>
-1.04939

>  <SCORE.INTRA>
0

>  <SCORE.INTRA.DIHEDRAL>
0

>  <SCORE.INTRA.DIHEDRAL.0>
0

>  <SCORE.INTRA.POLAR>
0

>  <SCORE.INTRA.POLAR.0>
0

>  <SCORE.INTRA.REPUL>
0

>  <SCORE.INTRA.REPUL.0>
0

>  <SCORE.INTRA.SOLV>
0

>  <SCORE.INTRA.SOLV.lig_0>
-48.3454

>  <SCORE.INTRA.VDW>
0

>  <SCORE.INTRA.VDW.0>
0

>  <SCORE.INTRA.norm>
0

>  <SCORE.RESTR>
0

>  <SCORE.RESTR.CAVITY>
0

>  <SCORE.RESTR.norm>
0

>  <SCORE.SYSTEM>
0

>  <SCORE.SYSTEM.CONST>
0

>  <SCORE.SYSTEM.DIHEDRAL>
0

>  <SCORE.SYSTEM.SOLV>
0

>  <SCORE.SYSTEM.norm>
0

>  <SCORE.heavy>
11

>  <SCORE.norm>
-1.04939

>  <RMSD>
0.594

$$$$
ligand
 OpenBabel02271912153D
libRbt.so/2013.1/901 2013/11/27
 11 12  0  0  0  0  0  0  0  0999 V2000
  -11.8610  -12.7735    8.8683 N   0  0  0  0  0  0  0  0  0  0  0  0
  -11.4903  -14.0605    8.9626 C   0  0  0  0  0  0  0  0  0  0  0  0
  -11.4994  -14.6653   10.1471 N   0  0  0  0  0  0  0  0  0  0  0  0
  -11.1004  -14.7401    7.8729 N   0  0  0  0  0  0  0  0  0  0  0  0
  -11.0705  -14.1468    6.6704 C   0  0  0  0  0  0  0  0  0  0  0  0
  -11.4488  -12.8161    6.5450 C   0  0  0  0  0  0  0  0  0  0  0  0
  -11.8514  -12.1337    7.6882 C   0  0  0  0  0  0  0  0  0  0  0  0
  -12.2309  -10.8616    7.6121 N   0  0  0  0  0  0  0  0  0  0  0  0
  -11.3124  -12.4802    5.2657 N   0  0  0  0  0  0  0  0  0  0  0  0
  -10.8672  -13.5492    4.6092 C   0  0  0  0  0  0  0  0  0  0  0  0
  -10.7190  -14.5643    5.4577 N   0  0  0  0  0  0  0  0  0  0  0  0
  1  7  2  0  0  0  0
  1  2  1  0  0  0  0
  2  3  1  0  0  0  0
  2  4  2  0  0  0  0
  4  5  1  0  0  0  0
  5  6  2  0  0  0  0
  5 11  1  0  0  0  0
  6  7  1  0  0  0  0
  6  9  1  0  0  0  0
  7  8  1  0  0  0  0
  9 10  1  0  0  0  0
 10 11  2  0  0  0  0
M  END
>  <CHROM.1>
-11.40874839,-13.34489879,7.26962894,1.97994783,-1.23237296,2.09393890

>  <Name>
ligand

>  <RI>
0

>  <Rbt.Current_Directory>
/home/itssahil/PROJECTS/Mol_Feturizer/Test_systems_manuscript/rnas/2b57

>  <Rbt.Executable>
rbdock ($Id: //depot/dev/client3/rdock/2013.1/src/exe/rbdock.cxx#4 $)

>  <Rbt.Library>
libRbt.so (2013.1, Build901 2013/11/27)

>  <Rbt.Parameter_File>
/export/apps/rDock/src/rDock_2013.1_src/data/scripts/dock_solv.prm

>  <Rbt.Receptor>
prm/pocket_docking_6.prm

>  <SCORE>
-11.5007

>  <SCORE.INTER>
-11.5007

>  <SCORE.INTER.CONST>
1

>  <SCORE.INTER.POLAR>
0

>  <SCORE.INTER.ROT>
0

>  <SCORE.INTER.SOLV>
21.3499

>  <SCORE.INTER.VDW>
-18.3838

>  <SCORE.INTER.norm>
-1.04552

>  <SCORE.INTRA>
0

>  <SCORE.INTRA.DIHEDRAL>
0

>  <SCORE.INTRA.DIHEDRAL.0>
0

>  <SCORE.INTRA.POLAR>
0

>  <SCORE.INTRA.POLAR.0>
0

>  <SCORE.INTRA.REPUL>
0

>  <SCORE.INTRA.REPUL.0>
0

>  <SCORE.INTRA.SOLV>
0

>  <SCORE.INTRA.SOLV.lig_0>
-48.3454

>  <SCORE.INTRA.VDW>
0

>  <SCORE.INTRA.VDW.0>
0

>  <SCORE.INTRA.norm>
0

>  <SCORE.RESTR>
0

>  <SCORE.RESTR.CAVITY>
0

>  <SCORE.RESTR.norm>
0

>  <SCORE.SYSTEM>
0

>  <SCORE.SYSTEM.CONST>
0

>  <SCORE.SYSTEM.DIHEDRAL>
0

>  <SCORE.SYSTEM.SOLV>
0

>  <SCORE.SYSTEM.norm>
0

>  <SCORE.heavy>
11

>  <SCORE.norm>
-1.04552

>  <RMSD>
0.594

$$$$
ligand
 OpenBabel02271912153D
libRbt.so/2013.1/901 2013/11/27
 11 12  0  0  0  0  0  0  0  0999 V2000
  -11.8869  -12.7870    8.8643 N   0  0  0  0  0  0  0  0  0  0  0  0
  -11.5258  -14.0764    8.9626 C   0  0  0  0  0  0  0  0  0  0  0  0
  -11.5493  -14.6804   10.1474 N   0  0  0  0  0  0  0  0  0  0  0  0
  -11.1309  -14.7593    7.8769 N   0  0  0  0  0  0  0  0  0  0  0  0
  -11.0865  -14.1671    6.6743 C   0  0  0  0  0  0  0  0  0  0  0  0
  -11.4547  -12.8340    6.5448 C   0  0  0  0  0  0  0  0  0  0  0  0
  -11.8627  -12.1481    7.6840 C   0  0  0  0  0  0  0  0  0  0  0  0
  -12.2329  -10.8734    7.6038 N   0  0  0  0  0  0  0  0  0  0  0  0
  -11.3048  -12.4998    5.2665 N   0  0  0  0  0  0  0  0  0  0  0  0
  -10.8611  -13.5722    4.6146 C   0  0  0  0  0  0  0  0  0  0  0  0
  -10.7272  -14.5878    5.4649 N   0  0  0  0  0  0  0  0  0  0  0  0
  1  7  2  0  0  0  0
  1  2  1  0  0  0  0
  2  3  1  0  0  0  0
  2  4  2  0  0  0  0
  4  5  1  0  0  0  0
  5  6  2  0  0  0  0
  5 11  1  0  0  0  0
  6  7  1  0  0  0  0
  6  9  1  0  0  0  0
  7  8  1  0  0  0  0
  9 10  1  0  0  0  0
 10 11  2  0  0  0  0
M  END
>  <CHROM.1>
-11.42454478,-13.36250652,7.27005989,2.01311464,-1.23367821,2.12460398

>  <Name>
ligand

>  <RI>
0

>  <Rbt.Current_Directory>
/home/itssahil/PROJECTS/Mol_Feturizer/Test_systems_manuscript/rnas/2b57

>  <Rbt.Executable>
rbdock ($Id: //depot/dev/client3/rdock/2013.1/src/exe/rbdock.cxx#4 $)

>  <Rbt.Library>
libRbt.so (2013.1, Build901 2013/11/27)

>  <Rbt.Parameter_File>
/export/apps/rDock/src/rDock_2013.1_src/data/scripts/dock_solv.prm

>  <Rbt.Receptor>
prm/pocket_docking_7.prm

>  <SCORE>
-11.5389

>  <SCORE.INTER>
-11.5389

>  <SCORE.INTER.CONST>
1

>  <SCORE.INTER.POLAR>
0

>  <SCORE.INTER.ROT>
0

>  <SCORE.INTER.SOLV>
21.358

>  <SCORE.INTER.VDW>
-18.4119

>  <SCORE.INTER.norm>
-1.04899

>  <SCORE.INTRA>
0

>  <SCORE.INTRA.DIHEDRAL>
0

>  <SCORE.INTRA.DIHEDRAL.0>
0

>  <SCORE.INTRA.POLAR>
0

>  <SCORE.INTRA.POLAR.0>
0

>  <SCORE.INTRA.REPUL>
0

>  <SCORE.INTRA.REPUL.0>
0

>  <SCORE.INTRA.SOLV>
0

>  <SCORE.INTRA.SOLV.lig_0>
-48.3454

>  <SCORE.INTRA.VDW>
0

>  <SCORE.INTRA.VDW.0>
0

>  <SCORE.INTRA.norm>
0

>  <SCORE.RESTR>
0

>  <SCORE.RESTR.CAVITY>
0

>  <SCORE.RESTR.norm>
0

>  <SCORE.SYSTEM>
0

>  <SCORE.SYSTEM.CONST>
0

>  <SCORE.SYSTEM.DIHEDRAL>
0

>  <SCORE.SYSTEM.SOLV>
0

>  <SCORE.SYSTEM.norm>
0

>  <SCORE.heavy>
11

>  <SCORE.norm>
-1.04899

>  <RMSD>
0.594

$$$$
ligand
 OpenBabel02271912153D
libRbt.so/2013.1/901 2013/11/27
 11 12  0  0  0  0  0  0  0  0999 V2000
  -11.8686  -12.7813    8.8691 N   0  0  0  0  0  0  0  0  0  0  0  0
  -11.5264  -14.0763    8.9615 C   0  0  0  0  0  0  0  0  0  0  0  0
  -11.5558  -14.6844   10.1441 N   0  0  0  0  0  0  0  0  0  0  0  0
  -11.1448  -14.7609    7.8721 N   0  0  0  0  0  0  0  0  0  0  0  0
  -11.0947  -14.1648    6.6717 C   0  0  0  0  0  0  0  0  0  0  0  0
  -11.4434  -12.8258    6.5482 C   0  0  0  0  0  0  0  0  0  0  0  0
  -11.8380  -12.1383    7.6911 C   0  0  0  0  0  0  0  0  0  0  0  0
  -12.1894  -10.8580    7.6168 N   0  0  0  0  0  0  0  0  0  0  0  0
  -11.2920  -12.4891    5.2708 N   0  0  0  0  0  0  0  0  0  0  0  0
  -10.8660  -13.5654    4.6136 C   0  0  0  0  0  0  0  0  0  0  0  0
  -10.7450  -14.5862    5.4598 N   0  0  0  0  0  0  0  0  0  0  0  0
  1  7  2  0  0  0  0
  1  2  1  0  0  0  0
  2  3  1  0  0  0  0
  2  4  2  0  0  0  0
  4  5  1  0  0  0  0
  5  6  2  0  0  0  0
  5 11  1  0  0  0  0
  6  7  1  0  0  0  0
  6  9  1  0  0  0  0
  7  8  1  0  0  0  0
  9 10  1  0  0  0  0
 10 11  2  0  0  0  0
M  END
>  <CHROM.1>
-11.41914980,-13.35753097,7.27140316,2.03056432,-1.24772938,2.14490399

>  <Name>
ligand

>  <RI>
0

>  <Rbt.Current_Directory>
/home/itssahil/PROJECTS/Mol_Feturizer/Test_systems_manuscript/rnas/2b57

>  <Rbt.Executable>
rbdock ($Id: //depot/dev/client3/rdock/2013.1/src/exe/rbdock.cxx#4 $)

>  <Rbt.Library>
libRbt.so (2013.1, Build901 2013/11/27)

>  <Rbt.Parameter_File>
/export/apps/rDock/src/rDock_2013.1_src/data/scripts/dock_solv.prm

>  <Rbt.Receptor>
prm/blind_docking_40.prm

>  <SCORE>
-11.541

>  <SCORE.INTER>
-11.541

>  <SCORE.INTER.CONST>
1

>  <SCORE.INTER.POLAR>
0

>  <SCORE.INTER.ROT>
0

>  <SCORE.INTER.SOLV>
21.5152

>  <SCORE.INTER.VDW>
-18.4658

>  <SCORE.INTER.norm>
-1.04918

>  <SCORE.INTRA>
0

>  <SCORE.INTRA.DIHEDRAL>
0

>  <SCORE.INTRA.DIHEDRAL.0>
0

>  <SCORE.INTRA.POLAR>
0

>  <SCORE.INTRA.POLAR.0>
0

>  <SCORE.INTRA.REPUL>
0

>  <SCORE.INTRA.REPUL.0>
0

>  <SCORE.INTRA.SOLV>
0

>  <SCORE.INTRA.SOLV.lig_0>
-48.3454

>  <SCORE.INTRA.VDW>
0

>  <SCORE.INTRA.VDW.0>
0

>  <SCORE.INTRA.norm>
0

>  <SCORE.RESTR>
0

>  <SCORE.RESTR.CAVITY>
0

>  <SCORE.RESTR.norm>
0

>  <SCORE.SYSTEM>
0

>  <SCORE.SYSTEM.CONST>
0

>  <SCORE.SYSTEM.DIHEDRAL>
0

>  <SCORE.SYSTEM.SOLV>
0

>  <SCORE.SYSTEM.norm>
0

>  <SCORE.heavy>
11

>  <SCORE.norm>
-1.04918

>  <RMSD>
0.595

$$$$
ligand
 OpenBabel02271912153D
libRbt.so/2013.1/901 2013/11/27
 11 12  0  0  0  0  0  0  0  0999 V2000
  -11.8603  -12.7820    8.8709 N   0  0  0  0  0  0  0  0  0  0  0  0
  -11.5212  -14.0780    8.9619 C   0  0  0  0  0  0  0  0  0  0  0  0
  -11.5553  -14.6881   10.1433 N   0  0  0  0  0  0  0  0  0  0  0  0
  -11.1376  -14.7613    7.8724 N   0  0  0  0  0  0  0  0  0  0  0  0
  -11.0827  -14.1631    6.6732 C   0  0  0  0  0  0  0  0  0  0  0  0
  -11.4282  -12.8232    6.5512 C   0  0  0  0  0  0  0  0  0  0  0  0
  -11.8249  -12.1370    7.6942 C   0  0  0  0  0  0  0  0  0  0  0  0
  -12.1734  -10.8558    7.6211 N   0  0  0  0  0  0  0  0  0  0  0  0
  -11.2722  -12.4844    5.2749 N   0  0  0  0  0  0  0  0  0  0  0  0
  -10.8465  -13.5605    4.6170 C   0  0  0  0  0  0  0  0  0  0  0  0
  -10.7302  -14.5830    5.4616 N   0  0  0  0  0  0  0  0  0  0  0  0
  1  7  2  0  0  0  0
  1  2  1  0  0  0  0
  2  3  1  0  0  0  0
  2  4  2  0  0  0  0
  4  5  1  0  0  0  0
  5  6  2  0  0  0  0
  5 11  1  0  0  0  0
  6  7  1  0  0  0  0
  6  9  1  0  0  0  0
  7  8  1  0  0  0  0
  9 10  1  0  0  0  0
 10 11  2  0  0  0  0
M  END
>  <CHROM.1>
-11.40725682,-13.35630996,7.27346118,2.04214290,-1.24780758,2.15772057

>  <Name>
ligand

>  <RI>
0

>  <Rbt.Current_Directory>
/home/itssahil/PROJECTS/Mol_Feturizer/Test_systems_manuscript/rnas/2b57

>  <Rbt.Executable>
rbdock ($Id: //depot/dev/client3/rdock/2013.1/src/exe/rbdock.cxx#4 $)

>  <Rbt.Library>
libRbt.so (2013.1, Build901 2013/11/27)

>  <Rbt.Parameter_File>
/export/apps/rDock/src/rDock_2013.1_src/data/scripts/dock_solv.prm

>  <Rbt.Receptor>
prm/pocket_docking_5.prm

>  <SCORE>
-11.5663

>  <SCORE.INTER>
-11.5663

>  <SCORE.INTER.CONST>
1

>  <SCORE.INTER.POLAR>
0

>  <SCORE.INTER.ROT>
0

>  <SCORE.INTER.SOLV>
21.5727

>  <SCORE.INTER.VDW>
-18.5018

>  <SCORE.INTER.norm>
-1.05149

>  <SCORE.INTRA>
0

>  <SCORE.INTRA.DIHEDRAL>
0

>  <SCORE.INTRA.DIHEDRAL.0>
0

>  <SCORE.INTRA.POLAR>
0

>  <SCORE.INTRA.POLAR.0>
0

>  <SCORE.INTRA.REPUL>
0

>  <SCORE.INTRA.REPUL.0>
0

>  <SCORE.INTRA.SOLV>
0

>  <SCORE.INTRA.SOLV.lig_0>
-48.3454

>  <SCORE.INTRA.VDW>
0

>  <SCORE.INTRA.VDW.0>
0

>  <SCORE.INTRA.norm>
0

>  <SCORE.RESTR>
0

>  <SCORE.RESTR.CAVITY>
0

>  <SCORE.RESTR.norm>
0

>  <SCORE.SYSTEM>
0

>  <SCORE.SYSTEM.CONST>
0

>  <SCORE.SYSTEM.DIHEDRAL>
0

>  <SCORE.SYSTEM.SOLV>
0

>  <SCORE.SYSTEM.norm>
0

>  <SCORE.heavy>
11

>  <SCORE.norm>
-1.05149

>  <RMSD>
0.595

$$$$
ligand
 OpenBabel02271912153D
libRbt.so/2013.1/901 2013/11/27
 11 12  0  0  0  0  0  0  0  0999 V2000
  -11.8650  -12.7912    8.8729 N   0  0  0  0  0  0  0  0  0  0  0  0
  -11.5075  -14.0820    8.9659 C   0  0  0  0  0  0  0  0  0  0  0  0
  -11.5232  -14.6880   10.1498 N   0  0  0  0  0  0  0  0  0  0  0  0
  -11.1243  -14.7645    7.8757 N   0  0  0  0  0  0  0  0  0  0  0  0
  -11.0879  -14.1703    6.6738 C   0  0  0  0  0  0  0  0  0  0  0  0
  -11.4525  -12.8357    6.5497 C   0  0  0  0  0  0  0  0  0  0  0  0
  -11.8485  -12.1503    7.6934 C   0  0  0  0  0  0  0  0  0  0  0  0
  -12.2149  -10.8743    7.6185 N   0  0  0  0  0  0  0  0  0  0  0  0
  -11.3122  -12.4999    5.2708 N   0  0  0  0  0  0  0  0  0  0  0  0
  -10.8778  -13.5727    4.6133 C   0  0  0  0  0  0  0  0  0  0  0  0
  -10.7403  -14.5902    5.4608 N   0  0  0  0  0  0  0  0  0  0  0  0
  1  7  2  0  0  0  0
  1  2  1  0  0  0  0
  2  3  1  0  0  0  0
  2  4  2  0  0  0  0
  4  5  1  0  0  0  0
  5  6  2  0  0  0  0
  5 11  1  0  0  0  0
  6  7  1  0  0  0  0
  6  9  1  0  0  0  0
  7  8  1  0  0  0  0
  9 10  1  0  0  0  0
 10 11  2  0  0  0  0
M  END
>  <CHROM.1>
-11.41810557,-13.36558739,7.27377876,1.99664530,-1.24105396,2.11073829

>  <Name>
ligand

>  <RI>
0

>  <Rbt.Current_Directory>
/home/itssahil/PROJECTS/Mol_Feturizer/Test_systems_manuscript/rnas/2b57

>  <Rbt.Executable>
rbdock ($Id: //depot/dev/client3/rdock/2013.1/src/exe/rbdock.cxx#4 $)

>  <Rbt.Library>
libRbt.so (2013.1, Build901 2013/11/27)

>  <Rbt.Parameter_File>
/export/apps/rDock/src/rDock_2013.1_src/data/scripts/dock_solv.prm

>  <Rbt.Receptor>
prm/pocket_docking_7.prm

>  <SCORE>
-11.53

>  <SCORE.INTER>
-11.53

>  <SCORE.INTER.CONST>
1

>  <SCORE.INTER.POLAR>
0

>  <SCORE.INTER.ROT>
0

>  <SCORE.INTER.SOLV>
21.4286

>  <SCORE.INTER.VDW>
-18.4295

>  <SCORE.INTER.norm>
-1.04818

>  <SCORE.INTRA>
0

>  <SCORE.INTRA.DIHEDRAL>
0

>  <SCORE.INTRA.DIHEDRAL.0>
0

>  <SCORE.INTRA.POLAR>
0

>  <SCORE.INTRA.POLAR.0>
0

>  <SCORE.INTRA.REPUL>
0

>  <SCORE.INTRA.REPUL.0>
0

>  <SCORE.INTRA.SOLV>
0

>  <SCORE.INTRA.SOLV.lig_0>
-48.3454

>  <SCORE.INTRA.VDW>
0

>  <SCORE.INTRA.VDW.0>
0

>  <SCORE.INTRA.norm>
0

>  <SCORE.RESTR>
0

>  <SCORE.RESTR.CAVITY>
0

>  <SCORE.RESTR.norm>
0

>  <SCORE.SYSTEM>
0

>  <SCORE.SYSTEM.CONST>
0

>  <SCORE.SYSTEM.DIHEDRAL>
0

>  <SCORE.SYSTEM.SOLV>
0

>  <SCORE.SYSTEM.norm>
0

>  <SCORE.heavy>
11

>  <SCORE.norm>
-1.04818

>  <RMSD>
0.595

$$$$
ligand
 OpenBabel02271912153D
libRbt.so/2013.1/901 2013/11/27
 11 12  0  0  0  0  0  0  0  0999 V2000
  -11.8770  -12.7811    8.8672 N   0  0  0  0  0  0  0  0  0  0  0  0
  -11.5375  -14.0771    8.9548 C   0  0  0  0  0  0  0  0  0  0  0  0
  -11.5702  -14.6901   10.1347 N   0  0  0  0  0  0  0  0  0  0  0  0
  -11.1551  -14.7578    7.8632 N   0  0  0  0  0  0  0  0  0  0  0  0
  -11.1016  -14.1567    6.6654 C   0  0  0  0  0  0  0  0  0  0  0  0
  -11.4475  -12.8166    6.5469 C   0  0  0  0  0  0  0  0  0  0  0  0
  -11.8430  -12.1332    7.6920 C   0  0  0  0  0  0  0  0  0  0  0  0
  -12.1919  -10.8519    7.6224 N   0  0  0  0  0  0  0  0  0  0  0  0
  -11.2930  -12.4747    5.2713 N   0  0  0  0  0  0  0  0  0  0  0  0
  -10.8679  -13.5491    4.6103 C   0  0  0  0  0  0  0  0  0  0  0  0
  -10.7503  -14.5736    5.4524 N   0  0  0  0  0  0  0  0  0  0  0  0
  1  7  2  0  0  0  0
  1  2  1  0  0  0  0
  2  3  1  0  0  0  0
  2  4  2  0  0  0  0
  4  5  1  0  0  0  0
  5  6  2  0  0  0  0
  5 11  1  0  0  0  0
  6  7  1  0  0  0  0
  6  9  1  0  0  0  0
  7  8  1  0  0  0  0
  9 10  1  0  0  0  0
 10 11  2  0  0  0  0
M  END
>  <CHROM.1>
-11.42565704,-13.35140261,7.26790955,2.03883187,-1.24825828,2.15697319

>  <Name>
ligand

>  <RI>
0

>  <Rbt.Current_Directory>
/home/itssahil/PROJECTS/Mol_Feturizer/Test_systems_manuscript/rnas/2b57

>  <Rbt.Executable>
rbdock ($Id: //depot/dev/client3/rdock/2013.1/src/exe/rbdock.cxx#4 $)

>  <Rbt.Library>
libRbt.so (2013.1, Build901 2013/11/27)

>  <Rbt.Parameter_File>
/export/apps/rDock/src/rDock_2013.1_src/data/scripts/dock_solv.prm

>  <Rbt.Receptor>
prm/pocket_docking_8.prm

>  <SCORE>
-11.5256

>  <SCORE.INTER>
-11.5256

>  <SCORE.INTER.CONST>
1

>  <SCORE.INTER.POLAR>
0

>  <SCORE.INTER.ROT>
0

>  <SCORE.INTER.SOLV>
21.5288

>  <SCORE.INTER.VDW>
-18.46

>  <SCORE.INTER.norm>
-1.04778

>  <SCORE.INTRA>
0

>  <SCORE.INTRA.DIHEDRAL>
0

>  <SCORE.INTRA.DIHEDRAL.0>
0

>  <SCORE.INTRA.POLAR>
0

>  <SCORE.INTRA.POLAR.0>
0

>  <SCORE.INTRA.REPUL>
0

>  <SCORE.INTRA.REPUL.0>
0

>  <SCORE.INTRA.SOLV>
0

>  <SCORE.INTRA.SOLV.lig_0>
-48.3454

>  <SCORE.INTRA.VDW>
0

>  <SCORE.INTRA.VDW.0>
0

>  <SCORE.INTRA.norm>
0

>  <SCORE.RESTR>
0

>  <SCORE.RESTR.CAVITY>
0

>  <SCORE.RESTR.norm>
0

>  <SCORE.SYSTEM>
0

>  <SCORE.SYSTEM.CONST>
0

>  <SCORE.SYSTEM.DIHEDRAL>
0

>  <SCORE.SYSTEM.SOLV>
0

>  <SCORE.SYSTEM.norm>
0

>  <SCORE.heavy>
11

>  <SCORE.norm>
-1.04778

>  <RMSD>
0.595

$$$$
ligand
 OpenBabel02271912153D
libRbt.so/2013.1/901 2013/11/27
 11 12  0  0  0  0  0  0  0  0999 V2000
  -11.8578  -12.7720    8.8700 N   0  0  0  0  0  0  0  0  0  0  0  0
  -11.5081  -14.0654    8.9571 C   0  0  0  0  0  0  0  0  0  0  0  0
  -11.5252  -14.6761   10.1385 N   0  0  0  0  0  0  0  0  0  0  0  0
  -11.1310  -14.7456    7.8633 N   0  0  0  0  0  0  0  0  0  0  0  0
  -11.0933  -14.1467    6.6638 C   0  0  0  0  0  0  0  0  0  0  0  0
  -11.4500  -12.8094    6.5458 C   0  0  0  0  0  0  0  0  0  0  0  0
  -11.8396  -12.1263    7.6932 C   0  0  0  0  0  0  0  0  0  0  0  0
  -12.1984  -10.8478    7.6243 N   0  0  0  0  0  0  0  0  0  0  0  0
  -11.3100  -12.4691    5.2681 N   0  0  0  0  0  0  0  0  0  0  0  0
  -10.8834  -13.5418    4.6053 C   0  0  0  0  0  0  0  0  0  0  0  0
  -10.7505  -14.5636    5.4484 N   0  0  0  0  0  0  0  0  0  0  0  0
  1  7  2  0  0  0  0
  1  2  1  0  0  0  0
  2  3  1  0  0  0  0
  2  4  2  0  0  0  0
  4  5  1  0  0  0  0
  5  6  2  0  0  0  0
  5 11  1  0  0  0  0
  6  7  1  0  0  0  0
  6  9  1  0  0  0  0
  7  8  1  0  0  0  0
  9 10  1  0  0  0  0
 10 11  2  0  0  0  0
M  END
>  <CHROM.1>
-11.41745122,-13.34245279,7.26770784,2.00145878,-1.24723348,2.11943166

>  <Name>
ligand

>  <RI>
0

>  <Rbt.Current_Directory>
/home/itssahil/PROJECTS/Mol_Feturizer/Test_systems_manuscript/rnas/2b57

>  <Rbt.Executable>
rbdock ($Id: //depot/dev/client3/rdock/2013.1/src/exe/rbdock.cxx#4 $)

>  <Rbt.Library>
libRbt.so (2013.1, Build901 2013/11/27)

>  <Rbt.Parameter_File>
/export/apps/rDock/src/rDock_2013.1_src/data/scripts/dock_solv.prm

>  <Rbt.Receptor>
prm/pocket_docking_8.prm

>  <SCORE>
-11.5461

>  <SCORE.INTER>
-11.5461

>  <SCORE.INTER.CONST>
1

>  <SCORE.INTER.POLAR>
0

>  <SCORE.INTER.ROT>
0

>  <SCORE.INTER.SOLV>
21.4895

>  <SCORE.INTER.VDW>
-18.4606

>  <SCORE.INTER.norm>
-1.04964

>  <SCORE.INTRA>
0

>  <SCORE.INTRA.DIHEDRAL>
0

>  <SCORE.INTRA.DIHEDRAL.0>
0

>  <SCORE.INTRA.POLAR>
0

>  <SCORE.INTRA.POLAR.0>
0

>  <SCORE.INTRA.REPUL>
0

>  <SCORE.INTRA.REPUL.0>
0

>  <SCORE.INTRA.SOLV>
0

>  <SCORE.INTRA.SOLV.lig_0>
-48.3454

>  <SCORE.INTRA.VDW>
0

>  <SCORE.INTRA.VDW.0>
0

>  <SCORE.INTRA.norm>
0

>  <SCORE.RESTR>
0

>  <SCORE.RESTR.CAVITY>
0

>  <SCORE.RESTR.norm>
0

>  <SCORE.SYSTEM>
0

>  <SCORE.SYSTEM.CONST>
0

>  <SCORE.SYSTEM.DIHEDRAL>
0

>  <SCORE.SYSTEM.SOLV>
0

>  <SCORE.SYSTEM.norm>
0

>  <SCORE.heavy>
11

>  <SCORE.norm>
-1.04964

>  <RMSD>
0.595

$$$$
ligand
 OpenBabel02271912153D
libRbt.so/2013.1/901 2013/11/27
 11 12  0  0  0  0  0  0  0  0999 V2000
  -11.8755  -12.7803    8.8669 N   0  0  0  0  0  0  0  0  0  0  0  0
  -11.5372  -14.0768    8.9540 C   0  0  0  0  0  0  0  0  0  0  0  0
  -11.5702  -14.6901   10.1337 N   0  0  0  0  0  0  0  0  0  0  0  0
  -11.1557  -14.7575    7.8621 N   0  0  0  0  0  0  0  0  0  0  0  0
  -11.1020  -14.1561    6.6645 C   0  0  0  0  0  0  0  0  0  0  0  0
  -11.4467  -12.8156    6.5465 C   0  0  0  0  0  0  0  0  0  0  0  0
  -11.8412  -12.1321    7.6919 C   0  0  0  0  0  0  0  0  0  0  0  0
  -12.1888  -10.8505    7.6228 N   0  0  0  0  0  0  0  0  0  0  0  0
  -11.2922  -12.4735    5.2709 N   0  0  0  0  0  0  0  0  0  0  0  0
  -10.8683  -13.5481    4.6095 C   0  0  0  0  0  0  0  0  0  0  0  0
  -10.7515  -14.5730    5.4512 N   0  0  0  0  0  0  0  0  0  0  0  0
  1  7  2  0  0  0  0
  1  2  1  0  0  0  0
  2  3  1  0  0  0  0
  2  4  2  0  0  0  0
  4  5  1  0  0  0  0
  5  6  2  0  0  0  0
  5 11  1  0  0  0  0
  6  7  1  0  0  0  0
  6  9  1  0  0  0  0
  7  8  1  0  0  0  0
  9 10  1  0  0  0  0
 10 11  2  0  0  0  0
M  END
>  <CHROM.1>
-11.42512892,-13.35063375,7.26732411,2.03981526,-1.24923171,2.15821451

>  <Name>
ligand

>  <RI>
0

>  <Rbt.Current_Directory>
/home/itssahil/PROJECTS/Mol_Feturizer/Test_systems_manuscript/rnas/2b57

>  <Rbt.Executable>
rbdock ($Id: //depot/dev/client3/rdock/2013.1/src/exe/rbdock.cxx#4 $)

>  <Rbt.Library>
libRbt.so (2013.1, Build901 2013/11/27)

>  <Rbt.Parameter_File>
/export/apps/rDock/src/rDock_2013.1_src/data/scripts/dock_solv.prm

>  <Rbt.Receptor>
prm/pocket_docking_4.prm

>  <SCORE>
-11.526

>  <SCORE.INTER>
-11.526

>  <SCORE.INTER.CONST>
1

>  <SCORE.INTER.POLAR>
0

>  <SCORE.INTER.ROT>
0

>  <SCORE.INTER.SOLV>
21.541

>  <SCORE.INTER.VDW>
-18.4643

>  <SCORE.INTER.norm>
-1.04782

>  <SCORE.INTRA>
0

>  <SCORE.INTRA.DIHEDRAL>
0

>  <SCORE.INTRA.DIHEDRAL.0>
0

>  <SCORE.INTRA.POLAR>
0

>  <SCORE.INTRA.POLAR.0>
0

>  <SCORE.INTRA.REPUL>
0

>  <SCORE.INTRA.REPUL.0>
0

>  <SCORE.INTRA.SOLV>
0

>  <SCORE.INTRA.SOLV.lig_0>
-48.3454

>  <SCORE.INTRA.VDW>
0

>  <SCORE.INTRA.VDW.0>
0

>  <SCORE.INTRA.norm>
0

>  <SCORE.RESTR>
0

>  <SCORE.RESTR.CAVITY>
0

>  <SCORE.RESTR.norm>
0

>  <SCORE.SYSTEM>
0

>  <SCORE.SYSTEM.CONST>
0

>  <SCORE.SYSTEM.DIHEDRAL>
0

>  <SCORE.SYSTEM.SOLV>
0

>  <SCORE.SYSTEM.norm>
0

>  <SCORE.heavy>
11

>  <SCORE.norm>
-1.04782

>  <RMSD>
0.596

$$$$
ligand
 OpenBabel02271912153D
libRbt.so/2013.1/901 2013/11/27
 11 12  0  0  0  0  0  0  0  0999 V2000
  -11.8362  -12.7053    8.8556 N   0  0  0  0  0  0  0  0  0  0  0  0
  -11.4966  -14.0000    8.9616 C   0  0  0  0  0  0  0  0  0  0  0  0
  -11.5129  -14.5916   10.1527 N   0  0  0  0  0  0  0  0  0  0  0  0
  -11.1306  -14.7007    7.8771 N   0  0  0  0  0  0  0  0  0  0  0  0
  -11.0939  -14.1213    6.6680 C   0  0  0  0  0  0  0  0  0  0  0  0
  -11.4402  -12.7831    6.5304 C   0  0  0  0  0  0  0  0  0  0  0  0
  -11.8185  -12.0787    7.6685 C   0  0  0  0  0  0  0  0  0  0  0  0
  -12.1672  -10.7985    7.5809 N   0  0  0  0  0  0  0  0  0  0  0  0
  -11.3038  -12.4645    5.2467 N   0  0  0  0  0  0  0  0  0  0  0  0
  -10.8893  -13.5511    4.5991 C   0  0  0  0  0  0  0  0  0  0  0  0
  -10.7605  -14.5604    5.4577 N   0  0  0  0  0  0  0  0  0  0  0  0
  1  7  2  0  0  0  0
  1  2  1  0  0  0  0
  2  3  1  0  0  0  0
  2  4  2  0  0  0  0
  4  5  1  0  0  0  0
  5  6  2  0  0  0  0
  5 11  1  0  0  0  0
  6  7  1  0  0  0  0
  6  9  1  0  0  0  0
  7  8  1  0  0  0  0
  9 10  1  0  0  0  0
 10 11  2  0  0  0  0
M  END
>  <CHROM.1>
-11.40845006,-13.30490037,7.26048235,2.00157757,-1.25681380,2.10357257

>  <Name>
ligand

>  <RI>
0

>  <Rbt.Current_Directory>
/home/itssahil/PROJECTS/Mol_Feturizer/Test_systems_manuscript/rnas/2b57

>  <Rbt.Executable>
rbdock ($Id: //depot/dev/client3/rdock/2013.1/src/exe/rbdock.cxx#4 $)

>  <Rbt.Library>
libRbt.so (2013.1, Build901 2013/11/27)

>  <Rbt.Parameter_File>
/export/apps/rDock/src/rDock_2013.1_src/data/scripts/dock_solv.prm

>  <Rbt.Receptor>
prm/pocket_docking_4.prm

>  <SCORE>
-11.4816

>  <SCORE.INTER>
-11.4816

>  <SCORE.INTER.CONST>
1

>  <SCORE.INTER.POLAR>
0

>  <SCORE.INTER.ROT>
0

>  <SCORE.INTER.SOLV>
21.5267

>  <SCORE.INTER.VDW>
-18.43

>  <SCORE.INTER.norm>
-1.04378

>  <SCORE.INTRA>
0

>  <SCORE.INTRA.DIHEDRAL>
0

>  <SCORE.INTRA.DIHEDRAL.0>
0

>  <SCORE.INTRA.POLAR>
0

>  <SCORE.INTRA.POLAR.0>
0

>  <SCORE.INTRA.REPUL>
0

>  <SCORE.INTRA.REPUL.0>
0

>  <SCORE.INTRA.SOLV>
0

>  <SCORE.INTRA.SOLV.lig_0>
-48.3454

>  <SCORE.INTRA.VDW>
0

>  <SCORE.INTRA.VDW.0>
0

>  <SCORE.INTRA.norm>
0

>  <SCORE.RESTR>
0

>  <SCORE.RESTR.CAVITY>
0

>  <SCORE.RESTR.norm>
0

>  <SCORE.SYSTEM>
0

>  <SCORE.SYSTEM.CONST>
0

>  <SCORE.SYSTEM.DIHEDRAL>
0

>  <SCORE.SYSTEM.SOLV>
0

>  <SCORE.SYSTEM.norm>
0

>  <SCORE.heavy>
11

>  <SCORE.norm>
-1.04378

>  <RMSD>
0.596

$$$$
ligand
 OpenBabel02271912153D
libRbt.so/2013.1/901 2013/11/27
 11 12  0  0  0  0  0  0  0  0999 V2000
  -11.8426  -12.7533    8.8687 N   0  0  0  0  0  0  0  0  0  0  0  0
  -11.5027  -14.0491    8.9581 C   0  0  0  0  0  0  0  0  0  0  0  0
  -11.5212  -14.6566   10.1412 N   0  0  0  0  0  0  0  0  0  0  0  0
  -11.1342  -14.7351    7.8651 N   0  0  0  0  0  0  0  0  0  0  0  0
  -11.0952  -14.1397    6.6639 C   0  0  0  0  0  0  0  0  0  0  0  0
  -11.4418  -12.7999    6.5435 C   0  0  0  0  0  0  0  0  0  0  0  0
  -11.8228  -12.1109    7.6902 C   0  0  0  0  0  0  0  0  0  0  0  0
  -12.1717  -10.8298    7.6190 N   0  0  0  0  0  0  0  0  0  0  0  0
  -11.3029  -12.4640    5.2645 N   0  0  0  0  0  0  0  0  0  0  0  0
  -10.8866  -13.5418    4.6033 C   0  0  0  0  0  0  0  0  0  0  0  0
  -10.7593  -14.5624    5.4486 N   0  0  0  0  0  0  0  0  0  0  0  0
  1  7  2  0  0  0  0
  1  2  1  0  0  0  0
  2  3  1  0  0  0  0
  2  4  2  0  0  0  0
  4  5  1  0  0  0  0
  5  6  2  0  0  0  0
  5 11  1  0  0  0  0
  6  7  1  0  0  0  0
  6  9  1  0  0  0  0
  7  8  1  0  0  0  0
  9 10  1  0  0  0  0
 10 11  2  0  0  0  0
M  END
>  <CHROM.1>
-11.41135591,-13.33135000,7.26665788,2.00660642,-1.25542948,2.12172465

>  <Name>
ligand

>  <RI>
0

>  <Rbt.Current_Directory>
/home/itssahil/PROJECTS/Mol_Feturizer/Test_systems_manuscript/rnas/2b57

>  <Rbt.Executable>
rbdock ($Id: //depot/dev/client3/rdock/2013.1/src/exe/rbdock.cxx#4 $)

>  <Rbt.Library>
libRbt.so (2013.1, Build901 2013/11/27)

>  <Rbt.Parameter_File>
/export/apps/rDock/src/rDock_2013.1_src/data/scripts/dock_solv.prm

>  <Rbt.Receptor>
prm/pocket_docking_5.prm

>  <SCORE>
-11.5263

>  <SCORE.INTER>
-11.5263

>  <SCORE.INTER.CONST>
1

>  <SCORE.INTER.POLAR>
0

>  <SCORE.INTER.ROT>
0

>  <SCORE.INTER.SOLV>
21.5722

>  <SCORE.INTER.VDW>
-18.4749

>  <SCORE.INTER.norm>
-1.04785

>  <SCORE.INTRA>
0

>  <SCORE.INTRA.DIHEDRAL>
0

>  <SCORE.INTRA.DIHEDRAL.0>
0

>  <SCORE.INTRA.POLAR>
0

>  <SCORE.INTRA.POLAR.0>
0

>  <SCORE.INTRA.REPUL>
0

>  <SCORE.INTRA.REPUL.0>
0

>  <SCORE.INTRA.SOLV>
0

>  <SCORE.INTRA.SOLV.lig_0>
-48.3454

>  <SCORE.INTRA.VDW>
0

>  <SCORE.INTRA.VDW.0>
0

>  <SCORE.INTRA.norm>
0

>  <SCORE.RESTR>
0

>  <SCORE.RESTR.CAVITY>
0

>  <SCORE.RESTR.norm>
0

>  <SCORE.SYSTEM>
0

>  <SCORE.SYSTEM.CONST>
0

>  <SCORE.SYSTEM.DIHEDRAL>
0

>  <SCORE.SYSTEM.SOLV>
0

>  <SCORE.SYSTEM.norm>
0

>  <SCORE.heavy>
11

>  <SCORE.norm>
-1.04785

>  <RMSD>
0.596

$$$$
ligand
 OpenBabel02271912153D
libRbt.so/2013.1/901 2013/11/27
 11 12  0  0  0  0  0  0  0  0999 V2000
  -11.8578  -12.7888    8.8747 N   0  0  0  0  0  0  0  0  0  0  0  0
  -11.5098  -14.0829    8.9582 C   0  0  0  0  0  0  0  0  0  0  0  0
  -11.5302  -14.6974   10.1376 N   0  0  0  0  0  0  0  0  0  0  0  0
  -11.1311  -14.7599    7.8631 N   0  0  0  0  0  0  0  0  0  0  0  0
  -11.0901  -14.1571    6.6656 C   0  0  0  0  0  0  0  0  0  0  0  0
  -11.4450  -12.8190    6.5513 C   0  0  0  0  0  0  0  0  0  0  0  0
  -11.8363  -12.1393    7.7001 C   0  0  0  0  0  0  0  0  0  0  0  0
  -12.1935  -10.8601    7.6346 N   0  0  0  0  0  0  0  0  0  0  0  0
  -11.3019  -12.4747    5.2750 N   0  0  0  0  0  0  0  0  0  0  0  0
  -10.8751  -13.5457    4.6096 C   0  0  0  0  0  0  0  0  0  0  0  0
  -10.7451  -14.5705    5.4496 N   0  0  0  0  0  0  0  0  0  0  0  0
  1  7  2  0  0  0  0
  1  2  1  0  0  0  0
  2  3  1  0  0  0  0
  2  4  2  0  0  0  0
  4  5  1  0  0  0  0
  5  6  2  0  0  0  0
  5 11  1  0  0  0  0
  6  7  1  0  0  0  0
  6  9  1  0  0  0  0
  7  8  1  0  0  0  0
  9 10  1  0  0  0  0
 10 11  2  0  0  0  0
M  END
>  <CHROM.1>
-11.41464088,-13.35449780,7.27147140,2.00912997,-1.24707856,2.13000061

>  <Name>
ligand

>  <RI>
0

>  <Rbt.Current_Directory>
/home/itssahil/PROJECTS/Mol_Feturizer/Test_systems_manuscript/rnas/2b57

>  <Rbt.Executable>
rbdock ($Id: //depot/dev/client3/rdock/2013.1/src/exe/rbdock.cxx#4 $)

>  <Rbt.Library>
libRbt.so (2013.1, Build901 2013/11/27)

>  <Rbt.Parameter_File>
/export/apps/rDock/src/rDock_2013.1_src/data/scripts/dock_solv.prm

>  <Rbt.Receptor>
prm/pocket_docking_6.prm

>  <SCORE>
-11.5488

>  <SCORE.INTER>
-11.5488

>  <SCORE.INTER.CONST>
1

>  <SCORE.INTER.POLAR>
0

>  <SCORE.INTER.ROT>
0

>  <SCORE.INTER.SOLV>
21.5298

>  <SCORE.INTER.VDW>
-18.4758

>  <SCORE.INTER.norm>
-1.04989

>  <SCORE.INTRA>
0

>  <SCORE.INTRA.DIHEDRAL>
0

>  <SCORE.INTRA.DIHEDRAL.0>
0

>  <SCORE.INTRA.POLAR>
0

>  <SCORE.INTRA.POLAR.0>
0

>  <SCORE.INTRA.REPUL>
0

>  <SCORE.INTRA.REPUL.0>
0

>  <SCORE.INTRA.SOLV>
0

>  <SCORE.INTRA.SOLV.lig_0>
-48.3454

>  <SCORE.INTRA.VDW>
0

>  <SCORE.INTRA.VDW.0>
0

>  <SCORE.INTRA.norm>
0

>  <SCORE.RESTR>
0

>  <SCORE.RESTR.CAVITY>
0

>  <SCORE.RESTR.norm>
0

>  <SCORE.SYSTEM>
0

>  <SCORE.SYSTEM.CONST>
0

>  <SCORE.SYSTEM.DIHEDRAL>
0

>  <SCORE.SYSTEM.SOLV>
0

>  <SCORE.SYSTEM.norm>
0

>  <SCORE.heavy>
11

>  <SCORE.norm>
-1.04989

>  <RMSD>
0.596

$$$$
ligand
 OpenBabel02271912153D
libRbt.so/2013.1/901 2013/11/27
 11 12  0  0  0  0  0  0  0  0999 V2000
  -11.8305  -12.7355    8.8646 N   0  0  0  0  0  0  0  0  0  0  0  0
  -11.4503  -14.0192    8.9654 C   0  0  0  0  0  0  0  0  0  0  0  0
  -11.4405  -14.6136   10.1552 N   0  0  0  0  0  0  0  0  0  0  0  0
  -11.0697  -14.7059    7.8769 N   0  0  0  0  0  0  0  0  0  0  0  0
  -11.0588  -14.1231    6.6690 C   0  0  0  0  0  0  0  0  0  0  0  0
  -11.4474  -12.7960    6.5367 C   0  0  0  0  0  0  0  0  0  0  0  0
  -11.8400  -12.1061    7.6789 C   0  0  0  0  0  0  0  0  0  0  0  0
  -12.2287  -10.8371    7.5965 N   0  0  0  0  0  0  0  0  0  0  0  0
  -11.3292  -12.4705    5.2530 N   0  0  0  0  0  0  0  0  0  0  0  0
  -10.8853  -13.5423    4.6002 C   0  0  0  0  0  0  0  0  0  0  0  0
  -10.7198  -14.5490    5.4556 N   0  0  0  0  0  0  0  0  0  0  0  0
  1  7  2  0  0  0  0
  1  2  1  0  0  0  0
  2  3  1  0  0  0  0
  2  4  2  0  0  0  0
  4  5  1  0  0  0  0
  5  6  2  0  0  0  0
  5 11  1  0  0  0  0
  6  7  1  0  0  0  0
  6  9  1  0  0  0  0
  7  8  1  0  0  0  0
  9 10  1  0  0  0  0
 10 11  2  0  0  0  0
M  END
>  <CHROM.1>
-11.39472282,-13.31808074,7.26540329,1.93725249,-1.23272068,2.04488852

>  <Name>
ligand

>  <RI>
0

>  <Rbt.Current_Directory>
/home/itssahil/PROJECTS/Mol_Feturizer/Test_systems_manuscript/rnas/2b57

>  <Rbt.Executable>
rbdock ($Id: //depot/dev/client3/rdock/2013.1/src/exe/rbdock.cxx#4 $)

>  <Rbt.Library>
libRbt.so (2013.1, Build901 2013/11/27)

>  <Rbt.Parameter_File>
/export/apps/rDock/src/rDock_2013.1_src/data/scripts/dock_solv.prm

>  <Rbt.Receptor>
prm/pocket_docking_6.prm

>  <SCORE>
-11.4635

>  <SCORE.INTER>
-11.4635

>  <SCORE.INTER.CONST>
1

>  <SCORE.INTER.POLAR>
0

>  <SCORE.INTER.ROT>
0

>  <SCORE.INTER.SOLV>
21.3206

>  <SCORE.INTER.VDW>
-18.3492

>  <SCORE.INTER.norm>
-1.04214

>  <SCORE.INTRA>
0

>  <SCORE.INTRA.DIHEDRAL>
0

>  <SCORE.INTRA.DIHEDRAL.0>
0

>  <SCORE.INTRA.POLAR>
0

>  <SCORE.INTRA.POLAR.0>
0

>  <SCORE.INTRA.REPUL>
0

>  <SCORE.INTRA.REPUL.0>
0

>  <SCORE.INTRA.SOLV>
0

>  <SCORE.INTRA.SOLV.lig_0>
-48.3454

>  <SCORE.INTRA.VDW>
0

>  <SCORE.INTRA.VDW.0>
0

>  <SCORE.INTRA.norm>
0

>  <SCORE.RESTR>
0

>  <SCORE.RESTR.CAVITY>
0

>  <SCORE.RESTR.norm>
0

>  <SCORE.SYSTEM>
0

>  <SCORE.SYSTEM.CONST>
0

>  <SCORE.SYSTEM.DIHEDRAL>
0

>  <SCORE.SYSTEM.SOLV>
0

>  <SCORE.SYSTEM.norm>
0

>  <SCORE.heavy>
11

>  <SCORE.norm>
-1.04214

>  <RMSD>
0.596

$$$$
ligand
 OpenBabel02271912153D
libRbt.so/2013.1/901 2013/11/27
 11 12  0  0  0  0  0  0  0  0999 V2000
  -11.8744  -12.7800    8.8633 N   0  0  0  0  0  0  0  0  0  0  0  0
  -11.5066  -14.0678    8.9582 C   0  0  0  0  0  0  0  0  0  0  0  0
  -11.5218  -14.6735   10.1422 N   0  0  0  0  0  0  0  0  0  0  0  0
  -11.1134  -14.7474    7.8697 N   0  0  0  0  0  0  0  0  0  0  0  0
  -11.0773  -14.1533    6.6677 C   0  0  0  0  0  0  0  0  0  0  0  0
  -11.4525  -12.8218    6.5417 C   0  0  0  0  0  0  0  0  0  0  0  0
  -11.8586  -12.1394    7.6838 C   0  0  0  0  0  0  0  0  0  0  0  0
  -12.2354  -10.8665    7.6070 N   0  0  0  0  0  0  0  0  0  0  0  0
  -11.3101  -12.4851    5.2633 N   0  0  0  0  0  0  0  0  0  0  0  0
  -10.8642  -13.5545    4.6078 C   0  0  0  0  0  0  0  0  0  0  0  0
  -10.7214  -14.5706    5.4562 N   0  0  0  0  0  0  0  0  0  0  0  0
  1  7  2  0  0  0  0
  1  2  1  0  0  0  0
  2  3  1  0  0  0  0
  2  4  2  0  0  0  0
  4  5  1  0  0  0  0
  5  6  2  0  0  0  0
  5 11  1  0  0  0  0
  6  7  1  0  0  0  0
  6  9  1  0  0  0  0
  7  8  1  0  0  0  0
  9 10  1  0  0  0  0
 10 11  2  0  0  0  0
M  END
>  <CHROM.1>
-11.41651503,-13.35114394,7.26614836,1.99377163,-1.23189214,2.10772620

>  <Name>
ligand

>  <RI>
0

>  <Rbt.Current_Directory>
/home/itssahil/PROJECTS/Mol_Feturizer/Test_systems_manuscript/rnas/2b57

>  <Rbt.Executable>
rbdock ($Id: //depot/dev/client3/rdock/2013.1/src/exe/rbdock.cxx#4 $)

>  <Rbt.Library>
libRbt.so (2013.1, Build901 2013/11/27)

>  <Rbt.Parameter_File>
/export/apps/rDock/src/rDock_2013.1_src/data/scripts/dock_solv.prm

>  <Rbt.Receptor>
prm/pocket_docking_7.prm

>  <SCORE>
-11.5438

>  <SCORE.INTER>
-11.5438

>  <SCORE.INTER.CONST>
1

>  <SCORE.INTER.POLAR>
0

>  <SCORE.INTER.ROT>
0

>  <SCORE.INTER.SOLV>
21.3409

>  <SCORE.INTER.VDW>
-18.4095

>  <SCORE.INTER.norm>
-1.04943

>  <SCORE.INTRA>
0

>  <SCORE.INTRA.DIHEDRAL>
0

>  <SCORE.INTRA.DIHEDRAL.0>
0

>  <SCORE.INTRA.POLAR>
0

>  <SCORE.INTRA.POLAR.0>
0

>  <SCORE.INTRA.REPUL>
0

>  <SCORE.INTRA.REPUL.0>
0

>  <SCORE.INTRA.SOLV>
0

>  <SCORE.INTRA.SOLV.lig_0>
-48.3454

>  <SCORE.INTRA.VDW>
0

>  <SCORE.INTRA.VDW.0>
0

>  <SCORE.INTRA.norm>
0

>  <SCORE.RESTR>
0

>  <SCORE.RESTR.CAVITY>
0

>  <SCORE.RESTR.norm>
0

>  <SCORE.SYSTEM>
0

>  <SCORE.SYSTEM.CONST>
0

>  <SCORE.SYSTEM.DIHEDRAL>
0

>  <SCORE.SYSTEM.SOLV>
0

>  <SCORE.SYSTEM.norm>
0

>  <SCORE.heavy>
11

>  <SCORE.norm>
-1.04943

>  <RMSD>
0.596

$$$$
ligand
 OpenBabel02271912153D
libRbt.so/2013.1/901 2013/11/27
 11 12  0  0  0  0  0  0  0  0999 V2000
  -11.9242  -12.7038    8.8293 N   0  0  0  0  0  0  0  0  0  0  0  0
  -11.6025  -14.0017    8.9502 C   0  0  0  0  0  0  0  0  0  0  0  0
  -11.6610  -14.5884   10.1424 N   0  0  0  0  0  0  0  0  0  0  0  0
  -11.2119  -14.7107    7.8797 N   0  0  0  0  0  0  0  0  0  0  0  0
  -11.1325  -14.1367    6.6702 C   0  0  0  0  0  0  0  0  0  0  0  0
  -11.4596  -12.7953    6.5173 C   0  0  0  0  0  0  0  0  0  0  0  0
  -11.8640  -12.0822    7.6410 C   0  0  0  0  0  0  0  0  0  0  0  0
  -12.1956  -10.7986    7.5383 N   0  0  0  0  0  0  0  0  0  0  0  0
  -11.2813  -12.4833    5.2371 N   0  0  0  0  0  0  0  0  0  0  0  0
  -10.8597  -13.5770    4.6063 C   0  0  0  0  0  0  0  0  0  0  0  0
  -10.7680  -14.5842    5.4721 N   0  0  0  0  0  0  0  0  0  0  0  0
  1  7  2  0  0  0  0
  1  2  1  0  0  0  0
  2  3  1  0  0  0  0
  2  4  2  0  0  0  0
  4  5  1  0  0  0  0
  5  6  2  0  0  0  0
  5 11  1  0  0  0  0
  6  7  1  0  0  0  0
  6  9  1  0  0  0  0
  7  8  1  0  0  0  0
  9 10  1  0  0  0  0
 10 11  2  0  0  0  0
M  END
>  <CHROM.1>
-11.45560749,-13.31445576,7.24996793,2.10145398,-1.24970950,2.19463662

>  <Name>
ligand

>  <RI>
0

>  <Rbt.Current_Directory>
/home/itssahil/PROJECTS/Mol_Feturizer/Test_systems_manuscript/rnas/2b57

>  <Rbt.Executable>
rbdock ($Id: //depot/dev/client3/rdock/2013.1/src/exe/rbdock.cxx#4 $)

>  <Rbt.Library>
libRbt.so (2013.1, Build901 2013/11/27)

>  <Rbt.Parameter_File>
/export/apps/rDock/src/rDock_2013.1_src/data/scripts/dock_solv.prm

>  <Rbt.Receptor>
prm/blind_docking_40.prm

>  <SCORE>
-11.4306

>  <SCORE.INTER>
-11.4306

>  <SCORE.INTER.CONST>
1

>  <SCORE.INTER.POLAR>
0

>  <SCORE.INTER.ROT>
0

>  <SCORE.INTER.SOLV>
21.3688

>  <SCORE.INTER.VDW>
-18.3433

>  <SCORE.INTER.norm>
-1.03914

>  <SCORE.INTRA>
0

>  <SCORE.INTRA.DIHEDRAL>
0

>  <SCORE.INTRA.DIHEDRAL.0>
0

>  <SCORE.INTRA.POLAR>
0

>  <SCORE.INTRA.POLAR.0>
0

>  <SCORE.INTRA.REPUL>
0

>  <SCORE.INTRA.REPUL.0>
0

>  <SCORE.INTRA.SOLV>
0

>  <SCORE.INTRA.SOLV.lig_0>
-48.3454

>  <SCORE.INTRA.VDW>
0

>  <SCORE.INTRA.VDW.0>
0

>  <SCORE.INTRA.norm>
0

>  <SCORE.RESTR>
0

>  <SCORE.RESTR.CAVITY>
0

>  <SCORE.RESTR.norm>
0

>  <SCORE.SYSTEM>
0

>  <SCORE.SYSTEM.CONST>
0

>  <SCORE.SYSTEM.DIHEDRAL>
0

>  <SCORE.SYSTEM.SOLV>
0

>  <SCORE.SYSTEM.norm>
0

>  <SCORE.heavy>
11

>  <SCORE.norm>
-1.03914

>  <RMSD>
0.597

$$$$
ligand
 OpenBabel02271912153D
libRbt.so/2013.1/901 2013/11/27
 11 12  0  0  0  0  0  0  0  0999 V2000
  -11.8582  -12.7896    8.8730 N   0  0  0  0  0  0  0  0  0  0  0  0
  -11.5089  -14.0831    8.9585 C   0  0  0  0  0  0  0  0  0  0  0  0
  -11.5290  -14.6961   10.1387 N   0  0  0  0  0  0  0  0  0  0  0  0
  -11.1292  -14.7614    7.8644 N   0  0  0  0  0  0  0  0  0  0  0  0
  -11.0884  -14.1602    6.6661 C   0  0  0  0  0  0  0  0  0  0  0  0
  -11.4446  -12.8226    6.5498 C   0  0  0  0  0  0  0  0  0  0  0  0
  -11.8370  -12.1417    7.6975 C   0  0  0  0  0  0  0  0  0  0  0  0
  -12.1954  -10.8630    7.6301 N   0  0  0  0  0  0  0  0  0  0  0  0
  -11.3015  -12.4799    5.2731 N   0  0  0  0  0  0  0  0  0  0  0  0
  -10.8733  -13.5514    4.6093 C   0  0  0  0  0  0  0  0  0  0  0  0
  -10.7427  -14.5749    5.4508 N   0  0  0  0  0  0  0  0  0  0  0  0
  1  7  2  0  0  0  0
  1  2  1  0  0  0  0
  2  3  1  0  0  0  0
  2  4  2  0  0  0  0
  4  5  1  0  0  0  0
  5  6  2  0  0  0  0
  5 11  1  0  0  0  0
  6  7  1  0  0  0  0
  6  9  1  0  0  0  0
  7  8  1  0  0  0  0
  9 10  1  0  0  0  0
 10 11  2  0  0  0  0
M  END
>  <CHROM.1>
-11.41394069,-13.35705506,7.27075177,2.00830902,-1.24607259,2.12782660

>  <Name>
ligand

>  <RI>
0

>  <Rbt.Current_Directory>
/home/itssahil/PROJECTS/Mol_Feturizer/Test_systems_manuscript/rnas/2b57

>  <Rbt.Executable>
rbdock ($Id: //depot/dev/client3/rdock/2013.1/src/exe/rbdock.cxx#4 $)

>  <Rbt.Library>
libRbt.so (2013.1, Build901 2013/11/27)

>  <Rbt.Parameter_File>
/export/apps/rDock/src/rDock_2013.1_src/data/scripts/dock_solv.prm

>  <Rbt.Receptor>
prm/pocket_docking_3.prm

>  <SCORE>
-11.5458

>  <SCORE.INTER>
-11.5458

>  <SCORE.INTER.CONST>
1

>  <SCORE.INTER.POLAR>
0

>  <SCORE.INTER.ROT>
0

>  <SCORE.INTER.SOLV>
21.5145

>  <SCORE.INTER.VDW>
-18.4687

>  <SCORE.INTER.norm>
-1.04962

>  <SCORE.INTRA>
0

>  <SCORE.INTRA.DIHEDRAL>
0

>  <SCORE.INTRA.DIHEDRAL.0>
0

>  <SCORE.INTRA.POLAR>
0

>  <SCORE.INTRA.POLAR.0>
0

>  <SCORE.INTRA.REPUL>
0

>  <SCORE.INTRA.REPUL.0>
0

>  <SCORE.INTRA.SOLV>
0

>  <SCORE.INTRA.SOLV.lig_0>
-48.3454

>  <SCORE.INTRA.VDW>
0

>  <SCORE.INTRA.VDW.0>
0

>  <SCORE.INTRA.norm>
0

>  <SCORE.RESTR>
0

>  <SCORE.RESTR.CAVITY>
0

>  <SCORE.RESTR.norm>
0

>  <SCORE.SYSTEM>
0

>  <SCORE.SYSTEM.CONST>
0

>  <SCORE.SYSTEM.DIHEDRAL>
0

>  <SCORE.SYSTEM.SOLV>
0

>  <SCORE.SYSTEM.norm>
0

>  <SCORE.heavy>
11

>  <SCORE.norm>
-1.04962

>  <RMSD>
0.597

$$$$
ligand
 OpenBabel02271912153D
libRbt.so/2013.1/901 2013/11/27
 11 12  0  0  0  0  0  0  0  0999 V2000
  -11.8639  -12.7815    8.8695 N   0  0  0  0  0  0  0  0  0  0  0  0
  -11.5251  -14.0778    8.9559 C   0  0  0  0  0  0  0  0  0  0  0  0
  -11.5514  -14.6901   10.1363 N   0  0  0  0  0  0  0  0  0  0  0  0
  -11.1497  -14.7595    7.8625 N   0  0  0  0  0  0  0  0  0  0  0  0
  -11.1027  -14.1592    6.6640 C   0  0  0  0  0  0  0  0  0  0  0  0
  -11.4481  -12.8188    6.5467 C   0  0  0  0  0  0  0  0  0  0  0  0
  -11.8363  -12.1343    7.6937 C   0  0  0  0  0  0  0  0  0  0  0  0
  -12.1843  -10.8528    7.6254 N   0  0  0  0  0  0  0  0  0  0  0  0
  -11.3009  -12.4778    5.2700 N   0  0  0  0  0  0  0  0  0  0  0  0
  -10.8806  -13.5530    4.6072 C   0  0  0  0  0  0  0  0  0  0  0  0
  -10.7590  -14.5771    5.4491 N   0  0  0  0  0  0  0  0  0  0  0  0
  1  7  2  0  0  0  0
  1  2  1  0  0  0  0
  2  3  1  0  0  0  0
  2  4  2  0  0  0  0
  4  5  1  0  0  0  0
  5  6  2  0  0  0  0
  5 11  1  0  0  0  0
  6  7  1  0  0  0  0
  6  9  1  0  0  0  0
  7  8  1  0  0  0  0
  9 10  1  0  0  0  0
 10 11  2  0  0  0  0
M  END
>  <CHROM.1>
-11.42251356,-13.35320032,7.26791783,2.02476693,-1.25225909,2.14303311

>  <Name>
ligand

>  <RI>
0

>  <Rbt.Current_Directory>
/home/itssahil/PROJECTS/Mol_Feturizer/Test_systems_manuscript/rnas/2b57

>  <Rbt.Executable>
rbdock ($Id: //depot/dev/client3/rdock/2013.1/src/exe/rbdock.cxx#4 $)

>  <Rbt.Library>
libRbt.so (2013.1, Build901 2013/11/27)

>  <Rbt.Parameter_File>
/export/apps/rDock/src/rDock_2013.1_src/data/scripts/dock_solv.prm

>  <Rbt.Receptor>
prm/pocket_docking_6.prm

>  <SCORE>
-11.5393

>  <SCORE.INTER>
-11.5393

>  <SCORE.INTER.CONST>
1

>  <SCORE.INTER.POLAR>
0

>  <SCORE.INTER.ROT>
0

>  <SCORE.INTER.SOLV>
21.557

>  <SCORE.INTER.VDW>
-18.4785

>  <SCORE.INTER.norm>
-1.04902

>  <SCORE.INTRA>
0

>  <SCORE.INTRA.DIHEDRAL>
0

>  <SCORE.INTRA.DIHEDRAL.0>
0

>  <SCORE.INTRA.POLAR>
0

>  <SCORE.INTRA.POLAR.0>
0

>  <SCORE.INTRA.REPUL>
0

>  <SCORE.INTRA.REPUL.0>
0

>  <SCORE.INTRA.SOLV>
0

>  <SCORE.INTRA.SOLV.lig_0>
-48.3454

>  <SCORE.INTRA.VDW>
0

>  <SCORE.INTRA.VDW.0>
0

>  <SCORE.INTRA.norm>
0

>  <SCORE.RESTR>
0

>  <SCORE.RESTR.CAVITY>
0

>  <SCORE.RESTR.norm>
0

>  <SCORE.SYSTEM>
0

>  <SCORE.SYSTEM.CONST>
0

>  <SCORE.SYSTEM.DIHEDRAL>
0

>  <SCORE.SYSTEM.SOLV>
0

>  <SCORE.SYSTEM.norm>
0

>  <SCORE.heavy>
11

>  <SCORE.norm>
-1.04902

>  <RMSD>
0.597

$$$$
ligand
 OpenBabel02271912153D
libRbt.so/2013.1/901 2013/11/27
 11 12  0  0  0  0  0  0  0  0999 V2000
  -11.8813  -12.7943    8.8643 N   0  0  0  0  0  0  0  0  0  0  0  0
  -11.5128  -14.0822    8.9558 C   0  0  0  0  0  0  0  0  0  0  0  0
  -11.5295  -14.6915   10.1380 N   0  0  0  0  0  0  0  0  0  0  0  0
  -11.1175  -14.7581    7.8659 N   0  0  0  0  0  0  0  0  0  0  0  0
  -11.0799  -14.1604    6.6658 C   0  0  0  0  0  0  0  0  0  0  0  0
  -11.4558  -12.8287    6.5433 C   0  0  0  0  0  0  0  0  0  0  0  0
  -11.8641  -12.1501    7.6868 C   0  0  0  0  0  0  0  0  0  0  0  0
  -12.2416  -10.8772    7.6133 N   0  0  0  0  0  0  0  0  0  0  0  0
  -11.3116  -12.4881    5.2661 N   0  0  0  0  0  0  0  0  0  0  0  0
  -10.8640  -13.5551    4.6081 C   0  0  0  0  0  0  0  0  0  0  0  0
  -10.7220  -14.5737    5.4535 N   0  0  0  0  0  0  0  0  0  0  0  0
  1  7  2  0  0  0  0
  1  2  1  0  0  0  0
  2  3  1  0  0  0  0
  2  4  2  0  0  0  0
  4  5  1  0  0  0  0
  5  6  2  0  0  0  0
  5 11  1  0  0  0  0
  6  7  1  0  0  0  0
  6  9  1  0  0  0  0
  7  8  1  0  0  0  0
  9 10  1  0  0  0  0
 10 11  2  0  0  0  0
M  END
>  <CHROM.1>
-11.42060005,-13.36026389,7.26614853,1.99679626,-1.23056667,2.11362798

>  <Name>
ligand

>  <RI>
0

>  <Rbt.Current_Directory>
/home/itssahil/PROJECTS/Mol_Feturizer/Test_systems_manuscript/rnas/2b57

>  <Rbt.Executable>
rbdock ($Id: //depot/dev/client3/rdock/2013.1/src/exe/rbdock.cxx#4 $)

>  <Rbt.Library>
libRbt.so (2013.1, Build901 2013/11/27)

>  <Rbt.Parameter_File>
/export/apps/rDock/src/rDock_2013.1_src/data/scripts/dock_solv.prm

>  <Rbt.Receptor>
prm/blind_docking_100.prm

>  <SCORE>
-11.5586

>  <SCORE.INTER>
-11.5586

>  <SCORE.INTER.CONST>
1

>  <SCORE.INTER.POLAR>
0

>  <SCORE.INTER.ROT>
0

>  <SCORE.INTER.SOLV>
21.3436

>  <SCORE.INTER.VDW>
-18.4203

>  <SCORE.INTER.norm>
-1.05078

>  <SCORE.INTRA>
0

>  <SCORE.INTRA.DIHEDRAL>
0

>  <SCORE.INTRA.DIHEDRAL.0>
0

>  <SCORE.INTRA.POLAR>
0

>  <SCORE.INTRA.POLAR.0>
0

>  <SCORE.INTRA.REPUL>
0

>  <SCORE.INTRA.REPUL.0>
0

>  <SCORE.INTRA.SOLV>
0

>  <SCORE.INTRA.SOLV.lig_0>
-48.3454

>  <SCORE.INTRA.VDW>
0

>  <SCORE.INTRA.VDW.0>
0

>  <SCORE.INTRA.norm>
0

>  <SCORE.RESTR>
0

>  <SCORE.RESTR.CAVITY>
0

>  <SCORE.RESTR.norm>
0

>  <SCORE.SYSTEM>
0

>  <SCORE.SYSTEM.CONST>
0

>  <SCORE.SYSTEM.DIHEDRAL>
0

>  <SCORE.SYSTEM.SOLV>
0

>  <SCORE.SYSTEM.norm>
0

>  <SCORE.heavy>
11

>  <SCORE.norm>
-1.05078

>  <RMSD>
0.598

$$$$
ligand
 OpenBabel02271912153D
libRbt.so/2013.1/901 2013/11/27
 11 12  0  0  0  0  0  0  0  0999 V2000
  -11.8365  -12.7620    8.8712 N   0  0  0  0  0  0  0  0  0  0  0  0
  -11.4962  -14.0579    8.9583 C   0  0  0  0  0  0  0  0  0  0  0  0
  -11.5140  -14.6675   10.1403 N   0  0  0  0  0  0  0  0  0  0  0  0
  -11.1280  -14.7420    7.8639 N   0  0  0  0  0  0  0  0  0  0  0  0
  -11.0897  -14.1444    6.6637 C   0  0  0  0  0  0  0  0  0  0  0  0
  -11.4367  -12.8045    6.5457 C   0  0  0  0  0  0  0  0  0  0  0  0
  -11.8173  -12.1176    7.6938 C   0  0  0  0  0  0  0  0  0  0  0  0
  -12.1667  -10.8364    7.6249 N   0  0  0  0  0  0  0  0  0  0  0  0
  -11.2985  -12.4665    5.2672 N   0  0  0  0  0  0  0  0  0  0  0  0
  -10.8821  -13.5429    4.6040 C   0  0  0  0  0  0  0  0  0  0  0  0
  -10.7541  -14.5650    5.4475 N   0  0  0  0  0  0  0  0  0  0  0  0
  1  7  2  0  0  0  0
  1  2  1  0  0  0  0
  2  3  1  0  0  0  0
  2  4  2  0  0  0  0
  4  5  1  0  0  0  0
  5  6  2  0  0  0  0
  5 11  1  0  0  0  0
  6  7  1  0  0  0  0
  6  9  1  0  0  0  0
  7  8  1  0  0  0  0
  9 10  1  0  0  0  0
 10 11  2  0  0  0  0
M  END
>  <CHROM.1>
-11.40576189,-13.33722296,7.26795590,2.00494551,-1.25541875,2.12185733

>  <Name>
ligand

>  <RI>
0

>  <Rbt.Current_Directory>
/home/itssahil/PROJECTS/Mol_Feturizer/Test_systems_manuscript/rnas/2b57

>  <Rbt.Executable>
rbdock ($Id: //depot/dev/client3/rdock/2013.1/src/exe/rbdock.cxx#4 $)

>  <Rbt.Library>
libRbt.so (2013.1, Build901 2013/11/27)

>  <Rbt.Parameter_File>
/export/apps/rDock/src/rDock_2013.1_src/data/scripts/dock_solv.prm

>  <Rbt.Receptor>
prm/pocket_docking_3.prm

>  <SCORE>
-11.5389

>  <SCORE.INTER>
-11.5389

>  <SCORE.INTER.CONST>
1

>  <SCORE.INTER.POLAR>
0

>  <SCORE.INTER.ROT>
0

>  <SCORE.INTER.SOLV>
21.5951

>  <SCORE.INTER.VDW>
-18.4909

>  <SCORE.INTER.norm>
-1.04899

>  <SCORE.INTRA>
0

>  <SCORE.INTRA.DIHEDRAL>
0

>  <SCORE.INTRA.DIHEDRAL.0>
0

>  <SCORE.INTRA.POLAR>
0

>  <SCORE.INTRA.POLAR.0>
0

>  <SCORE.INTRA.REPUL>
0

>  <SCORE.INTRA.REPUL.0>
0

>  <SCORE.INTRA.SOLV>
0

>  <SCORE.INTRA.SOLV.lig_0>
-48.3454

>  <SCORE.INTRA.VDW>
0

>  <SCORE.INTRA.VDW.0>
0

>  <SCORE.INTRA.norm>
0

>  <SCORE.RESTR>
0

>  <SCORE.RESTR.CAVITY>
0

>  <SCORE.RESTR.norm>
0

>  <SCORE.SYSTEM>
0

>  <SCORE.SYSTEM.CONST>
0

>  <SCORE.SYSTEM.DIHEDRAL>
0

>  <SCORE.SYSTEM.SOLV>
0

>  <SCORE.SYSTEM.norm>
0

>  <SCORE.heavy>
11

>  <SCORE.norm>
-1.04899

>  <RMSD>
0.598

$$$$
ligand
 OpenBabel02271912153D
libRbt.so/2013.1/901 2013/11/27
 11 12  0  0  0  0  0  0  0  0999 V2000
  -11.8882  -12.7940    8.8631 N   0  0  0  0  0  0  0  0  0  0  0  0
  -11.5165  -14.0808    8.9558 C   0  0  0  0  0  0  0  0  0  0  0  0
  -11.5285  -14.6881   10.1390 N   0  0  0  0  0  0  0  0  0  0  0  0
  -11.1228  -14.7578    7.8659 N   0  0  0  0  0  0  0  0  0  0  0  0
  -11.0899  -14.1621    6.6647 C   0  0  0  0  0  0  0  0  0  0  0  0
  -11.4692  -12.8315    6.5409 C   0  0  0  0  0  0  0  0  0  0  0  0
  -11.8758  -12.1518    7.6843 C   0  0  0  0  0  0  0  0  0  0  0  0
  -12.2563  -10.8799    7.6097 N   0  0  0  0  0  0  0  0  0  0  0  0
  -11.3293  -12.4928    5.2627 N   0  0  0  0  0  0  0  0  0  0  0  0
  -10.8812  -13.5600    4.6053 C   0  0  0  0  0  0  0  0  0  0  0  0
  -10.7344  -14.5768    5.4522 N   0  0  0  0  0  0  0  0  0  0  0  0
  1  7  2  0  0  0  0
  1  2  1  0  0  0  0
  2  3  1  0  0  0  0
  2  4  2  0  0  0  0
  4  5  1  0  0  0  0
  5  6  2  0  0  0  0
  5 11  1  0  0  0  0
  6  7  1  0  0  0  0
  6  9  1  0  0  0  0
  7  8  1  0  0  0  0
  9 10  1  0  0  0  0
 10 11  2  0  0  0  0
M  END
>  <CHROM.1>
-11.43070995,-13.36169765,7.26457658,1.98609587,-1.23006926,2.10177483

>  <Name>
ligand

>  <RI>
0

>  <Rbt.Current_Directory>
/home/itssahil/PROJECTS/Mol_Feturizer/Test_systems_manuscript/rnas/2b57

>  <Rbt.Executable>
rbdock ($Id: //depot/dev/client3/rdock/2013.1/src/exe/rbdock.cxx#4 $)

>  <Rbt.Library>
libRbt.so (2013.1, Build901 2013/11/27)

>  <Rbt.Parameter_File>
/export/apps/rDock/src/rDock_2013.1_src/data/scripts/dock_solv.prm

>  <Rbt.Receptor>
prm/pocket_docking_3.prm

>  <SCORE>
-11.5126

>  <SCORE.INTER>
-11.5126

>  <SCORE.INTER.CONST>
1

>  <SCORE.INTER.POLAR>
0

>  <SCORE.INTER.ROT>
0

>  <SCORE.INTER.SOLV>
21.2946

>  <SCORE.INTER.VDW>
-18.3733

>  <SCORE.INTER.norm>
-1.0466

>  <SCORE.INTRA>
0

>  <SCORE.INTRA.DIHEDRAL>
0

>  <SCORE.INTRA.DIHEDRAL.0>
0

>  <SCORE.INTRA.POLAR>
0

>  <SCORE.INTRA.POLAR.0>
0

>  <SCORE.INTRA.REPUL>
0

>  <SCORE.INTRA.REPUL.0>
0

>  <SCORE.INTRA.SOLV>
0

>  <SCORE.INTRA.SOLV.lig_0>
-48.3454

>  <SCORE.INTRA.VDW>
0

>  <SCORE.INTRA.VDW.0>
0

>  <SCORE.INTRA.norm>
0

>  <SCORE.RESTR>
0

>  <SCORE.RESTR.CAVITY>
0

>  <SCORE.RESTR.norm>
0

>  <SCORE.SYSTEM>
0

>  <SCORE.SYSTEM.CONST>
0

>  <SCORE.SYSTEM.DIHEDRAL>
0

>  <SCORE.SYSTEM.SOLV>
0

>  <SCORE.SYSTEM.norm>
0

>  <SCORE.heavy>
11

>  <SCORE.norm>
-1.0466

>  <RMSD>
0.598

$$$$
ligand
 OpenBabel02271912153D
libRbt.so/2013.1/901 2013/11/27
 11 12  0  0  0  0  0  0  0  0999 V2000
  -11.8456  -12.7808    8.8736 N   0  0  0  0  0  0  0  0  0  0  0  0
  -11.5176  -14.0798    8.9620 C   0  0  0  0  0  0  0  0  0  0  0  0
  -11.5546  -14.6915   10.1424 N   0  0  0  0  0  0  0  0  0  0  0  0
  -11.1425  -14.7648    7.8706 N   0  0  0  0  0  0  0  0  0  0  0  0
  -11.0849  -14.1652    6.6722 C   0  0  0  0  0  0  0  0  0  0  0  0
  -11.4189  -12.8222    6.5529 C   0  0  0  0  0  0  0  0  0  0  0  0
  -11.8071  -12.1342    7.6978 C   0  0  0  0  0  0  0  0  0  0  0  0
  -12.1445  -10.8500    7.6275 N   0  0  0  0  0  0  0  0  0  0  0  0
  -11.2628  -12.4828    5.2768 N   0  0  0  0  0  0  0  0  0  0  0  0
  -10.8480  -13.5615    4.6163 C   0  0  0  0  0  0  0  0  0  0  0  0
  -10.7387  -14.5863    5.4591 N   0  0  0  0  0  0  0  0  0  0  0  0
  1  7  2  0  0  0  0
  1  2  1  0  0  0  0
  2  3  1  0  0  0  0
  2  4  2  0  0  0  0
  4  5  1  0  0  0  0
  5  6  2  0  0  0  0
  5 11  1  0  0  0  0
  6  7  1  0  0  0  0
  6  9  1  0  0  0  0
  7  8  1  0  0  0  0
  9 10  1  0  0  0  0
 10 11  2  0  0  0  0
M  END
>  <CHROM.1>
-11.40111288,-13.35652428,7.27434743,2.05195373,-1.25628919,2.16858612

>  <Name>
ligand

>  <RI>
0

>  <Rbt.Current_Directory>
/home/itssahil/PROJECTS/Mol_Feturizer/Test_systems_manuscript/rnas/2b57

>  <Rbt.Executable>
rbdock ($Id: //depot/dev/client3/rdock/2013.1/src/exe/rbdock.cxx#4 $)

>  <Rbt.Library>
libRbt.so (2013.1, Build901 2013/11/27)

>  <Rbt.Parameter_File>
/export/apps/rDock/src/rDock_2013.1_src/data/scripts/dock_solv.prm

>  <Rbt.Receptor>
prm/pocket_docking_4.prm

>  <SCORE>
-11.5451

>  <SCORE.INTER>
-11.5451

>  <SCORE.INTER.CONST>
1

>  <SCORE.INTER.POLAR>
0

>  <SCORE.INTER.ROT>
0

>  <SCORE.INTER.SOLV>
21.6866

>  <SCORE.INTER.VDW>
-18.5256

>  <SCORE.INTER.norm>
-1.04955

>  <SCORE.INTRA>
0

>  <SCORE.INTRA.DIHEDRAL>
0

>  <SCORE.INTRA.DIHEDRAL.0>
0

>  <SCORE.INTRA.POLAR>
0

>  <SCORE.INTRA.POLAR.0>
0

>  <SCORE.INTRA.REPUL>
0

>  <SCORE.INTRA.REPUL.0>
0

>  <SCORE.INTRA.SOLV>
0

>  <SCORE.INTRA.SOLV.lig_0>
-48.3454

>  <SCORE.INTRA.VDW>
0

>  <SCORE.INTRA.VDW.0>
0

>  <SCORE.INTRA.norm>
0

>  <SCORE.RESTR>
0

>  <SCORE.RESTR.CAVITY>
0

>  <SCORE.RESTR.norm>
0

>  <SCORE.SYSTEM>
0

>  <SCORE.SYSTEM.CONST>
0

>  <SCORE.SYSTEM.DIHEDRAL>
0

>  <SCORE.SYSTEM.SOLV>
0

>  <SCORE.SYSTEM.norm>
0

>  <SCORE.heavy>
11

>  <SCORE.norm>
-1.04955

>  <RMSD>
0.598

$$$$
ligand
 OpenBabel02271912153D
libRbt.so/2013.1/901 2013/11/27
 11 12  0  0  0  0  0  0  0  0999 V2000
  -11.8761  -12.7808    8.8640 N   0  0  0  0  0  0  0  0  0  0  0  0
  -11.5371  -14.0770    8.9525 C   0  0  0  0  0  0  0  0  0  0  0  0
  -11.5708  -14.6893   10.1327 N   0  0  0  0  0  0  0  0  0  0  0  0
  -11.1541  -14.7584    7.8616 N   0  0  0  0  0  0  0  0  0  0  0  0
  -11.0996  -14.1580    6.6635 C   0  0  0  0  0  0  0  0  0  0  0  0
  -11.4450  -12.8178    6.5440 C   0  0  0  0  0  0  0  0  0  0  0  0
  -11.8411  -12.1336    7.6885 C   0  0  0  0  0  0  0  0  0  0  0  0
  -12.1894  -10.8522    7.6180 N   0  0  0  0  0  0  0  0  0  0  0  0
  -11.2896  -12.4767    5.2683 N   0  0  0  0  0  0  0  0  0  0  0  0
  -10.8644  -13.5516    4.6082 C   0  0  0  0  0  0  0  0  0  0  0  0
  -10.7477  -14.5756    5.4509 N   0  0  0  0  0  0  0  0  0  0  0  0
  1  7  2  0  0  0  0
  1  2  1  0  0  0  0
  2  3  1  0  0  0  0
  2  4  2  0  0  0  0
  4  5  1  0  0  0  0
  5  6  2  0  0  0  0
  5 11  1  0  0  0  0
  6  7  1  0  0  0  0
  6  9  1  0  0  0  0
  7  8  1  0  0  0  0
  9 10  1  0  0  0  0
 10 11  2  0  0  0  0
M  END
>  <CHROM.1>
-11.42383215,-13.35219849,7.26533502,2.04119479,-1.24818440,2.15867282

>  <Name>
ligand

>  <RI>
0

>  <Rbt.Current_Directory>
/home/itssahil/PROJECTS/Mol_Feturizer/Test_systems_manuscript/rnas/2b57

>  <Rbt.Executable>
rbdock ($Id: //depot/dev/client3/rdock/2013.1/src/exe/rbdock.cxx#4 $)

>  <Rbt.Library>
libRbt.so (2013.1, Build901 2013/11/27)

>  <Rbt.Parameter_File>
/export/apps/rDock/src/rDock_2013.1_src/data/scripts/dock_solv.prm

>  <Rbt.Receptor>
prm/pocket_docking_5.prm

>  <SCORE>
-11.5264

>  <SCORE.INTER>
-11.5264

>  <SCORE.INTER.CONST>
1

>  <SCORE.INTER.POLAR>
0

>  <SCORE.INTER.ROT>
0

>  <SCORE.INTER.SOLV>
21.5311

>  <SCORE.INTER.VDW>
-18.4613

>  <SCORE.INTER.norm>
-1.04785

>  <SCORE.INTRA>
0

>  <SCORE.INTRA.DIHEDRAL>
0

>  <SCORE.INTRA.DIHEDRAL.0>
0

>  <SCORE.INTRA.POLAR>
0

>  <SCORE.INTRA.POLAR.0>
0

>  <SCORE.INTRA.REPUL>
0

>  <SCORE.INTRA.REPUL.0>
0

>  <SCORE.INTRA.SOLV>
0

>  <SCORE.INTRA.SOLV.lig_0>
-48.3454

>  <SCORE.INTRA.VDW>
0

>  <SCORE.INTRA.VDW.0>
0

>  <SCORE.INTRA.norm>
0

>  <SCORE.RESTR>
0

>  <SCORE.RESTR.CAVITY>
0

>  <SCORE.RESTR.norm>
0

>  <SCORE.SYSTEM>
0

>  <SCORE.SYSTEM.CONST>
0

>  <SCORE.SYSTEM.DIHEDRAL>
0

>  <SCORE.SYSTEM.SOLV>
0

>  <SCORE.SYSTEM.norm>
0

>  <SCORE.heavy>
11

>  <SCORE.norm>
-1.04785

>  <RMSD>
0.598

$$$$
ligand
 OpenBabel02271912153D
libRbt.so/2013.1/901 2013/11/27
 11 12  0  0  0  0  0  0  0  0999 V2000
  -11.8519  -12.7693    8.8654 N   0  0  0  0  0  0  0  0  0  0  0  0
  -11.5026  -14.0623    8.9592 C   0  0  0  0  0  0  0  0  0  0  0  0
  -11.5250  -14.6683   10.1429 N   0  0  0  0  0  0  0  0  0  0  0  0
  -11.1208  -14.7469    7.8699 N   0  0  0  0  0  0  0  0  0  0  0  0
  -11.0777  -14.1528    6.6682 C   0  0  0  0  0  0  0  0  0  0  0  0
  -11.4338  -12.8159    6.5433 C   0  0  0  0  0  0  0  0  0  0  0  0
  -11.8285  -12.1283    7.6862 C   0  0  0  0  0  0  0  0  0  0  0  0
  -12.1870  -10.8501    7.6105 N   0  0  0  0  0  0  0  0  0  0  0  0
  -11.2883  -12.4808    5.2648 N   0  0  0  0  0  0  0  0  0  0  0  0
  -10.8587  -13.5561    4.6082 C   0  0  0  0  0  0  0  0  0  0  0  0
  -10.7295  -14.5746    5.4559 N   0  0  0  0  0  0  0  0  0  0  0  0
  1  7  2  0  0  0  0
  1  2  1  0  0  0  0
  2  3  1  0  0  0  0
  2  4  2  0  0  0  0
  4  5  1  0  0  0  0
  5  6  2  0  0  0  0
  5 11  1  0  0  0  0
  6  7  1  0  0  0  0
  6  9  1  0  0  0  0
  7  8  1  0  0  0  0
  9 10  1  0  0  0  0
 10 11  2  0  0  0  0
M  END
>  <CHROM.1>
-11.40450393,-13.34613754,7.26738244,2.01326302,-1.24493000,2.12662828

>  <Name>
ligand

>  <RI>
0

>  <Rbt.Current_Directory>
/home/itssahil/PROJECTS/Mol_Feturizer/Test_systems_manuscript/rnas/2b57

>  <Rbt.Executable>
rbdock ($Id: //depot/dev/client3/rdock/2013.1/src/exe/rbdock.cxx#4 $)

>  <Rbt.Library>
libRbt.so (2013.1, Build901 2013/11/27)

>  <Rbt.Parameter_File>
/export/apps/rDock/src/rDock_2013.1_src/data/scripts/dock_solv.prm

>  <Rbt.Receptor>
prm/pocket_docking_5.prm

>  <SCORE>
-11.5852

>  <SCORE.INTER>
-11.5852

>  <SCORE.INTER.CONST>
1

>  <SCORE.INTER.POLAR>
0

>  <SCORE.INTER.ROT>
0

>  <SCORE.INTER.SOLV>
21.495

>  <SCORE.INTER.VDW>
-18.4885

>  <SCORE.INTER.norm>
-1.0532

>  <SCORE.INTRA>
0

>  <SCORE.INTRA.DIHEDRAL>
0

>  <SCORE.INTRA.DIHEDRAL.0>
0

>  <SCORE.INTRA.POLAR>
0

>  <SCORE.INTRA.POLAR.0>
0

>  <SCORE.INTRA.REPUL>
0

>  <SCORE.INTRA.REPUL.0>
0

>  <SCORE.INTRA.SOLV>
0

>  <SCORE.INTRA.SOLV.lig_0>
-48.3454

>  <SCORE.INTRA.VDW>
0

>  <SCORE.INTRA.VDW.0>
0

>  <SCORE.INTRA.norm>
0

>  <SCORE.RESTR>
0

>  <SCORE.RESTR.CAVITY>
0

>  <SCORE.RESTR.norm>
0

>  <SCORE.SYSTEM>
0

>  <SCORE.SYSTEM.CONST>
0

>  <SCORE.SYSTEM.DIHEDRAL>
0

>  <SCORE.SYSTEM.SOLV>
0

>  <SCORE.SYSTEM.norm>
0

>  <SCORE.heavy>
11

>  <SCORE.norm>
-1.0532

>  <RMSD>
0.598

$$$$
ligand
 OpenBabel02271912153D
libRbt.so/2013.1/901 2013/11/27
 11 12  0  0  0  0  0  0  0  0999 V2000
  -11.8426  -12.7649    8.8693 N   0  0  0  0  0  0  0  0  0  0  0  0
  -11.4937  -14.0583    8.9590 C   0  0  0  0  0  0  0  0  0  0  0  0
  -11.5056  -14.6650   10.1426 N   0  0  0  0  0  0  0  0  0  0  0  0
  -11.1228  -14.7427    7.8658 N   0  0  0  0  0  0  0  0  0  0  0  0
  -11.0903  -14.1480    6.6641 C   0  0  0  0  0  0  0  0  0  0  0  0
  -11.4463  -12.8107    6.5433 C   0  0  0  0  0  0  0  0  0  0  0  0
  -11.8296  -12.1233    7.6902 C   0  0  0  0  0  0  0  0  0  0  0  0
  -12.1875  -10.8447    7.6186 N   0  0  0  0  0  0  0  0  0  0  0  0
  -11.3124  -12.4749    5.2637 N   0  0  0  0  0  0  0  0  0  0  0  0
  -10.8900  -13.5503    4.6025 C   0  0  0  0  0  0  0  0  0  0  0  0
  -10.7539  -14.5694    5.4484 N   0  0  0  0  0  0  0  0  0  0  0  0
  1  7  2  0  0  0  0
  1  2  1  0  0  0  0
  2  3  1  0  0  0  0
  2  4  2  0  0  0  0
  4  5  1  0  0  0  0
  5  6  2  0  0  0  0
  5 11  1  0  0  0  0
  6  7  1  0  0  0  0
  6  9  1  0  0  0  0
  7  8  1  0  0  0  0
  9 10  1  0  0  0  0
 10 11  2  0  0  0  0
M  END
>  <CHROM.1>
-11.41073744,-13.34131548,7.26678767,1.98966744,-1.25061758,2.10481458

>  <Name>
ligand

>  <RI>
0

>  <Rbt.Current_Directory>
/home/itssahil/PROJECTS/Mol_Feturizer/Test_systems_manuscript/rnas/2b57

>  <Rbt.Executable>
rbdock ($Id: //depot/dev/client3/rdock/2013.1/src/exe/rbdock.cxx#4 $)

>  <Rbt.Library>
libRbt.so (2013.1, Build901 2013/11/27)

>  <Rbt.Parameter_File>
/export/apps/rDock/src/rDock_2013.1_src/data/scripts/dock_solv.prm

>  <Rbt.Receptor>
prm/pocket_docking_5.prm

>  <SCORE>
-11.5305

>  <SCORE.INTER>
-11.5305

>  <SCORE.INTER.CONST>
1

>  <SCORE.INTER.POLAR>
0

>  <SCORE.INTER.ROT>
0

>  <SCORE.INTER.SOLV>
21.5126

>  <SCORE.INTER.VDW>
-18.4579

>  <SCORE.INTER.norm>
-1.04823

>  <SCORE.INTRA>
0

>  <SCORE.INTRA.DIHEDRAL>
0

>  <SCORE.INTRA.DIHEDRAL.0>
0

>  <SCORE.INTRA.POLAR>
0

>  <SCORE.INTRA.POLAR.0>
0

>  <SCORE.INTRA.REPUL>
0

>  <SCORE.INTRA.REPUL.0>
0

>  <SCORE.INTRA.SOLV>
0

>  <SCORE.INTRA.SOLV.lig_0>
-48.3454

>  <SCORE.INTRA.VDW>
0

>  <SCORE.INTRA.VDW.0>
0

>  <SCORE.INTRA.norm>
0

>  <SCORE.RESTR>
0

>  <SCORE.RESTR.CAVITY>
0

>  <SCORE.RESTR.norm>
0

>  <SCORE.SYSTEM>
0

>  <SCORE.SYSTEM.CONST>
0

>  <SCORE.SYSTEM.DIHEDRAL>
0

>  <SCORE.SYSTEM.SOLV>
0

>  <SCORE.SYSTEM.norm>
0

>  <SCORE.heavy>
11

>  <SCORE.norm>
-1.04823

>  <RMSD>
0.598

$$$$
ligand
 OpenBabel02271912153D
libRbt.so/2013.1/901 2013/11/27
 11 12  0  0  0  0  0  0  0  0999 V2000
  -11.8442  -12.7659    8.8676 N   0  0  0  0  0  0  0  0  0  0  0  0
  -11.4925  -14.0582    8.9624 C   0  0  0  0  0  0  0  0  0  0  0  0
  -11.5090  -14.6620   10.1473 N   0  0  0  0  0  0  0  0  0  0  0  0
  -11.1140  -14.7443    7.8728 N   0  0  0  0  0  0  0  0  0  0  0  0
  -11.0768  -14.1525    6.6698 C   0  0  0  0  0  0  0  0  0  0  0  0
  -11.4355  -12.8164    6.5438 C   0  0  0  0  0  0  0  0  0  0  0  0
  -11.8266  -12.1272    7.6870 C   0  0  0  0  0  0  0  0  0  0  0  0
  -12.1873  -10.8497    7.6104 N   0  0  0  0  0  0  0  0  0  0  0  0
  -11.2957  -12.4835    5.2641 N   0  0  0  0  0  0  0  0  0  0  0  0
  -10.8672  -13.5594    4.6078 C   0  0  0  0  0  0  0  0  0  0  0  0
  -10.7330  -14.5760    5.4569 N   0  0  0  0  0  0  0  0  0  0  0  0
  1  7  2  0  0  0  0
  1  2  1  0  0  0  0
  2  3  1  0  0  0  0
  2  4  2  0  0  0  0
  4  5  1  0  0  0  0
  5  6  2  0  0  0  0
  5 11  1  0  0  0  0
  6  7  1  0  0  0  0
  6  9  1  0  0  0  0
  7  8  1  0  0  0  0
  9 10  1  0  0  0  0
 10 11  2  0  0  0  0
M  END
>  <CHROM.1>
-11.40241841,-13.34517292,7.26879953,1.99977714,-1.24575879,2.11194494

>  <Name>
ligand

>  <RI>
0

>  <Rbt.Current_Directory>
/home/itssahil/PROJECTS/Mol_Feturizer/Test_systems_manuscript/rnas/2b57

>  <Rbt.Executable>
rbdock ($Id: //depot/dev/client3/rdock/2013.1/src/exe/rbdock.cxx#4 $)

>  <Rbt.Library>
libRbt.so (2013.1, Build901 2013/11/27)

>  <Rbt.Parameter_File>
/export/apps/rDock/src/rDock_2013.1_src/data/scripts/dock_solv.prm

>  <Rbt.Receptor>
prm/pocket_docking_5.prm

>  <SCORE>
-11.5735

>  <SCORE.INTER>
-11.5735

>  <SCORE.INTER.CONST>
1

>  <SCORE.INTER.POLAR>
0

>  <SCORE.INTER.ROT>
0

>  <SCORE.INTER.SOLV>
21.4912

>  <SCORE.INTER.VDW>
-18.4794

>  <SCORE.INTER.norm>
-1.05214

>  <SCORE.INTRA>
0

>  <SCORE.INTRA.DIHEDRAL>
0

>  <SCORE.INTRA.DIHEDRAL.0>
0

>  <SCORE.INTRA.POLAR>
0

>  <SCORE.INTRA.POLAR.0>
0

>  <SCORE.INTRA.REPUL>
0

>  <SCORE.INTRA.REPUL.0>
0

>  <SCORE.INTRA.SOLV>
0

>  <SCORE.INTRA.SOLV.lig_0>
-48.3454

>  <SCORE.INTRA.VDW>
0

>  <SCORE.INTRA.VDW.0>
0

>  <SCORE.INTRA.norm>
0

>  <SCORE.RESTR>
0

>  <SCORE.RESTR.CAVITY>
0

>  <SCORE.RESTR.norm>
0

>  <SCORE.SYSTEM>
0

>  <SCORE.SYSTEM.CONST>
0

>  <SCORE.SYSTEM.DIHEDRAL>
0

>  <SCORE.SYSTEM.SOLV>
0

>  <SCORE.SYSTEM.norm>
0

>  <SCORE.heavy>
11

>  <SCORE.norm>
-1.05214

>  <RMSD>
0.598

$$$$
ligand
 OpenBabel02271912153D
libRbt.so/2013.1/901 2013/11/27
 11 12  0  0  0  0  0  0  0  0999 V2000
  -11.8402  -12.6972    8.8489 N   0  0  0  0  0  0  0  0  0  0  0  0
  -11.4956  -13.9903    8.9583 C   0  0  0  0  0  0  0  0  0  0  0  0
  -11.5100  -14.5790   10.1509 N   0  0  0  0  0  0  0  0  0  0  0  0
  -11.1265  -14.6923    7.8757 N   0  0  0  0  0  0  0  0  0  0  0  0
  -11.0917  -14.1159    6.6651 C   0  0  0  0  0  0  0  0  0  0  0  0
  -11.4431  -12.7794    6.5240 C   0  0  0  0  0  0  0  0  0  0  0  0
  -11.8246  -12.0735    7.6603 C   0  0  0  0  0  0  0  0  0  0  0  0
  -12.1781  -10.7949    7.5693 N   0  0  0  0  0  0  0  0  0  0  0  0
  -11.3076  -12.4634    5.2396 N   0  0  0  0  0  0  0  0  0  0  0  0
  -10.8886  -13.5501    4.5949 C   0  0  0  0  0  0  0  0  0  0  0  0
  -10.7563  -14.5567    5.4561 N   0  0  0  0  0  0  0  0  0  0  0  0
  1  7  2  0  0  0  0
  1  2  1  0  0  0  0
  2  3  1  0  0  0  0
  2  4  2  0  0  0  0
  4  5  1  0  0  0  0
  5  6  2  0  0  0  0
  5 11  1  0  0  0  0
  6  7  1  0  0  0  0
  6  9  1  0  0  0  0
  7  8  1  0  0  0  0
  9 10  1  0  0  0  0
 10 11  2  0  0  0  0
M  END
>  <CHROM.1>
-11.40960920,-13.29916486,7.25546608,1.99613937,-1.25331349,2.09587734

>  <Name>
ligand

>  <RI>
0

>  <Rbt.Current_Directory>
/home/itssahil/PROJECTS/Mol_Feturizer/Test_systems_manuscript/rnas/2b57

>  <Rbt.Executable>
rbdock ($Id: //depot/dev/client3/rdock/2013.1/src/exe/rbdock.cxx#4 $)

>  <Rbt.Library>
libRbt.so (2013.1, Build901 2013/11/27)

>  <Rbt.Parameter_File>
/export/apps/rDock/src/rDock_2013.1_src/data/scripts/dock_solv.prm

>  <Rbt.Receptor>
prm/blind_docking_40.prm

>  <SCORE>
-11.4594

>  <SCORE.INTER>
-11.4594

>  <SCORE.INTER.CONST>
1

>  <SCORE.INTER.POLAR>
0

>  <SCORE.INTER.ROT>
0

>  <SCORE.INTER.SOLV>
21.4688

>  <SCORE.INTER.VDW>
-18.3959

>  <SCORE.INTER.norm>
-1.04177

>  <SCORE.INTRA>
0

>  <SCORE.INTRA.DIHEDRAL>
0

>  <SCORE.INTRA.DIHEDRAL.0>
0

>  <SCORE.INTRA.POLAR>
0

>  <SCORE.INTRA.POLAR.0>
0

>  <SCORE.INTRA.REPUL>
0

>  <SCORE.INTRA.REPUL.0>
0

>  <SCORE.INTRA.SOLV>
0

>  <SCORE.INTRA.SOLV.lig_0>
-48.3454

>  <SCORE.INTRA.VDW>
0

>  <SCORE.INTRA.VDW.0>
0

>  <SCORE.INTRA.norm>
0

>  <SCORE.RESTR>
0

>  <SCORE.RESTR.CAVITY>
0

>  <SCORE.RESTR.norm>
0

>  <SCORE.SYSTEM>
0

>  <SCORE.SYSTEM.CONST>
0

>  <SCORE.SYSTEM.DIHEDRAL>
0

>  <SCORE.SYSTEM.SOLV>
0

>  <SCORE.SYSTEM.norm>
0

>  <SCORE.heavy>
11

>  <SCORE.norm>
-1.04177

>  <RMSD>
0.599

$$$$
ligand
 OpenBabel02271912153D
libRbt.so/2013.1/901 2013/11/27
 11 12  0  0  0  0  0  0  0  0999 V2000
  -11.8337  -12.7608    8.8710 N   0  0  0  0  0  0  0  0  0  0  0  0
  -11.4992  -14.0582    8.9582 C   0  0  0  0  0  0  0  0  0  0  0  0
  -11.5207  -14.6678   10.1401 N   0  0  0  0  0  0  0  0  0  0  0  0
  -11.1328  -14.7436    7.8641 N   0  0  0  0  0  0  0  0  0  0  0  0
  -11.0908  -14.1461    6.6641 C   0  0  0  0  0  0  0  0  0  0  0  0
  -11.4319  -12.8047    6.5459 C   0  0  0  0  0  0  0  0  0  0  0  0
  -11.8107  -12.1163    7.6937 C   0  0  0  0  0  0  0  0  0  0  0  0
  -12.1544  -10.8336    7.6246 N   0  0  0  0  0  0  0  0  0  0  0  0
  -11.2910  -12.4671    5.2676 N   0  0  0  0  0  0  0  0  0  0  0  0
  -10.8786  -13.5453    4.6047 C   0  0  0  0  0  0  0  0  0  0  0  0
  -10.7558  -14.5680    5.4481 N   0  0  0  0  0  0  0  0  0  0  0  0
  1  7  2  0  0  0  0
  1  2  1  0  0  0  0
  2  3  1  0  0  0  0
  2  4  2  0  0  0  0
  4  5  1  0  0  0  0
  5  6  2  0  0  0  0
  5 11  1  0  0  0  0
  6  7  1  0  0  0  0
  6  9  1  0  0  0  0
  7  8  1  0  0  0  0
  9 10  1  0  0  0  0
 10 11  2  0  0  0  0
M  END
>  <CHROM.1>
-11.40397868,-13.33763411,7.26812277,2.01497499,-1.25856193,2.13152526

>  <Name>
ligand

>  <RI>
0

>  <Rbt.Current_Directory>
/home/itssahil/PROJECTS/Mol_Feturizer/Test_systems_manuscript/rnas/2b57

>  <Rbt.Executable>
rbdock ($Id: //depot/dev/client3/rdock/2013.1/src/exe/rbdock.cxx#4 $)

>  <Rbt.Library>
libRbt.so (2013.1, Build901 2013/11/27)

>  <Rbt.Parameter_File>
/export/apps/rDock/src/rDock_2013.1_src/data/scripts/dock_solv.prm

>  <Rbt.Receptor>
prm/blind_docking_80.prm

>  <SCORE>
-11.5401

>  <SCORE.INTER>
-11.5401

>  <SCORE.INTER.CONST>
1

>  <SCORE.INTER.POLAR>
0

>  <SCORE.INTER.ROT>
0

>  <SCORE.INTER.SOLV>
21.6371

>  <SCORE.INTER.VDW>
-18.5058

>  <SCORE.INTER.norm>
-1.0491

>  <SCORE.INTRA>
0

>  <SCORE.INTRA.DIHEDRAL>
0

>  <SCORE.INTRA.DIHEDRAL.0>
0

>  <SCORE.INTRA.POLAR>
0

>  <SCORE.INTRA.POLAR.0>
0

>  <SCORE.INTRA.REPUL>
0

>  <SCORE.INTRA.REPUL.0>
0

>  <SCORE.INTRA.SOLV>
0

>  <SCORE.INTRA.SOLV.lig_0>
-48.3454

>  <SCORE.INTRA.VDW>
0

>  <SCORE.INTRA.VDW.0>
0

>  <SCORE.INTRA.norm>
0

>  <SCORE.RESTR>
0

>  <SCORE.RESTR.CAVITY>
0

>  <SCORE.RESTR.norm>
0

>  <SCORE.SYSTEM>
0

>  <SCORE.SYSTEM.CONST>
0

>  <SCORE.SYSTEM.DIHEDRAL>
0

>  <SCORE.SYSTEM.SOLV>
0

>  <SCORE.SYSTEM.norm>
0

>  <SCORE.heavy>
11

>  <SCORE.norm>
-1.0491

>  <RMSD>
0.599

$$$$
ligand
 OpenBabel02271912153D
libRbt.so/2013.1/901 2013/11/27
 11 12  0  0  0  0  0  0  0  0999 V2000
  -11.8459  -12.7800    8.8720 N   0  0  0  0  0  0  0  0  0  0  0  0
  -11.5196  -14.0791    8.9638 C   0  0  0  0  0  0  0  0  0  0  0  0
  -11.5568  -14.6875   10.1459 N   0  0  0  0  0  0  0  0  0  0  0  0
  -11.1459  -14.7676    7.8741 N   0  0  0  0  0  0  0  0  0  0  0  0
  -11.0881  -14.1715    6.6741 C   0  0  0  0  0  0  0  0  0  0  0  0
  -11.4204  -12.8283    6.5513 C   0  0  0  0  0  0  0  0  0  0  0  0
  -11.8071  -12.1367    7.6945 C   0  0  0  0  0  0  0  0  0  0  0  0
  -12.1428  -10.8522    7.6208 N   0  0  0  0  0  0  0  0  0  0  0  0
  -11.2644  -12.4926    5.2742 N   0  0  0  0  0  0  0  0  0  0  0  0
  -10.8513  -13.5737    4.6164 C   0  0  0  0  0  0  0  0  0  0  0  0
  -10.7430  -14.5963    5.4620 N   0  0  0  0  0  0  0  0  0  0  0  0
  1  7  2  0  0  0  0
  1  2  1  0  0  0  0
  2  3  1  0  0  0  0
  2  4  2  0  0  0  0
  4  5  1  0  0  0  0
  5  6  2  0  0  0  0
  5 11  1  0  0  0  0
  6  7  1  0  0  0  0
  6  9  1  0  0  0  0
  7  8  1  0  0  0  0
  9 10  1  0  0  0  0
 10 11  2  0  0  0  0
M  END
>  <CHROM.1>
-11.40292609,-13.36067637,7.27414759,2.05309775,-1.25766088,2.16692536

>  <Name>
ligand

>  <RI>
0

>  <Rbt.Current_Directory>
/home/itssahil/PROJECTS/Mol_Feturizer/Test_systems_manuscript/rnas/2b57

>  <Rbt.Executable>
rbdock ($Id: //depot/dev/client3/rdock/2013.1/src/exe/rbdock.cxx#4 $)

>  <Rbt.Library>
libRbt.so (2013.1, Build901 2013/11/27)

>  <Rbt.Parameter_File>
/export/apps/rDock/src/rDock_2013.1_src/data/scripts/dock_solv.prm

>  <Rbt.Receptor>
prm/pocket_docking_3.prm

>  <SCORE>
-11.5407

>  <SCORE.INTER>
-11.5407

>  <SCORE.INTER.CONST>
1

>  <SCORE.INTER.POLAR>
0

>  <SCORE.INTER.ROT>
0

>  <SCORE.INTER.SOLV>
21.6852

>  <SCORE.INTER.VDW>
-18.5222

>  <SCORE.INTER.norm>
-1.04915

>  <SCORE.INTRA>
0

>  <SCORE.INTRA.DIHEDRAL>
0

>  <SCORE.INTRA.DIHEDRAL.0>
0

>  <SCORE.INTRA.POLAR>
0

>  <SCORE.INTRA.POLAR.0>
0

>  <SCORE.INTRA.REPUL>
0

>  <SCORE.INTRA.REPUL.0>
0

>  <SCORE.INTRA.SOLV>
0

>  <SCORE.INTRA.SOLV.lig_0>
-48.3454

>  <SCORE.INTRA.VDW>
0

>  <SCORE.INTRA.VDW.0>
0

>  <SCORE.INTRA.norm>
0

>  <SCORE.RESTR>
0

>  <SCORE.RESTR.CAVITY>
0

>  <SCORE.RESTR.norm>
0

>  <SCORE.SYSTEM>
0

>  <SCORE.SYSTEM.CONST>
0

>  <SCORE.SYSTEM.DIHEDRAL>
0

>  <SCORE.SYSTEM.SOLV>
0

>  <SCORE.SYSTEM.norm>
0

>  <SCORE.heavy>
11

>  <SCORE.norm>
-1.04915

>  <RMSD>
0.599

$$$$
ligand
 OpenBabel02271912153D
libRbt.so/2013.1/901 2013/11/27
 11 12  0  0  0  0  0  0  0  0999 V2000
  -11.8676  -12.7881    8.8699 N   0  0  0  0  0  0  0  0  0  0  0  0
  -11.5175  -14.0818    8.9512 C   0  0  0  0  0  0  0  0  0  0  0  0
  -11.5338  -14.6976   10.1299 N   0  0  0  0  0  0  0  0  0  0  0  0
  -11.1410  -14.7572    7.8543 N   0  0  0  0  0  0  0  0  0  0  0  0
  -11.1040  -14.1531    6.6573 C   0  0  0  0  0  0  0  0  0  0  0  0
  -11.4612  -12.8154    6.5454 C   0  0  0  0  0  0  0  0  0  0  0  0
  -11.8503  -12.1374    7.6959 C   0  0  0  0  0  0  0  0  0  0  0  0
  -12.2094  -10.8587    7.6327 N   0  0  0  0  0  0  0  0  0  0  0  0
  -11.3221  -12.4695    5.2690 N   0  0  0  0  0  0  0  0  0  0  0  0
  -10.8955  -13.5393    4.6014 C   0  0  0  0  0  0  0  0  0  0  0  0
  -10.7619  -14.5647    5.4399 N   0  0  0  0  0  0  0  0  0  0  0  0
  1  7  2  0  0  0  0
  1  2  1  0  0  0  0
  2  3  1  0  0  0  0
  2  4  2  0  0  0  0
  4  5  1  0  0  0  0
  5  6  2  0  0  0  0
  5 11  1  0  0  0  0
  6  7  1  0  0  0  0
  6  9  1  0  0  0  0
  7  8  1  0  0  0  0
  9 10  1  0  0  0  0
 10 11  2  0  0  0  0
M  END
>  <CHROM.1>
-11.42805811,-13.35155340,7.26488947,1.99945567,-1.24734378,2.12186288

>  <Name>
ligand

>  <RI>
0

>  <Rbt.Current_Directory>
/home/itssahil/PROJECTS/Mol_Feturizer/Test_systems_manuscript/rnas/2b57

>  <Rbt.Executable>
rbdock ($Id: //depot/dev/client3/rdock/2013.1/src/exe/rbdock.cxx#4 $)

>  <Rbt.Library>
libRbt.so (2013.1, Build901 2013/11/27)

>  <Rbt.Parameter_File>
/export/apps/rDock/src/rDock_2013.1_src/data/scripts/dock_solv.prm

>  <Rbt.Receptor>
prm/pocket_docking_4.prm

>  <SCORE>
-11.556

>  <SCORE.INTER>
-11.556

>  <SCORE.INTER.CONST>
1

>  <SCORE.INTER.POLAR>
0

>  <SCORE.INTER.ROT>
0

>  <SCORE.INTER.SOLV>
21.4845

>  <SCORE.INTER.VDW>
-18.4655

>  <SCORE.INTER.norm>
-1.05054

>  <SCORE.INTRA>
0

>  <SCORE.INTRA.DIHEDRAL>
0

>  <SCORE.INTRA.DIHEDRAL.0>
0

>  <SCORE.INTRA.POLAR>
0

>  <SCORE.INTRA.POLAR.0>
0

>  <SCORE.INTRA.REPUL>
0

>  <SCORE.INTRA.REPUL.0>
0

>  <SCORE.INTRA.SOLV>
0

>  <SCORE.INTRA.SOLV.lig_0>
-48.3454

>  <SCORE.INTRA.VDW>
0

>  <SCORE.INTRA.VDW.0>
0

>  <SCORE.INTRA.norm>
0

>  <SCORE.RESTR>
0

>  <SCORE.RESTR.CAVITY>
0

>  <SCORE.RESTR.norm>
0

>  <SCORE.SYSTEM>
0

>  <SCORE.SYSTEM.CONST>
0

>  <SCORE.SYSTEM.DIHEDRAL>
0

>  <SCORE.SYSTEM.SOLV>
0

>  <SCORE.SYSTEM.norm>
0

>  <SCORE.heavy>
11

>  <SCORE.norm>
-1.05054

>  <RMSD>
0.599

$$$$
ligand
 OpenBabel02271912153D
libRbt.so/2013.1/901 2013/11/27
 11 12  0  0  0  0  0  0  0  0999 V2000
  -11.8592  -12.7729    8.8661 N   0  0  0  0  0  0  0  0  0  0  0  0
  -11.5101  -14.0664    8.9530 C   0  0  0  0  0  0  0  0  0  0  0  0
  -11.5276  -14.6773   10.1343 N   0  0  0  0  0  0  0  0  0  0  0  0
  -11.1332  -14.7467    7.8593 N   0  0  0  0  0  0  0  0  0  0  0  0
  -11.0949  -14.1476    6.6598 C   0  0  0  0  0  0  0  0  0  0  0  0
  -11.4510  -12.8101    6.5420 C   0  0  0  0  0  0  0  0  0  0  0  0
  -11.8405  -12.1271    7.6894 C   0  0  0  0  0  0  0  0  0  0  0  0
  -12.1987  -10.8484    7.6206 N   0  0  0  0  0  0  0  0  0  0  0  0
  -11.3108  -12.4697    5.2643 N   0  0  0  0  0  0  0  0  0  0  0  0
  -10.8845  -13.5425    4.6015 C   0  0  0  0  0  0  0  0  0  0  0  0
  -10.7522  -14.5645    5.4444 N   0  0  0  0  0  0  0  0  0  0  0  0
  1  7  2  0  0  0  0
  1  2  1  0  0  0  0
  2  3  1  0  0  0  0
  2  4  2  0  0  0  0
  4  5  1  0  0  0  0
  5  6  2  0  0  0  0
  5 11  1  0  0  0  0
  6  7  1  0  0  0  0
  6  9  1  0  0  0  0
  7  8  1  0  0  0  0
  9 10  1  0  0  0  0
 10 11  2  0  0  0  0
M  END
>  <CHROM.1>
-11.41885628,-13.34331405,7.26379359,2.00256436,-1.24755392,2.12062936

>  <Name>
ligand

>  <RI>
0

>  <Rbt.Current_Directory>
/home/itssahil/PROJECTS/Mol_Feturizer/Test_systems_manuscript/rnas/2b57

>  <Rbt.Executable>
rbdock ($Id: //depot/dev/client3/rdock/2013.1/src/exe/rbdock.cxx#4 $)

>  <Rbt.Library>
libRbt.so (2013.1, Build901 2013/11/27)

>  <Rbt.Parameter_File>
/export/apps/rDock/src/rDock_2013.1_src/data/scripts/dock_solv.prm

>  <Rbt.Receptor>
prm/pocket_docking_5.prm

>  <SCORE>
-11.5477

>  <SCORE.INTER>
-11.5477

>  <SCORE.INTER.CONST>
1

>  <SCORE.INTER.POLAR>
0

>  <SCORE.INTER.ROT>
0

>  <SCORE.INTER.SOLV>
21.4879

>  <SCORE.INTER.VDW>
-18.4611

>  <SCORE.INTER.norm>
-1.04979

>  <SCORE.INTRA>
0

>  <SCORE.INTRA.DIHEDRAL>
0

>  <SCORE.INTRA.DIHEDRAL.0>
0

>  <SCORE.INTRA.POLAR>
0

>  <SCORE.INTRA.POLAR.0>
0

>  <SCORE.INTRA.REPUL>
0

>  <SCORE.INTRA.REPUL.0>
0

>  <SCORE.INTRA.SOLV>
0

>  <SCORE.INTRA.SOLV.lig_0>
-48.3454

>  <SCORE.INTRA.VDW>
0

>  <SCORE.INTRA.VDW.0>
0

>  <SCORE.INTRA.norm>
0

>  <SCORE.RESTR>
0

>  <SCORE.RESTR.CAVITY>
0

>  <SCORE.RESTR.norm>
0

>  <SCORE.SYSTEM>
0

>  <SCORE.SYSTEM.CONST>
0

>  <SCORE.SYSTEM.DIHEDRAL>
0

>  <SCORE.SYSTEM.SOLV>
0

>  <SCORE.SYSTEM.norm>
0

>  <SCORE.heavy>
11

>  <SCORE.norm>
-1.04979

>  <RMSD>
0.599

$$$$
ligand
 OpenBabel02271912153D
libRbt.so/2013.1/901 2013/11/27
 11 12  0  0  0  0  0  0  0  0999 V2000
  -11.8649  -12.7754    8.8626 N   0  0  0  0  0  0  0  0  0  0  0  0
  -11.5190  -14.0694    8.9552 C   0  0  0  0  0  0  0  0  0  0  0  0
  -11.5516  -14.6788   10.1370 N   0  0  0  0  0  0  0  0  0  0  0  0
  -11.1304  -14.7516    7.8668 N   0  0  0  0  0  0  0  0  0  0  0  0
  -11.0770  -14.1541    6.6672 C   0  0  0  0  0  0  0  0  0  0  0  0
  -11.4294  -12.8161    6.5436 C   0  0  0  0  0  0  0  0  0  0  0  0
  -11.8313  -12.1310    7.6855 C   0  0  0  0  0  0  0  0  0  0  0  0
  -12.1864  -10.8518    7.6109 N   0  0  0  0  0  0  0  0  0  0  0  0
  -11.2735  -12.4775    5.2672 N   0  0  0  0  0  0  0  0  0  0  0  0
  -10.8412  -13.5519    4.6107 C   0  0  0  0  0  0  0  0  0  0  0  0
  -10.7206  -14.5731    5.4564 N   0  0  0  0  0  0  0  0  0  0  0  0
  1  7  2  0  0  0  0
  1  2  1  0  0  0  0
  2  3  1  0  0  0  0
  2  4  2  0  0  0  0
  4  5  1  0  0  0  0
  5  6  2  0  0  0  0
  5 11  1  0  0  0  0
  6  7  1  0  0  0  0
  6  9  1  0  0  0  0
  7  8  1  0  0  0  0
  9 10  1  0  0  0  0
 10 11  2  0  0  0  0
M  END
>  <CHROM.1>
-11.40664246,-13.34850480,7.26630901,2.03656483,-1.24264573,2.15163298

>  <Name>
ligand

>  <RI>
0

>  <Rbt.Current_Directory>
/home/itssahil/PROJECTS/Mol_Feturizer/Test_systems_manuscript/rnas/2b57

>  <Rbt.Executable>
rbdock ($Id: //depot/dev/client3/rdock/2013.1/src/exe/rbdock.cxx#4 $)

>  <Rbt.Library>
libRbt.so (2013.1, Build901 2013/11/27)

>  <Rbt.Parameter_File>
/export/apps/rDock/src/rDock_2013.1_src/data/scripts/dock_solv.prm

>  <Rbt.Receptor>
prm/pocket_docking_8.prm

>  <SCORE>
-11.515

>  <SCORE.INTER>
-11.515

>  <SCORE.INTER.CONST>
1

>  <SCORE.INTER.POLAR>
0

>  <SCORE.INTER.ROT>
0

>  <SCORE.INTER.SOLV>
21.5097

>  <SCORE.INTER.VDW>
-18.4466

>  <SCORE.INTER.norm>
-1.04682

>  <SCORE.INTRA>
0

>  <SCORE.INTRA.DIHEDRAL>
0

>  <SCORE.INTRA.DIHEDRAL.0>
0

>  <SCORE.INTRA.POLAR>
0

>  <SCORE.INTRA.POLAR.0>
0

>  <SCORE.INTRA.REPUL>
0

>  <SCORE.INTRA.REPUL.0>
0

>  <SCORE.INTRA.SOLV>
0

>  <SCORE.INTRA.SOLV.lig_0>
-48.3454

>  <SCORE.INTRA.VDW>
0

>  <SCORE.INTRA.VDW.0>
0

>  <SCORE.INTRA.norm>
0

>  <SCORE.RESTR>
0

>  <SCORE.RESTR.CAVITY>
0

>  <SCORE.RESTR.norm>
0

>  <SCORE.SYSTEM>
0

>  <SCORE.SYSTEM.CONST>
0

>  <SCORE.SYSTEM.DIHEDRAL>
0

>  <SCORE.SYSTEM.SOLV>
0

>  <SCORE.SYSTEM.norm>
0

>  <SCORE.heavy>
11

>  <SCORE.norm>
-1.04682

>  <RMSD>
0.599

$$$$
ligand
 OpenBabel02271912153D
libRbt.so/2013.1/901 2013/11/27
 11 12  0  0  0  0  0  0  0  0999 V2000
  -11.8646  -12.6820    8.8347 N   0  0  0  0  0  0  0  0  0  0  0  0
  -11.4973  -13.9676    8.9568 C   0  0  0  0  0  0  0  0  0  0  0  0
  -11.5066  -14.5463   10.1543 N   0  0  0  0  0  0  0  0  0  0  0  0
  -11.1107  -14.6720    7.8819 N   0  0  0  0  0  0  0  0  0  0  0  0
  -11.0806  -14.1054    6.6666 C   0  0  0  0  0  0  0  0  0  0  0  0
  -11.4554  -12.7767    6.5124 C   0  0  0  0  0  0  0  0  0  0  0  0
  -11.8548  -12.0683    7.6409 C   0  0  0  0  0  0  0  0  0  0  0  0
  -12.2309  -10.7971    7.5373 N   0  0  0  0  0  0  0  0  0  0  0  0
  -11.3196  -12.4693    5.2259 N   0  0  0  0  0  0  0  0  0  0  0  0
  -10.8781  -13.5537    4.5925 C   0  0  0  0  0  0  0  0  0  0  0  0
  -10.7317  -14.5504    5.4629 N   0  0  0  0  0  0  0  0  0  0  0  0
  1  7  2  0  0  0  0
  1  2  1  0  0  0  0
  2  3  1  0  0  0  0
  2  4  2  0  0  0  0
  4  5  1  0  0  0  0
  5  6  2  0  0  0  0
  5 11  1  0  0  0  0
  6  7  1  0  0  0  0
  6  9  1  0  0  0  0
  7  8  1  0  0  0  0
  9 10  1  0  0  0  0
 10 11  2  0  0  0  0
M  END
>  <CHROM.1>
-11.41590012,-13.28957694,7.24845571,1.98089344,-1.23535644,2.07289223

>  <Name>
ligand

>  <RI>
0

>  <Rbt.Current_Directory>
/home/itssahil/PROJECTS/Mol_Feturizer/Test_systems_manuscript/rnas/2b57

>  <Rbt.Executable>
rbdock ($Id: //depot/dev/client3/rdock/2013.1/src/exe/rbdock.cxx#4 $)

>  <Rbt.Library>
libRbt.so (2013.1, Build901 2013/11/27)

>  <Rbt.Parameter_File>
/export/apps/rDock/src/rDock_2013.1_src/data/scripts/dock_solv.prm

>  <Rbt.Receptor>
prm/pocket_docking_8.prm

>  <SCORE>
-11.4436

>  <SCORE.INTER>
-11.4436

>  <SCORE.INTER.CONST>
1

>  <SCORE.INTER.POLAR>
0

>  <SCORE.INTER.ROT>
0

>  <SCORE.INTER.SOLV>
21.2644

>  <SCORE.INTER.VDW>
-18.3172

>  <SCORE.INTER.norm>
-1.04033

>  <SCORE.INTRA>
0

>  <SCORE.INTRA.DIHEDRAL>
0

>  <SCORE.INTRA.DIHEDRAL.0>
0

>  <SCORE.INTRA.POLAR>
0

>  <SCORE.INTRA.POLAR.0>
0

>  <SCORE.INTRA.REPUL>
0

>  <SCORE.INTRA.REPUL.0>
0

>  <SCORE.INTRA.SOLV>
0

>  <SCORE.INTRA.SOLV.lig_0>
-48.3454

>  <SCORE.INTRA.VDW>
0

>  <SCORE.INTRA.VDW.0>
0

>  <SCORE.INTRA.norm>
0

>  <SCORE.RESTR>
0

>  <SCORE.RESTR.CAVITY>
0

>  <SCORE.RESTR.norm>
0

>  <SCORE.SYSTEM>
0

>  <SCORE.SYSTEM.CONST>
0

>  <SCORE.SYSTEM.DIHEDRAL>
0

>  <SCORE.SYSTEM.SOLV>
0

>  <SCORE.SYSTEM.norm>
0

>  <SCORE.heavy>
11

>  <SCORE.norm>
-1.04033

>  <RMSD>
0.599

$$$$
ligand
 OpenBabel02271912153D
libRbt.so/2013.1/901 2013/11/27
 11 12  0  0  0  0  0  0  0  0999 V2000
  -11.8314  -12.6840    8.8462 N   0  0  0  0  0  0  0  0  0  0  0  0
  -11.4840  -13.9758    8.9616 C   0  0  0  0  0  0  0  0  0  0  0  0
  -11.4951  -14.5584   10.1572 N   0  0  0  0  0  0  0  0  0  0  0  0
  -11.1153  -14.6825    7.8820 N   0  0  0  0  0  0  0  0  0  0  0  0
  -11.0837  -14.1122    6.6684 C   0  0  0  0  0  0  0  0  0  0  0  0
  -11.4381  -12.7772    6.5211 C   0  0  0  0  0  0  0  0  0  0  0  0
  -11.8191  -12.0663    7.6545 C   0  0  0  0  0  0  0  0  0  0  0  0
  -12.1754  -10.7889    7.5576 N   0  0  0  0  0  0  0  0  0  0  0  0
  -11.3054  -12.4675    5.2349 N   0  0  0  0  0  0  0  0  0  0  0  0
  -10.8853  -13.5565    4.5950 C   0  0  0  0  0  0  0  0  0  0  0  0
  -10.7494  -14.5585    5.4611 N   0  0  0  0  0  0  0  0  0  0  0  0
  1  7  2  0  0  0  0
  1  2  1  0  0  0  0
  2  3  1  0  0  0  0
  2  4  2  0  0  0  0
  4  5  1  0  0  0  0
  5  6  2  0  0  0  0
  5 11  1  0  0  0  0
  6  7  1  0  0  0  0
  6  9  1  0  0  0  0
  7  8  1  0  0  0  0
  9 10  1  0  0  0  0
 10 11  2  0  0  0  0
M  END
>  <CHROM.1>
-11.40228980,-13.29315087,7.25516058,1.98818941,-1.25239235,2.08324925

>  <Name>
ligand

>  <RI>
0

>  <Rbt.Current_Directory>
/home/itssahil/PROJECTS/Mol_Feturizer/Test_systems_manuscript/rnas/2b57

>  <Rbt.Executable>
rbdock ($Id: //depot/dev/client3/rdock/2013.1/src/exe/rbdock.cxx#4 $)

>  <Rbt.Library>
libRbt.so (2013.1, Build901 2013/11/27)

>  <Rbt.Parameter_File>
/export/apps/rDock/src/rDock_2013.1_src/data/scripts/dock_solv.prm

>  <Rbt.Receptor>
prm/blind_docking_100.prm

>  <SCORE>
-11.4568

>  <SCORE.INTER>
-11.4568

>  <SCORE.INTER.CONST>
1

>  <SCORE.INTER.POLAR>
0

>  <SCORE.INTER.ROT>
0

>  <SCORE.INTER.SOLV>
21.4545

>  <SCORE.INTER.VDW>
-18.3893

>  <SCORE.INTER.norm>
-1.04152

>  <SCORE.INTRA>
0

>  <SCORE.INTRA.DIHEDRAL>
0

>  <SCORE.INTRA.DIHEDRAL.0>
0

>  <SCORE.INTRA.POLAR>
0

>  <SCORE.INTRA.POLAR.0>
0

>  <SCORE.INTRA.REPUL>
0

>  <SCORE.INTRA.REPUL.0>
0

>  <SCORE.INTRA.SOLV>
0

>  <SCORE.INTRA.SOLV.lig_0>
-48.3454

>  <SCORE.INTRA.VDW>
0

>  <SCORE.INTRA.VDW.0>
0

>  <SCORE.INTRA.norm>
0

>  <SCORE.RESTR>
0

>  <SCORE.RESTR.CAVITY>
0

>  <SCORE.RESTR.norm>
0

>  <SCORE.SYSTEM>
0

>  <SCORE.SYSTEM.CONST>
0

>  <SCORE.SYSTEM.DIHEDRAL>
0

>  <SCORE.SYSTEM.SOLV>
0

>  <SCORE.SYSTEM.norm>
0

>  <SCORE.heavy>
11

>  <SCORE.norm>
-1.04152

>  <RMSD>
0.600

$$$$
ligand
 OpenBabel02271912153D
libRbt.so/2013.1/901 2013/11/27
 11 12  0  0  0  0  0  0  0  0999 V2000
  -11.8536  -12.7904    8.8706 N   0  0  0  0  0  0  0  0  0  0  0  0
  -11.5066  -14.0848    8.9538 C   0  0  0  0  0  0  0  0  0  0  0  0
  -11.5330  -14.7011   10.1322 N   0  0  0  0  0  0  0  0  0  0  0  0
  -11.1232  -14.7604    7.8595 N   0  0  0  0  0  0  0  0  0  0  0  0
  -11.0761  -14.1559    6.6632 C   0  0  0  0  0  0  0  0  0  0  0  0
  -11.4297  -12.8174    6.5491 C   0  0  0  0  0  0  0  0  0  0  0  0
  -11.8262  -12.1392    7.6970 C   0  0  0  0  0  0  0  0  0  0  0  0
  -12.1823  -10.8597    7.6317 N   0  0  0  0  0  0  0  0  0  0  0  0
  -11.2804  -12.4713    5.2740 N   0  0  0  0  0  0  0  0  0  0  0  0
  -10.8509  -13.5415    4.6091 C   0  0  0  0  0  0  0  0  0  0  0  0
  -10.7256  -14.5676    5.4481 N   0  0  0  0  0  0  0  0  0  0  0  0
  1  7  2  0  0  0  0
  1  2  1  0  0  0  0
  2  3  1  0  0  0  0
  2  4  2  0  0  0  0
  4  5  1  0  0  0  0
  5  6  2  0  0  0  0
  5 11  1  0  0  0  0
  6  7  1  0  0  0  0
  6  9  1  0  0  0  0
  7  8  1  0  0  0  0
  9 10  1  0  0  0  0
 10 11  2  0  0  0  0
M  END
>  <CHROM.1>
-11.40309278,-13.35396998,7.26863503,2.02262352,-1.24497433,2.14427275

>  <Name>
ligand

>  <RI>
0

>  <Rbt.Current_Directory>
/home/itssahil/PROJECTS/Mol_Feturizer/Test_systems_manuscript/rnas/2b57

>  <Rbt.Executable>
rbdock ($Id: //depot/dev/client3/rdock/2013.1/src/exe/rbdock.cxx#4 $)

>  <Rbt.Library>
libRbt.so (2013.1, Build901 2013/11/27)

>  <Rbt.Parameter_File>
/export/apps/rDock/src/rDock_2013.1_src/data/scripts/dock_solv.prm

>  <Rbt.Receptor>
prm/pocket_docking_3.prm

>  <SCORE>
-11.5436

>  <SCORE.INTER>
-11.5436

>  <SCORE.INTER.CONST>
1

>  <SCORE.INTER.POLAR>
0

>  <SCORE.INTER.ROT>
0

>  <SCORE.INTER.SOLV>
21.5627

>  <SCORE.INTER.VDW>
-18.4833

>  <SCORE.INTER.norm>
-1.04942

>  <SCORE.INTRA>
0

>  <SCORE.INTRA.DIHEDRAL>
0

>  <SCORE.INTRA.DIHEDRAL.0>
0

>  <SCORE.INTRA.POLAR>
0

>  <SCORE.INTRA.POLAR.0>
0

>  <SCORE.INTRA.REPUL>
0

>  <SCORE.INTRA.REPUL.0>
0

>  <SCORE.INTRA.SOLV>
0

>  <SCORE.INTRA.SOLV.lig_0>
-48.3454

>  <SCORE.INTRA.VDW>
0

>  <SCORE.INTRA.VDW.0>
0

>  <SCORE.INTRA.norm>
0

>  <SCORE.RESTR>
0

>  <SCORE.RESTR.CAVITY>
0

>  <SCORE.RESTR.norm>
0

>  <SCORE.SYSTEM>
0

>  <SCORE.SYSTEM.CONST>
0

>  <SCORE.SYSTEM.DIHEDRAL>
0

>  <SCORE.SYSTEM.SOLV>
0

>  <SCORE.SYSTEM.norm>
0

>  <SCORE.heavy>
11

>  <SCORE.norm>
-1.04942

>  <RMSD>
0.600

$$$$
ligand
 OpenBabel02271912153D
libRbt.so/2013.1/901 2013/11/27
 11 12  0  0  0  0  0  0  0  0999 V2000
  -11.8599  -12.7843    8.8661 N   0  0  0  0  0  0  0  0  0  0  0  0
  -11.5192  -14.0797    8.9583 C   0  0  0  0  0  0  0  0  0  0  0  0
  -11.5536  -14.6891   10.1400 N   0  0  0  0  0  0  0  0  0  0  0  0
  -11.1339  -14.7633    7.8696 N   0  0  0  0  0  0  0  0  0  0  0  0
  -11.0787  -14.1659    6.6701 C   0  0  0  0  0  0  0  0  0  0  0  0
  -11.4258  -12.8265    6.5468 C   0  0  0  0  0  0  0  0  0  0  0  0
  -11.8243  -12.1399    7.6890 C   0  0  0  0  0  0  0  0  0  0  0  0
  -12.1744  -10.8593    7.6147 N   0  0  0  0  0  0  0  0  0  0  0  0
  -11.2692  -12.4884    5.2704 N   0  0  0  0  0  0  0  0  0  0  0  0
  -10.8416  -13.5643    4.6136 C   0  0  0  0  0  0  0  0  0  0  0  0
  -10.7246  -14.5861    5.4590 N   0  0  0  0  0  0  0  0  0  0  0  0
  1  7  2  0  0  0  0
  1  2  1  0  0  0  0
  2  3  1  0  0  0  0
  2  4  2  0  0  0  0
  4  5  1  0  0  0  0
  5  6  2  0  0  0  0
  5 11  1  0  0  0  0
  6  7  1  0  0  0  0
  6  9  1  0  0  0  0
  7  8  1  0  0  0  0
  9 10  1  0  0  0  0
 10 11  2  0  0  0  0
M  END
>  <CHROM.1>
-11.40480114,-13.35903925,7.26944185,2.04211795,-1.24627805,2.15700957

>  <Name>
ligand

>  <RI>
0

>  <Rbt.Current_Directory>
/home/itssahil/PROJECTS/Mol_Feturizer/Test_systems_manuscript/rnas/2b57

>  <Rbt.Executable>
rbdock ($Id: //depot/dev/client3/rdock/2013.1/src/exe/rbdock.cxx#4 $)

>  <Rbt.Library>
libRbt.so (2013.1, Build901 2013/11/27)

>  <Rbt.Parameter_File>
/export/apps/rDock/src/rDock_2013.1_src/data/scripts/dock_solv.prm

>  <Rbt.Receptor>
prm/pocket_docking_3.prm

>  <SCORE>
-11.56

>  <SCORE.INTER>
-11.56

>  <SCORE.INTER.CONST>
1

>  <SCORE.INTER.POLAR>
0

>  <SCORE.INTER.ROT>
0

>  <SCORE.INTER.SOLV>
21.5603

>  <SCORE.INTER.VDW>
-18.4934

>  <SCORE.INTER.norm>
-1.05091

>  <SCORE.INTRA>
0

>  <SCORE.INTRA.DIHEDRAL>
0

>  <SCORE.INTRA.DIHEDRAL.0>
0

>  <SCORE.INTRA.POLAR>
0

>  <SCORE.INTRA.POLAR.0>
0

>  <SCORE.INTRA.REPUL>
0

>  <SCORE.INTRA.REPUL.0>
0

>  <SCORE.INTRA.SOLV>
0

>  <SCORE.INTRA.SOLV.lig_0>
-48.3454

>  <SCORE.INTRA.VDW>
0

>  <SCORE.INTRA.VDW.0>
0

>  <SCORE.INTRA.norm>
0

>  <SCORE.RESTR>
0

>  <SCORE.RESTR.CAVITY>
0

>  <SCORE.RESTR.norm>
0

>  <SCORE.SYSTEM>
0

>  <SCORE.SYSTEM.CONST>
0

>  <SCORE.SYSTEM.DIHEDRAL>
0

>  <SCORE.SYSTEM.SOLV>
0

>  <SCORE.SYSTEM.norm>
0

>  <SCORE.heavy>
11

>  <SCORE.norm>
-1.05091

>  <RMSD>
0.600

$$$$
ligand
 OpenBabel02271912153D
libRbt.so/2013.1/901 2013/11/27
 11 12  0  0  0  0  0  0  0  0999 V2000
  -11.8624  -12.7874    8.8702 N   0  0  0  0  0  0  0  0  0  0  0  0
  -11.5161  -14.0822    8.9502 C   0  0  0  0  0  0  0  0  0  0  0  0
  -11.5339  -14.6989   10.1285 N   0  0  0  0  0  0  0  0  0  0  0  0
  -11.1418  -14.7578    7.8527 N   0  0  0  0  0  0  0  0  0  0  0  0
  -11.1034  -14.1528    6.6563 C   0  0  0  0  0  0  0  0  0  0  0  0
  -11.4566  -12.8139    6.5455 C   0  0  0  0  0  0  0  0  0  0  0  0
  -11.8434  -12.1358    7.6967 C   0  0  0  0  0  0  0  0  0  0  0  0
  -12.1987  -10.8559    7.6347 N   0  0  0  0  0  0  0  0  0  0  0  0
  -11.3168  -12.4674    5.2694 N   0  0  0  0  0  0  0  0  0  0  0  0
  -10.8936  -13.5378    4.6008 C   0  0  0  0  0  0  0  0  0  0  0  0
  -10.7627  -14.5644    5.4384 N   0  0  0  0  0  0  0  0  0  0  0  0
  1  7  2  0  0  0  0
  1  2  1  0  0  0  0
  2  3  1  0  0  0  0
  2  4  2  0  0  0  0
  4  5  1  0  0  0  0
  5  6  2  0  0  0  0
  5 11  1  0  0  0  0
  6  7  1  0  0  0  0
  6  9  1  0  0  0  0
  7  8  1  0  0  0  0
  9 10  1  0  0  0  0
 10 11  2  0  0  0  0
M  END
>  <CHROM.1>
-11.42487142,-13.35080448,7.26456661,2.00369223,-1.24998351,2.12672191

>  <Name>
ligand

>  <RI>
0

>  <Rbt.Current_Directory>
/home/itssahil/PROJECTS/Mol_Feturizer/Test_systems_manuscript/rnas/2b57

>  <Rbt.Executable>
rbdock ($Id: //depot/dev/client3/rdock/2013.1/src/exe/rbdock.cxx#4 $)

>  <Rbt.Library>
libRbt.so (2013.1, Build901 2013/11/27)

>  <Rbt.Parameter_File>
/export/apps/rDock/src/rDock_2013.1_src/data/scripts/dock_solv.prm

>  <Rbt.Receptor>
prm/pocket_docking_3.prm

>  <SCORE>
-11.5549

>  <SCORE.INTER>
-11.5549

>  <SCORE.INTER.CONST>
1

>  <SCORE.INTER.POLAR>
0

>  <SCORE.INTER.ROT>
0

>  <SCORE.INTER.SOLV>
21.526

>  <SCORE.INTER.VDW>
-18.4786

>  <SCORE.INTER.norm>
-1.05044

>  <SCORE.INTRA>
0

>  <SCORE.INTRA.DIHEDRAL>
0

>  <SCORE.INTRA.DIHEDRAL.0>
0

>  <SCORE.INTRA.POLAR>
0

>  <SCORE.INTRA.POLAR.0>
0

>  <SCORE.INTRA.REPUL>
0

>  <SCORE.INTRA.REPUL.0>
0

>  <SCORE.INTRA.SOLV>
0

>  <SCORE.INTRA.SOLV.lig_0>
-48.3454

>  <SCORE.INTRA.VDW>
0

>  <SCORE.INTRA.VDW.0>
0

>  <SCORE.INTRA.norm>
0

>  <SCORE.RESTR>
0

>  <SCORE.RESTR.CAVITY>
0

>  <SCORE.RESTR.norm>
0

>  <SCORE.SYSTEM>
0

>  <SCORE.SYSTEM.CONST>
0

>  <SCORE.SYSTEM.DIHEDRAL>
0

>  <SCORE.SYSTEM.SOLV>
0

>  <SCORE.SYSTEM.norm>
0

>  <SCORE.heavy>
11

>  <SCORE.norm>
-1.05044

>  <RMSD>
0.600

$$$$
ligand
 OpenBabel02271912153D
libRbt.so/2013.1/901 2013/11/27
 11 12  0  0  0  0  0  0  0  0999 V2000
  -11.8653  -12.7876    8.8694 N   0  0  0  0  0  0  0  0  0  0  0  0
  -11.5166  -14.0815    8.9525 C   0  0  0  0  0  0  0  0  0  0  0  0
  -11.5322  -14.6953   10.1324 N   0  0  0  0  0  0  0  0  0  0  0  0
  -11.1423  -14.7593    7.8563 N   0  0  0  0  0  0  0  0  0  0  0  0
  -11.1062  -14.1574    6.6583 C   0  0  0  0  0  0  0  0  0  0  0  0
  -11.4618  -12.8194    6.5444 C   0  0  0  0  0  0  0  0  0  0  0  0
  -11.8486  -12.1390    7.6942 C   0  0  0  0  0  0  0  0  0  0  0  0
  -12.2063  -10.8599    7.6292 N   0  0  0  0  0  0  0  0  0  0  0  0
  -11.3239  -12.4760    5.2673 N   0  0  0  0  0  0  0  0  0  0  0  0
  -10.8996  -13.5475    4.6010 C   0  0  0  0  0  0  0  0  0  0  0  0
  -10.7661  -14.5716    5.4411 N   0  0  0  0  0  0  0  0  0  0  0  0
  1  7  2  0  0  0  0
  1  2  1  0  0  0  0
  2  3  1  0  0  0  0
  2  4  2  0  0  0  0
  4  5  1  0  0  0  0
  5  6  2  0  0  0  0
  5 11  1  0  0  0  0
  6  7  1  0  0  0  0
  6  9  1  0  0  0  0
  7  8  1  0  0  0  0
  9 10  1  0  0  0  0
 10 11  2  0  0  0  0
M  END
>  <CHROM.1>
-11.42844917,-13.35440231,7.26482421,1.99803524,-1.24905248,2.11874685

>  <Name>
ligand

>  <RI>
0

>  <Rbt.Current_Directory>
/home/itssahil/PROJECTS/Mol_Feturizer/Test_systems_manuscript/rnas/2b57

>  <Rbt.Executable>
rbdock ($Id: //depot/dev/client3/rdock/2013.1/src/exe/rbdock.cxx#4 $)

>  <Rbt.Library>
libRbt.so (2013.1, Build901 2013/11/27)

>  <Rbt.Parameter_File>
/export/apps/rDock/src/rDock_2013.1_src/data/scripts/dock_solv.prm

>  <Rbt.Receptor>
prm/pocket_docking_3.prm

>  <SCORE>
-11.5475

>  <SCORE.INTER>
-11.5475

>  <SCORE.INTER.CONST>
1

>  <SCORE.INTER.POLAR>
0

>  <SCORE.INTER.ROT>
0

>  <SCORE.INTER.SOLV>
21.4889

>  <SCORE.INTER.VDW>
-18.4613

>  <SCORE.INTER.norm>
-1.04977

>  <SCORE.INTRA>
0

>  <SCORE.INTRA.DIHEDRAL>
0

>  <SCORE.INTRA.DIHEDRAL.0>
0

>  <SCORE.INTRA.POLAR>
0

>  <SCORE.INTRA.POLAR.0>
0

>  <SCORE.INTRA.REPUL>
0

>  <SCORE.INTRA.REPUL.0>
0

>  <SCORE.INTRA.SOLV>
0

>  <SCORE.INTRA.SOLV.lig_0>
-48.3454

>  <SCORE.INTRA.VDW>
0

>  <SCORE.INTRA.VDW.0>
0

>  <SCORE.INTRA.norm>
0

>  <SCORE.RESTR>
0

>  <SCORE.RESTR.CAVITY>
0

>  <SCORE.RESTR.norm>
0

>  <SCORE.SYSTEM>
0

>  <SCORE.SYSTEM.CONST>
0

>  <SCORE.SYSTEM.DIHEDRAL>
0

>  <SCORE.SYSTEM.SOLV>
0

>  <SCORE.SYSTEM.norm>
0

>  <SCORE.heavy>
11

>  <SCORE.norm>
-1.04977

>  <RMSD>
0.600

$$$$
ligand
 OpenBabel02271912153D
libRbt.so/2013.1/901 2013/11/27
 11 12  0  0  0  0  0  0  0  0999 V2000
  -11.8369  -12.7627    8.8669 N   0  0  0  0  0  0  0  0  0  0  0  0
  -11.4821  -14.0543    8.9604 C   0  0  0  0  0  0  0  0  0  0  0  0
  -11.4938  -14.6582   10.1453 N   0  0  0  0  0  0  0  0  0  0  0  0
  -11.1055  -14.7393    7.8696 N   0  0  0  0  0  0  0  0  0  0  0  0
  -11.0732  -14.1472    6.6665 C   0  0  0  0  0  0  0  0  0  0  0  0
  -11.4352  -12.8119    6.5419 C   0  0  0  0  0  0  0  0  0  0  0  0
  -11.8243  -12.1238    7.6864 C   0  0  0  0  0  0  0  0  0  0  0  0
  -12.1880  -10.8470    7.6111 N   0  0  0  0  0  0  0  0  0  0  0  0
  -11.3001  -12.4785    5.2618 N   0  0  0  0  0  0  0  0  0  0  0  0
  -10.8712  -13.5534    4.6041 C   0  0  0  0  0  0  0  0  0  0  0  0
  -10.7322  -14.5698    5.4526 N   0  0  0  0  0  0  0  0  0  0  0  0
  1  7  2  0  0  0  0
  1  2  1  0  0  0  0
  2  3  1  0  0  0  0
  2  4  2  0  0  0  0
  4  5  1  0  0  0  0
  5  6  2  0  0  0  0
  5 11  1  0  0  0  0
  6  7  1  0  0  0  0
  6  9  1  0  0  0  0
  7  8  1  0  0  0  0
  9 10  1  0  0  0  0
 10 11  2  0  0  0  0
M  END
>  <CHROM.1>
-11.39875227,-13.34073306,7.26669788,1.98810537,-1.24543919,2.10104311

>  <Name>
ligand

>  <RI>
0

>  <Rbt.Current_Directory>
/home/itssahil/PROJECTS/Mol_Feturizer/Test_systems_manuscript/rnas/2b57

>  <Rbt.Executable>
rbdock ($Id: //depot/dev/client3/rdock/2013.1/src/exe/rbdock.cxx#4 $)

>  <Rbt.Library>
libRbt.so (2013.1, Build901 2013/11/27)

>  <Rbt.Parameter_File>
/export/apps/rDock/src/rDock_2013.1_src/data/scripts/dock_solv.prm

>  <Rbt.Receptor>
prm/pocket_docking_4.prm

>  <SCORE>
-11.5332

>  <SCORE.INTER>
-11.5332

>  <SCORE.INTER.CONST>
1

>  <SCORE.INTER.POLAR>
0

>  <SCORE.INTER.ROT>
0

>  <SCORE.INTER.SOLV>
21.49

>  <SCORE.INTER.VDW>
-18.4522

>  <SCORE.INTER.norm>
-1.04848

>  <SCORE.INTRA>
0

>  <SCORE.INTRA.DIHEDRAL>
0

>  <SCORE.INTRA.DIHEDRAL.0>
0

>  <SCORE.INTRA.POLAR>
0

>  <SCORE.INTRA.POLAR.0>
0

>  <SCORE.INTRA.REPUL>
0

>  <SCORE.INTRA.REPUL.0>
0

>  <SCORE.INTRA.SOLV>
0

>  <SCORE.INTRA.SOLV.lig_0>
-48.3454

>  <SCORE.INTRA.VDW>
0

>  <SCORE.INTRA.VDW.0>
0

>  <SCORE.INTRA.norm>
0

>  <SCORE.RESTR>
0

>  <SCORE.RESTR.CAVITY>
0

>  <SCORE.RESTR.norm>
0

>  <SCORE.SYSTEM>
0

>  <SCORE.SYSTEM.CONST>
0

>  <SCORE.SYSTEM.DIHEDRAL>
0

>  <SCORE.SYSTEM.SOLV>
0

>  <SCORE.SYSTEM.norm>
0

>  <SCORE.heavy>
11

>  <SCORE.norm>
-1.04848

>  <RMSD>
0.600

$$$$
ligand
 OpenBabel02271912153D
libRbt.so/2013.1/901 2013/11/27
 11 12  0  0  0  0  0  0  0  0999 V2000
  -11.8557  -12.7905    8.8705 N   0  0  0  0  0  0  0  0  0  0  0  0
  -11.5069  -14.0842    8.9575 C   0  0  0  0  0  0  0  0  0  0  0  0
  -11.5297  -14.6963   10.1381 N   0  0  0  0  0  0  0  0  0  0  0  0
  -11.1251  -14.7632    7.8647 N   0  0  0  0  0  0  0  0  0  0  0  0
  -11.0816  -14.1628    6.6661 C   0  0  0  0  0  0  0  0  0  0  0  0
  -11.4372  -12.8252    6.5482 C   0  0  0  0  0  0  0  0  0  0  0  0
  -11.8318  -12.1434    7.6946 C   0  0  0  0  0  0  0  0  0  0  0  0
  -12.1897  -10.8647    7.6256 N   0  0  0  0  0  0  0  0  0  0  0  0
  -11.2913  -12.4834    5.2715 N   0  0  0  0  0  0  0  0  0  0  0  0
  -10.8620  -13.5554    4.6094 C   0  0  0  0  0  0  0  0  0  0  0  0
  -10.7334  -14.5783    5.4517 N   0  0  0  0  0  0  0  0  0  0  0  0
  1  7  2  0  0  0  0
  1  2  1  0  0  0  0
  2  3  1  0  0  0  0
  2  4  2  0  0  0  0
  4  5  1  0  0  0  0
  5  6  2  0  0  0  0
  5 11  1  0  0  0  0
  6  7  1  0  0  0  0
  6  9  1  0  0  0  0
  7  8  1  0  0  0  0
  9 10  1  0  0  0  0
 10 11  2  0  0  0  0
M  END
>  <CHROM.1>
-11.40818943,-13.35917591,7.26949365,2.01435132,-1.24516719,2.13291154

>  <Name>
ligand

>  <RI>
0

>  <Rbt.Current_Directory>
/home/itssahil/PROJECTS/Mol_Feturizer/Test_systems_manuscript/rnas/2b57

>  <Rbt.Executable>
rbdock ($Id: //depot/dev/client3/rdock/2013.1/src/exe/rbdock.cxx#4 $)

>  <Rbt.Library>
libRbt.so (2013.1, Build901 2013/11/27)

>  <Rbt.Parameter_File>
/export/apps/rDock/src/rDock_2013.1_src/data/scripts/dock_solv.prm

>  <Rbt.Receptor>
prm/pocket_docking_5.prm

>  <SCORE>
-11.581

>  <SCORE.INTER>
-11.581

>  <SCORE.INTER.CONST>
1

>  <SCORE.INTER.POLAR>
0

>  <SCORE.INTER.ROT>
0

>  <SCORE.INTER.SOLV>
21.5248

>  <SCORE.INTER.VDW>
-18.4956

>  <SCORE.INTER.norm>
-1.05282

>  <SCORE.INTRA>
0

>  <SCORE.INTRA.DIHEDRAL>
0

>  <SCORE.INTRA.DIHEDRAL.0>
0

>  <SCORE.INTRA.POLAR>
0

>  <SCORE.INTRA.POLAR.0>
0

>  <SCORE.INTRA.REPUL>
0

>  <SCORE.INTRA.REPUL.0>
0

>  <SCORE.INTRA.SOLV>
0

>  <SCORE.INTRA.SOLV.lig_0>
-48.3454

>  <SCORE.INTRA.VDW>
0

>  <SCORE.INTRA.VDW.0>
0

>  <SCORE.INTRA.norm>
0

>  <SCORE.RESTR>
0

>  <SCORE.RESTR.CAVITY>
0

>  <SCORE.RESTR.norm>
0

>  <SCORE.SYSTEM>
0

>  <SCORE.SYSTEM.CONST>
0

>  <SCORE.SYSTEM.DIHEDRAL>
0

>  <SCORE.SYSTEM.SOLV>
0

>  <SCORE.SYSTEM.norm>
0

>  <SCORE.heavy>
11

>  <SCORE.norm>
-1.05282

>  <RMSD>
0.600

$$$$
ligand
 OpenBabel02271912153D
libRbt.so/2013.1/901 2013/11/27
 11 12  0  0  0  0  0  0  0  0999 V2000
  -11.8381  -12.7879    8.8758 N   0  0  0  0  0  0  0  0  0  0  0  0
  -11.5026  -14.0853    8.9594 C   0  0  0  0  0  0  0  0  0  0  0  0
  -11.5297  -14.6998   10.1387 N   0  0  0  0  0  0  0  0  0  0  0  0
  -11.1297  -14.7658    7.8645 N   0  0  0  0  0  0  0  0  0  0  0  0
  -11.0820  -14.1633    6.6671 C   0  0  0  0  0  0  0  0  0  0  0  0
  -11.4240  -12.8218    6.5527 C   0  0  0  0  0  0  0  0  0  0  0  0
  -11.8096  -12.1386    7.7013 C   0  0  0  0  0  0  0  0  0  0  0  0
  -12.1544  -10.8560    7.6357 N   0  0  0  0  0  0  0  0  0  0  0  0
  -11.2768  -12.4788    5.2765 N   0  0  0  0  0  0  0  0  0  0  0  0
  -10.8597  -13.5537    4.6113 C   0  0  0  0  0  0  0  0  0  0  0  0
  -10.7402  -14.5798    5.4512 N   0  0  0  0  0  0  0  0  0  0  0  0
  1  7  2  0  0  0  0
  1  2  1  0  0  0  0
  2  3  1  0  0  0  0
  2  4  2  0  0  0  0
  4  5  1  0  0  0  0
  5  6  2  0  0  0  0
  5 11  1  0  0  0  0
  6  7  1  0  0  0  0
  6  9  1  0  0  0  0
  7  8  1  0  0  0  0
  9 10  1  0  0  0  0
 10 11  2  0  0  0  0
M  END
>  <CHROM.1>
-11.39929734,-13.35768105,7.27282859,2.02739186,-1.25479593,2.14745537

>  <Name>
ligand

>  <RI>
0

>  <Rbt.Current_Directory>
/home/itssahil/PROJECTS/Mol_Feturizer/Test_systems_manuscript/rnas/2b57

>  <Rbt.Executable>
rbdock ($Id: //depot/dev/client3/rdock/2013.1/src/exe/rbdock.cxx#4 $)

>  <Rbt.Library>
libRbt.so (2013.1, Build901 2013/11/27)

>  <Rbt.Parameter_File>
/export/apps/rDock/src/rDock_2013.1_src/data/scripts/dock_solv.prm

>  <Rbt.Receptor>
prm/pocket_docking_6.prm

>  <SCORE>
-11.5603

>  <SCORE.INTER>
-11.5603

>  <SCORE.INTER.CONST>
1

>  <SCORE.INTER.POLAR>
0

>  <SCORE.INTER.ROT>
0

>  <SCORE.INTER.SOLV>
21.6621

>  <SCORE.INTER.VDW>
-18.5275

>  <SCORE.INTER.norm>
-1.05094

>  <SCORE.INTRA>
0

>  <SCORE.INTRA.DIHEDRAL>
0

>  <SCORE.INTRA.DIHEDRAL.0>
0

>  <SCORE.INTRA.POLAR>
0

>  <SCORE.INTRA.POLAR.0>
0

>  <SCORE.INTRA.REPUL>
0

>  <SCORE.INTRA.REPUL.0>
0

>  <SCORE.INTRA.SOLV>
0

>  <SCORE.INTRA.SOLV.lig_0>
-48.3454

>  <SCORE.INTRA.VDW>
0

>  <SCORE.INTRA.VDW.0>
0

>  <SCORE.INTRA.norm>
0

>  <SCORE.RESTR>
0

>  <SCORE.RESTR.CAVITY>
0

>  <SCORE.RESTR.norm>
0

>  <SCORE.SYSTEM>
0

>  <SCORE.SYSTEM.CONST>
0

>  <SCORE.SYSTEM.DIHEDRAL>
0

>  <SCORE.SYSTEM.SOLV>
0

>  <SCORE.SYSTEM.norm>
0

>  <SCORE.heavy>
11

>  <SCORE.norm>
-1.05094

>  <RMSD>
0.600

$$$$
ligand
 OpenBabel02271912153D
libRbt.so/2013.1/901 2013/11/27
 11 12  0  0  0  0  0  0  0  0999 V2000
  -11.8523  -12.7695    8.8645 N   0  0  0  0  0  0  0  0  0  0  0  0
  -11.5053  -14.0634    8.9543 C   0  0  0  0  0  0  0  0  0  0  0  0
  -11.5249  -14.6720   10.1368 N   0  0  0  0  0  0  0  0  0  0  0  0
  -11.1285  -14.7464    7.8622 N   0  0  0  0  0  0  0  0  0  0  0  0
  -11.0883  -14.1498    6.6616 C   0  0  0  0  0  0  0  0  0  0  0  0
  -11.4422  -12.8119    6.5409 C   0  0  0  0  0  0  0  0  0  0  0  0
  -11.8316  -12.1261    7.6866 C   0  0  0  0  0  0  0  0  0  0  0  0
  -12.1877  -10.8469    7.6150 N   0  0  0  0  0  0  0  0  0  0  0  0
  -11.3003  -12.4743    5.2626 N   0  0  0  0  0  0  0  0  0  0  0  0
  -10.8751  -13.5490    4.6023 C   0  0  0  0  0  0  0  0  0  0  0  0
  -10.7451  -14.5696    5.4473 N   0  0  0  0  0  0  0  0  0  0  0  0
  1  7  2  0  0  0  0
  1  2  1  0  0  0  0
  2  3  1  0  0  0  0
  2  4  2  0  0  0  0
  4  5  1  0  0  0  0
  5  6  2  0  0  0  0
  5 11  1  0  0  0  0
  6  7  1  0  0  0  0
  6  9  1  0  0  0  0
  7  8  1  0  0  0  0
  9 10  1  0  0  0  0
 10 11  2  0  0  0  0
M  END
>  <CHROM.1>
-11.41146404,-13.34378106,7.26371093,2.00752610,-1.24844230,2.12338115

>  <Name>
ligand

>  <RI>
0

>  <Rbt.Current_Directory>
/home/itssahil/PROJECTS/Mol_Feturizer/Test_systems_manuscript/rnas/2b57

>  <Rbt.Executable>
rbdock ($Id: //depot/dev/client3/rdock/2013.1/src/exe/rbdock.cxx#4 $)

>  <Rbt.Library>
libRbt.so (2013.1, Build901 2013/11/27)

>  <Rbt.Parameter_File>
/export/apps/rDock/src/rDock_2013.1_src/data/scripts/dock_solv.prm

>  <Rbt.Receptor>
prm/pocket_docking_6.prm

>  <SCORE>
-11.5489

>  <SCORE.INTER>
-11.5489

>  <SCORE.INTER.CONST>
1

>  <SCORE.INTER.POLAR>
0

>  <SCORE.INTER.ROT>
0

>  <SCORE.INTER.SOLV>
21.5105

>  <SCORE.INTER.VDW>
-18.4695

>  <SCORE.INTER.norm>
-1.0499

>  <SCORE.INTRA>
0

>  <SCORE.INTRA.DIHEDRAL>
0

>  <SCORE.INTRA.DIHEDRAL.0>
0

>  <SCORE.INTRA.POLAR>
0

>  <SCORE.INTRA.POLAR.0>
0

>  <SCORE.INTRA.REPUL>
0

>  <SCORE.INTRA.REPUL.0>
0

>  <SCORE.INTRA.SOLV>
0

>  <SCORE.INTRA.SOLV.lig_0>
-48.3454

>  <SCORE.INTRA.VDW>
0

>  <SCORE.INTRA.VDW.0>
0

>  <SCORE.INTRA.norm>
0

>  <SCORE.RESTR>
0

>  <SCORE.RESTR.CAVITY>
0

>  <SCORE.RESTR.norm>
0

>  <SCORE.SYSTEM>
0

>  <SCORE.SYSTEM.CONST>
0

>  <SCORE.SYSTEM.DIHEDRAL>
0

>  <SCORE.SYSTEM.SOLV>
0

>  <SCORE.SYSTEM.norm>
0

>  <SCORE.heavy>
11

>  <SCORE.norm>
-1.0499

>  <RMSD>
0.600

$$$$
ligand
 OpenBabel02271912153D
libRbt.so/2013.1/901 2013/11/27
 11 12  0  0  0  0  0  0  0  0999 V2000
  -11.8410  -12.7765    8.8693 N   0  0  0  0  0  0  0  0  0  0  0  0
  -11.4826  -14.0675    8.9567 C   0  0  0  0  0  0  0  0  0  0  0  0
  -11.4990  -14.6790   10.1377 N   0  0  0  0  0  0  0  0  0  0  0  0
  -11.0976  -14.7445    7.8637 N   0  0  0  0  0  0  0  0  0  0  0  0
  -11.0605  -14.1446    6.6646 C   0  0  0  0  0  0  0  0  0  0  0  0
  -11.4261  -12.8097    6.5464 C   0  0  0  0  0  0  0  0  0  0  0  0
  -11.8239  -12.1301    7.6930 C   0  0  0  0  0  0  0  0  0  0  0  0
  -12.1913  -10.8540    7.6237 N   0  0  0  0  0  0  0  0  0  0  0  0
  -11.2848  -12.4678    5.2692 N   0  0  0  0  0  0  0  0  0  0  0  0
  -10.8488  -13.5371    4.6071 C   0  0  0  0  0  0  0  0  0  0  0  0
  -10.7113  -14.5585    5.4500 N   0  0  0  0  0  0  0  0  0  0  0  0
  1  7  2  0  0  0  0
  1  2  1  0  0  0  0
  2  3  1  0  0  0  0
  2  4  2  0  0  0  0
  4  5  1  0  0  0  0
  5  6  2  0  0  0  0
  5 11  1  0  0  0  0
  6  7  1  0  0  0  0
  6  9  1  0  0  0  0
  7  8  1  0  0  0  0
  9 10  1  0  0  0  0
 10 11  2  0  0  0  0
M  END
>  <CHROM.1>
-11.39201942,-13.34300552,7.26801178,1.99803983,-1.23979374,2.11676596

>  <Name>
ligand

>  <RI>
0

>  <Rbt.Current_Directory>
/home/itssahil/PROJECTS/Mol_Feturizer/Test_systems_manuscript/rnas/2b57

>  <Rbt.Executable>
rbdock ($Id: //depot/dev/client3/rdock/2013.1/src/exe/rbdock.cxx#4 $)

>  <Rbt.Library>
libRbt.so (2013.1, Build901 2013/11/27)

>  <Rbt.Parameter_File>
/export/apps/rDock/src/rDock_2013.1_src/data/scripts/dock_solv.prm

>  <Rbt.Receptor>
prm/pocket_docking_7.prm

>  <SCORE>
-11.4789

>  <SCORE.INTER>
-11.4789

>  <SCORE.INTER.CONST>
1

>  <SCORE.INTER.POLAR>
0

>  <SCORE.INTER.ROT>
0

>  <SCORE.INTER.SOLV>
21.4917

>  <SCORE.INTER.VDW>
-18.4165

>  <SCORE.INTER.norm>
-1.04354

>  <SCORE.INTRA>
0

>  <SCORE.INTRA.DIHEDRAL>
0

>  <SCORE.INTRA.DIHEDRAL.0>
0

>  <SCORE.INTRA.POLAR>
0

>  <SCORE.INTRA.POLAR.0>
0

>  <SCORE.INTRA.REPUL>
0

>  <SCORE.INTRA.REPUL.0>
0

>  <SCORE.INTRA.SOLV>
0

>  <SCORE.INTRA.SOLV.lig_0>
-48.3454

>  <SCORE.INTRA.VDW>
0

>  <SCORE.INTRA.VDW.0>
0

>  <SCORE.INTRA.norm>
0

>  <SCORE.RESTR>
0

>  <SCORE.RESTR.CAVITY>
0

>  <SCORE.RESTR.norm>
0

>  <SCORE.SYSTEM>
0

>  <SCORE.SYSTEM.CONST>
0

>  <SCORE.SYSTEM.DIHEDRAL>
0

>  <SCORE.SYSTEM.SOLV>
0

>  <SCORE.SYSTEM.norm>
0

>  <SCORE.heavy>
11

>  <SCORE.norm>
-1.04354

>  <RMSD>
0.600

$$$$
ligand
 OpenBabel02271912153D
libRbt.so/2013.1/901 2013/11/27
 11 12  0  0  0  0  0  0  0  0999 V2000
  -11.9176  -12.6965    8.8272 N   0  0  0  0  0  0  0  0  0  0  0  0
  -11.5972  -13.9953    8.9429 C   0  0  0  0  0  0  0  0  0  0  0  0
  -11.6533  -14.5858   10.1334 N   0  0  0  0  0  0  0  0  0  0  0  0
  -11.2105  -14.7012    7.8691 N   0  0  0  0  0  0  0  0  0  0  0  0
  -11.1336  -14.1233    6.6612 C   0  0  0  0  0  0  0  0  0  0  0  0
  -11.4594  -12.7810    6.5137 C   0  0  0  0  0  0  0  0  0  0  0  0
  -11.8598  -12.0711    7.6408 C   0  0  0  0  0  0  0  0  0  0  0  0
  -12.1900  -10.7867    7.5432 N   0  0  0  0  0  0  0  0  0  0  0  0
  -11.2841  -12.4649    5.2341 N   0  0  0  0  0  0  0  0  0  0  0  0
  -10.8656  -13.5571    4.5984 C   0  0  0  0  0  0  0  0  0  0  0  0
  -10.7730  -14.5673    5.4606 N   0  0  0  0  0  0  0  0  0  0  0  0
  1  7  2  0  0  0  0
  1  2  1  0  0  0  0
  2  3  1  0  0  0  0
  2  4  2  0  0  0  0
  4  5  1  0  0  0  0
  5  6  2  0  0  0  0
  5 11  1  0  0  0  0
  6  7  1  0  0  0  0
  6  9  1  0  0  0  0
  7  8  1  0  0  0  0
  9 10  1  0  0  0  0
 10 11  2  0  0  0  0
M  END
>  <CHROM.1>
-11.45407786,-13.30254557,7.24459193,2.09690948,-1.25234293,2.19364172

>  <Name>
ligand

>  <RI>
0

>  <Rbt.Current_Directory>
/home/itssahil/PROJECTS/Mol_Feturizer/Test_systems_manuscript/rnas/2b57

>  <Rbt.Executable>
rbdock ($Id: //depot/dev/client3/rdock/2013.1/src/exe/rbdock.cxx#4 $)

>  <Rbt.Library>
libRbt.so (2013.1, Build901 2013/11/27)

>  <Rbt.Parameter_File>
/export/apps/rDock/src/rDock_2013.1_src/data/scripts/dock_solv.prm

>  <Rbt.Receptor>
prm/pocket_docking_7.prm

>  <SCORE>
-11.4111

>  <SCORE.INTER>
-11.4111

>  <SCORE.INTER.CONST>
1

>  <SCORE.INTER.POLAR>
0

>  <SCORE.INTER.ROT>
0

>  <SCORE.INTER.SOLV>
21.3942

>  <SCORE.INTER.VDW>
-18.3388

>  <SCORE.INTER.norm>
-1.03738

>  <SCORE.INTRA>
0

>  <SCORE.INTRA.DIHEDRAL>
0

>  <SCORE.INTRA.DIHEDRAL.0>
0

>  <SCORE.INTRA.POLAR>
0

>  <SCORE.INTRA.POLAR.0>
0

>  <SCORE.INTRA.REPUL>
0

>  <SCORE.INTRA.REPUL.0>
0

>  <SCORE.INTRA.SOLV>
0

>  <SCORE.INTRA.SOLV.lig_0>
-48.3454

>  <SCORE.INTRA.VDW>
0

>  <SCORE.INTRA.VDW.0>
0

>  <SCORE.INTRA.norm>
0

>  <SCORE.RESTR>
0

>  <SCORE.RESTR.CAVITY>
0

>  <SCORE.RESTR.norm>
0

>  <SCORE.SYSTEM>
0

>  <SCORE.SYSTEM.CONST>
0

>  <SCORE.SYSTEM.DIHEDRAL>
0

>  <SCORE.SYSTEM.SOLV>
0

>  <SCORE.SYSTEM.norm>
0

>  <SCORE.heavy>
11

>  <SCORE.norm>
-1.03738

>  <RMSD>
0.600

$$$$
ligand
 OpenBabel02271912153D
libRbt.so/2013.1/901 2013/11/27
 11 12  0  0  0  0  0  0  0  0999 V2000
  -11.8587  -12.7891    8.8698 N   0  0  0  0  0  0  0  0  0  0  0  0
  -11.5138  -14.0845    8.9438 C   0  0  0  0  0  0  0  0  0  0  0  0
  -11.5398  -14.7088   10.1179 N   0  0  0  0  0  0  0  0  0  0  0  0
  -11.1328  -14.7533    7.8444 N   0  0  0  0  0  0  0  0  0  0  0  0
  -11.0861  -14.1407    6.6522 C   0  0  0  0  0  0  0  0  0  0  0  0
  -11.4377  -12.8009    6.5477 C   0  0  0  0  0  0  0  0  0  0  0  0
  -11.8317  -12.1299    7.7007 C   0  0  0  0  0  0  0  0  0  0  0  0
  -12.1858  -10.8495    7.6445 N   0  0  0  0  0  0  0  0  0  0  0  0
  -11.2893  -12.4463    5.2748 N   0  0  0  0  0  0  0  0  0  0  0  0
  -10.8624  -13.5127    4.6021 C   0  0  0  0  0  0  0  0  0  0  0  0
  -10.7378  -14.5447    5.4339 N   0  0  0  0  0  0  0  0  0  0  0  0
  1  7  2  0  0  0  0
  1  2  1  0  0  0  0
  2  3  1  0  0  0  0
  2  4  2  0  0  0  0
  4  5  1  0  0  0  0
  5  6  2  0  0  0  0
  5 11  1  0  0  0  0
  6  7  1  0  0  0  0
  6  9  1  0  0  0  0
  7  8  1  0  0  0  0
  9 10  1  0  0  0  0
 10 11  2  0  0  0  0
M  END
>  <CHROM.1>
-11.41109797,-13.34242628,7.26348152,2.02226725,-1.24701517,2.15076034

>  <Name>
ligand

>  <RI>
0

>  <Rbt.Current_Directory>
/home/itssahil/PROJECTS/Mol_Feturizer/Test_systems_manuscript/rnas/2b57

>  <Rbt.Executable>
rbdock ($Id: //depot/dev/client3/rdock/2013.1/src/exe/rbdock.cxx#4 $)

>  <Rbt.Library>
libRbt.so (2013.1, Build901 2013/11/27)

>  <Rbt.Parameter_File>
/export/apps/rDock/src/rDock_2013.1_src/data/scripts/dock_solv.prm

>  <Rbt.Receptor>
prm/blind_docking_100.prm

>  <SCORE>
-11.4923

>  <SCORE.INTER>
-11.4923

>  <SCORE.INTER.CONST>
1

>  <SCORE.INTER.POLAR>
0

>  <SCORE.INTER.ROT>
0

>  <SCORE.INTER.SOLV>
21.5868

>  <SCORE.INTER.VDW>
-18.4571

>  <SCORE.INTER.norm>
-1.04475

>  <SCORE.INTRA>
0

>  <SCORE.INTRA.DIHEDRAL>
0

>  <SCORE.INTRA.DIHEDRAL.0>
0

>  <SCORE.INTRA.POLAR>
0

>  <SCORE.INTRA.POLAR.0>
0

>  <SCORE.INTRA.REPUL>
0

>  <SCORE.INTRA.REPUL.0>
0

>  <SCORE.INTRA.SOLV>
0

>  <SCORE.INTRA.SOLV.lig_0>
-48.3454

>  <SCORE.INTRA.VDW>
0

>  <SCORE.INTRA.VDW.0>
0

>  <SCORE.INTRA.norm>
0

>  <SCORE.RESTR>
0

>  <SCORE.RESTR.CAVITY>
0

>  <SCORE.RESTR.norm>
0

>  <SCORE.SYSTEM>
0

>  <SCORE.SYSTEM.CONST>
0

>  <SCORE.SYSTEM.DIHEDRAL>
0

>  <SCORE.SYSTEM.SOLV>
0

>  <SCORE.SYSTEM.norm>
0

>  <SCORE.heavy>
11

>  <SCORE.norm>
-1.04475

>  <RMSD>
0.601

$$$$
ligand
 OpenBabel02271912153D
libRbt.so/2013.1/901 2013/11/27
 11 12  0  0  0  0  0  0  0  0999 V2000
  -11.8505  -12.7686    8.8648 N   0  0  0  0  0  0  0  0  0  0  0  0
  -11.5014  -14.0621    8.9529 C   0  0  0  0  0  0  0  0  0  0  0  0
  -11.5161  -14.6711   10.1353 N   0  0  0  0  0  0  0  0  0  0  0  0
  -11.1273  -14.7442    7.8593 N   0  0  0  0  0  0  0  0  0  0  0  0
  -11.0919  -14.1471    6.6589 C   0  0  0  0  0  0  0  0  0  0  0  0
  -11.4481  -12.8097    6.5398 C   0  0  0  0  0  0  0  0  0  0  0  0
  -11.8347  -12.1247    7.6870 C   0  0  0  0  0  0  0  0  0  0  0  0
  -12.1928  -10.8461    7.6170 N   0  0  0  0  0  0  0  0  0  0  0  0
  -11.3109  -12.4714    5.2612 N   0  0  0  0  0  0  0  0  0  0  0  0
  -10.8865  -13.5453    4.5990 C   0  0  0  0  0  0  0  0  0  0  0  0
  -10.7522  -14.5660    5.4432 N   0  0  0  0  0  0  0  0  0  0  0  0
  1  7  2  0  0  0  0
  1  2  1  0  0  0  0
  2  3  1  0  0  0  0
  2  4  2  0  0  0  0
  4  5  1  0  0  0  0
  5  6  2  0  0  0  0
  5 11  1  0  0  0  0
  6  7  1  0  0  0  0
  6  9  1  0  0  0  0
  7  8  1  0  0  0  0
  9 10  1  0  0  0  0
 10 11  2  0  0  0  0
M  END
>  <CHROM.1>
-11.41421637,-13.34173262,7.26231231,1.99616653,-1.24896139,2.11294676

>  <Name>
ligand

>  <RI>
0

>  <Rbt.Current_Directory>
/home/itssahil/PROJECTS/Mol_Feturizer/Test_systems_manuscript/rnas/2b57

>  <Rbt.Executable>
rbdock ($Id: //depot/dev/client3/rdock/2013.1/src/exe/rbdock.cxx#4 $)

>  <Rbt.Library>
libRbt.so (2013.1, Build901 2013/11/27)

>  <Rbt.Parameter_File>
/export/apps/rDock/src/rDock_2013.1_src/data/scripts/dock_solv.prm

>  <Rbt.Receptor>
prm/blind_docking_60.prm

>  <SCORE>
-11.544

>  <SCORE.INTER>
-11.544

>  <SCORE.INTER.CONST>
1

>  <SCORE.INTER.POLAR>
0

>  <SCORE.INTER.ROT>
0

>  <SCORE.INTER.SOLV>
21.4965

>  <SCORE.INTER.VDW>
-18.4615

>  <SCORE.INTER.norm>
-1.04945

>  <SCORE.INTRA>
0

>  <SCORE.INTRA.DIHEDRAL>
0

>  <SCORE.INTRA.DIHEDRAL.0>
0

>  <SCORE.INTRA.POLAR>
0

>  <SCORE.INTRA.POLAR.0>
0

>  <SCORE.INTRA.REPUL>
0

>  <SCORE.INTRA.REPUL.0>
0

>  <SCORE.INTRA.SOLV>
0

>  <SCORE.INTRA.SOLV.lig_0>
-48.3454

>  <SCORE.INTRA.VDW>
0

>  <SCORE.INTRA.VDW.0>
0

>  <SCORE.INTRA.norm>
0

>  <SCORE.RESTR>
0

>  <SCORE.RESTR.CAVITY>
0

>  <SCORE.RESTR.norm>
0

>  <SCORE.SYSTEM>
0

>  <SCORE.SYSTEM.CONST>
0

>  <SCORE.SYSTEM.DIHEDRAL>
0

>  <SCORE.SYSTEM.SOLV>
0

>  <SCORE.SYSTEM.norm>
0

>  <SCORE.heavy>
11

>  <SCORE.norm>
-1.04945

>  <RMSD>
0.601

$$$$
ligand
 OpenBabel02271912153D
libRbt.so/2013.1/901 2013/11/27
 11 12  0  0  0  0  0  0  0  0999 V2000
  -11.8669  -12.7873    8.8682 N   0  0  0  0  0  0  0  0  0  0  0  0
  -11.5187  -14.0815    8.9491 C   0  0  0  0  0  0  0  0  0  0  0  0
  -11.5336  -14.6970   10.1281 N   0  0  0  0  0  0  0  0  0  0  0  0
  -11.1455  -14.7578    7.8517 N   0  0  0  0  0  0  0  0  0  0  0  0
  -11.1100  -14.1541    6.6545 C   0  0  0  0  0  0  0  0  0  0  0  0
  -11.4651  -12.8158    6.5429 C   0  0  0  0  0  0  0  0  0  0  0  0
  -11.8508  -12.1369    7.6940 C   0  0  0  0  0  0  0  0  0  0  0  0
  -12.2080  -10.8576    7.6312 N   0  0  0  0  0  0  0  0  0  0  0  0
  -11.3281  -12.4706    5.2662 N   0  0  0  0  0  0  0  0  0  0  0  0
  -10.9046  -13.5411    4.5979 C   0  0  0  0  0  0  0  0  0  0  0  0
  -10.7709  -14.5666    5.4365 N   0  0  0  0  0  0  0  0  0  0  0  0
  1  7  2  0  0  0  0
  1  2  1  0  0  0  0
  2  3  1  0  0  0  0
  2  4  2  0  0  0  0
  4  5  1  0  0  0  0
  5  6  2  0  0  0  0
  5 11  1  0  0  0  0
  6  7  1  0  0  0  0
  6  9  1  0  0  0  0
  7  8  1  0  0  0  0
  9 10  1  0  0  0  0
 10 11  2  0  0  0  0
M  END
>  <CHROM.1>
-11.43145314,-13.35185676,7.26246746,1.99670751,-1.24978084,2.11898322

>  <Name>
ligand

>  <RI>
0

>  <Rbt.Current_Directory>
/home/itssahil/PROJECTS/Mol_Feturizer/Test_systems_manuscript/rnas/2b57

>  <Rbt.Executable>
rbdock ($Id: //depot/dev/client3/rdock/2013.1/src/exe/rbdock.cxx#4 $)

>  <Rbt.Library>
libRbt.so (2013.1, Build901 2013/11/27)

>  <Rbt.Parameter_File>
/export/apps/rDock/src/rDock_2013.1_src/data/scripts/dock_solv.prm

>  <Rbt.Receptor>
prm/pocket_docking_7.prm

>  <SCORE>
-11.5479

>  <SCORE.INTER>
-11.5479

>  <SCORE.INTER.CONST>
1

>  <SCORE.INTER.POLAR>
0

>  <SCORE.INTER.ROT>
0

>  <SCORE.INTER.SOLV>
21.4913

>  <SCORE.INTER.VDW>
-18.4624

>  <SCORE.INTER.norm>
-1.04981

>  <SCORE.INTRA>
0

>  <SCORE.INTRA.DIHEDRAL>
0

>  <SCORE.INTRA.DIHEDRAL.0>
0

>  <SCORE.INTRA.POLAR>
0

>  <SCORE.INTRA.POLAR.0>
0

>  <SCORE.INTRA.REPUL>
0

>  <SCORE.INTRA.REPUL.0>
0

>  <SCORE.INTRA.SOLV>
0

>  <SCORE.INTRA.SOLV.lig_0>
-48.3454

>  <SCORE.INTRA.VDW>
0

>  <SCORE.INTRA.VDW.0>
0

>  <SCORE.INTRA.norm>
0

>  <SCORE.RESTR>
0

>  <SCORE.RESTR.CAVITY>
0

>  <SCORE.RESTR.norm>
0

>  <SCORE.SYSTEM>
0

>  <SCORE.SYSTEM.CONST>
0

>  <SCORE.SYSTEM.DIHEDRAL>
0

>  <SCORE.SYSTEM.SOLV>
0

>  <SCORE.SYSTEM.norm>
0

>  <SCORE.heavy>
11

>  <SCORE.norm>
-1.04981

>  <RMSD>
0.601

$$$$
ligand
 OpenBabel02271912153D
libRbt.so/2013.1/901 2013/11/27
 11 12  0  0  0  0  0  0  0  0999 V2000
  -11.8500  -12.7897    8.8706 N   0  0  0  0  0  0  0  0  0  0  0  0
  -11.5055  -14.0845    8.9578 C   0  0  0  0  0  0  0  0  0  0  0  0
  -11.5295  -14.6962   10.1386 N   0  0  0  0  0  0  0  0  0  0  0  0
  -11.1269  -14.7652    7.8649 N   0  0  0  0  0  0  0  0  0  0  0  0
  -11.0822  -14.1654    6.6661 C   0  0  0  0  0  0  0  0  0  0  0  0
  -11.4334  -12.8266    6.5480 C   0  0  0  0  0  0  0  0  0  0  0  0
  -11.8248  -12.1431    7.6945 C   0  0  0  0  0  0  0  0  0  0  0  0
  -12.1784  -10.8631    7.6253 N   0  0  0  0  0  0  0  0  0  0  0  0
  -11.2872  -12.4857    5.2711 N   0  0  0  0  0  0  0  0  0  0  0  0
  -10.8621  -13.5594    4.6090 C   0  0  0  0  0  0  0  0  0  0  0  0
  -10.7364  -14.5825    5.4516 N   0  0  0  0  0  0  0  0  0  0  0  0
  1  7  2  0  0  0  0
  1  2  1  0  0  0  0
  2  3  1  0  0  0  0
  2  4  2  0  0  0  0
  4  5  1  0  0  0  0
  5  6  2  0  0  0  0
  5 11  1  0  0  0  0
  6  7  1  0  0  0  0
  6  9  1  0  0  0  0
  7  8  1  0  0  0  0
  9 10  1  0  0  0  0
 10 11  2  0  0  0  0
M  END
>  <CHROM.1>
-11.40563249,-13.36043725,7.26948058,2.01809352,-1.24846966,2.13611774

>  <Name>
ligand

>  <RI>
0

>  <Rbt.Current_Directory>
/home/itssahil/PROJECTS/Mol_Feturizer/Test_systems_manuscript/rnas/2b57

>  <Rbt.Executable>
rbdock ($Id: //depot/dev/client3/rdock/2013.1/src/exe/rbdock.cxx#4 $)

>  <Rbt.Library>
libRbt.so (2013.1, Build901 2013/11/27)

>  <Rbt.Parameter_File>
/export/apps/rDock/src/rDock_2013.1_src/data/scripts/dock_solv.prm

>  <Rbt.Receptor>
prm/pocket_docking_8.prm

>  <SCORE>
-11.5733

>  <SCORE.INTER>
-11.5733

>  <SCORE.INTER.CONST>
1

>  <SCORE.INTER.POLAR>
0

>  <SCORE.INTER.ROT>
0

>  <SCORE.INTER.SOLV>
21.564

>  <SCORE.INTER.VDW>
-18.5035

>  <SCORE.INTER.norm>
-1.05212

>  <SCORE.INTRA>
0

>  <SCORE.INTRA.DIHEDRAL>
0

>  <SCORE.INTRA.DIHEDRAL.0>
0

>  <SCORE.INTRA.POLAR>
0

>  <SCORE.INTRA.POLAR.0>
0

>  <SCORE.INTRA.REPUL>
0

>  <SCORE.INTRA.REPUL.0>
0

>  <SCORE.INTRA.SOLV>
0

>  <SCORE.INTRA.SOLV.lig_0>
-48.3454

>  <SCORE.INTRA.VDW>
0

>  <SCORE.INTRA.VDW.0>
0

>  <SCORE.INTRA.norm>
0

>  <SCORE.RESTR>
0

>  <SCORE.RESTR.CAVITY>
0

>  <SCORE.RESTR.norm>
0

>  <SCORE.SYSTEM>
0

>  <SCORE.SYSTEM.CONST>
0

>  <SCORE.SYSTEM.DIHEDRAL>
0

>  <SCORE.SYSTEM.SOLV>
0

>  <SCORE.SYSTEM.norm>
0

>  <SCORE.heavy>
11

>  <SCORE.norm>
-1.05212

>  <RMSD>
0.601

$$$$
ligand
 OpenBabel02271912153D
libRbt.so/2013.1/901 2013/11/27
 11 12  0  0  0  0  0  0  0  0999 V2000
  -11.8469  -12.7670    8.8625 N   0  0  0  0  0  0  0  0  0  0  0  0
  -11.5011  -14.0609    8.9573 C   0  0  0  0  0  0  0  0  0  0  0  0
  -11.5246  -14.6657   10.1416 N   0  0  0  0  0  0  0  0  0  0  0  0
  -11.1216  -14.7475    7.8684 N   0  0  0  0  0  0  0  0  0  0  0  0
  -11.0774  -14.1546    6.6661 C   0  0  0  0  0  0  0  0  0  0  0  0
  -11.4299  -12.8169    6.5402 C   0  0  0  0  0  0  0  0  0  0  0  0
  -11.8222  -12.1272    7.6826 C   0  0  0  0  0  0  0  0  0  0  0  0
  -12.1771  -10.8480    7.6060 N   0  0  0  0  0  0  0  0  0  0  0  0
  -11.2840  -12.4833    5.2614 N   0  0  0  0  0  0  0  0  0  0  0  0
  -10.8577  -13.5604    4.6056 C   0  0  0  0  0  0  0  0  0  0  0  0
  -10.7309  -14.5785    5.4541 N   0  0  0  0  0  0  0  0  0  0  0  0
  1  7  2  0  0  0  0
  1  2  1  0  0  0  0
  2  3  1  0  0  0  0
  2  4  2  0  0  0  0
  4  5  1  0  0  0  0
  5  6  2  0  0  0  0
  5 11  1  0  0  0  0
  6  7  1  0  0  0  0
  6  9  1  0  0  0  0
  7  8  1  0  0  0  0
  9 10  1  0  0  0  0
 10 11  2  0  0  0  0
M  END
>  <CHROM.1>
-11.40172068,-13.34652213,7.26476503,2.01665577,-1.24750124,2.12893566

>  <Name>
ligand

>  <RI>
0

>  <Rbt.Current_Directory>
/home/itssahil/PROJECTS/Mol_Feturizer/Test_systems_manuscript/rnas/2b57

>  <Rbt.Executable>
rbdock ($Id: //depot/dev/client3/rdock/2013.1/src/exe/rbdock.cxx#4 $)

>  <Rbt.Library>
libRbt.so (2013.1, Build901 2013/11/27)

>  <Rbt.Parameter_File>
/export/apps/rDock/src/rDock_2013.1_src/data/scripts/dock_solv.prm

>  <Rbt.Receptor>
prm/pocket_docking_3.prm

>  <SCORE>
-11.5826

>  <SCORE.INTER>
-11.5826

>  <SCORE.INTER.CONST>
1

>  <SCORE.INTER.POLAR>
0

>  <SCORE.INTER.ROT>
0

>  <SCORE.INTER.SOLV>
21.5236

>  <SCORE.INTER.VDW>
-18.4963

>  <SCORE.INTER.norm>
-1.05296

>  <SCORE.INTRA>
0

>  <SCORE.INTRA.DIHEDRAL>
0

>  <SCORE.INTRA.DIHEDRAL.0>
0

>  <SCORE.INTRA.POLAR>
0

>  <SCORE.INTRA.POLAR.0>
0

>  <SCORE.INTRA.REPUL>
0

>  <SCORE.INTRA.REPUL.0>
0

>  <SCORE.INTRA.SOLV>
0

>  <SCORE.INTRA.SOLV.lig_0>
-48.3454

>  <SCORE.INTRA.VDW>
0

>  <SCORE.INTRA.VDW.0>
0

>  <SCORE.INTRA.norm>
0

>  <SCORE.RESTR>
0

>  <SCORE.RESTR.CAVITY>
0

>  <SCORE.RESTR.norm>
0

>  <SCORE.SYSTEM>
0

>  <SCORE.SYSTEM.CONST>
0

>  <SCORE.SYSTEM.DIHEDRAL>
0

>  <SCORE.SYSTEM.SOLV>
0

>  <SCORE.SYSTEM.norm>
0

>  <SCORE.heavy>
11

>  <SCORE.norm>
-1.05296

>  <RMSD>
0.602

$$$$
ligand
 OpenBabel02271912153D
libRbt.so/2013.1/901 2013/11/27
 11 12  0  0  0  0  0  0  0  0999 V2000
  -11.8393  -12.7702    8.8658 N   0  0  0  0  0  0  0  0  0  0  0  0
  -11.4989  -14.0660    8.9550 C   0  0  0  0  0  0  0  0  0  0  0  0
  -11.5291  -14.6770   10.1360 N   0  0  0  0  0  0  0  0  0  0  0  0
  -11.1181  -14.7483    7.8639 N   0  0  0  0  0  0  0  0  0  0  0  0
  -11.0672  -14.1492    6.6649 C   0  0  0  0  0  0  0  0  0  0  0  0
  -11.4140  -12.8095    6.5448 C   0  0  0  0  0  0  0  0  0  0  0  0
  -11.8078  -12.1243    7.6894 C   0  0  0  0  0  0  0  0  0  0  0  0
  -12.1575  -10.8434    7.6183 N   0  0  0  0  0  0  0  0  0  0  0  0
  -11.2621  -12.4697    5.2683 N   0  0  0  0  0  0  0  0  0  0  0  0
  -10.8376  -13.5450    4.6084 C   0  0  0  0  0  0  0  0  0  0  0  0
  -10.7180  -14.5680    5.4519 N   0  0  0  0  0  0  0  0  0  0  0  0
  1  7  2  0  0  0  0
  1  2  1  0  0  0  0
  2  3  1  0  0  0  0
  2  4  2  0  0  0  0
  4  5  1  0  0  0  0
  5  6  2  0  0  0  0
  5 11  1  0  0  0  0
  6  7  1  0  0  0  0
  6  9  1  0  0  0  0
  7  8  1  0  0  0  0
  9 10  1  0  0  0  0
 10 11  2  0  0  0  0
M  END
>  <CHROM.1>
-11.39056425,-13.34306265,7.26665627,2.03304894,-1.24883742,2.14978481

>  <Name>
ligand

>  <RI>
0

>  <Rbt.Current_Directory>
/home/itssahil/PROJECTS/Mol_Feturizer/Test_systems_manuscript/rnas/2b57

>  <Rbt.Executable>
rbdock ($Id: //depot/dev/client3/rdock/2013.1/src/exe/rbdock.cxx#4 $)

>  <Rbt.Library>
libRbt.so (2013.1, Build901 2013/11/27)

>  <Rbt.Parameter_File>
/export/apps/rDock/src/rDock_2013.1_src/data/scripts/dock_solv.prm

>  <Rbt.Receptor>
prm/pocket_docking_3.prm

>  <SCORE>
-11.4866

>  <SCORE.INTER>
-11.4866

>  <SCORE.INTER.CONST>
1

>  <SCORE.INTER.POLAR>
0

>  <SCORE.INTER.ROT>
0

>  <SCORE.INTER.SOLV>
21.6116

>  <SCORE.INTER.VDW>
-18.4616

>  <SCORE.INTER.norm>
-1.04424

>  <SCORE.INTRA>
0

>  <SCORE.INTRA.DIHEDRAL>
0

>  <SCORE.INTRA.DIHEDRAL.0>
0

>  <SCORE.INTRA.POLAR>
0

>  <SCORE.INTRA.POLAR.0>
0

>  <SCORE.INTRA.REPUL>
0

>  <SCORE.INTRA.REPUL.0>
0

>  <SCORE.INTRA.SOLV>
0

>  <SCORE.INTRA.SOLV.lig_0>
-48.3454

>  <SCORE.INTRA.VDW>
0

>  <SCORE.INTRA.VDW.0>
0

>  <SCORE.INTRA.norm>
0

>  <SCORE.RESTR>
0

>  <SCORE.RESTR.CAVITY>
0

>  <SCORE.RESTR.norm>
0

>  <SCORE.SYSTEM>
0

>  <SCORE.SYSTEM.CONST>
0

>  <SCORE.SYSTEM.DIHEDRAL>
0

>  <SCORE.SYSTEM.SOLV>
0

>  <SCORE.SYSTEM.norm>
0

>  <SCORE.heavy>
11

>  <SCORE.norm>
-1.04424

>  <RMSD>
0.602

$$$$
ligand
 OpenBabel02271912153D
libRbt.so/2013.1/901 2013/11/27
 11 12  0  0  0  0  0  0  0  0999 V2000
  -11.8387  -12.7634    8.8676 N   0  0  0  0  0  0  0  0  0  0  0  0
  -11.5054  -14.0613    8.9523 C   0  0  0  0  0  0  0  0  0  0  0  0
  -11.5263  -14.6728   10.1332 N   0  0  0  0  0  0  0  0  0  0  0  0
  -11.1409  -14.7453    7.8567 N   0  0  0  0  0  0  0  0  0  0  0  0
  -11.0996  -14.1459    6.6576 C   0  0  0  0  0  0  0  0  0  0  0  0
  -11.4395  -12.8040    6.5420 C   0  0  0  0  0  0  0  0  0  0  0  0
  -11.8163  -12.1170    7.6913 C   0  0  0  0  0  0  0  0  0  0  0  0
  -12.1588  -10.8339    7.6247 N   0  0  0  0  0  0  0  0  0  0  0  0
  -11.2996  -12.4644    5.2641 N   0  0  0  0  0  0  0  0  0  0  0  0
  -10.8891  -13.5419    4.5989 C   0  0  0  0  0  0  0  0  0  0  0  0
  -10.7664  -14.5661    5.4406 N   0  0  0  0  0  0  0  0  0  0  0  0
  1  7  2  0  0  0  0
  1  2  1  0  0  0  0
  2  3  1  0  0  0  0
  2  4  2  0  0  0  0
  4  5  1  0  0  0  0
  5  6  2  0  0  0  0
  5 11  1  0  0  0  0
  6  7  1  0  0  0  0
  6  9  1  0  0  0  0
  7  8  1  0  0  0  0
  9 10  1  0  0  0  0
 10 11  2  0  0  0  0
M  END
>  <CHROM.1>
-11.41128458,-13.33808398,7.26328348,2.01373818,-1.26003097,2.13199566

>  <Name>
ligand

>  <RI>
0

>  <Rbt.Current_Directory>
/home/itssahil/PROJECTS/Mol_Feturizer/Test_systems_manuscript/rnas/2b57

>  <Rbt.Executable>
rbdock ($Id: //depot/dev/client3/rdock/2013.1/src/exe/rbdock.cxx#4 $)

>  <Rbt.Library>
libRbt.so (2013.1, Build901 2013/11/27)

>  <Rbt.Parameter_File>
/export/apps/rDock/src/rDock_2013.1_src/data/scripts/dock_solv.prm

>  <Rbt.Receptor>
prm/pocket_docking_3.prm

>  <SCORE>
-11.5423

>  <SCORE.INTER>
-11.5423

>  <SCORE.INTER.CONST>
1

>  <SCORE.INTER.POLAR>
0

>  <SCORE.INTER.ROT>
0

>  <SCORE.INTER.SOLV>
21.6335

>  <SCORE.INTER.VDW>
-18.506

>  <SCORE.INTER.norm>
-1.0493

>  <SCORE.INTRA>
0

>  <SCORE.INTRA.DIHEDRAL>
0

>  <SCORE.INTRA.DIHEDRAL.0>
0

>  <SCORE.INTRA.POLAR>
0

>  <SCORE.INTRA.POLAR.0>
0

>  <SCORE.INTRA.REPUL>
0

>  <SCORE.INTRA.REPUL.0>
0

>  <SCORE.INTRA.SOLV>
0

>  <SCORE.INTRA.SOLV.lig_0>
-48.3454

>  <SCORE.INTRA.VDW>
0

>  <SCORE.INTRA.VDW.0>
0

>  <SCORE.INTRA.norm>
0

>  <SCORE.RESTR>
0

>  <SCORE.RESTR.CAVITY>
0

>  <SCORE.RESTR.norm>
0

>  <SCORE.SYSTEM>
0

>  <SCORE.SYSTEM.CONST>
0

>  <SCORE.SYSTEM.DIHEDRAL>
0

>  <SCORE.SYSTEM.SOLV>
0

>  <SCORE.SYSTEM.norm>
0

>  <SCORE.heavy>
11

>  <SCORE.norm>
-1.0493

>  <RMSD>
0.602

$$$$
ligand
 OpenBabel02271912153D
libRbt.so/2013.1/901 2013/11/27
 11 12  0  0  0  0  0  0  0  0999 V2000
  -11.8481  -12.7675    8.8618 N   0  0  0  0  0  0  0  0  0  0  0  0
  -11.4914  -14.0590    8.9484 C   0  0  0  0  0  0  0  0  0  0  0  0
  -11.5118  -14.6722   10.1284 N   0  0  0  0  0  0  0  0  0  0  0  0
  -11.1040  -14.7348    7.8555 N   0  0  0  0  0  0  0  0  0  0  0  0
  -11.0627  -14.1333    6.6574 C   0  0  0  0  0  0  0  0  0  0  0  0
  -11.4265  -12.7979    6.5400 C   0  0  0  0  0  0  0  0  0  0  0  0
  -11.8268  -12.1194    7.6864 C   0  0  0  0  0  0  0  0  0  0  0  0
  -12.1926  -10.8429    7.6179 N   0  0  0  0  0  0  0  0  0  0  0  0
  -11.2811  -12.4542    5.2638 N   0  0  0  0  0  0  0  0  0  0  0  0
  -10.8443  -13.5231    4.6014 C   0  0  0  0  0  0  0  0  0  0  0  0
  -10.7104  -14.5458    5.4432 N   0  0  0  0  0  0  0  0  0  0  0  0
  1  7  2  0  0  0  0
  1  2  1  0  0  0  0
  2  3  1  0  0  0  0
  2  4  2  0  0  0  0
  4  5  1  0  0  0  0
  5  6  2  0  0  0  0
  5 11  1  0  0  0  0
  6  7  1  0  0  0  0
  6  9  1  0  0  0  0
  7  8  1  0  0  0  0
  9 10  1  0  0  0  0
 10 11  2  0  0  0  0
M  END
>  <CHROM.1>
-11.39507115,-13.33220878,7.26100345,2.00741214,-1.23920845,2.12706837

>  <Name>
ligand

>  <RI>
0

>  <Rbt.Current_Directory>
/home/itssahil/PROJECTS/Mol_Feturizer/Test_systems_manuscript/rnas/2b57

>  <Rbt.Executable>
rbdock ($Id: //depot/dev/client3/rdock/2013.1/src/exe/rbdock.cxx#4 $)

>  <Rbt.Library>
libRbt.so (2013.1, Build901 2013/11/27)

>  <Rbt.Parameter_File>
/export/apps/rDock/src/rDock_2013.1_src/data/scripts/dock_solv.prm

>  <Rbt.Receptor>
prm/pocket_docking_4.prm

>  <SCORE>
-11.4856

>  <SCORE.INTER>
-11.4856

>  <SCORE.INTER.CONST>
1

>  <SCORE.INTER.POLAR>
0

>  <SCORE.INTER.ROT>
0

>  <SCORE.INTER.SOLV>
21.4862

>  <SCORE.INTER.VDW>
-18.4191

>  <SCORE.INTER.norm>
-1.04414

>  <SCORE.INTRA>
0

>  <SCORE.INTRA.DIHEDRAL>
0

>  <SCORE.INTRA.DIHEDRAL.0>
0

>  <SCORE.INTRA.POLAR>
0

>  <SCORE.INTRA.POLAR.0>
0

>  <SCORE.INTRA.REPUL>
0

>  <SCORE.INTRA.REPUL.0>
0

>  <SCORE.INTRA.SOLV>
0

>  <SCORE.INTRA.SOLV.lig_0>
-48.3454

>  <SCORE.INTRA.VDW>
0

>  <SCORE.INTRA.VDW.0>
0

>  <SCORE.INTRA.norm>
0

>  <SCORE.RESTR>
0

>  <SCORE.RESTR.CAVITY>
0

>  <SCORE.RESTR.norm>
0

>  <SCORE.SYSTEM>
0

>  <SCORE.SYSTEM.CONST>
0

>  <SCORE.SYSTEM.DIHEDRAL>
0

>  <SCORE.SYSTEM.SOLV>
0

>  <SCORE.SYSTEM.norm>
0

>  <SCORE.heavy>
11

>  <SCORE.norm>
-1.04414

>  <RMSD>
0.602

$$$$
ligand
 OpenBabel02271912153D
libRbt.so/2013.1/901 2013/11/27
 11 12  0  0  0  0  0  0  0  0999 V2000
  -11.8634  -12.7435    8.8550 N   0  0  0  0  0  0  0  0  0  0  0  0
  -11.5002  -14.0338    8.9313 C   0  0  0  0  0  0  0  0  0  0  0  0
  -11.5191  -14.6569   10.1062 N   0  0  0  0  0  0  0  0  0  0  0  0
  -11.1080  -14.6986    7.8334 N   0  0  0  0  0  0  0  0  0  0  0  0
  -11.0682  -14.0869    6.6404 C   0  0  0  0  0  0  0  0  0  0  0  0
  -11.4387  -12.7523    6.5336 C   0  0  0  0  0  0  0  0  0  0  0  0
  -11.8439  -12.0855    7.6851 C   0  0  0  0  0  0  0  0  0  0  0  0
  -12.2160  -10.8103    7.6268 N   0  0  0  0  0  0  0  0  0  0  0  0
  -11.2934  -12.3974    5.2605 N   0  0  0  0  0  0  0  0  0  0  0  0
  -10.8503  -13.4584    4.5898 C   0  0  0  0  0  0  0  0  0  0  0  0
  -10.7123  -14.4875    5.4232 N   0  0  0  0  0  0  0  0  0  0  0  0
  1  7  2  0  0  0  0
  1  2  1  0  0  0  0
  2  3  1  0  0  0  0
  2  4  2  0  0  0  0
  4  5  1  0  0  0  0
  5  6  2  0  0  0  0
  5 11  1  0  0  0  0
  6  7  1  0  0  0  0
  6  9  1  0  0  0  0
  7  8  1  0  0  0  0
  9 10  1  0  0  0  0
 10 11  2  0  0  0  0
M  END
>  <CHROM.1>
-11.40546177,-13.29250228,7.25018232,2.00263830,-1.23423554,2.13088556

>  <Name>
ligand

>  <RI>
0

>  <Rbt.Current_Directory>
/home/itssahil/PROJECTS/Mol_Feturizer/Test_systems_manuscript/rnas/2b57

>  <Rbt.Executable>
rbdock ($Id: //depot/dev/client3/rdock/2013.1/src/exe/rbdock.cxx#4 $)

>  <Rbt.Library>
libRbt.so (2013.1, Build901 2013/11/27)

>  <Rbt.Parameter_File>
/export/apps/rDock/src/rDock_2013.1_src/data/scripts/dock_solv.prm

>  <Rbt.Receptor>
prm/pocket_docking_4.prm

>  <SCORE>
-11.4452

>  <SCORE.INTER>
-11.4452

>  <SCORE.INTER.CONST>
1

>  <SCORE.INTER.POLAR>
0

>  <SCORE.INTER.ROT>
0

>  <SCORE.INTER.SOLV>
21.4286

>  <SCORE.INTER.VDW>
-18.373

>  <SCORE.INTER.norm>
-1.04047

>  <SCORE.INTRA>
0

>  <SCORE.INTRA.DIHEDRAL>
0

>  <SCORE.INTRA.DIHEDRAL.0>
0

>  <SCORE.INTRA.POLAR>
0

>  <SCORE.INTRA.POLAR.0>
0

>  <SCORE.INTRA.REPUL>
0

>  <SCORE.INTRA.REPUL.0>
0

>  <SCORE.INTRA.SOLV>
0

>  <SCORE.INTRA.SOLV.lig_0>
-48.3454

>  <SCORE.INTRA.VDW>
0

>  <SCORE.INTRA.VDW.0>
0

>  <SCORE.INTRA.norm>
0

>  <SCORE.RESTR>
0

>  <SCORE.RESTR.CAVITY>
0

>  <SCORE.RESTR.norm>
0

>  <SCORE.SYSTEM>
0

>  <SCORE.SYSTEM.CONST>
0

>  <SCORE.SYSTEM.DIHEDRAL>
0

>  <SCORE.SYSTEM.SOLV>
0

>  <SCORE.SYSTEM.norm>
0

>  <SCORE.heavy>
11

>  <SCORE.norm>
-1.04047

>  <RMSD>
0.602

$$$$
ligand
 OpenBabel02271912153D
libRbt.so/2013.1/901 2013/11/27
 11 12  0  0  0  0  0  0  0  0999 V2000
  -11.8656  -12.7474    8.8553 N   0  0  0  0  0  0  0  0  0  0  0  0
  -11.5083  -14.0394    8.9316 C   0  0  0  0  0  0  0  0  0  0  0  0
  -11.5270  -14.6615   10.1071 N   0  0  0  0  0  0  0  0  0  0  0  0
  -11.1221  -14.7068    7.8332 N   0  0  0  0  0  0  0  0  0  0  0  0
  -11.0827  -14.0962    6.6396 C   0  0  0  0  0  0  0  0  0  0  0  0
  -11.4471  -12.7600    6.5328 C   0  0  0  0  0  0  0  0  0  0  0  0
  -11.8462  -12.0904    7.6848 C   0  0  0  0  0  0  0  0  0  0  0  0
  -12.2125  -10.8135    7.6265 N   0  0  0  0  0  0  0  0  0  0  0  0
  -11.3036  -12.4067    5.2590 N   0  0  0  0  0  0  0  0  0  0  0  0
  -10.8673  -13.4704    4.5880 C   0  0  0  0  0  0  0  0  0  0  0  0
  -10.7318  -14.4994    5.4218 N   0  0  0  0  0  0  0  0  0  0  0  0
  1  7  2  0  0  0  0
  1  2  1  0  0  0  0
  2  3  1  0  0  0  0
  2  4  2  0  0  0  0
  4  5  1  0  0  0  0
  5  6  2  0  0  0  0
  5 11  1  0  0  0  0
  6  7  1  0  0  0  0
  6  9  1  0  0  0  0
  7  8  1  0  0  0  0
  9 10  1  0  0  0  0
 10 11  2  0  0  0  0
M  END
>  <CHROM.1>
-11.41453712,-13.29980104,7.24967051,2.00331058,-1.23960227,2.13074374

>  <Name>
ligand

>  <RI>
0

>  <Rbt.Current_Directory>
/home/itssahil/PROJECTS/Mol_Feturizer/Test_systems_manuscript/rnas/2b57

>  <Rbt.Executable>
rbdock ($Id: //depot/dev/client3/rdock/2013.1/src/exe/rbdock.cxx#4 $)

>  <Rbt.Library>
libRbt.so (2013.1, Build901 2013/11/27)

>  <Rbt.Parameter_File>
/export/apps/rDock/src/rDock_2013.1_src/data/scripts/dock_solv.prm

>  <Rbt.Receptor>
prm/pocket_docking_6.prm

>  <SCORE>
-11.4462

>  <SCORE.INTER>
-11.4462

>  <SCORE.INTER.CONST>
1

>  <SCORE.INTER.POLAR>
0

>  <SCORE.INTER.ROT>
0

>  <SCORE.INTER.SOLV>
21.4482

>  <SCORE.INTER.VDW>
-18.3802

>  <SCORE.INTER.norm>
-1.04056

>  <SCORE.INTRA>
0

>  <SCORE.INTRA.DIHEDRAL>
0

>  <SCORE.INTRA.DIHEDRAL.0>
0

>  <SCORE.INTRA.POLAR>
0

>  <SCORE.INTRA.POLAR.0>
0

>  <SCORE.INTRA.REPUL>
0

>  <SCORE.INTRA.REPUL.0>
0

>  <SCORE.INTRA.SOLV>
0

>  <SCORE.INTRA.SOLV.lig_0>
-48.3454

>  <SCORE.INTRA.VDW>
0

>  <SCORE.INTRA.VDW.0>
0

>  <SCORE.INTRA.norm>
0

>  <SCORE.RESTR>
0

>  <SCORE.RESTR.CAVITY>
0

>  <SCORE.RESTR.norm>
0

>  <SCORE.SYSTEM>
0

>  <SCORE.SYSTEM.CONST>
0

>  <SCORE.SYSTEM.DIHEDRAL>
0

>  <SCORE.SYSTEM.SOLV>
0

>  <SCORE.SYSTEM.norm>
0

>  <SCORE.heavy>
11

>  <SCORE.norm>
-1.04056

>  <RMSD>
0.602

$$$$
ligand
 OpenBabel02271912153D
libRbt.so/2013.1/901 2013/11/27
 11 12  0  0  0  0  0  0  0  0999 V2000
  -11.8517  -12.7692    8.8631 N   0  0  0  0  0  0  0  0  0  0  0  0
  -11.5196  -14.0672    8.9507 C   0  0  0  0  0  0  0  0  0  0  0  0
  -11.5489  -14.6781   10.1318 N   0  0  0  0  0  0  0  0  0  0  0  0
  -11.1481  -14.7519    7.8580 N   0  0  0  0  0  0  0  0  0  0  0  0
  -11.0983  -14.1531    6.6588 C   0  0  0  0  0  0  0  0  0  0  0  0
  -11.4367  -12.8111    6.5403 C   0  0  0  0  0  0  0  0  0  0  0  0
  -11.8209  -12.1234    7.6866 C   0  0  0  0  0  0  0  0  0  0  0  0
  -12.1623  -10.8401    7.6171 N   0  0  0  0  0  0  0  0  0  0  0  0
  -11.2879  -12.4722    5.2632 N   0  0  0  0  0  0  0  0  0  0  0  0
  -10.8734  -13.5503    4.6014 C   0  0  0  0  0  0  0  0  0  0  0  0
  -10.7570  -14.5741    5.4444 N   0  0  0  0  0  0  0  0  0  0  0  0
  1  7  2  0  0  0  0
  1  2  1  0  0  0  0
  2  3  1  0  0  0  0
  2  4  2  0  0  0  0
  4  5  1  0  0  0  0
  5  6  2  0  0  0  0
  5 11  1  0  0  0  0
  6  7  1  0  0  0  0
  6  9  1  0  0  0  0
  7  8  1  0  0  0  0
  9 10  1  0  0  0  0
 10 11  2  0  0  0  0
M  END
>  <CHROM.1>
-11.41366494,-13.34484727,7.26200684,2.03327297,-1.25676572,2.15007306

>  <Name>
ligand

>  <RI>
0

>  <Rbt.Current_Directory>
/home/itssahil/PROJECTS/Mol_Feturizer/Test_systems_manuscript/rnas/2b57

>  <Rbt.Executable>
rbdock ($Id: //depot/dev/client3/rdock/2013.1/src/exe/rbdock.cxx#4 $)

>  <Rbt.Library>
libRbt.so (2013.1, Build901 2013/11/27)

>  <Rbt.Parameter_File>
/export/apps/rDock/src/rDock_2013.1_src/data/scripts/dock_solv.prm

>  <Rbt.Receptor>
prm/blind_docking_40.prm

>  <SCORE>
-11.5186

>  <SCORE.INTER>
-11.5186

>  <SCORE.INTER.CONST>
1

>  <SCORE.INTER.POLAR>
0

>  <SCORE.INTER.ROT>
0

>  <SCORE.INTER.SOLV>
21.6159

>  <SCORE.INTER.VDW>
-18.4844

>  <SCORE.INTER.norm>
-1.04714

>  <SCORE.INTRA>
0

>  <SCORE.INTRA.DIHEDRAL>
0

>  <SCORE.INTRA.DIHEDRAL.0>
0

>  <SCORE.INTRA.POLAR>
0

>  <SCORE.INTRA.POLAR.0>
0

>  <SCORE.INTRA.REPUL>
0

>  <SCORE.INTRA.REPUL.0>
0

>  <SCORE.INTRA.SOLV>
0

>  <SCORE.INTRA.SOLV.lig_0>
-48.3454

>  <SCORE.INTRA.VDW>
0

>  <SCORE.INTRA.VDW.0>
0

>  <SCORE.INTRA.norm>
0

>  <SCORE.RESTR>
0

>  <SCORE.RESTR.CAVITY>
0

>  <SCORE.RESTR.norm>
0

>  <SCORE.SYSTEM>
0

>  <SCORE.SYSTEM.CONST>
0

>  <SCORE.SYSTEM.DIHEDRAL>
0

>  <SCORE.SYSTEM.SOLV>
0

>  <SCORE.SYSTEM.norm>
0

>  <SCORE.heavy>
11

>  <SCORE.norm>
-1.04714

>  <RMSD>
0.603

$$$$
ligand
 OpenBabel02271912153D
libRbt.so/2013.1/901 2013/11/27
 11 12  0  0  0  0  0  0  0  0999 V2000
  -11.8483  -12.7678    8.8629 N   0  0  0  0  0  0  0  0  0  0  0  0
  -11.5072  -14.0633    8.9515 C   0  0  0  0  0  0  0  0  0  0  0  0
  -11.5284  -14.6725   10.1337 N   0  0  0  0  0  0  0  0  0  0  0  0
  -11.1347  -14.7474    7.8586 N   0  0  0  0  0  0  0  0  0  0  0  0
  -11.0930  -14.1502    6.6584 C   0  0  0  0  0  0  0  0  0  0  0  0
  -11.4408  -12.8107    6.5388 C   0  0  0  0  0  0  0  0  0  0  0  0
  -11.8258  -12.1237    7.6853 C   0  0  0  0  0  0  0  0  0  0  0  0
  -12.1760  -10.8429    7.6148 N   0  0  0  0  0  0  0  0  0  0  0  0
  -11.2986  -12.4729    5.2606 N   0  0  0  0  0  0  0  0  0  0  0  0
  -10.8792  -13.5492    4.5991 C   0  0  0  0  0  0  0  0  0  0  0  0
  -10.7531  -14.5709    5.4434 N   0  0  0  0  0  0  0  0  0  0  0  0
  1  7  2  0  0  0  0
  1  2  1  0  0  0  0
  2  3  1  0  0  0  0
  2  4  2  0  0  0  0
  4  5  1  0  0  0  0
  5  6  2  0  0  0  0
  5 11  1  0  0  0  0
  6  7  1  0  0  0  0
  6  9  1  0  0  0  0
  7  8  1  0  0  0  0
  9 10  1  0  0  0  0
 10 11  2  0  0  0  0
M  END
>  <CHROM.1>
-11.41178235,-13.34309867,7.26127592,2.01250290,-1.25294890,2.12870467

>  <Name>
ligand

>  <RI>
0

>  <Rbt.Current_Directory>
/home/itssahil/PROJECTS/Mol_Feturizer/Test_systems_manuscript/rnas/2b57

>  <Rbt.Executable>
rbdock ($Id: //depot/dev/client3/rdock/2013.1/src/exe/rbdock.cxx#4 $)

>  <Rbt.Library>
libRbt.so (2013.1, Build901 2013/11/27)

>  <Rbt.Parameter_File>
/export/apps/rDock/src/rDock_2013.1_src/data/scripts/dock_solv.prm

>  <Rbt.Receptor>
prm/pocket_docking_3.prm

>  <SCORE>
-11.5486

>  <SCORE.INTER>
-11.5486

>  <SCORE.INTER.CONST>
1

>  <SCORE.INTER.POLAR>
0

>  <SCORE.INTER.ROT>
0

>  <SCORE.INTER.SOLV>
21.5563

>  <SCORE.INTER.VDW>
-18.4845

>  <SCORE.INTER.norm>
-1.04988

>  <SCORE.INTRA>
0

>  <SCORE.INTRA.DIHEDRAL>
0

>  <SCORE.INTRA.DIHEDRAL.0>
0

>  <SCORE.INTRA.POLAR>
0

>  <SCORE.INTRA.POLAR.0>
0

>  <SCORE.INTRA.REPUL>
0

>  <SCORE.INTRA.REPUL.0>
0

>  <SCORE.INTRA.SOLV>
0

>  <SCORE.INTRA.SOLV.lig_0>
-48.3454

>  <SCORE.INTRA.VDW>
0

>  <SCORE.INTRA.VDW.0>
0

>  <SCORE.INTRA.norm>
0

>  <SCORE.RESTR>
0

>  <SCORE.RESTR.CAVITY>
0

>  <SCORE.RESTR.norm>
0

>  <SCORE.SYSTEM>
0

>  <SCORE.SYSTEM.CONST>
0

>  <SCORE.SYSTEM.DIHEDRAL>
0

>  <SCORE.SYSTEM.SOLV>
0

>  <SCORE.SYSTEM.norm>
0

>  <SCORE.heavy>
11

>  <SCORE.norm>
-1.04988

>  <RMSD>
0.603

$$$$
ligand
 OpenBabel02271912153D
libRbt.so/2013.1/901 2013/11/27
 11 12  0  0  0  0  0  0  0  0999 V2000
  -11.8421  -12.7652    8.8619 N   0  0  0  0  0  0  0  0  0  0  0  0
  -11.4994  -14.0599    8.9564 C   0  0  0  0  0  0  0  0  0  0  0  0
  -11.5240  -14.6649   10.1406 N   0  0  0  0  0  0  0  0  0  0  0  0
  -11.1219  -14.7472    7.8672 N   0  0  0  0  0  0  0  0  0  0  0  0
  -11.0767  -14.1542    6.6651 C   0  0  0  0  0  0  0  0  0  0  0  0
  -11.4261  -12.8156    6.5395 C   0  0  0  0  0  0  0  0  0  0  0  0
  -11.8163  -12.1252    7.6822 C   0  0  0  0  0  0  0  0  0  0  0  0
  -12.1682  -10.8452    7.6059 N   0  0  0  0  0  0  0  0  0  0  0  0
  -11.2798  -12.4821    5.2607 N   0  0  0  0  0  0  0  0  0  0  0  0
  -10.8563  -13.5601    4.6045 C   0  0  0  0  0  0  0  0  0  0  0  0
  -10.7317  -14.5786    5.4528 N   0  0  0  0  0  0  0  0  0  0  0  0
  1  7  2  0  0  0  0
  1  2  1  0  0  0  0
  2  3  1  0  0  0  0
  2  4  2  0  0  0  0
  4  5  1  0  0  0  0
  5  6  2  0  0  0  0
  5 11  1  0  0  0  0
  6  7  1  0  0  0  0
  6  9  1  0  0  0  0
  7  8  1  0  0  0  0
  9 10  1  0  0  0  0
 10 11  2  0  0  0  0
M  END
>  <CHROM.1>
-11.39891452,-13.34545605,7.26396132,2.01976594,-1.24971475,2.13208339

>  <Name>
ligand

>  <RI>
0

>  <Rbt.Current_Directory>
/home/itssahil/PROJECTS/Mol_Feturizer/Test_systems_manuscript/rnas/2b57

>  <Rbt.Executable>
rbdock ($Id: //depot/dev/client3/rdock/2013.1/src/exe/rbdock.cxx#4 $)

>  <Rbt.Library>
libRbt.so (2013.1, Build901 2013/11/27)

>  <Rbt.Parameter_File>
/export/apps/rDock/src/rDock_2013.1_src/data/scripts/dock_solv.prm

>  <Rbt.Receptor>
prm/pocket_docking_5.prm

>  <SCORE>
-11.5801

>  <SCORE.INTER>
-11.5801

>  <SCORE.INTER.CONST>
1

>  <SCORE.INTER.POLAR>
0

>  <SCORE.INTER.ROT>
0

>  <SCORE.INTER.SOLV>
21.5551

>  <SCORE.INTER.VDW>
-18.5051

>  <SCORE.INTER.norm>
-1.05273

>  <SCORE.INTRA>
0

>  <SCORE.INTRA.DIHEDRAL>
0

>  <SCORE.INTRA.DIHEDRAL.0>
0

>  <SCORE.INTRA.POLAR>
0

>  <SCORE.INTRA.POLAR.0>
0

>  <SCORE.INTRA.REPUL>
0

>  <SCORE.INTRA.REPUL.0>
0

>  <SCORE.INTRA.SOLV>
0

>  <SCORE.INTRA.SOLV.lig_0>
-48.3454

>  <SCORE.INTRA.VDW>
0

>  <SCORE.INTRA.VDW.0>
0

>  <SCORE.INTRA.norm>
0

>  <SCORE.RESTR>
0

>  <SCORE.RESTR.CAVITY>
0

>  <SCORE.RESTR.norm>
0

>  <SCORE.SYSTEM>
0

>  <SCORE.SYSTEM.CONST>
0

>  <SCORE.SYSTEM.DIHEDRAL>
0

>  <SCORE.SYSTEM.SOLV>
0

>  <SCORE.SYSTEM.norm>
0

>  <SCORE.heavy>
11

>  <SCORE.norm>
-1.05273

>  <RMSD>
0.603

$$$$
ligand
 OpenBabel02271912153D
libRbt.so/2013.1/901 2013/11/27
 11 12  0  0  0  0  0  0  0  0999 V2000
  -11.8560  -12.6787    8.8335 N   0  0  0  0  0  0  0  0  0  0  0  0
  -11.4970  -13.9669    8.9533 C   0  0  0  0  0  0  0  0  0  0  0  0
  -11.5076  -14.5469   10.1502 N   0  0  0  0  0  0  0  0  0  0  0  0
  -11.1173  -14.6726    7.8768 N   0  0  0  0  0  0  0  0  0  0  0  0
  -11.0861  -14.1047    6.6621 C   0  0  0  0  0  0  0  0  0  0  0  0
  -11.4524  -12.7734    6.5103 C   0  0  0  0  0  0  0  0  0  0  0  0
  -11.8446  -12.0636    7.6404 C   0  0  0  0  0  0  0  0  0  0  0  0
  -12.2125  -10.7898    7.5391 N   0  0  0  0  0  0  0  0  0  0  0  0
  -11.3173  -12.4654    5.2238 N   0  0  0  0  0  0  0  0  0  0  0  0
  -10.8844  -13.5519    4.5882 C   0  0  0  0  0  0  0  0  0  0  0  0
  -10.7427  -14.5506    5.4571 N   0  0  0  0  0  0  0  0  0  0  0  0
  1  7  2  0  0  0  0
  1  2  1  0  0  0  0
  2  3  1  0  0  0  0
  2  4  2  0  0  0  0
  4  5  1  0  0  0  0
  5  6  2  0  0  0  0
  5 11  1  0  0  0  0
  6  7  1  0  0  0  0
  6  9  1  0  0  0  0
  7  8  1  0  0  0  0
  9 10  1  0  0  0  0
 10 11  2  0  0  0  0
M  END
>  <CHROM.1>
-11.41474209,-13.28738849,7.24560150,1.98499382,-1.24221720,2.07792646

>  <Name>
ligand

>  <RI>
0

>  <Rbt.Current_Directory>
/home/itssahil/PROJECTS/Mol_Feturizer/Test_systems_manuscript/rnas/2b57

>  <Rbt.Executable>
rbdock ($Id: //depot/dev/client3/rdock/2013.1/src/exe/rbdock.cxx#4 $)

>  <Rbt.Library>
libRbt.so (2013.1, Build901 2013/11/27)

>  <Rbt.Parameter_File>
/export/apps/rDock/src/rDock_2013.1_src/data/scripts/dock_solv.prm

>  <Rbt.Receptor>
prm/pocket_docking_5.prm

>  <SCORE>
-11.4492

>  <SCORE.INTER>
-11.4492

>  <SCORE.INTER.CONST>
1

>  <SCORE.INTER.POLAR>
0

>  <SCORE.INTER.ROT>
0

>  <SCORE.INTER.SOLV>
21.312

>  <SCORE.INTER.VDW>
-18.3368

>  <SCORE.INTER.norm>
-1.04084

>  <SCORE.INTRA>
0

>  <SCORE.INTRA.DIHEDRAL>
0

>  <SCORE.INTRA.DIHEDRAL.0>
0

>  <SCORE.INTRA.POLAR>
0

>  <SCORE.INTRA.POLAR.0>
0

>  <SCORE.INTRA.REPUL>
0

>  <SCORE.INTRA.REPUL.0>
0

>  <SCORE.INTRA.SOLV>
0

>  <SCORE.INTRA.SOLV.lig_0>
-48.3454

>  <SCORE.INTRA.VDW>
0

>  <SCORE.INTRA.VDW.0>
0

>  <SCORE.INTRA.norm>
0

>  <SCORE.RESTR>
0

>  <SCORE.RESTR.CAVITY>
0

>  <SCORE.RESTR.norm>
0

>  <SCORE.SYSTEM>
0

>  <SCORE.SYSTEM.CONST>
0

>  <SCORE.SYSTEM.DIHEDRAL>
0

>  <SCORE.SYSTEM.SOLV>
0

>  <SCORE.SYSTEM.norm>
0

>  <SCORE.heavy>
11

>  <SCORE.norm>
-1.04084

>  <RMSD>
0.603

$$$$
ligand
 OpenBabel02271912153D
libRbt.so/2013.1/901 2013/11/27
 11 12  0  0  0  0  0  0  0  0999 V2000
  -11.8471  -12.7671    8.8611 N   0  0  0  0  0  0  0  0  0  0  0  0
  -11.5009  -14.0609    8.9559 C   0  0  0  0  0  0  0  0  0  0  0  0
  -11.5246  -14.6659   10.1401 N   0  0  0  0  0  0  0  0  0  0  0  0
  -11.1209  -14.7473    7.8670 N   0  0  0  0  0  0  0  0  0  0  0  0
  -11.0765  -14.1543    6.6648 C   0  0  0  0  0  0  0  0  0  0  0  0
  -11.4295  -12.8167    6.5389 C   0  0  0  0  0  0  0  0  0  0  0  0
  -11.8223  -12.1272    7.6813 C   0  0  0  0  0  0  0  0  0  0  0  0
  -12.1777  -10.8481    7.6047 N   0  0  0  0  0  0  0  0  0  0  0  0
  -11.2833  -12.4829    5.2602 N   0  0  0  0  0  0  0  0  0  0  0  0
  -10.8564  -13.5598    4.6044 C   0  0  0  0  0  0  0  0  0  0  0  0
  -10.7296  -14.5779    5.4529 N   0  0  0  0  0  0  0  0  0  0  0  0
  1  7  2  0  0  0  0
  1  2  1  0  0  0  0
  2  3  1  0  0  0  0
  2  4  2  0  0  0  0
  4  5  1  0  0  0  0
  5  6  2  0  0  0  0
  5 11  1  0  0  0  0
  6  7  1  0  0  0  0
  6  9  1  0  0  0  0
  7  8  1  0  0  0  0
  9 10  1  0  0  0  0
 10 11  2  0  0  0  0
M  END
>  <CHROM.1>
-11.40132986,-13.34633969,7.26345335,2.01689205,-1.24706406,2.12925860

>  <Name>
ligand

>  <RI>
0

>  <Rbt.Current_Directory>
/home/itssahil/PROJECTS/Mol_Feturizer/Test_systems_manuscript/rnas/2b57

>  <Rbt.Executable>
rbdock ($Id: //depot/dev/client3/rdock/2013.1/src/exe/rbdock.cxx#4 $)

>  <Rbt.Library>
libRbt.so (2013.1, Build901 2013/11/27)

>  <Rbt.Parameter_File>
/export/apps/rDock/src/rDock_2013.1_src/data/scripts/dock_solv.prm

>  <Rbt.Receptor>
prm/pocket_docking_8.prm

>  <SCORE>
-11.5838

>  <SCORE.INTER>
-11.5838

>  <SCORE.INTER.CONST>
1

>  <SCORE.INTER.POLAR>
0

>  <SCORE.INTER.ROT>
0

>  <SCORE.INTER.SOLV>
21.5204

>  <SCORE.INTER.VDW>
-18.496

>  <SCORE.INTER.norm>
-1.05308

>  <SCORE.INTRA>
0

>  <SCORE.INTRA.DIHEDRAL>
0

>  <SCORE.INTRA.DIHEDRAL.0>
0

>  <SCORE.INTRA.POLAR>
0

>  <SCORE.INTRA.POLAR.0>
0

>  <SCORE.INTRA.REPUL>
0

>  <SCORE.INTRA.REPUL.0>
0

>  <SCORE.INTRA.SOLV>
0

>  <SCORE.INTRA.SOLV.lig_0>
-48.3454

>  <SCORE.INTRA.VDW>
0

>  <SCORE.INTRA.VDW.0>
0

>  <SCORE.INTRA.norm>
0

>  <SCORE.RESTR>
0

>  <SCORE.RESTR.CAVITY>
0

>  <SCORE.RESTR.norm>
0

>  <SCORE.SYSTEM>
0

>  <SCORE.SYSTEM.CONST>
0

>  <SCORE.SYSTEM.DIHEDRAL>
0

>  <SCORE.SYSTEM.SOLV>
0

>  <SCORE.SYSTEM.norm>
0

>  <SCORE.heavy>
11

>  <SCORE.norm>
-1.05308

>  <RMSD>
0.603

$$$$
ligand
 OpenBabel02271912153D
libRbt.so/2013.1/901 2013/11/27
 11 12  0  0  0  0  0  0  0  0999 V2000
  -11.8430  -12.7651    8.8607 N   0  0  0  0  0  0  0  0  0  0  0  0
  -11.4978  -14.0591    8.9564 C   0  0  0  0  0  0  0  0  0  0  0  0
  -11.5199  -14.6627   10.1414 N   0  0  0  0  0  0  0  0  0  0  0  0
  -11.1202  -14.7471    7.8677 N   0  0  0  0  0  0  0  0  0  0  0  0
  -11.0775  -14.1555    6.6648 C   0  0  0  0  0  0  0  0  0  0  0  0
  -11.4295  -12.8178    6.5379 C   0  0  0  0  0  0  0  0  0  0  0  0
  -11.8197  -12.1266    7.6802 C   0  0  0  0  0  0  0  0  0  0  0  0
  -12.1741  -10.8473    7.6027 N   0  0  0  0  0  0  0  0  0  0  0  0
  -11.2852  -12.4856    5.2585 N   0  0  0  0  0  0  0  0  0  0  0  0
  -10.8604  -13.5637    4.6032 C   0  0  0  0  0  0  0  0  0  0  0  0
  -10.7330  -14.5809    5.4527 N   0  0  0  0  0  0  0  0  0  0  0  0
  1  7  2  0  0  0  0
  1  2  1  0  0  0  0
  2  3  1  0  0  0  0
  2  4  2  0  0  0  0
  4  5  1  0  0  0  0
  5  6  2  0  0  0  0
  5 11  1  0  0  0  0
  6  7  1  0  0  0  0
  6  9  1  0  0  0  0
  7  8  1  0  0  0  0
  9 10  1  0  0  0  0
 10 11  2  0  0  0  0
M  END
>  <CHROM.1>
-11.40049885,-13.34662915,7.26300504,2.01366562,-1.24872780,2.12503220

>  <Name>
ligand

>  <RI>
0

>  <Rbt.Current_Directory>
/home/itssahil/PROJECTS/Mol_Feturizer/Test_systems_manuscript/rnas/2b57

>  <Rbt.Executable>
rbdock ($Id: //depot/dev/client3/rdock/2013.1/src/exe/rbdock.cxx#4 $)

>  <Rbt.Library>
libRbt.so (2013.1, Build901 2013/11/27)

>  <Rbt.Parameter_File>
/export/apps/rDock/src/rDock_2013.1_src/data/scripts/dock_solv.prm

>  <Rbt.Receptor>
prm/blind_docking_100.prm

>  <SCORE>
-11.5794

>  <SCORE.INTER>
-11.5794

>  <SCORE.INTER.CONST>
1

>  <SCORE.INTER.POLAR>
0

>  <SCORE.INTER.ROT>
0

>  <SCORE.INTER.SOLV>
21.5304

>  <SCORE.INTER.VDW>
-18.4964

>  <SCORE.INTER.norm>
-1.05267

>  <SCORE.INTRA>
0

>  <SCORE.INTRA.DIHEDRAL>
0

>  <SCORE.INTRA.DIHEDRAL.0>
0

>  <SCORE.INTRA.POLAR>
0

>  <SCORE.INTRA.POLAR.0>
0

>  <SCORE.INTRA.REPUL>
0

>  <SCORE.INTRA.REPUL.0>
0

>  <SCORE.INTRA.SOLV>
0

>  <SCORE.INTRA.SOLV.lig_0>
-48.3454

>  <SCORE.INTRA.VDW>
0

>  <SCORE.INTRA.VDW.0>
0

>  <SCORE.INTRA.norm>
0

>  <SCORE.RESTR>
0

>  <SCORE.RESTR.CAVITY>
0

>  <SCORE.RESTR.norm>
0

>  <SCORE.SYSTEM>
0

>  <SCORE.SYSTEM.CONST>
0

>  <SCORE.SYSTEM.DIHEDRAL>
0

>  <SCORE.SYSTEM.SOLV>
0

>  <SCORE.SYSTEM.norm>
0

>  <SCORE.heavy>
11

>  <SCORE.norm>
-1.05267

>  <RMSD>
0.604

$$$$
ligand
 OpenBabel02271912153D
libRbt.so/2013.1/901 2013/11/27
 11 12  0  0  0  0  0  0  0  0999 V2000
  -11.8415  -12.7645    8.8634 N   0  0  0  0  0  0  0  0  0  0  0  0
  -11.5012  -14.0603    8.9521 C   0  0  0  0  0  0  0  0  0  0  0  0
  -11.5211  -14.6689   10.1346 N   0  0  0  0  0  0  0  0  0  0  0  0
  -11.1307  -14.7451    7.8590 N   0  0  0  0  0  0  0  0  0  0  0  0
  -11.0903  -14.1485    6.6584 C   0  0  0  0  0  0  0  0  0  0  0  0
  -11.4373  -12.8088    6.5387 C   0  0  0  0  0  0  0  0  0  0  0  0
  -11.8202  -12.1210    7.6855 C   0  0  0  0  0  0  0  0  0  0  0  0
  -12.1697  -10.8400    7.6149 N   0  0  0  0  0  0  0  0  0  0  0  0
  -11.2967  -12.4717    5.2602 N   0  0  0  0  0  0  0  0  0  0  0  0
  -10.8789  -13.5486    4.5986 C   0  0  0  0  0  0  0  0  0  0  0  0
  -10.7523  -14.5700    5.4432 N   0  0  0  0  0  0  0  0  0  0  0  0
  1  7  2  0  0  0  0
  1  2  1  0  0  0  0
  2  3  1  0  0  0  0
  2  4  2  0  0  0  0
  4  5  1  0  0  0  0
  5  6  2  0  0  0  0
  5 11  1  0  0  0  0
  6  7  1  0  0  0  0
  6  9  1  0  0  0  0
  7  8  1  0  0  0  0
  9 10  1  0  0  0  0
 10 11  2  0  0  0  0
M  END
>  <CHROM.1>
-11.40764026,-13.34088805,7.26142659,2.00988239,-1.25426554,2.12577166

>  <Name>
ligand

>  <RI>
0

>  <Rbt.Current_Directory>
/home/itssahil/PROJECTS/Mol_Feturizer/Test_systems_manuscript/rnas/2b57

>  <Rbt.Executable>
rbdock ($Id: //depot/dev/client3/rdock/2013.1/src/exe/rbdock.cxx#4 $)

>  <Rbt.Library>
libRbt.so (2013.1, Build901 2013/11/27)

>  <Rbt.Parameter_File>
/export/apps/rDock/src/rDock_2013.1_src/data/scripts/dock_solv.prm

>  <Rbt.Receptor>
prm/blind_docking_40.prm

>  <SCORE>
-11.5464

>  <SCORE.INTER>
-11.5464

>  <SCORE.INTER.CONST>
1

>  <SCORE.INTER.POLAR>
0

>  <SCORE.INTER.ROT>
0

>  <SCORE.INTER.SOLV>
21.5741

>  <SCORE.INTER.VDW>
-18.489

>  <SCORE.INTER.norm>
-1.04968

>  <SCORE.INTRA>
0

>  <SCORE.INTRA.DIHEDRAL>
0

>  <SCORE.INTRA.DIHEDRAL.0>
0

>  <SCORE.INTRA.POLAR>
0

>  <SCORE.INTRA.POLAR.0>
0

>  <SCORE.INTRA.REPUL>
0

>  <SCORE.INTRA.REPUL.0>
0

>  <SCORE.INTRA.SOLV>
0

>  <SCORE.INTRA.SOLV.lig_0>
-48.3454

>  <SCORE.INTRA.VDW>
0

>  <SCORE.INTRA.VDW.0>
0

>  <SCORE.INTRA.norm>
0

>  <SCORE.RESTR>
0

>  <SCORE.RESTR.CAVITY>
0

>  <SCORE.RESTR.norm>
0

>  <SCORE.SYSTEM>
0

>  <SCORE.SYSTEM.CONST>
0

>  <SCORE.SYSTEM.DIHEDRAL>
0

>  <SCORE.SYSTEM.SOLV>
0

>  <SCORE.SYSTEM.norm>
0

>  <SCORE.heavy>
11

>  <SCORE.norm>
-1.04968

>  <RMSD>
0.604

$$$$
ligand
 OpenBabel02271912153D
libRbt.so/2013.1/901 2013/11/27
 11 12  0  0  0  0  0  0  0  0999 V2000
  -11.8441  -12.7658    8.8607 N   0  0  0  0  0  0  0  0  0  0  0  0
  -11.4979  -14.0596    8.9553 C   0  0  0  0  0  0  0  0  0  0  0  0
  -11.5204  -14.6645   10.1396 N   0  0  0  0  0  0  0  0  0  0  0  0
  -11.1190  -14.7462    7.8662 N   0  0  0  0  0  0  0  0  0  0  0  0
  -11.0758  -14.1534    6.6639 C   0  0  0  0  0  0  0  0  0  0  0  0
  -11.4288  -12.8157    6.5381 C   0  0  0  0  0  0  0  0  0  0  0  0
  -11.8204  -12.1261    7.6808 C   0  0  0  0  0  0  0  0  0  0  0  0
  -12.1757  -10.8470    7.6044 N   0  0  0  0  0  0  0  0  0  0  0  0
  -11.2838  -12.4822    5.2592 N   0  0  0  0  0  0  0  0  0  0  0  0
  -10.8577  -13.5592    4.6031 C   0  0  0  0  0  0  0  0  0  0  0  0
  -10.7302  -14.5772    5.4516 N   0  0  0  0  0  0  0  0  0  0  0  0
  1  7  2  0  0  0  0
  1  2  1  0  0  0  0
  2  3  1  0  0  0  0
  2  4  2  0  0  0  0
  4  5  1  0  0  0  0
  5  6  2  0  0  0  0
  5 11  1  0  0  0  0
  6  7  1  0  0  0  0
  6  9  1  0  0  0  0
  7  8  1  0  0  0  0
  9 10  1  0  0  0  0
 10 11  2  0  0  0  0
M  END
>  <CHROM.1>
-11.39994039,-13.34532828,7.26270551,2.01433844,-1.24767753,2.12670691

>  <Name>
ligand

>  <RI>
0

>  <Rbt.Current_Directory>
/home/itssahil/PROJECTS/Mol_Feturizer/Test_systems_manuscript/rnas/2b57

>  <Rbt.Executable>
rbdock ($Id: //depot/dev/client3/rdock/2013.1/src/exe/rbdock.cxx#4 $)

>  <Rbt.Library>
libRbt.so (2013.1, Build901 2013/11/27)

>  <Rbt.Parameter_File>
/export/apps/rDock/src/rDock_2013.1_src/data/scripts/dock_solv.prm

>  <Rbt.Receptor>
prm/blind_docking_80.prm

>  <SCORE>
-11.5821

>  <SCORE.INTER>
-11.5821

>  <SCORE.INTER.CONST>
1

>  <SCORE.INTER.POLAR>
0

>  <SCORE.INTER.ROT>
0

>  <SCORE.INTER.SOLV>
21.5272

>  <SCORE.INTER.VDW>
-18.4971

>  <SCORE.INTER.norm>
-1.05292

>  <SCORE.INTRA>
0

>  <SCORE.INTRA.DIHEDRAL>
0

>  <SCORE.INTRA.DIHEDRAL.0>
0

>  <SCORE.INTRA.POLAR>
0

>  <SCORE.INTRA.POLAR.0>
0

>  <SCORE.INTRA.REPUL>
0

>  <SCORE.INTRA.REPUL.0>
0

>  <SCORE.INTRA.SOLV>
0

>  <SCORE.INTRA.SOLV.lig_0>
-48.3454

>  <SCORE.INTRA.VDW>
0

>  <SCORE.INTRA.VDW.0>
0

>  <SCORE.INTRA.norm>
0

>  <SCORE.RESTR>
0

>  <SCORE.RESTR.CAVITY>
0

>  <SCORE.RESTR.norm>
0

>  <SCORE.SYSTEM>
0

>  <SCORE.SYSTEM.CONST>
0

>  <SCORE.SYSTEM.DIHEDRAL>
0

>  <SCORE.SYSTEM.SOLV>
0

>  <SCORE.SYSTEM.norm>
0

>  <SCORE.heavy>
11

>  <SCORE.norm>
-1.05292

>  <RMSD>
0.604

$$$$
ligand
 OpenBabel02271912153D
libRbt.so/2013.1/901 2013/11/27
 11 12  0  0  0  0  0  0  0  0999 V2000
  -11.8591  -12.7921    8.8652 N   0  0  0  0  0  0  0  0  0  0  0  0
  -11.5089  -14.0855    8.9487 C   0  0  0  0  0  0  0  0  0  0  0  0
  -11.5353  -14.7021   10.1269 N   0  0  0  0  0  0  0  0  0  0  0  0
  -11.1221  -14.7599    7.8548 N   0  0  0  0  0  0  0  0  0  0  0  0
  -11.0749  -14.1551    6.6586 C   0  0  0  0  0  0  0  0  0  0  0  0
  -11.4319  -12.8175    6.5443 C   0  0  0  0  0  0  0  0  0  0  0  0
  -11.8318  -12.1406    7.6918 C   0  0  0  0  0  0  0  0  0  0  0  0
  -12.1912  -10.8620    7.6262 N   0  0  0  0  0  0  0  0  0  0  0  0
  -11.2817  -12.4707    5.2695 N   0  0  0  0  0  0  0  0  0  0  0  0
  -10.8485  -13.5397    4.6050 C   0  0  0  0  0  0  0  0  0  0  0  0
  -10.7216  -14.5656    5.4440 N   0  0  0  0  0  0  0  0  0  0  0  0
  1  7  2  0  0  0  0
  1  2  1  0  0  0  0
  2  3  1  0  0  0  0
  2  4  2  0  0  0  0
  4  5  1  0  0  0  0
  5  6  2  0  0  0  0
  5 11  1  0  0  0  0
  6  7  1  0  0  0  0
  6  9  1  0  0  0  0
  7  8  1  0  0  0  0
  9 10  1  0  0  0  0
 10 11  2  0  0  0  0
M  END
>  <CHROM.1>
-11.40488000,-13.35413653,7.26378270,2.02192030,-1.24200586,2.14379464

>  <Name>
ligand

>  <RI>
0

>  <Rbt.Current_Directory>
/home/itssahil/PROJECTS/Mol_Feturizer/Test_systems_manuscript/rnas/2b57

>  <Rbt.Executable>
rbdock ($Id: //depot/dev/client3/rdock/2013.1/src/exe/rbdock.cxx#4 $)

>  <Rbt.Library>
libRbt.so (2013.1, Build901 2013/11/27)

>  <Rbt.Parameter_File>
/export/apps/rDock/src/rDock_2013.1_src/data/scripts/dock_solv.prm

>  <Rbt.Receptor>
prm/pocket_docking_7.prm

>  <SCORE>
-11.5522

>  <SCORE.INTER>
-11.5522

>  <SCORE.INTER.CONST>
1

>  <SCORE.INTER.POLAR>
0

>  <SCORE.INTER.ROT>
0

>  <SCORE.INTER.SOLV>
21.5278

>  <SCORE.INTER.VDW>
-18.4774

>  <SCORE.INTER.norm>
-1.0502

>  <SCORE.INTRA>
0

>  <SCORE.INTRA.DIHEDRAL>
0

>  <SCORE.INTRA.DIHEDRAL.0>
0

>  <SCORE.INTRA.POLAR>
0

>  <SCORE.INTRA.POLAR.0>
0

>  <SCORE.INTRA.REPUL>
0

>  <SCORE.INTRA.REPUL.0>
0

>  <SCORE.INTRA.SOLV>
0

>  <SCORE.INTRA.SOLV.lig_0>
-48.3454

>  <SCORE.INTRA.VDW>
0

>  <SCORE.INTRA.VDW.0>
0

>  <SCORE.INTRA.norm>
0

>  <SCORE.RESTR>
0

>  <SCORE.RESTR.CAVITY>
0

>  <SCORE.RESTR.norm>
0

>  <SCORE.SYSTEM>
0

>  <SCORE.SYSTEM.CONST>
0

>  <SCORE.SYSTEM.DIHEDRAL>
0

>  <SCORE.SYSTEM.SOLV>
0

>  <SCORE.SYSTEM.norm>
0

>  <SCORE.heavy>
11

>  <SCORE.norm>
-1.0502

>  <RMSD>
0.604

$$$$
ligand
 OpenBabel02271912153D
libRbt.so/2013.1/901 2013/11/27
 11 12  0  0  0  0  0  0  0  0999 V2000
  -11.8430  -12.7653    8.8597 N   0  0  0  0  0  0  0  0  0  0  0  0
  -11.5002  -14.0599    8.9560 C   0  0  0  0  0  0  0  0  0  0  0  0
  -11.5257  -14.6634   10.1409 N   0  0  0  0  0  0  0  0  0  0  0  0
  -11.1219  -14.7485    7.8679 N   0  0  0  0  0  0  0  0  0  0  0  0
  -11.0758  -14.1570    6.6651 C   0  0  0  0  0  0  0  0  0  0  0  0
  -11.4251  -12.8185    6.5376 C   0  0  0  0  0  0  0  0  0  0  0  0
  -11.8163  -12.1268    7.6792 C   0  0  0  0  0  0  0  0  0  0  0  0
  -12.1683  -10.8468    7.6011 N   0  0  0  0  0  0  0  0  0  0  0  0
  -11.2779  -12.4866    5.2585 N   0  0  0  0  0  0  0  0  0  0  0  0
  -10.8538  -13.5654    4.6040 C   0  0  0  0  0  0  0  0  0  0  0  0
  -10.7298  -14.5828    5.4537 N   0  0  0  0  0  0  0  0  0  0  0  0
  1  7  2  0  0  0  0
  1  2  1  0  0  0  0
  2  3  1  0  0  0  0
  2  4  2  0  0  0  0
  4  5  1  0  0  0  0
  5  6  2  0  0  0  0
  5 11  1  0  0  0  0
  6  7  1  0  0  0  0
  6  9  1  0  0  0  0
  7  8  1  0  0  0  0
  9 10  1  0  0  0  0
 10 11  2  0  0  0  0
M  END
>  <CHROM.1>
-11.39849198,-13.34749135,7.26276137,2.02170283,-1.24923701,2.13269981

>  <Name>
ligand

>  <RI>
0

>  <Rbt.Current_Directory>
/home/itssahil/PROJECTS/Mol_Feturizer/Test_systems_manuscript/rnas/2b57

>  <Rbt.Executable>
rbdock ($Id: //depot/dev/client3/rdock/2013.1/src/exe/rbdock.cxx#4 $)

>  <Rbt.Library>
libRbt.so (2013.1, Build901 2013/11/27)

>  <Rbt.Parameter_File>
/export/apps/rDock/src/rDock_2013.1_src/data/scripts/dock_solv.prm

>  <Rbt.Receptor>
prm/blind_docking_60.prm

>  <SCORE>
-11.5786

>  <SCORE.INTER>
-11.5786

>  <SCORE.INTER.CONST>
1

>  <SCORE.INTER.POLAR>
0

>  <SCORE.INTER.ROT>
0

>  <SCORE.INTER.SOLV>
21.5472

>  <SCORE.INTER.VDW>
-18.5015

>  <SCORE.INTER.norm>
-1.0526

>  <SCORE.INTRA>
0

>  <SCORE.INTRA.DIHEDRAL>
0

>  <SCORE.INTRA.DIHEDRAL.0>
0

>  <SCORE.INTRA.POLAR>
0

>  <SCORE.INTRA.POLAR.0>
0

>  <SCORE.INTRA.REPUL>
0

>  <SCORE.INTRA.REPUL.0>
0

>  <SCORE.INTRA.SOLV>
0

>  <SCORE.INTRA.SOLV.lig_0>
-48.3454

>  <SCORE.INTRA.VDW>
0

>  <SCORE.INTRA.VDW.0>
0

>  <SCORE.INTRA.norm>
0

>  <SCORE.RESTR>
0

>  <SCORE.RESTR.CAVITY>
0

>  <SCORE.RESTR.norm>
0

>  <SCORE.SYSTEM>
0

>  <SCORE.SYSTEM.CONST>
0

>  <SCORE.SYSTEM.DIHEDRAL>
0

>  <SCORE.SYSTEM.SOLV>
0

>  <SCORE.SYSTEM.norm>
0

>  <SCORE.heavy>
11

>  <SCORE.norm>
-1.0526

>  <RMSD>
0.605

$$$$
ligand
 OpenBabel02271912153D
libRbt.so/2013.1/901 2013/11/27
 11 12  0  0  0  0  0  0  0  0999 V2000
  -11.8123  -12.7539    8.8679 N   0  0  0  0  0  0  0  0  0  0  0  0
  -11.4903  -14.0539    8.9629 C   0  0  0  0  0  0  0  0  0  0  0  0
  -11.5190  -14.6565   10.1482 N   0  0  0  0  0  0  0  0  0  0  0  0
  -11.1294  -14.7491    7.8731 N   0  0  0  0  0  0  0  0  0  0  0  0
  -11.0804  -14.1588    6.6697 C   0  0  0  0  0  0  0  0  0  0  0  0
  -11.4085  -12.8149    6.5436 C   0  0  0  0  0  0  0  0  0  0  0  0
  -11.7819  -12.1164    7.6870 C   0  0  0  0  0  0  0  0  0  0  0  0
  -12.1132  -10.8309    7.6103 N   0  0  0  0  0  0  0  0  0  0  0  0
  -11.2630  -12.4859    5.2635 N   0  0  0  0  0  0  0  0  0  0  0  0
  -10.8603  -13.5717    4.6072 C   0  0  0  0  0  0  0  0  0  0  0  0
  -10.7482  -14.5908    5.4566 N   0  0  0  0  0  0  0  0  0  0  0  0
  1  7  2  0  0  0  0
  1  2  1  0  0  0  0
  2  3  1  0  0  0  0
  2  4  2  0  0  0  0
  4  5  1  0  0  0  0
  5  6  2  0  0  0  0
  5 11  1  0  0  0  0
  6  7  1  0  0  0  0
  6  9  1  0  0  0  0
  7  8  1  0  0  0  0
  9 10  1  0  0  0  0
 10 11  2  0  0  0  0
M  END
>  <CHROM.1>
-11.38642800,-13.34394427,7.26881196,2.03495294,-1.26606399,2.14487777

>  <Name>
ligand

>  <RI>
0

>  <Rbt.Current_Directory>
/home/itssahil/PROJECTS/Mol_Feturizer/Test_systems_manuscript/rnas/2b57

>  <Rbt.Executable>
rbdock ($Id: //depot/dev/client3/rdock/2013.1/src/exe/rbdock.cxx#4 $)

>  <Rbt.Library>
libRbt.so (2013.1, Build901 2013/11/27)

>  <Rbt.Parameter_File>
/export/apps/rDock/src/rDock_2013.1_src/data/scripts/dock_solv.prm

>  <Rbt.Receptor>
prm/pocket_docking_8.prm

>  <SCORE>
-11.5315

>  <SCORE.INTER>
-11.5315

>  <SCORE.INTER.CONST>
1

>  <SCORE.INTER.POLAR>
0

>  <SCORE.INTER.ROT>
0

>  <SCORE.INTER.SOLV>
21.7783

>  <SCORE.INTER.VDW>
-18.5471

>  <SCORE.INTER.norm>
-1.04832

>  <SCORE.INTRA>
0

>  <SCORE.INTRA.DIHEDRAL>
0

>  <SCORE.INTRA.DIHEDRAL.0>
0

>  <SCORE.INTRA.POLAR>
0

>  <SCORE.INTRA.POLAR.0>
0

>  <SCORE.INTRA.REPUL>
0

>  <SCORE.INTRA.REPUL.0>
0

>  <SCORE.INTRA.SOLV>
0

>  <SCORE.INTRA.SOLV.lig_0>
-48.3454

>  <SCORE.INTRA.VDW>
0

>  <SCORE.INTRA.VDW.0>
0

>  <SCORE.INTRA.norm>
0

>  <SCORE.RESTR>
0

>  <SCORE.RESTR.CAVITY>
0

>  <SCORE.RESTR.norm>
0

>  <SCORE.SYSTEM>
0

>  <SCORE.SYSTEM.CONST>
0

>  <SCORE.SYSTEM.DIHEDRAL>
0

>  <SCORE.SYSTEM.SOLV>
0

>  <SCORE.SYSTEM.norm>
0

>  <SCORE.heavy>
11

>  <SCORE.norm>
-1.04832

>  <RMSD>
0.605

$$$$
ligand
 OpenBabel02271912153D
libRbt.so/2013.1/901 2013/11/27
 11 12  0  0  0  0  0  0  0  0999 V2000
  -11.8445  -12.7659    8.8579 N   0  0  0  0  0  0  0  0  0  0  0  0
  -11.5001  -14.0601    8.9536 C   0  0  0  0  0  0  0  0  0  0  0  0
  -11.5242  -14.6640   10.1384 N   0  0  0  0  0  0  0  0  0  0  0  0
  -11.1215  -14.7479    7.8652 N   0  0  0  0  0  0  0  0  0  0  0  0
  -11.0768  -14.1560    6.6625 C   0  0  0  0  0  0  0  0  0  0  0  0
  -11.4279  -12.8180    6.5356 C   0  0  0  0  0  0  0  0  0  0  0  0
  -11.8193  -12.1270    7.6775 C   0  0  0  0  0  0  0  0  0  0  0  0
  -12.1729  -10.8475    7.6000 N   0  0  0  0  0  0  0  0  0  0  0  0
  -11.2817  -12.4856    5.2565 N   0  0  0  0  0  0  0  0  0  0  0  0
  -10.8567  -13.5636    4.6015 C   0  0  0  0  0  0  0  0  0  0  0  0
  -10.7309  -14.5812    5.4508 N   0  0  0  0  0  0  0  0  0  0  0  0
  1  7  2  0  0  0  0
  1  2  1  0  0  0  0
  2  3  1  0  0  0  0
  2  4  2  0  0  0  0
  4  5  1  0  0  0  0
  5  6  2  0  0  0  0
  5 11  1  0  0  0  0
  6  7  1  0  0  0  0
  6  9  1  0  0  0  0
  7  8  1  0  0  0  0
  9 10  1  0  0  0  0
 10 11  2  0  0  0  0
M  END
>  <CHROM.1>
-11.40019102,-13.34712614,7.26055367,2.01817331,-1.24848195,2.12961925

>  <Name>
ligand

>  <RI>
0

>  <Rbt.Current_Directory>
/home/itssahil/PROJECTS/Mol_Feturizer/Test_systems_manuscript/rnas/2b57

>  <Rbt.Executable>
rbdock ($Id: //depot/dev/client3/rdock/2013.1/src/exe/rbdock.cxx#4 $)

>  <Rbt.Library>
libRbt.so (2013.1, Build901 2013/11/27)

>  <Rbt.Parameter_File>
/export/apps/rDock/src/rDock_2013.1_src/data/scripts/dock_solv.prm

>  <Rbt.Receptor>
prm/blind_docking_80.prm

>  <SCORE>
-11.5825

>  <SCORE.INTER>
-11.5825

>  <SCORE.INTER.CONST>
1

>  <SCORE.INTER.POLAR>
0

>  <SCORE.INTER.ROT>
0

>  <SCORE.INTER.SOLV>
21.5319

>  <SCORE.INTER.VDW>
-18.499

>  <SCORE.INTER.norm>
-1.05296

>  <SCORE.INTRA>
0

>  <SCORE.INTRA.DIHEDRAL>
0

>  <SCORE.INTRA.DIHEDRAL.0>
0

>  <SCORE.INTRA.POLAR>
0

>  <SCORE.INTRA.POLAR.0>
0

>  <SCORE.INTRA.REPUL>
0

>  <SCORE.INTRA.REPUL.0>
0

>  <SCORE.INTRA.SOLV>
0

>  <SCORE.INTRA.SOLV.lig_0>
-48.3454

>  <SCORE.INTRA.VDW>
0

>  <SCORE.INTRA.VDW.0>
0

>  <SCORE.INTRA.norm>
0

>  <SCORE.RESTR>
0

>  <SCORE.RESTR.CAVITY>
0

>  <SCORE.RESTR.norm>
0

>  <SCORE.SYSTEM>
0

>  <SCORE.SYSTEM.CONST>
0

>  <SCORE.SYSTEM.DIHEDRAL>
0

>  <SCORE.SYSTEM.SOLV>
0

>  <SCORE.SYSTEM.norm>
0

>  <SCORE.heavy>
11

>  <SCORE.norm>
-1.05296

>  <RMSD>
0.606

$$$$
ligand
 OpenBabel02271912153D
libRbt.so/2013.1/901 2013/11/27
 11 12  0  0  0  0  0  0  0  0999 V2000
  -11.8546  -12.7229    8.8535 N   0  0  0  0  0  0  0  0  0  0  0  0
  -11.4739  -14.0088    8.9186 C   0  0  0  0  0  0  0  0  0  0  0  0
  -11.4855  -14.6427   10.0878 N   0  0  0  0  0  0  0  0  0  0  0  0
  -11.0716  -14.6583    7.8152 N   0  0  0  0  0  0  0  0  0  0  0  0
  -11.0389  -14.0354    6.6278 C   0  0  0  0  0  0  0  0  0  0  0  0
  -11.4274  -12.7051    6.5326 C   0  0  0  0  0  0  0  0  0  0  0  0
  -11.8428  -12.0543    7.6896 C   0  0  0  0  0  0  0  0  0  0  0  0
  -12.2323  -10.7838    7.6422 N   0  0  0  0  0  0  0  0  0  0  0  0
  -11.2857  -12.3368    5.2629 N   0  0  0  0  0  0  0  0  0  0  0  0
  -10.8275  -13.3857    4.5832 C   0  0  0  0  0  0  0  0  0  0  0  0
  -10.6763  -14.4202    5.4075 N   0  0  0  0  0  0  0  0  0  0  0  0
  1  7  2  0  0  0  0
  1  2  1  0  0  0  0
  2  3  1  0  0  0  0
  2  4  2  0  0  0  0
  4  5  1  0  0  0  0
  5  6  2  0  0  0  0
  5 11  1  0  0  0  0
  6  7  1  0  0  0  0
  6  9  1  0  0  0  0
  7  8  1  0  0  0  0
  9 10  1  0  0  0  0
 10 11  2  0  0  0  0
M  END
>  <CHROM.1>
-11.38756585,-13.25121991,7.24430156,1.98393020,-1.22209101,2.12224569

>  <Name>
ligand

>  <RI>
0

>  <Rbt.Current_Directory>
/home/itssahil/PROJECTS/Mol_Feturizer/Test_systems_manuscript/rnas/2b57

>  <Rbt.Executable>
rbdock ($Id: //depot/dev/client3/rdock/2013.1/src/exe/rbdock.cxx#4 $)

>  <Rbt.Library>
libRbt.so (2013.1, Build901 2013/11/27)

>  <Rbt.Parameter_File>
/export/apps/rDock/src/rDock_2013.1_src/data/scripts/dock_solv.prm

>  <Rbt.Receptor>
prm/pocket_docking_3.prm

>  <SCORE>
-11.4596

>  <SCORE.INTER>
-11.4596

>  <SCORE.INTER.CONST>
1

>  <SCORE.INTER.POLAR>
0

>  <SCORE.INTER.ROT>
0

>  <SCORE.INTER.SOLV>
21.3854

>  <SCORE.INTER.VDW>
-18.3682

>  <SCORE.INTER.norm>
-1.04178

>  <SCORE.INTRA>
0

>  <SCORE.INTRA.DIHEDRAL>
0

>  <SCORE.INTRA.DIHEDRAL.0>
0

>  <SCORE.INTRA.POLAR>
0

>  <SCORE.INTRA.POLAR.0>
0

>  <SCORE.INTRA.REPUL>
0

>  <SCORE.INTRA.REPUL.0>
0

>  <SCORE.INTRA.SOLV>
0

>  <SCORE.INTRA.SOLV.lig_0>
-48.3454

>  <SCORE.INTRA.VDW>
0

>  <SCORE.INTRA.VDW.0>
0

>  <SCORE.INTRA.norm>
0

>  <SCORE.RESTR>
0

>  <SCORE.RESTR.CAVITY>
0

>  <SCORE.RESTR.norm>
0

>  <SCORE.SYSTEM>
0

>  <SCORE.SYSTEM.CONST>
0

>  <SCORE.SYSTEM.DIHEDRAL>
0

>  <SCORE.SYSTEM.SOLV>
0

>  <SCORE.SYSTEM.norm>
0

>  <SCORE.heavy>
11

>  <SCORE.norm>
-1.04178

>  <RMSD>
0.606

$$$$
ligand
 OpenBabel02271912153D
libRbt.so/2013.1/901 2013/11/27
 11 12  0  0  0  0  0  0  0  0999 V2000
  -11.8576  -12.7721    8.8552 N   0  0  0  0  0  0  0  0  0  0  0  0
  -11.5003  -14.0626    8.9536 C   0  0  0  0  0  0  0  0  0  0  0  0
  -11.5175  -14.6641   10.1397 N   0  0  0  0  0  0  0  0  0  0  0  0
  -11.1158  -14.7491    7.8664 N   0  0  0  0  0  0  0  0  0  0  0  0
  -11.0778  -14.1595    6.6623 C   0  0  0  0  0  0  0  0  0  0  0  0
  -11.4423  -12.8253    6.5327 C   0  0  0  0  0  0  0  0  0  0  0  0
  -11.8397  -12.1357    7.6735 C   0  0  0  0  0  0  0  0  0  0  0  0
  -12.2059  -10.8599    7.5933 N   0  0  0  0  0  0  0  0  0  0  0  0
  -11.3004  -12.4943    5.2528 N   0  0  0  0  0  0  0  0  0  0  0  0
  -10.8652  -13.5695    4.5998 C   0  0  0  0  0  0  0  0  0  0  0  0
  -10.7287  -14.5839    5.4513 N   0  0  0  0  0  0  0  0  0  0  0  0
  1  7  2  0  0  0  0
  1  2  1  0  0  0  0
  2  3  1  0  0  0  0
  2  4  2  0  0  0  0
  4  5  1  0  0  0  0
  5  6  2  0  0  0  0
  5 11  1  0  0  0  0
  6  7  1  0  0  0  0
  6  9  1  0  0  0  0
  7  8  1  0  0  0  0
  9 10  1  0  0  0  0
 10 11  2  0  0  0  0
M  END
>  <CHROM.1>
-11.40878943,-13.35250653,7.25885861,1.99995465,-1.24043404,2.11013762

>  <Name>
ligand

>  <RI>
0

>  <Rbt.Current_Directory>
/home/itssahil/PROJECTS/Mol_Feturizer/Test_systems_manuscript/rnas/2b57

>  <Rbt.Executable>
rbdock ($Id: //depot/dev/client3/rdock/2013.1/src/exe/rbdock.cxx#4 $)

>  <Rbt.Library>
libRbt.so (2013.1, Build901 2013/11/27)

>  <Rbt.Parameter_File>
/export/apps/rDock/src/rDock_2013.1_src/data/scripts/dock_solv.prm

>  <Rbt.Receptor>
prm/pocket_docking_4.prm

>  <SCORE>
-11.5367

>  <SCORE.INTER>
-11.5367

>  <SCORE.INTER.CONST>
1

>  <SCORE.INTER.POLAR>
0

>  <SCORE.INTER.ROT>
0

>  <SCORE.INTER.SOLV>
21.4234

>  <SCORE.INTER.VDW>
-18.4323

>  <SCORE.INTER.norm>
-1.04879

>  <SCORE.INTRA>
0

>  <SCORE.INTRA.DIHEDRAL>
0

>  <SCORE.INTRA.DIHEDRAL.0>
0

>  <SCORE.INTRA.POLAR>
0

>  <SCORE.INTRA.POLAR.0>
0

>  <SCORE.INTRA.REPUL>
0

>  <SCORE.INTRA.REPUL.0>
0

>  <SCORE.INTRA.SOLV>
0

>  <SCORE.INTRA.SOLV.lig_0>
-48.3454

>  <SCORE.INTRA.VDW>
0

>  <SCORE.INTRA.VDW.0>
0

>  <SCORE.INTRA.norm>
0

>  <SCORE.RESTR>
0

>  <SCORE.RESTR.CAVITY>
0

>  <SCORE.RESTR.norm>
0

>  <SCORE.SYSTEM>
0

>  <SCORE.SYSTEM.CONST>
0

>  <SCORE.SYSTEM.DIHEDRAL>
0

>  <SCORE.SYSTEM.SOLV>
0

>  <SCORE.SYSTEM.norm>
0

>  <SCORE.heavy>
11

>  <SCORE.norm>
-1.04879

>  <RMSD>
0.606

$$$$
ligand
 OpenBabel02271912153D
libRbt.so/2013.1/901 2013/11/27
 11 12  0  0  0  0  0  0  0  0999 V2000
  -11.8441  -12.7658    8.8584 N   0  0  0  0  0  0  0  0  0  0  0  0
  -11.5002  -14.0601    8.9545 C   0  0  0  0  0  0  0  0  0  0  0  0
  -11.5250  -14.6638   10.1394 N   0  0  0  0  0  0  0  0  0  0  0  0
  -11.1212  -14.7482    7.8664 N   0  0  0  0  0  0  0  0  0  0  0  0
  -11.0756  -14.1565    6.6636 C   0  0  0  0  0  0  0  0  0  0  0  0
  -11.4263  -12.8184    6.5363 C   0  0  0  0  0  0  0  0  0  0  0  0
  -11.8181  -12.1271    7.6780 C   0  0  0  0  0  0  0  0  0  0  0  0
  -12.1713  -10.8476    7.6000 N   0  0  0  0  0  0  0  0  0  0  0  0
  -11.2794  -12.4862    5.2573 N   0  0  0  0  0  0  0  0  0  0  0  0
  -10.8543  -13.5645    4.6026 C   0  0  0  0  0  0  0  0  0  0  0  0
  -10.7293  -14.5819    5.4521 N   0  0  0  0  0  0  0  0  0  0  0  0
  1  7  2  0  0  0  0
  1  2  1  0  0  0  0
  2  3  1  0  0  0  0
  2  4  2  0  0  0  0
  4  5  1  0  0  0  0
  5  6  2  0  0  0  0
  5 11  1  0  0  0  0
  6  7  1  0  0  0  0
  6  9  1  0  0  0  0
  7  8  1  0  0  0  0
  9 10  1  0  0  0  0
 10 11  2  0  0  0  0
M  END
>  <CHROM.1>
-11.39913789,-13.34743090,7.26140197,2.02004592,-1.24844512,2.13124359

>  <Name>
ligand

>  <RI>
0

>  <Rbt.Current_Directory>
/home/itssahil/PROJECTS/Mol_Feturizer/Test_systems_manuscript/rnas/2b57

>  <Rbt.Executable>
rbdock ($Id: //depot/dev/client3/rdock/2013.1/src/exe/rbdock.cxx#4 $)

>  <Rbt.Library>
libRbt.so (2013.1, Build901 2013/11/27)

>  <Rbt.Parameter_File>
/export/apps/rDock/src/rDock_2013.1_src/data/scripts/dock_solv.prm

>  <Rbt.Receptor>
prm/pocket_docking_4.prm

>  <SCORE>
-11.5806

>  <SCORE.INTER>
-11.5806

>  <SCORE.INTER.CONST>
1

>  <SCORE.INTER.POLAR>
0

>  <SCORE.INTER.ROT>
0

>  <SCORE.INTER.SOLV>
21.5362

>  <SCORE.INTER.VDW>
-18.4992

>  <SCORE.INTER.norm>
-1.05279

>  <SCORE.INTRA>
0

>  <SCORE.INTRA.DIHEDRAL>
0

>  <SCORE.INTRA.DIHEDRAL.0>
0

>  <SCORE.INTRA.POLAR>
0

>  <SCORE.INTRA.POLAR.0>
0

>  <SCORE.INTRA.REPUL>
0

>  <SCORE.INTRA.REPUL.0>
0

>  <SCORE.INTRA.SOLV>
0

>  <SCORE.INTRA.SOLV.lig_0>
-48.3454

>  <SCORE.INTRA.VDW>
0

>  <SCORE.INTRA.VDW.0>
0

>  <SCORE.INTRA.norm>
0

>  <SCORE.RESTR>
0

>  <SCORE.RESTR.CAVITY>
0

>  <SCORE.RESTR.norm>
0

>  <SCORE.SYSTEM>
0

>  <SCORE.SYSTEM.CONST>
0

>  <SCORE.SYSTEM.DIHEDRAL>
0

>  <SCORE.SYSTEM.SOLV>
0

>  <SCORE.SYSTEM.norm>
0

>  <SCORE.heavy>
11

>  <SCORE.norm>
-1.05279

>  <RMSD>
0.606

$$$$
ligand
 OpenBabel02271912153D
libRbt.so/2013.1/901 2013/11/27
 11 12  0  0  0  0  0  0  0  0999 V2000
  -11.8344  -12.7430    8.8545 N   0  0  0  0  0  0  0  0  0  0  0  0
  -11.4758  -14.0337    8.9458 C   0  0  0  0  0  0  0  0  0  0  0  0
  -11.4914  -14.6413   10.1289 N   0  0  0  0  0  0  0  0  0  0  0  0
  -11.0915  -14.7142    7.8548 N   0  0  0  0  0  0  0  0  0  0  0  0
  -11.0551  -14.1183    6.6538 C   0  0  0  0  0  0  0  0  0  0  0  0
  -11.4209  -12.7838    6.5314 C   0  0  0  0  0  0  0  0  0  0  0  0
  -11.8180  -12.1005    7.6760 C   0  0  0  0  0  0  0  0  0  0  0  0
  -12.1856  -10.8247    7.6027 N   0  0  0  0  0  0  0  0  0  0  0  0
  -11.2804  -12.4461    5.2530 N   0  0  0  0  0  0  0  0  0  0  0  0
  -10.8447  -13.5175    4.5942 C   0  0  0  0  0  0  0  0  0  0  0  0
  -10.7066  -14.5361    5.4403 N   0  0  0  0  0  0  0  0  0  0  0  0
  1  7  2  0  0  0  0
  1  2  1  0  0  0  0
  2  3  1  0  0  0  0
  2  4  2  0  0  0  0
  4  5  1  0  0  0  0
  5  6  2  0  0  0  0
  5 11  1  0  0  0  0
  6  7  1  0  0  0  0
  6  9  1  0  0  0  0
  7  8  1  0  0  0  0
  9 10  1  0  0  0  0
 10 11  2  0  0  0  0
M  END
>  <CHROM.1>
-11.38633195,-13.31473654,7.25473479,1.99629121,-1.24004742,2.11183033

>  <Name>
ligand

>  <RI>
0

>  <Rbt.Current_Directory>
/home/itssahil/PROJECTS/Mol_Feturizer/Test_systems_manuscript/rnas/2b57

>  <Rbt.Executable>
rbdock ($Id: //depot/dev/client3/rdock/2013.1/src/exe/rbdock.cxx#4 $)

>  <Rbt.Library>
libRbt.so (2013.1, Build901 2013/11/27)

>  <Rbt.Parameter_File>
/export/apps/rDock/src/rDock_2013.1_src/data/scripts/dock_solv.prm

>  <Rbt.Receptor>
prm/pocket_docking_4.prm

>  <SCORE>
-11.4714

>  <SCORE.INTER>
-11.4714

>  <SCORE.INTER.CONST>
1

>  <SCORE.INTER.POLAR>
0

>  <SCORE.INTER.ROT>
0

>  <SCORE.INTER.SOLV>
21.4881

>  <SCORE.INTER.VDW>
-18.4103

>  <SCORE.INTER.norm>
-1.04286

>  <SCORE.INTRA>
0

>  <SCORE.INTRA.DIHEDRAL>
0

>  <SCORE.INTRA.DIHEDRAL.0>
0

>  <SCORE.INTRA.POLAR>
0

>  <SCORE.INTRA.POLAR.0>
0

>  <SCORE.INTRA.REPUL>
0

>  <SCORE.INTRA.REPUL.0>
0

>  <SCORE.INTRA.SOLV>
0

>  <SCORE.INTRA.SOLV.lig_0>
-48.3454

>  <SCORE.INTRA.VDW>
0

>  <SCORE.INTRA.VDW.0>
0

>  <SCORE.INTRA.norm>
0

>  <SCORE.RESTR>
0

>  <SCORE.RESTR.CAVITY>
0

>  <SCORE.RESTR.norm>
0

>  <SCORE.SYSTEM>
0

>  <SCORE.SYSTEM.CONST>
0

>  <SCORE.SYSTEM.DIHEDRAL>
0

>  <SCORE.SYSTEM.SOLV>
0

>  <SCORE.SYSTEM.norm>
0

>  <SCORE.heavy>
11

>  <SCORE.norm>
-1.04286

>  <RMSD>
0.606

$$$$
ligand
 OpenBabel02271912153D
libRbt.so/2013.1/901 2013/11/27
 11 12  0  0  0  0  0  0  0  0999 V2000
  -11.8626  -12.7888    8.8626 N   0  0  0  0  0  0  0  0  0  0  0  0
  -11.5160  -14.0833    8.9455 C   0  0  0  0  0  0  0  0  0  0  0  0
  -11.5360  -14.6982   10.1247 N   0  0  0  0  0  0  0  0  0  0  0  0
  -11.1392  -14.7606    7.8498 N   0  0  0  0  0  0  0  0  0  0  0  0
  -11.0986  -14.1575    6.6525 C   0  0  0  0  0  0  0  0  0  0  0  0
  -11.4520  -12.8190    6.5388 C   0  0  0  0  0  0  0  0  0  0  0  0
  -11.8415  -12.1391    7.6881 C   0  0  0  0  0  0  0  0  0  0  0  0
  -12.1971  -10.8595    7.6232 N   0  0  0  0  0  0  0  0  0  0  0  0
  -11.3097  -12.4745    5.2624 N   0  0  0  0  0  0  0  0  0  0  0  0
  -10.8847  -13.5459    4.5964 C   0  0  0  0  0  0  0  0  0  0  0  0
  -10.7553  -14.5710    5.4360 N   0  0  0  0  0  0  0  0  0  0  0  0
  1  7  2  0  0  0  0
  1  2  1  0  0  0  0
  2  3  1  0  0  0  0
  2  4  2  0  0  0  0
  4  5  1  0  0  0  0
  5  6  2  0  0  0  0
  5 11  1  0  0  0  0
  6  7  1  0  0  0  0
  6  9  1  0  0  0  0
  7  8  1  0  0  0  0
  9 10  1  0  0  0  0
 10 11  2  0  0  0  0
M  END
>  <CHROM.1>
-11.42160438,-13.35467718,7.25880668,2.00861785,-1.24858648,2.12975618

>  <Name>
ligand

>  <RI>
0

>  <Rbt.Current_Directory>
/home/itssahil/PROJECTS/Mol_Feturizer/Test_systems_manuscript/rnas/2b57

>  <Rbt.Executable>
rbdock ($Id: //depot/dev/client3/rdock/2013.1/src/exe/rbdock.cxx#4 $)

>  <Rbt.Library>
libRbt.so (2013.1, Build901 2013/11/27)

>  <Rbt.Parameter_File>
/export/apps/rDock/src/rDock_2013.1_src/data/scripts/dock_solv.prm

>  <Rbt.Receptor>
prm/pocket_docking_5.prm

>  <SCORE>
-11.5596

>  <SCORE.INTER>
-11.5596

>  <SCORE.INTER.CONST>
1

>  <SCORE.INTER.POLAR>
0

>  <SCORE.INTER.ROT>
0

>  <SCORE.INTER.SOLV>
21.5156

>  <SCORE.INTER.VDW>
-18.4783

>  <SCORE.INTER.norm>
-1.05087

>  <SCORE.INTRA>
0

>  <SCORE.INTRA.DIHEDRAL>
0

>  <SCORE.INTRA.DIHEDRAL.0>
0

>  <SCORE.INTRA.POLAR>
0

>  <SCORE.INTRA.POLAR.0>
0

>  <SCORE.INTRA.REPUL>
0

>  <SCORE.INTRA.REPUL.0>
0

>  <SCORE.INTRA.SOLV>
0

>  <SCORE.INTRA.SOLV.lig_0>
-48.3454

>  <SCORE.INTRA.VDW>
0

>  <SCORE.INTRA.VDW.0>
0

>  <SCORE.INTRA.norm>
0

>  <SCORE.RESTR>
0

>  <SCORE.RESTR.CAVITY>
0

>  <SCORE.RESTR.norm>
0

>  <SCORE.SYSTEM>
0

>  <SCORE.SYSTEM.CONST>
0

>  <SCORE.SYSTEM.DIHEDRAL>
0

>  <SCORE.SYSTEM.SOLV>
0

>  <SCORE.SYSTEM.norm>
0

>  <SCORE.heavy>
11

>  <SCORE.norm>
-1.05087

>  <RMSD>
0.606

$$$$
ligand
 OpenBabel02271912153D
libRbt.so/2013.1/901 2013/11/27
 11 12  0  0  0  0  0  0  0  0999 V2000
  -11.8347  -12.7852    8.8722 N   0  0  0  0  0  0  0  0  0  0  0  0
  -11.5075  -14.0849    8.9514 C   0  0  0  0  0  0  0  0  0  0  0  0
  -11.5345  -14.7022   10.1293 N   0  0  0  0  0  0  0  0  0  0  0  0
  -11.1432  -14.7652    7.8534 N   0  0  0  0  0  0  0  0  0  0  0  0
  -11.0959  -14.1601    6.6574 C   0  0  0  0  0  0  0  0  0  0  0  0
  -11.4292  -12.8160    6.5476 C   0  0  0  0  0  0  0  0  0  0  0  0
  -11.8060  -12.1330    7.6992 C   0  0  0  0  0  0  0  0  0  0  0  0
  -12.1424  -10.8480    7.6381 N   0  0  0  0  0  0  0  0  0  0  0  0
  -11.2843  -12.4708    5.2717 N   0  0  0  0  0  0  0  0  0  0  0  0
  -10.8769  -13.5468    4.6023 C   0  0  0  0  0  0  0  0  0  0  0  0
  -10.7613  -14.5758    5.4393 N   0  0  0  0  0  0  0  0  0  0  0  0
  1  7  2  0  0  0  0
  1  2  1  0  0  0  0
  2  3  1  0  0  0  0
  2  4  2  0  0  0  0
  4  5  1  0  0  0  0
  5  6  2  0  0  0  0
  5 11  1  0  0  0  0
  6  7  1  0  0  0  0
  6  9  1  0  0  0  0
  7  8  1  0  0  0  0
  9 10  1  0  0  0  0
 10 11  2  0  0  0  0
M  END
>  <CHROM.1>
-11.40549472,-13.35382104,7.26627177,2.02944395,-1.26242366,2.15190294

>  <Name>
ligand

>  <RI>
0

>  <Rbt.Current_Directory>
/home/itssahil/PROJECTS/Mol_Feturizer/Test_systems_manuscript/rnas/2b57

>  <Rbt.Executable>
rbdock ($Id: //depot/dev/client3/rdock/2013.1/src/exe/rbdock.cxx#4 $)

>  <Rbt.Library>
libRbt.so (2013.1, Build901 2013/11/27)

>  <Rbt.Parameter_File>
/export/apps/rDock/src/rDock_2013.1_src/data/scripts/dock_solv.prm

>  <Rbt.Receptor>
prm/pocket_docking_6.prm

>  <SCORE>
-11.5318

>  <SCORE.INTER>
-11.5318

>  <SCORE.INTER.CONST>
1

>  <SCORE.INTER.POLAR>
0

>  <SCORE.INTER.ROT>
0

>  <SCORE.INTER.SOLV>
21.722

>  <SCORE.INTER.VDW>
-18.5285

>  <SCORE.INTER.norm>
-1.04835

>  <SCORE.INTRA>
0

>  <SCORE.INTRA.DIHEDRAL>
0

>  <SCORE.INTRA.DIHEDRAL.0>
0

>  <SCORE.INTRA.POLAR>
0

>  <SCORE.INTRA.POLAR.0>
0

>  <SCORE.INTRA.REPUL>
0

>  <SCORE.INTRA.REPUL.0>
0

>  <SCORE.INTRA.SOLV>
0

>  <SCORE.INTRA.SOLV.lig_0>
-48.3454

>  <SCORE.INTRA.VDW>
0

>  <SCORE.INTRA.VDW.0>
0

>  <SCORE.INTRA.norm>
0

>  <SCORE.RESTR>
0

>  <SCORE.RESTR.CAVITY>
0

>  <SCORE.RESTR.norm>
0

>  <SCORE.SYSTEM>
0

>  <SCORE.SYSTEM.CONST>
0

>  <SCORE.SYSTEM.DIHEDRAL>
0

>  <SCORE.SYSTEM.SOLV>
0

>  <SCORE.SYSTEM.norm>
0

>  <SCORE.heavy>
11

>  <SCORE.norm>
-1.04835

>  <RMSD>
0.606

$$$$
ligand
 OpenBabel02271912153D
libRbt.so/2013.1/901 2013/11/27
 11 12  0  0  0  0  0  0  0  0999 V2000
  -11.8558  -12.7916    8.8627 N   0  0  0  0  0  0  0  0  0  0  0  0
  -11.5077  -14.0854    8.9508 C   0  0  0  0  0  0  0  0  0  0  0  0
  -11.5322  -14.6969   10.1316 N   0  0  0  0  0  0  0  0  0  0  0  0
  -11.1251  -14.7651    7.8587 N   0  0  0  0  0  0  0  0  0  0  0  0
  -11.0799  -14.1654    6.6599 C   0  0  0  0  0  0  0  0  0  0  0  0
  -11.4347  -12.8277    6.5409 C   0  0  0  0  0  0  0  0  0  0  0  0
  -11.8303  -12.1452    7.6865 C   0  0  0  0  0  0  0  0  0  0  0  0
  -12.1875  -10.8662    7.6164 N   0  0  0  0  0  0  0  0  0  0  0  0
  -11.2872  -12.4866    5.2642 N   0  0  0  0  0  0  0  0  0  0  0  0
  -10.8577  -13.5593    4.6031 C   0  0  0  0  0  0  0  0  0  0  0  0
  -10.7306  -14.5818    5.4461 N   0  0  0  0  0  0  0  0  0  0  0  0
  1  7  2  0  0  0  0
  1  2  1  0  0  0  0
  2  3  1  0  0  0  0
  2  4  2  0  0  0  0
  4  5  1  0  0  0  0
  5  6  2  0  0  0  0
  5 11  1  0  0  0  0
  6  7  1  0  0  0  0
  6  9  1  0  0  0  0
  7  8  1  0  0  0  0
  9 10  1  0  0  0  0
 10 11  2  0  0  0  0
M  END
>  <CHROM.1>
-11.40681043,-13.36133579,7.26250681,2.01813230,-1.24498206,2.13595911

>  <Name>
ligand

>  <RI>
0

>  <Rbt.Current_Directory>
/home/itssahil/PROJECTS/Mol_Feturizer/Test_systems_manuscript/rnas/2b57

>  <Rbt.Executable>
rbdock ($Id: //depot/dev/client3/rdock/2013.1/src/exe/rbdock.cxx#4 $)

>  <Rbt.Library>
libRbt.so (2013.1, Build901 2013/11/27)

>  <Rbt.Parameter_File>
/export/apps/rDock/src/rDock_2013.1_src/data/scripts/dock_solv.prm

>  <Rbt.Receptor>
prm/pocket_docking_3.prm

>  <SCORE>
-11.5809

>  <SCORE.INTER>
-11.5809

>  <SCORE.INTER.CONST>
1

>  <SCORE.INTER.POLAR>
0

>  <SCORE.INTER.ROT>
0

>  <SCORE.INTER.SOLV>
21.5262

>  <SCORE.INTER.VDW>
-18.496

>  <SCORE.INTER.norm>
-1.05281

>  <SCORE.INTRA>
0

>  <SCORE.INTRA.DIHEDRAL>
0

>  <SCORE.INTRA.DIHEDRAL.0>
0

>  <SCORE.INTRA.POLAR>
0

>  <SCORE.INTRA.POLAR.0>
0

>  <SCORE.INTRA.REPUL>
0

>  <SCORE.INTRA.REPUL.0>
0

>  <SCORE.INTRA.SOLV>
0

>  <SCORE.INTRA.SOLV.lig_0>
-48.3454

>  <SCORE.INTRA.VDW>
0

>  <SCORE.INTRA.VDW.0>
0

>  <SCORE.INTRA.norm>
0

>  <SCORE.RESTR>
0

>  <SCORE.RESTR.CAVITY>
0

>  <SCORE.RESTR.norm>
0

>  <SCORE.SYSTEM>
0

>  <SCORE.SYSTEM.CONST>
0

>  <SCORE.SYSTEM.DIHEDRAL>
0

>  <SCORE.SYSTEM.SOLV>
0

>  <SCORE.SYSTEM.norm>
0

>  <SCORE.heavy>
11

>  <SCORE.norm>
-1.05281

>  <RMSD>
0.607

$$$$
ligand
 OpenBabel02271912153D
libRbt.so/2013.1/901 2013/11/27
 11 12  0  0  0  0  0  0  0  0999 V2000
  -11.8422  -12.7649    8.8578 N   0  0  0  0  0  0  0  0  0  0  0  0
  -11.5000  -14.0597    8.9533 C   0  0  0  0  0  0  0  0  0  0  0  0
  -11.5251  -14.6638   10.1379 N   0  0  0  0  0  0  0  0  0  0  0  0
  -11.1226  -14.7480    7.8648 N   0  0  0  0  0  0  0  0  0  0  0  0
  -11.0768  -14.1559    6.6621 C   0  0  0  0  0  0  0  0  0  0  0  0
  -11.4256  -12.8173    6.5355 C   0  0  0  0  0  0  0  0  0  0  0  0
  -11.8158  -12.1258    7.6776 C   0  0  0  0  0  0  0  0  0  0  0  0
  -12.1672  -10.8457    7.6002 N   0  0  0  0  0  0  0  0  0  0  0  0
  -11.2788  -12.4848    5.2565 N   0  0  0  0  0  0  0  0  0  0  0  0
  -10.8556  -13.5635    4.6012 C   0  0  0  0  0  0  0  0  0  0  0  0
  -10.7317  -14.5814    5.4503 N   0  0  0  0  0  0  0  0  0  0  0  0
  1  7  2  0  0  0  0
  1  2  1  0  0  0  0
  2  3  1  0  0  0  0
  2  4  2  0  0  0  0
  4  5  1  0  0  0  0
  5  6  2  0  0  0  0
  5 11  1  0  0  0  0
  6  7  1  0  0  0  0
  6  9  1  0  0  0  0
  7  8  1  0  0  0  0
  9 10  1  0  0  0  0
 10 11  2  0  0  0  0
M  END
>  <CHROM.1>
-11.39882621,-13.34657846,7.26036135,2.02112741,-1.24992938,2.13261615

>  <Name>
ligand

>  <RI>
0

>  <Rbt.Current_Directory>
/home/itssahil/PROJECTS/Mol_Feturizer/Test_systems_manuscript/rnas/2b57

>  <Rbt.Executable>
rbdock ($Id: //depot/dev/client3/rdock/2013.1/src/exe/rbdock.cxx#4 $)

>  <Rbt.Library>
libRbt.so (2013.1, Build901 2013/11/27)

>  <Rbt.Parameter_File>
/export/apps/rDock/src/rDock_2013.1_src/data/scripts/dock_solv.prm

>  <Rbt.Receptor>
prm/pocket_docking_3.prm

>  <SCORE>
-11.5816

>  <SCORE.INTER>
-11.5816

>  <SCORE.INTER.CONST>
1

>  <SCORE.INTER.POLAR>
0

>  <SCORE.INTER.ROT>
0

>  <SCORE.INTER.SOLV>
21.5523

>  <SCORE.INTER.VDW>
-18.5051

>  <SCORE.INTER.norm>
-1.05287

>  <SCORE.INTRA>
0

>  <SCORE.INTRA.DIHEDRAL>
0

>  <SCORE.INTRA.DIHEDRAL.0>
0

>  <SCORE.INTRA.POLAR>
0

>  <SCORE.INTRA.POLAR.0>
0

>  <SCORE.INTRA.REPUL>
0

>  <SCORE.INTRA.REPUL.0>
0

>  <SCORE.INTRA.SOLV>
0

>  <SCORE.INTRA.SOLV.lig_0>
-48.3454

>  <SCORE.INTRA.VDW>
0

>  <SCORE.INTRA.VDW.0>
0

>  <SCORE.INTRA.norm>
0

>  <SCORE.RESTR>
0

>  <SCORE.RESTR.CAVITY>
0

>  <SCORE.RESTR.norm>
0

>  <SCORE.SYSTEM>
0

>  <SCORE.SYSTEM.CONST>
0

>  <SCORE.SYSTEM.DIHEDRAL>
0

>  <SCORE.SYSTEM.SOLV>
0

>  <SCORE.SYSTEM.norm>
0

>  <SCORE.heavy>
11

>  <SCORE.norm>
-1.05287

>  <RMSD>
0.607

$$$$
ligand
 OpenBabel02271912153D
libRbt.so/2013.1/901 2013/11/27
 11 12  0  0  0  0  0  0  0  0999 V2000
  -11.8461  -12.7902    8.8660 N   0  0  0  0  0  0  0  0  0  0  0  0
  -11.5059  -14.0863    8.9503 C   0  0  0  0  0  0  0  0  0  0  0  0
  -11.5344  -14.7013   10.1292 N   0  0  0  0  0  0  0  0  0  0  0  0
  -11.1270  -14.7651    7.8563 N   0  0  0  0  0  0  0  0  0  0  0  0
  -11.0778  -14.1620    6.6593 C   0  0  0  0  0  0  0  0  0  0  0  0
  -11.4245  -12.8218    6.5442 C   0  0  0  0  0  0  0  0  0  0  0  0
  -11.8163  -12.1403    7.6918 C   0  0  0  0  0  0  0  0  0  0  0  0
  -12.1657  -10.8591    7.6256 N   0  0  0  0  0  0  0  0  0  0  0  0
  -11.2745  -12.4777    5.2687 N   0  0  0  0  0  0  0  0  0  0  0  0
  -10.8513  -13.5509    4.6044 C   0  0  0  0  0  0  0  0  0  0  0  0
  -10.7307  -14.5767    5.4443 N   0  0  0  0  0  0  0  0  0  0  0  0
  1  7  2  0  0  0  0
  1  2  1  0  0  0  0
  2  3  1  0  0  0  0
  2  4  2  0  0  0  0
  4  5  1  0  0  0  0
  5  6  2  0  0  0  0
  5 11  1  0  0  0  0
  6  7  1  0  0  0  0
  6  9  1  0  0  0  0
  7  8  1  0  0  0  0
  9 10  1  0  0  0  0
 10 11  2  0  0  0  0
M  END
>  <CHROM.1>
-11.40005150,-13.35775643,7.26424444,2.02930828,-1.24992975,2.14962058

>  <Name>
ligand

>  <RI>
0

>  <Rbt.Current_Directory>
/home/itssahil/PROJECTS/Mol_Feturizer/Test_systems_manuscript/rnas/2b57

>  <Rbt.Executable>
rbdock ($Id: //depot/dev/client3/rdock/2013.1/src/exe/rbdock.cxx#4 $)

>  <Rbt.Library>
libRbt.so (2013.1, Build901 2013/11/27)

>  <Rbt.Parameter_File>
/export/apps/rDock/src/rDock_2013.1_src/data/scripts/dock_solv.prm

>  <Rbt.Receptor>
prm/pocket_docking_4.prm

>  <SCORE>
-11.5334

>  <SCORE.INTER>
-11.5334

>  <SCORE.INTER.CONST>
1

>  <SCORE.INTER.POLAR>
0

>  <SCORE.INTER.ROT>
0

>  <SCORE.INTER.SOLV>
21.6149

>  <SCORE.INTER.VDW>
-18.4939

>  <SCORE.INTER.norm>
-1.04849

>  <SCORE.INTRA>
0

>  <SCORE.INTRA.DIHEDRAL>
0

>  <SCORE.INTRA.DIHEDRAL.0>
0

>  <SCORE.INTRA.POLAR>
0

>  <SCORE.INTRA.POLAR.0>
0

>  <SCORE.INTRA.REPUL>
0

>  <SCORE.INTRA.REPUL.0>
0

>  <SCORE.INTRA.SOLV>
0

>  <SCORE.INTRA.SOLV.lig_0>
-48.3454

>  <SCORE.INTRA.VDW>
0

>  <SCORE.INTRA.VDW.0>
0

>  <SCORE.INTRA.norm>
0

>  <SCORE.RESTR>
0

>  <SCORE.RESTR.CAVITY>
0

>  <SCORE.RESTR.norm>
0

>  <SCORE.SYSTEM>
0

>  <SCORE.SYSTEM.CONST>
0

>  <SCORE.SYSTEM.DIHEDRAL>
0

>  <SCORE.SYSTEM.SOLV>
0

>  <SCORE.SYSTEM.norm>
0

>  <SCORE.heavy>
11

>  <SCORE.norm>
-1.04849

>  <RMSD>
0.607

$$$$
ligand
 OpenBabel02271912153D
libRbt.so/2013.1/901 2013/11/27
 11 12  0  0  0  0  0  0  0  0999 V2000
  -11.8255  -12.7335    8.8545 N   0  0  0  0  0  0  0  0  0  0  0  0
  -11.4632  -14.0233    8.9435 C   0  0  0  0  0  0  0  0  0  0  0  0
  -11.4747  -14.6324   10.1257 N   0  0  0  0  0  0  0  0  0  0  0  0
  -11.0793  -14.7014    7.8508 N   0  0  0  0  0  0  0  0  0  0  0  0
  -11.0471  -14.1039    6.6504 C   0  0  0  0  0  0  0  0  0  0  0  0
  -11.4168  -12.7702    6.5305 C   0  0  0  0  0  0  0  0  0  0  0  0
  -11.8133  -12.0894    7.6767 C   0  0  0  0  0  0  0  0  0  0  0  0
  -12.1845  -10.8145    7.6059 N   0  0  0  0  0  0  0  0  0  0  0  0
  -11.2798  -12.4305    5.2523 N   0  0  0  0  0  0  0  0  0  0  0  0
  -10.8426  -13.4999    4.5911 C   0  0  0  0  0  0  0  0  0  0  0  0
  -10.6999  -14.5192    5.4357 N   0  0  0  0  0  0  0  0  0  0  0  0
  1  7  2  0  0  0  0
  1  2  1  0  0  0  0
  2  3  1  0  0  0  0
  2  4  2  0  0  0  0
  4  5  1  0  0  0  0
  5  6  2  0  0  0  0
  5 11  1  0  0  0  0
  6  7  1  0  0  0  0
  6  9  1  0  0  0  0
  7  8  1  0  0  0  0
  9 10  1  0  0  0  0
 10 11  2  0  0  0  0
M  END
>  <CHROM.1>
-11.37920899,-13.30195332,7.25308513,1.98652593,-1.23876575,2.10386408

>  <Name>
ligand

>  <RI>
0

>  <Rbt.Current_Directory>
/home/itssahil/PROJECTS/Mol_Feturizer/Test_systems_manuscript/rnas/2b57

>  <Rbt.Executable>
rbdock ($Id: //depot/dev/client3/rdock/2013.1/src/exe/rbdock.cxx#4 $)

>  <Rbt.Library>
libRbt.so (2013.1, Build901 2013/11/27)

>  <Rbt.Parameter_File>
/export/apps/rDock/src/rDock_2013.1_src/data/scripts/dock_solv.prm

>  <Rbt.Receptor>
prm/pocket_docking_6.prm

>  <SCORE>
-11.4687

>  <SCORE.INTER>
-11.4687

>  <SCORE.INTER.CONST>
1

>  <SCORE.INTER.POLAR>
0

>  <SCORE.INTER.ROT>
0

>  <SCORE.INTER.SOLV>
21.493

>  <SCORE.INTER.VDW>
-18.4102

>  <SCORE.INTER.norm>
-1.04261

>  <SCORE.INTRA>
0

>  <SCORE.INTRA.DIHEDRAL>
0

>  <SCORE.INTRA.DIHEDRAL.0>
0

>  <SCORE.INTRA.POLAR>
0

>  <SCORE.INTRA.POLAR.0>
0

>  <SCORE.INTRA.REPUL>
0

>  <SCORE.INTRA.REPUL.0>
0

>  <SCORE.INTRA.SOLV>
0

>  <SCORE.INTRA.SOLV.lig_0>
-48.3454

>  <SCORE.INTRA.VDW>
0

>  <SCORE.INTRA.VDW.0>
0

>  <SCORE.INTRA.norm>
0

>  <SCORE.RESTR>
0

>  <SCORE.RESTR.CAVITY>
0

>  <SCORE.RESTR.norm>
0

>  <SCORE.SYSTEM>
0

>  <SCORE.SYSTEM.CONST>
0

>  <SCORE.SYSTEM.DIHEDRAL>
0

>  <SCORE.SYSTEM.SOLV>
0

>  <SCORE.SYSTEM.norm>
0

>  <SCORE.heavy>
11

>  <SCORE.norm>
-1.04261

>  <RMSD>
0.607

$$$$
ligand
 OpenBabel02271912153D
libRbt.so/2013.1/901 2013/11/27
 11 12  0  0  0  0  0  0  0  0999 V2000
  -11.8511  -12.7690    8.8583 N   0  0  0  0  0  0  0  0  0  0  0  0
  -11.5055  -14.0634    8.9458 C   0  0  0  0  0  0  0  0  0  0  0  0
  -11.5223  -14.6731   10.1277 N   0  0  0  0  0  0  0  0  0  0  0  0
  -11.1331  -14.7458    7.8518 N   0  0  0  0  0  0  0  0  0  0  0  0
  -11.0958  -14.1481    6.6517 C   0  0  0  0  0  0  0  0  0  0  0  0
  -11.4483  -12.8097    6.5334 C   0  0  0  0  0  0  0  0  0  0  0  0
  -11.8332  -12.1244    7.6809 C   0  0  0  0  0  0  0  0  0  0  0  0
  -12.1878  -10.8447    7.6117 N   0  0  0  0  0  0  0  0  0  0  0  0
  -11.3099  -12.4710    5.2550 N   0  0  0  0  0  0  0  0  0  0  0  0
  -10.8882  -13.5457    4.5923 C   0  0  0  0  0  0  0  0  0  0  0  0
  -10.7570  -14.5672    5.4359 N   0  0  0  0  0  0  0  0  0  0  0  0
  1  7  2  0  0  0  0
  1  2  1  0  0  0  0
  2  3  1  0  0  0  0
  2  4  2  0  0  0  0
  4  5  1  0  0  0  0
  5  6  2  0  0  0  0
  5 11  1  0  0  0  0
  6  7  1  0  0  0  0
  6  9  1  0  0  0  0
  7  8  1  0  0  0  0
  9 10  1  0  0  0  0
 10 11  2  0  0  0  0
M  END
>  <CHROM.1>
-11.41601952,-13.34226034,7.25559312,2.00132585,-1.25119989,2.11845793

>  <Name>
ligand

>  <RI>
0

>  <Rbt.Current_Directory>
/home/itssahil/PROJECTS/Mol_Feturizer/Test_systems_manuscript/rnas/2b57

>  <Rbt.Executable>
rbdock ($Id: //depot/dev/client3/rdock/2013.1/src/exe/rbdock.cxx#4 $)

>  <Rbt.Library>
libRbt.so (2013.1, Build901 2013/11/27)

>  <Rbt.Parameter_File>
/export/apps/rDock/src/rDock_2013.1_src/data/scripts/dock_solv.prm

>  <Rbt.Receptor>
prm/pocket_docking_7.prm

>  <SCORE>
-11.5481

>  <SCORE.INTER>
-11.5481

>  <SCORE.INTER.CONST>
1

>  <SCORE.INTER.POLAR>
0

>  <SCORE.INTER.ROT>
0

>  <SCORE.INTER.SOLV>
21.5152

>  <SCORE.INTER.VDW>
-18.4704

>  <SCORE.INTER.norm>
-1.04982

>  <SCORE.INTRA>
0

>  <SCORE.INTRA.DIHEDRAL>
0

>  <SCORE.INTRA.DIHEDRAL.0>
0

>  <SCORE.INTRA.POLAR>
0

>  <SCORE.INTRA.POLAR.0>
0

>  <SCORE.INTRA.REPUL>
0

>  <SCORE.INTRA.REPUL.0>
0

>  <SCORE.INTRA.SOLV>
0

>  <SCORE.INTRA.SOLV.lig_0>
-48.3454

>  <SCORE.INTRA.VDW>
0

>  <SCORE.INTRA.VDW.0>
0

>  <SCORE.INTRA.norm>
0

>  <SCORE.RESTR>
0

>  <SCORE.RESTR.CAVITY>
0

>  <SCORE.RESTR.norm>
0

>  <SCORE.SYSTEM>
0

>  <SCORE.SYSTEM.CONST>
0

>  <SCORE.SYSTEM.DIHEDRAL>
0

>  <SCORE.SYSTEM.SOLV>
0

>  <SCORE.SYSTEM.norm>
0

>  <SCORE.heavy>
11

>  <SCORE.norm>
-1.04982

>  <RMSD>
0.607

$$$$
ligand
 OpenBabel02271912153D
libRbt.so/2013.1/901 2013/11/27
 11 12  0  0  0  0  0  0  0  0999 V2000
  -11.8364  -12.7631    8.8596 N   0  0  0  0  0  0  0  0  0  0  0  0
  -11.4988  -14.0592    8.9547 C   0  0  0  0  0  0  0  0  0  0  0  0
  -11.5258  -14.6635   10.1392 N   0  0  0  0  0  0  0  0  0  0  0  0
  -11.1239  -14.7485    7.8659 N   0  0  0  0  0  0  0  0  0  0  0  0
  -11.0762  -14.1562    6.6635 C   0  0  0  0  0  0  0  0  0  0  0  0
  -11.4203  -12.8163    6.5372 C   0  0  0  0  0  0  0  0  0  0  0  0
  -11.8080  -12.1239    7.6796 C   0  0  0  0  0  0  0  0  0  0  0  0
  -12.1549  -10.8425    7.6027 N   0  0  0  0  0  0  0  0  0  0  0  0
  -11.2726  -12.4840    5.2583 N   0  0  0  0  0  0  0  0  0  0  0  0
  -10.8532  -13.5640    4.6027 C   0  0  0  0  0  0  0  0  0  0  0  0
  -10.7327  -14.5826    5.4515 N   0  0  0  0  0  0  0  0  0  0  0  0
  1  7  2  0  0  0  0
  1  2  1  0  0  0  0
  2  3  1  0  0  0  0
  2  4  2  0  0  0  0
  4  5  1  0  0  0  0
  5  6  2  0  0  0  0
  5 11  1  0  0  0  0
  6  7  1  0  0  0  0
  6  9  1  0  0  0  0
  7  8  1  0  0  0  0
  9 10  1  0  0  0  0
 10 11  2  0  0  0  0
M  END
>  <CHROM.1>
-11.39530775,-13.34593546,7.26196027,2.02670211,-1.25296945,2.13819521

>  <Name>
ligand

>  <RI>
0

>  <Rbt.Current_Directory>
/home/itssahil/PROJECTS/Mol_Feturizer/Test_systems_manuscript/rnas/2b57

>  <Rbt.Executable>
rbdock ($Id: //depot/dev/client3/rdock/2013.1/src/exe/rbdock.cxx#4 $)

>  <Rbt.Library>
libRbt.so (2013.1, Build901 2013/11/27)

>  <Rbt.Parameter_File>
/export/apps/rDock/src/rDock_2013.1_src/data/scripts/dock_solv.prm

>  <Rbt.Receptor>
prm/pocket_docking_7.prm

>  <SCORE>
-11.5719

>  <SCORE.INTER>
-11.5719

>  <SCORE.INTER.CONST>
1

>  <SCORE.INTER.POLAR>
0

>  <SCORE.INTER.ROT>
0

>  <SCORE.INTER.SOLV>
21.6034

>  <SCORE.INTER.VDW>
-18.5157

>  <SCORE.INTER.norm>
-1.05199

>  <SCORE.INTRA>
0

>  <SCORE.INTRA.DIHEDRAL>
0

>  <SCORE.INTRA.DIHEDRAL.0>
0

>  <SCORE.INTRA.POLAR>
0

>  <SCORE.INTRA.POLAR.0>
0

>  <SCORE.INTRA.REPUL>
0

>  <SCORE.INTRA.REPUL.0>
0

>  <SCORE.INTRA.SOLV>
0

>  <SCORE.INTRA.SOLV.lig_0>
-48.3454

>  <SCORE.INTRA.VDW>
0

>  <SCORE.INTRA.VDW.0>
0

>  <SCORE.INTRA.norm>
0

>  <SCORE.RESTR>
0

>  <SCORE.RESTR.CAVITY>
0

>  <SCORE.RESTR.norm>
0

>  <SCORE.SYSTEM>
0

>  <SCORE.SYSTEM.CONST>
0

>  <SCORE.SYSTEM.DIHEDRAL>
0

>  <SCORE.SYSTEM.SOLV>
0

>  <SCORE.SYSTEM.norm>
0

>  <SCORE.heavy>
11

>  <SCORE.norm>
-1.05199

>  <RMSD>
0.607

$$$$
ligand
 OpenBabel02271912153D
libRbt.so/2013.1/901 2013/11/27
 11 12  0  0  0  0  0  0  0  0999 V2000
  -11.8755  -12.7807    8.8553 N   0  0  0  0  0  0  0  0  0  0  0  0
  -11.5427  -14.0784    8.9433 C   0  0  0  0  0  0  0  0  0  0  0  0
  -11.5789  -14.6910   10.1234 N   0  0  0  0  0  0  0  0  0  0  0  0
  -11.1635  -14.7614    7.8520 N   0  0  0  0  0  0  0  0  0  0  0  0
  -11.1066  -14.1609    6.6540 C   0  0  0  0  0  0  0  0  0  0  0  0
  -11.4456  -12.8191    6.5351 C   0  0  0  0  0  0  0  0  0  0  0  0
  -11.8378  -12.1333    7.6799 C   0  0  0  0  0  0  0  0  0  0  0  0
  -12.1800  -10.8502    7.6099 N   0  0  0  0  0  0  0  0  0  0  0  0
  -11.2890  -12.4783    5.2594 N   0  0  0  0  0  0  0  0  0  0  0  0
  -10.8693  -13.5551    4.5988 C   0  0  0  0  0  0  0  0  0  0  0  0
  -10.7573  -14.5800    5.4412 N   0  0  0  0  0  0  0  0  0  0  0  0
  1  7  2  0  0  0  0
  1  2  1  0  0  0  0
  2  3  1  0  0  0  0
  2  4  2  0  0  0  0
  4  5  1  0  0  0  0
  5  6  2  0  0  0  0
  5 11  1  0  0  0  0
  6  7  1  0  0  0  0
  6  9  1  0  0  0  0
  7  8  1  0  0  0  0
  9 10  1  0  0  0  0
 10 11  2  0  0  0  0
M  END
>  <CHROM.1>
-11.42666992,-13.35377365,7.25626451,2.04865006,-1.25243953,2.16602373

>  <Name>
ligand

>  <RI>
0

>  <Rbt.Current_Directory>
/home/itssahil/PROJECTS/Mol_Feturizer/Test_systems_manuscript/rnas/2b57

>  <Rbt.Executable>
rbdock ($Id: //depot/dev/client3/rdock/2013.1/src/exe/rbdock.cxx#4 $)

>  <Rbt.Library>
libRbt.so (2013.1, Build901 2013/11/27)

>  <Rbt.Parameter_File>
/export/apps/rDock/src/rDock_2013.1_src/data/scripts/dock_solv.prm

>  <Rbt.Receptor>
prm/pocket_docking_7.prm

>  <SCORE>
-11.5277

>  <SCORE.INTER>
-11.5277

>  <SCORE.INTER.CONST>
1

>  <SCORE.INTER.POLAR>
0

>  <SCORE.INTER.ROT>
0

>  <SCORE.INTER.SOLV>
21.5635

>  <SCORE.INTER.VDW>
-18.473

>  <SCORE.INTER.norm>
-1.04797

>  <SCORE.INTRA>
0

>  <SCORE.INTRA.DIHEDRAL>
0

>  <SCORE.INTRA.DIHEDRAL.0>
0

>  <SCORE.INTRA.POLAR>
0

>  <SCORE.INTRA.POLAR.0>
0

>  <SCORE.INTRA.REPUL>
0

>  <SCORE.INTRA.REPUL.0>
0

>  <SCORE.INTRA.SOLV>
0

>  <SCORE.INTRA.SOLV.lig_0>
-48.3454

>  <SCORE.INTRA.VDW>
0

>  <SCORE.INTRA.VDW.0>
0

>  <SCORE.INTRA.norm>
0

>  <SCORE.RESTR>
0

>  <SCORE.RESTR.CAVITY>
0

>  <SCORE.RESTR.norm>
0

>  <SCORE.SYSTEM>
0

>  <SCORE.SYSTEM.CONST>
0

>  <SCORE.SYSTEM.DIHEDRAL>
0

>  <SCORE.SYSTEM.SOLV>
0

>  <SCORE.SYSTEM.norm>
0

>  <SCORE.heavy>
11

>  <SCORE.norm>
-1.04797

>  <RMSD>
0.607

$$$$
ligand
 OpenBabel02271912153D
libRbt.so/2013.1/901 2013/11/27
 11 12  0  0  0  0  0  0  0  0999 V2000
  -11.8248  -12.7576    8.8616 N   0  0  0  0  0  0  0  0  0  0  0  0
  -11.4689  -14.0489    8.9551 C   0  0  0  0  0  0  0  0  0  0  0  0
  -11.4758  -14.6516   10.1407 N   0  0  0  0  0  0  0  0  0  0  0  0
  -11.0961  -14.7349    7.8636 N   0  0  0  0  0  0  0  0  0  0  0  0
  -11.0686  -14.1440    6.6598 C   0  0  0  0  0  0  0  0  0  0  0  0
  -11.4319  -12.8090    6.5352 C   0  0  0  0  0  0  0  0  0  0  0  0
  -11.8170  -12.1199    7.6804 C   0  0  0  0  0  0  0  0  0  0  0  0
  -12.1817  -10.8434    7.6052 N   0  0  0  0  0  0  0  0  0  0  0  0
  -11.3017  -12.4768    5.2543 N   0  0  0  0  0  0  0  0  0  0  0  0
  -10.8747  -13.5522    4.5960 C   0  0  0  0  0  0  0  0  0  0  0  0
  -10.7320  -14.5677    5.4450 N   0  0  0  0  0  0  0  0  0  0  0  0
  1  7  2  0  0  0  0
  1  2  1  0  0  0  0
  2  3  1  0  0  0  0
  2  4  2  0  0  0  0
  4  5  1  0  0  0  0
  5  6  2  0  0  0  0
  5 11  1  0  0  0  0
  6  7  1  0  0  0  0
  6  9  1  0  0  0  0
  7  8  1  0  0  0  0
  9 10  1  0  0  0  0
 10 11  2  0  0  0  0
M  END
>  <CHROM.1>
-11.39237411,-13.33706514,7.26036870,1.97699536,-1.24685753,2.08947776

>  <Name>
ligand

>  <RI>
0

>  <Rbt.Current_Directory>
/home/itssahil/PROJECTS/Mol_Feturizer/Test_systems_manuscript/rnas/2b57

>  <Rbt.Executable>
rbdock ($Id: //depot/dev/client3/rdock/2013.1/src/exe/rbdock.cxx#4 $)

>  <Rbt.Library>
libRbt.so (2013.1, Build901 2013/11/27)

>  <Rbt.Parameter_File>
/export/apps/rDock/src/rDock_2013.1_src/data/scripts/dock_solv.prm

>  <Rbt.Receptor>
prm/pocket_docking_8.prm

>  <SCORE>
-11.5231

>  <SCORE.INTER>
-11.5231

>  <SCORE.INTER.CONST>
1

>  <SCORE.INTER.POLAR>
0

>  <SCORE.INTER.ROT>
0

>  <SCORE.INTER.SOLV>
21.5051

>  <SCORE.INTER.VDW>
-18.4504

>  <SCORE.INTER.norm>
-1.04755

>  <SCORE.INTRA>
0

>  <SCORE.INTRA.DIHEDRAL>
0

>  <SCORE.INTRA.DIHEDRAL.0>
0

>  <SCORE.INTRA.POLAR>
0

>  <SCORE.INTRA.POLAR.0>
0

>  <SCORE.INTRA.REPUL>
0

>  <SCORE.INTRA.REPUL.0>
0

>  <SCORE.INTRA.SOLV>
0

>  <SCORE.INTRA.SOLV.lig_0>
-48.3454

>  <SCORE.INTRA.VDW>
0

>  <SCORE.INTRA.VDW.0>
0

>  <SCORE.INTRA.norm>
0

>  <SCORE.RESTR>
0

>  <SCORE.RESTR.CAVITY>
0

>  <SCORE.RESTR.norm>
0

>  <SCORE.SYSTEM>
0

>  <SCORE.SYSTEM.CONST>
0

>  <SCORE.SYSTEM.DIHEDRAL>
0

>  <SCORE.SYSTEM.SOLV>
0

>  <SCORE.SYSTEM.norm>
0

>  <SCORE.heavy>
11

>  <SCORE.norm>
-1.04755

>  <RMSD>
0.607

$$$$
ligand
 OpenBabel02271912153D
libRbt.so/2013.1/901 2013/11/27
 11 12  0  0  0  0  0  0  0  0999 V2000
  -11.8505  -12.7833    8.8619 N   0  0  0  0  0  0  0  0  0  0  0  0
  -11.5187  -14.0813    8.9512 C   0  0  0  0  0  0  0  0  0  0  0  0
  -11.5495  -14.6910   10.1328 N   0  0  0  0  0  0  0  0  0  0  0  0
  -11.1460  -14.7671    7.8595 N   0  0  0  0  0  0  0  0  0  0  0  0
  -11.0947  -14.1694    6.6599 C   0  0  0  0  0  0  0  0  0  0  0  0
  -11.4327  -12.8274    6.5396 C   0  0  0  0  0  0  0  0  0  0  0  0
  -11.8182  -12.1386    7.6849 C   0  0  0  0  0  0  0  0  0  0  0  0
  -12.1592  -10.8553    7.6137 N   0  0  0  0  0  0  0  0  0  0  0  0
  -11.2823  -12.4898    5.2624 N   0  0  0  0  0  0  0  0  0  0  0  0
  -10.8673  -13.5685    4.6021 C   0  0  0  0  0  0  0  0  0  0  0  0
  -10.7521  -14.5916    5.4462 N   0  0  0  0  0  0  0  0  0  0  0  0
  1  7  2  0  0  0  0
  1  2  1  0  0  0  0
  2  3  1  0  0  0  0
  2  4  2  0  0  0  0
  4  5  1  0  0  0  0
  5  6  2  0  0  0  0
  5 11  1  0  0  0  0
  6  7  1  0  0  0  0
  6  9  1  0  0  0  0
  7  8  1  0  0  0  0
  9 10  1  0  0  0  0
 10 11  2  0  0  0  0
M  END
>  <CHROM.1>
-11.41062886,-13.36054608,7.26189111,2.03683380,-1.25628497,2.15252459

>  <Name>
ligand

>  <RI>
0

>  <Rbt.Current_Directory>
/home/itssahil/PROJECTS/Mol_Feturizer/Test_systems_manuscript/rnas/2b57

>  <Rbt.Executable>
rbdock ($Id: //depot/dev/client3/rdock/2013.1/src/exe/rbdock.cxx#4 $)

>  <Rbt.Library>
libRbt.so (2013.1, Build901 2013/11/27)

>  <Rbt.Parameter_File>
/export/apps/rDock/src/rDock_2013.1_src/data/scripts/dock_solv.prm

>  <Rbt.Receptor>
prm/pocket_docking_3.prm

>  <SCORE>
-11.5192

>  <SCORE.INTER>
-11.5192

>  <SCORE.INTER.CONST>
1

>  <SCORE.INTER.POLAR>
0

>  <SCORE.INTER.ROT>
0

>  <SCORE.INTER.SOLV>
21.625

>  <SCORE.INTER.VDW>
-18.4878

>  <SCORE.INTER.norm>
-1.0472

>  <SCORE.INTRA>
0

>  <SCORE.INTRA.DIHEDRAL>
0

>  <SCORE.INTRA.DIHEDRAL.0>
0

>  <SCORE.INTRA.POLAR>
0

>  <SCORE.INTRA.POLAR.0>
0

>  <SCORE.INTRA.REPUL>
0

>  <SCORE.INTRA.REPUL.0>
0

>  <SCORE.INTRA.SOLV>
0

>  <SCORE.INTRA.SOLV.lig_0>
-48.3454

>  <SCORE.INTRA.VDW>
0

>  <SCORE.INTRA.VDW.0>
0

>  <SCORE.INTRA.norm>
0

>  <SCORE.RESTR>
0

>  <SCORE.RESTR.CAVITY>
0

>  <SCORE.RESTR.norm>
0

>  <SCORE.SYSTEM>
0

>  <SCORE.SYSTEM.CONST>
0

>  <SCORE.SYSTEM.DIHEDRAL>
0

>  <SCORE.SYSTEM.SOLV>
0

>  <SCORE.SYSTEM.norm>
0

>  <SCORE.heavy>
11

>  <SCORE.norm>
-1.0472

>  <RMSD>
0.608

$$$$
ligand
 OpenBabel02271912153D
libRbt.so/2013.1/901 2013/11/27
 11 12  0  0  0  0  0  0  0  0999 V2000
  -11.8543  -12.7708    8.8543 N   0  0  0  0  0  0  0  0  0  0  0  0
  -11.4997  -14.0629    8.9396 C   0  0  0  0  0  0  0  0  0  0  0  0
  -11.5265  -14.6787   10.1182 N   0  0  0  0  0  0  0  0  0  0  0  0
  -11.1081  -14.7368    7.8471 N   0  0  0  0  0  0  0  0  0  0  0  0
  -11.0603  -14.1327    6.6505 C   0  0  0  0  0  0  0  0  0  0  0  0
  -11.4218  -12.7965    6.5344 C   0  0  0  0  0  0  0  0  0  0  0  0
  -11.8266  -12.1201    7.6804 C   0  0  0  0  0  0  0  0  0  0  0  0
  -12.1904  -10.8429    7.6131 N   0  0  0  0  0  0  0  0  0  0  0  0
  -11.2700  -12.4502    5.2596 N   0  0  0  0  0  0  0  0  0  0  0  0
  -10.8315  -13.5182    4.5969 C   0  0  0  0  0  0  0  0  0  0  0  0
  -10.7029  -14.5429    5.4370 N   0  0  0  0  0  0  0  0  0  0  0  0
  1  7  2  0  0  0  0
  1  2  1  0  0  0  0
  2  3  1  0  0  0  0
  2  4  2  0  0  0  0
  4  5  1  0  0  0  0
  5  6  2  0  0  0  0
  5 11  1  0  0  0  0
  6  7  1  0  0  0  0
  6  9  1  0  0  0  0
  7  8  1  0  0  0  0
  9 10  1  0  0  0  0
 10 11  2  0  0  0  0
M  END
>  <CHROM.1>
-11.39451478,-13.33247262,7.25432179,2.02175336,-1.23782261,2.14285770

>  <Name>
ligand

>  <RI>
0

>  <Rbt.Current_Directory>
/home/itssahil/PROJECTS/Mol_Feturizer/Test_systems_manuscript/rnas/2b57

>  <Rbt.Executable>
rbdock ($Id: //depot/dev/client3/rdock/2013.1/src/exe/rbdock.cxx#4 $)

>  <Rbt.Library>
libRbt.so (2013.1, Build901 2013/11/27)

>  <Rbt.Parameter_File>
/export/apps/rDock/src/rDock_2013.1_src/data/scripts/dock_solv.prm

>  <Rbt.Receptor>
prm/pocket_docking_4.prm

>  <SCORE>
-11.4894

>  <SCORE.INTER>
-11.4894

>  <SCORE.INTER.CONST>
1

>  <SCORE.INTER.POLAR>
0

>  <SCORE.INTER.ROT>
0

>  <SCORE.INTER.SOLV>
21.4972

>  <SCORE.INTER.VDW>
-18.4253

>  <SCORE.INTER.norm>
-1.04449

>  <SCORE.INTRA>
0

>  <SCORE.INTRA.DIHEDRAL>
0

>  <SCORE.INTRA.DIHEDRAL.0>
0

>  <SCORE.INTRA.POLAR>
0

>  <SCORE.INTRA.POLAR.0>
0

>  <SCORE.INTRA.REPUL>
0

>  <SCORE.INTRA.REPUL.0>
0

>  <SCORE.INTRA.SOLV>
0

>  <SCORE.INTRA.SOLV.lig_0>
-48.3454

>  <SCORE.INTRA.VDW>
0

>  <SCORE.INTRA.VDW.0>
0

>  <SCORE.INTRA.norm>
0

>  <SCORE.RESTR>
0

>  <SCORE.RESTR.CAVITY>
0

>  <SCORE.RESTR.norm>
0

>  <SCORE.SYSTEM>
0

>  <SCORE.SYSTEM.CONST>
0

>  <SCORE.SYSTEM.DIHEDRAL>
0

>  <SCORE.SYSTEM.SOLV>
0

>  <SCORE.SYSTEM.norm>
0

>  <SCORE.heavy>
11

>  <SCORE.norm>
-1.04449

>  <RMSD>
0.608

$$$$
ligand
 OpenBabel02271912153D
libRbt.so/2013.1/901 2013/11/27
 11 12  0  0  0  0  0  0  0  0999 V2000
  -11.8437  -12.7658    8.8563 N   0  0  0  0  0  0  0  0  0  0  0  0
  -11.5011  -14.0605    8.9523 C   0  0  0  0  0  0  0  0  0  0  0  0
  -11.5273  -14.6644   10.1370 N   0  0  0  0  0  0  0  0  0  0  0  0
  -11.1223  -14.7488    7.8643 N   0  0  0  0  0  0  0  0  0  0  0  0
  -11.0755  -14.1568    6.6616 C   0  0  0  0  0  0  0  0  0  0  0  0
  -11.4247  -12.8183    6.5344 C   0  0  0  0  0  0  0  0  0  0  0  0
  -11.8164  -12.1269    7.6760 C   0  0  0  0  0  0  0  0  0  0  0  0
  -12.1681  -10.8469    7.5981 N   0  0  0  0  0  0  0  0  0  0  0  0
  -11.2767  -12.4860    5.2555 N   0  0  0  0  0  0  0  0  0  0  0  0
  -10.8524  -13.5646    4.6008 C   0  0  0  0  0  0  0  0  0  0  0  0
  -10.7289  -14.5823    5.4502 N   0  0  0  0  0  0  0  0  0  0  0  0
  1  7  2  0  0  0  0
  1  2  1  0  0  0  0
  2  3  1  0  0  0  0
  2  4  2  0  0  0  0
  4  5  1  0  0  0  0
  5  6  2  0  0  0  0
  5 11  1  0  0  0  0
  6  7  1  0  0  0  0
  6  9  1  0  0  0  0
  7  8  1  0  0  0  0
  9 10  1  0  0  0  0
 10 11  2  0  0  0  0
M  END
>  <CHROM.1>
-11.39846238,-13.34752454,7.25938893,2.02327281,-1.24905399,2.13452200

>  <Name>
ligand

>  <RI>
0

>  <Rbt.Current_Directory>
/home/itssahil/PROJECTS/Mol_Feturizer/Test_systems_manuscript/rnas/2b57

>  <Rbt.Executable>
rbdock ($Id: //depot/dev/client3/rdock/2013.1/src/exe/rbdock.cxx#4 $)

>  <Rbt.Library>
libRbt.so (2013.1, Build901 2013/11/27)

>  <Rbt.Parameter_File>
/export/apps/rDock/src/rDock_2013.1_src/data/scripts/dock_solv.prm

>  <Rbt.Receptor>
prm/pocket_docking_4.prm

>  <SCORE>
-11.5816

>  <SCORE.INTER>
-11.5816

>  <SCORE.INTER.CONST>
1

>  <SCORE.INTER.POLAR>
0

>  <SCORE.INTER.ROT>
0

>  <SCORE.INTER.SOLV>
21.5456

>  <SCORE.INTER.VDW>
-18.503

>  <SCORE.INTER.norm>
-1.05288

>  <SCORE.INTRA>
0

>  <SCORE.INTRA.DIHEDRAL>
0

>  <SCORE.INTRA.DIHEDRAL.0>
0

>  <SCORE.INTRA.POLAR>
0

>  <SCORE.INTRA.POLAR.0>
0

>  <SCORE.INTRA.REPUL>
0

>  <SCORE.INTRA.REPUL.0>
0

>  <SCORE.INTRA.SOLV>
0

>  <SCORE.INTRA.SOLV.lig_0>
-48.3454

>  <SCORE.INTRA.VDW>
0

>  <SCORE.INTRA.VDW.0>
0

>  <SCORE.INTRA.norm>
0

>  <SCORE.RESTR>
0

>  <SCORE.RESTR.CAVITY>
0

>  <SCORE.RESTR.norm>
0

>  <SCORE.SYSTEM>
0

>  <SCORE.SYSTEM.CONST>
0

>  <SCORE.SYSTEM.DIHEDRAL>
0

>  <SCORE.SYSTEM.SOLV>
0

>  <SCORE.SYSTEM.norm>
0

>  <SCORE.heavy>
11

>  <SCORE.norm>
-1.05288

>  <RMSD>
0.608

$$$$
ligand
 OpenBabel02271912153D
libRbt.so/2013.1/901 2013/11/27
 11 12  0  0  0  0  0  0  0  0999 V2000
  -11.8369  -12.7624    8.8602 N   0  0  0  0  0  0  0  0  0  0  0  0
  -11.5032  -14.0599    8.9492 C   0  0  0  0  0  0  0  0  0  0  0  0
  -11.5269  -14.6684   10.1316 N   0  0  0  0  0  0  0  0  0  0  0  0
  -11.1355  -14.7465    7.8563 N   0  0  0  0  0  0  0  0  0  0  0  0
  -11.0912  -14.1501    6.6557 C   0  0  0  0  0  0  0  0  0  0  0  0
  -11.4315  -12.8086    6.5358 C   0  0  0  0  0  0  0  0  0  0  0  0
  -11.8117  -12.1190    7.6824 C   0  0  0  0  0  0  0  0  0  0  0  0
  -12.1547  -10.8362    7.6116 N   0  0  0  0  0  0  0  0  0  0  0  0
  -11.2884  -12.4722    5.2574 N   0  0  0  0  0  0  0  0  0  0  0  0
  -10.8756  -13.5512    4.5961 C   0  0  0  0  0  0  0  0  0  0  0  0
  -10.7546  -14.5732    5.4407 N   0  0  0  0  0  0  0  0  0  0  0  0
  1  7  2  0  0  0  0
  1  2  1  0  0  0  0
  2  3  1  0  0  0  0
  2  4  2  0  0  0  0
  4  5  1  0  0  0  0
  5  6  2  0  0  0  0
  5 11  1  0  0  0  0
  6  7  1  0  0  0  0
  6  9  1  0  0  0  0
  7  8  1  0  0  0  0
  9 10  1  0  0  0  0
 10 11  2  0  0  0  0
M  END
>  <CHROM.1>
-11.40495601,-13.34090477,7.25853644,2.02018151,-1.25817309,2.13557092

>  <Name>
ligand

>  <RI>
0

>  <Rbt.Current_Directory>
/home/itssahil/PROJECTS/Mol_Feturizer/Test_systems_manuscript/rnas/2b57

>  <Rbt.Executable>
rbdock ($Id: //depot/dev/client3/rdock/2013.1/src/exe/rbdock.cxx#4 $)

>  <Rbt.Library>
libRbt.so (2013.1, Build901 2013/11/27)

>  <Rbt.Parameter_File>
/export/apps/rDock/src/rDock_2013.1_src/data/scripts/dock_solv.prm

>  <Rbt.Receptor>
prm/pocket_docking_8.prm

>  <SCORE>
-11.547

>  <SCORE.INTER>
-11.547

>  <SCORE.INTER.CONST>
1

>  <SCORE.INTER.POLAR>
0

>  <SCORE.INTER.ROT>
0

>  <SCORE.INTER.SOLV>
21.6257

>  <SCORE.INTER.VDW>
-18.5066

>  <SCORE.INTER.norm>
-1.04973

>  <SCORE.INTRA>
0

>  <SCORE.INTRA.DIHEDRAL>
0

>  <SCORE.INTRA.DIHEDRAL.0>
0

>  <SCORE.INTRA.POLAR>
0

>  <SCORE.INTRA.POLAR.0>
0

>  <SCORE.INTRA.REPUL>
0

>  <SCORE.INTRA.REPUL.0>
0

>  <SCORE.INTRA.SOLV>
0

>  <SCORE.INTRA.SOLV.lig_0>
-48.3454

>  <SCORE.INTRA.VDW>
0

>  <SCORE.INTRA.VDW.0>
0

>  <SCORE.INTRA.norm>
0

>  <SCORE.RESTR>
0

>  <SCORE.RESTR.CAVITY>
0

>  <SCORE.RESTR.norm>
0

>  <SCORE.SYSTEM>
0

>  <SCORE.SYSTEM.CONST>
0

>  <SCORE.SYSTEM.DIHEDRAL>
0

>  <SCORE.SYSTEM.SOLV>
0

>  <SCORE.SYSTEM.norm>
0

>  <SCORE.heavy>
11

>  <SCORE.norm>
-1.04973

>  <RMSD>
0.608

$$$$
ligand
 OpenBabel02271912153D
libRbt.so/2013.1/901 2013/11/27
 11 12  0  0  0  0  0  0  0  0999 V2000
  -11.8406  -12.7642    8.8553 N   0  0  0  0  0  0  0  0  0  0  0  0
  -11.5002  -14.0595    8.9512 C   0  0  0  0  0  0  0  0  0  0  0  0
  -11.5267  -14.6633   10.1360 N   0  0  0  0  0  0  0  0  0  0  0  0
  -11.1232  -14.7485    7.8630 N   0  0  0  0  0  0  0  0  0  0  0  0
  -11.0761  -14.1568    6.6603 C   0  0  0  0  0  0  0  0  0  0  0  0
  -11.4230  -12.8177    6.5332 C   0  0  0  0  0  0  0  0  0  0  0  0
  -11.8128  -12.1255    7.6750 C   0  0  0  0  0  0  0  0  0  0  0  0
  -12.1624  -10.8449    7.5972 N   0  0  0  0  0  0  0  0  0  0  0  0
  -11.2753  -12.4857    5.2542 N   0  0  0  0  0  0  0  0  0  0  0  0
  -10.8532  -13.5651    4.5993 C   0  0  0  0  0  0  0  0  0  0  0  0
  -10.7311  -14.5830    5.4487 N   0  0  0  0  0  0  0  0  0  0  0  0
  1  7  2  0  0  0  0
  1  2  1  0  0  0  0
  2  3  1  0  0  0  0
  2  4  2  0  0  0  0
  4  5  1  0  0  0  0
  5  6  2  0  0  0  0
  5 11  1  0  0  0  0
  6  7  1  0  0  0  0
  6  9  1  0  0  0  0
  7  8  1  0  0  0  0
  9 10  1  0  0  0  0
 10 11  2  0  0  0  0
M  END
>  <CHROM.1>
-11.39730860,-13.34687088,7.25820310,2.02460590,-1.25085797,2.13571437

>  <Name>
ligand

>  <RI>
0

>  <Rbt.Current_Directory>
/home/itssahil/PROJECTS/Mol_Feturizer/Test_systems_manuscript/rnas/2b57

>  <Rbt.Executable>
rbdock ($Id: //depot/dev/client3/rdock/2013.1/src/exe/rbdock.cxx#4 $)

>  <Rbt.Library>
libRbt.so (2013.1, Build901 2013/11/27)

>  <Rbt.Parameter_File>
/export/apps/rDock/src/rDock_2013.1_src/data/scripts/dock_solv.prm

>  <Rbt.Receptor>
prm/blind_docking_40.prm

>  <SCORE>
-11.5794

>  <SCORE.INTER>
-11.5794

>  <SCORE.INTER.CONST>
1

>  <SCORE.INTER.POLAR>
0

>  <SCORE.INTER.ROT>
0

>  <SCORE.INTER.SOLV>
21.5685

>  <SCORE.INTER.VDW>
-18.5091

>  <SCORE.INTER.norm>
-1.05267

>  <SCORE.INTRA>
0

>  <SCORE.INTRA.DIHEDRAL>
0

>  <SCORE.INTRA.DIHEDRAL.0>
0

>  <SCORE.INTRA.POLAR>
0

>  <SCORE.INTRA.POLAR.0>
0

>  <SCORE.INTRA.REPUL>
0

>  <SCORE.INTRA.REPUL.0>
0

>  <SCORE.INTRA.SOLV>
0

>  <SCORE.INTRA.SOLV.lig_0>
-48.3454

>  <SCORE.INTRA.VDW>
0

>  <SCORE.INTRA.VDW.0>
0

>  <SCORE.INTRA.norm>
0

>  <SCORE.RESTR>
0

>  <SCORE.RESTR.CAVITY>
0

>  <SCORE.RESTR.norm>
0

>  <SCORE.SYSTEM>
0

>  <SCORE.SYSTEM.CONST>
0

>  <SCORE.SYSTEM.DIHEDRAL>
0

>  <SCORE.SYSTEM.SOLV>
0

>  <SCORE.SYSTEM.norm>
0

>  <SCORE.heavy>
11

>  <SCORE.norm>
-1.05267

>  <RMSD>
0.609

$$$$
ligand
 OpenBabel02271912153D
libRbt.so/2013.1/901 2013/11/27
 11 12  0  0  0  0  0  0  0  0999 V2000
  -11.8868  -12.7529    8.8378 N   0  0  0  0  0  0  0  0  0  0  0  0
  -11.4738  -14.0267    8.9368 C   0  0  0  0  0  0  0  0  0  0  0  0
  -11.4675  -14.6287   10.1227 N   0  0  0  0  0  0  0  0  0  0  0  0
  -11.0571  -14.6954    7.8504 N   0  0  0  0  0  0  0  0  0  0  0  0
  -11.0421  -14.1043    6.6465 C   0  0  0  0  0  0  0  0  0  0  0  0
  -11.4640  -12.7873    6.5163 C   0  0  0  0  0  0  0  0  0  0  0  0
  -11.8938  -12.1160    7.6562 C   0  0  0  0  0  0  0  0  0  0  0  0
  -12.3152  -10.8574    7.5755 N   0  0  0  0  0  0  0  0  0  0  0  0
  -11.3337  -12.4500    5.2368 N   0  0  0  0  0  0  0  0  0  0  0  0
  -10.8505  -13.5050    4.5846 C   0  0  0  0  0  0  0  0  0  0  0  0
  -10.6719  -14.5127    5.4362 N   0  0  0  0  0  0  0  0  0  0  0  0
  1  7  2  0  0  0  0
  1  2  1  0  0  0  0
  2  3  1  0  0  0  0
  2  4  2  0  0  0  0
  4  5  1  0  0  0  0
  5  6  2  0  0  0  0
  5 11  1  0  0  0  0
  6  7  1  0  0  0  0
  6  9  1  0  0  0  0
  7  8  1  0  0  0  0
  9 10  1  0  0  0  0
 10 11  2  0  0  0  0
M  END
>  <CHROM.1>
-11.40930305,-13.31270418,7.24240171,1.94352386,-1.20123931,2.05736535

>  <Name>
ligand

>  <RI>
0

>  <Rbt.Current_Directory>
/home/itssahil/PROJECTS/Mol_Feturizer/Test_systems_manuscript/rnas/2b57

>  <Rbt.Executable>
rbdock ($Id: //depot/dev/client3/rdock/2013.1/src/exe/rbdock.cxx#4 $)

>  <Rbt.Library>
libRbt.so (2013.1, Build901 2013/11/27)

>  <Rbt.Parameter_File>
/export/apps/rDock/src/rDock_2013.1_src/data/scripts/dock_solv.prm

>  <Rbt.Receptor>
prm/pocket_docking_3.prm

>  <SCORE>
-11.4372

>  <SCORE.INTER>
-11.4372

>  <SCORE.INTER.CONST>
1

>  <SCORE.INTER.POLAR>
0

>  <SCORE.INTER.ROT>
0

>  <SCORE.INTER.SOLV>
21.0729

>  <SCORE.INTER.VDW>
-18.2491

>  <SCORE.INTER.norm>
-1.03975

>  <SCORE.INTRA>
0

>  <SCORE.INTRA.DIHEDRAL>
0

>  <SCORE.INTRA.DIHEDRAL.0>
0

>  <SCORE.INTRA.POLAR>
0

>  <SCORE.INTRA.POLAR.0>
0

>  <SCORE.INTRA.REPUL>
0

>  <SCORE.INTRA.REPUL.0>
0

>  <SCORE.INTRA.SOLV>
0

>  <SCORE.INTRA.SOLV.lig_0>
-48.3454

>  <SCORE.INTRA.VDW>
0

>  <SCORE.INTRA.VDW.0>
0

>  <SCORE.INTRA.norm>
0

>  <SCORE.RESTR>
0

>  <SCORE.RESTR.CAVITY>
0

>  <SCORE.RESTR.norm>
0

>  <SCORE.SYSTEM>
0

>  <SCORE.SYSTEM.CONST>
0

>  <SCORE.SYSTEM.DIHEDRAL>
0

>  <SCORE.SYSTEM.SOLV>
0

>  <SCORE.SYSTEM.norm>
0

>  <SCORE.heavy>
11

>  <SCORE.norm>
-1.03975

>  <RMSD>
0.609

$$$$
ligand
 OpenBabel02271912153D
libRbt.so/2013.1/901 2013/11/27
 11 12  0  0  0  0  0  0  0  0999 V2000
  -11.8585  -12.7363    8.8525 N   0  0  0  0  0  0  0  0  0  0  0  0
  -11.5070  -14.0305    8.9177 C   0  0  0  0  0  0  0  0  0  0  0  0
  -11.5257  -14.6618   10.0882 N   0  0  0  0  0  0  0  0  0  0  0  0
  -11.1266  -14.6909    7.8131 N   0  0  0  0  0  0  0  0  0  0  0  0
  -11.0871  -14.0711    6.6243 C   0  0  0  0  0  0  0  0  0  0  0  0
  -11.4456  -12.7324    6.5290 C   0  0  0  0  0  0  0  0  0  0  0  0
  -11.8388  -12.0702    7.6872 C   0  0  0  0  0  0  0  0  0  0  0  0
  -12.1994  -10.7912    7.6399 N   0  0  0  0  0  0  0  0  0  0  0  0
  -11.3035  -12.3697    5.2577 N   0  0  0  0  0  0  0  0  0  0  0  0
  -10.8738  -13.4300    4.5772 C   0  0  0  0  0  0  0  0  0  0  0  0
  -10.7411  -14.4662    5.4025 N   0  0  0  0  0  0  0  0  0  0  0  0
  1  7  2  0  0  0  0
  1  2  1  0  0  0  0
  2  3  1  0  0  0  0
  2  4  2  0  0  0  0
  4  5  1  0  0  0  0
  5  6  2  0  0  0  0
  5 11  1  0  0  0  0
  6  7  1  0  0  0  0
  6  9  1  0  0  0  0
  7  8  1  0  0  0  0
  9 10  1  0  0  0  0
 10 11  2  0  0  0  0
M  END
>  <CHROM.1>
-11.41383909,-13.27801203,7.24146880,2.00464373,-1.24481282,2.13993401

>  <Name>
ligand

>  <RI>
0

>  <Rbt.Current_Directory>
/home/itssahil/PROJECTS/Mol_Feturizer/Test_systems_manuscript/rnas/2b57

>  <Rbt.Executable>
rbdock ($Id: //depot/dev/client3/rdock/2013.1/src/exe/rbdock.cxx#4 $)

>  <Rbt.Library>
libRbt.so (2013.1, Build901 2013/11/27)

>  <Rbt.Parameter_File>
/export/apps/rDock/src/rDock_2013.1_src/data/scripts/dock_solv.prm

>  <Rbt.Receptor>
prm/pocket_docking_6.prm

>  <SCORE>
-11.468

>  <SCORE.INTER>
-11.468

>  <SCORE.INTER.CONST>
1

>  <SCORE.INTER.POLAR>
0

>  <SCORE.INTER.ROT>
0

>  <SCORE.INTER.SOLV>
21.5216

>  <SCORE.INTER.VDW>
-18.4192

>  <SCORE.INTER.norm>
-1.04255

>  <SCORE.INTRA>
0

>  <SCORE.INTRA.DIHEDRAL>
0

>  <SCORE.INTRA.DIHEDRAL.0>
0

>  <SCORE.INTRA.POLAR>
0

>  <SCORE.INTRA.POLAR.0>
0

>  <SCORE.INTRA.REPUL>
0

>  <SCORE.INTRA.REPUL.0>
0

>  <SCORE.INTRA.SOLV>
0

>  <SCORE.INTRA.SOLV.lig_0>
-48.3454

>  <SCORE.INTRA.VDW>
0

>  <SCORE.INTRA.VDW.0>
0

>  <SCORE.INTRA.norm>
0

>  <SCORE.RESTR>
0

>  <SCORE.RESTR.CAVITY>
0

>  <SCORE.RESTR.norm>
0

>  <SCORE.SYSTEM>
0

>  <SCORE.SYSTEM.CONST>
0

>  <SCORE.SYSTEM.DIHEDRAL>
0

>  <SCORE.SYSTEM.SOLV>
0

>  <SCORE.SYSTEM.norm>
0

>  <SCORE.heavy>
11

>  <SCORE.norm>
-1.04255

>  <RMSD>
0.609

$$$$
ligand
 OpenBabel02271912153D
libRbt.so/2013.1/901 2013/11/27
 11 12  0  0  0  0  0  0  0  0999 V2000
  -11.8449  -12.7471    8.8503 N   0  0  0  0  0  0  0  0  0  0  0  0
  -11.4857  -14.0379    8.9379 C   0  0  0  0  0  0  0  0  0  0  0  0
  -11.5086  -14.6511   10.1179 N   0  0  0  0  0  0  0  0  0  0  0  0
  -11.0936  -14.7128    7.8462 N   0  0  0  0  0  0  0  0  0  0  0  0
  -11.0499  -14.1112    6.6483 C   0  0  0  0  0  0  0  0  0  0  0  0
  -11.4161  -12.7764    6.5298 C   0  0  0  0  0  0  0  0  0  0  0  0
  -11.8213  -12.0989    7.6750 C   0  0  0  0  0  0  0  0  0  0  0  0
  -12.1894  -10.8231    7.6054 N   0  0  0  0  0  0  0  0  0  0  0  0
  -11.2674  -12.4325    5.2540 N   0  0  0  0  0  0  0  0  0  0  0  0
  -10.8265  -13.5004    4.5930 C   0  0  0  0  0  0  0  0  0  0  0  0
  -10.6930  -14.5229    5.4351 N   0  0  0  0  0  0  0  0  0  0  0  0
  1  7  2  0  0  0  0
  1  2  1  0  0  0  0
  2  3  1  0  0  0  0
  2  4  2  0  0  0  0
  4  5  1  0  0  0  0
  5  6  2  0  0  0  0
  5 11  1  0  0  0  0
  6  7  1  0  0  0  0
  6  9  1  0  0  0  0
  7  8  1  0  0  0  0
  9 10  1  0  0  0  0
 10 11  2  0  0  0  0
M  END
>  <CHROM.1>
-11.38575975,-13.31076075,7.25084733,2.01208016,-1.23586299,2.13152585

>  <Name>
ligand

>  <RI>
0

>  <Rbt.Current_Directory>
/home/itssahil/PROJECTS/Mol_Feturizer/Test_systems_manuscript/rnas/2b57

>  <Rbt.Executable>
rbdock ($Id: //depot/dev/client3/rdock/2013.1/src/exe/rbdock.cxx#4 $)

>  <Rbt.Library>
libRbt.so (2013.1, Build901 2013/11/27)

>  <Rbt.Parameter_File>
/export/apps/rDock/src/rDock_2013.1_src/data/scripts/dock_solv.prm

>  <Rbt.Receptor>
prm/pocket_docking_6.prm

>  <SCORE>
-11.4798

>  <SCORE.INTER>
-11.4798

>  <SCORE.INTER.CONST>
1

>  <SCORE.INTER.POLAR>
0

>  <SCORE.INTER.ROT>
0

>  <SCORE.INTER.SOLV>
21.48

>  <SCORE.INTER.VDW>
-18.4132

>  <SCORE.INTER.norm>
-1.04361

>  <SCORE.INTRA>
0

>  <SCORE.INTRA.DIHEDRAL>
0

>  <SCORE.INTRA.DIHEDRAL.0>
0

>  <SCORE.INTRA.POLAR>
0

>  <SCORE.INTRA.POLAR.0>
0

>  <SCORE.INTRA.REPUL>
0

>  <SCORE.INTRA.REPUL.0>
0

>  <SCORE.INTRA.SOLV>
0

>  <SCORE.INTRA.SOLV.lig_0>
-48.3454

>  <SCORE.INTRA.VDW>
0

>  <SCORE.INTRA.VDW.0>
0

>  <SCORE.INTRA.norm>
0

>  <SCORE.RESTR>
0

>  <SCORE.RESTR.CAVITY>
0

>  <SCORE.RESTR.norm>
0

>  <SCORE.SYSTEM>
0

>  <SCORE.SYSTEM.CONST>
0

>  <SCORE.SYSTEM.DIHEDRAL>
0

>  <SCORE.SYSTEM.SOLV>
0

>  <SCORE.SYSTEM.norm>
0

>  <SCORE.heavy>
11

>  <SCORE.norm>
-1.04361

>  <RMSD>
0.609

$$$$
ligand
 OpenBabel02271912153D
libRbt.so/2013.1/901 2013/11/27
 11 12  0  0  0  0  0  0  0  0999 V2000
  -11.8432  -12.7653    8.8574 N   0  0  0  0  0  0  0  0  0  0  0  0
  -11.5063  -14.0619    8.9467 C   0  0  0  0  0  0  0  0  0  0  0  0
  -11.5289  -14.6702   10.1292 N   0  0  0  0  0  0  0  0  0  0  0  0
  -11.1366  -14.7479    7.8541 N   0  0  0  0  0  0  0  0  0  0  0  0
  -11.0934  -14.1517    6.6534 C   0  0  0  0  0  0  0  0  0  0  0  0
  -11.4369  -12.8111    6.5331 C   0  0  0  0  0  0  0  0  0  0  0  0
  -11.8191  -12.1221    7.6794 C   0  0  0  0  0  0  0  0  0  0  0  0
  -12.1652  -10.8401    7.6082 N   0  0  0  0  0  0  0  0  0  0  0  0
  -11.2942  -12.4746    5.2547 N   0  0  0  0  0  0  0  0  0  0  0  0
  -10.8786  -13.5527    4.5937 C   0  0  0  0  0  0  0  0  0  0  0  0
  -10.7554  -14.5743    5.4386 N   0  0  0  0  0  0  0  0  0  0  0  0
  1  7  2  0  0  0  0
  1  2  1  0  0  0  0
  2  3  1  0  0  0  0
  2  4  2  0  0  0  0
  4  5  1  0  0  0  0
  5  6  2  0  0  0  0
  5 11  1  0  0  0  0
  6  7  1  0  0  0  0
  6  9  1  0  0  0  0
  7  8  1  0  0  0  0
  9 10  1  0  0  0  0
 10 11  2  0  0  0  0
M  END
>  <CHROM.1>
-11.40928291,-13.34309802,7.25594236,2.01685604,-1.25595874,2.13218442

>  <Name>
ligand

>  <RI>
0

>  <Rbt.Current_Directory>
/home/itssahil/PROJECTS/Mol_Feturizer/Test_systems_manuscript/rnas/2b57

>  <Rbt.Executable>
rbdock ($Id: //depot/dev/client3/rdock/2013.1/src/exe/rbdock.cxx#4 $)

>  <Rbt.Library>
libRbt.so (2013.1, Build901 2013/11/27)

>  <Rbt.Parameter_File>
/export/apps/rDock/src/rDock_2013.1_src/data/scripts/dock_solv.prm

>  <Rbt.Receptor>
prm/pocket_docking_7.prm

>  <SCORE>
-11.55

>  <SCORE.INTER>
-11.55

>  <SCORE.INTER.CONST>
1

>  <SCORE.INTER.POLAR>
0

>  <SCORE.INTER.ROT>
0

>  <SCORE.INTER.SOLV>
21.5867

>  <SCORE.INTER.VDW>
-18.4956

>  <SCORE.INTER.norm>
-1.05

>  <SCORE.INTRA>
0

>  <SCORE.INTRA.DIHEDRAL>
0

>  <SCORE.INTRA.DIHEDRAL.0>
0

>  <SCORE.INTRA.POLAR>
0

>  <SCORE.INTRA.POLAR.0>
0

>  <SCORE.INTRA.REPUL>
0

>  <SCORE.INTRA.REPUL.0>
0

>  <SCORE.INTRA.SOLV>
0

>  <SCORE.INTRA.SOLV.lig_0>
-48.3454

>  <SCORE.INTRA.VDW>
0

>  <SCORE.INTRA.VDW.0>
0

>  <SCORE.INTRA.norm>
0

>  <SCORE.RESTR>
0

>  <SCORE.RESTR.CAVITY>
0

>  <SCORE.RESTR.norm>
0

>  <SCORE.SYSTEM>
0

>  <SCORE.SYSTEM.CONST>
0

>  <SCORE.SYSTEM.DIHEDRAL>
0

>  <SCORE.SYSTEM.SOLV>
0

>  <SCORE.SYSTEM.norm>
0

>  <SCORE.heavy>
11

>  <SCORE.norm>
-1.05

>  <RMSD>
0.609

$$$$
ligand
 OpenBabel02271912153D
libRbt.so/2013.1/901 2013/11/27
 11 12  0  0  0  0  0  0  0  0999 V2000
  -11.8717  -12.7791    8.8541 N   0  0  0  0  0  0  0  0  0  0  0  0
  -11.5416  -14.0776    8.9420 C   0  0  0  0  0  0  0  0  0  0  0  0
  -11.5784  -14.6899   10.1221 N   0  0  0  0  0  0  0  0  0  0  0  0
  -11.1644  -14.7614    7.8506 N   0  0  0  0  0  0  0  0  0  0  0  0
  -11.1069  -14.1611    6.6525 C   0  0  0  0  0  0  0  0  0  0  0  0
  -11.4431  -12.8186    6.5337 C   0  0  0  0  0  0  0  0  0  0  0  0
  -11.8333  -12.1319    7.6787 C   0  0  0  0  0  0  0  0  0  0  0  0
  -12.1728  -10.8481    7.6087 N   0  0  0  0  0  0  0  0  0  0  0  0
  -11.2866  -12.4783    5.2579 N   0  0  0  0  0  0  0  0  0  0  0  0
  -10.8694  -13.5559    4.5971 C   0  0  0  0  0  0  0  0  0  0  0  0
  -10.7591  -14.5810    5.4395 N   0  0  0  0  0  0  0  0  0  0  0  0
  1  7  2  0  0  0  0
  1  2  1  0  0  0  0
  2  3  1  0  0  0  0
  2  4  2  0  0  0  0
  4  5  1  0  0  0  0
  5  6  2  0  0  0  0
  5 11  1  0  0  0  0
  6  7  1  0  0  0  0
  6  9  1  0  0  0  0
  7  8  1  0  0  0  0
  9 10  1  0  0  0  0
 10 11  2  0  0  0  0
M  END
>  <CHROM.1>
-11.42495169,-13.35327087,7.25486057,2.05096526,-1.25447457,2.16815673

>  <Name>
ligand

>  <RI>
0

>  <Rbt.Current_Directory>
/home/itssahil/PROJECTS/Mol_Feturizer/Test_systems_manuscript/rnas/2b57

>  <Rbt.Executable>
rbdock ($Id: //depot/dev/client3/rdock/2013.1/src/exe/rbdock.cxx#4 $)

>  <Rbt.Library>
libRbt.so (2013.1, Build901 2013/11/27)

>  <Rbt.Parameter_File>
/export/apps/rDock/src/rDock_2013.1_src/data/scripts/dock_solv.prm

>  <Rbt.Receptor>
prm/pocket_docking_8.prm

>  <SCORE>
-11.5271

>  <SCORE.INTER>
-11.5271

>  <SCORE.INTER.CONST>
1

>  <SCORE.INTER.POLAR>
0

>  <SCORE.INTER.ROT>
0

>  <SCORE.INTER.SOLV>
21.5869

>  <SCORE.INTER.VDW>
-18.4803

>  <SCORE.INTER.norm>
-1.04792

>  <SCORE.INTRA>
0

>  <SCORE.INTRA.DIHEDRAL>
0

>  <SCORE.INTRA.DIHEDRAL.0>
0

>  <SCORE.INTRA.POLAR>
0

>  <SCORE.INTRA.POLAR.0>
0

>  <SCORE.INTRA.REPUL>
0

>  <SCORE.INTRA.REPUL.0>
0

>  <SCORE.INTRA.SOLV>
0

>  <SCORE.INTRA.SOLV.lig_0>
-48.3454

>  <SCORE.INTRA.VDW>
0

>  <SCORE.INTRA.VDW.0>
0

>  <SCORE.INTRA.norm>
0

>  <SCORE.RESTR>
0

>  <SCORE.RESTR.CAVITY>
0

>  <SCORE.RESTR.norm>
0

>  <SCORE.SYSTEM>
0

>  <SCORE.SYSTEM.CONST>
0

>  <SCORE.SYSTEM.DIHEDRAL>
0

>  <SCORE.SYSTEM.SOLV>
0

>  <SCORE.SYSTEM.norm>
0

>  <SCORE.heavy>
11

>  <SCORE.norm>
-1.04792

>  <RMSD>
0.609

$$$$
ligand
 OpenBabel02271912153D
libRbt.so/2013.1/901 2013/11/27
 11 12  0  0  0  0  0  0  0  0999 V2000
  -11.8406  -12.7643    8.8574 N   0  0  0  0  0  0  0  0  0  0  0  0
  -11.5064  -14.0616    8.9469 C   0  0  0  0  0  0  0  0  0  0  0  0
  -11.5311  -14.6699   10.1294 N   0  0  0  0  0  0  0  0  0  0  0  0
  -11.1374  -14.7483    7.8545 N   0  0  0  0  0  0  0  0  0  0  0  0
  -11.0922  -14.1521    6.6539 C   0  0  0  0  0  0  0  0  0  0  0  0
  -11.4328  -12.8108    6.5334 C   0  0  0  0  0  0  0  0  0  0  0  0
  -11.8144  -12.1210    7.6795 C   0  0  0  0  0  0  0  0  0  0  0  0
  -12.1577  -10.8384    7.6081 N   0  0  0  0  0  0  0  0  0  0  0  0
  -11.2885  -12.4745    5.2551 N   0  0  0  0  0  0  0  0  0  0  0  0
  -10.8747  -13.5535    4.5944 C   0  0  0  0  0  0  0  0  0  0  0  0
  -10.7542  -14.5753    5.4393 N   0  0  0  0  0  0  0  0  0  0  0  0
  1  7  2  0  0  0  0
  1  2  1  0  0  0  0
  2  3  1  0  0  0  0
  2  4  2  0  0  0  0
  4  5  1  0  0  0  0
  5  6  2  0  0  0  0
  5 11  1  0  0  0  0
  6  7  1  0  0  0  0
  6  9  1  0  0  0  0
  7  8  1  0  0  0  0
  9 10  1  0  0  0  0
 10 11  2  0  0  0  0
M  END
>  <CHROM.1>
-11.40679164,-13.34290642,7.25623716,2.02232091,-1.25734197,2.13743936

>  <Name>
ligand

>  <RI>
0

>  <Rbt.Current_Directory>
/home/itssahil/PROJECTS/Mol_Feturizer/Test_systems_manuscript/rnas/2b57

>  <Rbt.Executable>
rbdock ($Id: //depot/dev/client3/rdock/2013.1/src/exe/rbdock.cxx#4 $)

>  <Rbt.Library>
libRbt.so (2013.1, Build901 2013/11/27)

>  <Rbt.Parameter_File>
/export/apps/rDock/src/rDock_2013.1_src/data/scripts/dock_solv.prm

>  <Rbt.Receptor>
prm/blind_docking_40.prm

>  <SCORE>
-11.5492

>  <SCORE.INTER>
-11.5492

>  <SCORE.INTER.CONST>
1

>  <SCORE.INTER.POLAR>
0

>  <SCORE.INTER.ROT>
0

>  <SCORE.INTER.SOLV>
21.6129

>  <SCORE.INTER.VDW>
-18.5038

>  <SCORE.INTER.norm>
-1.04993

>  <SCORE.INTRA>
0

>  <SCORE.INTRA.DIHEDRAL>
0

>  <SCORE.INTRA.DIHEDRAL.0>
0

>  <SCORE.INTRA.POLAR>
0

>  <SCORE.INTRA.POLAR.0>
0

>  <SCORE.INTRA.REPUL>
0

>  <SCORE.INTRA.REPUL.0>
0

>  <SCORE.INTRA.SOLV>
0

>  <SCORE.INTRA.SOLV.lig_0>
-48.3454

>  <SCORE.INTRA.VDW>
0

>  <SCORE.INTRA.VDW.0>
0

>  <SCORE.INTRA.norm>
0

>  <SCORE.RESTR>
0

>  <SCORE.RESTR.CAVITY>
0

>  <SCORE.RESTR.norm>
0

>  <SCORE.SYSTEM>
0

>  <SCORE.SYSTEM.CONST>
0

>  <SCORE.SYSTEM.DIHEDRAL>
0

>  <SCORE.SYSTEM.SOLV>
0

>  <SCORE.SYSTEM.norm>
0

>  <SCORE.heavy>
11

>  <SCORE.norm>
-1.04993

>  <RMSD>
0.610

$$$$
ligand
 OpenBabel02271912153D
libRbt.so/2013.1/901 2013/11/27
 11 12  0  0  0  0  0  0  0  0999 V2000
  -11.8571  -12.7718    8.8508 N   0  0  0  0  0  0  0  0  0  0  0  0
  -11.4780  -14.0566    8.9416 C   0  0  0  0  0  0  0  0  0  0  0  0
  -11.4835  -14.6648   10.1244 N   0  0  0  0  0  0  0  0  0  0  0  0
  -11.0834  -14.7306    7.8502 N   0  0  0  0  0  0  0  0  0  0  0  0
  -11.0570  -14.1338    6.6493 C   0  0  0  0  0  0  0  0  0  0  0  0
  -11.4440  -12.8052    6.5275 C   0  0  0  0  0  0  0  0  0  0  0  0
  -11.8513  -12.1286    7.6725 C   0  0  0  0  0  0  0  0  0  0  0  0
  -12.2391  -10.8588    7.5999 N   0  0  0  0  0  0  0  0  0  0  0  0
  -11.3094  -12.4648    5.2492 N   0  0  0  0  0  0  0  0  0  0  0  0
  -10.8570  -13.5290    4.5898 C   0  0  0  0  0  0  0  0  0  0  0  0
  -10.7024  -14.5456    5.4355 N   0  0  0  0  0  0  0  0  0  0  0  0
  1  7  2  0  0  0  0
  1  2  1  0  0  0  0
  2  3  1  0  0  0  0
  2  4  2  0  0  0  0
  4  5  1  0  0  0  0
  5  6  2  0  0  0  0
  5 11  1  0  0  0  0
  6  7  1  0  0  0  0
  6  9  1  0  0  0  0
  7  8  1  0  0  0  0
  9 10  1  0  0  0  0
 10 11  2  0  0  0  0
M  END
>  <CHROM.1>
-11.40064346,-13.33575691,7.25069533,1.97100889,-1.22655865,2.08832176

>  <Name>
ligand

>  <RI>
0

>  <Rbt.Current_Directory>
/home/itssahil/PROJECTS/Mol_Feturizer/Test_systems_manuscript/rnas/2b57

>  <Rbt.Executable>
rbdock ($Id: //depot/dev/client3/rdock/2013.1/src/exe/rbdock.cxx#4 $)

>  <Rbt.Library>
libRbt.so (2013.1, Build901 2013/11/27)

>  <Rbt.Parameter_File>
/export/apps/rDock/src/rDock_2013.1_src/data/scripts/dock_solv.prm

>  <Rbt.Receptor>
prm/blind_docking_60.prm

>  <SCORE>
-11.4743

>  <SCORE.INTER>
-11.4743

>  <SCORE.INTER.CONST>
1

>  <SCORE.INTER.POLAR>
0

>  <SCORE.INTER.ROT>
0

>  <SCORE.INTER.SOLV>
21.3158

>  <SCORE.INTER.VDW>
-18.3548

>  <SCORE.INTER.norm>
-1.04312

>  <SCORE.INTRA>
0

>  <SCORE.INTRA.DIHEDRAL>
0

>  <SCORE.INTRA.DIHEDRAL.0>
0

>  <SCORE.INTRA.POLAR>
0

>  <SCORE.INTRA.POLAR.0>
0

>  <SCORE.INTRA.REPUL>
0

>  <SCORE.INTRA.REPUL.0>
0

>  <SCORE.INTRA.SOLV>
0

>  <SCORE.INTRA.SOLV.lig_0>
-48.3454

>  <SCORE.INTRA.VDW>
0

>  <SCORE.INTRA.VDW.0>
0

>  <SCORE.INTRA.norm>
0

>  <SCORE.RESTR>
0

>  <SCORE.RESTR.CAVITY>
0

>  <SCORE.RESTR.norm>
0

>  <SCORE.SYSTEM>
0

>  <SCORE.SYSTEM.CONST>
0

>  <SCORE.SYSTEM.DIHEDRAL>
0

>  <SCORE.SYSTEM.SOLV>
0

>  <SCORE.SYSTEM.norm>
0

>  <SCORE.heavy>
11

>  <SCORE.norm>
-1.04312

>  <RMSD>
0.610

$$$$
ligand
 OpenBabel02271912153D
libRbt.so/2013.1/901 2013/11/27
 11 12  0  0  0  0  0  0  0  0999 V2000
  -11.8435  -12.7658    8.8573 N   0  0  0  0  0  0  0  0  0  0  0  0
  -11.5059  -14.0624    8.9442 C   0  0  0  0  0  0  0  0  0  0  0  0
  -11.5259  -14.6723   10.1260 N   0  0  0  0  0  0  0  0  0  0  0  0
  -11.1381  -14.7468    7.8499 N   0  0  0  0  0  0  0  0  0  0  0  0
  -11.0976  -14.1489    6.6500 C   0  0  0  0  0  0  0  0  0  0  0  0
  -11.4418  -12.8083    6.5321 C   0  0  0  0  0  0  0  0  0  0  0  0
  -11.8221  -12.1210    7.6801 C   0  0  0  0  0  0  0  0  0  0  0  0
  -12.1688  -10.8391    7.6113 N   0  0  0  0  0  0  0  0  0  0  0  0
  -11.3019  -12.4701    5.2538 N   0  0  0  0  0  0  0  0  0  0  0  0
  -10.8871  -13.5472    4.5906 C   0  0  0  0  0  0  0  0  0  0  0  0
  -10.7618  -14.5698    5.4339 N   0  0  0  0  0  0  0  0  0  0  0  0
  1  7  2  0  0  0  0
  1  2  1  0  0  0  0
  2  3  1  0  0  0  0
  2  4  2  0  0  0  0
  4  5  1  0  0  0  0
  5  6  2  0  0  0  0
  5 11  1  0  0  0  0
  6  7  1  0  0  0  0
  6  9  1  0  0  0  0
  7  8  1  0  0  0  0
  9 10  1  0  0  0  0
 10 11  2  0  0  0  0
M  END
>  <CHROM.1>
-11.41257972,-13.34129543,7.25419646,2.01061672,-1.25666083,2.12758178

>  <Name>
ligand

>  <RI>
0

>  <Rbt.Current_Directory>
/home/itssahil/PROJECTS/Mol_Feturizer/Test_systems_manuscript/rnas/2b57

>  <Rbt.Executable>
rbdock ($Id: //depot/dev/client3/rdock/2013.1/src/exe/rbdock.cxx#4 $)

>  <Rbt.Library>
libRbt.so (2013.1, Build901 2013/11/27)

>  <Rbt.Parameter_File>
/export/apps/rDock/src/rDock_2013.1_src/data/scripts/dock_solv.prm

>  <Rbt.Receptor>
prm/blind_docking_60.prm

>  <SCORE>
-11.548

>  <SCORE.INTER>
-11.548

>  <SCORE.INTER.CONST>
1

>  <SCORE.INTER.POLAR>
0

>  <SCORE.INTER.ROT>
0

>  <SCORE.INTER.SOLV>
21.5832

>  <SCORE.INTER.VDW>
-18.4931

>  <SCORE.INTER.norm>
-1.04982

>  <SCORE.INTRA>
0

>  <SCORE.INTRA.DIHEDRAL>
0

>  <SCORE.INTRA.DIHEDRAL.0>
0

>  <SCORE.INTRA.POLAR>
0

>  <SCORE.INTRA.POLAR.0>
0

>  <SCORE.INTRA.REPUL>
0

>  <SCORE.INTRA.REPUL.0>
0

>  <SCORE.INTRA.SOLV>
0

>  <SCORE.INTRA.SOLV.lig_0>
-48.3454

>  <SCORE.INTRA.VDW>
0

>  <SCORE.INTRA.VDW.0>
0

>  <SCORE.INTRA.norm>
0

>  <SCORE.RESTR>
0

>  <SCORE.RESTR.CAVITY>
0

>  <SCORE.RESTR.norm>
0

>  <SCORE.SYSTEM>
0

>  <SCORE.SYSTEM.CONST>
0

>  <SCORE.SYSTEM.DIHEDRAL>
0

>  <SCORE.SYSTEM.SOLV>
0

>  <SCORE.SYSTEM.norm>
0

>  <SCORE.heavy>
11

>  <SCORE.norm>
-1.04982

>  <RMSD>
0.610

$$$$
ligand
 OpenBabel02271912153D
libRbt.so/2013.1/901 2013/11/27
 11 12  0  0  0  0  0  0  0  0999 V2000
  -11.8496  -12.7686    8.8547 N   0  0  0  0  0  0  0  0  0  0  0  0
  -11.5061  -14.0634    8.9452 C   0  0  0  0  0  0  0  0  0  0  0  0
  -11.5272  -14.6712   10.1280 N   0  0  0  0  0  0  0  0  0  0  0  0
  -11.1314  -14.7481    7.8534 N   0  0  0  0  0  0  0  0  0  0  0  0
  -11.0897  -14.1523    6.6525 C   0  0  0  0  0  0  0  0  0  0  0  0
  -11.4399  -12.8136    6.5310 C   0  0  0  0  0  0  0  0  0  0  0  0
  -11.8273  -12.1259    7.6764 C   0  0  0  0  0  0  0  0  0  0  0  0
  -12.1798  -10.8458    7.6040 N   0  0  0  0  0  0  0  0  0  0  0  0
  -11.2973  -12.4771    5.2526 N   0  0  0  0  0  0  0  0  0  0  0  0
  -10.8752  -13.5534    4.5928 C   0  0  0  0  0  0  0  0  0  0  0  0
  -10.7479  -14.5738    5.4384 N   0  0  0  0  0  0  0  0  0  0  0  0
  1  7  2  0  0  0  0
  1  2  1  0  0  0  0
  2  3  1  0  0  0  0
  2  4  2  0  0  0  0
  4  5  1  0  0  0  0
  5  6  2  0  0  0  0
  5 11  1  0  0  0  0
  6  7  1  0  0  0  0
  6  9  1  0  0  0  0
  7  8  1  0  0  0  0
  9 10  1  0  0  0  0
 10 11  2  0  0  0  0
M  END
>  <CHROM.1>
-11.41057943,-13.34505094,7.25416913,2.01175588,-1.25087394,2.12679114

>  <Name>
ligand

>  <RI>
0

>  <Rbt.Current_Directory>
/home/itssahil/PROJECTS/Mol_Feturizer/Test_systems_manuscript/rnas/2b57

>  <Rbt.Executable>
rbdock ($Id: //depot/dev/client3/rdock/2013.1/src/exe/rbdock.cxx#4 $)

>  <Rbt.Library>
libRbt.so (2013.1, Build901 2013/11/27)

>  <Rbt.Parameter_File>
/export/apps/rDock/src/rDock_2013.1_src/data/scripts/dock_solv.prm

>  <Rbt.Receptor>
prm/pocket_docking_4.prm

>  <SCORE>
-11.5524

>  <SCORE.INTER>
-11.5524

>  <SCORE.INTER.CONST>
1

>  <SCORE.INTER.POLAR>
0

>  <SCORE.INTER.ROT>
0

>  <SCORE.INTER.SOLV>
21.5287

>  <SCORE.INTER.VDW>
-18.4779

>  <SCORE.INTER.norm>
-1.05022

>  <SCORE.INTRA>
0

>  <SCORE.INTRA.DIHEDRAL>
0

>  <SCORE.INTRA.DIHEDRAL.0>
0

>  <SCORE.INTRA.POLAR>
0

>  <SCORE.INTRA.POLAR.0>
0

>  <SCORE.INTRA.REPUL>
0

>  <SCORE.INTRA.REPUL.0>
0

>  <SCORE.INTRA.SOLV>
0

>  <SCORE.INTRA.SOLV.lig_0>
-48.3454

>  <SCORE.INTRA.VDW>
0

>  <SCORE.INTRA.VDW.0>
0

>  <SCORE.INTRA.norm>
0

>  <SCORE.RESTR>
0

>  <SCORE.RESTR.CAVITY>
0

>  <SCORE.RESTR.norm>
0

>  <SCORE.SYSTEM>
0

>  <SCORE.SYSTEM.CONST>
0

>  <SCORE.SYSTEM.DIHEDRAL>
0

>  <SCORE.SYSTEM.SOLV>
0

>  <SCORE.SYSTEM.norm>
0

>  <SCORE.heavy>
11

>  <SCORE.norm>
-1.05022

>  <RMSD>
0.610

$$$$
ligand
 OpenBabel02271912153D
libRbt.so/2013.1/901 2013/11/27
 11 12  0  0  0  0  0  0  0  0999 V2000
  -11.8400  -12.7638    8.8583 N   0  0  0  0  0  0  0  0  0  0  0  0
  -11.5081  -14.0619    8.9454 C   0  0  0  0  0  0  0  0  0  0  0  0
  -11.5321  -14.6718   10.1271 N   0  0  0  0  0  0  0  0  0  0  0  0
  -11.1419  -14.7477    7.8515 N   0  0  0  0  0  0  0  0  0  0  0  0
  -11.0975  -14.1499    6.6517 C   0  0  0  0  0  0  0  0  0  0  0  0
  -11.4358  -12.8079    6.5336 C   0  0  0  0  0  0  0  0  0  0  0  0
  -11.8145  -12.1190    7.6812 C   0  0  0  0  0  0  0  0  0  0  0  0
  -12.1556  -10.8357    7.6121 N   0  0  0  0  0  0  0  0  0  0  0  0
  -11.2929  -12.4701    5.2555 N   0  0  0  0  0  0  0  0  0  0  0  0
  -10.8820  -13.5489    4.5927 C   0  0  0  0  0  0  0  0  0  0  0  0
  -10.7621  -14.5721    5.4360 N   0  0  0  0  0  0  0  0  0  0  0  0
  1  7  2  0  0  0  0
  1  2  1  0  0  0  0
  2  3  1  0  0  0  0
  2  4  2  0  0  0  0
  4  5  1  0  0  0  0
  5  6  2  0  0  0  0
  5 11  1  0  0  0  0
  6  7  1  0  0  0  0
  6  9  1  0  0  0  0
  7  8  1  0  0  0  0
  9 10  1  0  0  0  0
 10 11  2  0  0  0  0
M  END
>  <CHROM.1>
-11.40971351,-13.34102673,7.25564140,2.02127079,-1.25966592,2.13781388

>  <Name>
ligand

>  <RI>
0

>  <Rbt.Current_Directory>
/home/itssahil/PROJECTS/Mol_Feturizer/Test_systems_manuscript/rnas/2b57

>  <Rbt.Executable>
rbdock ($Id: //depot/dev/client3/rdock/2013.1/src/exe/rbdock.cxx#4 $)

>  <Rbt.Library>
libRbt.so (2013.1, Build901 2013/11/27)

>  <Rbt.Parameter_File>
/export/apps/rDock/src/rDock_2013.1_src/data/scripts/dock_solv.prm

>  <Rbt.Receptor>
prm/pocket_docking_4.prm

>  <SCORE>
-11.5494

>  <SCORE.INTER>
-11.5494

>  <SCORE.INTER.CONST>
1

>  <SCORE.INTER.POLAR>
0

>  <SCORE.INTER.ROT>
0

>  <SCORE.INTER.SOLV>
21.6305

>  <SCORE.INTER.VDW>
-18.5098

>  <SCORE.INTER.norm>
-1.04995

>  <SCORE.INTRA>
0

>  <SCORE.INTRA.DIHEDRAL>
0

>  <SCORE.INTRA.DIHEDRAL.0>
0

>  <SCORE.INTRA.POLAR>
0

>  <SCORE.INTRA.POLAR.0>
0

>  <SCORE.INTRA.REPUL>
0

>  <SCORE.INTRA.REPUL.0>
0

>  <SCORE.INTRA.SOLV>
0

>  <SCORE.INTRA.SOLV.lig_0>
-48.3454

>  <SCORE.INTRA.VDW>
0

>  <SCORE.INTRA.VDW.0>
0

>  <SCORE.INTRA.norm>
0

>  <SCORE.RESTR>
0

>  <SCORE.RESTR.CAVITY>
0

>  <SCORE.RESTR.norm>
0

>  <SCORE.SYSTEM>
0

>  <SCORE.SYSTEM.CONST>
0

>  <SCORE.SYSTEM.DIHEDRAL>
0

>  <SCORE.SYSTEM.SOLV>
0

>  <SCORE.SYSTEM.norm>
0

>  <SCORE.heavy>
11

>  <SCORE.norm>
-1.04995

>  <RMSD>
0.610

$$$$
ligand
 OpenBabel02271912153D
libRbt.so/2013.1/901 2013/11/27
 11 12  0  0  0  0  0  0  0  0999 V2000
  -11.8422  -12.7649    8.8555 N   0  0  0  0  0  0  0  0  0  0  0  0
  -11.5021  -14.0605    8.9460 C   0  0  0  0  0  0  0  0  0  0  0  0
  -11.5233  -14.6679   10.1290 N   0  0  0  0  0  0  0  0  0  0  0  0
  -11.1305  -14.7465    7.8539 N   0  0  0  0  0  0  0  0  0  0  0  0
  -11.0888  -14.1512    6.6528 C   0  0  0  0  0  0  0  0  0  0  0  0
  -11.4356  -12.8116    6.5313 C   0  0  0  0  0  0  0  0  0  0  0  0
  -11.8197  -12.1226    7.6770 C   0  0  0  0  0  0  0  0  0  0  0  0
  -12.1690  -10.8416    7.6047 N   0  0  0  0  0  0  0  0  0  0  0  0
  -11.2937  -12.4759    5.2526 N   0  0  0  0  0  0  0  0  0  0  0  0
  -10.8753  -13.5535    4.5926 C   0  0  0  0  0  0  0  0  0  0  0  0
  -10.7496  -14.5740    5.4383 N   0  0  0  0  0  0  0  0  0  0  0  0
  1  7  2  0  0  0  0
  1  2  1  0  0  0  0
  2  3  1  0  0  0  0
  2  4  2  0  0  0  0
  4  5  1  0  0  0  0
  5  6  2  0  0  0  0
  5 11  1  0  0  0  0
  6  7  1  0  0  0  0
  6  9  1  0  0  0  0
  7  8  1  0  0  0  0
  9 10  1  0  0  0  0
 10 11  2  0  0  0  0
M  END
>  <CHROM.1>
-11.40676932,-13.34293659,7.25460587,2.01274081,-1.25377688,2.12742266

>  <Name>
ligand

>  <RI>
0

>  <Rbt.Current_Directory>
/home/itssahil/PROJECTS/Mol_Feturizer/Test_systems_manuscript/rnas/2b57

>  <Rbt.Executable>
rbdock ($Id: //depot/dev/client3/rdock/2013.1/src/exe/rbdock.cxx#4 $)

>  <Rbt.Library>
libRbt.so (2013.1, Build901 2013/11/27)

>  <Rbt.Parameter_File>
/export/apps/rDock/src/rDock_2013.1_src/data/scripts/dock_solv.prm

>  <Rbt.Receptor>
prm/pocket_docking_4.prm

>  <SCORE>
-11.5505

>  <SCORE.INTER>
-11.5505

>  <SCORE.INTER.CONST>
1

>  <SCORE.INTER.POLAR>
0

>  <SCORE.INTER.ROT>
0

>  <SCORE.INTER.SOLV>
21.5645

>  <SCORE.INTER.VDW>
-18.4885

>  <SCORE.INTER.norm>
-1.05004

>  <SCORE.INTRA>
0

>  <SCORE.INTRA.DIHEDRAL>
0

>  <SCORE.INTRA.DIHEDRAL.0>
0

>  <SCORE.INTRA.POLAR>
0

>  <SCORE.INTRA.POLAR.0>
0

>  <SCORE.INTRA.REPUL>
0

>  <SCORE.INTRA.REPUL.0>
0

>  <SCORE.INTRA.SOLV>
0

>  <SCORE.INTRA.SOLV.lig_0>
-48.3454

>  <SCORE.INTRA.VDW>
0

>  <SCORE.INTRA.VDW.0>
0

>  <SCORE.INTRA.norm>
0

>  <SCORE.RESTR>
0

>  <SCORE.RESTR.CAVITY>
0

>  <SCORE.RESTR.norm>
0

>  <SCORE.SYSTEM>
0

>  <SCORE.SYSTEM.CONST>
0

>  <SCORE.SYSTEM.DIHEDRAL>
0

>  <SCORE.SYSTEM.SOLV>
0

>  <SCORE.SYSTEM.norm>
0

>  <SCORE.heavy>
11

>  <SCORE.norm>
-1.05004

>  <RMSD>
0.610

$$$$
ligand
 OpenBabel02271912153D
libRbt.so/2013.1/901 2013/11/27
 11 12  0  0  0  0  0  0  0  0999 V2000
  -11.8656  -12.7878    8.8584 N   0  0  0  0  0  0  0  0  0  0  0  0
  -11.5217  -14.0832    8.9381 C   0  0  0  0  0  0  0  0  0  0  0  0
  -11.5400  -14.7001   10.1163 N   0  0  0  0  0  0  0  0  0  0  0  0
  -11.1491  -14.7594    7.8403 N   0  0  0  0  0  0  0  0  0  0  0  0
  -11.1102  -14.1543    6.6439 C   0  0  0  0  0  0  0  0  0  0  0  0
  -11.4610  -12.8148    6.5335 C   0  0  0  0  0  0  0  0  0  0  0  0
  -11.8460  -12.1361    7.6850 C   0  0  0  0  0  0  0  0  0  0  0  0
  -12.1990  -10.8556    7.6233 N   0  0  0  0  0  0  0  0  0  0  0  0
  -11.3211  -12.4684    5.2574 N   0  0  0  0  0  0  0  0  0  0  0  0
  -10.9002  -13.5395    4.5884 C   0  0  0  0  0  0  0  0  0  0  0  0
  -10.7709  -14.5663    5.4258 N   0  0  0  0  0  0  0  0  0  0  0  0
  1  7  2  0  0  0  0
  1  2  1  0  0  0  0
  2  3  1  0  0  0  0
  2  4  2  0  0  0  0
  4  5  1  0  0  0  0
  5  6  2  0  0  0  0
  5 11  1  0  0  0  0
  6  7  1  0  0  0  0
  6  9  1  0  0  0  0
  7  8  1  0  0  0  0
  9 10  1  0  0  0  0
 10 11  2  0  0  0  0
M  END
>  <CHROM.1>
-11.42991595,-13.35180955,7.25248830,2.00549911,-1.25181671,2.12857235

>  <Name>
ligand

>  <RI>
0

>  <Rbt.Current_Directory>
/home/itssahil/PROJECTS/Mol_Feturizer/Test_systems_manuscript/rnas/2b57

>  <Rbt.Executable>
rbdock ($Id: //depot/dev/client3/rdock/2013.1/src/exe/rbdock.cxx#4 $)

>  <Rbt.Library>
libRbt.so (2013.1, Build901 2013/11/27)

>  <Rbt.Parameter_File>
/export/apps/rDock/src/rDock_2013.1_src/data/scripts/dock_solv.prm

>  <Rbt.Receptor>
prm/pocket_docking_7.prm

>  <SCORE>
-11.5572

>  <SCORE.INTER>
-11.5572

>  <SCORE.INTER.CONST>
1

>  <SCORE.INTER.POLAR>
0

>  <SCORE.INTER.ROT>
0

>  <SCORE.INTER.SOLV>
21.5222

>  <SCORE.INTER.VDW>
-18.4788

>  <SCORE.INTER.norm>
-1.05065

>  <SCORE.INTRA>
0

>  <SCORE.INTRA.DIHEDRAL>
0

>  <SCORE.INTRA.DIHEDRAL.0>
0

>  <SCORE.INTRA.POLAR>
0

>  <SCORE.INTRA.POLAR.0>
0

>  <SCORE.INTRA.REPUL>
0

>  <SCORE.INTRA.REPUL.0>
0

>  <SCORE.INTRA.SOLV>
0

>  <SCORE.INTRA.SOLV.lig_0>
-48.3454

>  <SCORE.INTRA.VDW>
0

>  <SCORE.INTRA.VDW.0>
0

>  <SCORE.INTRA.norm>
0

>  <SCORE.RESTR>
0

>  <SCORE.RESTR.CAVITY>
0

>  <SCORE.RESTR.norm>
0

>  <SCORE.SYSTEM>
0

>  <SCORE.SYSTEM.CONST>
0

>  <SCORE.SYSTEM.DIHEDRAL>
0

>  <SCORE.SYSTEM.SOLV>
0

>  <SCORE.SYSTEM.norm>
0

>  <SCORE.heavy>
11

>  <SCORE.norm>
-1.05065

>  <RMSD>
0.611

$$$$
ligand
 OpenBabel02271912153D
libRbt.so/2013.1/901 2013/11/27
 11 12  0  0  0  0  0  0  0  0999 V2000
  -11.8376  -12.7698    8.8602 N   0  0  0  0  0  0  0  0  0  0  0  0
  -11.5102  -14.0696    8.9381 C   0  0  0  0  0  0  0  0  0  0  0  0
  -11.5402  -14.6888   10.1148 N   0  0  0  0  0  0  0  0  0  0  0  0
  -11.1426  -14.7479    7.8400 N   0  0  0  0  0  0  0  0  0  0  0  0
  -11.0921  -14.1407    6.6452 C   0  0  0  0  0  0  0  0  0  0  0  0
  -11.4257  -12.7966    6.5366 C   0  0  0  0  0  0  0  0  0  0  0  0
  -11.8059  -12.1157    7.6884 C   0  0  0  0  0  0  0  0  0  0  0  0
  -12.1426  -10.8307    7.6285 N   0  0  0  0  0  0  0  0  0  0  0  0
  -11.2773  -12.4491    5.2618 N   0  0  0  0  0  0  0  0  0  0  0  0
  -10.8677  -13.5239    4.5917 C   0  0  0  0  0  0  0  0  0  0  0  0
  -10.7540  -14.5542    5.4272 N   0  0  0  0  0  0  0  0  0  0  0  0
  1  7  2  0  0  0  0
  1  2  1  0  0  0  0
  2  3  1  0  0  0  0
  2  4  2  0  0  0  0
  4  5  1  0  0  0  0
  5  6  2  0  0  0  0
  5 11  1  0  0  0  0
  6  7  1  0  0  0  0
  6  9  1  0  0  0  0
  7  8  1  0  0  0  0
  9 10  1  0  0  0  0
 10 11  2  0  0  0  0
M  END
>  <CHROM.1>
-11.40374344,-13.33557025,7.25449659,2.03644889,-1.26058578,2.16025441

>  <Name>
ligand

>  <RI>
0

>  <Rbt.Current_Directory>
/home/itssahil/PROJECTS/Mol_Feturizer/Test_systems_manuscript/rnas/2b57

>  <Rbt.Executable>
rbdock ($Id: //depot/dev/client3/rdock/2013.1/src/exe/rbdock.cxx#4 $)

>  <Rbt.Library>
libRbt.so (2013.1, Build901 2013/11/27)

>  <Rbt.Parameter_File>
/export/apps/rDock/src/rDock_2013.1_src/data/scripts/dock_solv.prm

>  <Rbt.Receptor>
prm/pocket_docking_8.prm

>  <SCORE>
-11.4693

>  <SCORE.INTER>
-11.4693

>  <SCORE.INTER.CONST>
1

>  <SCORE.INTER.POLAR>
0

>  <SCORE.INTER.ROT>
0

>  <SCORE.INTER.SOLV>
21.7123

>  <SCORE.INTER.VDW>
-18.4837

>  <SCORE.INTER.norm>
-1.04267

>  <SCORE.INTRA>
0

>  <SCORE.INTRA.DIHEDRAL>
0

>  <SCORE.INTRA.DIHEDRAL.0>
0

>  <SCORE.INTRA.POLAR>
0

>  <SCORE.INTRA.POLAR.0>
0

>  <SCORE.INTRA.REPUL>
0

>  <SCORE.INTRA.REPUL.0>
0

>  <SCORE.INTRA.SOLV>
0

>  <SCORE.INTRA.SOLV.lig_0>
-48.3454

>  <SCORE.INTRA.VDW>
0

>  <SCORE.INTRA.VDW.0>
0

>  <SCORE.INTRA.norm>
0

>  <SCORE.RESTR>
0

>  <SCORE.RESTR.CAVITY>
0

>  <SCORE.RESTR.norm>
0

>  <SCORE.SYSTEM>
0

>  <SCORE.SYSTEM.CONST>
0

>  <SCORE.SYSTEM.DIHEDRAL>
0

>  <SCORE.SYSTEM.SOLV>
0

>  <SCORE.SYSTEM.norm>
0

>  <SCORE.heavy>
11

>  <SCORE.norm>
-1.04267

>  <RMSD>
0.611

$$$$
ligand
 OpenBabel02271912153D
libRbt.so/2013.1/901 2013/11/27
 11 12  0  0  0  0  0  0  0  0999 V2000
  -11.8420  -12.7650    8.8538 N   0  0  0  0  0  0  0  0  0  0  0  0
  -11.5027  -14.0609    8.9451 C   0  0  0  0  0  0  0  0  0  0  0  0
  -11.5252  -14.6677   10.1284 N   0  0  0  0  0  0  0  0  0  0  0  0
  -11.1306  -14.7476    7.8537 N   0  0  0  0  0  0  0  0  0  0  0  0
  -11.0875  -14.1528    6.6523 C   0  0  0  0  0  0  0  0  0  0  0  0
  -11.4334  -12.8130    6.5300 C   0  0  0  0  0  0  0  0  0  0  0  0
  -11.8181  -12.1233    7.6750 C   0  0  0  0  0  0  0  0  0  0  0  0
  -12.1665  -10.8421    7.6019 N   0  0  0  0  0  0  0  0  0  0  0  0
  -11.2902  -12.4779    5.2513 N   0  0  0  0  0  0  0  0  0  0  0  0
  -10.8719  -13.5561    4.5921 C   0  0  0  0  0  0  0  0  0  0  0  0
  -10.7476  -14.5763    5.4384 N   0  0  0  0  0  0  0  0  0  0  0  0
  1  7  2  0  0  0  0
  1  2  1  0  0  0  0
  2  3  1  0  0  0  0
  2  4  2  0  0  0  0
  4  5  1  0  0  0  0
  5  6  2  0  0  0  0
  5 11  1  0  0  0  0
  6  7  1  0  0  0  0
  6  9  1  0  0  0  0
  7  8  1  0  0  0  0
  9 10  1  0  0  0  0
 10 11  2  0  0  0  0
M  END
>  <CHROM.1>
-11.40549082,-13.34407628,7.25354632,2.01609408,-1.25383448,2.13017635

>  <Name>
ligand

>  <RI>
0

>  <Rbt.Current_Directory>
/home/itssahil/PROJECTS/Mol_Feturizer/Test_systems_manuscript/rnas/2b57

>  <Rbt.Executable>
rbdock ($Id: //depot/dev/client3/rdock/2013.1/src/exe/rbdock.cxx#4 $)

>  <Rbt.Library>
libRbt.so (2013.1, Build901 2013/11/27)

>  <Rbt.Parameter_File>
/export/apps/rDock/src/rDock_2013.1_src/data/scripts/dock_solv.prm

>  <Rbt.Receptor>
prm/blind_docking_80.prm

>  <SCORE>
-11.5505

>  <SCORE.INTER>
-11.5505

>  <SCORE.INTER.CONST>
1

>  <SCORE.INTER.POLAR>
0

>  <SCORE.INTER.ROT>
0

>  <SCORE.INTER.SOLV>
21.5688

>  <SCORE.INTER.VDW>
-18.4899

>  <SCORE.INTER.norm>
-1.05005

>  <SCORE.INTRA>
0

>  <SCORE.INTRA.DIHEDRAL>
0

>  <SCORE.INTRA.DIHEDRAL.0>
0

>  <SCORE.INTRA.POLAR>
0

>  <SCORE.INTRA.POLAR.0>
0

>  <SCORE.INTRA.REPUL>
0

>  <SCORE.INTRA.REPUL.0>
0

>  <SCORE.INTRA.SOLV>
0

>  <SCORE.INTRA.SOLV.lig_0>
-48.3454

>  <SCORE.INTRA.VDW>
0

>  <SCORE.INTRA.VDW.0>
0

>  <SCORE.INTRA.norm>
0

>  <SCORE.RESTR>
0

>  <SCORE.RESTR.CAVITY>
0

>  <SCORE.RESTR.norm>
0

>  <SCORE.SYSTEM>
0

>  <SCORE.SYSTEM.CONST>
0

>  <SCORE.SYSTEM.DIHEDRAL>
0

>  <SCORE.SYSTEM.SOLV>
0

>  <SCORE.SYSTEM.norm>
0

>  <SCORE.heavy>
11

>  <SCORE.norm>
-1.05005

>  <RMSD>
0.612

$$$$
ligand
 OpenBabel02271912153D
libRbt.so/2013.1/901 2013/11/27
 11 12  0  0  0  0  0  0  0  0999 V2000
  -11.8497  -12.7686    8.8509 N   0  0  0  0  0  0  0  0  0  0  0  0
  -11.4676  -14.0528    8.9386 C   0  0  0  0  0  0  0  0  0  0  0  0
  -11.4679  -14.6626   10.1206 N   0  0  0  0  0  0  0  0  0  0  0  0
  -11.0751  -14.7244    7.8450 N   0  0  0  0  0  0  0  0  0  0  0  0
  -11.0539  -14.1258    6.6449 C   0  0  0  0  0  0  0  0  0  0  0  0
  -11.4441  -12.7979    6.5262 C   0  0  0  0  0  0  0  0  0  0  0  0
  -11.8492  -12.1238    7.6735 C   0  0  0  0  0  0  0  0  0  0  0  0
  -12.2399  -10.8547    7.6039 N   0  0  0  0  0  0  0  0  0  0  0  0
  -11.3144  -12.4555    5.2480 N   0  0  0  0  0  0  0  0  0  0  0  0
  -10.8620  -13.5178    4.5856 C   0  0  0  0  0  0  0  0  0  0  0  0
  -10.7024  -14.5352    5.4293 N   0  0  0  0  0  0  0  0  0  0  0  0
  1  7  2  0  0  0  0
  1  2  1  0  0  0  0
  2  3  1  0  0  0  0
  2  4  2  0  0  0  0
  4  5  1  0  0  0  0
  5  6  2  0  0  0  0
  5 11  1  0  0  0  0
  6  7  1  0  0  0  0
  6  9  1  0  0  0  0
  7  8  1  0  0  0  0
  9 10  1  0  0  0  0
 10 11  2  0  0  0  0
M  END
>  <CHROM.1>
-11.39731557,-13.32938070,7.24846914,1.95946696,-1.22631607,2.07885900

>  <Name>
ligand

>  <RI>
0

>  <Rbt.Current_Directory>
/home/itssahil/PROJECTS/Mol_Feturizer/Test_systems_manuscript/rnas/2b57

>  <Rbt.Executable>
rbdock ($Id: //depot/dev/client3/rdock/2013.1/src/exe/rbdock.cxx#4 $)

>  <Rbt.Library>
libRbt.so (2013.1, Build901 2013/11/27)

>  <Rbt.Parameter_File>
/export/apps/rDock/src/rDock_2013.1_src/data/scripts/dock_solv.prm

>  <Rbt.Receptor>
prm/pocket_docking_4.prm

>  <SCORE>
-11.4696

>  <SCORE.INTER>
-11.4696

>  <SCORE.INTER.CONST>
1

>  <SCORE.INTER.POLAR>
0

>  <SCORE.INTER.ROT>
0

>  <SCORE.INTER.SOLV>
21.3142

>  <SCORE.INTER.VDW>
-18.3512

>  <SCORE.INTER.norm>
-1.04269

>  <SCORE.INTRA>
0

>  <SCORE.INTRA.DIHEDRAL>
0

>  <SCORE.INTRA.DIHEDRAL.0>
0

>  <SCORE.INTRA.POLAR>
0

>  <SCORE.INTRA.POLAR.0>
0

>  <SCORE.INTRA.REPUL>
0

>  <SCORE.INTRA.REPUL.0>
0

>  <SCORE.INTRA.SOLV>
0

>  <SCORE.INTRA.SOLV.lig_0>
-48.3454

>  <SCORE.INTRA.VDW>
0

>  <SCORE.INTRA.VDW.0>
0

>  <SCORE.INTRA.norm>
0

>  <SCORE.RESTR>
0

>  <SCORE.RESTR.CAVITY>
0

>  <SCORE.RESTR.norm>
0

>  <SCORE.SYSTEM>
0

>  <SCORE.SYSTEM.CONST>
0

>  <SCORE.SYSTEM.DIHEDRAL>
0

>  <SCORE.SYSTEM.SOLV>
0

>  <SCORE.SYSTEM.norm>
0

>  <SCORE.heavy>
11

>  <SCORE.norm>
-1.04269

>  <RMSD>
0.612

$$$$
ligand
 OpenBabel02271912153D
libRbt.so/2013.1/901 2013/11/27
 11 12  0  0  0  0  0  0  0  0999 V2000
  -11.8436  -12.7660    8.8549 N   0  0  0  0  0  0  0  0  0  0  0  0
  -11.5077  -14.0628    8.9439 C   0  0  0  0  0  0  0  0  0  0  0  0
  -11.5310  -14.6714   10.1263 N   0  0  0  0  0  0  0  0  0  0  0  0
  -11.1383  -14.7488    7.8512 N   0  0  0  0  0  0  0  0  0  0  0  0
  -11.0944  -14.1523    6.6507 C   0  0  0  0  0  0  0  0  0  0  0  0
  -11.4369  -12.8114    6.5307 C   0  0  0  0  0  0  0  0  0  0  0  0
  -11.8189  -12.1224    7.6771 C   0  0  0  0  0  0  0  0  0  0  0  0
  -12.1640  -10.8403    7.6062 N   0  0  0  0  0  0  0  0  0  0  0  0
  -11.2937  -12.4747    5.2524 N   0  0  0  0  0  0  0  0  0  0  0  0
  -10.8787  -13.5530    4.5912 C   0  0  0  0  0  0  0  0  0  0  0  0
  -10.7565  -14.5748    5.4359 N   0  0  0  0  0  0  0  0  0  0  0  0
  1  7  2  0  0  0  0
  1  2  1  0  0  0  0
  2  3  1  0  0  0  0
  2  4  2  0  0  0  0
  4  5  1  0  0  0  0
  5  6  2  0  0  0  0
  5 11  1  0  0  0  0
  6  7  1  0  0  0  0
  6  9  1  0  0  0  0
  7  8  1  0  0  0  0
  9 10  1  0  0  0  0
 10 11  2  0  0  0  0
M  END
>  <CHROM.1>
-11.40985062,-13.34367111,7.25340637,2.01865395,-1.25644951,2.13415086

>  <Name>
ligand

>  <RI>
0

>  <Rbt.Current_Directory>
/home/itssahil/PROJECTS/Mol_Feturizer/Test_systems_manuscript/rnas/2b57

>  <Rbt.Executable>
rbdock ($Id: //depot/dev/client3/rdock/2013.1/src/exe/rbdock.cxx#4 $)

>  <Rbt.Library>
libRbt.so (2013.1, Build901 2013/11/27)

>  <Rbt.Parameter_File>
/export/apps/rDock/src/rDock_2013.1_src/data/scripts/dock_solv.prm

>  <Rbt.Receptor>
prm/pocket_docking_5.prm

>  <SCORE>
-11.5508

>  <SCORE.INTER>
-11.5508

>  <SCORE.INTER.CONST>
1

>  <SCORE.INTER.POLAR>
0

>  <SCORE.INTER.ROT>
0

>  <SCORE.INTER.SOLV>
21.591

>  <SCORE.INTER.VDW>
-18.4975

>  <SCORE.INTER.norm>
-1.05007

>  <SCORE.INTRA>
0

>  <SCORE.INTRA.DIHEDRAL>
0

>  <SCORE.INTRA.DIHEDRAL.0>
0

>  <SCORE.INTRA.POLAR>
0

>  <SCORE.INTRA.POLAR.0>
0

>  <SCORE.INTRA.REPUL>
0

>  <SCORE.INTRA.REPUL.0>
0

>  <SCORE.INTRA.SOLV>
0

>  <SCORE.INTRA.SOLV.lig_0>
-48.3454

>  <SCORE.INTRA.VDW>
0

>  <SCORE.INTRA.VDW.0>
0

>  <SCORE.INTRA.norm>
0

>  <SCORE.RESTR>
0

>  <SCORE.RESTR.CAVITY>
0

>  <SCORE.RESTR.norm>
0

>  <SCORE.SYSTEM>
0

>  <SCORE.SYSTEM.CONST>
0

>  <SCORE.SYSTEM.DIHEDRAL>
0

>  <SCORE.SYSTEM.SOLV>
0

>  <SCORE.SYSTEM.norm>
0

>  <SCORE.heavy>
11

>  <SCORE.norm>
-1.05007

>  <RMSD>
0.612

$$$$
ligand
 OpenBabel02271912153D
libRbt.so/2013.1/901 2013/11/27
 11 12  0  0  0  0  0  0  0  0999 V2000
  -11.8549  -12.7709    8.8517 N   0  0  0  0  0  0  0  0  0  0  0  0
  -11.5051  -14.0639    8.9439 C   0  0  0  0  0  0  0  0  0  0  0  0
  -11.5207  -14.6694   10.1280 N   0  0  0  0  0  0  0  0  0  0  0  0
  -11.1297  -14.7490    7.8527 N   0  0  0  0  0  0  0  0  0  0  0  0
  -11.0935  -14.1554    6.6505 C   0  0  0  0  0  0  0  0  0  0  0  0
  -11.4503  -12.8185    6.5271 C   0  0  0  0  0  0  0  0  0  0  0  0
  -11.8383  -12.1304    7.6720 C   0  0  0  0  0  0  0  0  0  0  0  0
  -12.1970  -10.8522    7.5980 N   0  0  0  0  0  0  0  0  0  0  0  0
  -11.3121  -12.4839    5.2477 N   0  0  0  0  0  0  0  0  0  0  0  0
  -10.8865  -13.5595    4.5891 C   0  0  0  0  0  0  0  0  0  0  0  0
  -10.7525  -14.5776    5.4364 N   0  0  0  0  0  0  0  0  0  0  0  0
  1  7  2  0  0  0  0
  1  2  1  0  0  0  0
  2  3  1  0  0  0  0
  2  4  2  0  0  0  0
  4  5  1  0  0  0  0
  5  6  2  0  0  0  0
  5 11  1  0  0  0  0
  6  7  1  0  0  0  0
  6  9  1  0  0  0  0
  7  8  1  0  0  0  0
  9 10  1  0  0  0  0
 10 11  2  0  0  0  0
M  END
>  <CHROM.1>
-11.41680000,-13.34843124,7.25127772,1.99781824,-1.24804208,2.11159757

>  <Name>
ligand

>  <RI>
0

>  <Rbt.Current_Directory>
/home/itssahil/PROJECTS/Mol_Feturizer/Test_systems_manuscript/rnas/2b57

>  <Rbt.Executable>
rbdock ($Id: //depot/dev/client3/rdock/2013.1/src/exe/rbdock.cxx#4 $)

>  <Rbt.Library>
libRbt.so (2013.1, Build901 2013/11/27)

>  <Rbt.Parameter_File>
/export/apps/rDock/src/rDock_2013.1_src/data/scripts/dock_solv.prm

>  <Rbt.Receptor>
prm/pocket_docking_7.prm

>  <SCORE>
-11.5037

>  <SCORE.INTER>
-11.5037

>  <SCORE.INTER.CONST>
1

>  <SCORE.INTER.POLAR>
0

>  <SCORE.INTER.ROT>
0

>  <SCORE.INTER.SOLV>
21.4691

>  <SCORE.INTER.VDW>
-18.4255

>  <SCORE.INTER.norm>
-1.04579

>  <SCORE.INTRA>
0

>  <SCORE.INTRA.DIHEDRAL>
0

>  <SCORE.INTRA.DIHEDRAL.0>
0

>  <SCORE.INTRA.POLAR>
0

>  <SCORE.INTRA.POLAR.0>
0

>  <SCORE.INTRA.REPUL>
0

>  <SCORE.INTRA.REPUL.0>
0

>  <SCORE.INTRA.SOLV>
0

>  <SCORE.INTRA.SOLV.lig_0>
-48.3454

>  <SCORE.INTRA.VDW>
0

>  <SCORE.INTRA.VDW.0>
0

>  <SCORE.INTRA.norm>
0

>  <SCORE.RESTR>
0

>  <SCORE.RESTR.CAVITY>
0

>  <SCORE.RESTR.norm>
0

>  <SCORE.SYSTEM>
0

>  <SCORE.SYSTEM.CONST>
0

>  <SCORE.SYSTEM.DIHEDRAL>
0

>  <SCORE.SYSTEM.SOLV>
0

>  <SCORE.SYSTEM.norm>
0

>  <SCORE.heavy>
11

>  <SCORE.norm>
-1.04579

>  <RMSD>
0.612

$$$$
ligand
 OpenBabel02271912153D
libRbt.so/2013.1/901 2013/11/27
 11 12  0  0  0  0  0  0  0  0999 V2000
  -11.8491  -12.7970    8.8600 N   0  0  0  0  0  0  0  0  0  0  0  0
  -11.5081  -14.0927    8.9481 C   0  0  0  0  0  0  0  0  0  0  0  0
  -11.5343  -14.7037   10.1292 N   0  0  0  0  0  0  0  0  0  0  0  0
  -11.1307  -14.7749    7.8558 N   0  0  0  0  0  0  0  0  0  0  0  0
  -11.0839  -14.1759    6.6566 C   0  0  0  0  0  0  0  0  0  0  0  0
  -11.4314  -12.8362    6.5376 C   0  0  0  0  0  0  0  0  0  0  0  0
  -11.8216  -12.1511    7.6836 C   0  0  0  0  0  0  0  0  0  0  0  0
  -12.1718  -10.8703    7.6136 N   0  0  0  0  0  0  0  0  0  0  0  0
  -11.2838  -12.4964    5.2607 N   0  0  0  0  0  0  0  0  0  0  0  0
  -10.8612  -13.5716    4.5993 C   0  0  0  0  0  0  0  0  0  0  0  0
  -10.7385  -14.5946    5.4425 N   0  0  0  0  0  0  0  0  0  0  0  0
  1  7  2  0  0  0  0
  1  2  1  0  0  0  0
  2  3  1  0  0  0  0
  2  4  2  0  0  0  0
  4  5  1  0  0  0  0
  5  6  2  0  0  0  0
  5 11  1  0  0  0  0
  6  7  1  0  0  0  0
  6  9  1  0  0  0  0
  7  8  1  0  0  0  0
  9 10  1  0  0  0  0
 10 11  2  0  0  0  0
M  END
>  <CHROM.1>
-11.40547138,-13.36978229,7.25943249,2.02386906,-1.25040508,2.14106206

>  <Name>
ligand

>  <RI>
0

>  <Rbt.Current_Directory>
/home/itssahil/PROJECTS/Mol_Feturizer/Test_systems_manuscript/rnas/2b57

>  <Rbt.Executable>
rbdock ($Id: //depot/dev/client3/rdock/2013.1/src/exe/rbdock.cxx#4 $)

>  <Rbt.Library>
libRbt.so (2013.1, Build901 2013/11/27)

>  <Rbt.Parameter_File>
/export/apps/rDock/src/rDock_2013.1_src/data/scripts/dock_solv.prm

>  <Rbt.Receptor>
prm/blind_docking_40.prm

>  <SCORE>
-11.5548

>  <SCORE.INTER>
-11.5548

>  <SCORE.INTER.CONST>
1

>  <SCORE.INTER.POLAR>
0

>  <SCORE.INTER.ROT>
0

>  <SCORE.INTER.SOLV>
21.5816

>  <SCORE.INTER.VDW>
-18.4971

>  <SCORE.INTER.norm>
-1.05044

>  <SCORE.INTRA>
0

>  <SCORE.INTRA.DIHEDRAL>
0

>  <SCORE.INTRA.DIHEDRAL.0>
0

>  <SCORE.INTRA.POLAR>
0

>  <SCORE.INTRA.POLAR.0>
0

>  <SCORE.INTRA.REPUL>
0

>  <SCORE.INTRA.REPUL.0>
0

>  <SCORE.INTRA.SOLV>
0

>  <SCORE.INTRA.SOLV.lig_0>
-48.3454

>  <SCORE.INTRA.VDW>
0

>  <SCORE.INTRA.VDW.0>
0

>  <SCORE.INTRA.norm>
0

>  <SCORE.RESTR>
0

>  <SCORE.RESTR.CAVITY>
0

>  <SCORE.RESTR.norm>
0

>  <SCORE.SYSTEM>
0

>  <SCORE.SYSTEM.CONST>
0

>  <SCORE.SYSTEM.DIHEDRAL>
0

>  <SCORE.SYSTEM.SOLV>
0

>  <SCORE.SYSTEM.norm>
0

>  <SCORE.heavy>
11

>  <SCORE.norm>
-1.05044

>  <RMSD>
0.613

$$$$
ligand
 OpenBabel02271912153D
libRbt.so/2013.1/901 2013/11/27
 11 12  0  0  0  0  0  0  0  0999 V2000
  -11.8152  -12.7525    8.8563 N   0  0  0  0  0  0  0  0  0  0  0  0
  -11.4612  -14.0441    8.9522 C   0  0  0  0  0  0  0  0  0  0  0  0
  -11.4678  -14.6443   10.1391 N   0  0  0  0  0  0  0  0  0  0  0  0
  -11.0905  -14.7330    7.8617 N   0  0  0  0  0  0  0  0  0  0  0  0
  -11.0634  -14.1447    6.6567 C   0  0  0  0  0  0  0  0  0  0  0  0
  -11.4248  -12.8094    6.5295 C   0  0  0  0  0  0  0  0  0  0  0  0
  -11.8077  -12.1173    7.6737 C   0  0  0  0  0  0  0  0  0  0  0  0
  -12.1705  -10.8404    7.5961 N   0  0  0  0  0  0  0  0  0  0  0  0
  -11.2954  -12.4802    5.2478 N   0  0  0  0  0  0  0  0  0  0  0  0
  -10.8708  -13.5576    4.5914 C   0  0  0  0  0  0  0  0  0  0  0  0
  -10.7287  -14.5715    5.4424 N   0  0  0  0  0  0  0  0  0  0  0  0
  1  7  2  0  0  0  0
  1  2  1  0  0  0  0
  2  3  1  0  0  0  0
  2  4  2  0  0  0  0
  4  5  1  0  0  0  0
  5  6  2  0  0  0  0
  5 11  1  0  0  0  0
  6  7  1  0  0  0  0
  6  9  1  0  0  0  0
  7  8  1  0  0  0  0
  9 10  1  0  0  0  0
 10 11  2  0  0  0  0
M  END
>  <CHROM.1>
-11.38531030,-13.33599528,7.25582989,1.97656442,-1.24869727,2.08693848

>  <Name>
ligand

>  <RI>
0

>  <Rbt.Current_Directory>
/home/itssahil/PROJECTS/Mol_Feturizer/Test_systems_manuscript/rnas/2b57

>  <Rbt.Executable>
rbdock ($Id: //depot/dev/client3/rdock/2013.1/src/exe/rbdock.cxx#4 $)

>  <Rbt.Library>
libRbt.so (2013.1, Build901 2013/11/27)

>  <Rbt.Parameter_File>
/export/apps/rDock/src/rDock_2013.1_src/data/scripts/dock_solv.prm

>  <Rbt.Receptor>
prm/pocket_docking_3.prm

>  <SCORE>
-11.5166

>  <SCORE.INTER>
-11.5166

>  <SCORE.INTER.CONST>
1

>  <SCORE.INTER.POLAR>
0

>  <SCORE.INTER.ROT>
0

>  <SCORE.INTER.SOLV>
21.5304

>  <SCORE.INTER.VDW>
-18.4545

>  <SCORE.INTER.norm>
-1.04696

>  <SCORE.INTRA>
0

>  <SCORE.INTRA.DIHEDRAL>
0

>  <SCORE.INTRA.DIHEDRAL.0>
0

>  <SCORE.INTRA.POLAR>
0

>  <SCORE.INTRA.POLAR.0>
0

>  <SCORE.INTRA.REPUL>
0

>  <SCORE.INTRA.REPUL.0>
0

>  <SCORE.INTRA.SOLV>
0

>  <SCORE.INTRA.SOLV.lig_0>
-48.3454

>  <SCORE.INTRA.VDW>
0

>  <SCORE.INTRA.VDW.0>
0

>  <SCORE.INTRA.norm>
0

>  <SCORE.RESTR>
0

>  <SCORE.RESTR.CAVITY>
0

>  <SCORE.RESTR.norm>
0

>  <SCORE.SYSTEM>
0

>  <SCORE.SYSTEM.CONST>
0

>  <SCORE.SYSTEM.DIHEDRAL>
0

>  <SCORE.SYSTEM.SOLV>
0

>  <SCORE.SYSTEM.norm>
0

>  <SCORE.heavy>
11

>  <SCORE.norm>
-1.04696

>  <RMSD>
0.613

$$$$
ligand
 OpenBabel02271912153D
libRbt.so/2013.1/901 2013/11/27
 11 12  0  0  0  0  0  0  0  0999 V2000
  -11.8620  -12.7741    8.8494 N   0  0  0  0  0  0  0  0  0  0  0  0
  -11.5120  -14.0672    8.9400 C   0  0  0  0  0  0  0  0  0  0  0  0
  -11.5305  -14.6751   10.1228 N   0  0  0  0  0  0  0  0  0  0  0  0
  -11.1332  -14.7498    7.8484 N   0  0  0  0  0  0  0  0  0  0  0  0
  -11.0940  -14.1537    6.6475 C   0  0  0  0  0  0  0  0  0  0  0  0
  -11.4510  -12.8168    6.5259 C   0  0  0  0  0  0  0  0  0  0  0  0
  -11.8424  -12.1312    7.6712 C   0  0  0  0  0  0  0  0  0  0  0  0
  -12.2014  -10.8529    7.5988 N   0  0  0  0  0  0  0  0  0  0  0  0
  -11.3094  -12.4795    5.2476 N   0  0  0  0  0  0  0  0  0  0  0  0
  -10.8815  -13.5536    4.5879 C   0  0  0  0  0  0  0  0  0  0  0  0
  -10.7494  -14.5734    5.4335 N   0  0  0  0  0  0  0  0  0  0  0  0
  1  7  2  0  0  0  0
  1  2  1  0  0  0  0
  2  3  1  0  0  0  0
  2  4  2  0  0  0  0
  4  5  1  0  0  0  0
  5  6  2  0  0  0  0
  5 11  1  0  0  0  0
  6  7  1  0  0  0  0
  6  9  1  0  0  0  0
  7  8  1  0  0  0  0
  9 10  1  0  0  0  0
 10 11  2  0  0  0  0
M  END
>  <CHROM.1>
-11.41925073,-13.34817454,7.24907161,2.00458339,-1.24627025,2.12006995

>  <Name>
ligand

>  <RI>
0

>  <Rbt.Current_Directory>
/home/itssahil/PROJECTS/Mol_Feturizer/Test_systems_manuscript/rnas/2b57

>  <Rbt.Executable>
rbdock ($Id: //depot/dev/client3/rdock/2013.1/src/exe/rbdock.cxx#4 $)

>  <Rbt.Library>
libRbt.so (2013.1, Build901 2013/11/27)

>  <Rbt.Parameter_File>
/export/apps/rDock/src/rDock_2013.1_src/data/scripts/dock_solv.prm

>  <Rbt.Receptor>
prm/pocket_docking_5.prm

>  <SCORE>
-11.5127

>  <SCORE.INTER>
-11.5127

>  <SCORE.INTER.CONST>
1

>  <SCORE.INTER.POLAR>
0

>  <SCORE.INTER.ROT>
0

>  <SCORE.INTER.SOLV>
21.464

>  <SCORE.INTER.VDW>
-18.4298

>  <SCORE.INTER.norm>
-1.04661

>  <SCORE.INTRA>
0

>  <SCORE.INTRA.DIHEDRAL>
0

>  <SCORE.INTRA.DIHEDRAL.0>
0

>  <SCORE.INTRA.POLAR>
0

>  <SCORE.INTRA.POLAR.0>
0

>  <SCORE.INTRA.REPUL>
0

>  <SCORE.INTRA.REPUL.0>
0

>  <SCORE.INTRA.SOLV>
0

>  <SCORE.INTRA.SOLV.lig_0>
-48.3454

>  <SCORE.INTRA.VDW>
0

>  <SCORE.INTRA.VDW.0>
0

>  <SCORE.INTRA.norm>
0

>  <SCORE.RESTR>
0

>  <SCORE.RESTR.CAVITY>
0

>  <SCORE.RESTR.norm>
0

>  <SCORE.SYSTEM>
0

>  <SCORE.SYSTEM.CONST>
0

>  <SCORE.SYSTEM.DIHEDRAL>
0

>  <SCORE.SYSTEM.SOLV>
0

>  <SCORE.SYSTEM.norm>
0

>  <SCORE.heavy>
11

>  <SCORE.norm>
-1.04661

>  <RMSD>
0.613

$$$$
ligand
 OpenBabel02271912153D
libRbt.so/2013.1/901 2013/11/27
 11 12  0  0  0  0  0  0  0  0999 V2000
  -11.8448  -12.7661    8.8531 N   0  0  0  0  0  0  0  0  0  0  0  0
  -11.5076  -14.0627    8.9415 C   0  0  0  0  0  0  0  0  0  0  0  0
  -11.5289  -14.6716   10.1238 N   0  0  0  0  0  0  0  0  0  0  0  0
  -11.1388  -14.7481    7.8481 N   0  0  0  0  0  0  0  0  0  0  0  0
  -11.0970  -14.1513    6.6477 C   0  0  0  0  0  0  0  0  0  0  0  0
  -11.4408  -12.8107    6.5284 C   0  0  0  0  0  0  0  0  0  0  0  0
  -11.8220  -12.1223    7.6754 C   0  0  0  0  0  0  0  0  0  0  0  0
  -12.1684  -10.8404    7.6052 N   0  0  0  0  0  0  0  0  0  0  0  0
  -11.2995  -12.4736    5.2500 N   0  0  0  0  0  0  0  0  0  0  0  0
  -10.8843  -13.5513    4.5881 C   0  0  0  0  0  0  0  0  0  0  0  0
  -10.7602  -14.5732    5.4323 N   0  0  0  0  0  0  0  0  0  0  0  0
  1  7  2  0  0  0  0
  1  2  1  0  0  0  0
  2  3  1  0  0  0  0
  2  4  2  0  0  0  0
  4  5  1  0  0  0  0
  5  6  2  0  0  0  0
  5 11  1  0  0  0  0
  6  7  1  0  0  0  0
  6  9  1  0  0  0  0
  7  8  1  0  0  0  0
  9 10  1  0  0  0  0
 10 11  2  0  0  0  0
M  END
>  <CHROM.1>
-11.41241742,-13.34305770,7.25098074,2.01375975,-1.25633955,2.12973296

>  <Name>
ligand

>  <RI>
0

>  <Rbt.Current_Directory>
/home/itssahil/PROJECTS/Mol_Feturizer/Test_systems_manuscript/rnas/2b57

>  <Rbt.Executable>
rbdock ($Id: //depot/dev/client3/rdock/2013.1/src/exe/rbdock.cxx#4 $)

>  <Rbt.Library>
libRbt.so (2013.1, Build901 2013/11/27)

>  <Rbt.Parameter_File>
/export/apps/rDock/src/rDock_2013.1_src/data/scripts/dock_solv.prm

>  <Rbt.Receptor>
prm/pocket_docking_5.prm

>  <SCORE>
-11.5509

>  <SCORE.INTER>
-11.5509

>  <SCORE.INTER.CONST>
1

>  <SCORE.INTER.POLAR>
0

>  <SCORE.INTER.ROT>
0

>  <SCORE.INTER.SOLV>
21.5773

>  <SCORE.INTER.VDW>
-18.493

>  <SCORE.INTER.norm>
-1.05008

>  <SCORE.INTRA>
0

>  <SCORE.INTRA.DIHEDRAL>
0

>  <SCORE.INTRA.DIHEDRAL.0>
0

>  <SCORE.INTRA.POLAR>
0

>  <SCORE.INTRA.POLAR.0>
0

>  <SCORE.INTRA.REPUL>
0

>  <SCORE.INTRA.REPUL.0>
0

>  <SCORE.INTRA.SOLV>
0

>  <SCORE.INTRA.SOLV.lig_0>
-48.3454

>  <SCORE.INTRA.VDW>
0

>  <SCORE.INTRA.VDW.0>
0

>  <SCORE.INTRA.norm>
0

>  <SCORE.RESTR>
0

>  <SCORE.RESTR.CAVITY>
0

>  <SCORE.RESTR.norm>
0

>  <SCORE.SYSTEM>
0

>  <SCORE.SYSTEM.CONST>
0

>  <SCORE.SYSTEM.DIHEDRAL>
0

>  <SCORE.SYSTEM.SOLV>
0

>  <SCORE.SYSTEM.norm>
0

>  <SCORE.heavy>
11

>  <SCORE.norm>
-1.05008

>  <RMSD>
0.613

$$$$
ligand
 OpenBabel02271912153D
libRbt.so/2013.1/901 2013/11/27
 11 12  0  0  0  0  0  0  0  0999 V2000
  -11.8554  -12.7710    8.8498 N   0  0  0  0  0  0  0  0  0  0  0  0
  -11.5061  -14.0641    8.9429 C   0  0  0  0  0  0  0  0  0  0  0  0
  -11.5241  -14.6695   10.1270 N   0  0  0  0  0  0  0  0  0  0  0  0
  -11.1285  -14.7493    7.8525 N   0  0  0  0  0  0  0  0  0  0  0  0
  -11.0899  -14.1559    6.6503 C   0  0  0  0  0  0  0  0  0  0  0  0
  -11.4462  -12.8190    6.5261 C   0  0  0  0  0  0  0  0  0  0  0  0
  -11.8363  -12.1307    7.6701 C   0  0  0  0  0  0  0  0  0  0  0  0
  -12.1947  -10.8524    7.5952 N   0  0  0  0  0  0  0  0  0  0  0  0
  -11.3054  -12.4846    5.2469 N   0  0  0  0  0  0  0  0  0  0  0  0
  -10.8786  -13.5603    4.5892 C   0  0  0  0  0  0  0  0  0  0  0  0
  -10.7465  -14.5784    5.4369 N   0  0  0  0  0  0  0  0  0  0  0  0
  1  7  2  0  0  0  0
  1  2  1  0  0  0  0
  2  3  1  0  0  0  0
  2  4  2  0  0  0  0
  4  5  1  0  0  0  0
  5  6  2  0  0  0  0
  5 11  1  0  0  0  0
  6  7  1  0  0  0  0
  6  9  1  0  0  0  0
  7  8  1  0  0  0  0
  9 10  1  0  0  0  0
 10 11  2  0  0  0  0
M  END
>  <CHROM.1>
-11.41422408,-13.34883999,7.25034379,2.00350836,-1.24714328,2.11686706

>  <Name>
ligand

>  <RI>
0

>  <Rbt.Current_Directory>
/home/itssahil/PROJECTS/Mol_Feturizer/Test_systems_manuscript/rnas/2b57

>  <Rbt.Executable>
rbdock ($Id: //depot/dev/client3/rdock/2013.1/src/exe/rbdock.cxx#4 $)

>  <Rbt.Library>
libRbt.so (2013.1, Build901 2013/11/27)

>  <Rbt.Parameter_File>
/export/apps/rDock/src/rDock_2013.1_src/data/scripts/dock_solv.prm

>  <Rbt.Receptor>
prm/pocket_docking_8.prm

>  <SCORE>
-11.5091

>  <SCORE.INTER>
-11.5091

>  <SCORE.INTER.CONST>
1

>  <SCORE.INTER.POLAR>
0

>  <SCORE.INTER.ROT>
0

>  <SCORE.INTER.SOLV>
21.4734

>  <SCORE.INTER.VDW>
-18.4305

>  <SCORE.INTER.norm>
-1.04628

>  <SCORE.INTRA>
0

>  <SCORE.INTRA.DIHEDRAL>
0

>  <SCORE.INTRA.DIHEDRAL.0>
0

>  <SCORE.INTRA.POLAR>
0

>  <SCORE.INTRA.POLAR.0>
0

>  <SCORE.INTRA.REPUL>
0

>  <SCORE.INTRA.REPUL.0>
0

>  <SCORE.INTRA.SOLV>
0

>  <SCORE.INTRA.SOLV.lig_0>
-48.3454

>  <SCORE.INTRA.VDW>
0

>  <SCORE.INTRA.VDW.0>
0

>  <SCORE.INTRA.norm>
0

>  <SCORE.RESTR>
0

>  <SCORE.RESTR.CAVITY>
0

>  <SCORE.RESTR.norm>
0

>  <SCORE.SYSTEM>
0

>  <SCORE.SYSTEM.CONST>
0

>  <SCORE.SYSTEM.DIHEDRAL>
0

>  <SCORE.SYSTEM.SOLV>
0

>  <SCORE.SYSTEM.norm>
0

>  <SCORE.heavy>
11

>  <SCORE.norm>
-1.04628

>  <RMSD>
0.613

$$$$
ligand
 OpenBabel02271912153D
libRbt.so/2013.1/901 2013/11/27
 11 12  0  0  0  0  0  0  0  0999 V2000
  -11.8352  -12.7620    8.8514 N   0  0  0  0  0  0  0  0  0  0  0  0
  -11.4994  -14.0583    8.9487 C   0  0  0  0  0  0  0  0  0  0  0  0
  -11.5287  -14.6611   10.1339 N   0  0  0  0  0  0  0  0  0  0  0  0
  -11.1241  -14.7496    7.8613 N   0  0  0  0  0  0  0  0  0  0  0  0
  -11.0742  -14.1590    6.6581 C   0  0  0  0  0  0  0  0  0  0  0  0
  -11.4164  -12.8188    6.5296 C   0  0  0  0  0  0  0  0  0  0  0  0
  -11.8046  -12.1243    7.6706 C   0  0  0  0  0  0  0  0  0  0  0  0
  -12.1496  -10.8426    7.5916 N   0  0  0  0  0  0  0  0  0  0  0  0
  -11.2667  -12.4884    5.2504 N   0  0  0  0  0  0  0  0  0  0  0  0
  -10.8480  -13.5698    4.5968 C   0  0  0  0  0  0  0  0  0  0  0  0
  -10.7299  -14.5874    5.4471 N   0  0  0  0  0  0  0  0  0  0  0  0
  1  7  2  0  0  0  0
  1  2  1  0  0  0  0
  2  3  1  0  0  0  0
  2  4  2  0  0  0  0
  4  5  1  0  0  0  0
  5  6  2  0  0  0  0
  5 11  1  0  0  0  0
  6  7  1  0  0  0  0
  6  9  1  0  0  0  0
  7  8  1  0  0  0  0
  9 10  1  0  0  0  0
 10 11  2  0  0  0  0
M  END
>  <CHROM.1>
-11.39298989,-13.34750129,7.25510609,2.03225077,-1.25342921,2.14213185

>  <Name>
ligand

>  <RI>
0

>  <Rbt.Current_Directory>
/home/itssahil/PROJECTS/Mol_Feturizer/Test_systems_manuscript/rnas/2b57

>  <Rbt.Executable>
rbdock ($Id: //depot/dev/client3/rdock/2013.1/src/exe/rbdock.cxx#4 $)

>  <Rbt.Library>
libRbt.so (2013.1, Build901 2013/11/27)

>  <Rbt.Parameter_File>
/export/apps/rDock/src/rDock_2013.1_src/data/scripts/dock_solv.prm

>  <Rbt.Receptor>
prm/pocket_docking_3.prm

>  <SCORE>
-11.5678

>  <SCORE.INTER>
-11.5678

>  <SCORE.INTER.CONST>
1

>  <SCORE.INTER.POLAR>
0

>  <SCORE.INTER.ROT>
0

>  <SCORE.INTER.SOLV>
21.6162

>  <SCORE.INTER.VDW>
-18.5173

>  <SCORE.INTER.norm>
-1.05162

>  <SCORE.INTRA>
0

>  <SCORE.INTRA.DIHEDRAL>
0

>  <SCORE.INTRA.DIHEDRAL.0>
0

>  <SCORE.INTRA.POLAR>
0

>  <SCORE.INTRA.POLAR.0>
0

>  <SCORE.INTRA.REPUL>
0

>  <SCORE.INTRA.REPUL.0>
0

>  <SCORE.INTRA.SOLV>
0

>  <SCORE.INTRA.SOLV.lig_0>
-48.3454

>  <SCORE.INTRA.VDW>
0

>  <SCORE.INTRA.VDW.0>
0

>  <SCORE.INTRA.norm>
0

>  <SCORE.RESTR>
0

>  <SCORE.RESTR.CAVITY>
0

>  <SCORE.RESTR.norm>
0

>  <SCORE.SYSTEM>
0

>  <SCORE.SYSTEM.CONST>
0

>  <SCORE.SYSTEM.DIHEDRAL>
0

>  <SCORE.SYSTEM.SOLV>
0

>  <SCORE.SYSTEM.norm>
0

>  <SCORE.heavy>
11

>  <SCORE.norm>
-1.05162

>  <RMSD>
0.614

$$$$
ligand
 OpenBabel02271912153D
libRbt.so/2013.1/901 2013/11/27
 11 12  0  0  0  0  0  0  0  0999 V2000
  -11.8378  -12.7639    8.8539 N   0  0  0  0  0  0  0  0  0  0  0  0
  -11.5082  -14.0625    8.9422 C   0  0  0  0  0  0  0  0  0  0  0  0
  -11.5336  -14.6714   10.1244 N   0  0  0  0  0  0  0  0  0  0  0  0
  -11.1429  -14.7498    7.8489 N   0  0  0  0  0  0  0  0  0  0  0  0
  -11.0970  -14.1530    6.6486 C   0  0  0  0  0  0  0  0  0  0  0  0
  -11.4329  -12.8104    6.5294 C   0  0  0  0  0  0  0  0  0  0  0  0
  -11.8107  -12.1200    7.6763 C   0  0  0  0  0  0  0  0  0  0  0  0
  -12.1496  -10.8361    7.6062 N   0  0  0  0  0  0  0  0  0  0  0  0
  -11.2890  -12.4739    5.2511 N   0  0  0  0  0  0  0  0  0  0  0  0
  -10.8797  -13.5539    4.5892 C   0  0  0  0  0  0  0  0  0  0  0  0
  -10.7619  -14.5767    5.4334 N   0  0  0  0  0  0  0  0  0  0  0  0
  1  7  2  0  0  0  0
  1  2  1  0  0  0  0
  2  3  1  0  0  0  0
  2  4  2  0  0  0  0
  4  5  1  0  0  0  0
  5  6  2  0  0  0  0
  5 11  1  0  0  0  0
  6  7  1  0  0  0  0
  6  9  1  0  0  0  0
  7  8  1  0  0  0  0
  9 10  1  0  0  0  0
 10 11  2  0  0  0  0
M  END
>  <CHROM.1>
-11.40796318,-13.34308289,7.25186902,2.02531182,-1.26098179,2.14089589

>  <Name>
ligand

>  <RI>
0

>  <Rbt.Current_Directory>
/home/itssahil/PROJECTS/Mol_Feturizer/Test_systems_manuscript/rnas/2b57

>  <Rbt.Executable>
rbdock ($Id: //depot/dev/client3/rdock/2013.1/src/exe/rbdock.cxx#4 $)

>  <Rbt.Library>
libRbt.so (2013.1, Build901 2013/11/27)

>  <Rbt.Parameter_File>
/export/apps/rDock/src/rDock_2013.1_src/data/scripts/dock_solv.prm

>  <Rbt.Receptor>
prm/pocket_docking_3.prm

>  <SCORE>
-11.5444

>  <SCORE.INTER>
-11.5444

>  <SCORE.INTER.CONST>
1

>  <SCORE.INTER.POLAR>
0

>  <SCORE.INTER.ROT>
0

>  <SCORE.INTER.SOLV>
21.6514

>  <SCORE.INTER.VDW>
-18.5134

>  <SCORE.INTER.norm>
-1.04949

>  <SCORE.INTRA>
0

>  <SCORE.INTRA.DIHEDRAL>
0

>  <SCORE.INTRA.DIHEDRAL.0>
0

>  <SCORE.INTRA.POLAR>
0

>  <SCORE.INTRA.POLAR.0>
0

>  <SCORE.INTRA.REPUL>
0

>  <SCORE.INTRA.REPUL.0>
0

>  <SCORE.INTRA.SOLV>
0

>  <SCORE.INTRA.SOLV.lig_0>
-48.3454

>  <SCORE.INTRA.VDW>
0

>  <SCORE.INTRA.VDW.0>
0

>  <SCORE.INTRA.norm>
0

>  <SCORE.RESTR>
0

>  <SCORE.RESTR.CAVITY>
0

>  <SCORE.RESTR.norm>
0

>  <SCORE.SYSTEM>
0

>  <SCORE.SYSTEM.CONST>
0

>  <SCORE.SYSTEM.DIHEDRAL>
0

>  <SCORE.SYSTEM.SOLV>
0

>  <SCORE.SYSTEM.norm>
0

>  <SCORE.heavy>
11

>  <SCORE.norm>
-1.04949

>  <RMSD>
0.614

$$$$
ligand
 OpenBabel02271912153D
libRbt.so/2013.1/901 2013/11/27
 11 12  0  0  0  0  0  0  0  0999 V2000
  -11.8502  -12.7692    8.8521 N   0  0  0  0  0  0  0  0  0  0  0  0
  -11.5099  -14.0651    8.9391 C   0  0  0  0  0  0  0  0  0  0  0  0
  -11.5294  -14.6752   10.1208 N   0  0  0  0  0  0  0  0  0  0  0  0
  -11.1399  -14.7486    7.8450 N   0  0  0  0  0  0  0  0  0  0  0  0
  -11.0999  -14.1505    6.6452 C   0  0  0  0  0  0  0  0  0  0  0  0
  -11.4469  -12.8107    6.5272 C   0  0  0  0  0  0  0  0  0  0  0  0
  -11.8294  -12.1243    7.6750 C   0  0  0  0  0  0  0  0  0  0  0  0
  -12.1789  -10.8432    7.6061 N   0  0  0  0  0  0  0  0  0  0  0  0
  -11.3068  -12.4720    5.2491 N   0  0  0  0  0  0  0  0  0  0  0  0
  -10.8893  -13.5481    4.5860 C   0  0  0  0  0  0  0  0  0  0  0  0
  -10.7624  -14.5705    5.4293 N   0  0  0  0  0  0  0  0  0  0  0  0
  1  7  2  0  0  0  0
  1  2  1  0  0  0  0
  2  3  1  0  0  0  0
  2  4  2  0  0  0  0
  4  5  1  0  0  0  0
  5  6  2  0  0  0  0
  5 11  1  0  0  0  0
  6  7  1  0  0  0  0
  6  9  1  0  0  0  0
  7  8  1  0  0  0  0
  9 10  1  0  0  0  0
 10 11  2  0  0  0  0
M  END
>  <CHROM.1>
-11.41701829,-13.34365364,7.24928218,2.00879674,-1.25448120,2.12595572

>  <Name>
ligand

>  <RI>
0

>  <Rbt.Current_Directory>
/home/itssahil/PROJECTS/Mol_Feturizer/Test_systems_manuscript/rnas/2b57

>  <Rbt.Executable>
rbdock ($Id: //depot/dev/client3/rdock/2013.1/src/exe/rbdock.cxx#4 $)

>  <Rbt.Library>
libRbt.so (2013.1, Build901 2013/11/27)

>  <Rbt.Parameter_File>
/export/apps/rDock/src/rDock_2013.1_src/data/scripts/dock_solv.prm

>  <Rbt.Receptor>
prm/pocket_docking_3.prm

>  <SCORE>
-11.5492

>  <SCORE.INTER>
-11.5492

>  <SCORE.INTER.CONST>
1

>  <SCORE.INTER.POLAR>
0

>  <SCORE.INTER.ROT>
0

>  <SCORE.INTER.SOLV>
21.5471

>  <SCORE.INTER.VDW>
-18.4819

>  <SCORE.INTER.norm>
-1.04993

>  <SCORE.INTRA>
0

>  <SCORE.INTRA.DIHEDRAL>
0

>  <SCORE.INTRA.DIHEDRAL.0>
0

>  <SCORE.INTRA.POLAR>
0

>  <SCORE.INTRA.POLAR.0>
0

>  <SCORE.INTRA.REPUL>
0

>  <SCORE.INTRA.REPUL.0>
0

>  <SCORE.INTRA.SOLV>
0

>  <SCORE.INTRA.SOLV.lig_0>
-48.3454

>  <SCORE.INTRA.VDW>
0

>  <SCORE.INTRA.VDW.0>
0

>  <SCORE.INTRA.norm>
0

>  <SCORE.RESTR>
0

>  <SCORE.RESTR.CAVITY>
0

>  <SCORE.RESTR.norm>
0

>  <SCORE.SYSTEM>
0

>  <SCORE.SYSTEM.CONST>
0

>  <SCORE.SYSTEM.DIHEDRAL>
0

>  <SCORE.SYSTEM.SOLV>
0

>  <SCORE.SYSTEM.norm>
0

>  <SCORE.heavy>
11

>  <SCORE.norm>
-1.04993

>  <RMSD>
0.614

$$$$
ligand
 OpenBabel02271912153D
libRbt.so/2013.1/901 2013/11/27
 11 12  0  0  0  0  0  0  0  0999 V2000
  -11.8448  -12.7664    8.8500 N   0  0  0  0  0  0  0  0  0  0  0  0
  -11.4859  -14.0575    8.9335 C   0  0  0  0  0  0  0  0  0  0  0  0
  -11.5070  -14.6741   10.1118 N   0  0  0  0  0  0  0  0  0  0  0  0
  -11.0959  -14.7296    7.8393 N   0  0  0  0  0  0  0  0  0  0  0  0
  -11.0540  -14.1247    6.6429 C   0  0  0  0  0  0  0  0  0  0  0  0
  -11.4199  -12.7896    6.5287 C   0  0  0  0  0  0  0  0  0  0  0  0
  -11.8230  -12.1150    7.6765 C   0  0  0  0  0  0  0  0  0  0  0  0
  -12.1910  -10.8389    7.6110 N   0  0  0  0  0  0  0  0  0  0  0  0
  -11.2734  -12.4421    5.2537 N   0  0  0  0  0  0  0  0  0  0  0  0
  -10.8338  -13.5084    4.5889 C   0  0  0  0  0  0  0  0  0  0  0  0
  -10.6993  -14.5332    5.4280 N   0  0  0  0  0  0  0  0  0  0  0  0
  1  7  2  0  0  0  0
  1  2  1  0  0  0  0
  2  3  1  0  0  0  0
  2  4  2  0  0  0  0
  4  5  1  0  0  0  0
  5  6  2  0  0  0  0
  5 11  1  0  0  0  0
  6  7  1  0  0  0  0
  6  9  1  0  0  0  0
  7  8  1  0  0  0  0
  9 10  1  0  0  0  0
 10 11  2  0  0  0  0
M  END
>  <CHROM.1>
-11.38858511,-13.32585545,7.24827028,2.00819673,-1.23700220,2.13060086

>  <Name>
ligand

>  <RI>
0

>  <Rbt.Current_Directory>
/home/itssahil/PROJECTS/Mol_Feturizer/Test_systems_manuscript/rnas/2b57

>  <Rbt.Executable>
rbdock ($Id: //depot/dev/client3/rdock/2013.1/src/exe/rbdock.cxx#4 $)

>  <Rbt.Library>
libRbt.so (2013.1, Build901 2013/11/27)

>  <Rbt.Parameter_File>
/export/apps/rDock/src/rDock_2013.1_src/data/scripts/dock_solv.prm

>  <Rbt.Receptor>
prm/pocket_docking_6.prm

>  <SCORE>
-11.4911

>  <SCORE.INTER>
-11.4911

>  <SCORE.INTER.CONST>
1

>  <SCORE.INTER.POLAR>
0

>  <SCORE.INTER.ROT>
0

>  <SCORE.INTER.SOLV>
21.4868

>  <SCORE.INTER.VDW>
-18.423

>  <SCORE.INTER.norm>
-1.04464

>  <SCORE.INTRA>
0

>  <SCORE.INTRA.DIHEDRAL>
0

>  <SCORE.INTRA.DIHEDRAL.0>
0

>  <SCORE.INTRA.POLAR>
0

>  <SCORE.INTRA.POLAR.0>
0

>  <SCORE.INTRA.REPUL>
0

>  <SCORE.INTRA.REPUL.0>
0

>  <SCORE.INTRA.SOLV>
0

>  <SCORE.INTRA.SOLV.lig_0>
-48.3454

>  <SCORE.INTRA.VDW>
0

>  <SCORE.INTRA.VDW.0>
0

>  <SCORE.INTRA.norm>
0

>  <SCORE.RESTR>
0

>  <SCORE.RESTR.CAVITY>
0

>  <SCORE.RESTR.norm>
0

>  <SCORE.SYSTEM>
0

>  <SCORE.SYSTEM.CONST>
0

>  <SCORE.SYSTEM.DIHEDRAL>
0

>  <SCORE.SYSTEM.SOLV>
0

>  <SCORE.SYSTEM.norm>
0

>  <SCORE.heavy>
11

>  <SCORE.norm>
-1.04464

>  <RMSD>
0.614

$$$$
ligand
 OpenBabel02271912153D
libRbt.so/2013.1/901 2013/11/27
 11 12  0  0  0  0  0  0  0  0999 V2000
  -11.8419  -12.7364    8.8420 N   0  0  0  0  0  0  0  0  0  0  0  0
  -11.4671  -14.0227    8.9290 C   0  0  0  0  0  0  0  0  0  0  0  0
  -11.4799  -14.6359   10.1092 N   0  0  0  0  0  0  0  0  0  0  0  0
  -11.0695  -14.6932    7.8366 N   0  0  0  0  0  0  0  0  0  0  0  0
  -11.0357  -14.0914    6.6385 C   0  0  0  0  0  0  0  0  0  0  0  0
  -11.4181  -12.7612    6.5205 C   0  0  0  0  0  0  0  0  0  0  0  0
  -11.8288  -12.0883    7.6665 C   0  0  0  0  0  0  0  0  0  0  0  0
  -12.2124  -10.8170    7.5975 N   0  0  0  0  0  0  0  0  0  0  0  0
  -11.2765  -12.4158    5.2444 N   0  0  0  0  0  0  0  0  0  0  0  0
  -10.8243  -13.4785    4.5825 C   0  0  0  0  0  0  0  0  0  0  0  0
  -10.6767  -14.4991    5.4246 N   0  0  0  0  0  0  0  0  0  0  0  0
  1  7  2  0  0  0  0
  1  2  1  0  0  0  0
  2  3  1  0  0  0  0
  2  4  2  0  0  0  0
  4  5  1  0  0  0  0
  5  6  2  0  0  0  0
  5 11  1  0  0  0  0
  6  7  1  0  0  0  0
  6  9  1  0  0  0  0
  7  8  1  0  0  0  0
  9 10  1  0  0  0  0
 10 11  2  0  0  0  0
M  END
>  <CHROM.1>
-11.37973179,-13.29493219,7.24162404,1.98743980,-1.22683169,2.10804942

>  <Name>
ligand

>  <RI>
0

>  <Rbt.Current_Directory>
/home/itssahil/PROJECTS/Mol_Feturizer/Test_systems_manuscript/rnas/2b57

>  <Rbt.Executable>
rbdock ($Id: //depot/dev/client3/rdock/2013.1/src/exe/rbdock.cxx#4 $)

>  <Rbt.Library>
libRbt.so (2013.1, Build901 2013/11/27)

>  <Rbt.Parameter_File>
/export/apps/rDock/src/rDock_2013.1_src/data/scripts/dock_solv.prm

>  <Rbt.Receptor>
prm/blind_docking_80.prm

>  <SCORE>
-11.4514

>  <SCORE.INTER>
-11.4514

>  <SCORE.INTER.CONST>
1

>  <SCORE.INTER.POLAR>
0

>  <SCORE.INTER.ROT>
0

>  <SCORE.INTER.SOLV>
21.3849

>  <SCORE.INTER.VDW>
-18.3625

>  <SCORE.INTER.norm>
-1.04104

>  <SCORE.INTRA>
0

>  <SCORE.INTRA.DIHEDRAL>
0

>  <SCORE.INTRA.DIHEDRAL.0>
0

>  <SCORE.INTRA.POLAR>
0

>  <SCORE.INTRA.POLAR.0>
0

>  <SCORE.INTRA.REPUL>
0

>  <SCORE.INTRA.REPUL.0>
0

>  <SCORE.INTRA.SOLV>
0

>  <SCORE.INTRA.SOLV.lig_0>
-48.3454

>  <SCORE.INTRA.VDW>
0

>  <SCORE.INTRA.VDW.0>
0

>  <SCORE.INTRA.norm>
0

>  <SCORE.RESTR>
0

>  <SCORE.RESTR.CAVITY>
0

>  <SCORE.RESTR.norm>
0

>  <SCORE.SYSTEM>
0

>  <SCORE.SYSTEM.CONST>
0

>  <SCORE.SYSTEM.DIHEDRAL>
0

>  <SCORE.SYSTEM.SOLV>
0

>  <SCORE.SYSTEM.norm>
0

>  <SCORE.heavy>
11

>  <SCORE.norm>
-1.04104

>  <RMSD>
0.615

$$$$
ligand
 OpenBabel02271912153D
libRbt.so/2013.1/901 2013/11/27
 11 12  0  0  0  0  0  0  0  0999 V2000
  -11.8466  -12.7671    8.8485 N   0  0  0  0  0  0  0  0  0  0  0  0
  -11.4630  -14.0507    8.9372 C   0  0  0  0  0  0  0  0  0  0  0  0
  -11.4603  -14.6590   10.1200 N   0  0  0  0  0  0  0  0  0  0  0  0
  -11.0719  -14.7234    7.8437 N   0  0  0  0  0  0  0  0  0  0  0  0
  -11.0537  -14.1265    6.6428 C   0  0  0  0  0  0  0  0  0  0  0  0
  -11.4456  -12.7992    6.5231 C   0  0  0  0  0  0  0  0  0  0  0  0
  -11.8492  -12.1239    7.6702 C   0  0  0  0  0  0  0  0  0  0  0  0
  -12.2414  -10.8554    7.5996 N   0  0  0  0  0  0  0  0  0  0  0  0
  -11.3188  -12.4583    5.2441 N   0  0  0  0  0  0  0  0  0  0  0  0
  -10.8665  -13.5210    4.5823 C   0  0  0  0  0  0  0  0  0  0  0  0
  -10.7042  -14.5371    5.4271 N   0  0  0  0  0  0  0  0  0  0  0  0
  1  7  2  0  0  0  0
  1  2  1  0  0  0  0
  2  3  1  0  0  0  0
  2  4  2  0  0  0  0
  4  5  1  0  0  0  0
  5  6  2  0  0  0  0
  5 11  1  0  0  0  0
  6  7  1  0  0  0  0
  6  9  1  0  0  0  0
  7  8  1  0  0  0  0
  9 10  1  0  0  0  0
 10 11  2  0  0  0  0
M  END
>  <CHROM.1>
-11.39681363,-13.32959251,7.24596776,1.95283506,-1.22631693,2.07124836

>  <Name>
ligand

>  <RI>
0

>  <Rbt.Current_Directory>
/home/itssahil/PROJECTS/Mol_Feturizer/Test_systems_manuscript/rnas/2b57

>  <Rbt.Executable>
rbdock ($Id: //depot/dev/client3/rdock/2013.1/src/exe/rbdock.cxx#4 $)

>  <Rbt.Library>
libRbt.so (2013.1, Build901 2013/11/27)

>  <Rbt.Parameter_File>
/export/apps/rDock/src/rDock_2013.1_src/data/scripts/dock_solv.prm

>  <Rbt.Receptor>
prm/pocket_docking_6.prm

>  <SCORE>
-11.4621

>  <SCORE.INTER>
-11.4621

>  <SCORE.INTER.CONST>
1

>  <SCORE.INTER.POLAR>
0

>  <SCORE.INTER.ROT>
0

>  <SCORE.INTER.SOLV>
21.3055

>  <SCORE.INTER.VDW>
-18.3432

>  <SCORE.INTER.norm>
-1.04201

>  <SCORE.INTRA>
0

>  <SCORE.INTRA.DIHEDRAL>
0

>  <SCORE.INTRA.DIHEDRAL.0>
0

>  <SCORE.INTRA.POLAR>
0

>  <SCORE.INTRA.POLAR.0>
0

>  <SCORE.INTRA.REPUL>
0

>  <SCORE.INTRA.REPUL.0>
0

>  <SCORE.INTRA.SOLV>
0

>  <SCORE.INTRA.SOLV.lig_0>
-48.3454

>  <SCORE.INTRA.VDW>
0

>  <SCORE.INTRA.VDW.0>
0

>  <SCORE.INTRA.norm>
0

>  <SCORE.RESTR>
0

>  <SCORE.RESTR.CAVITY>
0

>  <SCORE.RESTR.norm>
0

>  <SCORE.SYSTEM>
0

>  <SCORE.SYSTEM.CONST>
0

>  <SCORE.SYSTEM.DIHEDRAL>
0

>  <SCORE.SYSTEM.SOLV>
0

>  <SCORE.SYSTEM.norm>
0

>  <SCORE.heavy>
11

>  <SCORE.norm>
-1.04201

>  <RMSD>
0.615

$$$$
ligand
 OpenBabel02271912153D
libRbt.so/2013.1/901 2013/11/27
 11 12  0  0  0  0  0  0  0  0999 V2000
  -11.8780  -12.7251    8.8244 N   0  0  0  0  0  0  0  0  0  0  0  0
  -11.4905  -14.0063    8.9302 C   0  0  0  0  0  0  0  0  0  0  0  0
  -11.5053  -14.6049   10.1178 N   0  0  0  0  0  0  0  0  0  0  0  0
  -11.0782  -14.6861    7.8490 N   0  0  0  0  0  0  0  0  0  0  0  0
  -11.0422  -14.0989    6.6437 C   0  0  0  0  0  0  0  0  0  0  0  0
  -11.4376  -12.7743    6.5065 C   0  0  0  0  0  0  0  0  0  0  0  0
  -11.8633  -12.0916    7.6411 C   0  0  0  0  0  0  0  0  0  0  0  0
  -12.2596  -10.8253    7.5535 N   0  0  0  0  0  0  0  0  0  0  0  0
  -11.2906  -12.4433    5.2271 N   0  0  0  0  0  0  0  0  0  0  0  0
  -10.8226  -13.5094    4.5817 C   0  0  0  0  0  0  0  0  0  0  0  0
  -10.6704  -14.5178    5.4375 N   0  0  0  0  0  0  0  0  0  0  0  0
  1  7  2  0  0  0  0
  1  2  1  0  0  0  0
  2  3  1  0  0  0  0
  2  4  2  0  0  0  0
  4  5  1  0  0  0  0
  5  6  2  0  0  0  0
  5 11  1  0  0  0  0
  6  7  1  0  0  0  0
  6  9  1  0  0  0  0
  7  8  1  0  0  0  0
  9 10  1  0  0  0  0
 10 11  2  0  0  0  0
M  END
>  <CHROM.1>
-11.39875381,-13.29861980,7.23443258,1.98957116,-1.21426684,2.09760532

>  <Name>
ligand

>  <RI>
0

>  <Rbt.Current_Directory>
/home/itssahil/PROJECTS/Mol_Feturizer/Test_systems_manuscript/rnas/2b57

>  <Rbt.Executable>
rbdock ($Id: //depot/dev/client3/rdock/2013.1/src/exe/rbdock.cxx#4 $)

>  <Rbt.Library>
libRbt.so (2013.1, Build901 2013/11/27)

>  <Rbt.Parameter_File>
/export/apps/rDock/src/rDock_2013.1_src/data/scripts/dock_solv.prm

>  <Rbt.Receptor>
prm/pocket_docking_8.prm

>  <SCORE>
-11.4272

>  <SCORE.INTER>
-11.4272

>  <SCORE.INTER.CONST>
1

>  <SCORE.INTER.POLAR>
0

>  <SCORE.INTER.ROT>
0

>  <SCORE.INTER.SOLV>
21.2111

>  <SCORE.INTER.VDW>
-18.2885

>  <SCORE.INTER.norm>
-1.03884

>  <SCORE.INTRA>
0

>  <SCORE.INTRA.DIHEDRAL>
0

>  <SCORE.INTRA.DIHEDRAL.0>
0

>  <SCORE.INTRA.POLAR>
0

>  <SCORE.INTRA.POLAR.0>
0

>  <SCORE.INTRA.REPUL>
0

>  <SCORE.INTRA.REPUL.0>
0

>  <SCORE.INTRA.SOLV>
0

>  <SCORE.INTRA.SOLV.lig_0>
-48.3454

>  <SCORE.INTRA.VDW>
0

>  <SCORE.INTRA.VDW.0>
0

>  <SCORE.INTRA.norm>
0

>  <SCORE.RESTR>
0

>  <SCORE.RESTR.CAVITY>
0

>  <SCORE.RESTR.norm>
0

>  <SCORE.SYSTEM>
0

>  <SCORE.SYSTEM.CONST>
0

>  <SCORE.SYSTEM.DIHEDRAL>
0

>  <SCORE.SYSTEM.SOLV>
0

>  <SCORE.SYSTEM.norm>
0

>  <SCORE.heavy>
11

>  <SCORE.norm>
-1.03884

>  <RMSD>
0.615

$$$$
ligand
 OpenBabel02271912153D
libRbt.so/2013.1/901 2013/11/27
 11 12  0  0  0  0  0  0  0  0999 V2000
  -11.8453  -12.7665    8.8506 N   0  0  0  0  0  0  0  0  0  0  0  0
  -11.5132  -14.0646    8.9368 C   0  0  0  0  0  0  0  0  0  0  0  0
  -11.5364  -14.6752   10.1182 N   0  0  0  0  0  0  0  0  0  0  0  0
  -11.1477  -14.7498    7.8422 N   0  0  0  0  0  0  0  0  0  0  0  0
  -11.1041  -14.1513    6.6428 C   0  0  0  0  0  0  0  0  0  0  0  0
  -11.4426  -12.8091    6.5257 C   0  0  0  0  0  0  0  0  0  0  0  0
  -11.8206  -12.1210    7.6739 C   0  0  0  0  0  0  0  0  0  0  0  0
  -12.1619  -10.8377    7.6059 N   0  0  0  0  0  0  0  0  0  0  0  0
  -11.3006  -12.4706    5.2477 N   0  0  0  0  0  0  0  0  0  0  0  0
  -10.8900  -13.5489    4.5840 C   0  0  0  0  0  0  0  0  0  0  0  0
  -10.7695  -14.5726    5.4266 N   0  0  0  0  0  0  0  0  0  0  0  0
  1  7  2  0  0  0  0
  1  2  1  0  0  0  0
  2  3  1  0  0  0  0
  2  4  2  0  0  0  0
  4  5  1  0  0  0  0
  5  6  2  0  0  0  0
  5 11  1  0  0  0  0
  6  7  1  0  0  0  0
  6  9  1  0  0  0  0
  7  8  1  0  0  0  0
  9 10  1  0  0  0  0
 10 11  2  0  0  0  0
M  END
>  <CHROM.1>
-11.41598193,-13.34273415,7.24739782,2.01935443,-1.25995158,2.13659943

>  <Name>
ligand

>  <RI>
0

>  <Rbt.Current_Directory>
/home/itssahil/PROJECTS/Mol_Feturizer/Test_systems_manuscript/rnas/2b57

>  <Rbt.Executable>
rbdock ($Id: //depot/dev/client3/rdock/2013.1/src/exe/rbdock.cxx#4 $)

>  <Rbt.Library>
libRbt.so (2013.1, Build901 2013/11/27)

>  <Rbt.Parameter_File>
/export/apps/rDock/src/rDock_2013.1_src/data/scripts/dock_solv.prm

>  <Rbt.Receptor>
prm/pocket_docking_3.prm

>  <SCORE>
-11.5502

>  <SCORE.INTER>
-11.5502

>  <SCORE.INTER.CONST>
1

>  <SCORE.INTER.POLAR>
0

>  <SCORE.INTER.ROT>
0

>  <SCORE.INTER.SOLV>
21.6107

>  <SCORE.INTER.VDW>
-18.5037

>  <SCORE.INTER.norm>
-1.05002

>  <SCORE.INTRA>
0

>  <SCORE.INTRA.DIHEDRAL>
0

>  <SCORE.INTRA.DIHEDRAL.0>
0

>  <SCORE.INTRA.POLAR>
0

>  <SCORE.INTRA.POLAR.0>
0

>  <SCORE.INTRA.REPUL>
0

>  <SCORE.INTRA.REPUL.0>
0

>  <SCORE.INTRA.SOLV>
0

>  <SCORE.INTRA.SOLV.lig_0>
-48.3454

>  <SCORE.INTRA.VDW>
0

>  <SCORE.INTRA.VDW.0>
0

>  <SCORE.INTRA.norm>
0

>  <SCORE.RESTR>
0

>  <SCORE.RESTR.CAVITY>
0

>  <SCORE.RESTR.norm>
0

>  <SCORE.SYSTEM>
0

>  <SCORE.SYSTEM.CONST>
0

>  <SCORE.SYSTEM.DIHEDRAL>
0

>  <SCORE.SYSTEM.SOLV>
0

>  <SCORE.SYSTEM.norm>
0

>  <SCORE.heavy>
11

>  <SCORE.norm>
-1.05002

>  <RMSD>
0.616

$$$$
ligand
 OpenBabel02271912153D
libRbt.so/2013.1/901 2013/11/27
 11 12  0  0  0  0  0  0  0  0999 V2000
  -11.8473  -12.7673    8.8491 N   0  0  0  0  0  0  0  0  0  0  0  0
  -11.5110  -14.0641    8.9386 C   0  0  0  0  0  0  0  0  0  0  0  0
  -11.5343  -14.6723   10.1212 N   0  0  0  0  0  0  0  0  0  0  0  0
  -11.1411  -14.7503    7.8462 N   0  0  0  0  0  0  0  0  0  0  0  0
  -11.0972  -14.1542    6.6455 C   0  0  0  0  0  0  0  0  0  0  0  0
  -11.4401  -12.8134    6.5249 C   0  0  0  0  0  0  0  0  0  0  0  0
  -11.8226  -12.1242    7.6710 C   0  0  0  0  0  0  0  0  0  0  0  0
  -12.1681  -10.8422    7.5996 N   0  0  0  0  0  0  0  0  0  0  0  0
  -11.2968  -12.4771    5.2465 N   0  0  0  0  0  0  0  0  0  0  0  0
  -10.8813  -13.5555    4.5858 C   0  0  0  0  0  0  0  0  0  0  0  0
  -10.7589  -14.5770    5.4308 N   0  0  0  0  0  0  0  0  0  0  0  0
  1  7  2  0  0  0  0
  1  2  1  0  0  0  0
  2  3  1  0  0  0  0
  2  4  2  0  0  0  0
  4  5  1  0  0  0  0
  5  6  2  0  0  0  0
  5 11  1  0  0  0  0
  6  7  1  0  0  0  0
  6  9  1  0  0  0  0
  7  8  1  0  0  0  0
  9 10  1  0  0  0  0
 10 11  2  0  0  0  0
M  END
>  <CHROM.1>
-11.41304163,-13.34543199,7.24783428,2.01860043,-1.25606794,2.13377161

>  <Name>
ligand

>  <RI>
0

>  <Rbt.Current_Directory>
/home/itssahil/PROJECTS/Mol_Feturizer/Test_systems_manuscript/rnas/2b57

>  <Rbt.Executable>
rbdock ($Id: //depot/dev/client3/rdock/2013.1/src/exe/rbdock.cxx#4 $)

>  <Rbt.Library>
libRbt.so (2013.1, Build901 2013/11/27)

>  <Rbt.Parameter_File>
/export/apps/rDock/src/rDock_2013.1_src/data/scripts/dock_solv.prm

>  <Rbt.Receptor>
prm/pocket_docking_3.prm

>  <SCORE>
-11.5531

>  <SCORE.INTER>
-11.5531

>  <SCORE.INTER.CONST>
1

>  <SCORE.INTER.POLAR>
0

>  <SCORE.INTER.ROT>
0

>  <SCORE.INTER.SOLV>
21.573

>  <SCORE.INTER.VDW>
-18.4931

>  <SCORE.INTER.norm>
-1.05028

>  <SCORE.INTRA>
0

>  <SCORE.INTRA.DIHEDRAL>
0

>  <SCORE.INTRA.DIHEDRAL.0>
0

>  <SCORE.INTRA.POLAR>
0

>  <SCORE.INTRA.POLAR.0>
0

>  <SCORE.INTRA.REPUL>
0

>  <SCORE.INTRA.REPUL.0>
0

>  <SCORE.INTRA.SOLV>
0

>  <SCORE.INTRA.SOLV.lig_0>
-48.3454

>  <SCORE.INTRA.VDW>
0

>  <SCORE.INTRA.VDW.0>
0

>  <SCORE.INTRA.norm>
0

>  <SCORE.RESTR>
0

>  <SCORE.RESTR.CAVITY>
0

>  <SCORE.RESTR.norm>
0

>  <SCORE.SYSTEM>
0

>  <SCORE.SYSTEM.CONST>
0

>  <SCORE.SYSTEM.DIHEDRAL>
0

>  <SCORE.SYSTEM.SOLV>
0

>  <SCORE.SYSTEM.norm>
0

>  <SCORE.heavy>
11

>  <SCORE.norm>
-1.05028

>  <RMSD>
0.616

$$$$
ligand
 OpenBabel02271912153D
libRbt.so/2013.1/901 2013/11/27
 11 12  0  0  0  0  0  0  0  0999 V2000
  -11.8428  -12.7904    8.8565 N   0  0  0  0  0  0  0  0  0  0  0  0
  -11.5057  -14.0869    8.9467 C   0  0  0  0  0  0  0  0  0  0  0  0
  -11.5343  -14.6960   10.1287 N   0  0  0  0  0  0  0  0  0  0  0  0
  -11.1300  -14.7720    7.8556 N   0  0  0  0  0  0  0  0  0  0  0  0
  -11.0809  -14.1749    6.6556 C   0  0  0  0  0  0  0  0  0  0  0  0
  -11.4243  -12.8344    6.5344 C   0  0  0  0  0  0  0  0  0  0  0  0
  -11.8129  -12.1463    7.6791 C   0  0  0  0  0  0  0  0  0  0  0  0
  -12.1592  -10.8645    7.6070 N   0  0  0  0  0  0  0  0  0  0  0  0
  -11.2751  -12.4970    5.2569 N   0  0  0  0  0  0  0  0  0  0  0  0
  -10.8555  -13.5745    4.5974 C   0  0  0  0  0  0  0  0  0  0  0  0
  -10.7363  -14.5965    5.4422 N   0  0  0  0  0  0  0  0  0  0  0  0
  1  7  2  0  0  0  0
  1  2  1  0  0  0  0
  2  3  1  0  0  0  0
  2  4  2  0  0  0  0
  4  5  1  0  0  0  0
  5  6  2  0  0  0  0
  5 11  1  0  0  0  0
  6  7  1  0  0  0  0
  6  9  1  0  0  0  0
  7  8  1  0  0  0  0
  9 10  1  0  0  0  0
 10 11  2  0  0  0  0
M  END
>  <CHROM.1>
-11.40026286,-13.36690149,7.25700185,2.03017482,-1.25274945,2.14552585

>  <Name>
ligand

>  <RI>
0

>  <Rbt.Current_Directory>
/home/itssahil/PROJECTS/Mol_Feturizer/Test_systems_manuscript/rnas/2b57

>  <Rbt.Executable>
rbdock ($Id: //depot/dev/client3/rdock/2013.1/src/exe/rbdock.cxx#4 $)

>  <Rbt.Library>
libRbt.so (2013.1, Build901 2013/11/27)

>  <Rbt.Parameter_File>
/export/apps/rDock/src/rDock_2013.1_src/data/scripts/dock_solv.prm

>  <Rbt.Receptor>
prm/pocket_docking_5.prm

>  <SCORE>
-11.5605

>  <SCORE.INTER>
-11.5605

>  <SCORE.INTER.CONST>
1

>  <SCORE.INTER.POLAR>
0

>  <SCORE.INTER.ROT>
0

>  <SCORE.INTER.SOLV>
21.614

>  <SCORE.INTER.VDW>
-18.5117

>  <SCORE.INTER.norm>
-1.05096

>  <SCORE.INTRA>
0

>  <SCORE.INTRA.DIHEDRAL>
0

>  <SCORE.INTRA.DIHEDRAL.0>
0

>  <SCORE.INTRA.POLAR>
0

>  <SCORE.INTRA.POLAR.0>
0

>  <SCORE.INTRA.REPUL>
0

>  <SCORE.INTRA.REPUL.0>
0

>  <SCORE.INTRA.SOLV>
0

>  <SCORE.INTRA.SOLV.lig_0>
-48.3454

>  <SCORE.INTRA.VDW>
0

>  <SCORE.INTRA.VDW.0>
0

>  <SCORE.INTRA.norm>
0

>  <SCORE.RESTR>
0

>  <SCORE.RESTR.CAVITY>
0

>  <SCORE.RESTR.norm>
0

>  <SCORE.SYSTEM>
0

>  <SCORE.SYSTEM.CONST>
0

>  <SCORE.SYSTEM.DIHEDRAL>
0

>  <SCORE.SYSTEM.SOLV>
0

>  <SCORE.SYSTEM.norm>
0

>  <SCORE.heavy>
11

>  <SCORE.norm>
-1.05096

>  <RMSD>
0.616

$$$$
ligand
 OpenBabel02271912153D
libRbt.so/2013.1/901 2013/11/27
 11 12  0  0  0  0  0  0  0  0999 V2000
  -11.8482  -12.7679    8.8503 N   0  0  0  0  0  0  0  0  0  0  0  0
  -11.5127  -14.0650    8.9386 C   0  0  0  0  0  0  0  0  0  0  0  0
  -11.5360  -14.6742   10.1206 N   0  0  0  0  0  0  0  0  0  0  0  0
  -11.1438  -14.7505    7.8454 N   0  0  0  0  0  0  0  0  0  0  0  0
  -11.1000  -14.1533    6.6452 C   0  0  0  0  0  0  0  0  0  0  0  0
  -11.4421  -12.8122    6.5260 C   0  0  0  0  0  0  0  0  0  0  0  0
  -11.8235  -12.1238    7.6729 C   0  0  0  0  0  0  0  0  0  0  0  0
  -12.1682  -10.8414    7.6028 N   0  0  0  0  0  0  0  0  0  0  0  0
  -11.2991  -12.4748    5.2478 N   0  0  0  0  0  0  0  0  0  0  0  0
  -10.8846  -13.5529    4.5860 C   0  0  0  0  0  0  0  0  0  0  0  0
  -10.7625  -14.5752    5.4300 N   0  0  0  0  0  0  0  0  0  0  0  0
  1  7  2  0  0  0  0
  1  2  1  0  0  0  0
  2  3  1  0  0  0  0
  2  4  2  0  0  0  0
  4  5  1  0  0  0  0
  5  6  2  0  0  0  0
  5 11  1  0  0  0  0
  6  7  1  0  0  0  0
  6  9  1  0  0  0  0
  7  8  1  0  0  0  0
  9 10  1  0  0  0  0
 10 11  2  0  0  0  0
M  END
>  <CHROM.1>
-11.41502065,-13.34487816,7.24840675,2.01859337,-1.25687640,2.13466369

>  <Name>
ligand

>  <RI>
0

>  <Rbt.Current_Directory>
/home/itssahil/PROJECTS/Mol_Feturizer/Test_systems_manuscript/rnas/2b57

>  <Rbt.Executable>
rbdock ($Id: //depot/dev/client3/rdock/2013.1/src/exe/rbdock.cxx#4 $)

>  <Rbt.Library>
libRbt.so (2013.1, Build901 2013/11/27)

>  <Rbt.Parameter_File>
/export/apps/rDock/src/rDock_2013.1_src/data/scripts/dock_solv.prm

>  <Rbt.Receptor>
prm/pocket_docking_5.prm

>  <SCORE>
-11.5521

>  <SCORE.INTER>
-11.5521

>  <SCORE.INTER.CONST>
1

>  <SCORE.INTER.POLAR>
0

>  <SCORE.INTER.ROT>
0

>  <SCORE.INTER.SOLV>
21.58

>  <SCORE.INTER.VDW>
-18.4947

>  <SCORE.INTER.norm>
-1.05019

>  <SCORE.INTRA>
0

>  <SCORE.INTRA.DIHEDRAL>
0

>  <SCORE.INTRA.DIHEDRAL.0>
0

>  <SCORE.INTRA.POLAR>
0

>  <SCORE.INTRA.POLAR.0>
0

>  <SCORE.INTRA.REPUL>
0

>  <SCORE.INTRA.REPUL.0>
0

>  <SCORE.INTRA.SOLV>
0

>  <SCORE.INTRA.SOLV.lig_0>
-48.3454

>  <SCORE.INTRA.VDW>
0

>  <SCORE.INTRA.VDW.0>
0

>  <SCORE.INTRA.norm>
0

>  <SCORE.RESTR>
0

>  <SCORE.RESTR.CAVITY>
0

>  <SCORE.RESTR.norm>
0

>  <SCORE.SYSTEM>
0

>  <SCORE.SYSTEM.CONST>
0

>  <SCORE.SYSTEM.DIHEDRAL>
0

>  <SCORE.SYSTEM.SOLV>
0

>  <SCORE.SYSTEM.norm>
0

>  <SCORE.heavy>
11

>  <SCORE.norm>
-1.05019

>  <RMSD>
0.616

$$$$
ligand
 OpenBabel02271912153D
libRbt.so/2013.1/901 2013/11/27
 11 12  0  0  0  0  0  0  0  0999 V2000
  -11.8557  -12.7712    8.8459 N   0  0  0  0  0  0  0  0  0  0  0  0
  -11.4757  -14.0559    8.9347 C   0  0  0  0  0  0  0  0  0  0  0  0
  -11.4799  -14.6656   10.1167 N   0  0  0  0  0  0  0  0  0  0  0  0
  -11.0812  -14.7281    7.8422 N   0  0  0  0  0  0  0  0  0  0  0  0
  -11.0560  -14.1298    6.6421 C   0  0  0  0  0  0  0  0  0  0  0  0
  -11.4441  -12.8013    6.5223 C   0  0  0  0  0  0  0  0  0  0  0  0
  -11.8513  -12.1266    7.6684 C   0  0  0  0  0  0  0  0  0  0  0  0
  -12.2400  -10.8569    7.5977 N   0  0  0  0  0  0  0  0  0  0  0  0
  -11.3106  -12.4592    5.2444 N   0  0  0  0  0  0  0  0  0  0  0  0
  -10.8578  -13.5222    4.5833 C   0  0  0  0  0  0  0  0  0  0  0  0
  -10.7019  -14.5397    5.4275 N   0  0  0  0  0  0  0  0  0  0  0  0
  1  7  2  0  0  0  0
  1  2  1  0  0  0  0
  2  3  1  0  0  0  0
  2  4  2  0  0  0  0
  4  5  1  0  0  0  0
  5  6  2  0  0  0  0
  5 11  1  0  0  0  0
  6  7  1  0  0  0  0
  6  9  1  0  0  0  0
  7  8  1  0  0  0  0
  9 10  1  0  0  0  0
 10 11  2  0  0  0  0
M  END
>  <CHROM.1>
-11.39991232,-13.33277348,7.24472705,1.96828222,-1.22621954,2.08706130

>  <Name>
ligand

>  <RI>
0

>  <Rbt.Current_Directory>
/home/itssahil/PROJECTS/Mol_Feturizer/Test_systems_manuscript/rnas/2b57

>  <Rbt.Executable>
rbdock ($Id: //depot/dev/client3/rdock/2013.1/src/exe/rbdock.cxx#4 $)

>  <Rbt.Library>
libRbt.so (2013.1, Build901 2013/11/27)

>  <Rbt.Parameter_File>
/export/apps/rDock/src/rDock_2013.1_src/data/scripts/dock_solv.prm

>  <Rbt.Receptor>
prm/pocket_docking_7.prm

>  <SCORE>
-11.4784

>  <SCORE.INTER>
-11.4784

>  <SCORE.INTER.CONST>
1

>  <SCORE.INTER.POLAR>
0

>  <SCORE.INTER.ROT>
0

>  <SCORE.INTER.SOLV>
21.3134

>  <SCORE.INTER.VDW>
-18.3567

>  <SCORE.INTER.norm>
-1.04349

>  <SCORE.INTRA>
0

>  <SCORE.INTRA.DIHEDRAL>
0

>  <SCORE.INTRA.DIHEDRAL.0>
0

>  <SCORE.INTRA.POLAR>
0

>  <SCORE.INTRA.POLAR.0>
0

>  <SCORE.INTRA.REPUL>
0

>  <SCORE.INTRA.REPUL.0>
0

>  <SCORE.INTRA.SOLV>
0

>  <SCORE.INTRA.SOLV.lig_0>
-48.3454

>  <SCORE.INTRA.VDW>
0

>  <SCORE.INTRA.VDW.0>
0

>  <SCORE.INTRA.norm>
0

>  <SCORE.RESTR>
0

>  <SCORE.RESTR.CAVITY>
0

>  <SCORE.RESTR.norm>
0

>  <SCORE.SYSTEM>
0

>  <SCORE.SYSTEM.CONST>
0

>  <SCORE.SYSTEM.DIHEDRAL>
0

>  <SCORE.SYSTEM.SOLV>
0

>  <SCORE.SYSTEM.norm>
0

>  <SCORE.heavy>
11

>  <SCORE.norm>
-1.04349

>  <RMSD>
0.616

$$$$
ligand
 OpenBabel02271912153D
libRbt.so/2013.1/901 2013/11/27
 11 12  0  0  0  0  0  0  0  0999 V2000
  -11.8329  -12.7607    8.8507 N   0  0  0  0  0  0  0  0  0  0  0  0
  -11.4671  -14.0501    8.9309 C   0  0  0  0  0  0  0  0  0  0  0  0
  -11.4793  -14.6679   10.1087 N   0  0  0  0  0  0  0  0  0  0  0  0
  -11.0789  -14.7190    7.8341 N   0  0  0  0  0  0  0  0  0  0  0  0
  -11.0459  -14.1126    6.6383 C   0  0  0  0  0  0  0  0  0  0  0  0
  -11.4192  -12.7792    6.5273 C   0  0  0  0  0  0  0  0  0  0  0  0
  -11.8201  -12.1080    7.6777 C   0  0  0  0  0  0  0  0  0  0  0  0
  -12.1948  -10.8337    7.6155 N   0  0  0  0  0  0  0  0  0  0  0  0
  -11.2806  -12.4296    5.2519 N   0  0  0  0  0  0  0  0  0  0  0  0
  -10.8389  -13.4929    4.5839 C   0  0  0  0  0  0  0  0  0  0  0  0
  -10.6950  -14.5180    5.4212 N   0  0  0  0  0  0  0  0  0  0  0  0
  1  7  2  0  0  0  0
  1  2  1  0  0  0  0
  2  3  1  0  0  0  0
  2  4  2  0  0  0  0
  4  5  1  0  0  0  0
  5  6  2  0  0  0  0
  5 11  1  0  0  0  0
  6  7  1  0  0  0  0
  6  9  1  0  0  0  0
  7  8  1  0  0  0  0
  9 10  1  0  0  0  0
 10 11  2  0  0  0  0
M  END
>  <CHROM.1>
-11.38164294,-13.31609472,7.24610120,1.98752930,-1.23521393,2.11216120

>  <Name>
ligand

>  <RI>
0

>  <Rbt.Current_Directory>
/home/itssahil/PROJECTS/Mol_Feturizer/Test_systems_manuscript/rnas/2b57

>  <Rbt.Executable>
rbdock ($Id: //depot/dev/client3/rdock/2013.1/src/exe/rbdock.cxx#4 $)

>  <Rbt.Library>
libRbt.so (2013.1, Build901 2013/11/27)

>  <Rbt.Parameter_File>
/export/apps/rDock/src/rDock_2013.1_src/data/scripts/dock_solv.prm

>  <Rbt.Receptor>
prm/pocket_docking_8.prm

>  <SCORE>
-11.4798

>  <SCORE.INTER>
-11.4798

>  <SCORE.INTER.CONST>
1

>  <SCORE.INTER.POLAR>
0

>  <SCORE.INTER.ROT>
0

>  <SCORE.INTER.SOLV>
21.4765

>  <SCORE.INTER.VDW>
-18.412

>  <SCORE.INTER.norm>
-1.04362

>  <SCORE.INTRA>
0

>  <SCORE.INTRA.DIHEDRAL>
0

>  <SCORE.INTRA.DIHEDRAL.0>
0

>  <SCORE.INTRA.POLAR>
0

>  <SCORE.INTRA.POLAR.0>
0

>  <SCORE.INTRA.REPUL>
0

>  <SCORE.INTRA.REPUL.0>
0

>  <SCORE.INTRA.SOLV>
0

>  <SCORE.INTRA.SOLV.lig_0>
-48.3454

>  <SCORE.INTRA.VDW>
0

>  <SCORE.INTRA.VDW.0>
0

>  <SCORE.INTRA.norm>
0

>  <SCORE.RESTR>
0

>  <SCORE.RESTR.CAVITY>
0

>  <SCORE.RESTR.norm>
0

>  <SCORE.SYSTEM>
0

>  <SCORE.SYSTEM.CONST>
0

>  <SCORE.SYSTEM.DIHEDRAL>
0

>  <SCORE.SYSTEM.SOLV>
0

>  <SCORE.SYSTEM.norm>
0

>  <SCORE.heavy>
11

>  <SCORE.norm>
-1.04362

>  <RMSD>
0.616

$$$$
ligand
 OpenBabel02271912153D
libRbt.so/2013.1/901 2013/11/27
 11 12  0  0  0  0  0  0  0  0999 V2000
  -11.8367  -12.7624    8.8497 N   0  0  0  0  0  0  0  0  0  0  0  0
  -11.4755  -14.0529    8.9320 C   0  0  0  0  0  0  0  0  0  0  0  0
  -11.4918  -14.6695   10.1103 N   0  0  0  0  0  0  0  0  0  0  0  0
  -11.0877  -14.7243    7.8365 N   0  0  0  0  0  0  0  0  0  0  0  0
  -11.0505  -14.1193    6.6401 C   0  0  0  0  0  0  0  0  0  0  0  0
  -11.4190  -12.7848    6.5271 C   0  0  0  0  0  0  0  0  0  0  0  0
  -11.8196  -12.1109    7.6761 C   0  0  0  0  0  0  0  0  0  0  0  0
  -12.1899  -10.8354    7.6118 N   0  0  0  0  0  0  0  0  0  0  0  0
  -11.2770  -12.4370    5.2516 N   0  0  0  0  0  0  0  0  0  0  0  0
  -10.8378  -13.5026    4.5854 C   0  0  0  0  0  0  0  0  0  0  0  0
  -10.6989  -14.5272    5.4241 N   0  0  0  0  0  0  0  0  0  0  0  0
  1  7  2  0  0  0  0
  1  2  1  0  0  0  0
  2  3  1  0  0  0  0
  2  4  2  0  0  0  0
  4  5  1  0  0  0  0
  5  6  2  0  0  0  0
  5 11  1  0  0  0  0
  6  7  1  0  0  0  0
  6  9  1  0  0  0  0
  7  8  1  0  0  0  0
  9 10  1  0  0  0  0
 10 11  2  0  0  0  0
M  END
>  <CHROM.1>
-11.38455166,-13.32102029,7.24648975,1.99750270,-1.23724619,2.12052072

>  <Name>
ligand

>  <RI>
0

>  <Rbt.Current_Directory>
/home/itssahil/PROJECTS/Mol_Feturizer/Test_systems_manuscript/rnas/2b57

>  <Rbt.Executable>
rbdock ($Id: //depot/dev/client3/rdock/2013.1/src/exe/rbdock.cxx#4 $)

>  <Rbt.Library>
libRbt.so (2013.1, Build901 2013/11/27)

>  <Rbt.Parameter_File>
/export/apps/rDock/src/rDock_2013.1_src/data/scripts/dock_solv.prm

>  <Rbt.Receptor>
prm/pocket_docking_8.prm

>  <SCORE>
-11.4858

>  <SCORE.INTER>
-11.4858

>  <SCORE.INTER.CONST>
1

>  <SCORE.INTER.POLAR>
0

>  <SCORE.INTER.ROT>
0

>  <SCORE.INTER.SOLV>
21.4912

>  <SCORE.INTER.VDW>
-18.4209

>  <SCORE.INTER.norm>
-1.04417

>  <SCORE.INTRA>
0

>  <SCORE.INTRA.DIHEDRAL>
0

>  <SCORE.INTRA.DIHEDRAL.0>
0

>  <SCORE.INTRA.POLAR>
0

>  <SCORE.INTRA.POLAR.0>
0

>  <SCORE.INTRA.REPUL>
0

>  <SCORE.INTRA.REPUL.0>
0

>  <SCORE.INTRA.SOLV>
0

>  <SCORE.INTRA.SOLV.lig_0>
-48.3454

>  <SCORE.INTRA.VDW>
0

>  <SCORE.INTRA.VDW.0>
0

>  <SCORE.INTRA.norm>
0

>  <SCORE.RESTR>
0

>  <SCORE.RESTR.CAVITY>
0

>  <SCORE.RESTR.norm>
0

>  <SCORE.SYSTEM>
0

>  <SCORE.SYSTEM.CONST>
0

>  <SCORE.SYSTEM.DIHEDRAL>
0

>  <SCORE.SYSTEM.SOLV>
0

>  <SCORE.SYSTEM.norm>
0

>  <SCORE.heavy>
11

>  <SCORE.norm>
-1.04417

>  <RMSD>
0.616

$$$$
ligand
 OpenBabel02271912153D
libRbt.so/2013.1/901 2013/11/27
 11 12  0  0  0  0  0  0  0  0999 V2000
  -11.8041  -12.7282    8.8509 N   0  0  0  0  0  0  0  0  0  0  0  0
  -11.4304  -14.0148    8.9378 C   0  0  0  0  0  0  0  0  0  0  0  0
  -11.4255  -14.6227   10.1207 N   0  0  0  0  0  0  0  0  0  0  0  0
  -11.0516  -14.6910    7.8421 N   0  0  0  0  0  0  0  0  0  0  0  0
  -11.0359  -14.0946    6.6409 C   0  0  0  0  0  0  0  0  0  0  0  0
  -11.4176  -12.7642    6.5231 C   0  0  0  0  0  0  0  0  0  0  0  0
  -11.8086  -12.0853    7.6725 C   0  0  0  0  0  0  0  0  0  0  0  0
  -12.1909  -10.8136    7.6039 N   0  0  0  0  0  0  0  0  0  0  0  0
  -11.2959  -12.4247    5.2433 N   0  0  0  0  0  0  0  0  0  0  0  0
  -10.8563  -13.4913    4.5791 C   0  0  0  0  0  0  0  0  0  0  0  0
  -10.6971  -14.5084    5.4233 N   0  0  0  0  0  0  0  0  0  0  0  0
  1  7  2  0  0  0  0
  1  2  1  0  0  0  0
  2  3  1  0  0  0  0
  2  4  2  0  0  0  0
  4  5  1  0  0  0  0
  5  6  2  0  0  0  0
  5 11  1  0  0  0  0
  6  7  1  0  0  0  0
  6  9  1  0  0  0  0
  7  8  1  0  0  0  0
  9 10  1  0  0  0  0
 10 11  2  0  0  0  0
M  END
>  <CHROM.1>
-11.36871697,-13.29474185,7.24591870,1.94837802,-1.23640917,2.06672966

>  <Name>
ligand

>  <RI>
0

>  <Rbt.Current_Directory>
/home/itssahil/PROJECTS/Mol_Feturizer/Test_systems_manuscript/rnas/2b57

>  <Rbt.Executable>
rbdock ($Id: //depot/dev/client3/rdock/2013.1/src/exe/rbdock.cxx#4 $)

>  <Rbt.Library>
libRbt.so (2013.1, Build901 2013/11/27)

>  <Rbt.Parameter_File>
/export/apps/rDock/src/rDock_2013.1_src/data/scripts/dock_solv.prm

>  <Rbt.Receptor>
prm/pocket_docking_3.prm

>  <SCORE>
-11.4309

>  <SCORE.INTER>
-11.4309

>  <SCORE.INTER.CONST>
1

>  <SCORE.INTER.POLAR>
0

>  <SCORE.INTER.ROT>
0

>  <SCORE.INTER.SOLV>
21.461

>  <SCORE.INTER.VDW>
-18.3743

>  <SCORE.INTER.norm>
-1.03917

>  <SCORE.INTRA>
0

>  <SCORE.INTRA.DIHEDRAL>
0

>  <SCORE.INTRA.DIHEDRAL.0>
0

>  <SCORE.INTRA.POLAR>
0

>  <SCORE.INTRA.POLAR.0>
0

>  <SCORE.INTRA.REPUL>
0

>  <SCORE.INTRA.REPUL.0>
0

>  <SCORE.INTRA.SOLV>
0

>  <SCORE.INTRA.SOLV.lig_0>
-48.3454

>  <SCORE.INTRA.VDW>
0

>  <SCORE.INTRA.VDW.0>
0

>  <SCORE.INTRA.norm>
0

>  <SCORE.RESTR>
0

>  <SCORE.RESTR.CAVITY>
0

>  <SCORE.RESTR.norm>
0

>  <SCORE.SYSTEM>
0

>  <SCORE.SYSTEM.CONST>
0

>  <SCORE.SYSTEM.DIHEDRAL>
0

>  <SCORE.SYSTEM.SOLV>
0

>  <SCORE.SYSTEM.norm>
0

>  <SCORE.heavy>
11

>  <SCORE.norm>
-1.03917

>  <RMSD>
0.617

$$$$
ligand
 OpenBabel02271912153D
libRbt.so/2013.1/901 2013/11/27
 11 12  0  0  0  0  0  0  0  0999 V2000
  -11.8155  -12.7005    8.8398 N   0  0  0  0  0  0  0  0  0  0  0  0
  -11.4640  -13.9927    8.9362 C   0  0  0  0  0  0  0  0  0  0  0  0
  -11.4708  -14.5922   10.1234 N   0  0  0  0  0  0  0  0  0  0  0  0
  -11.0956  -14.6830    7.8458 N   0  0  0  0  0  0  0  0  0  0  0  0
  -11.0684  -14.0955    6.6404 C   0  0  0  0  0  0  0  0  0  0  0  0
  -11.4271  -12.7596    6.5128 C   0  0  0  0  0  0  0  0  0  0  0  0
  -11.8076  -12.0660    7.6568 C   0  0  0  0  0  0  0  0  0  0  0  0
  -12.1680  -10.7884    7.5788 N   0  0  0  0  0  0  0  0  0  0  0  0
  -11.2982  -12.4314    5.2307 N   0  0  0  0  0  0  0  0  0  0  0  0
  -10.8763  -13.5100    4.5746 C   0  0  0  0  0  0  0  0  0  0  0  0
  -10.7355  -14.5237    5.4261 N   0  0  0  0  0  0  0  0  0  0  0  0
  1  7  2  0  0  0  0
  1  2  1  0  0  0  0
  2  3  1  0  0  0  0
  2  4  2  0  0  0  0
  4  5  1  0  0  0  0
  5  6  2  0  0  0  0
  5 11  1  0  0  0  0
  6  7  1  0  0  0  0
  6  9  1  0  0  0  0
  7  8  1  0  0  0  0
  9 10  1  0  0  0  0
 10 11  2  0  0  0  0
M  END
>  <CHROM.1>
-11.38811908,-13.28581661,7.23934105,1.97738564,-1.25087555,2.08711944

>  <Name>
ligand

>  <RI>
0

>  <Rbt.Current_Directory>
/home/itssahil/PROJECTS/Mol_Feturizer/Test_systems_manuscript/rnas/2b57

>  <Rbt.Executable>
rbdock ($Id: //depot/dev/client3/rdock/2013.1/src/exe/rbdock.cxx#4 $)

>  <Rbt.Library>
libRbt.so (2013.1, Build901 2013/11/27)

>  <Rbt.Parameter_File>
/export/apps/rDock/src/rDock_2013.1_src/data/scripts/dock_solv.prm

>  <Rbt.Receptor>
prm/pocket_docking_3.prm

>  <SCORE>
-11.4277

>  <SCORE.INTER>
-11.4277

>  <SCORE.INTER.CONST>
1

>  <SCORE.INTER.POLAR>
0

>  <SCORE.INTER.ROT>
0

>  <SCORE.INTER.SOLV>
21.5237

>  <SCORE.INTER.VDW>
-18.393

>  <SCORE.INTER.norm>
-1.03888

>  <SCORE.INTRA>
0

>  <SCORE.INTRA.DIHEDRAL>
0

>  <SCORE.INTRA.DIHEDRAL.0>
0

>  <SCORE.INTRA.POLAR>
0

>  <SCORE.INTRA.POLAR.0>
0

>  <SCORE.INTRA.REPUL>
0

>  <SCORE.INTRA.REPUL.0>
0

>  <SCORE.INTRA.SOLV>
0

>  <SCORE.INTRA.SOLV.lig_0>
-48.3454

>  <SCORE.INTRA.VDW>
0

>  <SCORE.INTRA.VDW.0>
0

>  <SCORE.INTRA.norm>
0

>  <SCORE.RESTR>
0

>  <SCORE.RESTR.CAVITY>
0

>  <SCORE.RESTR.norm>
0

>  <SCORE.SYSTEM>
0

>  <SCORE.SYSTEM.CONST>
0

>  <SCORE.SYSTEM.DIHEDRAL>
0

>  <SCORE.SYSTEM.SOLV>
0

>  <SCORE.SYSTEM.norm>
0

>  <SCORE.heavy>
11

>  <SCORE.norm>
-1.03888

>  <RMSD>
0.617

$$$$
ligand
 OpenBabel02271912153D
libRbt.so/2013.1/901 2013/11/27
 11 12  0  0  0  0  0  0  0  0999 V2000
  -11.8424  -12.7651    8.8481 N   0  0  0  0  0  0  0  0  0  0  0  0
  -11.4833  -14.0562    8.9304 C   0  0  0  0  0  0  0  0  0  0  0  0
  -11.5044  -14.6738   10.1082 N   0  0  0  0  0  0  0  0  0  0  0  0
  -11.0930  -14.7273    7.8357 N   0  0  0  0  0  0  0  0  0  0  0  0
  -11.0510  -14.1213    6.6399 C   0  0  0  0  0  0  0  0  0  0  0  0
  -11.4172  -12.7861    6.5268 C   0  0  0  0  0  0  0  0  0  0  0  0
  -11.8206  -12.1127    7.6751 C   0  0  0  0  0  0  0  0  0  0  0  0
  -12.1887  -10.8365    7.6107 N   0  0  0  0  0  0  0  0  0  0  0  0
  -11.2705  -12.4375    5.2521 N   0  0  0  0  0  0  0  0  0  0  0  0
  -10.8307  -13.5031    4.5865 C   0  0  0  0  0  0  0  0  0  0  0  0
  -10.6961  -14.5287    5.4247 N   0  0  0  0  0  0  0  0  0  0  0  0
  1  7  2  0  0  0  0
  1  2  1  0  0  0  0
  2  3  1  0  0  0  0
  2  4  2  0  0  0  0
  4  5  1  0  0  0  0
  5  6  2  0  0  0  0
  5 11  1  0  0  0  0
  6  7  1  0  0  0  0
  6  9  1  0  0  0  0
  7  8  1  0  0  0  0
  9 10  1  0  0  0  0
 10 11  2  0  0  0  0
M  END
>  <CHROM.1>
-11.38585620,-13.32303039,7.24590716,2.00830015,-1.23677758,2.13157348

>  <Name>
ligand

>  <RI>
0

>  <Rbt.Current_Directory>
/home/itssahil/PROJECTS/Mol_Feturizer/Test_systems_manuscript/rnas/2b57

>  <Rbt.Executable>
rbdock ($Id: //depot/dev/client3/rdock/2013.1/src/exe/rbdock.cxx#4 $)

>  <Rbt.Library>
libRbt.so (2013.1, Build901 2013/11/27)

>  <Rbt.Parameter_File>
/export/apps/rDock/src/rDock_2013.1_src/data/scripts/dock_solv.prm

>  <Rbt.Receptor>
prm/pocket_docking_4.prm

>  <SCORE>
-11.4898

>  <SCORE.INTER>
-11.4898

>  <SCORE.INTER.CONST>
1

>  <SCORE.INTER.POLAR>
0

>  <SCORE.INTER.ROT>
0

>  <SCORE.INTER.SOLV>
21.4946

>  <SCORE.INTER.VDW>
-18.4247

>  <SCORE.INTER.norm>
-1.04453

>  <SCORE.INTRA>
0

>  <SCORE.INTRA.DIHEDRAL>
0

>  <SCORE.INTRA.DIHEDRAL.0>
0

>  <SCORE.INTRA.POLAR>
0

>  <SCORE.INTRA.POLAR.0>
0

>  <SCORE.INTRA.REPUL>
0

>  <SCORE.INTRA.REPUL.0>
0

>  <SCORE.INTRA.SOLV>
0

>  <SCORE.INTRA.SOLV.lig_0>
-48.3454

>  <SCORE.INTRA.VDW>
0

>  <SCORE.INTRA.VDW.0>
0

>  <SCORE.INTRA.norm>
0

>  <SCORE.RESTR>
0

>  <SCORE.RESTR.CAVITY>
0

>  <SCORE.RESTR.norm>
0

>  <SCORE.SYSTEM>
0

>  <SCORE.SYSTEM.CONST>
0

>  <SCORE.SYSTEM.DIHEDRAL>
0

>  <SCORE.SYSTEM.SOLV>
0

>  <SCORE.SYSTEM.norm>
0

>  <SCORE.heavy>
11

>  <SCORE.norm>
-1.04453

>  <RMSD>
0.617

$$$$
ligand
 OpenBabel02271912153D
libRbt.so/2013.1/901 2013/11/27
 11 12  0  0  0  0  0  0  0  0999 V2000
  -11.8481  -12.7480    8.8431 N   0  0  0  0  0  0  0  0  0  0  0  0
  -11.5017  -14.0428    8.9222 C   0  0  0  0  0  0  0  0  0  0  0  0
  -11.5290  -14.6631   10.0984 N   0  0  0  0  0  0  0  0  0  0  0  0
  -11.1179  -14.7148    7.8258 N   0  0  0  0  0  0  0  0  0  0  0  0
  -11.0699  -14.1062    6.6315 C   0  0  0  0  0  0  0  0  0  0  0  0
  -11.4230  -12.7672    6.5219 C   0  0  0  0  0  0  0  0  0  0  0  0
  -11.8198  -12.0928    7.6719 C   0  0  0  0  0  0  0  0  0  0  0  0
  -12.1754  -10.8130    7.6107 N   0  0  0  0  0  0  0  0  0  0  0  0
  -11.2728  -12.4168    5.2480 N   0  0  0  0  0  0  0  0  0  0  0  0
  -10.8434  -13.4849    4.5797 C   0  0  0  0  0  0  0  0  0  0  0  0
  -10.7189  -14.5139    5.4153 N   0  0  0  0  0  0  0  0  0  0  0  0
  1  7  2  0  0  0  0
  1  2  1  0  0  0  0
  2  3  1  0  0  0  0
  2  4  2  0  0  0  0
  4  5  1  0  0  0  0
  5  6  2  0  0  0  0
  5 11  1  0  0  0  0
  6  7  1  0  0  0  0
  6  9  1  0  0  0  0
  7  8  1  0  0  0  0
  9 10  1  0  0  0  0
 10 11  2  0  0  0  0
M  END
>  <CHROM.1>
-11.39696785,-13.30626699,7.23955304,2.02478196,-1.24501806,2.14973896

>  <Name>
ligand

>  <RI>
0

>  <Rbt.Current_Directory>
/home/itssahil/PROJECTS/Mol_Feturizer/Test_systems_manuscript/rnas/2b57

>  <Rbt.Executable>
rbdock ($Id: //depot/dev/client3/rdock/2013.1/src/exe/rbdock.cxx#4 $)

>  <Rbt.Library>
libRbt.so (2013.1, Build901 2013/11/27)

>  <Rbt.Parameter_File>
/export/apps/rDock/src/rDock_2013.1_src/data/scripts/dock_solv.prm

>  <Rbt.Receptor>
prm/pocket_docking_4.prm

>  <SCORE>
-11.4623

>  <SCORE.INTER>
-11.4623

>  <SCORE.INTER.CONST>
1

>  <SCORE.INTER.POLAR>
0

>  <SCORE.INTER.ROT>
0

>  <SCORE.INTER.SOLV>
21.5556

>  <SCORE.INTER.VDW>
-18.4268

>  <SCORE.INTER.norm>
-1.04203

>  <SCORE.INTRA>
0

>  <SCORE.INTRA.DIHEDRAL>
0

>  <SCORE.INTRA.DIHEDRAL.0>
0

>  <SCORE.INTRA.POLAR>
0

>  <SCORE.INTRA.POLAR.0>
0

>  <SCORE.INTRA.REPUL>
0

>  <SCORE.INTRA.REPUL.0>
0

>  <SCORE.INTRA.SOLV>
0

>  <SCORE.INTRA.SOLV.lig_0>
-48.3454

>  <SCORE.INTRA.VDW>
0

>  <SCORE.INTRA.VDW.0>
0

>  <SCORE.INTRA.norm>
0

>  <SCORE.RESTR>
0

>  <SCORE.RESTR.CAVITY>
0

>  <SCORE.RESTR.norm>
0

>  <SCORE.SYSTEM>
0

>  <SCORE.SYSTEM.CONST>
0

>  <SCORE.SYSTEM.DIHEDRAL>
0

>  <SCORE.SYSTEM.SOLV>
0

>  <SCORE.SYSTEM.norm>
0

>  <SCORE.heavy>
11

>  <SCORE.norm>
-1.04203

>  <RMSD>
0.617

$$$$
ligand
 OpenBabel02271912153D
libRbt.so/2013.1/901 2013/11/27
 11 12  0  0  0  0  0  0  0  0999 V2000
  -11.8264  -12.7429    8.8442 N   0  0  0  0  0  0  0  0  0  0  0  0
  -11.4725  -14.0347    8.9366 C   0  0  0  0  0  0  0  0  0  0  0  0
  -11.4893  -14.6411   10.1202 N   0  0  0  0  0  0  0  0  0  0  0  0
  -11.0917  -14.7177    7.8459 N   0  0  0  0  0  0  0  0  0  0  0  0
  -11.0542  -14.1232    6.6442 C   0  0  0  0  0  0  0  0  0  0  0  0
  -11.4151  -12.7875    6.5208 C   0  0  0  0  0  0  0  0  0  0  0  0
  -11.8087  -12.1015    7.6651 C   0  0  0  0  0  0  0  0  0  0  0  0
  -12.1716  -10.8244    7.5909 N   0  0  0  0  0  0  0  0  0  0  0  0
  -11.2745  -12.4515    5.2420 N   0  0  0  0  0  0  0  0  0  0  0  0
  -10.8433  -13.5252    4.5838 C   0  0  0  0  0  0  0  0  0  0  0  0
  -10.7083  -14.5435    5.4308 N   0  0  0  0  0  0  0  0  0  0  0  0
  1  7  2  0  0  0  0
  1  2  1  0  0  0  0
  2  3  1  0  0  0  0
  2  4  2  0  0  0  0
  4  5  1  0  0  0  0
  5  6  2  0  0  0  0
  5 11  1  0  0  0  0
  6  7  1  0  0  0  0
  6  9  1  0  0  0  0
  7  8  1  0  0  0  0
  9 10  1  0  0  0  0
 10 11  2  0  0  0  0
M  END
>  <CHROM.1>
-11.38186955,-13.31778887,7.24467060,1.99987962,-1.24366562,2.11424453

>  <Name>
ligand

>  <RI>
0

>  <Rbt.Current_Directory>
/home/itssahil/PROJECTS/Mol_Feturizer/Test_systems_manuscript/rnas/2b57

>  <Rbt.Executable>
rbdock ($Id: //depot/dev/client3/rdock/2013.1/src/exe/rbdock.cxx#4 $)

>  <Rbt.Library>
libRbt.so (2013.1, Build901 2013/11/27)

>  <Rbt.Parameter_File>
/export/apps/rDock/src/rDock_2013.1_src/data/scripts/dock_solv.prm

>  <Rbt.Receptor>
prm/blind_docking_100.prm

>  <SCORE>
-11.4652

>  <SCORE.INTER>
-11.4652

>  <SCORE.INTER.CONST>
1

>  <SCORE.INTER.POLAR>
0

>  <SCORE.INTER.ROT>
0

>  <SCORE.INTER.SOLV>
21.5251

>  <SCORE.INTER.VDW>
-18.4185

>  <SCORE.INTER.norm>
-1.04229

>  <SCORE.INTRA>
0

>  <SCORE.INTRA.DIHEDRAL>
0

>  <SCORE.INTRA.DIHEDRAL.0>
0

>  <SCORE.INTRA.POLAR>
0

>  <SCORE.INTRA.POLAR.0>
0

>  <SCORE.INTRA.REPUL>
0

>  <SCORE.INTRA.REPUL.0>
0

>  <SCORE.INTRA.SOLV>
0

>  <SCORE.INTRA.SOLV.lig_0>
-48.3454

>  <SCORE.INTRA.VDW>
0

>  <SCORE.INTRA.VDW.0>
0

>  <SCORE.INTRA.norm>
0

>  <SCORE.RESTR>
0

>  <SCORE.RESTR.CAVITY>
0

>  <SCORE.RESTR.norm>
0

>  <SCORE.SYSTEM>
0

>  <SCORE.SYSTEM.CONST>
0

>  <SCORE.SYSTEM.DIHEDRAL>
0

>  <SCORE.SYSTEM.SOLV>
0

>  <SCORE.SYSTEM.norm>
0

>  <SCORE.heavy>
11

>  <SCORE.norm>
-1.04229

>  <RMSD>
0.618

$$$$
ligand
 OpenBabel02271912153D
libRbt.so/2013.1/901 2013/11/27
 11 12  0  0  0  0  0  0  0  0999 V2000
  -11.8735  -12.7109    8.8202 N   0  0  0  0  0  0  0  0  0  0  0  0
  -11.4757  -13.9888    8.9264 C   0  0  0  0  0  0  0  0  0  0  0  0
  -11.4833  -14.5863   10.1147 N   0  0  0  0  0  0  0  0  0  0  0  0
  -11.0602  -14.6665    7.8451 N   0  0  0  0  0  0  0  0  0  0  0  0
  -11.0313  -14.0802    6.6391 C   0  0  0  0  0  0  0  0  0  0  0  0
  -11.4374  -12.7590    6.5014 C   0  0  0  0  0  0  0  0  0  0  0  0
  -11.8662  -12.0784    7.6362 C   0  0  0  0  0  0  0  0  0  0  0  0
  -12.2727  -10.8154    7.5482 N   0  0  0  0  0  0  0  0  0  0  0  0
  -11.2956  -12.4281    5.2214 N   0  0  0  0  0  0  0  0  0  0  0  0
  -10.8206  -13.4911    4.5762 C   0  0  0  0  0  0  0  0  0  0  0  0
  -10.6586  -14.4975    5.4326 N   0  0  0  0  0  0  0  0  0  0  0  0
  1  7  2  0  0  0  0
  1  2  1  0  0  0  0
  2  3  1  0  0  0  0
  2  4  2  0  0  0  0
  4  5  1  0  0  0  0
  5  6  2  0  0  0  0
  5 11  1  0  0  0  0
  6  7  1  0  0  0  0
  6  9  1  0  0  0  0
  7  8  1  0  0  0  0
  9 10  1  0  0  0  0
 10 11  2  0  0  0  0
M  END
>  <CHROM.1>
-11.39297223,-13.28218282,7.22982206,1.97340010,-1.20841243,2.08144172

>  <Name>
ligand

>  <RI>
0

>  <Rbt.Current_Directory>
/home/itssahil/PROJECTS/Mol_Feturizer/Test_systems_manuscript/rnas/2b57

>  <Rbt.Executable>
rbdock ($Id: //depot/dev/client3/rdock/2013.1/src/exe/rbdock.cxx#4 $)

>  <Rbt.Library>
libRbt.so (2013.1, Build901 2013/11/27)

>  <Rbt.Parameter_File>
/export/apps/rDock/src/rDock_2013.1_src/data/scripts/dock_solv.prm

>  <Rbt.Receptor>
prm/blind_docking_60.prm

>  <SCORE>
-11.4224

>  <SCORE.INTER>
-11.4224

>  <SCORE.INTER.CONST>
1

>  <SCORE.INTER.POLAR>
0

>  <SCORE.INTER.ROT>
0

>  <SCORE.INTER.SOLV>
21.1703

>  <SCORE.INTER.VDW>
-18.2717

>  <SCORE.INTER.norm>
-1.0384

>  <SCORE.INTRA>
0

>  <SCORE.INTRA.DIHEDRAL>
0

>  <SCORE.INTRA.DIHEDRAL.0>
0

>  <SCORE.INTRA.POLAR>
0

>  <SCORE.INTRA.POLAR.0>
0

>  <SCORE.INTRA.REPUL>
0

>  <SCORE.INTRA.REPUL.0>
0

>  <SCORE.INTRA.SOLV>
0

>  <SCORE.INTRA.SOLV.lig_0>
-48.3454

>  <SCORE.INTRA.VDW>
0

>  <SCORE.INTRA.VDW.0>
0

>  <SCORE.INTRA.norm>
0

>  <SCORE.RESTR>
0

>  <SCORE.RESTR.CAVITY>
0

>  <SCORE.RESTR.norm>
0

>  <SCORE.SYSTEM>
0

>  <SCORE.SYSTEM.CONST>
0

>  <SCORE.SYSTEM.DIHEDRAL>
0

>  <SCORE.SYSTEM.SOLV>
0

>  <SCORE.SYSTEM.norm>
0

>  <SCORE.heavy>
11

>  <SCORE.norm>
-1.0384

>  <RMSD>
0.618

$$$$
ligand
 OpenBabel02271912153D
libRbt.so/2013.1/901 2013/11/27
 11 12  0  0  0  0  0  0  0  0999 V2000
  -11.8498  -12.7457    8.8414 N   0  0  0  0  0  0  0  0  0  0  0  0
  -11.4966  -14.0385    8.9223 C   0  0  0  0  0  0  0  0  0  0  0  0
  -11.5168  -14.6562   10.1000 N   0  0  0  0  0  0  0  0  0  0  0  0
  -11.1131  -14.7112    7.8261 N   0  0  0  0  0  0  0  0  0  0  0  0
  -11.0722  -14.1051    6.6303 C   0  0  0  0  0  0  0  0  0  0  0  0
  -11.4324  -12.7682    6.5188 C   0  0  0  0  0  0  0  0  0  0  0  0
  -11.8287  -12.0931    7.6685 C   0  0  0  0  0  0  0  0  0  0  0  0
  -12.1910  -10.8152    7.6056 N   0  0  0  0  0  0  0  0  0  0  0  0
  -11.2882  -12.4200    5.2436 N   0  0  0  0  0  0  0  0  0  0  0  0
  -10.8557  -13.4875    4.5763 C   0  0  0  0  0  0  0  0  0  0  0  0
  -10.7232  -14.5139    5.4139 N   0  0  0  0  0  0  0  0  0  0  0  0
  1  7  2  0  0  0  0
  1  2  1  0  0  0  0
  2  3  1  0  0  0  0
  2  4  2  0  0  0  0
  4  5  1  0  0  0  0
  5  6  2  0  0  0  0
  5 11  1  0  0  0  0
  6  7  1  0  0  0  0
  6  9  1  0  0  0  0
  7  8  1  0  0  0  0
  9 10  1  0  0  0  0
 10 11  2  0  0  0  0
M  END
>  <CHROM.1>
-11.40121711,-13.30542639,7.23760588,2.00747349,-1.24255894,2.13101674

>  <Name>
ligand

>  <RI>
0

>  <Rbt.Current_Directory>
/home/itssahil/PROJECTS/Mol_Feturizer/Test_systems_manuscript/rnas/2b57

>  <Rbt.Executable>
rbdock ($Id: //depot/dev/client3/rdock/2013.1/src/exe/rbdock.cxx#4 $)

>  <Rbt.Library>
libRbt.so (2013.1, Build901 2013/11/27)

>  <Rbt.Parameter_File>
/export/apps/rDock/src/rDock_2013.1_src/data/scripts/dock_solv.prm

>  <Rbt.Receptor>
prm/pocket_docking_4.prm

>  <SCORE>
-11.4698

>  <SCORE.INTER>
-11.4698

>  <SCORE.INTER.CONST>
1

>  <SCORE.INTER.POLAR>
0

>  <SCORE.INTER.ROT>
0

>  <SCORE.INTER.SOLV>
21.4955

>  <SCORE.INTER.VDW>
-18.4117

>  <SCORE.INTER.norm>
-1.04271

>  <SCORE.INTRA>
0

>  <SCORE.INTRA.DIHEDRAL>
0

>  <SCORE.INTRA.DIHEDRAL.0>
0

>  <SCORE.INTRA.POLAR>
0

>  <SCORE.INTRA.POLAR.0>
0

>  <SCORE.INTRA.REPUL>
0

>  <SCORE.INTRA.REPUL.0>
0

>  <SCORE.INTRA.SOLV>
0

>  <SCORE.INTRA.SOLV.lig_0>
-48.3454

>  <SCORE.INTRA.VDW>
0

>  <SCORE.INTRA.VDW.0>
0

>  <SCORE.INTRA.norm>
0

>  <SCORE.RESTR>
0

>  <SCORE.RESTR.CAVITY>
0

>  <SCORE.RESTR.norm>
0

>  <SCORE.SYSTEM>
0

>  <SCORE.SYSTEM.CONST>
0

>  <SCORE.SYSTEM.DIHEDRAL>
0

>  <SCORE.SYSTEM.SOLV>
0

>  <SCORE.SYSTEM.norm>
0

>  <SCORE.heavy>
11

>  <SCORE.norm>
-1.04271

>  <RMSD>
0.618

$$$$
ligand
 OpenBabel02271912153D
libRbt.so/2013.1/901 2013/11/27
 11 12  0  0  0  0  0  0  0  0999 V2000
  -11.8437  -12.7661    8.8482 N   0  0  0  0  0  0  0  0  0  0  0  0
  -11.5069  -14.0629    8.9363 C   0  0  0  0  0  0  0  0  0  0  0  0
  -11.5267  -14.6715   10.1188 N   0  0  0  0  0  0  0  0  0  0  0  0
  -11.1402  -14.7487    7.8426 N   0  0  0  0  0  0  0  0  0  0  0  0
  -11.1000  -14.1521    6.6420 C   0  0  0  0  0  0  0  0  0  0  0  0
  -11.4434  -12.8114    6.5229 C   0  0  0  0  0  0  0  0  0  0  0  0
  -11.8225  -12.1226    7.6703 C   0  0  0  0  0  0  0  0  0  0  0  0
  -12.1684  -10.8406    7.6004 N   0  0  0  0  0  0  0  0  0  0  0  0
  -11.3039  -12.4746    5.2442 N   0  0  0  0  0  0  0  0  0  0  0  0
  -10.8902  -13.5527    4.5819 C   0  0  0  0  0  0  0  0  0  0  0  0
  -10.7652  -14.5745    5.4262 N   0  0  0  0  0  0  0  0  0  0  0  0
  1  7  2  0  0  0  0
  1  2  1  0  0  0  0
  2  3  1  0  0  0  0
  2  4  2  0  0  0  0
  4  5  1  0  0  0  0
  5  6  2  0  0  0  0
  5 11  1  0  0  0  0
  6  7  1  0  0  0  0
  6  9  1  0  0  0  0
  7  8  1  0  0  0  0
  9 10  1  0  0  0  0
 10 11  2  0  0  0  0
M  END
>  <CHROM.1>
-11.41408102,-13.34363098,7.24551126,2.01024327,-1.25753284,2.12615762

>  <Name>
ligand

>  <RI>
0

>  <Rbt.Current_Directory>
/home/itssahil/PROJECTS/Mol_Feturizer/Test_systems_manuscript/rnas/2b57

>  <Rbt.Executable>
rbdock ($Id: //depot/dev/client3/rdock/2013.1/src/exe/rbdock.cxx#4 $)

>  <Rbt.Library>
libRbt.so (2013.1, Build901 2013/11/27)

>  <Rbt.Parameter_File>
/export/apps/rDock/src/rDock_2013.1_src/data/scripts/dock_solv.prm

>  <Rbt.Receptor>
prm/pocket_docking_5.prm

>  <SCORE>
-11.5475

>  <SCORE.INTER>
-11.5475

>  <SCORE.INTER.CONST>
1

>  <SCORE.INTER.POLAR>
0

>  <SCORE.INTER.ROT>
0

>  <SCORE.INTER.SOLV>
21.5746

>  <SCORE.INTER.VDW>
-18.4899

>  <SCORE.INTER.norm>
-1.04978

>  <SCORE.INTRA>
0

>  <SCORE.INTRA.DIHEDRAL>
0

>  <SCORE.INTRA.DIHEDRAL.0>
0

>  <SCORE.INTRA.POLAR>
0

>  <SCORE.INTRA.POLAR.0>
0

>  <SCORE.INTRA.REPUL>
0

>  <SCORE.INTRA.REPUL.0>
0

>  <SCORE.INTRA.SOLV>
0

>  <SCORE.INTRA.SOLV.lig_0>
-48.3454

>  <SCORE.INTRA.VDW>
0

>  <SCORE.INTRA.VDW.0>
0

>  <SCORE.INTRA.norm>
0

>  <SCORE.RESTR>
0

>  <SCORE.RESTR.CAVITY>
0

>  <SCORE.RESTR.norm>
0

>  <SCORE.SYSTEM>
0

>  <SCORE.SYSTEM.CONST>
0

>  <SCORE.SYSTEM.DIHEDRAL>
0

>  <SCORE.SYSTEM.SOLV>
0

>  <SCORE.SYSTEM.norm>
0

>  <SCORE.heavy>
11

>  <SCORE.norm>
-1.04978

>  <RMSD>
0.618

$$$$
ligand
 OpenBabel02271912153D
libRbt.so/2013.1/901 2013/11/27
 11 12  0  0  0  0  0  0  0  0999 V2000
  -11.8465  -12.7670    8.8454 N   0  0  0  0  0  0  0  0  0  0  0  0
  -11.4938  -14.0597    8.9306 C   0  0  0  0  0  0  0  0  0  0  0  0
  -11.5206  -14.6753   10.1093 N   0  0  0  0  0  0  0  0  0  0  0  0
  -11.1040  -14.7343    7.8378 N   0  0  0  0  0  0  0  0  0  0  0  0
  -11.0563  -14.1304    6.6412 C   0  0  0  0  0  0  0  0  0  0  0  0
  -11.4159  -12.7936    6.5252 C   0  0  0  0  0  0  0  0  0  0  0  0
  -11.8188  -12.1165    7.6714 C   0  0  0  0  0  0  0  0  0  0  0  0
  -12.1807  -10.8388    7.6042 N   0  0  0  0  0  0  0  0  0  0  0  0
  -11.2645  -12.4477    5.2503 N   0  0  0  0  0  0  0  0  0  0  0  0
  -10.8282  -13.5164    4.5873 C   0  0  0  0  0  0  0  0  0  0  0  0
  -10.7004  -14.5413    5.4275 N   0  0  0  0  0  0  0  0  0  0  0  0
  1  7  2  0  0  0  0
  1  2  1  0  0  0  0
  2  3  1  0  0  0  0
  2  4  2  0  0  0  0
  4  5  1  0  0  0  0
  5  6  2  0  0  0  0
  5 11  1  0  0  0  0
  6  7  1  0  0  0  0
  6  9  1  0  0  0  0
  7  8  1  0  0  0  0
  9 10  1  0  0  0  0
 10 11  2  0  0  0  0
M  END
>  <CHROM.1>
-11.38881885,-13.32958134,7.24514544,2.02225212,-1.23949827,2.14321290

>  <Name>
ligand

>  <RI>
0

>  <Rbt.Current_Directory>
/home/itssahil/PROJECTS/Mol_Feturizer/Test_systems_manuscript/rnas/2b57

>  <Rbt.Executable>
rbdock ($Id: //depot/dev/client3/rdock/2013.1/src/exe/rbdock.cxx#4 $)

>  <Rbt.Library>
libRbt.so (2013.1, Build901 2013/11/27)

>  <Rbt.Parameter_File>
/export/apps/rDock/src/rDock_2013.1_src/data/scripts/dock_solv.prm

>  <Rbt.Receptor>
prm/pocket_docking_6.prm

>  <SCORE>
-11.491

>  <SCORE.INTER>
-11.491

>  <SCORE.INTER.CONST>
1

>  <SCORE.INTER.POLAR>
0

>  <SCORE.INTER.ROT>
0

>  <SCORE.INTER.SOLV>
21.5189

>  <SCORE.INTER.VDW>
-18.4336

>  <SCORE.INTER.norm>
-1.04463

>  <SCORE.INTRA>
0

>  <SCORE.INTRA.DIHEDRAL>
0

>  <SCORE.INTRA.DIHEDRAL.0>
0

>  <SCORE.INTRA.POLAR>
0

>  <SCORE.INTRA.POLAR.0>
0

>  <SCORE.INTRA.REPUL>
0

>  <SCORE.INTRA.REPUL.0>
0

>  <SCORE.INTRA.SOLV>
0

>  <SCORE.INTRA.SOLV.lig_0>
-48.3454

>  <SCORE.INTRA.VDW>
0

>  <SCORE.INTRA.VDW.0>
0

>  <SCORE.INTRA.norm>
0

>  <SCORE.RESTR>
0

>  <SCORE.RESTR.CAVITY>
0

>  <SCORE.RESTR.norm>
0

>  <SCORE.SYSTEM>
0

>  <SCORE.SYSTEM.CONST>
0

>  <SCORE.SYSTEM.DIHEDRAL>
0

>  <SCORE.SYSTEM.SOLV>
0

>  <SCORE.SYSTEM.norm>
0

>  <SCORE.heavy>
11

>  <SCORE.norm>
-1.04463

>  <RMSD>
0.618

$$$$
ligand
 OpenBabel02271912153D
libRbt.so/2013.1/901 2013/11/27
 11 12  0  0  0  0  0  0  0  0999 V2000
  -11.8877  -12.7586    8.8285 N   0  0  0  0  0  0  0  0  0  0  0  0
  -11.4933  -14.0388    8.9195 C   0  0  0  0  0  0  0  0  0  0  0  0
  -11.5082  -14.6521   10.0996 N   0  0  0  0  0  0  0  0  0  0  0  0
  -11.0739  -14.7028    7.8312 N   0  0  0  0  0  0  0  0  0  0  0  0
  -11.0377  -14.1004    6.6334 C   0  0  0  0  0  0  0  0  0  0  0  0
  -11.4402  -12.7765    6.5114 C   0  0  0  0  0  0  0  0  0  0  0  0
  -11.8731  -12.1103    7.6531 C   0  0  0  0  0  0  0  0  0  0  0  0
  -12.2764  -10.8453    7.5801 N   0  0  0  0  0  0  0  0  0  0  0  0
  -11.2913  -12.4288    5.2367 N   0  0  0  0  0  0  0  0  0  0  0  0
  -10.8154  -13.4842    4.5796 C   0  0  0  0  0  0  0  0  0  0  0  0
  -10.6599  -14.5023    5.4233 N   0  0  0  0  0  0  0  0  0  0  0  0
  1  7  2  0  0  0  0
  1  2  1  0  0  0  0
  2  3  1  0  0  0  0
  2  4  2  0  0  0  0
  4  5  1  0  0  0  0
  5  6  2  0  0  0  0
  5 11  1  0  0  0  0
  6  7  1  0  0  0  0
  6  9  1  0  0  0  0
  7  8  1  0  0  0  0
  9 10  1  0  0  0  0
 10 11  2  0  0  0  0
M  END
>  <CHROM.1>
-11.40054568,-13.30958841,7.23296096,1.98874683,-1.20787635,2.10922300

>  <Name>
ligand

>  <RI>
0

>  <Rbt.Current_Directory>
/home/itssahil/PROJECTS/Mol_Feturizer/Test_systems_manuscript/rnas/2b57

>  <Rbt.Executable>
rbdock ($Id: //depot/dev/client3/rdock/2013.1/src/exe/rbdock.cxx#4 $)

>  <Rbt.Library>
libRbt.so (2013.1, Build901 2013/11/27)

>  <Rbt.Parameter_File>
/export/apps/rDock/src/rDock_2013.1_src/data/scripts/dock_solv.prm

>  <Rbt.Receptor>
prm/pocket_docking_5.prm

>  <SCORE>
-11.4388

>  <SCORE.INTER>
-11.4388

>  <SCORE.INTER.CONST>
1

>  <SCORE.INTER.POLAR>
0

>  <SCORE.INTER.ROT>
0

>  <SCORE.INTER.SOLV>
21.1847

>  <SCORE.INTER.VDW>
-18.2874

>  <SCORE.INTER.norm>
-1.03989

>  <SCORE.INTRA>
0

>  <SCORE.INTRA.DIHEDRAL>
0

>  <SCORE.INTRA.DIHEDRAL.0>
0

>  <SCORE.INTRA.POLAR>
0

>  <SCORE.INTRA.POLAR.0>
0

>  <SCORE.INTRA.REPUL>
0

>  <SCORE.INTRA.REPUL.0>
0

>  <SCORE.INTRA.SOLV>
0

>  <SCORE.INTRA.SOLV.lig_0>
-48.3454

>  <SCORE.INTRA.VDW>
0

>  <SCORE.INTRA.VDW.0>
0

>  <SCORE.INTRA.norm>
0

>  <SCORE.RESTR>
0

>  <SCORE.RESTR.CAVITY>
0

>  <SCORE.RESTR.norm>
0

>  <SCORE.SYSTEM>
0

>  <SCORE.SYSTEM.CONST>
0

>  <SCORE.SYSTEM.DIHEDRAL>
0

>  <SCORE.SYSTEM.SOLV>
0

>  <SCORE.SYSTEM.norm>
0

>  <SCORE.heavy>
11

>  <SCORE.norm>
-1.03989

>  <RMSD>
0.619

$$$$
ligand
 OpenBabel02271912153D
libRbt.so/2013.1/901 2013/11/27
 11 12  0  0  0  0  0  0  0  0999 V2000
  -11.8400  -12.7646    8.8457 N   0  0  0  0  0  0  0  0  0  0  0  0
  -11.4796  -14.0554    8.9271 C   0  0  0  0  0  0  0  0  0  0  0  0
  -11.4995  -14.6737   10.1045 N   0  0  0  0  0  0  0  0  0  0  0  0
  -11.0891  -14.7254    7.8318 N   0  0  0  0  0  0  0  0  0  0  0  0
  -11.0483  -14.1186    6.6363 C   0  0  0  0  0  0  0  0  0  0  0  0
  -11.4159  -12.7837    6.5243 C   0  0  0  0  0  0  0  0  0  0  0  0
  -11.8194  -12.1114    7.6731 C   0  0  0  0  0  0  0  0  0  0  0  0
  -12.1889  -10.8356    7.6097 N   0  0  0  0  0  0  0  0  0  0  0  0
  -11.2701  -12.4342    5.2497 N   0  0  0  0  0  0  0  0  0  0  0  0
  -10.8295  -13.4989    4.5832 C   0  0  0  0  0  0  0  0  0  0  0  0
  -10.6935  -14.5248    5.4207 N   0  0  0  0  0  0  0  0  0  0  0  0
  1  7  2  0  0  0  0
  1  2  1  0  0  0  0
  2  3  1  0  0  0  0
  2  4  2  0  0  0  0
  4  5  1  0  0  0  0
  5  6  2  0  0  0  0
  5 11  1  0  0  0  0
  6  7  1  0  0  0  0
  6  9  1  0  0  0  0
  7  8  1  0  0  0  0
  9 10  1  0  0  0  0
 10 11  2  0  0  0  0
M  END
>  <CHROM.1>
-11.38364879,-13.32106050,7.24297127,2.00546179,-1.23616098,2.12952284

>  <Name>
ligand

>  <RI>
0

>  <Rbt.Current_Directory>
/home/itssahil/PROJECTS/Mol_Feturizer/Test_systems_manuscript/rnas/2b57

>  <Rbt.Executable>
rbdock ($Id: //depot/dev/client3/rdock/2013.1/src/exe/rbdock.cxx#4 $)

>  <Rbt.Library>
libRbt.so (2013.1, Build901 2013/11/27)

>  <Rbt.Parameter_File>
/export/apps/rDock/src/rDock_2013.1_src/data/scripts/dock_solv.prm

>  <Rbt.Receptor>
prm/pocket_docking_6.prm

>  <SCORE>
-11.4879

>  <SCORE.INTER>
-11.4879

>  <SCORE.INTER.CONST>
1

>  <SCORE.INTER.POLAR>
0

>  <SCORE.INTER.ROT>
0

>  <SCORE.INTER.SOLV>
21.4931

>  <SCORE.INTER.VDW>
-18.4229

>  <SCORE.INTER.norm>
-1.04435

>  <SCORE.INTRA>
0

>  <SCORE.INTRA.DIHEDRAL>
0

>  <SCORE.INTRA.DIHEDRAL.0>
0

>  <SCORE.INTRA.POLAR>
0

>  <SCORE.INTRA.POLAR.0>
0

>  <SCORE.INTRA.REPUL>
0

>  <SCORE.INTRA.REPUL.0>
0

>  <SCORE.INTRA.SOLV>
0

>  <SCORE.INTRA.SOLV.lig_0>
-48.3454

>  <SCORE.INTRA.VDW>
0

>  <SCORE.INTRA.VDW.0>
0

>  <SCORE.INTRA.norm>
0

>  <SCORE.RESTR>
0

>  <SCORE.RESTR.CAVITY>
0

>  <SCORE.RESTR.norm>
0

>  <SCORE.SYSTEM>
0

>  <SCORE.SYSTEM.CONST>
0

>  <SCORE.SYSTEM.DIHEDRAL>
0

>  <SCORE.SYSTEM.SOLV>
0

>  <SCORE.SYSTEM.norm>
0

>  <SCORE.heavy>
11

>  <SCORE.norm>
-1.04435

>  <RMSD>
0.619

$$$$
ligand
 OpenBabel02271912153D
libRbt.so/2013.1/901 2013/11/27
 11 12  0  0  0  0  0  0  0  0999 V2000
  -11.8444  -12.7664    8.8453 N   0  0  0  0  0  0  0  0  0  0  0  0
  -11.4876  -14.0581    8.9290 C   0  0  0  0  0  0  0  0  0  0  0  0
  -11.5111  -14.6747   10.1072 N   0  0  0  0  0  0  0  0  0  0  0  0
  -11.0972  -14.7306    7.8352 N   0  0  0  0  0  0  0  0  0  0  0  0
  -11.0529  -14.1256    6.6390 C   0  0  0  0  0  0  0  0  0  0  0  0
  -11.4166  -12.7898    6.5246 C   0  0  0  0  0  0  0  0  0  0  0  0
  -11.8201  -12.1148    7.6719 C   0  0  0  0  0  0  0  0  0  0  0  0
  -12.1859  -10.8381    7.6062 N   0  0  0  0  0  0  0  0  0  0  0  0
  -11.2679  -12.4424    5.2497 N   0  0  0  0  0  0  0  0  0  0  0  0
  -10.8292  -13.5092    4.5854 C   0  0  0  0  0  0  0  0  0  0  0  0
  -10.6973  -14.5344    5.4245 N   0  0  0  0  0  0  0  0  0  0  0  0
  1  7  2  0  0  0  0
  1  2  1  0  0  0  0
  2  3  1  0  0  0  0
  2  4  2  0  0  0  0
  4  5  1  0  0  0  0
  5  6  2  0  0  0  0
  5 11  1  0  0  0  0
  6  7  1  0  0  0  0
  6  9  1  0  0  0  0
  7  8  1  0  0  0  0
  9 10  1  0  0  0  0
 10 11  2  0  0  0  0
M  END
>  <CHROM.1>
-11.38700284,-13.32627458,7.24404312,2.01402090,-1.23765320,2.13626735

>  <Name>
ligand

>  <RI>
0

>  <Rbt.Current_Directory>
/home/itssahil/PROJECTS/Mol_Feturizer/Test_systems_manuscript/rnas/2b57

>  <Rbt.Executable>
rbdock ($Id: //depot/dev/client3/rdock/2013.1/src/exe/rbdock.cxx#4 $)

>  <Rbt.Library>
libRbt.so (2013.1, Build901 2013/11/27)

>  <Rbt.Parameter_File>
/export/apps/rDock/src/rDock_2013.1_src/data/scripts/dock_solv.prm

>  <Rbt.Receptor>
prm/pocket_docking_8.prm

>  <SCORE>
-11.4913

>  <SCORE.INTER>
-11.4913

>  <SCORE.INTER.CONST>
1

>  <SCORE.INTER.POLAR>
0

>  <SCORE.INTER.ROT>
0

>  <SCORE.INTER.SOLV>
21.5006

>  <SCORE.INTER.VDW>
-18.4277

>  <SCORE.INTER.norm>
-1.04466

>  <SCORE.INTRA>
0

>  <SCORE.INTRA.DIHEDRAL>
0

>  <SCORE.INTRA.DIHEDRAL.0>
0

>  <SCORE.INTRA.POLAR>
0

>  <SCORE.INTRA.POLAR.0>
0

>  <SCORE.INTRA.REPUL>
0

>  <SCORE.INTRA.REPUL.0>
0

>  <SCORE.INTRA.SOLV>
0

>  <SCORE.INTRA.SOLV.lig_0>
-48.3454

>  <SCORE.INTRA.VDW>
0

>  <SCORE.INTRA.VDW.0>
0

>  <SCORE.INTRA.norm>
0

>  <SCORE.RESTR>
0

>  <SCORE.RESTR.CAVITY>
0

>  <SCORE.RESTR.norm>
0

>  <SCORE.SYSTEM>
0

>  <SCORE.SYSTEM.CONST>
0

>  <SCORE.SYSTEM.DIHEDRAL>
0

>  <SCORE.SYSTEM.SOLV>
0

>  <SCORE.SYSTEM.norm>
0

>  <SCORE.heavy>
11

>  <SCORE.norm>
-1.04466

>  <RMSD>
0.619

$$$$
ligand
 OpenBabel02271912153D
libRbt.so/2013.1/901 2013/11/27
 11 12  0  0  0  0  0  0  0  0999 V2000
  -11.8336  -12.7615    8.8500 N   0  0  0  0  0  0  0  0  0  0  0  0
  -11.4998  -14.0601    8.9214 C   0  0  0  0  0  0  0  0  0  0  0  0
  -11.5292  -14.6860   10.0946 N   0  0  0  0  0  0  0  0  0  0  0  0
  -11.1265  -14.7304    7.8203 N   0  0  0  0  0  0  0  0  0  0  0  0
  -11.0765  -14.1163    6.6290 C   0  0  0  0  0  0  0  0  0  0  0  0
  -11.4166  -12.7733    6.5272 C   0  0  0  0  0  0  0  0  0  0  0  0
  -11.8028  -12.1008    7.6819 C   0  0  0  0  0  0  0  0  0  0  0  0
  -12.1459  -10.8172    7.6284 N   0  0  0  0  0  0  0  0  0  0  0  0
  -11.2674  -12.4180    5.2546 N   0  0  0  0  0  0  0  0  0  0  0  0
  -10.8509  -13.4870    4.5795 C   0  0  0  0  0  0  0  0  0  0  0  0
  -10.7337  -14.5213    5.4095 N   0  0  0  0  0  0  0  0  0  0  0  0
  1  7  2  0  0  0  0
  1  2  1  0  0  0  0
  2  3  1  0  0  0  0
  2  4  2  0  0  0  0
  4  5  1  0  0  0  0
  5  6  2  0  0  0  0
  5 11  1  0  0  0  0
  6  7  1  0  0  0  0
  6  9  1  0  0  0  0
  7  8  1  0  0  0  0
  9 10  1  0  0  0  0
 10 11  2  0  0  0  0
M  END
>  <CHROM.1>
-11.39350482,-13.31617147,7.24210803,2.03301326,-1.25519246,2.16255728

>  <Name>
ligand

>  <RI>
0

>  <Rbt.Current_Directory>
/home/itssahil/PROJECTS/Mol_Feturizer/Test_systems_manuscript/rnas/2b57

>  <Rbt.Executable>
rbdock ($Id: //depot/dev/client3/rdock/2013.1/src/exe/rbdock.cxx#4 $)

>  <Rbt.Library>
libRbt.so (2013.1, Build901 2013/11/27)

>  <Rbt.Parameter_File>
/export/apps/rDock/src/rDock_2013.1_src/data/scripts/dock_solv.prm

>  <Rbt.Receptor>
prm/pocket_docking_4.prm

>  <SCORE>
-11.4532

>  <SCORE.INTER>
-11.4532

>  <SCORE.INTER.CONST>
1

>  <SCORE.INTER.POLAR>
0

>  <SCORE.INTER.ROT>
0

>  <SCORE.INTER.SOLV>
21.6974

>  <SCORE.INTER.VDW>
-18.4679

>  <SCORE.INTER.norm>
-1.0412

>  <SCORE.INTRA>
0

>  <SCORE.INTRA.DIHEDRAL>
0

>  <SCORE.INTRA.DIHEDRAL.0>
0

>  <SCORE.INTRA.POLAR>
0

>  <SCORE.INTRA.POLAR.0>
0

>  <SCORE.INTRA.REPUL>
0

>  <SCORE.INTRA.REPUL.0>
0

>  <SCORE.INTRA.SOLV>
0

>  <SCORE.INTRA.SOLV.lig_0>
-48.3454

>  <SCORE.INTRA.VDW>
0

>  <SCORE.INTRA.VDW.0>
0

>  <SCORE.INTRA.norm>
0

>  <SCORE.RESTR>
0

>  <SCORE.RESTR.CAVITY>
0

>  <SCORE.RESTR.norm>
0

>  <SCORE.SYSTEM>
0

>  <SCORE.SYSTEM.CONST>
0

>  <SCORE.SYSTEM.DIHEDRAL>
0

>  <SCORE.SYSTEM.SOLV>
0

>  <SCORE.SYSTEM.norm>
0

>  <SCORE.heavy>
11

>  <SCORE.norm>
-1.0412

>  <RMSD>
0.620

$$$$
ligand
 OpenBabel02271912153D
libRbt.so/2013.1/901 2013/11/27
 11 12  0  0  0  0  0  0  0  0999 V2000
  -11.8535  -12.7706    8.8405 N   0  0  0  0  0  0  0  0  0  0  0  0
  -11.4850  -14.0579    8.9392 C   0  0  0  0  0  0  0  0  0  0  0  0
  -11.4931  -14.6580   10.1261 N   0  0  0  0  0  0  0  0  0  0  0  0
  -11.0983  -14.7425    7.8516 N   0  0  0  0  0  0  0  0  0  0  0  0
  -11.0694  -14.1541    6.6467 C   0  0  0  0  0  0  0  0  0  0  0  0
  -11.4456  -12.8232    6.5166 C   0  0  0  0  0  0  0  0  0  0  0  0
  -11.8449  -12.1355    7.6579 C   0  0  0  0  0  0  0  0  0  0  0  0
  -12.2222  -10.8630    7.5774 N   0  0  0  0  0  0  0  0  0  0  0  0
  -11.3108  -12.4926    5.2358 N   0  0  0  0  0  0  0  0  0  0  0  0
  -10.8687  -13.5649    4.5827 C   0  0  0  0  0  0  0  0  0  0  0  0
  -10.7208  -14.5770    5.4350 N   0  0  0  0  0  0  0  0  0  0  0  0
  1  7  2  0  0  0  0
  1  2  1  0  0  0  0
  2  3  1  0  0  0  0
  2  4  2  0  0  0  0
  4  5  1  0  0  0  0
  5  6  2  0  0  0  0
  5 11  1  0  0  0  0
  6  7  1  0  0  0  0
  6  9  1  0  0  0  0
  7  8  1  0  0  0  0
  9 10  1  0  0  0  0
 10 11  2  0  0  0  0
M  END
>  <CHROM.1>
-11.40518636,-13.34914827,7.24331136,1.97804333,-1.23484048,2.08818440

>  <Name>
ligand

>  <RI>
0

>  <Rbt.Current_Directory>
/home/itssahil/PROJECTS/Mol_Feturizer/Test_systems_manuscript/rnas/2b57

>  <Rbt.Executable>
rbdock ($Id: //depot/dev/client3/rdock/2013.1/src/exe/rbdock.cxx#4 $)

>  <Rbt.Library>
libRbt.so (2013.1, Build901 2013/11/27)

>  <Rbt.Parameter_File>
/export/apps/rDock/src/rDock_2013.1_src/data/scripts/dock_solv.prm

>  <Rbt.Receptor>
prm/pocket_docking_5.prm

>  <SCORE>
-11.4934

>  <SCORE.INTER>
-11.4934

>  <SCORE.INTER.CONST>
1

>  <SCORE.INTER.POLAR>
0

>  <SCORE.INTER.ROT>
0

>  <SCORE.INTER.SOLV>
21.3598

>  <SCORE.INTER.VDW>
-18.3822

>  <SCORE.INTER.norm>
-1.04486

>  <SCORE.INTRA>
0

>  <SCORE.INTRA.DIHEDRAL>
0

>  <SCORE.INTRA.DIHEDRAL.0>
0

>  <SCORE.INTRA.POLAR>
0

>  <SCORE.INTRA.POLAR.0>
0

>  <SCORE.INTRA.REPUL>
0

>  <SCORE.INTRA.REPUL.0>
0

>  <SCORE.INTRA.SOLV>
0

>  <SCORE.INTRA.SOLV.lig_0>
-48.3454

>  <SCORE.INTRA.VDW>
0

>  <SCORE.INTRA.VDW.0>
0

>  <SCORE.INTRA.norm>
0

>  <SCORE.RESTR>
0

>  <SCORE.RESTR.CAVITY>
0

>  <SCORE.RESTR.norm>
0

>  <SCORE.SYSTEM>
0

>  <SCORE.SYSTEM.CONST>
0

>  <SCORE.SYSTEM.DIHEDRAL>
0

>  <SCORE.SYSTEM.SOLV>
0

>  <SCORE.SYSTEM.norm>
0

>  <SCORE.heavy>
11

>  <SCORE.norm>
-1.04486

>  <RMSD>
0.620

$$$$
ligand
 OpenBabel02271912153D
libRbt.so/2013.1/901 2013/11/27
 11 12  0  0  0  0  0  0  0  0999 V2000
  -11.8349  -12.7895    8.8550 N   0  0  0  0  0  0  0  0  0  0  0  0
  -11.5048  -14.0880    8.9426 C   0  0  0  0  0  0  0  0  0  0  0  0
  -11.5370  -14.6994   10.1233 N   0  0  0  0  0  0  0  0  0  0  0  0
  -11.1324  -14.7728    7.8502 N   0  0  0  0  0  0  0  0  0  0  0  0
  -11.0796  -14.1735    6.6514 C   0  0  0  0  0  0  0  0  0  0  0  0
  -11.4158  -12.8309    6.5329 C   0  0  0  0  0  0  0  0  0  0  0  0
  -11.8011  -12.1432    7.6789 C   0  0  0  0  0  0  0  0  0  0  0  0
  -12.1405  -10.8594    7.6093 N   0  0  0  0  0  0  0  0  0  0  0  0
  -11.2644  -12.4917    5.2562 N   0  0  0  0  0  0  0  0  0  0  0  0
  -10.8503  -13.5700    4.5946 C   0  0  0  0  0  0  0  0  0  0  0  0
  -10.7368  -14.5945    5.4373 N   0  0  0  0  0  0  0  0  0  0  0  0
  1  7  2  0  0  0  0
  1  2  1  0  0  0  0
  2  3  1  0  0  0  0
  2  4  2  0  0  0  0
  4  5  1  0  0  0  0
  5  6  2  0  0  0  0
  5 11  1  0  0  0  0
  6  7  1  0  0  0  0
  6  9  1  0  0  0  0
  7  8  1  0  0  0  0
  9 10  1  0  0  0  0
 10 11  2  0  0  0  0
M  END
>  <CHROM.1>
-11.39487853,-13.36507394,7.25439211,2.04060276,-1.25700992,2.15750515

>  <Name>
ligand

>  <RI>
0

>  <Rbt.Current_Directory>
/home/itssahil/PROJECTS/Mol_Feturizer/Test_systems_manuscript/rnas/2b57

>  <Rbt.Executable>
rbdock ($Id: //depot/dev/client3/rdock/2013.1/src/exe/rbdock.cxx#4 $)

>  <Rbt.Library>
libRbt.so (2013.1, Build901 2013/11/27)

>  <Rbt.Parameter_File>
/export/apps/rDock/src/rDock_2013.1_src/data/scripts/dock_solv.prm

>  <Rbt.Receptor>
prm/pocket_docking_6.prm

>  <SCORE>
-11.5486

>  <SCORE.INTER>
-11.5486

>  <SCORE.INTER.CONST>
1

>  <SCORE.INTER.POLAR>
0

>  <SCORE.INTER.ROT>
0

>  <SCORE.INTER.SOLV>
21.6971

>  <SCORE.INTER.VDW>
-18.5315

>  <SCORE.INTER.norm>
-1.04988

>  <SCORE.INTRA>
0

>  <SCORE.INTRA.DIHEDRAL>
0

>  <SCORE.INTRA.DIHEDRAL.0>
0

>  <SCORE.INTRA.POLAR>
0

>  <SCORE.INTRA.POLAR.0>
0

>  <SCORE.INTRA.REPUL>
0

>  <SCORE.INTRA.REPUL.0>
0

>  <SCORE.INTRA.SOLV>
0

>  <SCORE.INTRA.SOLV.lig_0>
-48.3454

>  <SCORE.INTRA.VDW>
0

>  <SCORE.INTRA.VDW.0>
0

>  <SCORE.INTRA.norm>
0

>  <SCORE.RESTR>
0

>  <SCORE.RESTR.CAVITY>
0

>  <SCORE.RESTR.norm>
0

>  <SCORE.SYSTEM>
0

>  <SCORE.SYSTEM.CONST>
0

>  <SCORE.SYSTEM.DIHEDRAL>
0

>  <SCORE.SYSTEM.SOLV>
0

>  <SCORE.SYSTEM.norm>
0

>  <SCORE.heavy>
11

>  <SCORE.norm>
-1.04988

>  <RMSD>
0.620

$$$$
ligand
 OpenBabel02271912153D
libRbt.so/2013.1/901 2013/11/27
 11 12  0  0  0  0  0  0  0  0999 V2000
  -11.8461  -12.7668    8.8454 N   0  0  0  0  0  0  0  0  0  0  0  0
  -11.5084  -14.0632    8.9347 C   0  0  0  0  0  0  0  0  0  0  0  0
  -11.5292  -14.6711   10.1175 N   0  0  0  0  0  0  0  0  0  0  0  0
  -11.1395  -14.7493    7.8418 N   0  0  0  0  0  0  0  0  0  0  0  0
  -11.0982  -14.1534    6.6409 C   0  0  0  0  0  0  0  0  0  0  0  0
  -11.4426  -12.8130    6.5206 C   0  0  0  0  0  0  0  0  0  0  0  0
  -11.8239  -12.1239    7.6671 C   0  0  0  0  0  0  0  0  0  0  0  0
  -12.1708  -10.8422    7.5960 N   0  0  0  0  0  0  0  0  0  0  0  0
  -11.3016  -12.4769    5.2419 N   0  0  0  0  0  0  0  0  0  0  0  0
  -10.8861  -13.5550    4.5808 C   0  0  0  0  0  0  0  0  0  0  0  0
  -10.7614  -14.5762    5.4258 N   0  0  0  0  0  0  0  0  0  0  0  0
  1  7  2  0  0  0  0
  1  2  1  0  0  0  0
  2  3  1  0  0  0  0
  2  4  2  0  0  0  0
  4  5  1  0  0  0  0
  5  6  2  0  0  0  0
  5 11  1  0  0  0  0
  6  7  1  0  0  0  0
  6  9  1  0  0  0  0
  7  8  1  0  0  0  0
  9 10  1  0  0  0  0
 10 11  2  0  0  0  0
M  END
>  <CHROM.1>
-11.41381943,-13.34484329,7.24359552,2.01254756,-1.25608015,2.12777394

>  <Name>
ligand

>  <RI>
0

>  <Rbt.Current_Directory>
/home/itssahil/PROJECTS/Mol_Feturizer/Test_systems_manuscript/rnas/2b57

>  <Rbt.Executable>
rbdock ($Id: //depot/dev/client3/rdock/2013.1/src/exe/rbdock.cxx#4 $)

>  <Rbt.Library>
libRbt.so (2013.1, Build901 2013/11/27)

>  <Rbt.Parameter_File>
/export/apps/rDock/src/rDock_2013.1_src/data/scripts/dock_solv.prm

>  <Rbt.Receptor>
prm/pocket_docking_8.prm

>  <SCORE>
-11.5517

>  <SCORE.INTER>
-11.5517

>  <SCORE.INTER.CONST>
1

>  <SCORE.INTER.POLAR>
0

>  <SCORE.INTER.ROT>
0

>  <SCORE.INTER.SOLV>
21.5601

>  <SCORE.INTER.VDW>
-18.4878

>  <SCORE.INTER.norm>
-1.05015

>  <SCORE.INTRA>
0

>  <SCORE.INTRA.DIHEDRAL>
0

>  <SCORE.INTRA.DIHEDRAL.0>
0

>  <SCORE.INTRA.POLAR>
0

>  <SCORE.INTRA.POLAR.0>
0

>  <SCORE.INTRA.REPUL>
0

>  <SCORE.INTRA.REPUL.0>
0

>  <SCORE.INTRA.SOLV>
0

>  <SCORE.INTRA.SOLV.lig_0>
-48.3454

>  <SCORE.INTRA.VDW>
0

>  <SCORE.INTRA.VDW.0>
0

>  <SCORE.INTRA.norm>
0

>  <SCORE.RESTR>
0

>  <SCORE.RESTR.CAVITY>
0

>  <SCORE.RESTR.norm>
0

>  <SCORE.SYSTEM>
0

>  <SCORE.SYSTEM.CONST>
0

>  <SCORE.SYSTEM.DIHEDRAL>
0

>  <SCORE.SYSTEM.SOLV>
0

>  <SCORE.SYSTEM.norm>
0

>  <SCORE.heavy>
11

>  <SCORE.norm>
-1.05015

>  <RMSD>
0.620

$$$$
ligand
 OpenBabel02271912153D
libRbt.so/2013.1/901 2013/11/27
 11 12  0  0  0  0  0  0  0  0999 V2000
  -11.8461  -12.7439    8.8388 N   0  0  0  0  0  0  0  0  0  0  0  0
  -11.4977  -14.0382    8.9173 C   0  0  0  0  0  0  0  0  0  0  0  0
  -11.5203  -14.6580   10.0939 N   0  0  0  0  0  0  0  0  0  0  0  0
  -11.1165  -14.7102    7.8199 N   0  0  0  0  0  0  0  0  0  0  0  0
  -11.0732  -14.1021    6.6253 C   0  0  0  0  0  0  0  0  0  0  0  0
  -11.4284  -12.7636    6.5162 C   0  0  0  0  0  0  0  0  0  0  0  0
  -11.8224  -12.0892    7.6671 C   0  0  0  0  0  0  0  0  0  0  0  0
  -12.1799  -10.8098    7.6066 N   0  0  0  0  0  0  0  0  0  0  0  0
  -11.2828  -12.4135    5.2417 N   0  0  0  0  0  0  0  0  0  0  0  0
  -10.8542  -13.4814    4.5725 C   0  0  0  0  0  0  0  0  0  0  0  0
  -10.7256  -14.5098    5.4081 N   0  0  0  0  0  0  0  0  0  0  0  0
  1  7  2  0  0  0  0
  1  2  1  0  0  0  0
  2  3  1  0  0  0  0
  2  4  2  0  0  0  0
  4  5  1  0  0  0  0
  5  6  2  0  0  0  0
  5 11  1  0  0  0  0
  6  7  1  0  0  0  0
  6  9  1  0  0  0  0
  7  8  1  0  0  0  0
  9 10  1  0  0  0  0
 10 11  2  0  0  0  0
M  END
>  <CHROM.1>
-11.39934457,-13.30226192,7.23400637,2.01398038,-1.24564704,2.13905242

>  <Name>
ligand

>  <RI>
0

>  <Rbt.Current_Directory>
/home/itssahil/PROJECTS/Mol_Feturizer/Test_systems_manuscript/rnas/2b57

>  <Rbt.Executable>
rbdock ($Id: //depot/dev/client3/rdock/2013.1/src/exe/rbdock.cxx#4 $)

>  <Rbt.Library>
libRbt.so (2013.1, Build901 2013/11/27)

>  <Rbt.Parameter_File>
/export/apps/rDock/src/rDock_2013.1_src/data/scripts/dock_solv.prm

>  <Rbt.Receptor>
prm/pocket_docking_6.prm

>  <SCORE>
-11.4691

>  <SCORE.INTER>
-11.4691

>  <SCORE.INTER.CONST>
1

>  <SCORE.INTER.POLAR>
0

>  <SCORE.INTER.ROT>
0

>  <SCORE.INTER.SOLV>
21.5389

>  <SCORE.INTER.VDW>
-18.4257

>  <SCORE.INTER.norm>
-1.04265

>  <SCORE.INTRA>
0

>  <SCORE.INTRA.DIHEDRAL>
0

>  <SCORE.INTRA.DIHEDRAL.0>
0

>  <SCORE.INTRA.POLAR>
0

>  <SCORE.INTRA.POLAR.0>
0

>  <SCORE.INTRA.REPUL>
0

>  <SCORE.INTRA.REPUL.0>
0

>  <SCORE.INTRA.SOLV>
0

>  <SCORE.INTRA.SOLV.lig_0>
-48.3454

>  <SCORE.INTRA.VDW>
0

>  <SCORE.INTRA.VDW.0>
0

>  <SCORE.INTRA.norm>
0

>  <SCORE.RESTR>
0

>  <SCORE.RESTR.CAVITY>
0

>  <SCORE.RESTR.norm>
0

>  <SCORE.SYSTEM>
0

>  <SCORE.SYSTEM.CONST>
0

>  <SCORE.SYSTEM.DIHEDRAL>
0

>  <SCORE.SYSTEM.SOLV>
0

>  <SCORE.SYSTEM.norm>
0

>  <SCORE.heavy>
11

>  <SCORE.norm>
-1.04265

>  <RMSD>
0.621

$$$$
ligand
 OpenBabel02271912153D
libRbt.so/2013.1/901 2013/11/27
 11 12  0  0  0  0  0  0  0  0999 V2000
  -11.8196  -12.7545    8.8489 N   0  0  0  0  0  0  0  0  0  0  0  0
  -11.4494  -14.0426    8.9292 C   0  0  0  0  0  0  0  0  0  0  0  0
  -11.4523  -14.6583   10.1082 N   0  0  0  0  0  0  0  0  0  0  0  0
  -11.0662  -14.7124    7.8312 N   0  0  0  0  0  0  0  0  0  0  0  0
  -11.0426  -14.1082    6.6341 C   0  0  0  0  0  0  0  0  0  0  0  0
  -11.4205  -12.7761    6.5230 C   0  0  0  0  0  0  0  0  0  0  0  0
  -11.8161  -12.1039    7.6747 C   0  0  0  0  0  0  0  0  0  0  0  0
  -12.1950  -10.8308    7.6124 N   0  0  0  0  0  0  0  0  0  0  0  0
  -11.2911  -12.4286    5.2461 N   0  0  0  0  0  0  0  0  0  0  0  0
  -10.8504  -13.4918    4.5773 C   0  0  0  0  0  0  0  0  0  0  0  0
  -10.6982  -14.5148    5.4156 N   0  0  0  0  0  0  0  0  0  0  0  0
  1  7  2  0  0  0  0
  1  2  1  0  0  0  0
  2  3  1  0  0  0  0
  2  4  2  0  0  0  0
  4  5  1  0  0  0  0
  5  6  2  0  0  0  0
  5 11  1  0  0  0  0
  6  7  1  0  0  0  0
  6  9  1  0  0  0  0
  7  8  1  0  0  0  0
  9 10  1  0  0  0  0
 10 11  2  0  0  0  0
M  END
>  <CHROM.1>
-11.37680961,-13.31154802,7.24252066,1.96631661,-1.23586206,2.09025577

>  <Name>
ligand

>  <RI>
0

>  <Rbt.Current_Directory>
/home/itssahil/PROJECTS/Mol_Feturizer/Test_systems_manuscript/rnas/2b57

>  <Rbt.Executable>
rbdock ($Id: //depot/dev/client3/rdock/2013.1/src/exe/rbdock.cxx#4 $)

>  <Rbt.Library>
libRbt.so (2013.1, Build901 2013/11/27)

>  <Rbt.Parameter_File>
/export/apps/rDock/src/rDock_2013.1_src/data/scripts/dock_solv.prm

>  <Rbt.Receptor>
prm/pocket_docking_8.prm

>  <SCORE>
-11.4648

>  <SCORE.INTER>
-11.4648

>  <SCORE.INTER.CONST>
1

>  <SCORE.INTER.POLAR>
0

>  <SCORE.INTER.ROT>
0

>  <SCORE.INTER.SOLV>
21.4691

>  <SCORE.INTER.VDW>
-18.3996

>  <SCORE.INTER.norm>
-1.04225

>  <SCORE.INTRA>
0

>  <SCORE.INTRA.DIHEDRAL>
0

>  <SCORE.INTRA.DIHEDRAL.0>
0

>  <SCORE.INTRA.POLAR>
0

>  <SCORE.INTRA.POLAR.0>
0

>  <SCORE.INTRA.REPUL>
0

>  <SCORE.INTRA.REPUL.0>
0

>  <SCORE.INTRA.SOLV>
0

>  <SCORE.INTRA.SOLV.lig_0>
-48.3454

>  <SCORE.INTRA.VDW>
0

>  <SCORE.INTRA.VDW.0>
0

>  <SCORE.INTRA.norm>
0

>  <SCORE.RESTR>
0

>  <SCORE.RESTR.CAVITY>
0

>  <SCORE.RESTR.norm>
0

>  <SCORE.SYSTEM>
0

>  <SCORE.SYSTEM.CONST>
0

>  <SCORE.SYSTEM.DIHEDRAL>
0

>  <SCORE.SYSTEM.SOLV>
0

>  <SCORE.SYSTEM.norm>
0

>  <SCORE.heavy>
11

>  <SCORE.norm>
-1.04225

>  <RMSD>
0.621

$$$$
ligand
 OpenBabel02271912153D
libRbt.so/2013.1/901 2013/11/27
 11 12  0  0  0  0  0  0  0  0999 V2000
  -11.8427  -12.7653    8.8417 N   0  0  0  0  0  0  0  0  0  0  0  0
  -11.4927  -14.0586    8.9291 C   0  0  0  0  0  0  0  0  0  0  0  0
  -11.5198  -14.6719   10.1090 N   0  0  0  0  0  0  0  0  0  0  0  0
  -11.1055  -14.7362    7.8373 N   0  0  0  0  0  0  0  0  0  0  0  0
  -11.0576  -14.1348    6.6395 C   0  0  0  0  0  0  0  0  0  0  0  0
  -11.4143  -12.7974    6.5212 C   0  0  0  0  0  0  0  0  0  0  0  0
  -11.8146  -12.1172    7.6665 C   0  0  0  0  0  0  0  0  0  0  0  0
  -12.1737  -10.8388    7.5971 N   0  0  0  0  0  0  0  0  0  0  0  0
  -11.2633  -12.4544    5.2455 N   0  0  0  0  0  0  0  0  0  0  0  0
  -10.8300  -13.5253    4.5842 C   0  0  0  0  0  0  0  0  0  0  0  0
  -10.7037  -14.5488    5.4262 N   0  0  0  0  0  0  0  0  0  0  0  0
  1  7  2  0  0  0  0
  1  2  1  0  0  0  0
  2  3  1  0  0  0  0
  2  4  2  0  0  0  0
  4  5  1  0  0  0  0
  5  6  2  0  0  0  0
  5 11  1  0  0  0  0
  6  7  1  0  0  0  0
  6  9  1  0  0  0  0
  7  8  1  0  0  0  0
  9 10  1  0  0  0  0
 10 11  2  0  0  0  0
M  END
>  <CHROM.1>
-11.38769438,-13.33204296,7.24218958,2.02355409,-1.24188827,2.14249346

>  <Name>
ligand

>  <RI>
0

>  <Rbt.Current_Directory>
/home/itssahil/PROJECTS/Mol_Feturizer/Test_systems_manuscript/rnas/2b57

>  <Rbt.Executable>
rbdock ($Id: //depot/dev/client3/rdock/2013.1/src/exe/rbdock.cxx#4 $)

>  <Rbt.Library>
libRbt.so (2013.1, Build901 2013/11/27)

>  <Rbt.Parameter_File>
/export/apps/rDock/src/rDock_2013.1_src/data/scripts/dock_solv.prm

>  <Rbt.Receptor>
prm/pocket_docking_4.prm

>  <SCORE>
-11.4899

>  <SCORE.INTER>
-11.4899

>  <SCORE.INTER.CONST>
1

>  <SCORE.INTER.POLAR>
0

>  <SCORE.INTER.ROT>
0

>  <SCORE.INTER.SOLV>
21.5329

>  <SCORE.INTER.VDW>
-18.4375

>  <SCORE.INTER.norm>
-1.04453

>  <SCORE.INTRA>
0

>  <SCORE.INTRA.DIHEDRAL>
0

>  <SCORE.INTRA.DIHEDRAL.0>
0

>  <SCORE.INTRA.POLAR>
0

>  <SCORE.INTRA.POLAR.0>
0

>  <SCORE.INTRA.REPUL>
0

>  <SCORE.INTRA.REPUL.0>
0

>  <SCORE.INTRA.SOLV>
0

>  <SCORE.INTRA.SOLV.lig_0>
-48.3454

>  <SCORE.INTRA.VDW>
0

>  <SCORE.INTRA.VDW.0>
0

>  <SCORE.INTRA.norm>
0

>  <SCORE.RESTR>
0

>  <SCORE.RESTR.CAVITY>
0

>  <SCORE.RESTR.norm>
0

>  <SCORE.SYSTEM>
0

>  <SCORE.SYSTEM.CONST>
0

>  <SCORE.SYSTEM.DIHEDRAL>
0

>  <SCORE.SYSTEM.SOLV>
0

>  <SCORE.SYSTEM.norm>
0

>  <SCORE.heavy>
11

>  <SCORE.norm>
-1.04453

>  <RMSD>
0.622

$$$$
ligand
 OpenBabel02271912153D
libRbt.so/2013.1/901 2013/11/27
 11 12  0  0  0  0  0  0  0  0999 V2000
  -11.8362  -12.7727    8.8459 N   0  0  0  0  0  0  0  0  0  0  0  0
  -11.5027  -14.0697    8.9420 C   0  0  0  0  0  0  0  0  0  0  0  0
  -11.5326  -14.6734   10.1268 N   0  0  0  0  0  0  0  0  0  0  0  0
  -11.1290  -14.7608    7.8539 N   0  0  0  0  0  0  0  0  0  0  0  0
  -11.0785  -14.1693    6.6512 C   0  0  0  0  0  0  0  0  0  0  0  0
  -11.4183  -12.8284    6.5239 C   0  0  0  0  0  0  0  0  0  0  0  0
  -11.8048  -12.1342    7.6656 C   0  0  0  0  0  0  0  0  0  0  0  0
  -12.1476  -10.8518    7.5877 N   0  0  0  0  0  0  0  0  0  0  0  0
  -11.2685  -12.4973    5.2449 N   0  0  0  0  0  0  0  0  0  0  0  0
  -10.8519  -13.5789    4.5903 C   0  0  0  0  0  0  0  0  0  0  0  0
  -10.7353  -14.5974    5.4397 N   0  0  0  0  0  0  0  0  0  0  0  0
  1  7  2  0  0  0  0
  1  2  1  0  0  0  0
  2  3  1  0  0  0  0
  2  4  2  0  0  0  0
  4  5  1  0  0  0  0
  5  6  2  0  0  0  0
  5 11  1  0  0  0  0
  6  7  1  0  0  0  0
  6  9  1  0  0  0  0
  7  8  1  0  0  0  0
  9 10  1  0  0  0  0
 10 11  2  0  0  0  0
M  END
>  <CHROM.1>
-11.39557127,-13.35772780,7.24896888,2.03439103,-1.25511618,2.14497695

>  <Name>
ligand

>  <RI>
0

>  <Rbt.Current_Directory>
/home/itssahil/PROJECTS/Mol_Feturizer/Test_systems_manuscript/rnas/2b57

>  <Rbt.Executable>
rbdock ($Id: //depot/dev/client3/rdock/2013.1/src/exe/rbdock.cxx#4 $)

>  <Rbt.Library>
libRbt.so (2013.1, Build901 2013/11/27)

>  <Rbt.Parameter_File>
/export/apps/rDock/src/rDock_2013.1_src/data/scripts/dock_solv.prm

>  <Rbt.Receptor>
prm/pocket_docking_6.prm

>  <SCORE>
-11.5456

>  <SCORE.INTER>
-11.5456

>  <SCORE.INTER.CONST>
1

>  <SCORE.INTER.POLAR>
0

>  <SCORE.INTER.ROT>
0

>  <SCORE.INTER.SOLV>
21.6319

>  <SCORE.INTER.VDW>
-18.5077

>  <SCORE.INTER.norm>
-1.0496

>  <SCORE.INTRA>
0

>  <SCORE.INTRA.DIHEDRAL>
0

>  <SCORE.INTRA.DIHEDRAL.0>
0

>  <SCORE.INTRA.POLAR>
0

>  <SCORE.INTRA.POLAR.0>
0

>  <SCORE.INTRA.REPUL>
0

>  <SCORE.INTRA.REPUL.0>
0

>  <SCORE.INTRA.SOLV>
0

>  <SCORE.INTRA.SOLV.lig_0>
-48.3454

>  <SCORE.INTRA.VDW>
0

>  <SCORE.INTRA.VDW.0>
0

>  <SCORE.INTRA.norm>
0

>  <SCORE.RESTR>
0

>  <SCORE.RESTR.CAVITY>
0

>  <SCORE.RESTR.norm>
0

>  <SCORE.SYSTEM>
0

>  <SCORE.SYSTEM.CONST>
0

>  <SCORE.SYSTEM.DIHEDRAL>
0

>  <SCORE.SYSTEM.SOLV>
0

>  <SCORE.SYSTEM.norm>
0

>  <SCORE.heavy>
11

>  <SCORE.norm>
-1.0496

>  <RMSD>
0.622

$$$$
ligand
 OpenBabel02271912153D
libRbt.so/2013.1/901 2013/11/27
 11 12  0  0  0  0  0  0  0  0999 V2000
  -11.8816  -12.7996    8.8382 N   0  0  0  0  0  0  0  0  0  0  0  0
  -11.5141  -14.0873    8.9361 C   0  0  0  0  0  0  0  0  0  0  0  0
  -11.5363  -14.6922   10.1204 N   0  0  0  0  0  0  0  0  0  0  0  0
  -11.1144  -14.7675    7.8505 N   0  0  0  0  0  0  0  0  0  0  0  0
  -11.0712  -14.1742    6.6483 C   0  0  0  0  0  0  0  0  0  0  0  0
  -11.4459  -12.8429    6.5192 C   0  0  0  0  0  0  0  0  0  0  0  0
  -11.8589  -12.1598    7.6583 C   0  0  0  0  0  0  0  0  0  0  0  0
  -12.2354  -10.8870    7.5785 N   0  0  0  0  0  0  0  0  0  0  0  0
  -11.2959  -12.5071    5.2414 N   0  0  0  0  0  0  0  0  0  0  0  0
  -10.8459  -13.5768    4.5893 C   0  0  0  0  0  0  0  0  0  0  0  0
  -10.7081  -14.5923    5.4392 N   0  0  0  0  0  0  0  0  0  0  0  0
  1  7  2  0  0  0  0
  1  2  1  0  0  0  0
  2  3  1  0  0  0  0
  2  4  2  0  0  0  0
  4  5  1  0  0  0  0
  5  6  2  0  0  0  0
  5 11  1  0  0  0  0
  6  7  1  0  0  0  0
  6  9  1  0  0  0  0
  7  8  1  0  0  0  0
  9 10  1  0  0  0  0
 10 11  2  0  0  0  0
M  END
>  <CHROM.1>
-11.41412418,-13.37173765,7.24416607,2.00876396,-1.22868427,2.12117682

>  <Name>
ligand

>  <RI>
0

>  <Rbt.Current_Directory>
/home/itssahil/PROJECTS/Mol_Feturizer/Test_systems_manuscript/rnas/2b57

>  <Rbt.Executable>
rbdock ($Id: //depot/dev/client3/rdock/2013.1/src/exe/rbdock.cxx#4 $)

>  <Rbt.Library>
libRbt.so (2013.1, Build901 2013/11/27)

>  <Rbt.Parameter_File>
/export/apps/rDock/src/rDock_2013.1_src/data/scripts/dock_solv.prm

>  <Rbt.Receptor>
prm/pocket_docking_7.prm

>  <SCORE>
-11.5391

>  <SCORE.INTER>
-11.5391

>  <SCORE.INTER.CONST>
1

>  <SCORE.INTER.POLAR>
0

>  <SCORE.INTER.ROT>
0

>  <SCORE.INTER.SOLV>
21.3439

>  <SCORE.INTER.VDW>
-18.4074

>  <SCORE.INTER.norm>
-1.04901

>  <SCORE.INTRA>
0

>  <SCORE.INTRA.DIHEDRAL>
0

>  <SCORE.INTRA.DIHEDRAL.0>
0

>  <SCORE.INTRA.POLAR>
0

>  <SCORE.INTRA.POLAR.0>
0

>  <SCORE.INTRA.REPUL>
0

>  <SCORE.INTRA.REPUL.0>
0

>  <SCORE.INTRA.SOLV>
0

>  <SCORE.INTRA.SOLV.lig_0>
-48.3454

>  <SCORE.INTRA.VDW>
0

>  <SCORE.INTRA.VDW.0>
0

>  <SCORE.INTRA.norm>
0

>  <SCORE.RESTR>
0

>  <SCORE.RESTR.CAVITY>
0

>  <SCORE.RESTR.norm>
0

>  <SCORE.SYSTEM>
0

>  <SCORE.SYSTEM.CONST>
0

>  <SCORE.SYSTEM.DIHEDRAL>
0

>  <SCORE.SYSTEM.SOLV>
0

>  <SCORE.SYSTEM.norm>
0

>  <SCORE.heavy>
11

>  <SCORE.norm>
-1.04901

>  <RMSD>
0.622

$$$$
ligand
 OpenBabel02271912153D
libRbt.so/2013.1/901 2013/11/27
 11 12  0  0  0  0  0  0  0  0999 V2000
  -11.8456  -12.7917    8.8484 N   0  0  0  0  0  0  0  0  0  0  0  0
  -11.5067  -14.0877    8.9400 C   0  0  0  0  0  0  0  0  0  0  0  0
  -11.5366  -14.6961   10.1224 N   0  0  0  0  0  0  0  0  0  0  0  0
  -11.1276  -14.7728    7.8501 N   0  0  0  0  0  0  0  0  0  0  0  0
  -11.0770  -14.1763    6.6498 C   0  0  0  0  0  0  0  0  0  0  0  0
  -11.4224  -12.8364    6.5271 C   0  0  0  0  0  0  0  0  0  0  0  0
  -11.8144  -12.1484    7.6706 C   0  0  0  0  0  0  0  0  0  0  0  0
  -12.1627  -10.8672    7.5971 N   0  0  0  0  0  0  0  0  0  0  0  0
  -11.2712  -12.4996    5.2498 N   0  0  0  0  0  0  0  0  0  0  0  0
  -10.8485  -13.5767    4.5918 C   0  0  0  0  0  0  0  0  0  0  0  0
  -10.7293  -14.5981    5.4374 N   0  0  0  0  0  0  0  0  0  0  0  0
  1  7  2  0  0  0  0
  1  2  1  0  0  0  0
  2  3  1  0  0  0  0
  2  4  2  0  0  0  0
  4  5  1  0  0  0  0
  5  6  2  0  0  0  0
  5 11  1  0  0  0  0
  6  7  1  0  0  0  0
  6  9  1  0  0  0  0
  7  8  1  0  0  0  0
  9 10  1  0  0  0  0
 10 11  2  0  0  0  0
M  END
>  <CHROM.1>
-11.39894600,-13.36849667,7.25010310,2.03274547,-1.25026735,2.14736701

>  <Name>
ligand

>  <RI>
0

>  <Rbt.Current_Directory>
/home/itssahil/PROJECTS/Mol_Feturizer/Test_systems_manuscript/rnas/2b57

>  <Rbt.Executable>
rbdock ($Id: //depot/dev/client3/rdock/2013.1/src/exe/rbdock.cxx#4 $)

>  <Rbt.Library>
libRbt.so (2013.1, Build901 2013/11/27)

>  <Rbt.Parameter_File>
/export/apps/rDock/src/rDock_2013.1_src/data/scripts/dock_solv.prm

>  <Rbt.Receptor>
prm/pocket_docking_5.prm

>  <SCORE>
-11.558

>  <SCORE.INTER>
-11.558

>  <SCORE.INTER.CONST>
1

>  <SCORE.INTER.POLAR>
0

>  <SCORE.INTER.ROT>
0

>  <SCORE.INTER.SOLV>
21.5984

>  <SCORE.INTER.VDW>
-18.5048

>  <SCORE.INTER.norm>
-1.05073

>  <SCORE.INTRA>
0

>  <SCORE.INTRA.DIHEDRAL>
0

>  <SCORE.INTRA.DIHEDRAL.0>
0

>  <SCORE.INTRA.POLAR>
0

>  <SCORE.INTRA.POLAR.0>
0

>  <SCORE.INTRA.REPUL>
0

>  <SCORE.INTRA.REPUL.0>
0

>  <SCORE.INTRA.SOLV>
0

>  <SCORE.INTRA.SOLV.lig_0>
-48.3454

>  <SCORE.INTRA.VDW>
0

>  <SCORE.INTRA.VDW.0>
0

>  <SCORE.INTRA.norm>
0

>  <SCORE.RESTR>
0

>  <SCORE.RESTR.CAVITY>
0

>  <SCORE.RESTR.norm>
0

>  <SCORE.SYSTEM>
0

>  <SCORE.SYSTEM.CONST>
0

>  <SCORE.SYSTEM.DIHEDRAL>
0

>  <SCORE.SYSTEM.SOLV>
0

>  <SCORE.SYSTEM.norm>
0

>  <SCORE.heavy>
11

>  <SCORE.norm>
-1.05073

>  <RMSD>
0.623

$$$$
ligand
 OpenBabel02271912153D
libRbt.so/2013.1/901 2013/11/27
 11 12  0  0  0  0  0  0  0  0999 V2000
  -11.8428  -12.7429    8.8369 N   0  0  0  0  0  0  0  0  0  0  0  0
  -11.4949  -14.0374    8.9149 C   0  0  0  0  0  0  0  0  0  0  0  0
  -11.5158  -14.6571   10.0915 N   0  0  0  0  0  0  0  0  0  0  0  0
  -11.1159  -14.7097    7.8169 N   0  0  0  0  0  0  0  0  0  0  0  0
  -11.0743  -14.1017    6.6222 C   0  0  0  0  0  0  0  0  0  0  0  0
  -11.4291  -12.7630    6.5135 C   0  0  0  0  0  0  0  0  0  0  0  0
  -11.8208  -12.0883    7.6651 C   0  0  0  0  0  0  0  0  0  0  0  0
  -12.1778  -10.8088    7.6051 N   0  0  0  0  0  0  0  0  0  0  0  0
  -11.2854  -12.4131    5.2388 N   0  0  0  0  0  0  0  0  0  0  0  0
  -10.8584  -13.4813    4.5689 C   0  0  0  0  0  0  0  0  0  0  0  0
  -10.7289  -14.5097    5.4044 N   0  0  0  0  0  0  0  0  0  0  0  0
  1  7  2  0  0  0  0
  1  2  1  0  0  0  0
  2  3  1  0  0  0  0
  2  4  2  0  0  0  0
  4  5  1  0  0  0  0
  5  6  2  0  0  0  0
  5 11  1  0  0  0  0
  6  7  1  0  0  0  0
  6  9  1  0  0  0  0
  7  8  1  0  0  0  0
  9 10  1  0  0  0  0
 10 11  2  0  0  0  0
M  END
>  <CHROM.1>
-11.39905157,-13.30165680,7.23136987,2.01036475,-1.24695169,2.13555053

>  <Name>
ligand

>  <RI>
0

>  <Rbt.Current_Directory>
/home/itssahil/PROJECTS/Mol_Feturizer/Test_systems_manuscript/rnas/2b57

>  <Rbt.Executable>
rbdock ($Id: //depot/dev/client3/rdock/2013.1/src/exe/rbdock.cxx#4 $)

>  <Rbt.Library>
libRbt.so (2013.1, Build901 2013/11/27)

>  <Rbt.Parameter_File>
/export/apps/rDock/src/rDock_2013.1_src/data/scripts/dock_solv.prm

>  <Rbt.Receptor>
prm/pocket_docking_3.prm

>  <SCORE>
-11.4672

>  <SCORE.INTER>
-11.4672

>  <SCORE.INTER.CONST>
1

>  <SCORE.INTER.POLAR>
0

>  <SCORE.INTER.ROT>
0

>  <SCORE.INTER.SOLV>
21.5462

>  <SCORE.INTER.VDW>
-18.4269

>  <SCORE.INTER.norm>
-1.04248

>  <SCORE.INTRA>
0

>  <SCORE.INTRA.DIHEDRAL>
0

>  <SCORE.INTRA.DIHEDRAL.0>
0

>  <SCORE.INTRA.POLAR>
0

>  <SCORE.INTRA.POLAR.0>
0

>  <SCORE.INTRA.REPUL>
0

>  <SCORE.INTRA.REPUL.0>
0

>  <SCORE.INTRA.SOLV>
0

>  <SCORE.INTRA.SOLV.lig_0>
-48.3454

>  <SCORE.INTRA.VDW>
0

>  <SCORE.INTRA.VDW.0>
0

>  <SCORE.INTRA.norm>
0

>  <SCORE.RESTR>
0

>  <SCORE.RESTR.CAVITY>
0

>  <SCORE.RESTR.norm>
0

>  <SCORE.SYSTEM>
0

>  <SCORE.SYSTEM.CONST>
0

>  <SCORE.SYSTEM.DIHEDRAL>
0

>  <SCORE.SYSTEM.SOLV>
0

>  <SCORE.SYSTEM.norm>
0

>  <SCORE.heavy>
11

>  <SCORE.norm>
-1.04248

>  <RMSD>
0.624

$$$$
ligand
 OpenBabel02271912153D
libRbt.so/2013.1/901 2013/11/27
 11 12  0  0  0  0  0  0  0  0999 V2000
  -11.8414  -12.7458    8.8382 N   0  0  0  0  0  0  0  0  0  0  0  0
  -11.5012  -14.0422    8.9169 C   0  0  0  0  0  0  0  0  0  0  0  0
  -11.5261  -14.6613   10.0937 N   0  0  0  0  0  0  0  0  0  0  0  0
  -11.1258  -14.7172    7.8193 N   0  0  0  0  0  0  0  0  0  0  0  0
  -11.0803  -14.1099    6.6243 C   0  0  0  0  0  0  0  0  0  0  0  0
  -11.4271  -12.7692    6.5150 C   0  0  0  0  0  0  0  0  0  0  0  0
  -11.8152  -12.0918    7.6662 C   0  0  0  0  0  0  0  0  0  0  0  0
  -12.1647  -10.8103    7.6055 N   0  0  0  0  0  0  0  0  0  0  0  0
  -11.2811  -12.4207    5.2402 N   0  0  0  0  0  0  0  0  0  0  0  0
  -10.8601  -13.4916    4.5709 C   0  0  0  0  0  0  0  0  0  0  0  0
  -10.7369  -14.5204    5.4068 N   0  0  0  0  0  0  0  0  0  0  0  0
  1  7  2  0  0  0  0
  1  2  1  0  0  0  0
  2  3  1  0  0  0  0
  2  4  2  0  0  0  0
  4  5  1  0  0  0  0
  5  6  2  0  0  0  0
  5 11  1  0  0  0  0
  6  7  1  0  0  0  0
  6  9  1  0  0  0  0
  7  8  1  0  0  0  0
  9 10  1  0  0  0  0
 10 11  2  0  0  0  0
M  END
>  <CHROM.1>
-11.40048201,-13.30775040,7.23306451,2.02116701,-1.25172661,2.14538546

>  <Name>
ligand

>  <RI>
0

>  <Rbt.Current_Directory>
/home/itssahil/PROJECTS/Mol_Feturizer/Test_systems_manuscript/rnas/2b57

>  <Rbt.Executable>
rbdock ($Id: //depot/dev/client3/rdock/2013.1/src/exe/rbdock.cxx#4 $)

>  <Rbt.Library>
libRbt.so (2013.1, Build901 2013/11/27)

>  <Rbt.Parameter_File>
/export/apps/rDock/src/rDock_2013.1_src/data/scripts/dock_solv.prm

>  <Rbt.Receptor>
prm/pocket_docking_5.prm

>  <SCORE>
-11.4638

>  <SCORE.INTER>
-11.4638

>  <SCORE.INTER.CONST>
1

>  <SCORE.INTER.POLAR>
0

>  <SCORE.INTER.ROT>
0

>  <SCORE.INTER.SOLV>
21.5941

>  <SCORE.INTER.VDW>
-18.4406

>  <SCORE.INTER.norm>
-1.04216

>  <SCORE.INTRA>
0

>  <SCORE.INTRA.DIHEDRAL>
0

>  <SCORE.INTRA.DIHEDRAL.0>
0

>  <SCORE.INTRA.POLAR>
0

>  <SCORE.INTRA.POLAR.0>
0

>  <SCORE.INTRA.REPUL>
0

>  <SCORE.INTRA.REPUL.0>
0

>  <SCORE.INTRA.SOLV>
0

>  <SCORE.INTRA.SOLV.lig_0>
-48.3454

>  <SCORE.INTRA.VDW>
0

>  <SCORE.INTRA.VDW.0>
0

>  <SCORE.INTRA.norm>
0

>  <SCORE.RESTR>
0

>  <SCORE.RESTR.CAVITY>
0

>  <SCORE.RESTR.norm>
0

>  <SCORE.SYSTEM>
0

>  <SCORE.SYSTEM.CONST>
0

>  <SCORE.SYSTEM.DIHEDRAL>
0

>  <SCORE.SYSTEM.SOLV>
0

>  <SCORE.SYSTEM.norm>
0

>  <SCORE.heavy>
11

>  <SCORE.norm>
-1.04216

>  <RMSD>
0.624

$$$$
ligand
 OpenBabel02271912153D
libRbt.so/2013.1/901 2013/11/27
 11 12  0  0  0  0  0  0  0  0999 V2000
  -11.8332  -12.7944    8.8540 N   0  0  0  0  0  0  0  0  0  0  0  0
  -11.5056  -14.0937    8.9402 C   0  0  0  0  0  0  0  0  0  0  0  0
  -11.5387  -14.7062   10.1203 N   0  0  0  0  0  0  0  0  0  0  0  0
  -11.1348  -14.7781    7.8470 N   0  0  0  0  0  0  0  0  0  0  0  0
  -11.0813  -14.1777    6.6488 C   0  0  0  0  0  0  0  0  0  0  0  0
  -11.4150  -12.8343    6.5317 C   0  0  0  0  0  0  0  0  0  0  0  0
  -11.7986  -12.1470    7.6786 C   0  0  0  0  0  0  0  0  0  0  0  0
  -12.1355  -10.8625    7.6104 N   0  0  0  0  0  0  0  0  0  0  0  0
  -11.2632  -12.4941    5.2553 N   0  0  0  0  0  0  0  0  0  0  0  0
  -10.8515  -13.5726    4.5925 C   0  0  0  0  0  0  0  0  0  0  0  0
  -10.7397  -14.5981    5.4342 N   0  0  0  0  0  0  0  0  0  0  0  0
  1  7  2  0  0  0  0
  1  2  1  0  0  0  0
  2  3  1  0  0  0  0
  2  4  2  0  0  0  0
  4  5  1  0  0  0  0
  5  6  2  0  0  0  0
  5 11  1  0  0  0  0
  6  7  1  0  0  0  0
  6  9  1  0  0  0  0
  7  8  1  0  0  0  0
  9 10  1  0  0  0  0
 10 11  2  0  0  0  0
M  END
>  <CHROM.1>
-11.39481610,-13.36924657,7.25271010,2.04322981,-1.25879752,2.16101476

>  <Name>
ligand

>  <RI>
0

>  <Rbt.Current_Directory>
/home/itssahil/PROJECTS/Mol_Feturizer/Test_systems_manuscript/rnas/2b57

>  <Rbt.Executable>
rbdock ($Id: //depot/dev/client3/rdock/2013.1/src/exe/rbdock.cxx#4 $)

>  <Rbt.Library>
libRbt.so (2013.1, Build901 2013/11/27)

>  <Rbt.Parameter_File>
/export/apps/rDock/src/rDock_2013.1_src/data/scripts/dock_solv.prm

>  <Rbt.Receptor>
prm/pocket_docking_7.prm

>  <SCORE>
-11.5324

>  <SCORE.INTER>
-11.5324

>  <SCORE.INTER.CONST>
1

>  <SCORE.INTER.POLAR>
0

>  <SCORE.INTER.ROT>
0

>  <SCORE.INTER.SOLV>
21.7248

>  <SCORE.INTER.VDW>
-18.5299

>  <SCORE.INTER.norm>
-1.0484

>  <SCORE.INTRA>
0

>  <SCORE.INTRA.DIHEDRAL>
0

>  <SCORE.INTRA.DIHEDRAL.0>
0

>  <SCORE.INTRA.POLAR>
0

>  <SCORE.INTRA.POLAR.0>
0

>  <SCORE.INTRA.REPUL>
0

>  <SCORE.INTRA.REPUL.0>
0

>  <SCORE.INTRA.SOLV>
0

>  <SCORE.INTRA.SOLV.lig_0>
-48.3454

>  <SCORE.INTRA.VDW>
0

>  <SCORE.INTRA.VDW.0>
0

>  <SCORE.INTRA.norm>
0

>  <SCORE.RESTR>
0

>  <SCORE.RESTR.CAVITY>
0

>  <SCORE.RESTR.norm>
0

>  <SCORE.SYSTEM>
0

>  <SCORE.SYSTEM.CONST>
0

>  <SCORE.SYSTEM.DIHEDRAL>
0

>  <SCORE.SYSTEM.SOLV>
0

>  <SCORE.SYSTEM.norm>
0

>  <SCORE.heavy>
11

>  <SCORE.norm>
-1.0484

>  <RMSD>
0.624

$$$$
ligand
 OpenBabel02271912153D
libRbt.so/2013.1/901 2013/11/27
 11 12  0  0  0  0  0  0  0  0999 V2000
  -11.8409  -12.7396    8.8354 N   0  0  0  0  0  0  0  0  0  0  0  0
  -11.4903  -14.0333    8.9135 C   0  0  0  0  0  0  0  0  0  0  0  0
  -11.5087  -14.6526   10.0904 N   0  0  0  0  0  0  0  0  0  0  0  0
  -11.1111  -14.7052    7.8154 N   0  0  0  0  0  0  0  0  0  0  0  0
  -11.0720  -14.0975    6.6204 C   0  0  0  0  0  0  0  0  0  0  0  0
  -11.4296  -12.7596    6.5117 C   0  0  0  0  0  0  0  0  0  0  0  0
  -11.8215  -12.0853    7.6634 C   0  0  0  0  0  0  0  0  0  0  0  0
  -12.1812  -10.8066    7.6033 N   0  0  0  0  0  0  0  0  0  0  0  0
  -11.2881  -12.4099    5.2367 N   0  0  0  0  0  0  0  0  0  0  0  0
  -10.8596  -13.4773    4.5667 C   0  0  0  0  0  0  0  0  0  0  0  0
  -10.7271  -14.5052    5.4024 N   0  0  0  0  0  0  0  0  0  0  0  0
  1  7  2  0  0  0  0
  1  2  1  0  0  0  0
  2  3  1  0  0  0  0
  2  4  2  0  0  0  0
  4  5  1  0  0  0  0
  5  6  2  0  0  0  0
  5 11  1  0  0  0  0
  6  7  1  0  0  0  0
  6  9  1  0  0  0  0
  7  8  1  0  0  0  0
  9 10  1  0  0  0  0
 10 11  2  0  0  0  0
M  END
>  <CHROM.1>
-11.39772412,-13.29793013,7.22967374,2.00409098,-1.24578700,2.12925652

>  <Name>
ligand

>  <RI>
0

>  <Rbt.Current_Directory>
/home/itssahil/PROJECTS/Mol_Feturizer/Test_systems_manuscript/rnas/2b57

>  <Rbt.Executable>
rbdock ($Id: //depot/dev/client3/rdock/2013.1/src/exe/rbdock.cxx#4 $)

>  <Rbt.Library>
libRbt.so (2013.1, Build901 2013/11/27)

>  <Rbt.Parameter_File>
/export/apps/rDock/src/rDock_2013.1_src/data/scripts/dock_solv.prm

>  <Rbt.Receptor>
prm/blind_docking_40.prm

>  <SCORE>
-11.4677

>  <SCORE.INTER>
-11.4677

>  <SCORE.INTER.CONST>
1

>  <SCORE.INTER.POLAR>
0

>  <SCORE.INTER.ROT>
0

>  <SCORE.INTER.SOLV>
21.5314

>  <SCORE.INTER.VDW>
-18.4223

>  <SCORE.INTER.norm>
-1.04252

>  <SCORE.INTRA>
0

>  <SCORE.INTRA.DIHEDRAL>
0

>  <SCORE.INTRA.DIHEDRAL.0>
0

>  <SCORE.INTRA.POLAR>
0

>  <SCORE.INTRA.POLAR.0>
0

>  <SCORE.INTRA.REPUL>
0

>  <SCORE.INTRA.REPUL.0>
0

>  <SCORE.INTRA.SOLV>
0

>  <SCORE.INTRA.SOLV.lig_0>
-48.3454

>  <SCORE.INTRA.VDW>
0

>  <SCORE.INTRA.VDW.0>
0

>  <SCORE.INTRA.norm>
0

>  <SCORE.RESTR>
0

>  <SCORE.RESTR.CAVITY>
0

>  <SCORE.RESTR.norm>
0

>  <SCORE.SYSTEM>
0

>  <SCORE.SYSTEM.CONST>
0

>  <SCORE.SYSTEM.DIHEDRAL>
0

>  <SCORE.SYSTEM.SOLV>
0

>  <SCORE.SYSTEM.norm>
0

>  <SCORE.heavy>
11

>  <SCORE.norm>
-1.04252

>  <RMSD>
0.625

$$$$
ligand
 OpenBabel02271912153D
libRbt.so/2013.1/901 2013/11/27
 11 12  0  0  0  0  0  0  0  0999 V2000
  -11.8282  -12.7585    8.8442 N   0  0  0  0  0  0  0  0  0  0  0  0
  -11.4973  -14.0566    8.9354 C   0  0  0  0  0  0  0  0  0  0  0  0
  -11.5140  -14.6607   10.1202 N   0  0  0  0  0  0  0  0  0  0  0  0
  -11.1395  -14.7482    7.8424 N   0  0  0  0  0  0  0  0  0  0  0  0
  -11.1025  -14.1563    6.6394 C   0  0  0  0  0  0  0  0  0  0  0  0
  -11.4400  -12.8144    6.5170 C   0  0  0  0  0  0  0  0  0  0  0  0
  -11.8099  -12.1195    7.6638 C   0  0  0  0  0  0  0  0  0  0  0  0
  -12.1500  -10.8361    7.5908 N   0  0  0  0  0  0  0  0  0  0  0  0
  -11.3054  -12.4831    5.2364 N   0  0  0  0  0  0  0  0  0  0  0  0
  -10.9003  -13.5656    4.5760 C   0  0  0  0  0  0  0  0  0  0  0  0
  -10.7759  -14.5848    5.4235 N   0  0  0  0  0  0  0  0  0  0  0  0
  1  7  2  0  0  0  0
  1  2  1  0  0  0  0
  2  3  1  0  0  0  0
  2  4  2  0  0  0  0
  4  5  1  0  0  0  0
  5  6  2  0  0  0  0
  5 11  1  0  0  0  0
  6  7  1  0  0  0  0
  6  9  1  0  0  0  0
  7  8  1  0  0  0  0
  9 10  1  0  0  0  0
 10 11  2  0  0  0  0
M  END
>  <CHROM.1>
-11.40957165,-13.34409362,7.24149645,2.00439512,-1.26432778,2.11685145

>  <Name>
ligand

>  <RI>
0

>  <Rbt.Current_Directory>
/home/itssahil/PROJECTS/Mol_Feturizer/Test_systems_manuscript/rnas/2b57

>  <Rbt.Executable>
rbdock ($Id: //depot/dev/client3/rdock/2013.1/src/exe/rbdock.cxx#4 $)

>  <Rbt.Library>
libRbt.so (2013.1, Build901 2013/11/27)

>  <Rbt.Parameter_File>
/export/apps/rDock/src/rDock_2013.1_src/data/scripts/dock_solv.prm

>  <Rbt.Receptor>
prm/pocket_docking_3.prm

>  <SCORE>
-11.5205

>  <SCORE.INTER>
-11.5205

>  <SCORE.INTER.CONST>
1

>  <SCORE.INTER.POLAR>
0

>  <SCORE.INTER.ROT>
0

>  <SCORE.INTER.SOLV>
21.6389

>  <SCORE.INTER.VDW>
-18.4933

>  <SCORE.INTER.norm>
-1.04732

>  <SCORE.INTRA>
0

>  <SCORE.INTRA.DIHEDRAL>
0

>  <SCORE.INTRA.DIHEDRAL.0>
0

>  <SCORE.INTRA.POLAR>
0

>  <SCORE.INTRA.POLAR.0>
0

>  <SCORE.INTRA.REPUL>
0

>  <SCORE.INTRA.REPUL.0>
0

>  <SCORE.INTRA.SOLV>
0

>  <SCORE.INTRA.SOLV.lig_0>
-48.3454

>  <SCORE.INTRA.VDW>
0

>  <SCORE.INTRA.VDW.0>
0

>  <SCORE.INTRA.norm>
0

>  <SCORE.RESTR>
0

>  <SCORE.RESTR.CAVITY>
0

>  <SCORE.RESTR.norm>
0

>  <SCORE.SYSTEM>
0

>  <SCORE.SYSTEM.CONST>
0

>  <SCORE.SYSTEM.DIHEDRAL>
0

>  <SCORE.SYSTEM.SOLV>
0

>  <SCORE.SYSTEM.norm>
0

>  <SCORE.heavy>
11

>  <SCORE.norm>
-1.04732

>  <RMSD>
0.625

$$$$
ligand
 OpenBabel02271912153D
libRbt.so/2013.1/901 2013/11/27
 11 12  0  0  0  0  0  0  0  0999 V2000
  -11.8256  -12.7574    8.8420 N   0  0  0  0  0  0  0  0  0  0  0  0
  -11.4625  -14.0474    8.9240 C   0  0  0  0  0  0  0  0  0  0  0  0
  -11.4767  -14.6639   10.1025 N   0  0  0  0  0  0  0  0  0  0  0  0
  -11.0751  -14.7184    7.8282 N   0  0  0  0  0  0  0  0  0  0  0  0
  -11.0402  -14.1135    6.6316 C   0  0  0  0  0  0  0  0  0  0  0  0
  -11.4107  -12.7795    6.5189 C   0  0  0  0  0  0  0  0  0  0  0  0
  -11.8108  -12.1060    7.6683 C   0  0  0  0  0  0  0  0  0  0  0  0
  -12.1829  -10.8310    7.6043 N   0  0  0  0  0  0  0  0  0  0  0  0
  -11.2706  -12.4317    5.2432 N   0  0  0  0  0  0  0  0  0  0  0  0
  -10.8307  -13.4967    4.5767 C   0  0  0  0  0  0  0  0  0  0  0  0
  -10.6895  -14.5210    5.4153 N   0  0  0  0  0  0  0  0  0  0  0  0
  1  7  2  0  0  0  0
  1  2  1  0  0  0  0
  2  3  1  0  0  0  0
  2  4  2  0  0  0  0
  4  5  1  0  0  0  0
  5  6  2  0  0  0  0
  5 11  1  0  0  0  0
  6  7  1  0  0  0  0
  6  9  1  0  0  0  0
  7  8  1  0  0  0  0
  9 10  1  0  0  0  0
 10 11  2  0  0  0  0
M  END
>  <CHROM.1>
-11.37460579,-13.31558924,7.23833594,1.99223920,-1.23670179,2.11543583

>  <Name>
ligand

>  <RI>
0

>  <Rbt.Current_Directory>
/home/itssahil/PROJECTS/Mol_Feturizer/Test_systems_manuscript/rnas/2b57

>  <Rbt.Executable>
rbdock ($Id: //depot/dev/client3/rdock/2013.1/src/exe/rbdock.cxx#4 $)

>  <Rbt.Library>
libRbt.so (2013.1, Build901 2013/11/27)

>  <Rbt.Parameter_File>
/export/apps/rDock/src/rDock_2013.1_src/data/scripts/dock_solv.prm

>  <Rbt.Receptor>
prm/pocket_docking_4.prm

>  <SCORE>
-11.4746

>  <SCORE.INTER>
-11.4746

>  <SCORE.INTER.CONST>
1

>  <SCORE.INTER.POLAR>
0

>  <SCORE.INTER.ROT>
0

>  <SCORE.INTER.SOLV>
21.5038

>  <SCORE.INTER.VDW>
-18.4177

>  <SCORE.INTER.norm>
-1.04315

>  <SCORE.INTRA>
0

>  <SCORE.INTRA.DIHEDRAL>
0

>  <SCORE.INTRA.DIHEDRAL.0>
0

>  <SCORE.INTRA.POLAR>
0

>  <SCORE.INTRA.POLAR.0>
0

>  <SCORE.INTRA.REPUL>
0

>  <SCORE.INTRA.REPUL.0>
0

>  <SCORE.INTRA.SOLV>
0

>  <SCORE.INTRA.SOLV.lig_0>
-48.3454

>  <SCORE.INTRA.VDW>
0

>  <SCORE.INTRA.VDW.0>
0

>  <SCORE.INTRA.norm>
0

>  <SCORE.RESTR>
0

>  <SCORE.RESTR.CAVITY>
0

>  <SCORE.RESTR.norm>
0

>  <SCORE.SYSTEM>
0

>  <SCORE.SYSTEM.CONST>
0

>  <SCORE.SYSTEM.DIHEDRAL>
0

>  <SCORE.SYSTEM.SOLV>
0

>  <SCORE.SYSTEM.norm>
0

>  <SCORE.heavy>
11

>  <SCORE.norm>
-1.04315

>  <RMSD>
0.625

$$$$
ligand
 OpenBabel02271912153D
libRbt.so/2013.1/901 2013/11/27
 11 12  0  0  0  0  0  0  0  0999 V2000
  -11.8390  -12.7638    8.8389 N   0  0  0  0  0  0  0  0  0  0  0  0
  -11.4961  -14.0589    8.9267 C   0  0  0  0  0  0  0  0  0  0  0  0
  -11.5281  -14.6720   10.1065 N   0  0  0  0  0  0  0  0  0  0  0  0
  -11.1110  -14.7385    7.8354 N   0  0  0  0  0  0  0  0  0  0  0  0
  -11.0582  -14.1373    6.6376 C   0  0  0  0  0  0  0  0  0  0  0  0
  -11.4076  -12.7981    6.5190 C   0  0  0  0  0  0  0  0  0  0  0  0
  -11.8058  -12.1157    7.6638 C   0  0  0  0  0  0  0  0  0  0  0  0
  -12.1579  -10.8354    7.5939 N   0  0  0  0  0  0  0  0  0  0  0  0
  -11.2530  -12.4557    5.2434 N   0  0  0  0  0  0  0  0  0  0  0  0
  -10.8245  -13.5290    4.5827 C   0  0  0  0  0  0  0  0  0  0  0  0
  -10.7049  -14.5532    5.4249 N   0  0  0  0  0  0  0  0  0  0  0  0
  1  7  2  0  0  0  0
  1  2  1  0  0  0  0
  2  3  1  0  0  0  0
  2  4  2  0  0  0  0
  4  5  1  0  0  0  0
  5  6  2  0  0  0  0
  5 11  1  0  0  0  0
  6  7  1  0  0  0  0
  6  9  1  0  0  0  0
  7  8  1  0  0  0  0
  9 10  1  0  0  0  0
 10 11  2  0  0  0  0
M  END
>  <CHROM.1>
-11.38484686,-13.33283190,7.23993827,2.03625905,-1.24563400,2.15457604

>  <Name>
ligand

>  <RI>
0

>  <Rbt.Current_Directory>
/home/itssahil/PROJECTS/Mol_Feturizer/Test_systems_manuscript/rnas/2b57

>  <Rbt.Executable>
rbdock ($Id: //depot/dev/client3/rdock/2013.1/src/exe/rbdock.cxx#4 $)

>  <Rbt.Library>
libRbt.so (2013.1, Build901 2013/11/27)

>  <Rbt.Parameter_File>
/export/apps/rDock/src/rDock_2013.1_src/data/scripts/dock_solv.prm

>  <Rbt.Receptor>
prm/pocket_docking_5.prm

>  <SCORE>
-11.4796

>  <SCORE.INTER>
-11.4796

>  <SCORE.INTER.CONST>
1

>  <SCORE.INTER.POLAR>
0

>  <SCORE.INTER.ROT>
0

>  <SCORE.INTER.SOLV>
21.5928

>  <SCORE.INTER.VDW>
-18.4507

>  <SCORE.INTER.norm>
-1.0436

>  <SCORE.INTRA>
0

>  <SCORE.INTRA.DIHEDRAL>
0

>  <SCORE.INTRA.DIHEDRAL.0>
0

>  <SCORE.INTRA.POLAR>
0

>  <SCORE.INTRA.POLAR.0>
0

>  <SCORE.INTRA.REPUL>
0

>  <SCORE.INTRA.REPUL.0>
0

>  <SCORE.INTRA.SOLV>
0

>  <SCORE.INTRA.SOLV.lig_0>
-48.3454

>  <SCORE.INTRA.VDW>
0

>  <SCORE.INTRA.VDW.0>
0

>  <SCORE.INTRA.norm>
0

>  <SCORE.RESTR>
0

>  <SCORE.RESTR.CAVITY>
0

>  <SCORE.RESTR.norm>
0

>  <SCORE.SYSTEM>
0

>  <SCORE.SYSTEM.CONST>
0

>  <SCORE.SYSTEM.DIHEDRAL>
0

>  <SCORE.SYSTEM.SOLV>
0

>  <SCORE.SYSTEM.norm>
0

>  <SCORE.heavy>
11

>  <SCORE.norm>
-1.0436

>  <RMSD>
0.625

$$$$
ligand
 OpenBabel02271912153D
libRbt.so/2013.1/901 2013/11/27
 11 12  0  0  0  0  0  0  0  0999 V2000
  -11.8410  -12.7403    8.8352 N   0  0  0  0  0  0  0  0  0  0  0  0
  -11.4933  -14.0348    8.9141 C   0  0  0  0  0  0  0  0  0  0  0  0
  -11.5095  -14.6524   10.0919 N   0  0  0  0  0  0  0  0  0  0  0  0
  -11.1192  -14.7092    7.8157 N   0  0  0  0  0  0  0  0  0  0  0  0
  -11.0824  -14.1033    6.6197 C   0  0  0  0  0  0  0  0  0  0  0  0
  -11.4371  -12.7647    6.5102 C   0  0  0  0  0  0  0  0  0  0  0  0
  -11.8236  -12.0878    7.6622 C   0  0  0  0  0  0  0  0  0  0  0  0
  -12.1803  -10.8083    7.6014 N   0  0  0  0  0  0  0  0  0  0  0  0
  -11.2987  -12.4171    5.2343 N   0  0  0  0  0  0  0  0  0  0  0  0
  -10.8750  -13.4866    4.5645 C   0  0  0  0  0  0  0  0  0  0  0  0
  -10.7424  -14.5136    5.4012 N   0  0  0  0  0  0  0  0  0  0  0  0
  1  7  2  0  0  0  0
  1  2  1  0  0  0  0
  2  3  1  0  0  0  0
  2  4  2  0  0  0  0
  4  5  1  0  0  0  0
  5  6  2  0  0  0  0
  5 11  1  0  0  0  0
  6  7  1  0  0  0  0
  6  9  1  0  0  0  0
  7  8  1  0  0  0  0
  9 10  1  0  0  0  0
 10 11  2  0  0  0  0
M  END
>  <CHROM.1>
-11.40425090,-13.30207995,7.22886555,1.99975128,-1.24956861,2.12371372

>  <Name>
ligand

>  <RI>
0

>  <Rbt.Current_Directory>
/home/itssahil/PROJECTS/Mol_Feturizer/Test_systems_manuscript/rnas/2b57

>  <Rbt.Executable>
rbdock ($Id: //depot/dev/client3/rdock/2013.1/src/exe/rbdock.cxx#4 $)

>  <Rbt.Library>
libRbt.so (2013.1, Build901 2013/11/27)

>  <Rbt.Parameter_File>
/export/apps/rDock/src/rDock_2013.1_src/data/scripts/dock_solv.prm

>  <Rbt.Receptor>
prm/pocket_docking_6.prm

>  <SCORE>
-11.4646

>  <SCORE.INTER>
-11.4646

>  <SCORE.INTER.CONST>
1

>  <SCORE.INTER.POLAR>
0

>  <SCORE.INTER.ROT>
0

>  <SCORE.INTER.SOLV>
21.5373

>  <SCORE.INTER.VDW>
-18.4221

>  <SCORE.INTER.norm>
-1.04223

>  <SCORE.INTRA>
0

>  <SCORE.INTRA.DIHEDRAL>
0

>  <SCORE.INTRA.DIHEDRAL.0>
0

>  <SCORE.INTRA.POLAR>
0

>  <SCORE.INTRA.POLAR.0>
0

>  <SCORE.INTRA.REPUL>
0

>  <SCORE.INTRA.REPUL.0>
0

>  <SCORE.INTRA.SOLV>
0

>  <SCORE.INTRA.SOLV.lig_0>
-48.3454

>  <SCORE.INTRA.VDW>
0

>  <SCORE.INTRA.VDW.0>
0

>  <SCORE.INTRA.norm>
0

>  <SCORE.RESTR>
0

>  <SCORE.RESTR.CAVITY>
0

>  <SCORE.RESTR.norm>
0

>  <SCORE.SYSTEM>
0

>  <SCORE.SYSTEM.CONST>
0

>  <SCORE.SYSTEM.DIHEDRAL>
0

>  <SCORE.SYSTEM.SOLV>
0

>  <SCORE.SYSTEM.norm>
0

>  <SCORE.heavy>
11

>  <SCORE.norm>
-1.04223

>  <RMSD>
0.626

$$$$
ligand
 OpenBabel02271912153D
libRbt.so/2013.1/901 2013/11/27
 11 12  0  0  0  0  0  0  0  0999 V2000
  -11.8387  -12.7371    8.8348 N   0  0  0  0  0  0  0  0  0  0  0  0
  -11.4863  -14.0303    8.9146 C   0  0  0  0  0  0  0  0  0  0  0  0
  -11.4986  -14.6467   10.0931 N   0  0  0  0  0  0  0  0  0  0  0  0
  -11.1115  -14.7045    7.8164 N   0  0  0  0  0  0  0  0  0  0  0  0
  -11.0786  -14.0998    6.6197 C   0  0  0  0  0  0  0  0  0  0  0  0
  -11.4381  -12.7626    6.5093 C   0  0  0  0  0  0  0  0  0  0  0  0
  -11.8254  -12.0858    7.6611 C   0  0  0  0  0  0  0  0  0  0  0  0
  -12.1867  -10.8076    7.5994 N   0  0  0  0  0  0  0  0  0  0  0  0
  -11.3028  -12.4160    5.2327 N   0  0  0  0  0  0  0  0  0  0  0  0
  -10.8763  -13.4847    4.5635 C   0  0  0  0  0  0  0  0  0  0  0  0
  -10.7389  -14.5103    5.4012 N   0  0  0  0  0  0  0  0  0  0  0  0
  1  7  2  0  0  0  0
  1  2  1  0  0  0  0
  2  3  1  0  0  0  0
  2  4  2  0  0  0  0
  4  5  1  0  0  0  0
  5  6  2  0  0  0  0
  5 11  1  0  0  0  0
  6  7  1  0  0  0  0
  6  9  1  0  0  0  0
  7  8  1  0  0  0  0
  9 10  1  0  0  0  0
 10 11  2  0  0  0  0
M  END
>  <CHROM.1>
-11.40232655,-13.29910494,7.22843250,1.99002061,-1.24730242,2.11339521

>  <Name>
ligand

>  <RI>
0

>  <Rbt.Current_Directory>
/home/itssahil/PROJECTS/Mol_Feturizer/Test_systems_manuscript/rnas/2b57

>  <Rbt.Executable>
rbdock ($Id: //depot/dev/client3/rdock/2013.1/src/exe/rbdock.cxx#4 $)

>  <Rbt.Library>
libRbt.so (2013.1, Build901 2013/11/27)

>  <Rbt.Parameter_File>
/export/apps/rDock/src/rDock_2013.1_src/data/scripts/dock_solv.prm

>  <Rbt.Receptor>
prm/pocket_docking_6.prm

>  <SCORE>
-11.4622

>  <SCORE.INTER>
-11.4622

>  <SCORE.INTER.CONST>
1

>  <SCORE.INTER.POLAR>
0

>  <SCORE.INTER.ROT>
0

>  <SCORE.INTER.SOLV>
21.5097

>  <SCORE.INTER.VDW>
-18.4113

>  <SCORE.INTER.norm>
-1.04201

>  <SCORE.INTRA>
0

>  <SCORE.INTRA.DIHEDRAL>
0

>  <SCORE.INTRA.DIHEDRAL.0>
0

>  <SCORE.INTRA.POLAR>
0

>  <SCORE.INTRA.POLAR.0>
0

>  <SCORE.INTRA.REPUL>
0

>  <SCORE.INTRA.REPUL.0>
0

>  <SCORE.INTRA.SOLV>
0

>  <SCORE.INTRA.SOLV.lig_0>
-48.3454

>  <SCORE.INTRA.VDW>
0

>  <SCORE.INTRA.VDW.0>
0

>  <SCORE.INTRA.norm>
0

>  <SCORE.RESTR>
0

>  <SCORE.RESTR.CAVITY>
0

>  <SCORE.RESTR.norm>
0

>  <SCORE.SYSTEM>
0

>  <SCORE.SYSTEM.CONST>
0

>  <SCORE.SYSTEM.DIHEDRAL>
0

>  <SCORE.SYSTEM.SOLV>
0

>  <SCORE.SYSTEM.norm>
0

>  <SCORE.heavy>
11

>  <SCORE.norm>
-1.04201

>  <RMSD>
0.626

$$$$
ligand
 OpenBabel02271912153D
libRbt.so/2013.1/901 2013/11/27
 11 12  0  0  0  0  0  0  0  0999 V2000
  -11.8485  -12.7680    8.8397 N   0  0  0  0  0  0  0  0  0  0  0  0
  -11.4947  -14.0610    8.9156 C   0  0  0  0  0  0  0  0  0  0  0  0
  -11.5135  -14.6829   10.0911 N   0  0  0  0  0  0  0  0  0  0  0  0
  -11.1121  -14.7296    7.8167 N   0  0  0  0  0  0  0  0  0  0  0  0
  -11.0726  -14.1192    6.6230 C   0  0  0  0  0  0  0  0  0  0  0  0
  -11.4334  -12.7820    6.5166 C   0  0  0  0  0  0  0  0  0  0  0  0
  -11.8288  -12.1112    7.6691 C   0  0  0  0  0  0  0  0  0  0  0  0
  -12.1916  -10.8332    7.6111 N   0  0  0  0  0  0  0  0  0  0  0  0
  -11.2906  -12.4292    5.2425 N   0  0  0  0  0  0  0  0  0  0  0  0
  -10.8584  -13.4942    4.5710 C   0  0  0  0  0  0  0  0  0  0  0  0
  -10.7247  -14.5235    5.4047 N   0  0  0  0  0  0  0  0  0  0  0  0
  1  7  2  0  0  0  0
  1  2  1  0  0  0  0
  2  3  1  0  0  0  0
  2  4  2  0  0  0  0
  4  5  1  0  0  0  0
  5  6  2  0  0  0  0
  5 11  1  0  0  0  0
  6  7  1  0  0  0  0
  6  9  1  0  0  0  0
  7  8  1  0  0  0  0
  9 10  1  0  0  0  0
 10 11  2  0  0  0  0
M  END
>  <CHROM.1>
-11.40128600,-13.32181843,7.23345020,2.00423421,-1.24279792,2.13151949

>  <Name>
ligand

>  <RI>
0

>  <Rbt.Current_Directory>
/home/itssahil/PROJECTS/Mol_Feturizer/Test_systems_manuscript/rnas/2b57

>  <Rbt.Executable>
rbdock ($Id: //depot/dev/client3/rdock/2013.1/src/exe/rbdock.cxx#4 $)

>  <Rbt.Library>
libRbt.so (2013.1, Build901 2013/11/27)

>  <Rbt.Parameter_File>
/export/apps/rDock/src/rDock_2013.1_src/data/scripts/dock_solv.prm

>  <Rbt.Receptor>
prm/pocket_docking_6.prm

>  <SCORE>
-11.4709

>  <SCORE.INTER>
-11.4709

>  <SCORE.INTER.CONST>
1

>  <SCORE.INTER.POLAR>
0

>  <SCORE.INTER.ROT>
0

>  <SCORE.INTER.SOLV>
21.511

>  <SCORE.INTER.VDW>
-18.4176

>  <SCORE.INTER.norm>
-1.04281

>  <SCORE.INTRA>
0

>  <SCORE.INTRA.DIHEDRAL>
0

>  <SCORE.INTRA.DIHEDRAL.0>
0

>  <SCORE.INTRA.POLAR>
0

>  <SCORE.INTRA.POLAR.0>
0

>  <SCORE.INTRA.REPUL>
0

>  <SCORE.INTRA.REPUL.0>
0

>  <SCORE.INTRA.SOLV>
0

>  <SCORE.INTRA.SOLV.lig_0>
-48.3454

>  <SCORE.INTRA.VDW>
0

>  <SCORE.INTRA.VDW.0>
0

>  <SCORE.INTRA.norm>
0

>  <SCORE.RESTR>
0

>  <SCORE.RESTR.CAVITY>
0

>  <SCORE.RESTR.norm>
0

>  <SCORE.SYSTEM>
0

>  <SCORE.SYSTEM.CONST>
0

>  <SCORE.SYSTEM.DIHEDRAL>
0

>  <SCORE.SYSTEM.SOLV>
0

>  <SCORE.SYSTEM.norm>
0

>  <SCORE.heavy>
11

>  <SCORE.norm>
-1.04281

>  <RMSD>
0.626

$$$$
ligand
 OpenBabel02271912153D
libRbt.so/2013.1/901 2013/11/27
 11 12  0  0  0  0  0  0  0  0999 V2000
  -11.8401  -12.7329    8.8377 N   0  0  0  0  0  0  0  0  0  0  0  0
  -11.4996  -14.0300    8.9041 C   0  0  0  0  0  0  0  0  0  0  0  0
  -11.5200  -14.6590   10.0758 N   0  0  0  0  0  0  0  0  0  0  0  0
  -11.1284  -14.6956    7.7995 N   0  0  0  0  0  0  0  0  0  0  0  0
  -11.0875  -14.0783    6.6095 C   0  0  0  0  0  0  0  0  0  0  0  0
  -11.4347  -12.7367    6.5129 C   0  0  0  0  0  0  0  0  0  0  0  0
  -11.8183  -12.0690    7.6712 C   0  0  0  0  0  0  0  0  0  0  0  0
  -12.1679  -10.7870    7.6227 N   0  0  0  0  0  0  0  0  0  0  0  0
  -11.2935  -12.3775    5.2405 N   0  0  0  0  0  0  0  0  0  0  0  0
  -10.8752  -13.4426    4.5605 C   0  0  0  0  0  0  0  0  0  0  0  0
  -10.7488  -14.4785    5.3873 N   0  0  0  0  0  0  0  0  0  0  0  0
  1  7  2  0  0  0  0
  1  2  1  0  0  0  0
  2  3  1  0  0  0  0
  2  4  2  0  0  0  0
  4  5  1  0  0  0  0
  5  6  2  0  0  0  0
  5 11  1  0  0  0  0
  6  7  1  0  0  0  0
  6  9  1  0  0  0  0
  7  8  1  0  0  0  0
  9 10  1  0  0  0  0
 10 11  2  0  0  0  0
M  END
>  <CHROM.1>
-11.40529305,-13.28130594,7.22622704,2.01094543,-1.25384625,2.14414470

>  <Name>
ligand

>  <RI>
0

>  <Rbt.Current_Directory>
/home/itssahil/PROJECTS/Mol_Feturizer/Test_systems_manuscript/rnas/2b57

>  <Rbt.Executable>
rbdock ($Id: //depot/dev/client3/rdock/2013.1/src/exe/rbdock.cxx#4 $)

>  <Rbt.Library>
libRbt.so (2013.1, Build901 2013/11/27)

>  <Rbt.Parameter_File>
/export/apps/rDock/src/rDock_2013.1_src/data/scripts/dock_solv.prm

>  <Rbt.Receptor>
prm/pocket_docking_4.prm

>  <SCORE>
-11.4683

>  <SCORE.INTER>
-11.4683

>  <SCORE.INTER.CONST>
1

>  <SCORE.INTER.POLAR>
0

>  <SCORE.INTER.ROT>
0

>  <SCORE.INTER.SOLV>
21.6148

>  <SCORE.INTER.VDW>
-18.4505

>  <SCORE.INTER.norm>
-1.04258

>  <SCORE.INTRA>
0

>  <SCORE.INTRA.DIHEDRAL>
0

>  <SCORE.INTRA.DIHEDRAL.0>
0

>  <SCORE.INTRA.POLAR>
0

>  <SCORE.INTRA.POLAR.0>
0

>  <SCORE.INTRA.REPUL>
0

>  <SCORE.INTRA.REPUL.0>
0

>  <SCORE.INTRA.SOLV>
0

>  <SCORE.INTRA.SOLV.lig_0>
-48.3454

>  <SCORE.INTRA.VDW>
0

>  <SCORE.INTRA.VDW.0>
0

>  <SCORE.INTRA.norm>
0

>  <SCORE.RESTR>
0

>  <SCORE.RESTR.CAVITY>
0

>  <SCORE.RESTR.norm>
0

>  <SCORE.SYSTEM>
0

>  <SCORE.SYSTEM.CONST>
0

>  <SCORE.SYSTEM.DIHEDRAL>
0

>  <SCORE.SYSTEM.SOLV>
0

>  <SCORE.SYSTEM.norm>
0

>  <SCORE.heavy>
11

>  <SCORE.norm>
-1.04258

>  <RMSD>
0.627

$$$$
ligand
 OpenBabel02271912153D
libRbt.so/2013.1/901 2013/11/27
 11 12  0  0  0  0  0  0  0  0999 V2000
  -11.8406  -12.7646    8.8423 N   0  0  0  0  0  0  0  0  0  0  0  0
  -11.4817  -14.0564    8.9136 C   0  0  0  0  0  0  0  0  0  0  0  0
  -11.4869  -14.6794   10.0887 N   0  0  0  0  0  0  0  0  0  0  0  0
  -11.1076  -14.7227    7.8104 N   0  0  0  0  0  0  0  0  0  0  0  0
  -11.0819  -14.1113    6.6169 C   0  0  0  0  0  0  0  0  0  0  0  0
  -11.4482  -12.7752    6.5152 C   0  0  0  0  0  0  0  0  0  0  0  0
  -11.8346  -12.1067    7.6722 C   0  0  0  0  0  0  0  0  0  0  0  0
  -12.2023  -10.8299    7.6189 N   0  0  0  0  0  0  0  0  0  0  0  0
  -11.3192  -12.4208    5.2402 N   0  0  0  0  0  0  0  0  0  0  0  0
  -10.8899  -13.4837    4.5635 C   0  0  0  0  0  0  0  0  0  0  0  0
  -10.7445  -14.5133    5.3950 N   0  0  0  0  0  0  0  0  0  0  0  0
  1  7  2  0  0  0  0
  1  2  1  0  0  0  0
  2  3  1  0  0  0  0
  2  4  2  0  0  0  0
  4  5  1  0  0  0  0
  5  6  2  0  0  0  0
  5 11  1  0  0  0  0
  6  7  1  0  0  0  0
  6  9  1  0  0  0  0
  7  8  1  0  0  0  0
  9 10  1  0  0  0  0
 10 11  2  0  0  0  0
M  END
>  <CHROM.1>
-11.40728310,-13.31547563,7.23128832,1.97269599,-1.24498442,2.10254204

>  <Name>
ligand

>  <RI>
0

>  <Rbt.Current_Directory>
/home/itssahil/PROJECTS/Mol_Feturizer/Test_systems_manuscript/rnas/2b57

>  <Rbt.Executable>
rbdock ($Id: //depot/dev/client3/rdock/2013.1/src/exe/rbdock.cxx#4 $)

>  <Rbt.Library>
libRbt.so (2013.1, Build901 2013/11/27)

>  <Rbt.Parameter_File>
/export/apps/rDock/src/rDock_2013.1_src/data/scripts/dock_solv.prm

>  <Rbt.Receptor>
prm/pocket_docking_8.prm

>  <SCORE>
-11.4464

>  <SCORE.INTER>
-11.4464

>  <SCORE.INTER.CONST>
1

>  <SCORE.INTER.POLAR>
0

>  <SCORE.INTER.ROT>
0

>  <SCORE.INTER.SOLV>
21.4835

>  <SCORE.INTER.VDW>
-18.3921

>  <SCORE.INTER.norm>
-1.04058

>  <SCORE.INTRA>
0

>  <SCORE.INTRA.DIHEDRAL>
0

>  <SCORE.INTRA.DIHEDRAL.0>
0

>  <SCORE.INTRA.POLAR>
0

>  <SCORE.INTRA.POLAR.0>
0

>  <SCORE.INTRA.REPUL>
0

>  <SCORE.INTRA.REPUL.0>
0

>  <SCORE.INTRA.SOLV>
0

>  <SCORE.INTRA.SOLV.lig_0>
-48.3454

>  <SCORE.INTRA.VDW>
0

>  <SCORE.INTRA.VDW.0>
0

>  <SCORE.INTRA.norm>
0

>  <SCORE.RESTR>
0

>  <SCORE.RESTR.CAVITY>
0

>  <SCORE.RESTR.norm>
0

>  <SCORE.SYSTEM>
0

>  <SCORE.SYSTEM.CONST>
0

>  <SCORE.SYSTEM.DIHEDRAL>
0

>  <SCORE.SYSTEM.SOLV>
0

>  <SCORE.SYSTEM.norm>
0

>  <SCORE.heavy>
11

>  <SCORE.norm>
-1.04058

>  <RMSD>
0.627

$$$$
ligand
 OpenBabel02271912153D
libRbt.so/2013.1/901 2013/11/27
 11 12  0  0  0  0  0  0  0  0999 V2000
  -11.8526  -12.7420    8.8247 N   0  0  0  0  0  0  0  0  0  0  0  0
  -11.4628  -14.0233    8.9191 C   0  0  0  0  0  0  0  0  0  0  0  0
  -11.4651  -14.6288   10.1034 N   0  0  0  0  0  0  0  0  0  0  0  0
  -11.0605  -14.6964    7.8300 N   0  0  0  0  0  0  0  0  0  0  0  0
  -11.0371  -14.1023    6.6278 C   0  0  0  0  0  0  0  0  0  0  0  0
  -11.4352  -12.7773    6.5022 C   0  0  0  0  0  0  0  0  0  0  0  0
  -11.8503  -12.1016    7.6449 C   0  0  0  0  0  0  0  0  0  0  0  0
  -12.2487  -10.8353    7.5686 N   0  0  0  0  0  0  0  0  0  0  0  0
  -11.3012  -12.4388    5.2233 N   0  0  0  0  0  0  0  0  0  0  0  0
  -10.8387  -13.5006    4.5672 C   0  0  0  0  0  0  0  0  0  0  0  0
  -10.6769  -14.5139    5.4156 N   0  0  0  0  0  0  0  0  0  0  0  0
  1  7  2  0  0  0  0
  1  2  1  0  0  0  0
  2  3  1  0  0  0  0
  2  4  2  0  0  0  0
  4  5  1  0  0  0  0
  5  6  2  0  0  0  0
  5 11  1  0  0  0  0
  6  7  1  0  0  0  0
  6  9  1  0  0  0  0
  7  8  1  0  0  0  0
  9 10  1  0  0  0  0
 10 11  2  0  0  0  0
M  END
>  <CHROM.1>
-11.38859394,-13.30578232,7.22668249,1.96321207,-1.21828889,2.07864104

>  <Name>
ligand

>  <RI>
0

>  <Rbt.Current_Directory>
/home/itssahil/PROJECTS/Mol_Feturizer/Test_systems_manuscript/rnas/2b57

>  <Rbt.Executable>
rbdock ($Id: //depot/dev/client3/rdock/2013.1/src/exe/rbdock.cxx#4 $)

>  <Rbt.Library>
libRbt.so (2013.1, Build901 2013/11/27)

>  <Rbt.Parameter_File>
/export/apps/rDock/src/rDock_2013.1_src/data/scripts/dock_solv.prm

>  <Rbt.Receptor>
prm/pocket_docking_4.prm

>  <SCORE>
-11.4209

>  <SCORE.INTER>
-11.4209

>  <SCORE.INTER.CONST>
1

>  <SCORE.INTER.POLAR>
0

>  <SCORE.INTER.ROT>
0

>  <SCORE.INTER.SOLV>
21.2495

>  <SCORE.INTER.VDW>
-18.2971

>  <SCORE.INTER.norm>
-1.03826

>  <SCORE.INTRA>
0

>  <SCORE.INTRA.DIHEDRAL>
0

>  <SCORE.INTRA.DIHEDRAL.0>
0

>  <SCORE.INTRA.POLAR>
0

>  <SCORE.INTRA.POLAR.0>
0

>  <SCORE.INTRA.REPUL>
0

>  <SCORE.INTRA.REPUL.0>
0

>  <SCORE.INTRA.SOLV>
0

>  <SCORE.INTRA.SOLV.lig_0>
-48.3454

>  <SCORE.INTRA.VDW>
0

>  <SCORE.INTRA.VDW.0>
0

>  <SCORE.INTRA.norm>
0

>  <SCORE.RESTR>
0

>  <SCORE.RESTR.CAVITY>
0

>  <SCORE.RESTR.norm>
0

>  <SCORE.SYSTEM>
0

>  <SCORE.SYSTEM.CONST>
0

>  <SCORE.SYSTEM.DIHEDRAL>
0

>  <SCORE.SYSTEM.SOLV>
0

>  <SCORE.SYSTEM.norm>
0

>  <SCORE.heavy>
11

>  <SCORE.norm>
-1.03826

>  <RMSD>
0.628

$$$$
ligand
 OpenBabel02271912153D
libRbt.so/2013.1/901 2013/11/27
 11 12  0  0  0  0  0  0  0  0999 V2000
  -11.8470  -12.7286    8.8246 N   0  0  0  0  0  0  0  0  0  0  0  0
  -11.5021  -14.0223    8.9253 C   0  0  0  0  0  0  0  0  0  0  0  0
  -11.5139  -14.6183   10.1142 N   0  0  0  0  0  0  0  0  0  0  0  0
  -11.1353  -14.7175    7.8375 N   0  0  0  0  0  0  0  0  0  0  0  0
  -11.1030  -14.1336    6.6305 C   0  0  0  0  0  0  0  0  0  0  0  0
  -11.4549  -12.7963    6.4984 C   0  0  0  0  0  0  0  0  0  0  0  0
  -11.8340  -12.0976    7.6398 C   0  0  0  0  0  0  0  0  0  0  0  0
  -12.1878  -10.8185    7.5575 N   0  0  0  0  0  0  0  0  0  0  0  0
  -11.3221  -12.4724    5.2157 N   0  0  0  0  0  0  0  0  0  0  0  0
  -10.9044  -13.5550    4.5634 C   0  0  0  0  0  0  0  0  0  0  0  0
  -10.7701  -14.5670    5.4180 N   0  0  0  0  0  0  0  0  0  0  0  0
  1  7  2  0  0  0  0
  1  2  1  0  0  0  0
  2  3  1  0  0  0  0
  2  4  2  0  0  0  0
  4  5  1  0  0  0  0
  5  6  2  0  0  0  0
  5 11  1  0  0  0  0
  6  7  1  0  0  0  0
  6  9  1  0  0  0  0
  7  8  1  0  0  0  0
  9 10  1  0  0  0  0
 10 11  2  0  0  0  0
M  END
>  <CHROM.1>
-11.41975604,-13.32062493,7.22654571,1.99010872,-1.25429378,2.09633489

>  <Name>
ligand

>  <RI>
0

>  <Rbt.Current_Directory>
/home/itssahil/PROJECTS/Mol_Feturizer/Test_systems_manuscript/rnas/2b57

>  <Rbt.Executable>
rbdock ($Id: //depot/dev/client3/rdock/2013.1/src/exe/rbdock.cxx#4 $)

>  <Rbt.Library>
libRbt.so (2013.1, Build901 2013/11/27)

>  <Rbt.Parameter_File>
/export/apps/rDock/src/rDock_2013.1_src/data/scripts/dock_solv.prm

>  <Rbt.Receptor>
prm/blind_docking_40.prm

>  <SCORE>
-11.4428

>  <SCORE.INTER>
-11.4428

>  <SCORE.INTER.CONST>
1

>  <SCORE.INTER.POLAR>
0

>  <SCORE.INTER.ROT>
0

>  <SCORE.INTER.SOLV>
21.4622

>  <SCORE.INTER.VDW>
-18.3826

>  <SCORE.INTER.norm>
-1.04025

>  <SCORE.INTRA>
0

>  <SCORE.INTRA.DIHEDRAL>
0

>  <SCORE.INTRA.DIHEDRAL.0>
0

>  <SCORE.INTRA.POLAR>
0

>  <SCORE.INTRA.POLAR.0>
0

>  <SCORE.INTRA.REPUL>
0

>  <SCORE.INTRA.REPUL.0>
0

>  <SCORE.INTRA.SOLV>
0

>  <SCORE.INTRA.SOLV.lig_0>
-48.3454

>  <SCORE.INTRA.VDW>
0

>  <SCORE.INTRA.VDW.0>
0

>  <SCORE.INTRA.norm>
0

>  <SCORE.RESTR>
0

>  <SCORE.RESTR.CAVITY>
0

>  <SCORE.RESTR.norm>
0

>  <SCORE.SYSTEM>
0

>  <SCORE.SYSTEM.CONST>
0

>  <SCORE.SYSTEM.DIHEDRAL>
0

>  <SCORE.SYSTEM.SOLV>
0

>  <SCORE.SYSTEM.norm>
0

>  <SCORE.heavy>
11

>  <SCORE.norm>
-1.04025

>  <RMSD>
0.629

$$$$
ligand
 OpenBabel02271912153D
libRbt.so/2013.1/901 2013/11/27
 11 12  0  0  0  0  0  0  0  0999 V2000
  -11.8424  -12.7652    8.8388 N   0  0  0  0  0  0  0  0  0  0  0  0
  -11.4902  -14.0590    8.9083 C   0  0  0  0  0  0  0  0  0  0  0  0
  -11.5078  -14.6862   10.0811 N   0  0  0  0  0  0  0  0  0  0  0  0
  -11.1103  -14.7232    7.8057 N   0  0  0  0  0  0  0  0  0  0  0  0
  -11.0720  -14.1075    6.6148 C   0  0  0  0  0  0  0  0  0  0  0  0
  -11.4312  -12.7694    6.5149 C   0  0  0  0  0  0  0  0  0  0  0  0
  -11.8238  -12.1032    7.6712 C   0  0  0  0  0  0  0  0  0  0  0  0
  -12.1850  -10.8246    7.6195 N   0  0  0  0  0  0  0  0  0  0  0  0
  -11.2901  -12.4111    5.2423 N   0  0  0  0  0  0  0  0  0  0  0  0
  -10.8604  -13.4736    4.5652 C   0  0  0  0  0  0  0  0  0  0  0  0
  -10.7266  -14.5068    5.3941 N   0  0  0  0  0  0  0  0  0  0  0  0
  1  7  2  0  0  0  0
  1  2  1  0  0  0  0
  2  3  1  0  0  0  0
  2  4  2  0  0  0  0
  4  5  1  0  0  0  0
  5  6  2  0  0  0  0
  5 11  1  0  0  0  0
  6  7  1  0  0  0  0
  6  9  1  0  0  0  0
  7  8  1  0  0  0  0
  9 10  1  0  0  0  0
 10 11  2  0  0  0  0
M  END
>  <CHROM.1>
-11.39860181,-13.31243689,7.22933832,2.00199160,-1.24480299,2.13389644

>  <Name>
ligand

>  <RI>
0

>  <Rbt.Current_Directory>
/home/itssahil/PROJECTS/Mol_Feturizer/Test_systems_manuscript/rnas/2b57

>  <Rbt.Executable>
rbdock ($Id: //depot/dev/client3/rdock/2013.1/src/exe/rbdock.cxx#4 $)

>  <Rbt.Library>
libRbt.so (2013.1, Build901 2013/11/27)

>  <Rbt.Parameter_File>
/export/apps/rDock/src/rDock_2013.1_src/data/scripts/dock_solv.prm

>  <Rbt.Receptor>
prm/pocket_docking_4.prm

>  <SCORE>
-11.4663

>  <SCORE.INTER>
-11.4663

>  <SCORE.INTER.CONST>
1

>  <SCORE.INTER.POLAR>
0

>  <SCORE.INTER.ROT>
0

>  <SCORE.INTER.SOLV>
21.55

>  <SCORE.INTER.VDW>
-18.4275

>  <SCORE.INTER.norm>
-1.04239

>  <SCORE.INTRA>
0

>  <SCORE.INTRA.DIHEDRAL>
0

>  <SCORE.INTRA.DIHEDRAL.0>
0

>  <SCORE.INTRA.POLAR>
0

>  <SCORE.INTRA.POLAR.0>
0

>  <SCORE.INTRA.REPUL>
0

>  <SCORE.INTRA.REPUL.0>
0

>  <SCORE.INTRA.SOLV>
0

>  <SCORE.INTRA.SOLV.lig_0>
-48.3454

>  <SCORE.INTRA.VDW>
0

>  <SCORE.INTRA.VDW.0>
0

>  <SCORE.INTRA.norm>
0

>  <SCORE.RESTR>
0

>  <SCORE.RESTR.CAVITY>
0

>  <SCORE.RESTR.norm>
0

>  <SCORE.SYSTEM>
0

>  <SCORE.SYSTEM.CONST>
0

>  <SCORE.SYSTEM.DIHEDRAL>
0

>  <SCORE.SYSTEM.SOLV>
0

>  <SCORE.SYSTEM.norm>
0

>  <SCORE.heavy>
11

>  <SCORE.norm>
-1.04239

>  <RMSD>
0.629

$$$$
ligand
 OpenBabel02271912153D
libRbt.so/2013.1/901 2013/11/27
 11 12  0  0  0  0  0  0  0  0999 V2000
  -11.8372  -12.7636    8.8350 N   0  0  0  0  0  0  0  0  0  0  0  0
  -11.4802  -14.0553    8.9167 C   0  0  0  0  0  0  0  0  0  0  0  0
  -11.5041  -14.6740   10.0938 N   0  0  0  0  0  0  0  0  0  0  0  0
  -11.0890  -14.7259    7.8220 N   0  0  0  0  0  0  0  0  0  0  0  0
  -11.0442  -14.1189    6.6268 C   0  0  0  0  0  0  0  0  0  0  0  0
  -11.4083  -12.7831    6.5144 C   0  0  0  0  0  0  0  0  0  0  0  0
  -11.8125  -12.1101    7.6626 C   0  0  0  0  0  0  0  0  0  0  0  0
  -12.1787  -10.8334    7.5989 N   0  0  0  0  0  0  0  0  0  0  0  0
  -11.2590  -12.4335    5.2402 N   0  0  0  0  0  0  0  0  0  0  0  0
  -10.8197  -13.4991    4.5743 C   0  0  0  0  0  0  0  0  0  0  0  0
  -10.6879  -14.5256    5.4118 N   0  0  0  0  0  0  0  0  0  0  0  0
  1  7  2  0  0  0  0
  1  2  1  0  0  0  0
  2  3  1  0  0  0  0
  2  4  2  0  0  0  0
  4  5  1  0  0  0  0
  5  6  2  0  0  0  0
  5 11  1  0  0  0  0
  6  7  1  0  0  0  0
  6  9  1  0  0  0  0
  7  8  1  0  0  0  0
  9 10  1  0  0  0  0
 10 11  2  0  0  0  0
M  END
>  <CHROM.1>
-11.37888621,-13.32070794,7.23299606,2.01482569,-1.23713008,2.13868579

>  <Name>
ligand

>  <RI>
0

>  <Rbt.Current_Directory>
/home/itssahil/PROJECTS/Mol_Feturizer/Test_systems_manuscript/rnas/2b57

>  <Rbt.Executable>
rbdock ($Id: //depot/dev/client3/rdock/2013.1/src/exe/rbdock.cxx#4 $)

>  <Rbt.Library>
libRbt.so (2013.1, Build901 2013/11/27)

>  <Rbt.Parameter_File>
/export/apps/rDock/src/rDock_2013.1_src/data/scripts/dock_solv.prm

>  <Rbt.Receptor>
prm/blind_docking_100.prm

>  <SCORE>
-11.4862

>  <SCORE.INTER>
-11.4862

>  <SCORE.INTER.CONST>
1

>  <SCORE.INTER.POLAR>
0

>  <SCORE.INTER.ROT>
0

>  <SCORE.INTER.SOLV>
21.5165

>  <SCORE.INTER.VDW>
-18.4296

>  <SCORE.INTER.norm>
-1.0442

>  <SCORE.INTRA>
0

>  <SCORE.INTRA.DIHEDRAL>
0

>  <SCORE.INTRA.DIHEDRAL.0>
0

>  <SCORE.INTRA.POLAR>
0

>  <SCORE.INTRA.POLAR.0>
0

>  <SCORE.INTRA.REPUL>
0

>  <SCORE.INTRA.REPUL.0>
0

>  <SCORE.INTRA.SOLV>
0

>  <SCORE.INTRA.SOLV.lig_0>
-48.3454

>  <SCORE.INTRA.VDW>
0

>  <SCORE.INTRA.VDW.0>
0

>  <SCORE.INTRA.norm>
0

>  <SCORE.RESTR>
0

>  <SCORE.RESTR.CAVITY>
0

>  <SCORE.RESTR.norm>
0

>  <SCORE.SYSTEM>
0

>  <SCORE.SYSTEM.CONST>
0

>  <SCORE.SYSTEM.DIHEDRAL>
0

>  <SCORE.SYSTEM.SOLV>
0

>  <SCORE.SYSTEM.norm>
0

>  <SCORE.heavy>
11

>  <SCORE.norm>
-1.0442

>  <RMSD>
0.630

$$$$
ligand
 OpenBabel02271912153D
libRbt.so/2013.1/901 2013/11/27
 11 12  0  0  0  0  0  0  0  0999 V2000
  -11.8495  -12.7685    8.8352 N   0  0  0  0  0  0  0  0  0  0  0  0
  -11.4956  -14.0616    8.9087 C   0  0  0  0  0  0  0  0  0  0  0  0
  -11.5152  -14.6859   10.0830 N   0  0  0  0  0  0  0  0  0  0  0  0
  -11.1119  -14.7278    7.8088 N   0  0  0  0  0  0  0  0  0  0  0  0
  -11.0715  -14.1150    6.6164 C   0  0  0  0  0  0  0  0  0  0  0  0
  -11.4324  -12.7777    6.5124 C   0  0  0  0  0  0  0  0  0  0  0  0
  -11.8289  -12.1093    7.6660 C   0  0  0  0  0  0  0  0  0  0  0  0
  -12.1919  -10.8313    7.6104 N   0  0  0  0  0  0  0  0  0  0  0  0
  -11.2887  -12.4222    5.2393 N   0  0  0  0  0  0  0  0  0  0  0  0
  -10.8557  -13.4857    4.5659 C   0  0  0  0  0  0  0  0  0  0  0  0
  -10.7225  -14.5167    5.3976 N   0  0  0  0  0  0  0  0  0  0  0  0
  1  7  2  0  0  0  0
  1  2  1  0  0  0  0
  2  3  1  0  0  0  0
  2  4  2  0  0  0  0
  4  5  1  0  0  0  0
  5  6  2  0  0  0  0
  5 11  1  0  0  0  0
  6  7  1  0  0  0  0
  6  9  1  0  0  0  0
  7  8  1  0  0  0  0
  9 10  1  0  0  0  0
 10 11  2  0  0  0  0
M  END
>  <CHROM.1>
-11.40084401,-13.31892121,7.22821248,2.00616437,-1.24220764,2.13543001

>  <Name>
ligand

>  <RI>
0

>  <Rbt.Current_Directory>
/home/itssahil/PROJECTS/Mol_Feturizer/Test_systems_manuscript/rnas/2b57

>  <Rbt.Executable>
rbdock ($Id: //depot/dev/client3/rdock/2013.1/src/exe/rbdock.cxx#4 $)

>  <Rbt.Library>
libRbt.so (2013.1, Build901 2013/11/27)

>  <Rbt.Parameter_File>
/export/apps/rDock/src/rDock_2013.1_src/data/scripts/dock_solv.prm

>  <Rbt.Receptor>
prm/blind_docking_80.prm

>  <SCORE>
-11.4737

>  <SCORE.INTER>
-11.4737

>  <SCORE.INTER.CONST>
1

>  <SCORE.INTER.POLAR>
0

>  <SCORE.INTER.ROT>
0

>  <SCORE.INTER.SOLV>
21.5138

>  <SCORE.INTER.VDW>
-18.4204

>  <SCORE.INTER.norm>
-1.04306

>  <SCORE.INTRA>
0

>  <SCORE.INTRA.DIHEDRAL>
0

>  <SCORE.INTRA.DIHEDRAL.0>
0

>  <SCORE.INTRA.POLAR>
0

>  <SCORE.INTRA.POLAR.0>
0

>  <SCORE.INTRA.REPUL>
0

>  <SCORE.INTRA.REPUL.0>
0

>  <SCORE.INTRA.SOLV>
0

>  <SCORE.INTRA.SOLV.lig_0>
-48.3454

>  <SCORE.INTRA.VDW>
0

>  <SCORE.INTRA.VDW.0>
0

>  <SCORE.INTRA.norm>
0

>  <SCORE.RESTR>
0

>  <SCORE.RESTR.CAVITY>
0

>  <SCORE.RESTR.norm>
0

>  <SCORE.SYSTEM>
0

>  <SCORE.SYSTEM.CONST>
0

>  <SCORE.SYSTEM.DIHEDRAL>
0

>  <SCORE.SYSTEM.SOLV>
0

>  <SCORE.SYSTEM.norm>
0

>  <SCORE.heavy>
11

>  <SCORE.norm>
-1.04306

>  <RMSD>
0.630

$$$$
ligand
 OpenBabel02271912153D
libRbt.so/2013.1/901 2013/11/27
 11 12  0  0  0  0  0  0  0  0999 V2000
  -11.8995  -12.7033    8.8038 N   0  0  0  0  0  0  0  0  0  0  0  0
  -11.5508  -13.9966    8.8964 C   0  0  0  0  0  0  0  0  0  0  0  0
  -11.5939  -14.6093   10.0761 N   0  0  0  0  0  0  0  0  0  0  0  0
  -11.1488  -14.6746    7.8103 N   0  0  0  0  0  0  0  0  0  0  0  0
  -11.0846  -14.0737    6.6129 C   0  0  0  0  0  0  0  0  0  0  0  0
  -11.4397  -12.7364    6.4893 C   0  0  0  0  0  0  0  0  0  0  0  0
  -11.8555  -12.0557    7.6288 C   0  0  0  0  0  0  0  0  0  0  0  0
  -12.2136  -10.7773    7.5540 N   0  0  0  0  0  0  0  0  0  0  0  0
  -11.2715  -12.3938    5.2156 N   0  0  0  0  0  0  0  0  0  0  0  0
  -10.8292  -13.4650    4.5607 C   0  0  0  0  0  0  0  0  0  0  0  0
  -10.7144  -14.4882    5.4047 N   0  0  0  0  0  0  0  0  0  0  0  0
  1  7  2  0  0  0  0
  1  2  1  0  0  0  0
  2  3  1  0  0  0  0
  2  4  2  0  0  0  0
  4  5  1  0  0  0  0
  5  6  2  0  0  0  0
  5 11  1  0  0  0  0
  6  7  1  0  0  0  0
  6  9  1  0  0  0  0
  7  8  1  0  0  0  0
  9 10  1  0  0  0  0
 10 11  2  0  0  0  0
M  END
>  <CHROM.1>
-11.42291690,-13.27069817,7.21076474,2.05806614,-1.23438015,2.17470888

>  <Name>
ligand

>  <RI>
0

>  <Rbt.Current_Directory>
/home/itssahil/PROJECTS/Mol_Feturizer/Test_systems_manuscript/rnas/2b57

>  <Rbt.Executable>
rbdock ($Id: //depot/dev/client3/rdock/2013.1/src/exe/rbdock.cxx#4 $)

>  <Rbt.Library>
libRbt.so (2013.1, Build901 2013/11/27)

>  <Rbt.Parameter_File>
/export/apps/rDock/src/rDock_2013.1_src/data/scripts/dock_solv.prm

>  <Rbt.Receptor>
prm/pocket_docking_6.prm

>  <SCORE>
-11.3895

>  <SCORE.INTER>
-11.3895

>  <SCORE.INTER.CONST>
1

>  <SCORE.INTER.POLAR>
0

>  <SCORE.INTER.ROT>
0

>  <SCORE.INTER.SOLV>
21.3581

>  <SCORE.INTER.VDW>
-18.3123

>  <SCORE.INTER.norm>
-1.03541

>  <SCORE.INTRA>
0

>  <SCORE.INTRA.DIHEDRAL>
0

>  <SCORE.INTRA.DIHEDRAL.0>
0

>  <SCORE.INTRA.POLAR>
0

>  <SCORE.INTRA.POLAR.0>
0

>  <SCORE.INTRA.REPUL>
0

>  <SCORE.INTRA.REPUL.0>
0

>  <SCORE.INTRA.SOLV>
0

>  <SCORE.INTRA.SOLV.lig_0>
-48.3454

>  <SCORE.INTRA.VDW>
0

>  <SCORE.INTRA.VDW.0>
0

>  <SCORE.INTRA.norm>
0

>  <SCORE.RESTR>
0

>  <SCORE.RESTR.CAVITY>
0

>  <SCORE.RESTR.norm>
0

>  <SCORE.SYSTEM>
0

>  <SCORE.SYSTEM.CONST>
0

>  <SCORE.SYSTEM.DIHEDRAL>
0

>  <SCORE.SYSTEM.SOLV>
0

>  <SCORE.SYSTEM.norm>
0

>  <SCORE.heavy>
11

>  <SCORE.norm>
-1.03541

>  <RMSD>
0.630

$$$$
ligand
 OpenBabel02271912153D
libRbt.so/2013.1/901 2013/11/27
 11 12  0  0  0  0  0  0  0  0999 V2000
  -11.8722  -12.7525    8.8190 N   0  0  0  0  0  0  0  0  0  0  0  0
  -11.4838  -14.0345    8.9100 C   0  0  0  0  0  0  0  0  0  0  0  0
  -11.4997  -14.6471   10.0905 N   0  0  0  0  0  0  0  0  0  0  0  0
  -11.0693  -14.7011    7.8215 N   0  0  0  0  0  0  0  0  0  0  0  0
  -11.0320  -14.0996    6.6233 C   0  0  0  0  0  0  0  0  0  0  0  0
  -11.4284  -12.7738    6.5012 C   0  0  0  0  0  0  0  0  0  0  0  0
  -11.8563  -12.1049    7.6432 C   0  0  0  0  0  0  0  0  0  0  0  0
  -12.2536  -10.8380    7.5701 N   0  0  0  0  0  0  0  0  0  0  0  0
  -11.2798  -12.4275    5.2261 N   0  0  0  0  0  0  0  0  0  0  0  0
  -10.8100  -13.4855    4.5688 C   0  0  0  0  0  0  0  0  0  0  0  0
  -10.6581  -14.5039    5.4127 N   0  0  0  0  0  0  0  0  0  0  0  0
  1  7  2  0  0  0  0
  1  2  1  0  0  0  0
  2  3  1  0  0  0  0
  2  4  2  0  0  0  0
  4  5  1  0  0  0  0
  5  6  2  0  0  0  0
  5 11  1  0  0  0  0
  6  7  1  0  0  0  0
  6  9  1  0  0  0  0
  7  8  1  0  0  0  0
  9 10  1  0  0  0  0
 10 11  2  0  0  0  0
M  END
>  <CHROM.1>
-11.39015782,-13.30666410,7.22295899,1.99193150,-1.21280311,2.11166264

>  <Name>
ligand

>  <RI>
0

>  <Rbt.Current_Directory>
/home/itssahil/PROJECTS/Mol_Feturizer/Test_systems_manuscript/rnas/2b57

>  <Rbt.Executable>
rbdock ($Id: //depot/dev/client3/rdock/2013.1/src/exe/rbdock.cxx#4 $)

>  <Rbt.Library>
libRbt.so (2013.1, Build901 2013/11/27)

>  <Rbt.Parameter_File>
/export/apps/rDock/src/rDock_2013.1_src/data/scripts/dock_solv.prm

>  <Rbt.Receptor>
prm/pocket_docking_8.prm

>  <SCORE>
-11.4327

>  <SCORE.INTER>
-11.4327

>  <SCORE.INTER.CONST>
1

>  <SCORE.INTER.POLAR>
0

>  <SCORE.INTER.ROT>
0

>  <SCORE.INTER.SOLV>
21.2428

>  <SCORE.INTER.VDW>
-18.3027

>  <SCORE.INTER.norm>
-1.03933

>  <SCORE.INTRA>
0

>  <SCORE.INTRA.DIHEDRAL>
0

>  <SCORE.INTRA.DIHEDRAL.0>
0

>  <SCORE.INTRA.POLAR>
0

>  <SCORE.INTRA.POLAR.0>
0

>  <SCORE.INTRA.REPUL>
0

>  <SCORE.INTRA.REPUL.0>
0

>  <SCORE.INTRA.SOLV>
0

>  <SCORE.INTRA.SOLV.lig_0>
-48.3454

>  <SCORE.INTRA.VDW>
0

>  <SCORE.INTRA.VDW.0>
0

>  <SCORE.INTRA.norm>
0

>  <SCORE.RESTR>
0

>  <SCORE.RESTR.CAVITY>
0

>  <SCORE.RESTR.norm>
0

>  <SCORE.SYSTEM>
0

>  <SCORE.SYSTEM.CONST>
0

>  <SCORE.SYSTEM.DIHEDRAL>
0

>  <SCORE.SYSTEM.SOLV>
0

>  <SCORE.SYSTEM.norm>
0

>  <SCORE.heavy>
11

>  <SCORE.norm>
-1.03933

>  <RMSD>
0.630

$$$$
ligand
 OpenBabel02271912153D
libRbt.so/2013.1/901 2013/11/27
 11 12  0  0  0  0  0  0  0  0999 V2000
  -11.8368  -12.7625    8.8378 N   0  0  0  0  0  0  0  0  0  0  0  0
  -11.4877  -14.0569    8.9110 C   0  0  0  0  0  0  0  0  0  0  0  0
  -11.5016  -14.6793   10.0863 N   0  0  0  0  0  0  0  0  0  0  0  0
  -11.1144  -14.7265    7.8094 N   0  0  0  0  0  0  0  0  0  0  0  0
  -11.0799  -14.1158    6.6158 C   0  0  0  0  0  0  0  0  0  0  0  0
  -11.4361  -12.7771    6.5122 C   0  0  0  0  0  0  0  0  0  0  0  0
  -11.8217  -12.1053    7.6674 C   0  0  0  0  0  0  0  0  0  0  0  0
  -12.1799  -10.8259    7.6123 N   0  0  0  0  0  0  0  0  0  0  0  0
  -11.2998  -12.4243    5.2374 N   0  0  0  0  0  0  0  0  0  0  0  0
  -10.8759  -13.4906    4.5628 C   0  0  0  0  0  0  0  0  0  0  0  0
  -10.7411  -14.5208    5.3952 N   0  0  0  0  0  0  0  0  0  0  0  0
  1  7  2  0  0  0  0
  1  2  1  0  0  0  0
  2  3  1  0  0  0  0
  2  4  2  0  0  0  0
  4  5  1  0  0  0  0
  5  6  2  0  0  0  0
  5 11  1  0  0  0  0
  6  7  1  0  0  0  0
  6  9  1  0  0  0  0
  7  8  1  0  0  0  0
  9 10  1  0  0  0  0
 10 11  2  0  0  0  0
M  END
>  <CHROM.1>
-11.40167868,-13.31735538,7.22859091,1.99433139,-1.24938431,2.12260716

>  <Name>
ligand

>  <RI>
0

>  <Rbt.Current_Directory>
/home/itssahil/PROJECTS/Mol_Feturizer/Test_systems_manuscript/rnas/2b57

>  <Rbt.Executable>
rbdock ($Id: //depot/dev/client3/rdock/2013.1/src/exe/rbdock.cxx#4 $)

>  <Rbt.Library>
libRbt.so (2013.1, Build901 2013/11/27)

>  <Rbt.Parameter_File>
/export/apps/rDock/src/rDock_2013.1_src/data/scripts/dock_solv.prm

>  <Rbt.Receptor>
prm/pocket_docking_4.prm

>  <SCORE>
-11.4625

>  <SCORE.INTER>
-11.4625

>  <SCORE.INTER.CONST>
1

>  <SCORE.INTER.POLAR>
0

>  <SCORE.INTER.ROT>
0

>  <SCORE.INTER.SOLV>
21.5563

>  <SCORE.INTER.VDW>
-18.4271

>  <SCORE.INTER.norm>
-1.04205

>  <SCORE.INTRA>
0

>  <SCORE.INTRA.DIHEDRAL>
0

>  <SCORE.INTRA.DIHEDRAL.0>
0

>  <SCORE.INTRA.POLAR>
0

>  <SCORE.INTRA.POLAR.0>
0

>  <SCORE.INTRA.REPUL>
0

>  <SCORE.INTRA.REPUL.0>
0

>  <SCORE.INTRA.SOLV>
0

>  <SCORE.INTRA.SOLV.lig_0>
-48.3454

>  <SCORE.INTRA.VDW>
0

>  <SCORE.INTRA.VDW.0>
0

>  <SCORE.INTRA.norm>
0

>  <SCORE.RESTR>
0

>  <SCORE.RESTR.CAVITY>
0

>  <SCORE.RESTR.norm>
0

>  <SCORE.SYSTEM>
0

>  <SCORE.SYSTEM.CONST>
0

>  <SCORE.SYSTEM.DIHEDRAL>
0

>  <SCORE.SYSTEM.SOLV>
0

>  <SCORE.SYSTEM.norm>
0

>  <SCORE.heavy>
11

>  <SCORE.norm>
-1.04205

>  <RMSD>
0.631

$$$$
ligand
 OpenBabel02271912153D
libRbt.so/2013.1/901 2013/11/27
 11 12  0  0  0  0  0  0  0  0999 V2000
  -11.8306  -12.7268    8.8314 N   0  0  0  0  0  0  0  0  0  0  0  0
  -11.4796  -14.0208    8.9029 C   0  0  0  0  0  0  0  0  0  0  0  0
  -11.4949  -14.6454   10.0770 N   0  0  0  0  0  0  0  0  0  0  0  0
  -11.1030  -14.6877    7.8008 N   0  0  0  0  0  0  0  0  0  0  0  0
  -11.0670  -14.0747    6.6084 C   0  0  0  0  0  0  0  0  0  0  0  0
  -11.4251  -12.7364    6.5066 C   0  0  0  0  0  0  0  0  0  0  0  0
  -11.8142  -12.0673    7.6623 C   0  0  0  0  0  0  0  0  0  0  0  0
  -12.1742  -10.7884    7.6088 N   0  0  0  0  0  0  0  0  0  0  0  0
  -11.2868  -12.3810    5.2328 N   0  0  0  0  0  0  0  0  0  0  0  0
  -10.8599  -13.4454    4.5570 C   0  0  0  0  0  0  0  0  0  0  0  0
  -10.7251  -14.4770    5.3878 N   0  0  0  0  0  0  0  0  0  0  0  0
  1  7  2  0  0  0  0
  1  2  1  0  0  0  0
  2  3  1  0  0  0  0
  2  4  2  0  0  0  0
  4  5  1  0  0  0  0
  5  6  2  0  0  0  0
  5 11  1  0  0  0  0
  6  7  1  0  0  0  0
  6  9  1  0  0  0  0
  7  8  1  0  0  0  0
  9 10  1  0  0  0  0
 10 11  2  0  0  0  0
M  END
>  <CHROM.1>
-11.39135317,-13.27795344,7.22206509,1.99716815,-1.24699023,2.12714209

>  <Name>
ligand

>  <RI>
0

>  <Rbt.Current_Directory>
/home/itssahil/PROJECTS/Mol_Feturizer/Test_systems_manuscript/rnas/2b57

>  <Rbt.Executable>
rbdock ($Id: //depot/dev/client3/rdock/2013.1/src/exe/rbdock.cxx#4 $)

>  <Rbt.Library>
libRbt.so (2013.1, Build901 2013/11/27)

>  <Rbt.Parameter_File>
/export/apps/rDock/src/rDock_2013.1_src/data/scripts/dock_solv.prm

>  <Rbt.Receptor>
prm/pocket_docking_6.prm

>  <SCORE>
-11.4671

>  <SCORE.INTER>
-11.4671

>  <SCORE.INTER.CONST>
1

>  <SCORE.INTER.POLAR>
0

>  <SCORE.INTER.ROT>
0

>  <SCORE.INTER.SOLV>
21.5658

>  <SCORE.INTER.VDW>
-18.4333

>  <SCORE.INTER.norm>
-1.04246

>  <SCORE.INTRA>
0

>  <SCORE.INTRA.DIHEDRAL>
0

>  <SCORE.INTRA.DIHEDRAL.0>
0

>  <SCORE.INTRA.POLAR>
0

>  <SCORE.INTRA.POLAR.0>
0

>  <SCORE.INTRA.REPUL>
0

>  <SCORE.INTRA.REPUL.0>
0

>  <SCORE.INTRA.SOLV>
0

>  <SCORE.INTRA.SOLV.lig_0>
-48.3454

>  <SCORE.INTRA.VDW>
0

>  <SCORE.INTRA.VDW.0>
0

>  <SCORE.INTRA.norm>
0

>  <SCORE.RESTR>
0

>  <SCORE.RESTR.CAVITY>
0

>  <SCORE.RESTR.norm>
0

>  <SCORE.SYSTEM>
0

>  <SCORE.SYSTEM.CONST>
0

>  <SCORE.SYSTEM.DIHEDRAL>
0

>  <SCORE.SYSTEM.SOLV>
0

>  <SCORE.SYSTEM.norm>
0

>  <SCORE.heavy>
11

>  <SCORE.norm>
-1.04246

>  <RMSD>
0.632

$$$$
ligand
 OpenBabel02271912153D
libRbt.so/2013.1/901 2013/11/27
 11 12  0  0  0  0  0  0  0  0999 V2000
  -11.8192  -12.7242    8.8315 N   0  0  0  0  0  0  0  0  0  0  0  0
  -11.4620  -14.0159    8.9126 C   0  0  0  0  0  0  0  0  0  0  0  0
  -11.4648  -14.6290   10.0929 N   0  0  0  0  0  0  0  0  0  0  0  0
  -11.0918  -14.6920    7.8140 N   0  0  0  0  0  0  0  0  0  0  0  0
  -11.0685  -14.0906    6.6154 C   0  0  0  0  0  0  0  0  0  0  0  0
  -11.4333  -12.7549    6.5035 C   0  0  0  0  0  0  0  0  0  0  0  0
  -11.8155  -12.0762    7.6559 C   0  0  0  0  0  0  0  0  0  0  0  0
  -12.1815  -10.7994    7.5930 N   0  0  0  0  0  0  0  0  0  0  0  0
  -11.3072  -12.4113    5.2252 N   0  0  0  0  0  0  0  0  0  0  0  0
  -10.8813  -13.4805    4.5563 C   0  0  0  0  0  0  0  0  0  0  0  0
  -10.7351  -14.5033    5.3959 N   0  0  0  0  0  0  0  0  0  0  0  0
  1  7  2  0  0  0  0
  1  2  1  0  0  0  0
  2  3  1  0  0  0  0
  2  4  2  0  0  0  0
  4  5  1  0  0  0  0
  5  6  2  0  0  0  0
  5 11  1  0  0  0  0
  6  7  1  0  0  0  0
  6  9  1  0  0  0  0
  7  8  1  0  0  0  0
  9 10  1  0  0  0  0
 10 11  2  0  0  0  0
M  END
>  <CHROM.1>
-11.39112626,-13.28919995,7.22397479,1.96745515,-1.24759572,2.08920176

>  <Name>
ligand

>  <RI>
0

>  <Rbt.Current_Directory>
/home/itssahil/PROJECTS/Mol_Feturizer/Test_systems_manuscript/rnas/2b57

>  <Rbt.Executable>
rbdock ($Id: //depot/dev/client3/rdock/2013.1/src/exe/rbdock.cxx#4 $)

>  <Rbt.Library>
libRbt.so (2013.1, Build901 2013/11/27)

>  <Rbt.Parameter_File>
/export/apps/rDock/src/rDock_2013.1_src/data/scripts/dock_solv.prm

>  <Rbt.Receptor>
prm/pocket_docking_7.prm

>  <SCORE>
-11.4416

>  <SCORE.INTER>
-11.4416

>  <SCORE.INTER.CONST>
1

>  <SCORE.INTER.POLAR>
0

>  <SCORE.INTER.ROT>
0

>  <SCORE.INTER.SOLV>
21.5123

>  <SCORE.INTER.VDW>
-18.3985

>  <SCORE.INTER.norm>
-1.04014

>  <SCORE.INTRA>
0

>  <SCORE.INTRA.DIHEDRAL>
0

>  <SCORE.INTRA.DIHEDRAL.0>
0

>  <SCORE.INTRA.POLAR>
0

>  <SCORE.INTRA.POLAR.0>
0

>  <SCORE.INTRA.REPUL>
0

>  <SCORE.INTRA.REPUL.0>
0

>  <SCORE.INTRA.SOLV>
0

>  <SCORE.INTRA.SOLV.lig_0>
-48.3454

>  <SCORE.INTRA.VDW>
0

>  <SCORE.INTRA.VDW.0>
0

>  <SCORE.INTRA.norm>
0

>  <SCORE.RESTR>
0

>  <SCORE.RESTR.CAVITY>
0

>  <SCORE.RESTR.norm>
0

>  <SCORE.SYSTEM>
0

>  <SCORE.SYSTEM.CONST>
0

>  <SCORE.SYSTEM.DIHEDRAL>
0

>  <SCORE.SYSTEM.SOLV>
0

>  <SCORE.SYSTEM.norm>
0

>  <SCORE.heavy>
11

>  <SCORE.norm>
-1.04014

>  <RMSD>
0.632

$$$$
ligand
 OpenBabel02271912153D
libRbt.so/2013.1/901 2013/11/27
 11 12  0  0  0  0  0  0  0  0999 V2000
  -11.8332  -12.7614    8.8352 N   0  0  0  0  0  0  0  0  0  0  0  0
  -11.4758  -14.0535    8.9102 C   0  0  0  0  0  0  0  0  0  0  0  0
  -11.4871  -14.6746   10.0863 N   0  0  0  0  0  0  0  0  0  0  0  0
  -11.0968  -14.7219    7.8099 N   0  0  0  0  0  0  0  0  0  0  0  0
  -11.0648  -14.1123    6.6156 C   0  0  0  0  0  0  0  0  0  0  0  0
  -11.4295  -12.7761    6.5100 C   0  0  0  0  0  0  0  0  0  0  0  0
  -11.8210  -12.1054    7.6640 C   0  0  0  0  0  0  0  0  0  0  0  0
  -12.1873  -10.8285    7.6069 N   0  0  0  0  0  0  0  0  0  0  0  0
  -11.2940  -12.4239    5.2350 N   0  0  0  0  0  0  0  0  0  0  0  0
  -10.8624  -13.4883    4.5621 C   0  0  0  0  0  0  0  0  0  0  0  0
  -10.7219  -14.5166    5.3959 N   0  0  0  0  0  0  0  0  0  0  0  0
  1  7  2  0  0  0  0
  1  2  1  0  0  0  0
  2  3  1  0  0  0  0
  2  4  2  0  0  0  0
  4  5  1  0  0  0  0
  5  6  2  0  0  0  0
  5 11  1  0  0  0  0
  6  7  1  0  0  0  0
  6  9  1  0  0  0  0
  7  8  1  0  0  0  0
  9 10  1  0  0  0  0
 10 11  2  0  0  0  0
M  END
>  <CHROM.1>
-11.39252685,-13.31529500,7.22712202,1.98698579,-1.24323660,2.11446877

>  <Name>
ligand

>  <RI>
0

>  <Rbt.Current_Directory>
/home/itssahil/PROJECTS/Mol_Feturizer/Test_systems_manuscript/rnas/2b57

>  <Rbt.Executable>
rbdock ($Id: //depot/dev/client3/rdock/2013.1/src/exe/rbdock.cxx#4 $)

>  <Rbt.Library>
libRbt.so (2013.1, Build901 2013/11/27)

>  <Rbt.Parameter_File>
/export/apps/rDock/src/rDock_2013.1_src/data/scripts/dock_solv.prm

>  <Rbt.Receptor>
prm/blind_docking_40.prm

>  <SCORE>
-11.4602

>  <SCORE.INTER>
-11.4602

>  <SCORE.INTER.CONST>
1

>  <SCORE.INTER.POLAR>
0

>  <SCORE.INTER.ROT>
0

>  <SCORE.INTER.SOLV>
21.5128

>  <SCORE.INTER.VDW>
-18.411

>  <SCORE.INTER.norm>
-1.04183

>  <SCORE.INTRA>
0

>  <SCORE.INTRA.DIHEDRAL>
0

>  <SCORE.INTRA.DIHEDRAL.0>
0

>  <SCORE.INTRA.POLAR>
0

>  <SCORE.INTRA.POLAR.0>
0

>  <SCORE.INTRA.REPUL>
0

>  <SCORE.INTRA.REPUL.0>
0

>  <SCORE.INTRA.SOLV>
0

>  <SCORE.INTRA.SOLV.lig_0>
-48.3454

>  <SCORE.INTRA.VDW>
0

>  <SCORE.INTRA.VDW.0>
0

>  <SCORE.INTRA.norm>
0

>  <SCORE.RESTR>
0

>  <SCORE.RESTR.CAVITY>
0

>  <SCORE.RESTR.norm>
0

>  <SCORE.SYSTEM>
0

>  <SCORE.SYSTEM.CONST>
0

>  <SCORE.SYSTEM.DIHEDRAL>
0

>  <SCORE.SYSTEM.SOLV>
0

>  <SCORE.SYSTEM.norm>
0

>  <SCORE.heavy>
11

>  <SCORE.norm>
-1.04183

>  <RMSD>
0.633

$$$$
ligand
 OpenBabel02271912153D
libRbt.so/2013.1/901 2013/11/27
 11 12  0  0  0  0  0  0  0  0999 V2000
  -11.8329  -12.7379    8.8291 N   0  0  0  0  0  0  0  0  0  0  0  0
  -11.4863  -14.0326    8.9085 C   0  0  0  0  0  0  0  0  0  0  0  0
  -11.5030  -14.6497   10.0866 N   0  0  0  0  0  0  0  0  0  0  0  0
  -11.1129  -14.7079    7.8104 N   0  0  0  0  0  0  0  0  0  0  0  0
  -11.0757  -14.1026    6.6141 C   0  0  0  0  0  0  0  0  0  0  0  0
  -11.4292  -12.7637    6.5041 C   0  0  0  0  0  0  0  0  0  0  0  0
  -11.8151  -12.0859    7.6558 C   0  0  0  0  0  0  0  0  0  0  0  0
  -12.1707  -10.8061    7.5944 N   0  0  0  0  0  0  0  0  0  0  0  0
  -11.2906  -12.4169    5.2280 N   0  0  0  0  0  0  0  0  0  0  0  0
  -10.8678  -13.4870    4.5586 C   0  0  0  0  0  0  0  0  0  0  0  0
  -10.7361  -14.5137    5.3958 N   0  0  0  0  0  0  0  0  0  0  0  0
  1  7  2  0  0  0  0
  1  2  1  0  0  0  0
  2  3  1  0  0  0  0
  2  4  2  0  0  0  0
  4  5  1  0  0  0  0
  5  6  2  0  0  0  0
  5 11  1  0  0  0  0
  6  7  1  0  0  0  0
  6  9  1  0  0  0  0
  7  8  1  0  0  0  0
  9 10  1  0  0  0  0
 10 11  2  0  0  0  0
M  END
>  <CHROM.1>
-11.39675534,-13.30079325,7.22295684,2.00100417,-1.25033078,2.12444650

>  <Name>
ligand

>  <RI>
0

>  <Rbt.Current_Directory>
/home/itssahil/PROJECTS/Mol_Feturizer/Test_systems_manuscript/rnas/2b57

>  <Rbt.Executable>
rbdock ($Id: //depot/dev/client3/rdock/2013.1/src/exe/rbdock.cxx#4 $)

>  <Rbt.Library>
libRbt.so (2013.1, Build901 2013/11/27)

>  <Rbt.Parameter_File>
/export/apps/rDock/src/rDock_2013.1_src/data/scripts/dock_solv.prm

>  <Rbt.Receptor>
prm/pocket_docking_6.prm

>  <SCORE>
-11.4626

>  <SCORE.INTER>
-11.4626

>  <SCORE.INTER.CONST>
1

>  <SCORE.INTER.POLAR>
0

>  <SCORE.INTER.ROT>
0

>  <SCORE.INTER.SOLV>
21.5602

>  <SCORE.INTER.VDW>
-18.4285

>  <SCORE.INTER.norm>
-1.04206

>  <SCORE.INTRA>
0

>  <SCORE.INTRA.DIHEDRAL>
0

>  <SCORE.INTRA.DIHEDRAL.0>
0

>  <SCORE.INTRA.POLAR>
0

>  <SCORE.INTRA.POLAR.0>
0

>  <SCORE.INTRA.REPUL>
0

>  <SCORE.INTRA.REPUL.0>
0

>  <SCORE.INTRA.SOLV>
0

>  <SCORE.INTRA.SOLV.lig_0>
-48.3454

>  <SCORE.INTRA.VDW>
0

>  <SCORE.INTRA.VDW.0>
0

>  <SCORE.INTRA.norm>
0

>  <SCORE.RESTR>
0

>  <SCORE.RESTR.CAVITY>
0

>  <SCORE.RESTR.norm>
0

>  <SCORE.SYSTEM>
0

>  <SCORE.SYSTEM.CONST>
0

>  <SCORE.SYSTEM.DIHEDRAL>
0

>  <SCORE.SYSTEM.SOLV>
0

>  <SCORE.SYSTEM.norm>
0

>  <SCORE.heavy>
11

>  <SCORE.norm>
-1.04206

>  <RMSD>
0.633

$$$$
ligand
 OpenBabel02271912153D
libRbt.so/2013.1/901 2013/11/27
 11 12  0  0  0  0  0  0  0  0999 V2000
  -11.8395  -12.7640    8.8275 N   0  0  0  0  0  0  0  0  0  0  0  0
  -11.4749  -14.0522    8.9294 C   0  0  0  0  0  0  0  0  0  0  0  0
  -11.4824  -14.6487   10.1181 N   0  0  0  0  0  0  0  0  0  0  0  0
  -11.0927  -14.7413    7.8430 N   0  0  0  0  0  0  0  0  0  0  0  0
  -11.0645  -14.1566    6.6363 C   0  0  0  0  0  0  0  0  0  0  0  0
  -11.4366  -12.8249    6.5030 C   0  0  0  0  0  0  0  0  0  0  0  0
  -11.8313  -12.1325    7.6430 C   0  0  0  0  0  0  0  0  0  0  0  0
  -12.2048  -10.8591    7.5595 N   0  0  0  0  0  0  0  0  0  0  0  0
  -11.3035  -12.4986    5.2209 N   0  0  0  0  0  0  0  0  0  0  0  0
  -10.8663  -13.5744    4.5701 C   0  0  0  0  0  0  0  0  0  0  0  0
  -10.7198  -14.5843    5.4251 N   0  0  0  0  0  0  0  0  0  0  0  0
  1  7  2  0  0  0  0
  1  2  1  0  0  0  0
  2  3  1  0  0  0  0
  2  4  2  0  0  0  0
  4  5  1  0  0  0  0
  5  6  2  0  0  0  0
  5 11  1  0  0  0  0
  6  7  1  0  0  0  0
  6  9  1  0  0  0  0
  7  8  1  0  0  0  0
  9 10  1  0  0  0  0
 10 11  2  0  0  0  0
M  END
>  <CHROM.1>
-11.39639300,-13.34884785,7.23117831,1.97725490,-1.23867465,2.08442063

>  <Name>
ligand

>  <RI>
0

>  <Rbt.Current_Directory>
/home/itssahil/PROJECTS/Mol_Feturizer/Test_systems_manuscript/rnas/2b57

>  <Rbt.Executable>
rbdock ($Id: //depot/dev/client3/rdock/2013.1/src/exe/rbdock.cxx#4 $)

>  <Rbt.Library>
libRbt.so (2013.1, Build901 2013/11/27)

>  <Rbt.Parameter_File>
/export/apps/rDock/src/rDock_2013.1_src/data/scripts/dock_solv.prm

>  <Rbt.Receptor>
prm/pocket_docking_5.prm

>  <SCORE>
-11.5185

>  <SCORE.INTER>
-11.5185

>  <SCORE.INTER.CONST>
1

>  <SCORE.INTER.POLAR>
0

>  <SCORE.INTER.ROT>
0

>  <SCORE.INTER.SOLV>
21.4016

>  <SCORE.INTER.VDW>
-18.4129

>  <SCORE.INTER.norm>
-1.04714

>  <SCORE.INTRA>
0

>  <SCORE.INTRA.DIHEDRAL>
0

>  <SCORE.INTRA.DIHEDRAL.0>
0

>  <SCORE.INTRA.POLAR>
0

>  <SCORE.INTRA.POLAR.0>
0

>  <SCORE.INTRA.REPUL>
0

>  <SCORE.INTRA.REPUL.0>
0

>  <SCORE.INTRA.SOLV>
0

>  <SCORE.INTRA.SOLV.lig_0>
-48.3454

>  <SCORE.INTRA.VDW>
0

>  <SCORE.INTRA.VDW.0>
0

>  <SCORE.INTRA.norm>
0

>  <SCORE.RESTR>
0

>  <SCORE.RESTR.CAVITY>
0

>  <SCORE.RESTR.norm>
0

>  <SCORE.SYSTEM>
0

>  <SCORE.SYSTEM.CONST>
0

>  <SCORE.SYSTEM.DIHEDRAL>
0

>  <SCORE.SYSTEM.SOLV>
0

>  <SCORE.SYSTEM.norm>
0

>  <SCORE.heavy>
11

>  <SCORE.norm>
-1.04714

>  <RMSD>
0.634

$$$$
ligand
 OpenBabel02271912153D
libRbt.so/2013.1/901 2013/11/27
 11 12  0  0  0  0  0  0  0  0999 V2000
  -11.8460  -12.7670    8.8317 N   0  0  0  0  0  0  0  0  0  0  0  0
  -11.4924  -14.0604    8.9019 C   0  0  0  0  0  0  0  0  0  0  0  0
  -11.5104  -14.6872   10.0748 N   0  0  0  0  0  0  0  0  0  0  0  0
  -11.1107  -14.7244    7.7999 N   0  0  0  0  0  0  0  0  0  0  0  0
  -11.0720  -14.1091    6.6088 C   0  0  0  0  0  0  0  0  0  0  0  0
  -11.4327  -12.7714    6.5082 C   0  0  0  0  0  0  0  0  0  0  0  0
  -11.8271  -12.1053    7.6639 C   0  0  0  0  0  0  0  0  0  0  0  0
  -12.1898  -10.8271    7.6116 N   0  0  0  0  0  0  0  0  0  0  0  0
  -11.2909  -12.4132    5.2356 N   0  0  0  0  0  0  0  0  0  0  0  0
  -10.8593  -13.4755    4.5592 C   0  0  0  0  0  0  0  0  0  0  0  0
  -10.7251  -14.5083    5.3886 N   0  0  0  0  0  0  0  0  0  0  0  0
  1  7  2  0  0  0  0
  1  2  1  0  0  0  0
  2  3  1  0  0  0  0
  2  4  2  0  0  0  0
  4  5  1  0  0  0  0
  5  6  2  0  0  0  0
  5 11  1  0  0  0  0
  6  7  1  0  0  0  0
  6  9  1  0  0  0  0
  7  8  1  0  0  0  0
  9 10  1  0  0  0  0
 10 11  2  0  0  0  0
M  END
>  <CHROM.1>
-11.40015682,-13.31416306,7.22281802,2.00247108,-1.24334980,2.13405319

>  <Name>
ligand

>  <RI>
0

>  <Rbt.Current_Directory>
/home/itssahil/PROJECTS/Mol_Feturizer/Test_systems_manuscript/rnas/2b57

>  <Rbt.Executable>
rbdock ($Id: //depot/dev/client3/rdock/2013.1/src/exe/rbdock.cxx#4 $)

>  <Rbt.Library>
libRbt.so (2013.1, Build901 2013/11/27)

>  <Rbt.Parameter_File>
/export/apps/rDock/src/rDock_2013.1_src/data/scripts/dock_solv.prm

>  <Rbt.Receptor>
prm/blind_docking_60.prm

>  <SCORE>
-11.4723

>  <SCORE.INTER>
-11.4723

>  <SCORE.INTER.CONST>
1

>  <SCORE.INTER.POLAR>
0

>  <SCORE.INTER.ROT>
0

>  <SCORE.INTER.SOLV>
21.5263

>  <SCORE.INTER.VDW>
-18.4236

>  <SCORE.INTER.norm>
-1.04294

>  <SCORE.INTRA>
0

>  <SCORE.INTRA.DIHEDRAL>
0

>  <SCORE.INTRA.DIHEDRAL.0>
0

>  <SCORE.INTRA.POLAR>
0

>  <SCORE.INTRA.POLAR.0>
0

>  <SCORE.INTRA.REPUL>
0

>  <SCORE.INTRA.REPUL.0>
0

>  <SCORE.INTRA.SOLV>
0

>  <SCORE.INTRA.SOLV.lig_0>
-48.3454

>  <SCORE.INTRA.VDW>
0

>  <SCORE.INTRA.VDW.0>
0

>  <SCORE.INTRA.norm>
0

>  <SCORE.RESTR>
0

>  <SCORE.RESTR.CAVITY>
0

>  <SCORE.RESTR.norm>
0

>  <SCORE.SYSTEM>
0

>  <SCORE.SYSTEM.CONST>
0

>  <SCORE.SYSTEM.DIHEDRAL>
0

>  <SCORE.SYSTEM.SOLV>
0

>  <SCORE.SYSTEM.norm>
0

>  <SCORE.heavy>
11

>  <SCORE.norm>
-1.04294

>  <RMSD>
0.635

$$$$
ligand
 OpenBabel02271912153D
libRbt.so/2013.1/901 2013/11/27
 11 12  0  0  0  0  0  0  0  0999 V2000
  -11.8670  -12.6905    8.8030 N   0  0  0  0  0  0  0  0  0  0  0  0
  -11.5074  -13.9803    8.9024 C   0  0  0  0  0  0  0  0  0  0  0  0
  -11.5267  -14.5817   10.0886 N   0  0  0  0  0  0  0  0  0  0  0  0
  -11.1183  -14.6661    7.8164 N   0  0  0  0  0  0  0  0  0  0  0  0
  -11.0782  -14.0765    6.6124 C   0  0  0  0  0  0  0  0  0  0  0  0
  -11.4449  -12.7431    6.4816 C   0  0  0  0  0  0  0  0  0  0  0  0
  -11.8469  -12.0541    7.6212 C   0  0  0  0  0  0  0  0  0  0  0  0
  -12.2155  -10.7791    7.5399 N   0  0  0  0  0  0  0  0  0  0  0  0
  -11.3001  -12.4119    5.2021 N   0  0  0  0  0  0  0  0  0  0  0  0
  -10.8609  -13.4863    4.5504 C   0  0  0  0  0  0  0  0  0  0  0  0
  -10.7248  -14.5003    5.4024 N   0  0  0  0  0  0  0  0  0  0  0  0
  1  7  2  0  0  0  0
  1  2  1  0  0  0  0
  2  3  1  0  0  0  0
  2  4  2  0  0  0  0
  4  5  1  0  0  0  0
  5  6  2  0  0  0  0
  5 11  1  0  0  0  0
  6  7  1  0  0  0  0
  6  9  1  0  0  0  0
  7  8  1  0  0  0  0
  9 10  1  0  0  0  0
 10 11  2  0  0  0  0
M  END
>  <CHROM.1>
-11.41244310,-13.27014746,7.20792069,2.00424453,-1.23726394,2.11409453

>  <Name>
ligand

>  <RI>
0

>  <Rbt.Current_Directory>
/home/itssahil/PROJECTS/Mol_Feturizer/Test_systems_manuscript/rnas/2b57

>  <Rbt.Executable>
rbdock ($Id: //depot/dev/client3/rdock/2013.1/src/exe/rbdock.cxx#4 $)

>  <Rbt.Library>
libRbt.so (2013.1, Build901 2013/11/27)

>  <Rbt.Parameter_File>
/export/apps/rDock/src/rDock_2013.1_src/data/scripts/dock_solv.prm

>  <Rbt.Receptor>
prm/pocket_docking_3.prm

>  <SCORE>
-11.4738

>  <SCORE.INTER>
-11.4738

>  <SCORE.INTER.CONST>
1

>  <SCORE.INTER.POLAR>
0

>  <SCORE.INTER.ROT>
0

>  <SCORE.INTER.SOLV>
21.3284

>  <SCORE.INTER.VDW>
-18.3587

>  <SCORE.INTER.norm>
-1.04307

>  <SCORE.INTRA>
0

>  <SCORE.INTRA.DIHEDRAL>
0

>  <SCORE.INTRA.DIHEDRAL.0>
0

>  <SCORE.INTRA.POLAR>
0

>  <SCORE.INTRA.POLAR.0>
0

>  <SCORE.INTRA.REPUL>
0

>  <SCORE.INTRA.REPUL.0>
0

>  <SCORE.INTRA.SOLV>
0

>  <SCORE.INTRA.SOLV.lig_0>
-48.3454

>  <SCORE.INTRA.VDW>
0

>  <SCORE.INTRA.VDW.0>
0

>  <SCORE.INTRA.norm>
0

>  <SCORE.RESTR>
0

>  <SCORE.RESTR.CAVITY>
0

>  <SCORE.RESTR.norm>
0

>  <SCORE.SYSTEM>
0

>  <SCORE.SYSTEM.CONST>
0

>  <SCORE.SYSTEM.DIHEDRAL>
0

>  <SCORE.SYSTEM.SOLV>
0

>  <SCORE.SYSTEM.norm>
0

>  <SCORE.heavy>
11

>  <SCORE.norm>
-1.04307

>  <RMSD>
0.635

$$$$
ligand
 OpenBabel02271912153D
libRbt.so/2013.1/901 2013/11/27
 11 12  0  0  0  0  0  0  0  0999 V2000
  -11.8287  -12.7589    8.8342 N   0  0  0  0  0  0  0  0  0  0  0  0
  -11.4861  -14.0551    8.9073 C   0  0  0  0  0  0  0  0  0  0  0  0
  -11.5056  -14.6781   10.0823 N   0  0  0  0  0  0  0  0  0  0  0  0
  -11.1138  -14.7258    7.8062 N   0  0  0  0  0  0  0  0  0  0  0  0
  -11.0737  -14.1145    6.6130 C   0  0  0  0  0  0  0  0  0  0  0  0
  -11.4231  -12.7741    6.5094 C   0  0  0  0  0  0  0  0  0  0  0  0
  -11.8080  -12.1011    7.6643 C   0  0  0  0  0  0  0  0  0  0  0  0
  -12.1597  -10.8199    7.6092 N   0  0  0  0  0  0  0  0  0  0  0  0
  -11.2824  -12.4212    5.2352 N   0  0  0  0  0  0  0  0  0  0  0  0
  -10.8623  -13.4892    4.5608 C   0  0  0  0  0  0  0  0  0  0  0  0
  -10.7343  -14.5205    5.3929 N   0  0  0  0  0  0  0  0  0  0  0  0
  1  7  2  0  0  0  0
  1  2  1  0  0  0  0
  2  3  1  0  0  0  0
  2  4  2  0  0  0  0
  4  5  1  0  0  0  0
  5  6  2  0  0  0  0
  5 11  1  0  0  0  0
  6  7  1  0  0  0  0
  6  9  1  0  0  0  0
  7  8  1  0  0  0  0
  9 10  1  0  0  0  0
 10 11  2  0  0  0  0
M  END
>  <CHROM.1>
-11.39291720,-13.31492689,7.22561491,2.00828835,-1.25240300,2.13645223

>  <Name>
ligand

>  <RI>
0

>  <Rbt.Current_Directory>
/home/itssahil/PROJECTS/Mol_Feturizer/Test_systems_manuscript/rnas/2b57

>  <Rbt.Executable>
rbdock ($Id: //depot/dev/client3/rdock/2013.1/src/exe/rbdock.cxx#4 $)

>  <Rbt.Library>
libRbt.so (2013.1, Build901 2013/11/27)

>  <Rbt.Parameter_File>
/export/apps/rDock/src/rDock_2013.1_src/data/scripts/dock_solv.prm

>  <Rbt.Receptor>
prm/pocket_docking_3.prm

>  <SCORE>
-11.4646

>  <SCORE.INTER>
-11.4646

>  <SCORE.INTER.CONST>
1

>  <SCORE.INTER.POLAR>
0

>  <SCORE.INTER.ROT>
0

>  <SCORE.INTER.SOLV>
21.6207

>  <SCORE.INTER.VDW>
-18.45

>  <SCORE.INTER.norm>
-1.04224

>  <SCORE.INTRA>
0

>  <SCORE.INTRA.DIHEDRAL>
0

>  <SCORE.INTRA.DIHEDRAL.0>
0

>  <SCORE.INTRA.POLAR>
0

>  <SCORE.INTRA.POLAR.0>
0

>  <SCORE.INTRA.REPUL>
0

>  <SCORE.INTRA.REPUL.0>
0

>  <SCORE.INTRA.SOLV>
0

>  <SCORE.INTRA.SOLV.lig_0>
-48.3454

>  <SCORE.INTRA.VDW>
0

>  <SCORE.INTRA.VDW.0>
0

>  <SCORE.INTRA.norm>
0

>  <SCORE.RESTR>
0

>  <SCORE.RESTR.CAVITY>
0

>  <SCORE.RESTR.norm>
0

>  <SCORE.SYSTEM>
0

>  <SCORE.SYSTEM.CONST>
0

>  <SCORE.SYSTEM.DIHEDRAL>
0

>  <SCORE.SYSTEM.SOLV>
0

>  <SCORE.SYSTEM.norm>
0

>  <SCORE.heavy>
11

>  <SCORE.norm>
-1.04224

>  <RMSD>
0.635

$$$$
ligand
 OpenBabel02271912153D
libRbt.so/2013.1/901 2013/11/27
 11 12  0  0  0  0  0  0  0  0999 V2000
  -11.8708  -12.6917    8.8020 N   0  0  0  0  0  0  0  0  0  0  0  0
  -11.5113  -13.9816    8.9010 C   0  0  0  0  0  0  0  0  0  0  0  0
  -11.5323  -14.5838   10.0867 N   0  0  0  0  0  0  0  0  0  0  0  0
  -11.1206  -14.6666    7.8151 N   0  0  0  0  0  0  0  0  0  0  0  0
  -11.0787  -14.0761    6.6116 C   0  0  0  0  0  0  0  0  0  0  0  0
  -11.4453  -12.7426    6.4812 C   0  0  0  0  0  0  0  0  0  0  0  0
  -11.8490  -12.0545    7.6207 C   0  0  0  0  0  0  0  0  0  0  0  0
  -12.2176  -10.7795    7.5397 N   0  0  0  0  0  0  0  0  0  0  0  0
  -11.2986  -12.4105    5.2021 N   0  0  0  0  0  0  0  0  0  0  0  0
  -10.8584  -13.4844    4.5504 C   0  0  0  0  0  0  0  0  0  0  0  0
  -10.7235  -14.4990    5.4018 N   0  0  0  0  0  0  0  0  0  0  0  0
  1  7  2  0  0  0  0
  1  2  1  0  0  0  0
  2  3  1  0  0  0  0
  2  4  2  0  0  0  0
  4  5  1  0  0  0  0
  5  6  2  0  0  0  0
  5 11  1  0  0  0  0
  6  7  1  0  0  0  0
  6  9  1  0  0  0  0
  7  8  1  0  0  0  0
  9 10  1  0  0  0  0
 10 11  2  0  0  0  0
M  END
>  <CHROM.1>
-11.41387602,-13.27018533,7.20717709,2.00799655,-1.23643869,2.11835608

>  <Name>
ligand

>  <RI>
0

>  <Rbt.Current_Directory>
/home/itssahil/PROJECTS/Mol_Feturizer/Test_systems_manuscript/rnas/2b57

>  <Rbt.Executable>
rbdock ($Id: //depot/dev/client3/rdock/2013.1/src/exe/rbdock.cxx#4 $)

>  <Rbt.Library>
libRbt.so (2013.1, Build901 2013/11/27)

>  <Rbt.Parameter_File>
/export/apps/rDock/src/rDock_2013.1_src/data/scripts/dock_solv.prm

>  <Rbt.Receptor>
prm/pocket_docking_5.prm

>  <SCORE>
-11.4762

>  <SCORE.INTER>
-11.4762

>  <SCORE.INTER.CONST>
1

>  <SCORE.INTER.POLAR>
0

>  <SCORE.INTER.ROT>
0

>  <SCORE.INTER.SOLV>
21.3241

>  <SCORE.INTER.VDW>
-18.3588

>  <SCORE.INTER.norm>
-1.04329

>  <SCORE.INTRA>
0

>  <SCORE.INTRA.DIHEDRAL>
0

>  <SCORE.INTRA.DIHEDRAL.0>
0

>  <SCORE.INTRA.POLAR>
0

>  <SCORE.INTRA.POLAR.0>
0

>  <SCORE.INTRA.REPUL>
0

>  <SCORE.INTRA.REPUL.0>
0

>  <SCORE.INTRA.SOLV>
0

>  <SCORE.INTRA.SOLV.lig_0>
-48.3454

>  <SCORE.INTRA.VDW>
0

>  <SCORE.INTRA.VDW.0>
0

>  <SCORE.INTRA.norm>
0

>  <SCORE.RESTR>
0

>  <SCORE.RESTR.CAVITY>
0

>  <SCORE.RESTR.norm>
0

>  <SCORE.SYSTEM>
0

>  <SCORE.SYSTEM.CONST>
0

>  <SCORE.SYSTEM.DIHEDRAL>
0

>  <SCORE.SYSTEM.SOLV>
0

>  <SCORE.SYSTEM.norm>
0

>  <SCORE.heavy>
11

>  <SCORE.norm>
-1.04329

>  <RMSD>
0.635

$$$$
ligand
 OpenBabel02271912153D
libRbt.so/2013.1/901 2013/11/27
 11 12  0  0  0  0  0  0  0  0999 V2000
  -11.8702  -12.6894    8.8008 N   0  0  0  0  0  0  0  0  0  0  0  0
  -11.5090  -13.9787    8.9006 C   0  0  0  0  0  0  0  0  0  0  0  0
  -11.5322  -14.5813   10.0861 N   0  0  0  0  0  0  0  0  0  0  0  0
  -11.1145  -14.6630    7.8155 N   0  0  0  0  0  0  0  0  0  0  0  0
  -11.0703  -14.0722    6.6122 C   0  0  0  0  0  0  0  0  0  0  0  0
  -11.4386  -12.7392    6.4812 C   0  0  0  0  0  0  0  0  0  0  0  0
  -11.8464  -12.0520    7.6197 C   0  0  0  0  0  0  0  0  0  0  0  0
  -12.2167  -10.7775    7.5380 N   0  0  0  0  0  0  0  0  0  0  0  0
  -11.2891  -12.4066    5.2025 N   0  0  0  0  0  0  0  0  0  0  0  0
  -10.8455  -13.4798    4.5517 C   0  0  0  0  0  0  0  0  0  0  0  0
  -10.7113  -14.4943    5.4033 N   0  0  0  0  0  0  0  0  0  0  0  0
  1  7  2  0  0  0  0
  1  2  1  0  0  0  0
  2  3  1  0  0  0  0
  2  4  2  0  0  0  0
  4  5  1  0  0  0  0
  5  6  2  0  0  0  0
  5 11  1  0  0  0  0
  6  7  1  0  0  0  0
  6  9  1  0  0  0  0
  7  8  1  0  0  0  0
  9 10  1  0  0  0  0
 10 11  2  0  0  0  0
M  END
>  <CHROM.1>
-11.40828381,-13.26688176,7.20709102,2.01234846,-1.23377776,2.12265860

>  <Name>
ligand

>  <RI>
0

>  <Rbt.Current_Directory>
/home/itssahil/PROJECTS/Mol_Feturizer/Test_systems_manuscript/rnas/2b57

>  <Rbt.Executable>
rbdock ($Id: //depot/dev/client3/rdock/2013.1/src/exe/rbdock.cxx#4 $)

>  <Rbt.Library>
libRbt.so (2013.1, Build901 2013/11/27)

>  <Rbt.Parameter_File>
/export/apps/rDock/src/rDock_2013.1_src/data/scripts/dock_solv.prm

>  <Rbt.Receptor>
prm/pocket_docking_5.prm

>  <SCORE>
-11.4784

>  <SCORE.INTER>
-11.4784

>  <SCORE.INTER.CONST>
1

>  <SCORE.INTER.POLAR>
0

>  <SCORE.INTER.ROT>
0

>  <SCORE.INTER.SOLV>
21.3215

>  <SCORE.INTER.VDW>
-18.3594

>  <SCORE.INTER.norm>
-1.04349

>  <SCORE.INTRA>
0

>  <SCORE.INTRA.DIHEDRAL>
0

>  <SCORE.INTRA.DIHEDRAL.0>
0

>  <SCORE.INTRA.POLAR>
0

>  <SCORE.INTRA.POLAR.0>
0

>  <SCORE.INTRA.REPUL>
0

>  <SCORE.INTRA.REPUL.0>
0

>  <SCORE.INTRA.SOLV>
0

>  <SCORE.INTRA.SOLV.lig_0>
-48.3454

>  <SCORE.INTRA.VDW>
0

>  <SCORE.INTRA.VDW.0>
0

>  <SCORE.INTRA.norm>
0

>  <SCORE.RESTR>
0

>  <SCORE.RESTR.CAVITY>
0

>  <SCORE.RESTR.norm>
0

>  <SCORE.SYSTEM>
0

>  <SCORE.SYSTEM.CONST>
0

>  <SCORE.SYSTEM.DIHEDRAL>
0

>  <SCORE.SYSTEM.SOLV>
0

>  <SCORE.SYSTEM.norm>
0

>  <SCORE.heavy>
11

>  <SCORE.norm>
-1.04349

>  <RMSD>
0.635

$$$$
ligand
 OpenBabel02271912153D
libRbt.so/2013.1/901 2013/11/27
 11 12  0  0  0  0  0  0  0  0999 V2000
  -11.8723  -12.6902    8.8012 N   0  0  0  0  0  0  0  0  0  0  0  0
  -11.5112  -13.9795    8.9015 C   0  0  0  0  0  0  0  0  0  0  0  0
  -11.5308  -14.5805   10.0879 N   0  0  0  0  0  0  0  0  0  0  0  0
  -11.1203  -14.6653    7.8161 N   0  0  0  0  0  0  0  0  0  0  0  0
  -11.0798  -14.0762    6.6119 C   0  0  0  0  0  0  0  0  0  0  0  0
  -11.4481  -12.7432    6.4803 C   0  0  0  0  0  0  0  0  0  0  0  0
  -11.8520  -12.0543    7.6191 C   0  0  0  0  0  0  0  0  0  0  0  0
  -12.2221  -10.7798    7.5370 N   0  0  0  0  0  0  0  0  0  0  0  0
  -11.3025  -12.4124    5.2007 N   0  0  0  0  0  0  0  0  0  0  0  0
  -10.8614  -13.4866    4.5499 C   0  0  0  0  0  0  0  0  0  0  0  0
  -10.7248  -14.5000    5.4024 N   0  0  0  0  0  0  0  0  0  0  0  0
  1  7  2  0  0  0  0
  1  2  1  0  0  0  0
  2  3  1  0  0  0  0
  2  4  2  0  0  0  0
  4  5  1  0  0  0  0
  5  6  2  0  0  0  0
  5 11  1  0  0  0  0
  6  7  1  0  0  0  0
  6  9  1  0  0  0  0
  7  8  1  0  0  0  0
  9 10  1  0  0  0  0
 10 11  2  0  0  0  0
M  END
>  <CHROM.1>
-11.41562083,-13.26994679,7.20677854,2.00466543,-1.23573559,2.11408001

>  <Name>
ligand

>  <RI>
0

>  <Rbt.Current_Directory>
/home/itssahil/PROJECTS/Mol_Feturizer/Test_systems_manuscript/rnas/2b57

>  <Rbt.Executable>
rbdock ($Id: //depot/dev/client3/rdock/2013.1/src/exe/rbdock.cxx#4 $)

>  <Rbt.Library>
libRbt.so (2013.1, Build901 2013/11/27)

>  <Rbt.Parameter_File>
/export/apps/rDock/src/rDock_2013.1_src/data/scripts/dock_solv.prm

>  <Rbt.Receptor>
prm/pocket_docking_8.prm

>  <SCORE>
-11.4719

>  <SCORE.INTER>
-11.4719

>  <SCORE.INTER.CONST>
1

>  <SCORE.INTER.POLAR>
0

>  <SCORE.INTER.ROT>
0

>  <SCORE.INTER.SOLV>
21.3141

>  <SCORE.INTER.VDW>
-18.3526

>  <SCORE.INTER.norm>
-1.0429

>  <SCORE.INTRA>
0

>  <SCORE.INTRA.DIHEDRAL>
0

>  <SCORE.INTRA.DIHEDRAL.0>
0

>  <SCORE.INTRA.POLAR>
0

>  <SCORE.INTRA.POLAR.0>
0

>  <SCORE.INTRA.REPUL>
0

>  <SCORE.INTRA.REPUL.0>
0

>  <SCORE.INTRA.SOLV>
0

>  <SCORE.INTRA.SOLV.lig_0>
-48.3454

>  <SCORE.INTRA.VDW>
0

>  <SCORE.INTRA.VDW.0>
0

>  <SCORE.INTRA.norm>
0

>  <SCORE.RESTR>
0

>  <SCORE.RESTR.CAVITY>
0

>  <SCORE.RESTR.norm>
0

>  <SCORE.SYSTEM>
0

>  <SCORE.SYSTEM.CONST>
0

>  <SCORE.SYSTEM.DIHEDRAL>
0

>  <SCORE.SYSTEM.SOLV>
0

>  <SCORE.SYSTEM.norm>
0

>  <SCORE.heavy>
11

>  <SCORE.norm>
-1.0429

>  <RMSD>
0.635

$$$$
ligand
 OpenBabel02271912153D
libRbt.so/2013.1/901 2013/11/27
 11 12  0  0  0  0  0  0  0  0999 V2000
  -11.8685  -12.6868    8.8005 N   0  0  0  0  0  0  0  0  0  0  0  0
  -11.5095  -13.9767    8.9002 C   0  0  0  0  0  0  0  0  0  0  0  0
  -11.5317  -14.5786   10.0861 N   0  0  0  0  0  0  0  0  0  0  0  0
  -11.1183  -14.6622    7.8148 N   0  0  0  0  0  0  0  0  0  0  0  0
  -11.0753  -14.0721    6.6111 C   0  0  0  0  0  0  0  0  0  0  0  0
  -11.4413  -12.7385    6.4801 C   0  0  0  0  0  0  0  0  0  0  0  0
  -11.8456  -12.0499    7.6190 C   0  0  0  0  0  0  0  0  0  0  0  0
  -12.2136  -10.7748    7.5374 N   0  0  0  0  0  0  0  0  0  0  0  0
  -11.2936  -12.4069    5.2010 N   0  0  0  0  0  0  0  0  0  0  0  0
  -10.8533  -13.4812    4.5499 C   0  0  0  0  0  0  0  0  0  0  0  0
  -10.7194  -14.4956    5.4017 N   0  0  0  0  0  0  0  0  0  0  0  0
  1  7  2  0  0  0  0
  1  2  1  0  0  0  0
  2  3  1  0  0  0  0
  2  4  2  0  0  0  0
  4  5  1  0  0  0  0
  5  6  2  0  0  0  0
  5 11  1  0  0  0  0
  6  7  1  0  0  0  0
  6  9  1  0  0  0  0
  7  8  1  0  0  0  0
  9 10  1  0  0  0  0
 10 11  2  0  0  0  0
M  END
>  <CHROM.1>
-11.41062644,-13.26590235,7.20621226,2.01052895,-1.23639291,2.12044188

>  <Name>
ligand

>  <RI>
0

>  <Rbt.Current_Directory>
/home/itssahil/PROJECTS/Mol_Feturizer/Test_systems_manuscript/rnas/2b57

>  <Rbt.Executable>
rbdock ($Id: //depot/dev/client3/rdock/2013.1/src/exe/rbdock.cxx#4 $)

>  <Rbt.Library>
libRbt.so (2013.1, Build901 2013/11/27)

>  <Rbt.Parameter_File>
/export/apps/rDock/src/rDock_2013.1_src/data/scripts/dock_solv.prm

>  <Rbt.Receptor>
prm/pocket_docking_3.prm

>  <SCORE>
-11.4789

>  <SCORE.INTER>
-11.4789

>  <SCORE.INTER.CONST>
1

>  <SCORE.INTER.POLAR>
0

>  <SCORE.INTER.ROT>
0

>  <SCORE.INTER.SOLV>
21.3294

>  <SCORE.INTER.VDW>
-18.3624

>  <SCORE.INTER.norm>
-1.04353

>  <SCORE.INTRA>
0

>  <SCORE.INTRA.DIHEDRAL>
0

>  <SCORE.INTRA.DIHEDRAL.0>
0

>  <SCORE.INTRA.POLAR>
0

>  <SCORE.INTRA.POLAR.0>
0

>  <SCORE.INTRA.REPUL>
0

>  <SCORE.INTRA.REPUL.0>
0

>  <SCORE.INTRA.SOLV>
0

>  <SCORE.INTRA.SOLV.lig_0>
-48.3454

>  <SCORE.INTRA.VDW>
0

>  <SCORE.INTRA.VDW.0>
0

>  <SCORE.INTRA.norm>
0

>  <SCORE.RESTR>
0

>  <SCORE.RESTR.CAVITY>
0

>  <SCORE.RESTR.norm>
0

>  <SCORE.SYSTEM>
0

>  <SCORE.SYSTEM.CONST>
0

>  <SCORE.SYSTEM.DIHEDRAL>
0

>  <SCORE.SYSTEM.SOLV>
0

>  <SCORE.SYSTEM.norm>
0

>  <SCORE.heavy>
11

>  <SCORE.norm>
-1.04353

>  <RMSD>
0.636

$$$$
ligand
 OpenBabel02271912153D
libRbt.so/2013.1/901 2013/11/27
 11 12  0  0  0  0  0  0  0  0999 V2000
  -11.8676  -12.6912    8.8017 N   0  0  0  0  0  0  0  0  0  0  0  0
  -11.5106  -13.9818    8.9007 C   0  0  0  0  0  0  0  0  0  0  0  0
  -11.5317  -14.5837   10.0866 N   0  0  0  0  0  0  0  0  0  0  0  0
  -11.1223  -14.6678    7.8146 N   0  0  0  0  0  0  0  0  0  0  0  0
  -11.0803  -14.0777    6.6109 C   0  0  0  0  0  0  0  0  0  0  0  0
  -11.4444  -12.7435    6.4806 C   0  0  0  0  0  0  0  0  0  0  0  0
  -11.8456  -12.0543    7.6202 C   0  0  0  0  0  0  0  0  0  0  0  0
  -12.2116  -10.7785    7.5394 N   0  0  0  0  0  0  0  0  0  0  0  0
  -11.2982  -12.4120    5.2013 N   0  0  0  0  0  0  0  0  0  0  0  0
  -10.8607  -13.4870    4.5493 C   0  0  0  0  0  0  0  0  0  0  0  0
  -10.7271  -14.5016    5.4009 N   0  0  0  0  0  0  0  0  0  0  0  0
  1  7  2  0  0  0  0
  1  2  1  0  0  0  0
  2  3  1  0  0  0  0
  2  4  2  0  0  0  0
  4  5  1  0  0  0  0
  5  6  2  0  0  0  0
  5 11  1  0  0  0  0
  6  7  1  0  0  0  0
  6  9  1  0  0  0  0
  7  8  1  0  0  0  0
  9 10  1  0  0  0  0
 10 11  2  0  0  0  0
M  END
>  <CHROM.1>
-11.41331700,-13.27097577,7.20661868,2.00882192,-1.23867029,2.11891471

>  <Name>
ligand

>  <RI>
0

>  <Rbt.Current_Directory>
/home/itssahil/PROJECTS/Mol_Feturizer/Test_systems_manuscript/rnas/2b57

>  <Rbt.Executable>
rbdock ($Id: //depot/dev/client3/rdock/2013.1/src/exe/rbdock.cxx#4 $)

>  <Rbt.Library>
libRbt.so (2013.1, Build901 2013/11/27)

>  <Rbt.Parameter_File>
/export/apps/rDock/src/rDock_2013.1_src/data/scripts/dock_solv.prm

>  <Rbt.Receptor>
prm/pocket_docking_8.prm

>  <SCORE>
-11.4751

>  <SCORE.INTER>
-11.4751

>  <SCORE.INTER.CONST>
1

>  <SCORE.INTER.POLAR>
0

>  <SCORE.INTER.ROT>
0

>  <SCORE.INTER.SOLV>
21.3421

>  <SCORE.INTER.VDW>
-18.3641

>  <SCORE.INTER.norm>
-1.04319

>  <SCORE.INTRA>
0

>  <SCORE.INTRA.DIHEDRAL>
0

>  <SCORE.INTRA.DIHEDRAL.0>
0

>  <SCORE.INTRA.POLAR>
0

>  <SCORE.INTRA.POLAR.0>
0

>  <SCORE.INTRA.REPUL>
0

>  <SCORE.INTRA.REPUL.0>
0

>  <SCORE.INTRA.SOLV>
0

>  <SCORE.INTRA.SOLV.lig_0>
-48.3454

>  <SCORE.INTRA.VDW>
0

>  <SCORE.INTRA.VDW.0>
0

>  <SCORE.INTRA.norm>
0

>  <SCORE.RESTR>
0

>  <SCORE.RESTR.CAVITY>
0

>  <SCORE.RESTR.norm>
0

>  <SCORE.SYSTEM>
0

>  <SCORE.SYSTEM.CONST>
0

>  <SCORE.SYSTEM.DIHEDRAL>
0

>  <SCORE.SYSTEM.SOLV>
0

>  <SCORE.SYSTEM.norm>
0

>  <SCORE.heavy>
11

>  <SCORE.norm>
-1.04319

>  <RMSD>
0.636

$$$$
ligand
 OpenBabel02271912153D
libRbt.so/2013.1/901 2013/11/27
 11 12  0  0  0  0  0  0  0  0999 V2000
  -11.8675  -12.6859    8.7993 N   0  0  0  0  0  0  0  0  0  0  0  0
  -11.5075  -13.9756    8.8988 C   0  0  0  0  0  0  0  0  0  0  0  0
  -11.5317  -14.5784   10.0841 N   0  0  0  0  0  0  0  0  0  0  0  0
  -11.1131  -14.6598    7.8138 N   0  0  0  0  0  0  0  0  0  0  0  0
  -11.0680  -14.0687    6.6106 C   0  0  0  0  0  0  0  0  0  0  0  0
  -11.4351  -12.7354    6.4798 C   0  0  0  0  0  0  0  0  0  0  0  0
  -11.8426  -12.0481    7.6184 C   0  0  0  0  0  0  0  0  0  0  0  0
  -12.2118  -10.7733    7.5370 N   0  0  0  0  0  0  0  0  0  0  0  0
  -11.2848  -12.4025    5.2013 N   0  0  0  0  0  0  0  0  0  0  0  0
  -10.8419  -13.4759    4.5504 C   0  0  0  0  0  0  0  0  0  0  0  0
  -10.7089  -14.4908    5.4017 N   0  0  0  0  0  0  0  0  0  0  0  0
  1  7  2  0  0  0  0
  1  2  1  0  0  0  0
  2  3  1  0  0  0  0
  2  4  2  0  0  0  0
  4  5  1  0  0  0  0
  5  6  2  0  0  0  0
  5 11  1  0  0  0  0
  6  7  1  0  0  0  0
  6  9  1  0  0  0  0
  7  8  1  0  0  0  0
  9 10  1  0  0  0  0
 10 11  2  0  0  0  0
M  END
>  <CHROM.1>
-11.40547178,-13.26329325,7.20561452,2.01474671,-1.23432548,2.12521699

>  <Name>
ligand

>  <RI>
0

>  <Rbt.Current_Directory>
/home/itssahil/PROJECTS/Mol_Feturizer/Test_systems_manuscript/rnas/2b57

>  <Rbt.Executable>
rbdock ($Id: //depot/dev/client3/rdock/2013.1/src/exe/rbdock.cxx#4 $)

>  <Rbt.Library>
libRbt.so (2013.1, Build901 2013/11/27)

>  <Rbt.Parameter_File>
/export/apps/rDock/src/rDock_2013.1_src/data/scripts/dock_solv.prm

>  <Rbt.Receptor>
prm/blind_docking_100.prm

>  <SCORE>
-11.4789

>  <SCORE.INTER>
-11.4789

>  <SCORE.INTER.CONST>
1

>  <SCORE.INTER.POLAR>
0

>  <SCORE.INTER.ROT>
0

>  <SCORE.INTER.SOLV>
21.3312

>  <SCORE.INTER.VDW>
-18.363

>  <SCORE.INTER.norm>
-1.04354

>  <SCORE.INTRA>
0

>  <SCORE.INTRA.DIHEDRAL>
0

>  <SCORE.INTRA.DIHEDRAL.0>
0

>  <SCORE.INTRA.POLAR>
0

>  <SCORE.INTRA.POLAR.0>
0

>  <SCORE.INTRA.REPUL>
0

>  <SCORE.INTRA.REPUL.0>
0

>  <SCORE.INTRA.SOLV>
0

>  <SCORE.INTRA.SOLV.lig_0>
-48.3454

>  <SCORE.INTRA.VDW>
0

>  <SCORE.INTRA.VDW.0>
0

>  <SCORE.INTRA.norm>
0

>  <SCORE.RESTR>
0

>  <SCORE.RESTR.CAVITY>
0

>  <SCORE.RESTR.norm>
0

>  <SCORE.SYSTEM>
0

>  <SCORE.SYSTEM.CONST>
0

>  <SCORE.SYSTEM.DIHEDRAL>
0

>  <SCORE.SYSTEM.SOLV>
0

>  <SCORE.SYSTEM.norm>
0

>  <SCORE.heavy>
11

>  <SCORE.norm>
-1.04354

>  <RMSD>
0.637

$$$$
ligand
 OpenBabel02271912153D
libRbt.so/2013.1/901 2013/11/27
 11 12  0  0  0  0  0  0  0  0999 V2000
  -11.8409  -12.7652    8.8279 N   0  0  0  0  0  0  0  0  0  0  0  0
  -11.4963  -14.0604    8.9070 C   0  0  0  0  0  0  0  0  0  0  0  0
  -11.5232  -14.6804   10.0834 N   0  0  0  0  0  0  0  0  0  0  0  0
  -11.1146  -14.7333    7.8103 N   0  0  0  0  0  0  0  0  0  0  0  0
  -11.0669  -14.1251    6.6159 C   0  0  0  0  0  0  0  0  0  0  0  0
  -11.4182  -12.7856    6.5062 C   0  0  0  0  0  0  0  0  0  0  0  0
  -11.8128  -12.1103    7.6565 C   0  0  0  0  0  0  0  0  0  0  0  0
  -12.1666  -10.8300    7.5954 N   0  0  0  0  0  0  0  0  0  0  0  0
  -11.2688  -12.4358    5.2322 N   0  0  0  0  0  0  0  0  0  0  0  0
  -10.8416  -13.5047    4.5637 C   0  0  0  0  0  0  0  0  0  0  0  0
  -10.7178  -14.5336    5.3994 N   0  0  0  0  0  0  0  0  0  0  0  0
  1  7  2  0  0  0  0
  1  2  1  0  0  0  0
  2  3  1  0  0  0  0
  2  4  2  0  0  0  0
  4  5  1  0  0  0  0
  5  6  2  0  0  0  0
  5 11  1  0  0  0  0
  6  7  1  0  0  0  0
  6  9  1  0  0  0  0
  7  8  1  0  0  0  0
  9 10  1  0  0  0  0
 10 11  2  0  0  0  0
M  END
>  <CHROM.1>
-11.39218854,-13.32452122,7.22403944,2.02455918,-1.24678551,2.14926324

>  <Name>
ligand

>  <RI>
0

>  <Rbt.Current_Directory>
/home/itssahil/PROJECTS/Mol_Feturizer/Test_systems_manuscript/rnas/2b57

>  <Rbt.Executable>
rbdock ($Id: //depot/dev/client3/rdock/2013.1/src/exe/rbdock.cxx#4 $)

>  <Rbt.Library>
libRbt.so (2013.1, Build901 2013/11/27)

>  <Rbt.Parameter_File>
/export/apps/rDock/src/rDock_2013.1_src/data/scripts/dock_solv.prm

>  <Rbt.Receptor>
prm/blind_docking_40.prm

>  <SCORE>
-11.4689

>  <SCORE.INTER>
-11.4689

>  <SCORE.INTER.CONST>
1

>  <SCORE.INTER.POLAR>
0

>  <SCORE.INTER.ROT>
0

>  <SCORE.INTER.SOLV>
21.578

>  <SCORE.INTER.VDW>
-18.4386

>  <SCORE.INTER.norm>
-1.04262

>  <SCORE.INTRA>
0

>  <SCORE.INTRA.DIHEDRAL>
0

>  <SCORE.INTRA.DIHEDRAL.0>
0

>  <SCORE.INTRA.POLAR>
0

>  <SCORE.INTRA.POLAR.0>
0

>  <SCORE.INTRA.REPUL>
0

>  <SCORE.INTRA.REPUL.0>
0

>  <SCORE.INTRA.SOLV>
0

>  <SCORE.INTRA.SOLV.lig_0>
-48.3454

>  <SCORE.INTRA.VDW>
0

>  <SCORE.INTRA.VDW.0>
0

>  <SCORE.INTRA.norm>
0

>  <SCORE.RESTR>
0

>  <SCORE.RESTR.CAVITY>
0

>  <SCORE.RESTR.norm>
0

>  <SCORE.SYSTEM>
0

>  <SCORE.SYSTEM.CONST>
0

>  <SCORE.SYSTEM.DIHEDRAL>
0

>  <SCORE.SYSTEM.SOLV>
0

>  <SCORE.SYSTEM.norm>
0

>  <SCORE.heavy>
11

>  <SCORE.norm>
-1.04262

>  <RMSD>
0.637

$$$$
ligand
 OpenBabel02271912153D
libRbt.so/2013.1/901 2013/11/27
 11 12  0  0  0  0  0  0  0  0999 V2000
  -11.8659  -12.6863    8.7998 N   0  0  0  0  0  0  0  0  0  0  0  0
  -11.5063  -13.9761    8.8988 C   0  0  0  0  0  0  0  0  0  0  0  0
  -11.5286  -14.5788   10.0842 N   0  0  0  0  0  0  0  0  0  0  0  0
  -11.1141  -14.6606    7.8131 N   0  0  0  0  0  0  0  0  0  0  0  0
  -11.0709  -14.0696    6.6099 C   0  0  0  0  0  0  0  0  0  0  0  0
  -11.4377  -12.7361    6.4796 C   0  0  0  0  0  0  0  0  0  0  0  0
  -11.8429  -12.0486    7.6188 C   0  0  0  0  0  0  0  0  0  0  0  0
  -12.2116  -10.7736    7.5380 N   0  0  0  0  0  0  0  0  0  0  0  0
  -11.2895  -12.4035    5.2008 N   0  0  0  0  0  0  0  0  0  0  0  0
  -10.8482  -13.4771    4.5492 C   0  0  0  0  0  0  0  0  0  0  0  0
  -10.7142  -14.4920    5.4003 N   0  0  0  0  0  0  0  0  0  0  0  0
  1  7  2  0  0  0  0
  1  2  1  0  0  0  0
  2  3  1  0  0  0  0
  2  4  2  0  0  0  0
  4  5  1  0  0  0  0
  5  6  2  0  0  0  0
  5 11  1  0  0  0  0
  6  7  1  0  0  0  0
  6  9  1  0  0  0  0
  7  8  1  0  0  0  0
  9 10  1  0  0  0  0
 10 11  2  0  0  0  0
M  END
>  <CHROM.1>
-11.40698508,-13.26399626,7.20537228,2.01080645,-1.23562735,2.12141450

>  <Name>
ligand

>  <RI>
0

>  <Rbt.Current_Directory>
/home/itssahil/PROJECTS/Mol_Feturizer/Test_systems_manuscript/rnas/2b57

>  <Rbt.Executable>
rbdock ($Id: //depot/dev/client3/rdock/2013.1/src/exe/rbdock.cxx#4 $)

>  <Rbt.Library>
libRbt.so (2013.1, Build901 2013/11/27)

>  <Rbt.Parameter_File>
/export/apps/rDock/src/rDock_2013.1_src/data/scripts/dock_solv.prm

>  <Rbt.Receptor>
prm/pocket_docking_3.prm

>  <SCORE>
-11.4776

>  <SCORE.INTER>
-11.4776

>  <SCORE.INTER.CONST>
1

>  <SCORE.INTER.POLAR>
0

>  <SCORE.INTER.ROT>
0

>  <SCORE.INTER.SOLV>
21.3342

>  <SCORE.INTER.VDW>
-18.3631

>  <SCORE.INTER.norm>
-1.04342

>  <SCORE.INTRA>
0

>  <SCORE.INTRA.DIHEDRAL>
0

>  <SCORE.INTRA.DIHEDRAL.0>
0

>  <SCORE.INTRA.POLAR>
0

>  <SCORE.INTRA.POLAR.0>
0

>  <SCORE.INTRA.REPUL>
0

>  <SCORE.INTRA.REPUL.0>
0

>  <SCORE.INTRA.SOLV>
0

>  <SCORE.INTRA.SOLV.lig_0>
-48.3454

>  <SCORE.INTRA.VDW>
0

>  <SCORE.INTRA.VDW.0>
0

>  <SCORE.INTRA.norm>
0

>  <SCORE.RESTR>
0

>  <SCORE.RESTR.CAVITY>
0

>  <SCORE.RESTR.norm>
0

>  <SCORE.SYSTEM>
0

>  <SCORE.SYSTEM.CONST>
0

>  <SCORE.SYSTEM.DIHEDRAL>
0

>  <SCORE.SYSTEM.SOLV>
0

>  <SCORE.SYSTEM.norm>
0

>  <SCORE.heavy>
11

>  <SCORE.norm>
-1.04342

>  <RMSD>
0.637

$$$$
ligand
 OpenBabel02271912153D
libRbt.so/2013.1/901 2013/11/27
 11 12  0  0  0  0  0  0  0  0999 V2000
  -11.8658  -12.6859    8.8002 N   0  0  0  0  0  0  0  0  0  0  0  0
  -11.5072  -13.9759    8.8999 C   0  0  0  0  0  0  0  0  0  0  0  0
  -11.5294  -14.5778   10.0858 N   0  0  0  0  0  0  0  0  0  0  0  0
  -11.1163  -14.6615    7.8145 N   0  0  0  0  0  0  0  0  0  0  0  0
  -11.0732  -14.0715    6.6108 C   0  0  0  0  0  0  0  0  0  0  0  0
  -11.4389  -12.7378    6.4798 C   0  0  0  0  0  0  0  0  0  0  0  0
  -11.8428  -12.0490    7.6187 C   0  0  0  0  0  0  0  0  0  0  0  0
  -12.2105  -10.7738    7.5372 N   0  0  0  0  0  0  0  0  0  0  0  0
  -11.2911  -12.4061    5.2006 N   0  0  0  0  0  0  0  0  0  0  0  0
  -10.8511  -13.4806    4.5495 C   0  0  0  0  0  0  0  0  0  0  0  0
  -10.7175  -14.4950    5.4014 N   0  0  0  0  0  0  0  0  0  0  0  0
  1  7  2  0  0  0  0
  1  2  1  0  0  0  0
  2  3  1  0  0  0  0
  2  4  2  0  0  0  0
  4  5  1  0  0  0  0
  5  6  2  0  0  0  0
  5 11  1  0  0  0  0
  6  7  1  0  0  0  0
  6  9  1  0  0  0  0
  7  8  1  0  0  0  0
  9 10  1  0  0  0  0
 10 11  2  0  0  0  0
M  END
>  <CHROM.1>
-11.40822141,-13.26511245,7.20590777,2.01076458,-1.23666502,2.12065577

>  <Name>
ligand

>  <RI>
0

>  <Rbt.Current_Directory>
/home/itssahil/PROJECTS/Mol_Feturizer/Test_systems_manuscript/rnas/2b57

>  <Rbt.Executable>
rbdock ($Id: //depot/dev/client3/rdock/2013.1/src/exe/rbdock.cxx#4 $)

>  <Rbt.Library>
libRbt.so (2013.1, Build901 2013/11/27)

>  <Rbt.Parameter_File>
/export/apps/rDock/src/rDock_2013.1_src/data/scripts/dock_solv.prm

>  <Rbt.Receptor>
prm/pocket_docking_3.prm

>  <SCORE>
-11.4781

>  <SCORE.INTER>
-11.4781

>  <SCORE.INTER.CONST>
1

>  <SCORE.INTER.POLAR>
0

>  <SCORE.INTER.ROT>
0

>  <SCORE.INTER.SOLV>
21.3373

>  <SCORE.INTER.VDW>
-18.3645

>  <SCORE.INTER.norm>
-1.04346

>  <SCORE.INTRA>
0

>  <SCORE.INTRA.DIHEDRAL>
0

>  <SCORE.INTRA.DIHEDRAL.0>
0

>  <SCORE.INTRA.POLAR>
0

>  <SCORE.INTRA.POLAR.0>
0

>  <SCORE.INTRA.REPUL>
0

>  <SCORE.INTRA.REPUL.0>
0

>  <SCORE.INTRA.SOLV>
0

>  <SCORE.INTRA.SOLV.lig_0>
-48.3454

>  <SCORE.INTRA.VDW>
0

>  <SCORE.INTRA.VDW.0>
0

>  <SCORE.INTRA.norm>
0

>  <SCORE.RESTR>
0

>  <SCORE.RESTR.CAVITY>
0

>  <SCORE.RESTR.norm>
0

>  <SCORE.SYSTEM>
0

>  <SCORE.SYSTEM.CONST>
0

>  <SCORE.SYSTEM.DIHEDRAL>
0

>  <SCORE.SYSTEM.SOLV>
0

>  <SCORE.SYSTEM.norm>
0

>  <SCORE.heavy>
11

>  <SCORE.norm>
-1.04346

>  <RMSD>
0.637

$$$$
ligand
 OpenBabel02271912153D
libRbt.so/2013.1/901 2013/11/27
 11 12  0  0  0  0  0  0  0  0999 V2000
  -11.8674  -12.6899    8.8005 N   0  0  0  0  0  0  0  0  0  0  0  0
  -11.5094  -13.9802    8.8995 C   0  0  0  0  0  0  0  0  0  0  0  0
  -11.5317  -14.5827   10.0850 N   0  0  0  0  0  0  0  0  0  0  0  0
  -11.1188  -14.6654    7.8137 N   0  0  0  0  0  0  0  0  0  0  0  0
  -11.0756  -14.0747    6.6103 C   0  0  0  0  0  0  0  0  0  0  0  0
  -11.4407  -12.7408    6.4800 C   0  0  0  0  0  0  0  0  0  0  0  0
  -11.8443  -12.0525    7.6194 C   0  0  0  0  0  0  0  0  0  0  0  0
  -12.2114  -10.7770    7.5385 N   0  0  0  0  0  0  0  0  0  0  0  0
  -11.2929  -12.4085    5.2010 N   0  0  0  0  0  0  0  0  0  0  0  0
  -10.8534  -13.4828    4.5493 C   0  0  0  0  0  0  0  0  0  0  0  0
  -10.7201  -14.4977    5.4006 N   0  0  0  0  0  0  0  0  0  0  0  0
  1  7  2  0  0  0  0
  1  2  1  0  0  0  0
  2  3  1  0  0  0  0
  2  4  2  0  0  0  0
  4  5  1  0  0  0  0
  5  6  2  0  0  0  0
  5 11  1  0  0  0  0
  6  7  1  0  0  0  0
  6  9  1  0  0  0  0
  7  8  1  0  0  0  0
  9 10  1  0  0  0  0
 10 11  2  0  0  0  0
M  END
>  <CHROM.1>
-11.41022022,-13.26853477,7.20585453,2.01123040,-1.23706874,2.12163735

>  <Name>
ligand

>  <RI>
0

>  <Rbt.Current_Directory>
/home/itssahil/PROJECTS/Mol_Feturizer/Test_systems_manuscript/rnas/2b57

>  <Rbt.Executable>
rbdock ($Id: //depot/dev/client3/rdock/2013.1/src/exe/rbdock.cxx#4 $)

>  <Rbt.Library>
libRbt.so (2013.1, Build901 2013/11/27)

>  <Rbt.Parameter_File>
/export/apps/rDock/src/rDock_2013.1_src/data/scripts/dock_solv.prm

>  <Rbt.Receptor>
prm/pocket_docking_3.prm

>  <SCORE>
-11.4775

>  <SCORE.INTER>
-11.4775

>  <SCORE.INTER.CONST>
1

>  <SCORE.INTER.POLAR>
0

>  <SCORE.INTER.ROT>
0

>  <SCORE.INTER.SOLV>
21.3394

>  <SCORE.INTER.VDW>
-18.3648

>  <SCORE.INTER.norm>
-1.04341

>  <SCORE.INTRA>
0

>  <SCORE.INTRA.DIHEDRAL>
0

>  <SCORE.INTRA.DIHEDRAL.0>
0

>  <SCORE.INTRA.POLAR>
0

>  <SCORE.INTRA.POLAR.0>
0

>  <SCORE.INTRA.REPUL>
0

>  <SCORE.INTRA.REPUL.0>
0

>  <SCORE.INTRA.SOLV>
0

>  <SCORE.INTRA.SOLV.lig_0>
-48.3454

>  <SCORE.INTRA.VDW>
0

>  <SCORE.INTRA.VDW.0>
0

>  <SCORE.INTRA.norm>
0

>  <SCORE.RESTR>
0

>  <SCORE.RESTR.CAVITY>
0

>  <SCORE.RESTR.norm>
0

>  <SCORE.SYSTEM>
0

>  <SCORE.SYSTEM.CONST>
0

>  <SCORE.SYSTEM.DIHEDRAL>
0

>  <SCORE.SYSTEM.SOLV>
0

>  <SCORE.SYSTEM.norm>
0

>  <SCORE.heavy>
11

>  <SCORE.norm>
-1.04341

>  <RMSD>
0.637

$$$$
ligand
 OpenBabel02271912153D
libRbt.so/2013.1/901 2013/11/27
 11 12  0  0  0  0  0  0  0  0999 V2000
  -11.8679  -12.6874    8.7996 N   0  0  0  0  0  0  0  0  0  0  0  0
  -11.5085  -13.9772    8.8990 C   0  0  0  0  0  0  0  0  0  0  0  0
  -11.5318  -14.5798   10.0845 N   0  0  0  0  0  0  0  0  0  0  0  0
  -11.1158  -14.6620    7.8137 N   0  0  0  0  0  0  0  0  0  0  0  0
  -11.0716  -14.0712    6.6104 C   0  0  0  0  0  0  0  0  0  0  0  0
  -11.4380  -12.7377    6.4797 C   0  0  0  0  0  0  0  0  0  0  0  0
  -11.8439  -12.0499    7.6185 C   0  0  0  0  0  0  0  0  0  0  0  0
  -12.2123  -10.7748    7.5372 N   0  0  0  0  0  0  0  0  0  0  0  0
  -11.2889  -12.4052    5.2009 N   0  0  0  0  0  0  0  0  0  0  0  0
  -10.8473  -13.4790    4.5498 C   0  0  0  0  0  0  0  0  0  0  0  0
  -10.7141  -14.4938    5.4012 N   0  0  0  0  0  0  0  0  0  0  0  0
  1  7  2  0  0  0  0
  1  2  1  0  0  0  0
  2  3  1  0  0  0  0
  2  4  2  0  0  0  0
  4  5  1  0  0  0  0
  5  6  2  0  0  0  0
  5 11  1  0  0  0  0
  6  7  1  0  0  0  0
  6  9  1  0  0  0  0
  7  8  1  0  0  0  0
  9 10  1  0  0  0  0
 10 11  2  0  0  0  0
M  END
>  <CHROM.1>
-11.40790979,-13.26543858,7.20555015,2.01292235,-1.23542881,2.12325704

>  <Name>
ligand

>  <RI>
0

>  <Rbt.Current_Directory>
/home/itssahil/PROJECTS/Mol_Feturizer/Test_systems_manuscript/rnas/2b57

>  <Rbt.Executable>
rbdock ($Id: //depot/dev/client3/rdock/2013.1/src/exe/rbdock.cxx#4 $)

>  <Rbt.Library>
libRbt.so (2013.1, Build901 2013/11/27)

>  <Rbt.Parameter_File>
/export/apps/rDock/src/rDock_2013.1_src/data/scripts/dock_solv.prm

>  <Rbt.Receptor>
prm/pocket_docking_3.prm

>  <SCORE>
-11.479

>  <SCORE.INTER>
-11.479

>  <SCORE.INTER.CONST>
1

>  <SCORE.INTER.POLAR>
0

>  <SCORE.INTER.ROT>
0

>  <SCORE.INTER.SOLV>
21.3323

>  <SCORE.INTER.VDW>
-18.3634

>  <SCORE.INTER.norm>
-1.04354

>  <SCORE.INTRA>
0

>  <SCORE.INTRA.DIHEDRAL>
0

>  <SCORE.INTRA.DIHEDRAL.0>
0

>  <SCORE.INTRA.POLAR>
0

>  <SCORE.INTRA.POLAR.0>
0

>  <SCORE.INTRA.REPUL>
0

>  <SCORE.INTRA.REPUL.0>
0

>  <SCORE.INTRA.SOLV>
0

>  <SCORE.INTRA.SOLV.lig_0>
-48.3454

>  <SCORE.INTRA.VDW>
0

>  <SCORE.INTRA.VDW.0>
0

>  <SCORE.INTRA.norm>
0

>  <SCORE.RESTR>
0

>  <SCORE.RESTR.CAVITY>
0

>  <SCORE.RESTR.norm>
0

>  <SCORE.SYSTEM>
0

>  <SCORE.SYSTEM.CONST>
0

>  <SCORE.SYSTEM.DIHEDRAL>
0

>  <SCORE.SYSTEM.SOLV>
0

>  <SCORE.SYSTEM.norm>
0

>  <SCORE.heavy>
11

>  <SCORE.norm>
-1.04354

>  <RMSD>
0.637

$$$$
ligand
 OpenBabel02271912153D
libRbt.so/2013.1/901 2013/11/27
 11 12  0  0  0  0  0  0  0  0999 V2000
  -11.8296  -12.7593    8.8315 N   0  0  0  0  0  0  0  0  0  0  0  0
  -11.4812  -14.0539    8.9056 C   0  0  0  0  0  0  0  0  0  0  0  0
  -11.5018  -14.6772   10.0804 N   0  0  0  0  0  0  0  0  0  0  0  0
  -11.1020  -14.7227    7.8056 N   0  0  0  0  0  0  0  0  0  0  0  0
  -11.0607  -14.1111    6.6127 C   0  0  0  0  0  0  0  0  0  0  0  0
  -11.4159  -12.7722    6.5081 C   0  0  0  0  0  0  0  0  0  0  0  0
  -11.8079  -12.1012    7.6617 C   0  0  0  0  0  0  0  0  0  0  0  0
  -12.1654  -10.8216    7.6056 N   0  0  0  0  0  0  0  0  0  0  0  0
  -11.2725  -12.4184    5.2345 N   0  0  0  0  0  0  0  0  0  0  0  0
  -10.8451  -13.4844    4.5613 C   0  0  0  0  0  0  0  0  0  0  0  0
  -10.7152  -14.5153    5.3937 N   0  0  0  0  0  0  0  0  0  0  0  0
  1  7  2  0  0  0  0
  1  2  1  0  0  0  0
  2  3  1  0  0  0  0
  2  4  2  0  0  0  0
  4  5  1  0  0  0  0
  5  6  2  0  0  0  0
  5 11  1  0  0  0  0
  6  7  1  0  0  0  0
  6  9  1  0  0  0  0
  7  8  1  0  0  0  0
  9 10  1  0  0  0  0
 10 11  2  0  0  0  0
M  END
>  <CHROM.1>
-11.38568051,-13.31302414,7.22432019,2.00960623,-1.24665092,2.13785213

>  <Name>
ligand

>  <RI>
0

>  <Rbt.Current_Directory>
/home/itssahil/PROJECTS/Mol_Feturizer/Test_systems_manuscript/rnas/2b57

>  <Rbt.Executable>
rbdock ($Id: //depot/dev/client3/rdock/2013.1/src/exe/rbdock.cxx#4 $)

>  <Rbt.Library>
libRbt.so (2013.1, Build901 2013/11/27)

>  <Rbt.Parameter_File>
/export/apps/rDock/src/rDock_2013.1_src/data/scripts/dock_solv.prm

>  <Rbt.Receptor>
prm/pocket_docking_8.prm

>  <SCORE>
-11.4626

>  <SCORE.INTER>
-11.4626

>  <SCORE.INTER.CONST>
1

>  <SCORE.INTER.POLAR>
0

>  <SCORE.INTER.ROT>
0

>  <SCORE.INTER.SOLV>
21.5885

>  <SCORE.INTER.VDW>
-18.4379

>  <SCORE.INTER.norm>
-1.04206

>  <SCORE.INTRA>
0

>  <SCORE.INTRA.DIHEDRAL>
0

>  <SCORE.INTRA.DIHEDRAL.0>
0

>  <SCORE.INTRA.POLAR>
0

>  <SCORE.INTRA.POLAR.0>
0

>  <SCORE.INTRA.REPUL>
0

>  <SCORE.INTRA.REPUL.0>
0

>  <SCORE.INTRA.SOLV>
0

>  <SCORE.INTRA.SOLV.lig_0>
-48.3454

>  <SCORE.INTRA.VDW>
0

>  <SCORE.INTRA.VDW.0>
0

>  <SCORE.INTRA.norm>
0

>  <SCORE.RESTR>
0

>  <SCORE.RESTR.CAVITY>
0

>  <SCORE.RESTR.norm>
0

>  <SCORE.SYSTEM>
0

>  <SCORE.SYSTEM.CONST>
0

>  <SCORE.SYSTEM.DIHEDRAL>
0

>  <SCORE.SYSTEM.SOLV>
0

>  <SCORE.SYSTEM.norm>
0

>  <SCORE.heavy>
11

>  <SCORE.norm>
-1.04206

>  <RMSD>
0.637

$$$$
ligand
 OpenBabel02271912153D
libRbt.so/2013.1/901 2013/11/27
 11 12  0  0  0  0  0  0  0  0999 V2000
  -11.8673  -12.6878    8.7982 N   0  0  0  0  0  0  0  0  0  0  0  0
  -11.5099  -13.9781    8.8992 C   0  0  0  0  0  0  0  0  0  0  0  0
  -11.5326  -14.5788   10.0856 N   0  0  0  0  0  0  0  0  0  0  0  0
  -11.1198  -14.6652    7.8144 N   0  0  0  0  0  0  0  0  0  0  0  0
  -11.0762  -14.0764    6.6101 C   0  0  0  0  0  0  0  0  0  0  0  0
  -11.4406  -12.7424    6.4778 C   0  0  0  0  0  0  0  0  0  0  0  0
  -11.8438  -12.0522    7.6161 C   0  0  0  0  0  0  0  0  0  0  0  0
  -12.2102  -10.7766    7.5334 N   0  0  0  0  0  0  0  0  0  0  0  0
  -11.2926  -12.4122    5.1984 N   0  0  0  0  0  0  0  0  0  0  0  0
  -10.8538  -13.4877    4.5482 C   0  0  0  0  0  0  0  0  0  0  0  0
  -10.7210  -14.5014    5.4010 N   0  0  0  0  0  0  0  0  0  0  0  0
  1  7  2  0  0  0  0
  1  2  1  0  0  0  0
  2  3  1  0  0  0  0
  2  4  2  0  0  0  0
  4  5  1  0  0  0  0
  5  6  2  0  0  0  0
  5 11  1  0  0  0  0
  6  7  1  0  0  0  0
  6  9  1  0  0  0  0
  7  8  1  0  0  0  0
  9 10  1  0  0  0  0
 10 11  2  0  0  0  0
M  END
>  <CHROM.1>
-11.41040448,-13.26910193,7.20446049,2.01208045,-1.23755358,2.12092478

>  <Name>
ligand

>  <RI>
0

>  <Rbt.Current_Directory>
/home/itssahil/PROJECTS/Mol_Feturizer/Test_systems_manuscript/rnas/2b57

>  <Rbt.Executable>
rbdock ($Id: //depot/dev/client3/rdock/2013.1/src/exe/rbdock.cxx#4 $)

>  <Rbt.Library>
libRbt.so (2013.1, Build901 2013/11/27)

>  <Rbt.Parameter_File>
/export/apps/rDock/src/rDock_2013.1_src/data/scripts/dock_solv.prm

>  <Rbt.Receptor>
prm/pocket_docking_5.prm

>  <SCORE>
-11.477

>  <SCORE.INTER>
-11.477

>  <SCORE.INTER.CONST>
1

>  <SCORE.INTER.POLAR>
0

>  <SCORE.INTER.ROT>
0

>  <SCORE.INTER.SOLV>
21.3401

>  <SCORE.INTER.VDW>
-18.3647

>  <SCORE.INTER.norm>
-1.04337

>  <SCORE.INTRA>
0

>  <SCORE.INTRA.DIHEDRAL>
0

>  <SCORE.INTRA.DIHEDRAL.0>
0

>  <SCORE.INTRA.POLAR>
0

>  <SCORE.INTRA.POLAR.0>
0

>  <SCORE.INTRA.REPUL>
0

>  <SCORE.INTRA.REPUL.0>
0

>  <SCORE.INTRA.SOLV>
0

>  <SCORE.INTRA.SOLV.lig_0>
-48.3454

>  <SCORE.INTRA.VDW>
0

>  <SCORE.INTRA.VDW.0>
0

>  <SCORE.INTRA.norm>
0

>  <SCORE.RESTR>
0

>  <SCORE.RESTR.CAVITY>
0

>  <SCORE.RESTR.norm>
0

>  <SCORE.SYSTEM>
0

>  <SCORE.SYSTEM.CONST>
0

>  <SCORE.SYSTEM.DIHEDRAL>
0

>  <SCORE.SYSTEM.SOLV>
0

>  <SCORE.SYSTEM.norm>
0

>  <SCORE.heavy>
11

>  <SCORE.norm>
-1.04337

>  <RMSD>
0.638

$$$$
ligand
 OpenBabel02271912153D
libRbt.so/2013.1/901 2013/11/27
 11 12  0  0  0  0  0  0  0  0999 V2000
  -11.8619  -12.6835    8.7994 N   0  0  0  0  0  0  0  0  0  0  0  0
  -11.4977  -13.9719    8.8999 C   0  0  0  0  0  0  0  0  0  0  0  0
  -11.5159  -14.5727   10.0864 N   0  0  0  0  0  0  0  0  0  0  0  0
  -11.1050  -14.6568    7.8147 N   0  0  0  0  0  0  0  0  0  0  0  0
  -11.0659  -14.0677    6.6104 C   0  0  0  0  0  0  0  0  0  0  0  0
  -11.4375  -12.7357    6.4785 C   0  0  0  0  0  0  0  0  0  0  0  0
  -11.8431  -12.0477    7.6173 C   0  0  0  0  0  0  0  0  0  0  0  0
  -12.2164  -10.7741    7.5350 N   0  0  0  0  0  0  0  0  0  0  0  0
  -11.2927  -12.4047    5.1989 N   0  0  0  0  0  0  0  0  0  0  0  0
  -10.8488  -13.4778    4.5483 C   0  0  0  0  0  0  0  0  0  0  0  0
  -10.7098  -14.4909    5.4009 N   0  0  0  0  0  0  0  0  0  0  0  0
  1  7  2  0  0  0  0
  1  2  1  0  0  0  0
  2  3  1  0  0  0  0
  2  4  2  0  0  0  0
  4  5  1  0  0  0  0
  5  6  2  0  0  0  0
  5 11  1  0  0  0  0
  6  7  1  0  0  0  0
  6  9  1  0  0  0  0
  7  8  1  0  0  0  0
  9 10  1  0  0  0  0
 10 11  2  0  0  0  0
M  END
>  <CHROM.1>
-11.40374416,-13.26227961,7.20511719,2.00093477,-1.23358432,2.11043734

>  <Name>
ligand

>  <RI>
0

>  <Rbt.Current_Directory>
/home/itssahil/PROJECTS/Mol_Feturizer/Test_systems_manuscript/rnas/2b57

>  <Rbt.Executable>
rbdock ($Id: //depot/dev/client3/rdock/2013.1/src/exe/rbdock.cxx#4 $)

>  <Rbt.Library>
libRbt.so (2013.1, Build901 2013/11/27)

>  <Rbt.Parameter_File>
/export/apps/rDock/src/rDock_2013.1_src/data/scripts/dock_solv.prm

>  <Rbt.Receptor>
prm/pocket_docking_7.prm

>  <SCORE>
-11.4697

>  <SCORE.INTER>
-11.4697

>  <SCORE.INTER.CONST>
1

>  <SCORE.INTER.POLAR>
0

>  <SCORE.INTER.ROT>
0

>  <SCORE.INTER.SOLV>
21.3191

>  <SCORE.INTER.VDW>
-18.3528

>  <SCORE.INTER.norm>
-1.0427

>  <SCORE.INTRA>
0

>  <SCORE.INTRA.DIHEDRAL>
0

>  <SCORE.INTRA.DIHEDRAL.0>
0

>  <SCORE.INTRA.POLAR>
0

>  <SCORE.INTRA.POLAR.0>
0

>  <SCORE.INTRA.REPUL>
0

>  <SCORE.INTRA.REPUL.0>
0

>  <SCORE.INTRA.SOLV>
0

>  <SCORE.INTRA.SOLV.lig_0>
-48.3454

>  <SCORE.INTRA.VDW>
0

>  <SCORE.INTRA.VDW.0>
0

>  <SCORE.INTRA.norm>
0

>  <SCORE.RESTR>
0

>  <SCORE.RESTR.CAVITY>
0

>  <SCORE.RESTR.norm>
0

>  <SCORE.SYSTEM>
0

>  <SCORE.SYSTEM.CONST>
0

>  <SCORE.SYSTEM.DIHEDRAL>
0

>  <SCORE.SYSTEM.SOLV>
0

>  <SCORE.SYSTEM.norm>
0

>  <SCORE.heavy>
11

>  <SCORE.norm>
-1.0427

>  <RMSD>
0.638

$$$$
ligand
 OpenBabel02271912153D
libRbt.so/2013.1/901 2013/11/27
 11 12  0  0  0  0  0  0  0  0999 V2000
  -11.8577  -12.6831    8.7991 N   0  0  0  0  0  0  0  0  0  0  0  0
  -11.4975  -13.9727    8.8995 C   0  0  0  0  0  0  0  0  0  0  0  0
  -11.5165  -14.5733   10.0860 N   0  0  0  0  0  0  0  0  0  0  0  0
  -11.1082  -14.6591    7.8139 N   0  0  0  0  0  0  0  0  0  0  0  0
  -11.0683  -14.0703    6.6095 C   0  0  0  0  0  0  0  0  0  0  0  0
  -11.4357  -12.7371    6.4778 C   0  0  0  0  0  0  0  0  0  0  0  0
  -11.8379  -12.0475    7.6169 C   0  0  0  0  0  0  0  0  0  0  0  0
  -12.2071  -10.7727    7.5348 N   0  0  0  0  0  0  0  0  0  0  0  0
  -11.2910  -12.4067    5.1980 N   0  0  0  0  0  0  0  0  0  0  0  0
  -10.8513  -13.4814    4.5471 C   0  0  0  0  0  0  0  0  0  0  0  0
  -10.7148  -14.4947    5.3998 N   0  0  0  0  0  0  0  0  0  0  0  0
  1  7  2  0  0  0  0
  1  2  1  0  0  0  0
  2  3  1  0  0  0  0
  2  4  2  0  0  0  0
  4  5  1  0  0  0  0
  5  6  2  0  0  0  0
  5 11  1  0  0  0  0
  6  7  1  0  0  0  0
  6  9  1  0  0  0  0
  7  8  1  0  0  0  0
  9 10  1  0  0  0  0
 10 11  2  0  0  0  0
M  END
>  <CHROM.1>
-11.40291622,-13.26361592,7.20447535,2.00350307,-1.23689980,2.11271089

>  <Name>
ligand

>  <RI>
0

>  <Rbt.Current_Directory>
/home/itssahil/PROJECTS/Mol_Feturizer/Test_systems_manuscript/rnas/2b57

>  <Rbt.Executable>
rbdock ($Id: //depot/dev/client3/rdock/2013.1/src/exe/rbdock.cxx#4 $)

>  <Rbt.Library>
libRbt.so (2013.1, Build901 2013/11/27)

>  <Rbt.Parameter_File>
/export/apps/rDock/src/rDock_2013.1_src/data/scripts/dock_solv.prm

>  <Rbt.Receptor>
prm/pocket_docking_7.prm

>  <SCORE>
-11.471

>  <SCORE.INTER>
-11.471

>  <SCORE.INTER.CONST>
1

>  <SCORE.INTER.POLAR>
0

>  <SCORE.INTER.ROT>
0

>  <SCORE.INTER.SOLV>
21.3443

>  <SCORE.INTER.VDW>
-18.3621

>  <SCORE.INTER.norm>
-1.04282

>  <SCORE.INTRA>
0

>  <SCORE.INTRA.DIHEDRAL>
0

>  <SCORE.INTRA.DIHEDRAL.0>
0

>  <SCORE.INTRA.POLAR>
0

>  <SCORE.INTRA.POLAR.0>
0

>  <SCORE.INTRA.REPUL>
0

>  <SCORE.INTRA.REPUL.0>
0

>  <SCORE.INTRA.SOLV>
0

>  <SCORE.INTRA.SOLV.lig_0>
-48.3454

>  <SCORE.INTRA.VDW>
0

>  <SCORE.INTRA.VDW.0>
0

>  <SCORE.INTRA.norm>
0

>  <SCORE.RESTR>
0

>  <SCORE.RESTR.CAVITY>
0

>  <SCORE.RESTR.norm>
0

>  <SCORE.SYSTEM>
0

>  <SCORE.SYSTEM.CONST>
0

>  <SCORE.SYSTEM.DIHEDRAL>
0

>  <SCORE.SYSTEM.SOLV>
0

>  <SCORE.SYSTEM.norm>
0

>  <SCORE.heavy>
11

>  <SCORE.norm>
-1.04282

>  <RMSD>
0.639

$$$$
ligand
 OpenBabel02271912153D
libRbt.so/2013.1/901 2013/11/27
 11 12  0  0  0  0  0  0  0  0999 V2000
  -11.8339  -12.7614    8.8266 N   0  0  0  0  0  0  0  0  0  0  0  0
  -11.4856  -14.0558    8.9036 C   0  0  0  0  0  0  0  0  0  0  0  0
  -11.5026  -14.6754   10.0804 N   0  0  0  0  0  0  0  0  0  0  0  0
  -11.1102  -14.7282    7.8045 N   0  0  0  0  0  0  0  0  0  0  0  0
  -11.0726  -14.1204    6.6095 C   0  0  0  0  0  0  0  0  0  0  0  0
  -11.4279  -12.7818    6.5019 C   0  0  0  0  0  0  0  0  0  0  0  0
  -11.8159  -12.1070    7.6546 C   0  0  0  0  0  0  0  0  0  0  0  0
  -12.1732  -10.8276    7.5956 N   0  0  0  0  0  0  0  0  0  0  0  0
  -11.2885  -12.4321    5.2266 N   0  0  0  0  0  0  0  0  0  0  0  0
  -10.8635  -13.5003    4.5555 C   0  0  0  0  0  0  0  0  0  0  0  0
  -10.7312  -14.5285    5.3907 N   0  0  0  0  0  0  0  0  0  0  0  0
  1  7  2  0  0  0  0
  1  2  1  0  0  0  0
  2  3  1  0  0  0  0
  2  4  2  0  0  0  0
  4  5  1  0  0  0  0
  5  6  2  0  0  0  0
  5 11  1  0  0  0  0
  6  7  1  0  0  0  0
  6  9  1  0  0  0  0
  7  8  1  0  0  0  0
  9 10  1  0  0  0  0
 10 11  2  0  0  0  0
M  END
>  <CHROM.1>
-11.39539938,-13.32033586,7.21968727,2.00133584,-1.24860022,2.12684386

>  <Name>
ligand

>  <RI>
0

>  <Rbt.Current_Directory>
/home/itssahil/PROJECTS/Mol_Feturizer/Test_systems_manuscript/rnas/2b57

>  <Rbt.Executable>
rbdock ($Id: //depot/dev/client3/rdock/2013.1/src/exe/rbdock.cxx#4 $)

>  <Rbt.Library>
libRbt.so (2013.1, Build901 2013/11/27)

>  <Rbt.Parameter_File>
/export/apps/rDock/src/rDock_2013.1_src/data/scripts/dock_solv.prm

>  <Rbt.Receptor>
prm/pocket_docking_4.prm

>  <SCORE>
-11.4701

>  <SCORE.INTER>
-11.4701

>  <SCORE.INTER.CONST>
1

>  <SCORE.INTER.POLAR>
0

>  <SCORE.INTER.ROT>
0

>  <SCORE.INTER.SOLV>
21.5537

>  <SCORE.INTER.VDW>
-18.4313

>  <SCORE.INTER.norm>
-1.04274

>  <SCORE.INTRA>
0

>  <SCORE.INTRA.DIHEDRAL>
0

>  <SCORE.INTRA.DIHEDRAL.0>
0

>  <SCORE.INTRA.POLAR>
0

>  <SCORE.INTRA.POLAR.0>
0

>  <SCORE.INTRA.REPUL>
0

>  <SCORE.INTRA.REPUL.0>
0

>  <SCORE.INTRA.SOLV>
0

>  <SCORE.INTRA.SOLV.lig_0>
-48.3454

>  <SCORE.INTRA.VDW>
0

>  <SCORE.INTRA.VDW.0>
0

>  <SCORE.INTRA.norm>
0

>  <SCORE.RESTR>
0

>  <SCORE.RESTR.CAVITY>
0

>  <SCORE.RESTR.norm>
0

>  <SCORE.SYSTEM>
0

>  <SCORE.SYSTEM.CONST>
0

>  <SCORE.SYSTEM.DIHEDRAL>
0

>  <SCORE.SYSTEM.SOLV>
0

>  <SCORE.SYSTEM.norm>
0

>  <SCORE.heavy>
11

>  <SCORE.norm>
-1.04274

>  <RMSD>
0.640

$$$$
ligand
 OpenBabel02271912153D
libRbt.so/2013.1/901 2013/11/27
 11 12  0  0  0  0  0  0  0  0999 V2000
  -11.8265  -12.7343    8.8248 N   0  0  0  0  0  0  0  0  0  0  0  0
  -11.4877  -14.0315    8.8957 C   0  0  0  0  0  0  0  0  0  0  0  0
  -11.5038  -14.6551   10.0704 N   0  0  0  0  0  0  0  0  0  0  0  0
  -11.1226  -14.7029    7.7925 N   0  0  0  0  0  0  0  0  0  0  0  0
  -11.0861  -14.0911    6.5994 C   0  0  0  0  0  0  0  0  0  0  0  0
  -11.4316  -12.7495    6.4982 C   0  0  0  0  0  0  0  0  0  0  0  0
  -11.8090  -12.0758    7.6551 C   0  0  0  0  0  0  0  0  0  0  0  0
  -12.1569  -10.7935    7.6023 N   0  0  0  0  0  0  0  0  0  0  0  0
  -11.2957  -12.3964    5.2235 N   0  0  0  0  0  0  0  0  0  0  0  0
  -10.8821  -13.4654    4.5466 C   0  0  0  0  0  0  0  0  0  0  0  0
  -10.7536  -14.4976    5.3776 N   0  0  0  0  0  0  0  0  0  0  0  0
  1  7  2  0  0  0  0
  1  2  1  0  0  0  0
  2  3  1  0  0  0  0
  2  4  2  0  0  0  0
  4  5  1  0  0  0  0
  5  6  2  0  0  0  0
  5 11  1  0  0  0  0
  6  7  1  0  0  0  0
  6  9  1  0  0  0  0
  7  8  1  0  0  0  0
  9 10  1  0  0  0  0
 10 11  2  0  0  0  0
M  END
>  <CHROM.1>
-11.39988604,-13.29080955,7.21393772,2.00131586,-1.25759125,2.13033738

>  <Name>
ligand

>  <RI>
0

>  <Rbt.Current_Directory>
/home/itssahil/PROJECTS/Mol_Feturizer/Test_systems_manuscript/rnas/2b57

>  <Rbt.Executable>
rbdock ($Id: //depot/dev/client3/rdock/2013.1/src/exe/rbdock.cxx#4 $)

>  <Rbt.Library>
libRbt.so (2013.1, Build901 2013/11/27)

>  <Rbt.Parameter_File>
/export/apps/rDock/src/rDock_2013.1_src/data/scripts/dock_solv.prm

>  <Rbt.Receptor>
prm/blind_docking_40.prm

>  <SCORE>
-11.4902

>  <SCORE.INTER>
-11.4902

>  <SCORE.INTER.CONST>
1

>  <SCORE.INTER.POLAR>
0

>  <SCORE.INTER.ROT>
0

>  <SCORE.INTER.SOLV>
21.6296

>  <SCORE.INTER.VDW>
-18.47

>  <SCORE.INTER.norm>
-1.04457

>  <SCORE.INTRA>
0

>  <SCORE.INTRA.DIHEDRAL>
0

>  <SCORE.INTRA.DIHEDRAL.0>
0

>  <SCORE.INTRA.POLAR>
0

>  <SCORE.INTRA.POLAR.0>
0

>  <SCORE.INTRA.REPUL>
0

>  <SCORE.INTRA.REPUL.0>
0

>  <SCORE.INTRA.SOLV>
0

>  <SCORE.INTRA.SOLV.lig_0>
-48.3454

>  <SCORE.INTRA.VDW>
0

>  <SCORE.INTRA.VDW.0>
0

>  <SCORE.INTRA.norm>
0

>  <SCORE.RESTR>
0

>  <SCORE.RESTR.CAVITY>
0

>  <SCORE.RESTR.norm>
0

>  <SCORE.SYSTEM>
0

>  <SCORE.SYSTEM.CONST>
0

>  <SCORE.SYSTEM.DIHEDRAL>
0

>  <SCORE.SYSTEM.SOLV>
0

>  <SCORE.SYSTEM.norm>
0

>  <SCORE.heavy>
11

>  <SCORE.norm>
-1.04457

>  <RMSD>
0.641

$$$$
ligand
 OpenBabel02271912153D
libRbt.so/2013.1/901 2013/11/27
 11 12  0  0  0  0  0  0  0  0999 V2000
  -11.8381  -12.7635    8.8260 N   0  0  0  0  0  0  0  0  0  0  0  0
  -11.4864  -14.0573    8.8975 C   0  0  0  0  0  0  0  0  0  0  0  0
  -11.5042  -14.6826   10.0712 N   0  0  0  0  0  0  0  0  0  0  0  0
  -11.1068  -14.7233    7.7960 N   0  0  0  0  0  0  0  0  0  0  0  0
  -11.0683  -14.1095    6.6040 C   0  0  0  0  0  0  0  0  0  0  0  0
  -11.4270  -12.7714    6.5021 C   0  0  0  0  0  0  0  0  0  0  0  0
  -11.8193  -12.1033    7.6573 C   0  0  0  0  0  0  0  0  0  0  0  0
  -12.1801  -10.8246    7.6037 N   0  0  0  0  0  0  0  0  0  0  0  0
  -11.2859  -12.4151    5.2289 N   0  0  0  0  0  0  0  0  0  0  0  0
  -10.8566  -13.4788    4.5535 C   0  0  0  0  0  0  0  0  0  0  0  0
  -10.7232  -14.5108    5.3840 N   0  0  0  0  0  0  0  0  0  0  0  0
  1  7  2  0  0  0  0
  1  2  1  0  0  0  0
  2  3  1  0  0  0  0
  2  4  2  0  0  0  0
  4  5  1  0  0  0  0
  5  6  2  0  0  0  0
  5 11  1  0  0  0  0
  6  7  1  0  0  0  0
  6  9  1  0  0  0  0
  7  8  1  0  0  0  0
  9 10  1  0  0  0  0
 10 11  2  0  0  0  0
M  END
>  <CHROM.1>
-11.39462469,-13.31335129,7.21737163,2.00247355,-1.24514159,2.13279582

>  <Name>
ligand

>  <RI>
0

>  <Rbt.Current_Directory>
/home/itssahil/PROJECTS/Mol_Feturizer/Test_systems_manuscript/rnas/2b57

>  <Rbt.Executable>
rbdock ($Id: //depot/dev/client3/rdock/2013.1/src/exe/rbdock.cxx#4 $)

>  <Rbt.Library>
libRbt.so (2013.1, Build901 2013/11/27)

>  <Rbt.Parameter_File>
/export/apps/rDock/src/rDock_2013.1_src/data/scripts/dock_solv.prm

>  <Rbt.Receptor>
prm/pocket_docking_8.prm

>  <SCORE>
-11.4718

>  <SCORE.INTER>
-11.4718

>  <SCORE.INTER.CONST>
1

>  <SCORE.INTER.POLAR>
0

>  <SCORE.INTER.ROT>
0

>  <SCORE.INTER.SOLV>
21.5458

>  <SCORE.INTER.VDW>
-18.4298

>  <SCORE.INTER.norm>
-1.04289

>  <SCORE.INTRA>
0

>  <SCORE.INTRA.DIHEDRAL>
0

>  <SCORE.INTRA.DIHEDRAL.0>
0

>  <SCORE.INTRA.POLAR>
0

>  <SCORE.INTRA.POLAR.0>
0

>  <SCORE.INTRA.REPUL>
0

>  <SCORE.INTRA.REPUL.0>
0

>  <SCORE.INTRA.SOLV>
0

>  <SCORE.INTRA.SOLV.lig_0>
-48.3454

>  <SCORE.INTRA.VDW>
0

>  <SCORE.INTRA.VDW.0>
0

>  <SCORE.INTRA.norm>
0

>  <SCORE.RESTR>
0

>  <SCORE.RESTR.CAVITY>
0

>  <SCORE.RESTR.norm>
0

>  <SCORE.SYSTEM>
0

>  <SCORE.SYSTEM.CONST>
0

>  <SCORE.SYSTEM.DIHEDRAL>
0

>  <SCORE.SYSTEM.SOLV>
0

>  <SCORE.SYSTEM.norm>
0

>  <SCORE.heavy>
11

>  <SCORE.norm>
-1.04289

>  <RMSD>
0.641

$$$$
ligand
 OpenBabel02271912153D
libRbt.so/2013.1/901 2013/11/27
 11 12  0  0  0  0  0  0  0  0999 V2000
  -11.8178  -12.7223    8.8205 N   0  0  0  0  0  0  0  0  0  0  0  0
  -11.4650  -14.0156    8.8968 C   0  0  0  0  0  0  0  0  0  0  0  0
  -11.4714  -14.6335   10.0746 N   0  0  0  0  0  0  0  0  0  0  0  0
  -11.0958  -14.6885    7.7959 N   0  0  0  0  0  0  0  0  0  0  0  0
  -11.0689  -14.0823    6.5998 C   0  0  0  0  0  0  0  0  0  0  0  0
  -11.4290  -12.7449    6.4929 C   0  0  0  0  0  0  0  0  0  0  0  0
  -11.8104  -12.0695    7.6475 C   0  0  0  0  0  0  0  0  0  0  0  0
  -12.1720  -10.7913    7.5893 N   0  0  0  0  0  0  0  0  0  0  0  0
  -11.3002  -12.3966    5.2161 N   0  0  0  0  0  0  0  0  0  0  0  0
  -10.8770  -13.4645    4.5434 C   0  0  0  0  0  0  0  0  0  0  0  0
  -10.7354  -14.4912    5.3791 N   0  0  0  0  0  0  0  0  0  0  0  0
  1  7  2  0  0  0  0
  1  2  1  0  0  0  0
  2  3  1  0  0  0  0
  2  4  2  0  0  0  0
  4  5  1  0  0  0  0
  5  6  2  0  0  0  0
  5 11  1  0  0  0  0
  6  7  1  0  0  0  0
  6  9  1  0  0  0  0
  7  8  1  0  0  0  0
  9 10  1  0  0  0  0
 10 11  2  0  0  0  0
M  END
>  <CHROM.1>
-11.38956866,-13.28227806,7.21118639,1.97628936,-1.24990813,2.10162716

>  <Name>
ligand

>  <RI>
0

>  <Rbt.Current_Directory>
/home/itssahil/PROJECTS/Mol_Feturizer/Test_systems_manuscript/rnas/2b57

>  <Rbt.Executable>
rbdock ($Id: //depot/dev/client3/rdock/2013.1/src/exe/rbdock.cxx#4 $)

>  <Rbt.Library>
libRbt.so (2013.1, Build901 2013/11/27)

>  <Rbt.Parameter_File>
/export/apps/rDock/src/rDock_2013.1_src/data/scripts/dock_solv.prm

>  <Rbt.Receptor>
prm/pocket_docking_4.prm

>  <SCORE>
-11.4857

>  <SCORE.INTER>
-11.4857

>  <SCORE.INTER.CONST>
1

>  <SCORE.INTER.POLAR>
0

>  <SCORE.INTER.ROT>
0

>  <SCORE.INTER.SOLV>
21.5488

>  <SCORE.INTER.VDW>
-18.4401

>  <SCORE.INTER.norm>
-1.04416

>  <SCORE.INTRA>
0

>  <SCORE.INTRA.DIHEDRAL>
0

>  <SCORE.INTRA.DIHEDRAL.0>
0

>  <SCORE.INTRA.POLAR>
0

>  <SCORE.INTRA.POLAR.0>
0

>  <SCORE.INTRA.REPUL>
0

>  <SCORE.INTRA.REPUL.0>
0

>  <SCORE.INTRA.SOLV>
0

>  <SCORE.INTRA.SOLV.lig_0>
-48.3454

>  <SCORE.INTRA.VDW>
0

>  <SCORE.INTRA.VDW.0>
0

>  <SCORE.INTRA.norm>
0

>  <SCORE.RESTR>
0

>  <SCORE.RESTR.CAVITY>
0

>  <SCORE.RESTR.norm>
0

>  <SCORE.SYSTEM>
0

>  <SCORE.SYSTEM.CONST>
0

>  <SCORE.SYSTEM.DIHEDRAL>
0

>  <SCORE.SYSTEM.SOLV>
0

>  <SCORE.SYSTEM.norm>
0

>  <SCORE.heavy>
11

>  <SCORE.norm>
-1.04416

>  <RMSD>
0.644

$$$$
ligand
 OpenBabel02271912153D
libRbt.so/2013.1/901 2013/11/27
 11 12  0  0  0  0  0  0  0  0999 V2000
  -11.8349  -12.7332    8.8172 N   0  0  0  0  0  0  0  0  0  0  0  0
  -11.4857  -14.0275    8.8917 C   0  0  0  0  0  0  0  0  0  0  0  0
  -11.4999  -14.6488   10.0677 N   0  0  0  0  0  0  0  0  0  0  0  0
  -11.1120  -14.6981    7.7909 N   0  0  0  0  0  0  0  0  0  0  0  0
  -11.0772  -14.0886    6.5967 C   0  0  0  0  0  0  0  0  0  0  0  0
  -11.4335  -12.7500    6.4917 C   0  0  0  0  0  0  0  0  0  0  0  0
  -11.8196  -12.0771    7.6462 C   0  0  0  0  0  0  0  0  0  0  0  0
  -12.1779  -10.7978    7.5897 N   0  0  0  0  0  0  0  0  0  0  0  0
  -11.2969  -12.3984    5.2167 N   0  0  0  0  0  0  0  0  0  0  0  0
  -10.8727  -13.4654    4.5432 C   0  0  0  0  0  0  0  0  0  0  0  0
  -10.7380  -14.4948    5.3766 N   0  0  0  0  0  0  0  0  0  0  0  0
  1  7  2  0  0  0  0
  1  2  1  0  0  0  0
  2  3  1  0  0  0  0
  2  4  2  0  0  0  0
  4  5  1  0  0  0  0
  5  6  2  0  0  0  0
  5 11  1  0  0  0  0
  6  7  1  0  0  0  0
  6  9  1  0  0  0  0
  7  8  1  0  0  0  0
  9 10  1  0  0  0  0
 10 11  2  0  0  0  0
M  END
>  <CHROM.1>
-11.39930306,-13.28958977,7.20867359,1.99492228,-1.24914173,2.12218592

>  <Name>
ligand

>  <RI>
0

>  <Rbt.Current_Directory>
/home/itssahil/PROJECTS/Mol_Feturizer/Test_systems_manuscript/rnas/2b57

>  <Rbt.Executable>
rbdock ($Id: //depot/dev/client3/rdock/2013.1/src/exe/rbdock.cxx#4 $)

>  <Rbt.Library>
libRbt.so (2013.1, Build901 2013/11/27)

>  <Rbt.Parameter_File>
/export/apps/rDock/src/rDock_2013.1_src/data/scripts/dock_solv.prm

>  <Rbt.Receptor>
prm/pocket_docking_5.prm

>  <SCORE>
-11.4714

>  <SCORE.INTER>
-11.4714

>  <SCORE.INTER.CONST>
1

>  <SCORE.INTER.POLAR>
0

>  <SCORE.INTER.ROT>
0

>  <SCORE.INTER.SOLV>
21.5359

>  <SCORE.INTER.VDW>
-18.4262

>  <SCORE.INTER.norm>
-1.04285

>  <SCORE.INTRA>
0

>  <SCORE.INTRA.DIHEDRAL>
0

>  <SCORE.INTRA.DIHEDRAL.0>
0

>  <SCORE.INTRA.POLAR>
0

>  <SCORE.INTRA.POLAR.0>
0

>  <SCORE.INTRA.REPUL>
0

>  <SCORE.INTRA.REPUL.0>
0

>  <SCORE.INTRA.SOLV>
0

>  <SCORE.INTRA.SOLV.lig_0>
-48.3454

>  <SCORE.INTRA.VDW>
0

>  <SCORE.INTRA.VDW.0>
0

>  <SCORE.INTRA.norm>
0

>  <SCORE.RESTR>
0

>  <SCORE.RESTR.CAVITY>
0

>  <SCORE.RESTR.norm>
0

>  <SCORE.SYSTEM>
0

>  <SCORE.SYSTEM.CONST>
0

>  <SCORE.SYSTEM.DIHEDRAL>
0

>  <SCORE.SYSTEM.SOLV>
0

>  <SCORE.SYSTEM.norm>
0

>  <SCORE.heavy>
11

>  <SCORE.norm>
-1.04285

>  <RMSD>
0.644

$$$$
ligand
 OpenBabel02271912153D
libRbt.so/2013.1/901 2013/11/27
 11 12  0  0  0  0  0  0  0  0999 V2000
  -11.8420  -12.7378    8.8141 N   0  0  0  0  0  0  0  0  0  0  0  0
  -11.4939  -14.0325    8.8866 C   0  0  0  0  0  0  0  0  0  0  0  0
  -11.5137  -14.6569   10.0608 N   0  0  0  0  0  0  0  0  0  0  0  0
  -11.1159  -14.7004    7.7857 N   0  0  0  0  0  0  0  0  0  0  0  0
  -11.0754  -14.0877    6.5933 C   0  0  0  0  0  0  0  0  0  0  0  0
  -11.4304  -12.7486    6.4903 C   0  0  0  0  0  0  0  0  0  0  0  0
  -11.8211  -12.0785    7.6449 C   0  0  0  0  0  0  0  0  0  0  0  0
  -12.1782  -10.7988    7.5902 N   0  0  0  0  0  0  0  0  0  0  0  0
  -11.2880  -12.3937    5.2168 N   0  0  0  0  0  0  0  0  0  0  0  0
  -10.8615  -13.4591    4.5423 C   0  0  0  0  0  0  0  0  0  0  0  0
  -10.7312  -14.4909    5.3736 N   0  0  0  0  0  0  0  0  0  0  0  0
  1  7  2  0  0  0  0
  1  2  1  0  0  0  0
  2  3  1  0  0  0  0
  2  4  2  0  0  0  0
  4  5  1  0  0  0  0
  5  6  2  0  0  0  0
  5 11  1  0  0  0  0
  6  7  1  0  0  0  0
  6  9  1  0  0  0  0
  7  8  1  0  0  0  0
  9 10  1  0  0  0  0
 10 11  2  0  0  0  0
M  END
>  <CHROM.1>
-11.39966525,-13.29011104,7.20595273,2.00780129,-1.24739459,2.13708008

>  <Name>
ligand

>  <RI>
0

>  <Rbt.Current_Directory>
/home/itssahil/PROJECTS/Mol_Feturizer/Test_systems_manuscript/rnas/2b57

>  <Rbt.Executable>
rbdock ($Id: //depot/dev/client3/rdock/2013.1/src/exe/rbdock.cxx#4 $)

>  <Rbt.Library>
libRbt.so (2013.1, Build901 2013/11/27)

>  <Rbt.Parameter_File>
/export/apps/rDock/src/rDock_2013.1_src/data/scripts/dock_solv.prm

>  <Rbt.Receptor>
prm/pocket_docking_4.prm

>  <SCORE>
-11.4798

>  <SCORE.INTER>
-11.4798

>  <SCORE.INTER.CONST>
1

>  <SCORE.INTER.POLAR>
0

>  <SCORE.INTER.ROT>
0

>  <SCORE.INTER.SOLV>
21.5367

>  <SCORE.INTER.VDW>
-18.4321

>  <SCORE.INTER.norm>
-1.04362

>  <SCORE.INTRA>
0

>  <SCORE.INTRA.DIHEDRAL>
0

>  <SCORE.INTRA.DIHEDRAL.0>
0

>  <SCORE.INTRA.POLAR>
0

>  <SCORE.INTRA.POLAR.0>
0

>  <SCORE.INTRA.REPUL>
0

>  <SCORE.INTRA.REPUL.0>
0

>  <SCORE.INTRA.SOLV>
0

>  <SCORE.INTRA.SOLV.lig_0>
-48.3454

>  <SCORE.INTRA.VDW>
0

>  <SCORE.INTRA.VDW.0>
0

>  <SCORE.INTRA.norm>
0

>  <SCORE.RESTR>
0

>  <SCORE.RESTR.CAVITY>
0

>  <SCORE.RESTR.norm>
0

>  <SCORE.SYSTEM>
0

>  <SCORE.SYSTEM.CONST>
0

>  <SCORE.SYSTEM.DIHEDRAL>
0

>  <SCORE.SYSTEM.SOLV>
0

>  <SCORE.SYSTEM.norm>
0

>  <SCORE.heavy>
11

>  <SCORE.norm>
-1.04362

>  <RMSD>
0.647

$$$$
ligand
 OpenBabel02271912153D
libRbt.so/2013.1/901 2013/11/27
 11 12  0  0  0  0  0  0  0  0999 V2000
  -11.8462  -12.7369    8.8110 N   0  0  0  0  0  0  0  0  0  0  0  0
  -11.4873  -14.0284    8.8882 C   0  0  0  0  0  0  0  0  0  0  0  0
  -11.4972  -14.6474   10.0654 N   0  0  0  0  0  0  0  0  0  0  0  0
  -11.1084  -14.6984    7.7888 N   0  0  0  0  0  0  0  0  0  0  0  0
  -11.0779  -14.0909    6.5934 C   0  0  0  0  0  0  0  0  0  0  0  0
  -11.4442  -12.7553    6.4857 C   0  0  0  0  0  0  0  0  0  0  0  0
  -11.8355  -12.0830    7.6387 C   0  0  0  0  0  0  0  0  0  0  0  0
  -12.2033  -10.8065    7.5796 N   0  0  0  0  0  0  0  0  0  0  0  0
  -11.3099  -12.4052    5.2100 N   0  0  0  0  0  0  0  0  0  0  0  0
  -10.8775  -13.4703    4.5387 C   0  0  0  0  0  0  0  0  0  0  0  0
  -10.7354  -14.4970    5.3742 N   0  0  0  0  0  0  0  0  0  0  0  0
  1  7  2  0  0  0  0
  1  2  1  0  0  0  0
  2  3  1  0  0  0  0
  2  4  2  0  0  0  0
  4  5  1  0  0  0  0
  5  6  2  0  0  0  0
  5 11  1  0  0  0  0
  6  7  1  0  0  0  0
  6  9  1  0  0  0  0
  7  8  1  0  0  0  0
  9 10  1  0  0  0  0
 10 11  2  0  0  0  0
M  END
>  <CHROM.1>
-11.40606145,-13.29315770,7.20370696,1.98339372,-1.24264547,2.10926387

>  <Name>
ligand

>  <RI>
0

>  <Rbt.Current_Directory>
/home/itssahil/PROJECTS/Mol_Feturizer/Test_systems_manuscript/rnas/2b57

>  <Rbt.Executable>
rbdock ($Id: //depot/dev/client3/rdock/2013.1/src/exe/rbdock.cxx#4 $)

>  <Rbt.Library>
libRbt.so (2013.1, Build901 2013/11/27)

>  <Rbt.Parameter_File>
/export/apps/rDock/src/rDock_2013.1_src/data/scripts/dock_solv.prm

>  <Rbt.Receptor>
prm/pocket_docking_7.prm

>  <SCORE>
-11.4778

>  <SCORE.INTER>
-11.4778

>  <SCORE.INTER.CONST>
1

>  <SCORE.INTER.POLAR>
0

>  <SCORE.INTER.ROT>
0

>  <SCORE.INTER.SOLV>
21.4352

>  <SCORE.INTER.VDW>
-18.3969

>  <SCORE.INTER.norm>
-1.04344

>  <SCORE.INTRA>
0

>  <SCORE.INTRA.DIHEDRAL>
0

>  <SCORE.INTRA.DIHEDRAL.0>
0

>  <SCORE.INTRA.POLAR>
0

>  <SCORE.INTRA.POLAR.0>
0

>  <SCORE.INTRA.REPUL>
0

>  <SCORE.INTRA.REPUL.0>
0

>  <SCORE.INTRA.SOLV>
0

>  <SCORE.INTRA.SOLV.lig_0>
-48.3454

>  <SCORE.INTRA.VDW>
0

>  <SCORE.INTRA.VDW.0>
0

>  <SCORE.INTRA.norm>
0

>  <SCORE.RESTR>
0

>  <SCORE.RESTR.CAVITY>
0

>  <SCORE.RESTR.norm>
0

>  <SCORE.SYSTEM>
0

>  <SCORE.SYSTEM.CONST>
0

>  <SCORE.SYSTEM.DIHEDRAL>
0

>  <SCORE.SYSTEM.SOLV>
0

>  <SCORE.SYSTEM.norm>
0

>  <SCORE.heavy>
11

>  <SCORE.norm>
-1.04344

>  <RMSD>
0.647

$$$$
ligand
 OpenBabel02271912153D
libRbt.so/2013.1/901 2013/11/27
 11 12  0  0  0  0  0  0  0  0999 V2000
  -11.8276  -12.7592    8.8249 N   0  0  0  0  0  0  0  0  0  0  0  0
  -11.4683  -14.0513    8.8889 C   0  0  0  0  0  0  0  0  0  0  0  0
  -11.4666  -14.6791   10.0614 N   0  0  0  0  0  0  0  0  0  0  0  0
  -11.1004  -14.7131    7.7808 N   0  0  0  0  0  0  0  0  0  0  0  0
  -11.0815  -14.0967    6.5897 C   0  0  0  0  0  0  0  0  0  0  0  0
  -11.4485  -12.7603    6.4956 C   0  0  0  0  0  0  0  0  0  0  0  0
  -11.8284  -12.0966    7.6575 C   0  0  0  0  0  0  0  0  0  0  0  0
  -12.1964  -10.8196    7.6116 N   0  0  0  0  0  0  0  0  0  0  0  0
  -11.3268  -12.4006    5.2213 N   0  0  0  0  0  0  0  0  0  0  0  0
  -10.9013  -13.4607    4.5378 C   0  0  0  0  0  0  0  0  0  0  0  0
  -10.7512  -14.4937    5.3642 N   0  0  0  0  0  0  0  0  0  0  0  0
  1  7  2  0  0  0  0
  1  2  1  0  0  0  0
  2  3  1  0  0  0  0
  2  4  2  0  0  0  0
  4  5  1  0  0  0  0
  5  6  2  0  0  0  0
  5 11  1  0  0  0  0
  6  7  1  0  0  0  0
  6  9  1  0  0  0  0
  7  8  1  0  0  0  0
  9 10  1  0  0  0  0
 10 11  2  0  0  0  0
M  END
>  <CHROM.1>
-11.40348199,-13.30349754,7.20920015,1.95704312,-1.24778366,2.09181053

>  <Name>
ligand

>  <RI>
0

>  <Rbt.Current_Directory>
/home/itssahil/PROJECTS/Mol_Feturizer/Test_systems_manuscript/rnas/2b57

>  <Rbt.Executable>
rbdock ($Id: //depot/dev/client3/rdock/2013.1/src/exe/rbdock.cxx#4 $)

>  <Rbt.Library>
libRbt.so (2013.1, Build901 2013/11/27)

>  <Rbt.Parameter_File>
/export/apps/rDock/src/rDock_2013.1_src/data/scripts/dock_solv.prm

>  <Rbt.Receptor>
prm/pocket_docking_3.prm

>  <SCORE>
-11.461

>  <SCORE.INTER>
-11.461

>  <SCORE.INTER.CONST>
1

>  <SCORE.INTER.POLAR>
0

>  <SCORE.INTER.ROT>
0

>  <SCORE.INTER.SOLV>
21.5031

>  <SCORE.INTER.VDW>
-18.4084

>  <SCORE.INTER.norm>
-1.04191

>  <SCORE.INTRA>
0

>  <SCORE.INTRA.DIHEDRAL>
0

>  <SCORE.INTRA.DIHEDRAL.0>
0

>  <SCORE.INTRA.POLAR>
0

>  <SCORE.INTRA.POLAR.0>
0

>  <SCORE.INTRA.REPUL>
0

>  <SCORE.INTRA.REPUL.0>
0

>  <SCORE.INTRA.SOLV>
0

>  <SCORE.INTRA.SOLV.lig_0>
-48.3454

>  <SCORE.INTRA.VDW>
0

>  <SCORE.INTRA.VDW.0>
0

>  <SCORE.INTRA.norm>
0

>  <SCORE.RESTR>
0

>  <SCORE.RESTR.CAVITY>
0

>  <SCORE.RESTR.norm>
0

>  <SCORE.SYSTEM>
0

>  <SCORE.SYSTEM.CONST>
0

>  <SCORE.SYSTEM.DIHEDRAL>
0

>  <SCORE.SYSTEM.SOLV>
0

>  <SCORE.SYSTEM.norm>
0

>  <SCORE.heavy>
11

>  <SCORE.norm>
-1.04191

>  <RMSD>
0.648

$$$$
ligand
 OpenBabel02271912153D
libRbt.so/2013.1/901 2013/11/27
 11 12  0  0  0  0  0  0  0  0999 V2000
  -11.8264  -12.7584    8.8212 N   0  0  0  0  0  0  0  0  0  0  0  0
  -11.4845  -14.0554    8.8823 C   0  0  0  0  0  0  0  0  0  0  0  0
  -11.5039  -14.6891   10.0514 N   0  0  0  0  0  0  0  0  0  0  0  0
  -11.1131  -14.7163    7.7748 N   0  0  0  0  0  0  0  0  0  0  0  0
  -11.0732  -14.0941    6.5873 C   0  0  0  0  0  0  0  0  0  0  0  0
  -11.4218  -12.7526    6.4961 C   0  0  0  0  0  0  0  0  0  0  0  0
  -11.8057  -12.0899    7.6573 C   0  0  0  0  0  0  0  0  0  0  0  0
  -12.1567  -10.8081    7.6140 N   0  0  0  0  0  0  0  0  0  0  0  0
  -11.2814  -12.3881    5.2251 N   0  0  0  0  0  0  0  0  0  0  0  0
  -10.8622  -13.4501    4.5408 C   0  0  0  0  0  0  0  0  0  0  0  0
  -10.7345  -14.4891    5.3634 N   0  0  0  0  0  0  0  0  0  0  0  0
  1  7  2  0  0  0  0
  1  2  1  0  0  0  0
  2  3  1  0  0  0  0
  2  4  2  0  0  0  0
  4  5  1  0  0  0  0
  5  6  2  0  0  0  0
  5 11  1  0  0  0  0
  6  7  1  0  0  0  0
  6  9  1  0  0  0  0
  7  8  1  0  0  0  0
  9 10  1  0  0  0  0
 10 11  2  0  0  0  0
M  END
>  <CHROM.1>
-11.39160938,-13.29994247,7.20732878,2.00822892,-1.25315507,2.14553903

>  <Name>
ligand

>  <RI>
0

>  <Rbt.Current_Directory>
/home/itssahil/PROJECTS/Mol_Feturizer/Test_systems_manuscript/rnas/2b57

>  <Rbt.Executable>
rbdock ($Id: //depot/dev/client3/rdock/2013.1/src/exe/rbdock.cxx#4 $)

>  <Rbt.Library>
libRbt.so (2013.1, Build901 2013/11/27)

>  <Rbt.Parameter_File>
/export/apps/rDock/src/rDock_2013.1_src/data/scripts/dock_solv.prm

>  <Rbt.Receptor>
prm/pocket_docking_4.prm

>  <SCORE>
-11.4926

>  <SCORE.INTER>
-11.4926

>  <SCORE.INTER.CONST>
1

>  <SCORE.INTER.POLAR>
0

>  <SCORE.INTER.ROT>
0

>  <SCORE.INTER.SOLV>
21.6612

>  <SCORE.INTER.VDW>
-18.4821

>  <SCORE.INTER.norm>
-1.04478

>  <SCORE.INTRA>
0

>  <SCORE.INTRA.DIHEDRAL>
0

>  <SCORE.INTRA.DIHEDRAL.0>
0

>  <SCORE.INTRA.POLAR>
0

>  <SCORE.INTRA.POLAR.0>
0

>  <SCORE.INTRA.REPUL>
0

>  <SCORE.INTRA.REPUL.0>
0

>  <SCORE.INTRA.SOLV>
0

>  <SCORE.INTRA.SOLV.lig_0>
-48.3454

>  <SCORE.INTRA.VDW>
0

>  <SCORE.INTRA.VDW.0>
0

>  <SCORE.INTRA.norm>
0

>  <SCORE.RESTR>
0

>  <SCORE.RESTR.CAVITY>
0

>  <SCORE.RESTR.norm>
0

>  <SCORE.SYSTEM>
0

>  <SCORE.SYSTEM.CONST>
0

>  <SCORE.SYSTEM.DIHEDRAL>
0

>  <SCORE.SYSTEM.SOLV>
0

>  <SCORE.SYSTEM.norm>
0

>  <SCORE.heavy>
11

>  <SCORE.norm>
-1.04478

>  <RMSD>
0.652

$$$$
ligand
 OpenBabel02271912153D
libRbt.so/2013.1/901 2013/11/27
 11 12  0  0  0  0  0  0  0  0999 V2000
  -11.8399  -12.7327    8.8052 N   0  0  0  0  0  0  0  0  0  0  0  0
  -11.4778  -14.0234    8.8817 C   0  0  0  0  0  0  0  0  0  0  0  0
  -11.4906  -14.6443   10.0578 N   0  0  0  0  0  0  0  0  0  0  0  0
  -11.0929  -14.6906    7.7827 N   0  0  0  0  0  0  0  0  0  0  0  0
  -11.0593  -14.0811    6.5884 C   0  0  0  0  0  0  0  0  0  0  0  0
  -11.4287  -12.7463    6.4814 C   0  0  0  0  0  0  0  0  0  0  0  0
  -11.8264  -12.0769    7.6340 C   0  0  0  0  0  0  0  0  0  0  0  0
  -12.1973  -10.8013    7.5755 N   0  0  0  0  0  0  0  0  0  0  0  0
  -11.2904  -12.3938    5.2068 N   0  0  0  0  0  0  0  0  0  0  0  0
  -10.8526  -13.4566    4.5355 C   0  0  0  0  0  0  0  0  0  0  0  0
  -10.7110  -14.4843    5.3699 N   0  0  0  0  0  0  0  0  0  0  0  0
  1  7  2  0  0  0  0
  1  2  1  0  0  0  0
  2  3  1  0  0  0  0
  2  4  2  0  0  0  0
  4  5  1  0  0  0  0
  5  6  2  0  0  0  0
  5 11  1  0  0  0  0
  6  7  1  0  0  0  0
  6  9  1  0  0  0  0
  7  8  1  0  0  0  0
  9 10  1  0  0  0  0
 10 11  2  0  0  0  0
M  END
>  <CHROM.1>
-11.39198480,-13.28519183,7.19873084,1.98944056,-1.23835968,2.11660802

>  <Name>
ligand

>  <RI>
0

>  <Rbt.Current_Directory>
/home/itssahil/PROJECTS/Mol_Feturizer/Test_systems_manuscript/rnas/2b57

>  <Rbt.Executable>
rbdock ($Id: //depot/dev/client3/rdock/2013.1/src/exe/rbdock.cxx#4 $)

>  <Rbt.Library>
libRbt.so (2013.1, Build901 2013/11/27)

>  <Rbt.Parameter_File>
/export/apps/rDock/src/rDock_2013.1_src/data/scripts/dock_solv.prm

>  <Rbt.Receptor>
prm/pocket_docking_3.prm

>  <SCORE>
-11.4813

>  <SCORE.INTER>
-11.4813

>  <SCORE.INTER.CONST>
1

>  <SCORE.INTER.POLAR>
0

>  <SCORE.INTER.ROT>
0

>  <SCORE.INTER.SOLV>
21.443

>  <SCORE.INTER.VDW>
-18.4019

>  <SCORE.INTER.norm>
-1.04375

>  <SCORE.INTRA>
0

>  <SCORE.INTRA.DIHEDRAL>
0

>  <SCORE.INTRA.DIHEDRAL.0>
0

>  <SCORE.INTRA.POLAR>
0

>  <SCORE.INTRA.POLAR.0>
0

>  <SCORE.INTRA.REPUL>
0

>  <SCORE.INTRA.REPUL.0>
0

>  <SCORE.INTRA.SOLV>
0

>  <SCORE.INTRA.SOLV.lig_0>
-48.3454

>  <SCORE.INTRA.VDW>
0

>  <SCORE.INTRA.VDW.0>
0

>  <SCORE.INTRA.norm>
0

>  <SCORE.RESTR>
0

>  <SCORE.RESTR.CAVITY>
0

>  <SCORE.RESTR.norm>
0

>  <SCORE.SYSTEM>
0

>  <SCORE.SYSTEM.CONST>
0

>  <SCORE.SYSTEM.DIHEDRAL>
0

>  <SCORE.SYSTEM.SOLV>
0

>  <SCORE.SYSTEM.norm>
0

>  <SCORE.heavy>
11

>  <SCORE.norm>
-1.04375

>  <RMSD>
0.653

$$$$
ligand
 OpenBabel02271912153D
libRbt.so/2013.1/901 2013/11/27
 11 12  0  0  0  0  0  0  0  0999 V2000
  -11.8141  -12.7524    8.8212 N   0  0  0  0  0  0  0  0  0  0  0  0
  -11.4621  -14.0466    8.8844 C   0  0  0  0  0  0  0  0  0  0  0  0
  -11.4711  -14.6770   10.0556 N   0  0  0  0  0  0  0  0  0  0  0  0
  -11.0911  -14.7079    7.7771 N   0  0  0  0  0  0  0  0  0  0  0  0
  -11.0617  -14.0891    6.5876 C   0  0  0  0  0  0  0  0  0  0  0  0
  -11.4208  -12.7504    6.4942 C   0  0  0  0  0  0  0  0  0  0  0  0
  -11.8041  -12.0872    7.6553 C   0  0  0  0  0  0  0  0  0  0  0  0
  -12.1649  -10.8082    7.6099 N   0  0  0  0  0  0  0  0  0  0  0  0
  -11.2894  -12.3887    5.2215 N   0  0  0  0  0  0  0  0  0  0  0  0
  -10.8655  -13.4496    4.5382 C   0  0  0  0  0  0  0  0  0  0  0  0
  -10.7260  -14.4852    5.3632 N   0  0  0  0  0  0  0  0  0  0  0  0
  1  7  2  0  0  0  0
  1  2  1  0  0  0  0
  2  3  1  0  0  0  0
  2  4  2  0  0  0  0
  4  5  1  0  0  0  0
  5  6  2  0  0  0  0
  5 11  1  0  0  0  0
  6  7  1  0  0  0  0
  6  9  1  0  0  0  0
  7  8  1  0  0  0  0
  9 10  1  0  0  0  0
 10 11  2  0  0  0  0
M  END
>  <CHROM.1>
-11.38306420,-13.29545406,7.20685236,1.98232584,-1.24937756,2.11799014

>  <Name>
ligand

>  <RI>
0

>  <Rbt.Current_Directory>
/home/itssahil/PROJECTS/Mol_Feturizer/Test_systems_manuscript/rnas/2b57

>  <Rbt.Executable>
rbdock ($Id: //depot/dev/client3/rdock/2013.1/src/exe/rbdock.cxx#4 $)

>  <Rbt.Library>
libRbt.so (2013.1, Build901 2013/11/27)

>  <Rbt.Parameter_File>
/export/apps/rDock/src/rDock_2013.1_src/data/scripts/dock_solv.prm

>  <Rbt.Receptor>
prm/pocket_docking_5.prm

>  <SCORE>
-11.4811

>  <SCORE.INTER>
-11.4811

>  <SCORE.INTER.CONST>
1

>  <SCORE.INTER.POLAR>
0

>  <SCORE.INTER.ROT>
0

>  <SCORE.INTER.SOLV>
21.6048

>  <SCORE.INTER.VDW>
-18.4557

>  <SCORE.INTER.norm>
-1.04374

>  <SCORE.INTRA>
0

>  <SCORE.INTRA.DIHEDRAL>
0

>  <SCORE.INTRA.DIHEDRAL.0>
0

>  <SCORE.INTRA.POLAR>
0

>  <SCORE.INTRA.POLAR.0>
0

>  <SCORE.INTRA.REPUL>
0

>  <SCORE.INTRA.REPUL.0>
0

>  <SCORE.INTRA.SOLV>
0

>  <SCORE.INTRA.SOLV.lig_0>
-48.3454

>  <SCORE.INTRA.VDW>
0

>  <SCORE.INTRA.VDW.0>
0

>  <SCORE.INTRA.norm>
0

>  <SCORE.RESTR>
0

>  <SCORE.RESTR.CAVITY>
0

>  <SCORE.RESTR.norm>
0

>  <SCORE.SYSTEM>
0

>  <SCORE.SYSTEM.CONST>
0

>  <SCORE.SYSTEM.DIHEDRAL>
0

>  <SCORE.SYSTEM.SOLV>
0

>  <SCORE.SYSTEM.norm>
0

>  <SCORE.heavy>
11

>  <SCORE.norm>
-1.04374

>  <RMSD>
0.653

$$$$
ligand
 OpenBabel02271912153D
libRbt.so/2013.1/901 2013/11/27
 11 12  0  0  0  0  0  0  0  0999 V2000
  -11.8247  -12.7574    8.8187 N   0  0  0  0  0  0  0  0  0  0  0  0
  -11.4766  -14.0527    8.8797 C   0  0  0  0  0  0  0  0  0  0  0  0
  -11.4977  -14.6879   10.0480 N   0  0  0  0  0  0  0  0  0  0  0  0
  -11.0973  -14.7103    7.7730 N   0  0  0  0  0  0  0  0  0  0  0  0
  -11.0555  -14.0865    6.5864 C   0  0  0  0  0  0  0  0  0  0  0  0
  -11.4105  -12.7466    6.4954 C   0  0  0  0  0  0  0  0  0  0  0  0
  -11.8026  -12.0873    7.6557 C   0  0  0  0  0  0  0  0  0  0  0  0
  -12.1598  -10.8072    7.6125 N   0  0  0  0  0  0  0  0  0  0  0  0
  -11.2667  -12.3799    5.2254 N   0  0  0  0  0  0  0  0  0  0  0  0
  -10.8393  -13.4390    4.5416 C   0  0  0  0  0  0  0  0  0  0  0  0
  -10.7098  -14.4784    5.3634 N   0  0  0  0  0  0  0  0  0  0  0  0
  1  7  2  0  0  0  0
  1  2  1  0  0  0  0
  2  3  1  0  0  0  0
  2  4  2  0  0  0  0
  4  5  1  0  0  0  0
  5  6  2  0  0  0  0
  5 11  1  0  0  0  0
  6  7  1  0  0  0  0
  6  9  1  0  0  0  0
  7  8  1  0  0  0  0
  9 10  1  0  0  0  0
 10 11  2  0  0  0  0
M  END
>  <CHROM.1>
-11.38052428,-13.29472093,7.20603905,2.01061562,-1.24668214,2.14901525

>  <Name>
ligand

>  <RI>
0

>  <Rbt.Current_Directory>
/home/itssahil/PROJECTS/Mol_Feturizer/Test_systems_manuscript/rnas/2b57

>  <Rbt.Executable>
rbdock ($Id: //depot/dev/client3/rdock/2013.1/src/exe/rbdock.cxx#4 $)

>  <Rbt.Library>
libRbt.so (2013.1, Build901 2013/11/27)

>  <Rbt.Parameter_File>
/export/apps/rDock/src/rDock_2013.1_src/data/scripts/dock_solv.prm

>  <Rbt.Receptor>
prm/pocket_docking_7.prm

>  <SCORE>
-11.4817

>  <SCORE.INTER>
-11.4817

>  <SCORE.INTER.CONST>
1

>  <SCORE.INTER.POLAR>
0

>  <SCORE.INTER.ROT>
0

>  <SCORE.INTER.SOLV>
21.6391

>  <SCORE.INTER.VDW>
-18.4675

>  <SCORE.INTER.norm>
-1.04379

>  <SCORE.INTRA>
0

>  <SCORE.INTRA.DIHEDRAL>
0

>  <SCORE.INTRA.DIHEDRAL.0>
0

>  <SCORE.INTRA.POLAR>
0

>  <SCORE.INTRA.POLAR.0>
0

>  <SCORE.INTRA.REPUL>
0

>  <SCORE.INTRA.REPUL.0>
0

>  <SCORE.INTRA.SOLV>
0

>  <SCORE.INTRA.SOLV.lig_0>
-48.3454

>  <SCORE.INTRA.VDW>
0

>  <SCORE.INTRA.VDW.0>
0

>  <SCORE.INTRA.norm>
0

>  <SCORE.RESTR>
0

>  <SCORE.RESTR.CAVITY>
0

>  <SCORE.RESTR.norm>
0

>  <SCORE.SYSTEM>
0

>  <SCORE.SYSTEM.CONST>
0

>  <SCORE.SYSTEM.DIHEDRAL>
0

>  <SCORE.SYSTEM.SOLV>
0

>  <SCORE.SYSTEM.norm>
0

>  <SCORE.heavy>
11

>  <SCORE.norm>
-1.04379

>  <RMSD>
0.654

$$$$
ligand
 OpenBabel02271912153D
libRbt.so/2013.1/901 2013/11/27
 11 12  0  0  0  0  0  0  0  0999 V2000
  -11.8004  -12.7463    8.8196 N   0  0  0  0  0  0  0  0  0  0  0  0
  -11.4316  -14.0356    8.8862 C   0  0  0  0  0  0  0  0  0  0  0  0
  -11.4213  -14.6597   10.0606 N   0  0  0  0  0  0  0  0  0  0  0  0
  -11.0630  -14.6981    7.7788 N   0  0  0  0  0  0  0  0  0  0  0  0
  -11.0529  -14.0853    6.5858 C   0  0  0  0  0  0  0  0  0  0  0  0
  -11.4297  -12.7519    6.4889 C   0  0  0  0  0  0  0  0  0  0  0  0
  -11.8101  -12.0873    7.6501 C   0  0  0  0  0  0  0  0  0  0  0  0
  -12.1874  -10.8131    7.6016 N   0  0  0  0  0  0  0  0  0  0  0  0
  -11.3152  -12.3953    5.2131 N   0  0  0  0  0  0  0  0  0  0  0  0
  -10.8846  -13.4545    4.5313 C   0  0  0  0  0  0  0  0  0  0  0  0
  -10.7241  -14.4838    5.3603 N   0  0  0  0  0  0  0  0  0  0  0  0
  1  7  2  0  0  0  0
  1  2  1  0  0  0  0
  2  3  1  0  0  0  0
  2  4  2  0  0  0  0
  4  5  1  0  0  0  0
  5  6  2  0  0  0  0
  5 11  1  0  0  0  0
  6  7  1  0  0  0  0
  6  9  1  0  0  0  0
  7  8  1  0  0  0  0
  9 10  1  0  0  0  0
 10 11  2  0  0  0  0
M  END
>  <CHROM.1>
-11.37824064,-13.29252163,7.20400692,1.93628220,-1.24332982,2.06903567

>  <Name>
ligand

>  <RI>
0

>  <Rbt.Current_Directory>
/home/itssahil/PROJECTS/Mol_Feturizer/Test_systems_manuscript/rnas/2b57

>  <Rbt.Executable>
rbdock ($Id: //depot/dev/client3/rdock/2013.1/src/exe/rbdock.cxx#4 $)

>  <Rbt.Library>
libRbt.so (2013.1, Build901 2013/11/27)

>  <Rbt.Parameter_File>
/export/apps/rDock/src/rDock_2013.1_src/data/scripts/dock_solv.prm

>  <Rbt.Receptor>
prm/pocket_docking_3.prm

>  <SCORE>
-11.4372

>  <SCORE.INTER>
-11.4372

>  <SCORE.INTER.CONST>
1

>  <SCORE.INTER.POLAR>
0

>  <SCORE.INTER.ROT>
0

>  <SCORE.INTER.SOLV>
21.5038

>  <SCORE.INTER.VDW>
-18.3927

>  <SCORE.INTER.norm>
-1.03974

>  <SCORE.INTRA>
0

>  <SCORE.INTRA.DIHEDRAL>
0

>  <SCORE.INTRA.DIHEDRAL.0>
0

>  <SCORE.INTRA.POLAR>
0

>  <SCORE.INTRA.POLAR.0>
0

>  <SCORE.INTRA.REPUL>
0

>  <SCORE.INTRA.REPUL.0>
0

>  <SCORE.INTRA.SOLV>
0

>  <SCORE.INTRA.SOLV.lig_0>
-48.3454

>  <SCORE.INTRA.VDW>
0

>  <SCORE.INTRA.VDW.0>
0

>  <SCORE.INTRA.norm>
0

>  <SCORE.RESTR>
0

>  <SCORE.RESTR.CAVITY>
0

>  <SCORE.RESTR.norm>
0

>  <SCORE.SYSTEM>
0

>  <SCORE.SYSTEM.CONST>
0

>  <SCORE.SYSTEM.DIHEDRAL>
0

>  <SCORE.SYSTEM.SOLV>
0

>  <SCORE.SYSTEM.norm>
0

>  <SCORE.heavy>
11

>  <SCORE.norm>
-1.03974

>  <RMSD>
0.657

$$$$
ligand
 OpenBabel02271912153D
libRbt.so/2013.1/901 2013/11/27
 11 12  0  0  0  0  0  0  0  0999 V2000
  -11.8356  -12.7346    8.7969 N   0  0  0  0  0  0  0  0  0  0  0  0
  -11.4780  -14.0264    8.8748 C   0  0  0  0  0  0  0  0  0  0  0  0
  -11.4941  -14.6463   10.0514 N   0  0  0  0  0  0  0  0  0  0  0  0
  -11.0941  -14.6957    7.7768 N   0  0  0  0  0  0  0  0  0  0  0  0
  -11.0572  -14.0874    6.5820 C   0  0  0  0  0  0  0  0  0  0  0  0
  -11.4220  -12.7514    6.4735 C   0  0  0  0  0  0  0  0  0  0  0  0
  -11.8186  -12.0797    7.6252 C   0  0  0  0  0  0  0  0  0  0  0  0
  -12.1852  -10.8030    7.5653 N   0  0  0  0  0  0  0  0  0  0  0  0
  -11.2812  -12.4004    5.1988 N   0  0  0  0  0  0  0  0  0  0  0  0
  -10.8462  -13.4652    4.5288 C   0  0  0  0  0  0  0  0  0  0  0  0
  -10.7089  -14.4927    5.3642 N   0  0  0  0  0  0  0  0  0  0  0  0
  1  7  2  0  0  0  0
  1  2  1  0  0  0  0
  2  3  1  0  0  0  0
  2  4  2  0  0  0  0
  4  5  1  0  0  0  0
  5  6  2  0  0  0  0
  5 11  1  0  0  0  0
  6  7  1  0  0  0  0
  6  9  1  0  0  0  0
  7  8  1  0  0  0  0
  9 10  1  0  0  0  0
 10 11  2  0  0  0  0
M  END
>  <CHROM.1>
-11.38784231,-13.28985415,7.19131237,1.99761263,-1.24064989,2.12353264

>  <Name>
ligand

>  <RI>
0

>  <Rbt.Current_Directory>
/home/itssahil/PROJECTS/Mol_Feturizer/Test_systems_manuscript/rnas/2b57

>  <Rbt.Executable>
rbdock ($Id: //depot/dev/client3/rdock/2013.1/src/exe/rbdock.cxx#4 $)

>  <Rbt.Library>
libRbt.so (2013.1, Build901 2013/11/27)

>  <Rbt.Parameter_File>
/export/apps/rDock/src/rDock_2013.1_src/data/scripts/dock_solv.prm

>  <Rbt.Receptor>
prm/blind_docking_100.prm

>  <SCORE>
-11.4793

>  <SCORE.INTER>
-11.4793

>  <SCORE.INTER.CONST>
1

>  <SCORE.INTER.POLAR>
0

>  <SCORE.INTER.ROT>
0

>  <SCORE.INTER.SOLV>
21.475

>  <SCORE.INTER.VDW>
-18.4112

>  <SCORE.INTER.norm>
-1.04357

>  <SCORE.INTRA>
0

>  <SCORE.INTRA.DIHEDRAL>
0

>  <SCORE.INTRA.DIHEDRAL.0>
0

>  <SCORE.INTRA.POLAR>
0

>  <SCORE.INTRA.POLAR.0>
0

>  <SCORE.INTRA.REPUL>
0

>  <SCORE.INTRA.REPUL.0>
0

>  <SCORE.INTRA.SOLV>
0

>  <SCORE.INTRA.SOLV.lig_0>
-48.3454

>  <SCORE.INTRA.VDW>
0

>  <SCORE.INTRA.VDW.0>
0

>  <SCORE.INTRA.norm>
0

>  <SCORE.RESTR>
0

>  <SCORE.RESTR.CAVITY>
0

>  <SCORE.RESTR.norm>
0

>  <SCORE.SYSTEM>
0

>  <SCORE.SYSTEM.CONST>
0

>  <SCORE.SYSTEM.DIHEDRAL>
0

>  <SCORE.SYSTEM.SOLV>
0

>  <SCORE.SYSTEM.norm>
0

>  <SCORE.heavy>
11

>  <SCORE.norm>
-1.04357

>  <RMSD>
0.662

$$$$
ligand
 OpenBabel02271912153D
libRbt.so/2013.1/901 2013/11/27
 11 12  0  0  0  0  0  0  0  0999 V2000
  -11.8170  -12.7543    8.8104 N   0  0  0  0  0  0  0  0  0  0  0  0
  -11.4731  -14.0505    8.8758 C   0  0  0  0  0  0  0  0  0  0  0  0
  -11.4890  -14.6797   10.0475 N   0  0  0  0  0  0  0  0  0  0  0  0
  -11.1030  -14.7152    7.7702 N   0  0  0  0  0  0  0  0  0  0  0  0
  -11.0665  -14.0977    6.5802 C   0  0  0  0  0  0  0  0  0  0  0  0
  -11.4173  -12.7570    6.4845 C   0  0  0  0  0  0  0  0  0  0  0  0
  -11.7998  -12.0903    7.6438 C   0  0  0  0  0  0  0  0  0  0  0  0
  -12.1528  -10.8092    7.5962 N   0  0  0  0  0  0  0  0  0  0  0  0
  -11.2802  -12.3973    5.2118 N   0  0  0  0  0  0  0  0  0  0  0  0
  -10.8608  -13.4614    4.5307 C   0  0  0  0  0  0  0  0  0  0  0  0
  -10.7299  -14.4970    5.3571 N   0  0  0  0  0  0  0  0  0  0  0  0
  1  7  2  0  0  0  0
  1  2  1  0  0  0  0
  2  3  1  0  0  0  0
  2  4  2  0  0  0  0
  4  5  1  0  0  0  0
  5  6  2  0  0  0  0
  5 11  1  0  0  0  0
  6  7  1  0  0  0  0
  6  9  1  0  0  0  0
  7  8  1  0  0  0  0
  9 10  1  0  0  0  0
 10 11  2  0  0  0  0
M  END
>  <CHROM.1>
-11.38481329,-13.30152671,7.19775270,1.99994331,-1.25304735,2.13373641

>  <Name>
ligand

>  <RI>
0

>  <Rbt.Current_Directory>
/home/itssahil/PROJECTS/Mol_Feturizer/Test_systems_manuscript/rnas/2b57

>  <Rbt.Executable>
rbdock ($Id: //depot/dev/client3/rdock/2013.1/src/exe/rbdock.cxx#4 $)

>  <Rbt.Library>
libRbt.so (2013.1, Build901 2013/11/27)

>  <Rbt.Parameter_File>
/export/apps/rDock/src/rDock_2013.1_src/data/scripts/dock_solv.prm

>  <Rbt.Receptor>
prm/pocket_docking_5.prm

>  <SCORE>
-11.4941

>  <SCORE.INTER>
-11.4941

>  <SCORE.INTER.CONST>
1

>  <SCORE.INTER.POLAR>
0

>  <SCORE.INTER.ROT>
0

>  <SCORE.INTER.SOLV>
21.6425

>  <SCORE.INTER.VDW>
-18.4769

>  <SCORE.INTER.norm>
-1.04492

>  <SCORE.INTRA>
0

>  <SCORE.INTRA.DIHEDRAL>
0

>  <SCORE.INTRA.DIHEDRAL.0>
0

>  <SCORE.INTRA.POLAR>
0

>  <SCORE.INTRA.POLAR.0>
0

>  <SCORE.INTRA.REPUL>
0

>  <SCORE.INTRA.REPUL.0>
0

>  <SCORE.INTRA.SOLV>
0

>  <SCORE.INTRA.SOLV.lig_0>
-48.3454

>  <SCORE.INTRA.VDW>
0

>  <SCORE.INTRA.VDW.0>
0

>  <SCORE.INTRA.norm>
0

>  <SCORE.RESTR>
0

>  <SCORE.RESTR.CAVITY>
0

>  <SCORE.RESTR.norm>
0

>  <SCORE.SYSTEM>
0

>  <SCORE.SYSTEM.CONST>
0

>  <SCORE.SYSTEM.DIHEDRAL>
0

>  <SCORE.SYSTEM.SOLV>
0

>  <SCORE.SYSTEM.norm>
0

>  <SCORE.heavy>
11

>  <SCORE.norm>
-1.04492

>  <RMSD>
0.662

$$$$
ligand
 OpenBabel02271912153D
libRbt.so/2013.1/901 2013/11/27
 11 12  0  0  0  0  0  0  0  0999 V2000
  -11.8358  -12.7628    8.8031 N   0  0  0  0  0  0  0  0  0  0  0  0
  -11.4788  -14.0549    8.8788 C   0  0  0  0  0  0  0  0  0  0  0  0
  -11.4972  -14.6774   10.0540 N   0  0  0  0  0  0  0  0  0  0  0  0
  -11.0934  -14.7221    7.7799 N   0  0  0  0  0  0  0  0  0  0  0  0
  -11.0542  -14.1111    6.5866 C   0  0  0  0  0  0  0  0  0  0  0  0
  -11.4183  -12.7748    6.4804 C   0  0  0  0  0  0  0  0  0  0  0  0
  -11.8166  -12.1055    7.6328 C   0  0  0  0  0  0  0  0  0  0  0  0
  -12.1826  -10.8284    7.5750 N   0  0  0  0  0  0  0  0  0  0  0  0
  -11.2752  -12.4211    5.2066 N   0  0  0  0  0  0  0  0  0  0  0  0
  -10.8396  -13.4847    4.5351 C   0  0  0  0  0  0  0  0  0  0  0  0
  -10.7041  -14.5140    5.3685 N   0  0  0  0  0  0  0  0  0  0  0  0
  1  7  2  0  0  0  0
  1  2  1  0  0  0  0
  2  3  1  0  0  0  0
  2  4  2  0  0  0  0
  4  5  1  0  0  0  0
  5  6  2  0  0  0  0
  5 11  1  0  0  0  0
  6  7  1  0  0  0  0
  6  9  1  0  0  0  0
  7  8  1  0  0  0  0
  9 10  1  0  0  0  0
 10 11  2  0  0  0  0
M  END
>  <CHROM.1>
-11.38557105,-13.31481154,7.19704338,2.00268917,-1.24011615,2.13049819

>  <Name>
ligand

>  <RI>
0

>  <Rbt.Current_Directory>
/home/itssahil/PROJECTS/Mol_Feturizer/Test_systems_manuscript/rnas/2b57

>  <Rbt.Executable>
rbdock ($Id: //depot/dev/client3/rdock/2013.1/src/exe/rbdock.cxx#4 $)

>  <Rbt.Library>
libRbt.so (2013.1, Build901 2013/11/27)

>  <Rbt.Parameter_File>
/export/apps/rDock/src/rDock_2013.1_src/data/scripts/dock_solv.prm

>  <Rbt.Receptor>
prm/pocket_docking_7.prm

>  <SCORE>
-11.4387

>  <SCORE.INTER>
-11.4387

>  <SCORE.INTER.CONST>
1

>  <SCORE.INTER.POLAR>
0

>  <SCORE.INTER.ROT>
0

>  <SCORE.INTER.SOLV>
21.5011

>  <SCORE.INTER.VDW>
-18.3928

>  <SCORE.INTER.norm>
-1.03988

>  <SCORE.INTRA>
0

>  <SCORE.INTRA.DIHEDRAL>
0

>  <SCORE.INTRA.DIHEDRAL.0>
0

>  <SCORE.INTRA.POLAR>
0

>  <SCORE.INTRA.POLAR.0>
0

>  <SCORE.INTRA.REPUL>
0

>  <SCORE.INTRA.REPUL.0>
0

>  <SCORE.INTRA.SOLV>
0

>  <SCORE.INTRA.SOLV.lig_0>
-48.3454

>  <SCORE.INTRA.VDW>
0

>  <SCORE.INTRA.VDW.0>
0

>  <SCORE.INTRA.norm>
0

>  <SCORE.RESTR>
0

>  <SCORE.RESTR.CAVITY>
0

>  <SCORE.RESTR.norm>
0

>  <SCORE.SYSTEM>
0

>  <SCORE.SYSTEM.CONST>
0

>  <SCORE.SYSTEM.DIHEDRAL>
0

>  <SCORE.SYSTEM.SOLV>
0

>  <SCORE.SYSTEM.norm>
0

>  <SCORE.heavy>
11

>  <SCORE.norm>
-1.03988

>  <RMSD>
0.662

$$$$
ligand
 OpenBabel02271912153D
libRbt.so/2013.1/901 2013/11/27
 11 12  0  0  0  0  0  0  0  0999 V2000
  -11.8125  -12.7531    8.8091 N   0  0  0  0  0  0  0  0  0  0  0  0
  -11.4623  -14.0476    8.8752 C   0  0  0  0  0  0  0  0  0  0  0  0
  -11.4730  -14.6756   10.0475 N   0  0  0  0  0  0  0  0  0  0  0  0
  -11.0912  -14.7116    7.7695 N   0  0  0  0  0  0  0  0  0  0  0  0
  -11.0600  -14.0951    6.5787 C   0  0  0  0  0  0  0  0  0  0  0  0
  -11.4174  -12.7562    6.4824 C   0  0  0  0  0  0  0  0  0  0  0  0
  -11.8007  -12.0902    7.6418 C   0  0  0  0  0  0  0  0  0  0  0  0
  -12.1599  -10.8108    7.5937 N   0  0  0  0  0  0  0  0  0  0  0  0
  -11.2845  -12.3972    5.2091 N   0  0  0  0  0  0  0  0  0  0  0  0
  -10.8614  -13.4600    4.5283 C   0  0  0  0  0  0  0  0  0  0  0  0
  -10.7239  -14.4941    5.3554 N   0  0  0  0  0  0  0  0  0  0  0  0
  1  7  2  0  0  0  0
  1  2  1  0  0  0  0
  2  3  1  0  0  0  0
  2  4  2  0  0  0  0
  4  5  1  0  0  0  0
  5  6  2  0  0  0  0
  5 11  1  0  0  0  0
  6  7  1  0  0  0  0
  6  9  1  0  0  0  0
  7  8  1  0  0  0  0
  9 10  1  0  0  0  0
 10 11  2  0  0  0  0
M  END
>  <CHROM.1>
-11.38090600,-13.29986561,7.19615067,1.98662128,-1.25005722,2.12007694

>  <Name>
ligand

>  <RI>
0

>  <Rbt.Current_Directory>
/home/itssahil/PROJECTS/Mol_Feturizer/Test_systems_manuscript/rnas/2b57

>  <Rbt.Executable>
rbdock ($Id: //depot/dev/client3/rdock/2013.1/src/exe/rbdock.cxx#4 $)

>  <Rbt.Library>
libRbt.so (2013.1, Build901 2013/11/27)

>  <Rbt.Parameter_File>
/export/apps/rDock/src/rDock_2013.1_src/data/scripts/dock_solv.prm

>  <Rbt.Receptor>
prm/blind_docking_40.prm

>  <SCORE>
-11.4868

>  <SCORE.INTER>
-11.4868

>  <SCORE.INTER.CONST>
1

>  <SCORE.INTER.POLAR>
0

>  <SCORE.INTER.ROT>
0

>  <SCORE.INTER.SOLV>
21.6051

>  <SCORE.INTER.VDW>
-18.4596

>  <SCORE.INTER.norm>
-1.04426

>  <SCORE.INTRA>
0

>  <SCORE.INTRA.DIHEDRAL>
0

>  <SCORE.INTRA.DIHEDRAL.0>
0

>  <SCORE.INTRA.POLAR>
0

>  <SCORE.INTRA.POLAR.0>
0

>  <SCORE.INTRA.REPUL>
0

>  <SCORE.INTRA.REPUL.0>
0

>  <SCORE.INTRA.SOLV>
0

>  <SCORE.INTRA.SOLV.lig_0>
-48.3454

>  <SCORE.INTRA.VDW>
0

>  <SCORE.INTRA.VDW.0>
0

>  <SCORE.INTRA.norm>
0

>  <SCORE.RESTR>
0

>  <SCORE.RESTR.CAVITY>
0

>  <SCORE.RESTR.norm>
0

>  <SCORE.SYSTEM>
0

>  <SCORE.SYSTEM.CONST>
0

>  <SCORE.SYSTEM.DIHEDRAL>
0

>  <SCORE.SYSTEM.SOLV>
0

>  <SCORE.SYSTEM.norm>
0

>  <SCORE.heavy>
11

>  <SCORE.norm>
-1.04426

>  <RMSD>
0.664

$$$$
ligand
 OpenBabel02271912153D
libRbt.so/2013.1/901 2013/11/27
 11 12  0  0  0  0  0  0  0  0999 V2000
  -11.8381  -12.7638    8.8018 N   0  0  0  0  0  0  0  0  0  0  0  0
  -11.4696  -14.0532    8.8693 C   0  0  0  0  0  0  0  0  0  0  0  0
  -11.4768  -14.6817   10.0414 N   0  0  0  0  0  0  0  0  0  0  0  0
  -11.0838  -14.7114    7.7652 N   0  0  0  0  0  0  0  0  0  0  0  0
  -11.0559  -14.0942    6.5748 C   0  0  0  0  0  0  0  0  0  0  0  0
  -11.4320  -12.7606    6.4771 C   0  0  0  0  0  0  0  0  0  0  0  0
  -11.8303  -12.1005    7.6348 C   0  0  0  0  0  0  0  0  0  0  0  0
  -12.2076  -10.8264    7.5853 N   0  0  0  0  0  0  0  0  0  0  0  0
  -11.2982  -12.3992    5.2045 N   0  0  0  0  0  0  0  0  0  0  0  0
  -10.8567  -13.4556    4.5254 C   0  0  0  0  0  0  0  0  0  0  0  0
  -10.7083  -14.4879    5.3529 N   0  0  0  0  0  0  0  0  0  0  0  0
  1  7  2  0  0  0  0
  1  2  1  0  0  0  0
  2  3  1  0  0  0  0
  2  4  2  0  0  0  0
  4  5  1  0  0  0  0
  5  6  2  0  0  0  0
  5 11  1  0  0  0  0
  6  7  1  0  0  0  0
  6  9  1  0  0  0  0
  7  8  1  0  0  0  0
  9 10  1  0  0  0  0
 10 11  2  0  0  0  0
M  END
>  <CHROM.1>
-11.39104433,-13.30385380,7.19084561,1.97609034,-1.23531858,2.11038921

>  <Name>
ligand

>  <RI>
0

>  <Rbt.Current_Directory>
/home/itssahil/PROJECTS/Mol_Feturizer/Test_systems_manuscript/rnas/2b57

>  <Rbt.Executable>
rbdock ($Id: //depot/dev/client3/rdock/2013.1/src/exe/rbdock.cxx#4 $)

>  <Rbt.Library>
libRbt.so (2013.1, Build901 2013/11/27)

>  <Rbt.Parameter_File>
/export/apps/rDock/src/rDock_2013.1_src/data/scripts/dock_solv.prm

>  <Rbt.Receptor>
prm/pocket_docking_8.prm

>  <SCORE>
-11.4686

>  <SCORE.INTER>
-11.4686

>  <SCORE.INTER.CONST>
1

>  <SCORE.INTER.POLAR>
0

>  <SCORE.INTER.ROT>
0

>  <SCORE.INTER.SOLV>
21.4319

>  <SCORE.INTER.VDW>
-18.3897

>  <SCORE.INTER.norm>
-1.0426

>  <SCORE.INTRA>
0

>  <SCORE.INTRA.DIHEDRAL>
0

>  <SCORE.INTRA.DIHEDRAL.0>
0

>  <SCORE.INTRA.POLAR>
0

>  <SCORE.INTRA.POLAR.0>
0

>  <SCORE.INTRA.REPUL>
0

>  <SCORE.INTRA.REPUL.0>
0

>  <SCORE.INTRA.SOLV>
0

>  <SCORE.INTRA.SOLV.lig_0>
-48.3454

>  <SCORE.INTRA.VDW>
0

>  <SCORE.INTRA.VDW.0>
0

>  <SCORE.INTRA.norm>
0

>  <SCORE.RESTR>
0

>  <SCORE.RESTR.CAVITY>
0

>  <SCORE.RESTR.norm>
0

>  <SCORE.SYSTEM>
0

>  <SCORE.SYSTEM.CONST>
0

>  <SCORE.SYSTEM.DIHEDRAL>
0

>  <SCORE.SYSTEM.SOLV>
0

>  <SCORE.SYSTEM.norm>
0

>  <SCORE.heavy>
11

>  <SCORE.norm>
-1.0426

>  <RMSD>
0.665

$$$$
ligand
 OpenBabel02271912153D
libRbt.so/2013.1/901 2013/11/27
 11 12  0  0  0  0  0  0  0  0999 V2000
  -11.8091  -12.7505    8.8039 N   0  0  0  0  0  0  0  0  0  0  0  0
  -11.4539  -14.0435    8.8723 C   0  0  0  0  0  0  0  0  0  0  0  0
  -11.4599  -14.6688   10.0462 N   0  0  0  0  0  0  0  0  0  0  0  0
  -11.0825  -14.7087    7.7675 N   0  0  0  0  0  0  0  0  0  0  0  0
  -11.0559  -14.0949    6.5752 C   0  0  0  0  0  0  0  0  0  0  0  0
  -11.4184  -12.7576    6.4765 C   0  0  0  0  0  0  0  0  0  0  0  0
  -11.8021  -12.0903    7.6351 C   0  0  0  0  0  0  0  0  0  0  0  0
  -12.1661  -10.8124    7.5846 N   0  0  0  0  0  0  0  0  0  0  0  0
  -11.2893  -12.4010    5.2021 N   0  0  0  0  0  0  0  0  0  0  0  0
  -10.8636  -13.4638    4.5229 C   0  0  0  0  0  0  0  0  0  0  0  0
  -10.7206  -14.4955    5.3522 N   0  0  0  0  0  0  0  0  0  0  0  0
  1  7  2  0  0  0  0
  1  2  1  0  0  0  0
  2  3  1  0  0  0  0
  2  4  2  0  0  0  0
  4  5  1  0  0  0  0
  5  6  2  0  0  0  0
  5 11  1  0  0  0  0
  6  7  1  0  0  0  0
  6  9  1  0  0  0  0
  7  8  1  0  0  0  0
  9 10  1  0  0  0  0
 10 11  2  0  0  0  0
M  END
>  <CHROM.1>
-11.37853583,-13.29943771,7.19142867,1.97524933,-1.24784608,2.10695508

>  <Name>
ligand

>  <RI>
0

>  <Rbt.Current_Directory>
/home/itssahil/PROJECTS/Mol_Feturizer/Test_systems_manuscript/rnas/2b57

>  <Rbt.Executable>
rbdock ($Id: //depot/dev/client3/rdock/2013.1/src/exe/rbdock.cxx#4 $)

>  <Rbt.Library>
libRbt.so (2013.1, Build901 2013/11/27)

>  <Rbt.Parameter_File>
/export/apps/rDock/src/rDock_2013.1_src/data/scripts/dock_solv.prm

>  <Rbt.Receptor>
prm/pocket_docking_5.prm

>  <SCORE>
-11.4821

>  <SCORE.INTER>
-11.4821

>  <SCORE.INTER.CONST>
1

>  <SCORE.INTER.POLAR>
0

>  <SCORE.INTER.ROT>
0

>  <SCORE.INTER.SOLV>
21.5686

>  <SCORE.INTER.VDW>
-18.4443

>  <SCORE.INTER.norm>
-1.04383

>  <SCORE.INTRA>
0

>  <SCORE.INTRA.DIHEDRAL>
0

>  <SCORE.INTRA.DIHEDRAL.0>
0

>  <SCORE.INTRA.POLAR>
0

>  <SCORE.INTRA.POLAR.0>
0

>  <SCORE.INTRA.REPUL>
0

>  <SCORE.INTRA.REPUL.0>
0

>  <SCORE.INTRA.SOLV>
0

>  <SCORE.INTRA.SOLV.lig_0>
-48.3454

>  <SCORE.INTRA.VDW>
0

>  <SCORE.INTRA.VDW.0>
0

>  <SCORE.INTRA.norm>
0

>  <SCORE.RESTR>
0

>  <SCORE.RESTR.CAVITY>
0

>  <SCORE.RESTR.norm>
0

>  <SCORE.SYSTEM>
0

>  <SCORE.SYSTEM.CONST>
0

>  <SCORE.SYSTEM.DIHEDRAL>
0

>  <SCORE.SYSTEM.SOLV>
0

>  <SCORE.SYSTEM.norm>
0

>  <SCORE.heavy>
11

>  <SCORE.norm>
-1.04383

>  <RMSD>
0.668

$$$$
ligand
 OpenBabel02271912153D
libRbt.so/2013.1/901 2013/11/27
 11 12  0  0  0  0  0  0  0  0999 V2000
  -12.3326  -12.2007    9.1112 N   0  0  0  0  0  0  0  0  0  0  0  0
  -12.6603  -11.3448    8.1301 C   0  0  0  0  0  0  0  0  0  0  0  0
  -13.3634  -10.2522    8.4144 N   0  0  0  0  0  0  0  0  0  0  0  0
  -12.2934  -11.5871    6.8621 N   0  0  0  0  0  0  0  0  0  0  0  0
  -11.5957  -12.6892    6.5500 C   0  0  0  0  0  0  0  0  0  0  0  0
  -11.2437  -13.5913    7.5460 C   0  0  0  0  0  0  0  0  0  0  0  0
  -11.6332  -13.3170    8.8528 C   0  0  0  0  0  0  0  0  0  0  0  0
  -11.3093  -14.1486    9.8385 N   0  0  0  0  0  0  0  0  0  0  0  0
  -10.5789  -14.5869    6.9673 N   0  0  0  0  0  0  0  0  0  0  0  0
  -10.5125  -14.3286    5.6632 C   0  0  0  0  0  0  0  0  0  0  0  0
  -11.1282  -13.1768    5.4044 N   0  0  0  0  0  0  0  0  0  0  0  0
  1  7  2  0  0  0  0
  1  2  1  0  0  0  0
  2  3  1  0  0  0  0
  2  4  2  0  0  0  0
  4  5  1  0  0  0  0
  5  6  2  0  0  0  0
  5 11  1  0  0  0  0
  6  7  1  0  0  0  0
  6  9  1  0  0  0  0
  7  8  1  0  0  0  0
  9 10  1  0  0  0  0
 10 11  2  0  0  0  0
M  END
>  <CHROM.1>
-11.70709153,-12.82353445,7.59215156,-2.80705259,1.02413242,-1.28774697

>  <Name>
ligand

>  <RI>
0

>  <Rbt.Current_Directory>
/home/itssahil/PROJECTS/Mol_Feturizer/Test_systems_manuscript/rnas/2b57

>  <Rbt.Executable>
rbdock ($Id: //depot/dev/client3/rdock/2013.1/src/exe/rbdock.cxx#4 $)

>  <Rbt.Library>
libRbt.so (2013.1, Build901 2013/11/27)

>  <Rbt.Parameter_File>
/export/apps/rDock/src/rDock_2013.1_src/data/scripts/dock_solv.prm

>  <Rbt.Receptor>
prm/pocket_docking_7.prm

>  <SCORE>
-8.29255

>  <SCORE.INTER>
-8.29255

>  <SCORE.INTER.CONST>
1

>  <SCORE.INTER.POLAR>
0

>  <SCORE.INTER.ROT>
0

>  <SCORE.INTER.SOLV>
18.7934

>  <SCORE.INTER.VDW>
-15.3928

>  <SCORE.INTER.norm>
-0.753868

>  <SCORE.INTRA>
0

>  <SCORE.INTRA.DIHEDRAL>
0

>  <SCORE.INTRA.DIHEDRAL.0>
0

>  <SCORE.INTRA.POLAR>
0

>  <SCORE.INTRA.POLAR.0>
0

>  <SCORE.INTRA.REPUL>
0

>  <SCORE.INTRA.REPUL.0>
0

>  <SCORE.INTRA.SOLV>
0

>  <SCORE.INTRA.SOLV.lig_0>
-48.3454

>  <SCORE.INTRA.VDW>
0

>  <SCORE.INTRA.VDW.0>
0

>  <SCORE.INTRA.norm>
0

>  <SCORE.RESTR>
0

>  <SCORE.RESTR.CAVITY>
0

>  <SCORE.RESTR.norm>
0

>  <SCORE.SYSTEM>
0

>  <SCORE.SYSTEM.CONST>
0

>  <SCORE.SYSTEM.DIHEDRAL>
0

>  <SCORE.SYSTEM.SOLV>
0

>  <SCORE.SYSTEM.norm>
0

>  <SCORE.heavy>
11

>  <SCORE.norm>
-0.753868

>  <RMSD>
2.701

$$$$
ligand
 OpenBabel02271912153D
libRbt.so/2013.1/901 2013/11/27
 11 12  0  0  0  0  0  0  0  0999 V2000
  -12.3498  -12.1037    9.1212 N   0  0  0  0  0  0  0  0  0  0  0  0
  -12.6493  -11.2929    8.0939 C   0  0  0  0  0  0  0  0  0  0  0  0
  -13.3289  -10.1710    8.3143 N   0  0  0  0  0  0  0  0  0  0  0  0
  -12.2779  -11.6095    6.8437 N   0  0  0  0  0  0  0  0  0  0  0  0
  -11.6037  -12.7422    6.5959 C   0  0  0  0  0  0  0  0  0  0  0  0
  -11.2811  -13.5989    7.6408 C   0  0  0  0  0  0  0  0  0  0  0  0
  -11.6747  -13.2478    8.9278 C   0  0  0  0  0  0  0  0  0  0  0  0
  -11.3785  -14.0340    9.9585 N   0  0  0  0  0  0  0  0  0  0  0  0
  -10.6352  -14.6384    7.1210 N   0  0  0  0  0  0  0  0  0  0  0  0
  -10.5520  -14.4501    5.8059 C   0  0  0  0  0  0  0  0  0  0  0  0
  -11.1384  -13.2996    5.4817 N   0  0  0  0  0  0  0  0  0  0  0  0
  1  7  2  0  0  0  0
  1  2  1  0  0  0  0
  2  3  1  0  0  0  0
  2  4  2  0  0  0  0
  4  5  1  0  0  0  0
  5  6  2  0  0  0  0
  5 11  1  0  0  0  0
  6  7  1  0  0  0  0
  6  9  1  0  0  0  0
  7  8  1  0  0  0  0
  9 10  1  0  0  0  0
 10 11  2  0  0  0  0
M  END
>  <CHROM.1>
-11.72671265,-12.81928145,7.64258395,-2.83570586,1.04419784,-1.31529961

>  <Name>
ligand

>  <RI>
0

>  <Rbt.Current_Directory>
/home/itssahil/PROJECTS/Mol_Feturizer/Test_systems_manuscript/rnas/2b57

>  <Rbt.Executable>
rbdock ($Id: //depot/dev/client3/rdock/2013.1/src/exe/rbdock.cxx#4 $)

>  <Rbt.Library>
libRbt.so (2013.1, Build901 2013/11/27)

>  <Rbt.Parameter_File>
/export/apps/rDock/src/rDock_2013.1_src/data/scripts/dock_solv.prm

>  <Rbt.Receptor>
prm/pocket_docking_6.prm

>  <SCORE>
-8.36429

>  <SCORE.INTER>
-8.36429

>  <SCORE.INTER.CONST>
1

>  <SCORE.INTER.POLAR>
0

>  <SCORE.INTER.ROT>
0

>  <SCORE.INTER.SOLV>
18.7523

>  <SCORE.INTER.VDW>
-15.4269

>  <SCORE.INTER.norm>
-0.76039

>  <SCORE.INTRA>
0

>  <SCORE.INTRA.DIHEDRAL>
0

>  <SCORE.INTRA.DIHEDRAL.0>
0

>  <SCORE.INTRA.POLAR>
0

>  <SCORE.INTRA.POLAR.0>
0

>  <SCORE.INTRA.REPUL>
0

>  <SCORE.INTRA.REPUL.0>
0

>  <SCORE.INTRA.SOLV>
0

>  <SCORE.INTRA.SOLV.lig_0>
-48.3454

>  <SCORE.INTRA.VDW>
0

>  <SCORE.INTRA.VDW.0>
0

>  <SCORE.INTRA.norm>
0

>  <SCORE.RESTR>
0

>  <SCORE.RESTR.CAVITY>
0

>  <SCORE.RESTR.norm>
0

>  <SCORE.SYSTEM>
0

>  <SCORE.SYSTEM.CONST>
0

>  <SCORE.SYSTEM.DIHEDRAL>
0

>  <SCORE.SYSTEM.SOLV>
0

>  <SCORE.SYSTEM.norm>
0

>  <SCORE.heavy>
11

>  <SCORE.norm>
-0.76039

>  <RMSD>
2.722

$$$$
ligand
 OpenBabel02271912153D
libRbt.so/2013.1/901 2013/11/27
 11 12  0  0  0  0  0  0  0  0999 V2000
  -12.3397  -12.0864    9.1121 N   0  0  0  0  0  0  0  0  0  0  0  0
  -12.6519  -11.2870    8.0795 C   0  0  0  0  0  0  0  0  0  0  0  0
  -13.3336  -10.1655    8.2950 N   0  0  0  0  0  0  0  0  0  0  0  0
  -12.2910  -11.6149    6.8292 N   0  0  0  0  0  0  0  0  0  0  0  0
  -11.6149  -12.7475    6.5864 C   0  0  0  0  0  0  0  0  0  0  0  0
  -11.2793  -13.5924    7.6367 C   0  0  0  0  0  0  0  0  0  0  0  0
  -11.6622  -13.2298    8.9239 C   0  0  0  0  0  0  0  0  0  0  0  0
  -11.3533  -14.0045    9.9596 N   0  0  0  0  0  0  0  0  0  0  0  0
  -10.6344  -14.6348    7.1214 N   0  0  0  0  0  0  0  0  0  0  0  0
  -10.5644  -14.4595    5.8037 C   0  0  0  0  0  0  0  0  0  0  0  0
  -11.1581  -13.3145    5.4736 N   0  0  0  0  0  0  0  0  0  0  0  0
  1  7  2  0  0  0  0
  1  2  1  0  0  0  0
  2  3  1  0  0  0  0
  2  4  2  0  0  0  0
  4  5  1  0  0  0  0
  5  6  2  0  0  0  0
  5 11  1  0  0  0  0
  6  7  1  0  0  0  0
  6  9  1  0  0  0  0
  7  8  1  0  0  0  0
  9 10  1  0  0  0  0
 10 11  2  0  0  0  0
M  END
>  <CHROM.1>
-11.72784877,-12.81452084,7.63492962,-2.81574449,1.04285880,-1.34263509

>  <Name>
ligand

>  <RI>
0

>  <Rbt.Current_Directory>
/home/itssahil/PROJECTS/Mol_Feturizer/Test_systems_manuscript/rnas/2b57

>  <Rbt.Executable>
rbdock ($Id: //depot/dev/client3/rdock/2013.1/src/exe/rbdock.cxx#4 $)

>  <Rbt.Library>
libRbt.so (2013.1, Build901 2013/11/27)

>  <Rbt.Parameter_File>
/export/apps/rDock/src/rDock_2013.1_src/data/scripts/dock_solv.prm

>  <Rbt.Receptor>
prm/blind_docking_60.prm

>  <SCORE>
-8.38511

>  <SCORE.INTER>
-8.38511

>  <SCORE.INTER.CONST>
1

>  <SCORE.INTER.POLAR>
0

>  <SCORE.INTER.ROT>
0

>  <SCORE.INTER.SOLV>
18.7199

>  <SCORE.INTER.VDW>
-15.43

>  <SCORE.INTER.norm>
-0.762282

>  <SCORE.INTRA>
0

>  <SCORE.INTRA.DIHEDRAL>
0

>  <SCORE.INTRA.DIHEDRAL.0>
0

>  <SCORE.INTRA.POLAR>
0

>  <SCORE.INTRA.POLAR.0>
0

>  <SCORE.INTRA.REPUL>
0

>  <SCORE.INTRA.REPUL.0>
0

>  <SCORE.INTRA.SOLV>
0

>  <SCORE.INTRA.SOLV.lig_0>
-48.3454

>  <SCORE.INTRA.VDW>
0

>  <SCORE.INTRA.VDW.0>
0

>  <SCORE.INTRA.norm>
0

>  <SCORE.RESTR>
0

>  <SCORE.RESTR.CAVITY>
0

>  <SCORE.RESTR.norm>
0

>  <SCORE.SYSTEM>
0

>  <SCORE.SYSTEM.CONST>
0

>  <SCORE.SYSTEM.DIHEDRAL>
0

>  <SCORE.SYSTEM.SOLV>
0

>  <SCORE.SYSTEM.norm>
0

>  <SCORE.heavy>
11

>  <SCORE.norm>
-0.762282

>  <RMSD>
2.723

$$$$
ligand
 OpenBabel02271912153D
libRbt.so/2013.1/901 2013/11/27
 11 12  0  0  0  0  0  0  0  0999 V2000
  -12.3425  -12.0799    9.1172 N   0  0  0  0  0  0  0  0  0  0  0  0
  -12.6472  -11.2788    8.0837 C   0  0  0  0  0  0  0  0  0  0  0  0
  -13.3273  -10.1558    8.2967 N   0  0  0  0  0  0  0  0  0  0  0  0
  -12.2804  -11.6062    6.8350 N   0  0  0  0  0  0  0  0  0  0  0  0
  -11.6058  -12.7403    6.5947 C   0  0  0  0  0  0  0  0  0  0  0  0
  -11.2779  -13.5870    7.6460 C   0  0  0  0  0  0  0  0  0  0  0  0
  -11.6668  -13.2248    8.9314 C   0  0  0  0  0  0  0  0  0  0  0  0
  -11.3653  -14.0012    9.9680 N   0  0  0  0  0  0  0  0  0  0  0  0
  -10.6328  -14.6305    7.1331 N   0  0  0  0  0  0  0  0  0  0  0  0
  -10.5552  -14.4540    5.8159 C   0  0  0  0  0  0  0  0  0  0  0  0
  -11.1443  -13.3072    5.4838 N   0  0  0  0  0  0  0  0  0  0  0  0
  1  7  2  0  0  0  0
  1  2  1  0  0  0  0
  2  3  1  0  0  0  0
  2  4  2  0  0  0  0
  4  5  1  0  0  0  0
  5  6  2  0  0  0  0
  5 11  1  0  0  0  0
  6  7  1  0  0  0  0
  6  9  1  0  0  0  0
  7  8  1  0  0  0  0
  9 10  1  0  0  0  0
 10 11  2  0  0  0  0
M  END
>  <CHROM.1>
-11.72450969,-12.80802647,7.64255853,-2.82725754,1.04398563,-1.33167512

>  <Name>
ligand

>  <RI>
0

>  <Rbt.Current_Directory>
/home/itssahil/PROJECTS/Mol_Feturizer/Test_systems_manuscript/rnas/2b57

>  <Rbt.Executable>
rbdock ($Id: //depot/dev/client3/rdock/2013.1/src/exe/rbdock.cxx#4 $)

>  <Rbt.Library>
libRbt.so (2013.1, Build901 2013/11/27)

>  <Rbt.Parameter_File>
/export/apps/rDock/src/rDock_2013.1_src/data/scripts/dock_solv.prm

>  <Rbt.Receptor>
prm/blind_docking_80.prm

>  <SCORE>
-8.39003

>  <SCORE.INTER>
-8.39003

>  <SCORE.INTER.CONST>
1

>  <SCORE.INTER.POLAR>
0

>  <SCORE.INTER.ROT>
0

>  <SCORE.INTER.SOLV>
18.7375

>  <SCORE.INTER.VDW>
-15.4392

>  <SCORE.INTER.norm>
-0.76273

>  <SCORE.INTRA>
0

>  <SCORE.INTRA.DIHEDRAL>
0

>  <SCORE.INTRA.DIHEDRAL.0>
0

>  <SCORE.INTRA.POLAR>
0

>  <SCORE.INTRA.POLAR.0>
0

>  <SCORE.INTRA.REPUL>
0

>  <SCORE.INTRA.REPUL.0>
0

>  <SCORE.INTRA.SOLV>
0

>  <SCORE.INTRA.SOLV.lig_0>
-48.3454

>  <SCORE.INTRA.VDW>
0

>  <SCORE.INTRA.VDW.0>
0

>  <SCORE.INTRA.norm>
0

>  <SCORE.RESTR>
0

>  <SCORE.RESTR.CAVITY>
0

>  <SCORE.RESTR.norm>
0

>  <SCORE.SYSTEM>
0

>  <SCORE.SYSTEM.CONST>
0

>  <SCORE.SYSTEM.DIHEDRAL>
0

>  <SCORE.SYSTEM.SOLV>
0

>  <SCORE.SYSTEM.norm>
0

>  <SCORE.heavy>
11

>  <SCORE.norm>
-0.76273

>  <RMSD>
2.725

$$$$
ligand
 OpenBabel02271912153D
libRbt.so/2013.1/901 2013/11/27
 11 12  0  0  0  0  0  0  0  0999 V2000
  -11.2170  -14.6851    8.8383 N   0  0  0  0  0  0  0  0  0  0  0  0
  -11.8547  -14.2452    9.9350 C   0  0  0  0  0  0  0  0  0  0  0  0
  -12.0126  -15.0564   10.9771 N   0  0  0  0  0  0  0  0  0  0  0  0
  -12.3438  -12.9965    9.9854 N   0  0  0  0  0  0  0  0  0  0  0  0
  -12.2081  -12.1654    8.9415 C   0  0  0  0  0  0  0  0  0  0  0  0
  -11.5526  -12.5952    7.7946 C   0  0  0  0  0  0  0  0  0  0  0  0
  -11.0522  -13.8928    7.7673 C   0  0  0  0  0  0  0  0  0  0  0  0
  -10.4097  -14.3421    6.6933 N   0  0  0  0  0  0  0  0  0  0  0  0
  -11.5729  -11.5919    6.9223 N   0  0  0  0  0  0  0  0  0  0  0  0
  -12.2127  -10.5718    7.4897 C   0  0  0  0  0  0  0  0  0  0  0  0
  -12.6002  -10.9147    8.7164 N   0  0  0  0  0  0  0  0  0  0  0  0
  1  7  2  0  0  0  0
  1  2  1  0  0  0  0
  2  3  1  0  0  0  0
  2  4  2  0  0  0  0
  4  5  1  0  0  0  0
  5  6  2  0  0  0  0
  5 11  1  0  0  0  0
  6  7  1  0  0  0  0
  6  9  1  0  0  0  0
  7  8  1  0  0  0  0
  9 10  1  0  0  0  0
 10 11  2  0  0  0  0
M  END
>  <CHROM.1>
-11.72742660,-13.02673516,8.56244732,-1.43308464,1.04694873,-0.72238133

>  <Name>
ligand

>  <RI>
0

>  <Rbt.Current_Directory>
/home/itssahil/PROJECTS/Mol_Feturizer/Test_systems_manuscript/rnas/2b57

>  <Rbt.Executable>
rbdock ($Id: //depot/dev/client3/rdock/2013.1/src/exe/rbdock.cxx#4 $)

>  <Rbt.Library>
libRbt.so (2013.1, Build901 2013/11/27)

>  <Rbt.Parameter_File>
/export/apps/rDock/src/rDock_2013.1_src/data/scripts/dock_solv.prm

>  <Rbt.Receptor>
prm/blind_docking_60.prm

>  <SCORE>
-6.26852

>  <SCORE.INTER>
-6.26852

>  <SCORE.INTER.CONST>
1

>  <SCORE.INTER.POLAR>
0

>  <SCORE.INTER.ROT>
0

>  <SCORE.INTER.SOLV>
23.0651

>  <SCORE.INTER.VDW>
-15.4674

>  <SCORE.INTER.norm>
-0.569865

>  <SCORE.INTRA>
0

>  <SCORE.INTRA.DIHEDRAL>
0

>  <SCORE.INTRA.DIHEDRAL.0>
0

>  <SCORE.INTRA.POLAR>
0

>  <SCORE.INTRA.POLAR.0>
0

>  <SCORE.INTRA.REPUL>
0

>  <SCORE.INTRA.REPUL.0>
0

>  <SCORE.INTRA.SOLV>
0

>  <SCORE.INTRA.SOLV.lig_0>
-48.3454

>  <SCORE.INTRA.VDW>
0

>  <SCORE.INTRA.VDW.0>
0

>  <SCORE.INTRA.norm>
0

>  <SCORE.RESTR>
0

>  <SCORE.RESTR.CAVITY>
0

>  <SCORE.RESTR.norm>
0

>  <SCORE.SYSTEM>
0

>  <SCORE.SYSTEM.CONST>
0

>  <SCORE.SYSTEM.DIHEDRAL>
0

>  <SCORE.SYSTEM.SOLV>
0

>  <SCORE.SYSTEM.norm>
0

>  <SCORE.heavy>
11

>  <SCORE.norm>
-0.569865

>  <RMSD>
2.759

$$$$
ligand
 OpenBabel02271912153D
libRbt.so/2013.1/901 2013/11/27
 11 12  0  0  0  0  0  0  0  0999 V2000
  -11.2371  -14.6918    8.8672 N   0  0  0  0  0  0  0  0  0  0  0  0
  -11.8853  -14.2501    9.9569 C   0  0  0  0  0  0  0  0  0  0  0  0
  -12.0554  -15.0602   10.9979 N   0  0  0  0  0  0  0  0  0  0  0  0
  -12.3727  -13.0004   10.0014 N   0  0  0  0  0  0  0  0  0  0  0  0
  -12.2248  -12.1704    8.9583 C   0  0  0  0  0  0  0  0  0  0  0  0
  -11.5583  -12.6022    7.8186 C   0  0  0  0  0  0  0  0  0  0  0  0
  -11.0599  -13.9006    7.7973 C   0  0  0  0  0  0  0  0  0  0  0  0
  -10.4071  -14.3519    6.7304 N   0  0  0  0  0  0  0  0  0  0  0  0
  -11.5679  -11.5995    6.9454 N   0  0  0  0  0  0  0  0  0  0  0  0
  -12.2117  -10.5778    7.5054 C   0  0  0  0  0  0  0  0  0  0  0  0
  -12.6124  -10.9191    8.7283 N   0  0  0  0  0  0  0  0  0  0  0  0
  1  7  2  0  0  0  0
  1  2  1  0  0  0  0
  2  3  1  0  0  0  0
  2  4  2  0  0  0  0
  4  5  1  0  0  0  0
  5  6  2  0  0  0  0
  5 11  1  0  0  0  0
  6  7  1  0  0  0  0
  6  9  1  0  0  0  0
  7  8  1  0  0  0  0
  9 10  1  0  0  0  0
 10 11  2  0  0  0  0
M  END
>  <CHROM.1>
-11.74177461,-13.03281842,8.58485881,-1.44914777,1.04030421,-0.70922559

>  <Name>
ligand

>  <RI>
0

>  <Rbt.Current_Directory>
/home/itssahil/PROJECTS/Mol_Feturizer/Test_systems_manuscript/rnas/2b57

>  <Rbt.Executable>
rbdock ($Id: //depot/dev/client3/rdock/2013.1/src/exe/rbdock.cxx#4 $)

>  <Rbt.Library>
libRbt.so (2013.1, Build901 2013/11/27)

>  <Rbt.Parameter_File>
/export/apps/rDock/src/rDock_2013.1_src/data/scripts/dock_solv.prm

>  <Rbt.Receptor>
prm/pocket_docking_8.prm

>  <SCORE>
-6.30648

>  <SCORE.INTER>
-6.30648

>  <SCORE.INTER.CONST>
1

>  <SCORE.INTER.POLAR>
0

>  <SCORE.INTER.ROT>
0

>  <SCORE.INTER.SOLV>
23.0871

>  <SCORE.INTER.VDW>
-15.5

>  <SCORE.INTER.norm>
-0.573316

>  <SCORE.INTRA>
0

>  <SCORE.INTRA.DIHEDRAL>
0

>  <SCORE.INTRA.DIHEDRAL.0>
0

>  <SCORE.INTRA.POLAR>
0

>  <SCORE.INTRA.POLAR.0>
0

>  <SCORE.INTRA.REPUL>
0

>  <SCORE.INTRA.REPUL.0>
0

>  <SCORE.INTRA.SOLV>
0

>  <SCORE.INTRA.SOLV.lig_0>
-48.3454

>  <SCORE.INTRA.VDW>
0

>  <SCORE.INTRA.VDW.0>
0

>  <SCORE.INTRA.norm>
0

>  <SCORE.RESTR>
0

>  <SCORE.RESTR.CAVITY>
0

>  <SCORE.RESTR.norm>
0

>  <SCORE.SYSTEM>
0

>  <SCORE.SYSTEM.CONST>
0

>  <SCORE.SYSTEM.DIHEDRAL>
0

>  <SCORE.SYSTEM.SOLV>
0

>  <SCORE.SYSTEM.norm>
0

>  <SCORE.heavy>
11

>  <SCORE.norm>
-0.573316

>  <RMSD>
2.766

$$$$
ligand
 OpenBabel02271912153D
libRbt.so/2013.1/901 2013/11/27
 11 12  0  0  0  0  0  0  0  0999 V2000
  -11.2583  -14.6860    8.8418 N   0  0  0  0  0  0  0  0  0  0  0  0
  -11.8954  -14.2482    9.9396 C   0  0  0  0  0  0  0  0  0  0  0  0
  -12.0597  -15.0638   10.9772 N   0  0  0  0  0  0  0  0  0  0  0  0
  -12.3774  -12.9969    9.9956 N   0  0  0  0  0  0  0  0  0  0  0  0
  -12.2352  -12.1613    8.9562 C   0  0  0  0  0  0  0  0  0  0  0  0
  -11.5803  -12.5889    7.8083 C   0  0  0  0  0  0  0  0  0  0  0  0
  -11.0872  -13.8891    7.7751 C   0  0  0  0  0  0  0  0  0  0  0  0
  -10.4454  -14.3366    6.6999 N   0  0  0  0  0  0  0  0  0  0  0  0
  -11.5933  -11.5810    6.9411 N   0  0  0  0  0  0  0  0  0  0  0  0
  -12.2283  -10.5602    7.5127 C   0  0  0  0  0  0  0  0  0  0  0  0
  -12.6198  -10.9072    8.7370 N   0  0  0  0  0  0  0  0  0  0  0  0
  1  7  2  0  0  0  0
  1  2  1  0  0  0  0
  2  3  1  0  0  0  0
  2  4  2  0  0  0  0
  4  5  1  0  0  0  0
  5  6  2  0  0  0  0
  5 11  1  0  0  0  0
  6  7  1  0  0  0  0
  6  9  1  0  0  0  0
  7  8  1  0  0  0  0
  9 10  1  0  0  0  0
 10 11  2  0  0  0  0
M  END
>  <CHROM.1>
-11.75884137,-13.02337837,8.57357798,-1.44393661,1.04939621,-0.70781622

>  <Name>
ligand

>  <RI>
0

>  <Rbt.Current_Directory>
/home/itssahil/PROJECTS/Mol_Feturizer/Test_systems_manuscript/rnas/2b57

>  <Rbt.Executable>
rbdock ($Id: //depot/dev/client3/rdock/2013.1/src/exe/rbdock.cxx#4 $)

>  <Rbt.Library>
libRbt.so (2013.1, Build901 2013/11/27)

>  <Rbt.Parameter_File>
/export/apps/rDock/src/rDock_2013.1_src/data/scripts/dock_solv.prm

>  <Rbt.Receptor>
prm/blind_docking_40.prm

>  <SCORE>
-6.29186

>  <SCORE.INTER>
-6.29186

>  <SCORE.INTER.CONST>
1

>  <SCORE.INTER.POLAR>
0

>  <SCORE.INTER.ROT>
0

>  <SCORE.INTER.SOLV>
23.0381

>  <SCORE.INTER.VDW>
-15.4739

>  <SCORE.INTER.norm>
-0.571987

>  <SCORE.INTRA>
0

>  <SCORE.INTRA.DIHEDRAL>
0

>  <SCORE.INTRA.DIHEDRAL.0>
0

>  <SCORE.INTRA.POLAR>
0

>  <SCORE.INTRA.POLAR.0>
0

>  <SCORE.INTRA.REPUL>
0

>  <SCORE.INTRA.REPUL.0>
0

>  <SCORE.INTRA.SOLV>
0

>  <SCORE.INTRA.SOLV.lig_0>
-48.3454

>  <SCORE.INTRA.VDW>
0

>  <SCORE.INTRA.VDW.0>
0

>  <SCORE.INTRA.norm>
0

>  <SCORE.RESTR>
0

>  <SCORE.RESTR.CAVITY>
0

>  <SCORE.RESTR.norm>
0

>  <SCORE.SYSTEM>
0

>  <SCORE.SYSTEM.CONST>
0

>  <SCORE.SYSTEM.DIHEDRAL>
0

>  <SCORE.SYSTEM.SOLV>
0

>  <SCORE.SYSTEM.norm>
0

>  <SCORE.heavy>
11

>  <SCORE.norm>
-0.571987

>  <RMSD>
2.767

$$$$
ligand
 OpenBabel02271912153D
libRbt.so/2013.1/901 2013/11/27
 11 12  0  0  0  0  0  0  0  0999 V2000
  -11.9573  -11.8818    8.9820 N   0  0  0  0  0  0  0  0  0  0  0  0
  -11.9740  -11.0244    7.9489 C   0  0  0  0  0  0  0  0  0  0  0  0
  -12.2640   -9.7434    8.1585 N   0  0  0  0  0  0  0  0  0  0  0  0
  -11.7108  -11.4506    6.7039 N   0  0  0  0  0  0  0  0  0  0  0  0
  -11.4291  -12.7403    6.4669 C   0  0  0  0  0  0  0  0  0  0  0  0
  -11.4052  -13.6484    7.5179 C   0  0  0  0  0  0  0  0  0  0  0  0
  -11.6789  -13.1823    8.7995 C   0  0  0  0  0  0  0  0  0  0  0  0
  -11.6574  -14.0152    9.8358 N   0  0  0  0  0  0  0  0  0  0  0  0
  -11.1183  -14.8426    7.0084 N   0  0  0  0  0  0  0  0  0  0  0  0
  -10.9674  -14.6989    5.6937 C   0  0  0  0  0  0  0  0  0  0  0  0
  -11.1547  -13.4239    5.3596 N   0  0  0  0  0  0  0  0  0  0  0  0
  1  7  2  0  0  0  0
  1  2  1  0  0  0  0
  2  3  1  0  0  0  0
  2  4  2  0  0  0  0
  4  5  1  0  0  0  0
  5  6  2  0  0  0  0
  5 11  1  0  0  0  0
  6  7  1  0  0  0  0
  6  9  1  0  0  0  0
  7  8  1  0  0  0  0
  9 10  1  0  0  0  0
 10 11  2  0  0  0  0
M  END
>  <CHROM.1>
-11.58004255,-12.76766453,7.51244417,3.05003332,1.33792393,-0.94644529

>  <Name>
ligand

>  <RI>
0

>  <Rbt.Current_Directory>
/home/itssahil/PROJECTS/Mol_Feturizer/Test_systems_manuscript/rnas/2b57

>  <Rbt.Executable>
rbdock ($Id: //depot/dev/client3/rdock/2013.1/src/exe/rbdock.cxx#4 $)

>  <Rbt.Library>
libRbt.so (2013.1, Build901 2013/11/27)

>  <Rbt.Parameter_File>
/export/apps/rDock/src/rDock_2013.1_src/data/scripts/dock_solv.prm

>  <Rbt.Receptor>
prm/blind_docking_100.prm

>  <SCORE>
-8.75403

>  <SCORE.INTER>
-8.75403

>  <SCORE.INTER.CONST>
1

>  <SCORE.INTER.POLAR>
0

>  <SCORE.INTER.ROT>
0

>  <SCORE.INTER.SOLV>
20.6809

>  <SCORE.INTER.VDW>
-16.3297

>  <SCORE.INTER.norm>
-0.795821

>  <SCORE.INTRA>
0

>  <SCORE.INTRA.DIHEDRAL>
0

>  <SCORE.INTRA.DIHEDRAL.0>
0

>  <SCORE.INTRA.POLAR>
0

>  <SCORE.INTRA.POLAR.0>
0

>  <SCORE.INTRA.REPUL>
0

>  <SCORE.INTRA.REPUL.0>
0

>  <SCORE.INTRA.SOLV>
0

>  <SCORE.INTRA.SOLV.lig_0>
-48.3454

>  <SCORE.INTRA.VDW>
0

>  <SCORE.INTRA.VDW.0>
0

>  <SCORE.INTRA.norm>
0

>  <SCORE.RESTR>
0

>  <SCORE.RESTR.CAVITY>
0

>  <SCORE.RESTR.norm>
0

>  <SCORE.SYSTEM>
0

>  <SCORE.SYSTEM.CONST>
0

>  <SCORE.SYSTEM.DIHEDRAL>
0

>  <SCORE.SYSTEM.SOLV>
0

>  <SCORE.SYSTEM.norm>
0

>  <SCORE.heavy>
11

>  <SCORE.norm>
-0.795821

>  <RMSD>
2.774

$$$$
ligand
 OpenBabel02271912153D
libRbt.so/2013.1/901 2013/11/27
 11 12  0  0  0  0  0  0  0  0999 V2000
  -12.0316  -11.8790    8.9736 N   0  0  0  0  0  0  0  0  0  0  0  0
  -12.0194  -11.0163    7.9449 C   0  0  0  0  0  0  0  0  0  0  0  0
  -12.3193   -9.7372    8.1521 N   0  0  0  0  0  0  0  0  0  0  0  0
  -11.7170  -11.4352    6.7063 N   0  0  0  0  0  0  0  0  0  0  0  0
  -11.4245  -12.7229    6.4714 C   0  0  0  0  0  0  0  0  0  0  0  0
  -11.4300  -13.6364    7.5179 C   0  0  0  0  0  0  0  0  0  0  0  0
  -11.7439  -13.1777    8.7929 C   0  0  0  0  0  0  0  0  0  0  0  0
  -11.7516  -14.0160    9.8251 N   0  0  0  0  0  0  0  0  0  0  0  0
  -11.1241  -14.8271    7.0112 N   0  0  0  0  0  0  0  0  0  0  0  0
  -10.9336  -14.6761    5.7024 C   0  0  0  0  0  0  0  0  0  0  0  0
  -11.1145  -13.3998    5.3694 N   0  0  0  0  0  0  0  0  0  0  0  0
  1  7  2  0  0  0  0
  1  2  1  0  0  0  0
  2  3  1  0  0  0  0
  2  4  2  0  0  0  0
  4  5  1  0  0  0  0
  5  6  2  0  0  0  0
  5 11  1  0  0  0  0
  6  7  1  0  0  0  0
  6  9  1  0  0  0  0
  7  8  1  0  0  0  0
  9 10  1  0  0  0  0
 10 11  2  0  0  0  0
M  END
>  <CHROM.1>
-11.60713602,-12.75612026,7.51163425,2.95839957,1.31669799,-0.85230384

>  <Name>
ligand

>  <RI>
0

>  <Rbt.Current_Directory>
/home/itssahil/PROJECTS/Mol_Feturizer/Test_systems_manuscript/rnas/2b57

>  <Rbt.Executable>
rbdock ($Id: //depot/dev/client3/rdock/2013.1/src/exe/rbdock.cxx#4 $)

>  <Rbt.Library>
libRbt.so (2013.1, Build901 2013/11/27)

>  <Rbt.Parameter_File>
/export/apps/rDock/src/rDock_2013.1_src/data/scripts/dock_solv.prm

>  <Rbt.Receptor>
prm/pocket_docking_7.prm

>  <SCORE>
-8.7772

>  <SCORE.INTER>
-8.7772

>  <SCORE.INTER.CONST>
1

>  <SCORE.INTER.POLAR>
0

>  <SCORE.INTER.ROT>
0

>  <SCORE.INTER.SOLV>
20.3094

>  <SCORE.INTER.VDW>
-16.2213

>  <SCORE.INTER.norm>
-0.797927

>  <SCORE.INTRA>
0

>  <SCORE.INTRA.DIHEDRAL>
0

>  <SCORE.INTRA.DIHEDRAL.0>
0

>  <SCORE.INTRA.POLAR>
0

>  <SCORE.INTRA.POLAR.0>
0

>  <SCORE.INTRA.REPUL>
0

>  <SCORE.INTRA.REPUL.0>
0

>  <SCORE.INTRA.SOLV>
0

>  <SCORE.INTRA.SOLV.lig_0>
-48.3454

>  <SCORE.INTRA.VDW>
0

>  <SCORE.INTRA.VDW.0>
0

>  <SCORE.INTRA.norm>
0

>  <SCORE.RESTR>
0

>  <SCORE.RESTR.CAVITY>
0

>  <SCORE.RESTR.norm>
0

>  <SCORE.SYSTEM>
0

>  <SCORE.SYSTEM.CONST>
0

>  <SCORE.SYSTEM.DIHEDRAL>
0

>  <SCORE.SYSTEM.SOLV>
0

>  <SCORE.SYSTEM.norm>
0

>  <SCORE.heavy>
11

>  <SCORE.norm>
-0.797927

>  <RMSD>
2.774

$$$$
ligand
 OpenBabel02271912153D
libRbt.so/2013.1/901 2013/11/27
 11 12  0  0  0  0  0  0  0  0999 V2000
  -11.8832  -11.8846    8.9901 N   0  0  0  0  0  0  0  0  0  0  0  0
  -11.9334  -11.0295    7.9562 C   0  0  0  0  0  0  0  0  0  0  0  0
  -12.2207   -9.7489    8.1717 N   0  0  0  0  0  0  0  0  0  0  0  0
  -11.7062  -11.4576    6.7047 N   0  0  0  0  0  0  0  0  0  0  0  0
  -11.4279  -12.7471    6.4622 C   0  0  0  0  0  0  0  0  0  0  0  0
  -11.3700  -13.6528    7.5138 C   0  0  0  0  0  0  0  0  0  0  0  0
  -11.6066  -13.1846    8.8021 C   0  0  0  0  0  0  0  0  0  0  0  0
  -11.5516  -14.0153    9.8390 N   0  0  0  0  0  0  0  0  0  0  0  0
  -11.0948  -14.8473    6.9985 N   0  0  0  0  0  0  0  0  0  0  0  0
  -10.9837  -14.7060    5.6795 C   0  0  0  0  0  0  0  0  0  0  0  0
  -11.1848  -13.4322    5.3486 N   0  0  0  0  0  0  0  0  0  0  0  0
  1  7  2  0  0  0  0
  1  2  1  0  0  0  0
  2  3  1  0  0  0  0
  2  4  2  0  0  0  0
  4  5  1  0  0  0  0
  5  6  2  0  0  0  0
  5 11  1  0  0  0  0
  6  7  1  0  0  0  0
  6  9  1  0  0  0  0
  7  8  1  0  0  0  0
  9 10  1  0  0  0  0
 10 11  2  0  0  0  0
M  END
>  <CHROM.1>
-11.54747085,-12.77256826,7.51179119,-3.11335803,1.35148635,-1.06533161

>  <Name>
ligand

>  <RI>
0

>  <Rbt.Current_Directory>
/home/itssahil/PROJECTS/Mol_Feturizer/Test_systems_manuscript/rnas/2b57

>  <Rbt.Executable>
rbdock ($Id: //depot/dev/client3/rdock/2013.1/src/exe/rbdock.cxx#4 $)

>  <Rbt.Library>
libRbt.so (2013.1, Build901 2013/11/27)

>  <Rbt.Parameter_File>
/export/apps/rDock/src/rDock_2013.1_src/data/scripts/dock_solv.prm

>  <Rbt.Receptor>
prm/blind_docking_60.prm

>  <SCORE>
-8.813

>  <SCORE.INTER>
-8.813

>  <SCORE.INTER.CONST>
1

>  <SCORE.INTER.POLAR>
0

>  <SCORE.INTER.ROT>
0

>  <SCORE.INTER.SOLV>
21.0323

>  <SCORE.INTER.VDW>
-16.4861

>  <SCORE.INTER.norm>
-0.801182

>  <SCORE.INTRA>
0

>  <SCORE.INTRA.DIHEDRAL>
0

>  <SCORE.INTRA.DIHEDRAL.0>
0

>  <SCORE.INTRA.POLAR>
0

>  <SCORE.INTRA.POLAR.0>
0

>  <SCORE.INTRA.REPUL>
0

>  <SCORE.INTRA.REPUL.0>
0

>  <SCORE.INTRA.SOLV>
0

>  <SCORE.INTRA.SOLV.lig_0>
-48.3454

>  <SCORE.INTRA.VDW>
0

>  <SCORE.INTRA.VDW.0>
0

>  <SCORE.INTRA.norm>
0

>  <SCORE.RESTR>
0

>  <SCORE.RESTR.CAVITY>
0

>  <SCORE.RESTR.norm>
0

>  <SCORE.SYSTEM>
0

>  <SCORE.SYSTEM.CONST>
0

>  <SCORE.SYSTEM.DIHEDRAL>
0

>  <SCORE.SYSTEM.SOLV>
0

>  <SCORE.SYSTEM.norm>
0

>  <SCORE.heavy>
11

>  <SCORE.norm>
-0.801182

>  <RMSD>
2.775

$$$$
ligand
 OpenBabel02271912153D
libRbt.so/2013.1/901 2013/11/27
 11 12  0  0  0  0  0  0  0  0999 V2000
  -12.0629  -11.8687    8.9712 N   0  0  0  0  0  0  0  0  0  0  0  0
  -12.0371  -11.0119    7.9378 C   0  0  0  0  0  0  0  0  0  0  0  0
  -12.3434   -9.7324    8.1330 N   0  0  0  0  0  0  0  0  0  0  0  0
  -11.7147  -11.4371    6.7064 N   0  0  0  0  0  0  0  0  0  0  0  0
  -11.4154  -12.7253    6.4835 C   0  0  0  0  0  0  0  0  0  0  0  0
  -11.4346  -13.6328    7.5350 C   0  0  0  0  0  0  0  0  0  0  0  0
  -11.7692  -13.1677    8.8025 C   0  0  0  0  0  0  0  0  0  0  0  0
  -11.7905  -14.0001    9.8392 N   0  0  0  0  0  0  0  0  0  0  0  0
  -11.1179  -14.8256    7.0400 N   0  0  0  0  0  0  0  0  0  0  0  0
  -10.9078  -14.6816    5.7335 C   0  0  0  0  0  0  0  0  0  0  0  0
  -11.0867  -13.4078    5.3904 N   0  0  0  0  0  0  0  0  0  0  0  0
  1  7  2  0  0  0  0
  1  2  1  0  0  0  0
  2  3  1  0  0  0  0
  2  4  2  0  0  0  0
  4  5  1  0  0  0  0
  5  6  2  0  0  0  0
  5 11  1  0  0  0  0
  6  7  1  0  0  0  0
  6  9  1  0  0  0  0
  7  8  1  0  0  0  0
  9 10  1  0  0  0  0
 10 11  2  0  0  0  0
M  END
>  <CHROM.1>
-11.61384481,-12.75308127,7.52101078,2.92091441,1.30450857,-0.82183833

>  <Name>
ligand

>  <RI>
0

>  <Rbt.Current_Directory>
/home/itssahil/PROJECTS/Mol_Feturizer/Test_systems_manuscript/rnas/2b57

>  <Rbt.Executable>
rbdock ($Id: //depot/dev/client3/rdock/2013.1/src/exe/rbdock.cxx#4 $)

>  <Rbt.Library>
libRbt.so (2013.1, Build901 2013/11/27)

>  <Rbt.Parameter_File>
/export/apps/rDock/src/rDock_2013.1_src/data/scripts/dock_solv.prm

>  <Rbt.Receptor>
prm/blind_docking_40.prm

>  <SCORE>
-8.80244

>  <SCORE.INTER>
-8.80244

>  <SCORE.INTER.CONST>
1

>  <SCORE.INTER.POLAR>
0

>  <SCORE.INTER.ROT>
0

>  <SCORE.INTER.SOLV>
20.0983

>  <SCORE.INTER.VDW>
-16.1677

>  <SCORE.INTER.norm>
-0.800222

>  <SCORE.INTRA>
0

>  <SCORE.INTRA.DIHEDRAL>
0

>  <SCORE.INTRA.DIHEDRAL.0>
0

>  <SCORE.INTRA.POLAR>
0

>  <SCORE.INTRA.POLAR.0>
0

>  <SCORE.INTRA.REPUL>
0

>  <SCORE.INTRA.REPUL.0>
0

>  <SCORE.INTRA.SOLV>
0

>  <SCORE.INTRA.SOLV.lig_0>
-48.3454

>  <SCORE.INTRA.VDW>
0

>  <SCORE.INTRA.VDW.0>
0

>  <SCORE.INTRA.norm>
0

>  <SCORE.RESTR>
0

>  <SCORE.RESTR.CAVITY>
0

>  <SCORE.RESTR.norm>
0

>  <SCORE.SYSTEM>
0

>  <SCORE.SYSTEM.CONST>
0

>  <SCORE.SYSTEM.DIHEDRAL>
0

>  <SCORE.SYSTEM.SOLV>
0

>  <SCORE.SYSTEM.norm>
0

>  <SCORE.heavy>
11

>  <SCORE.norm>
-0.800222

>  <RMSD>
2.776

$$$$
ligand
 OpenBabel02271912153D
libRbt.so/2013.1/901 2013/11/27
 11 12  0  0  0  0  0  0  0  0999 V2000
  -12.0564  -11.8668    8.9720 N   0  0  0  0  0  0  0  0  0  0  0  0
  -12.0333  -11.0107    7.9379 C   0  0  0  0  0  0  0  0  0  0  0  0
  -12.3403   -9.7313    8.1327 N   0  0  0  0  0  0  0  0  0  0  0  0
  -11.7131  -11.4367    6.7062 N   0  0  0  0  0  0  0  0  0  0  0  0
  -11.4131  -12.7249    6.4837 C   0  0  0  0  0  0  0  0  0  0  0  0
  -11.4295  -13.6316    7.5360 C   0  0  0  0  0  0  0  0  0  0  0  0
  -11.7620  -13.1656    8.8038 C   0  0  0  0  0  0  0  0  0  0  0  0
  -11.7806  -13.9972    9.8412 N   0  0  0  0  0  0  0  0  0  0  0  0
  -11.1129  -14.8245    7.0414 N   0  0  0  0  0  0  0  0  0  0  0  0
  -10.9055  -14.6814    5.7343 C   0  0  0  0  0  0  0  0  0  0  0  0
  -11.0862  -13.4079    5.3905 N   0  0  0  0  0  0  0  0  0  0  0  0
  1  7  2  0  0  0  0
  1  2  1  0  0  0  0
  2  3  1  0  0  0  0
  2  4  2  0  0  0  0
  4  5  1  0  0  0  0
  5  6  2  0  0  0  0
  5 11  1  0  0  0  0
  6  7  1  0  0  0  0
  6  9  1  0  0  0  0
  7  8  1  0  0  0  0
  9 10  1  0  0  0  0
 10 11  2  0  0  0  0
M  END
>  <CHROM.1>
-11.60953457,-12.75194556,7.52165109,2.92853926,1.30527930,-0.83000299

>  <Name>
ligand

>  <RI>
0

>  <Rbt.Current_Directory>
/home/itssahil/PROJECTS/Mol_Feturizer/Test_systems_manuscript/rnas/2b57

>  <Rbt.Executable>
rbdock ($Id: //depot/dev/client3/rdock/2013.1/src/exe/rbdock.cxx#4 $)

>  <Rbt.Library>
libRbt.so (2013.1, Build901 2013/11/27)

>  <Rbt.Parameter_File>
/export/apps/rDock/src/rDock_2013.1_src/data/scripts/dock_solv.prm

>  <Rbt.Receptor>
prm/blind_docking_40.prm

>  <SCORE>
-8.80093

>  <SCORE.INTER>
-8.80093

>  <SCORE.INTER.CONST>
1

>  <SCORE.INTER.POLAR>
0

>  <SCORE.INTER.ROT>
0

>  <SCORE.INTER.SOLV>
20.1159

>  <SCORE.INTER.VDW>
-16.1726

>  <SCORE.INTER.norm>
-0.800084

>  <SCORE.INTRA>
0

>  <SCORE.INTRA.DIHEDRAL>
0

>  <SCORE.INTRA.DIHEDRAL.0>
0

>  <SCORE.INTRA.POLAR>
0

>  <SCORE.INTRA.POLAR.0>
0

>  <SCORE.INTRA.REPUL>
0

>  <SCORE.INTRA.REPUL.0>
0

>  <SCORE.INTRA.SOLV>
0

>  <SCORE.INTRA.SOLV.lig_0>
-48.3454

>  <SCORE.INTRA.VDW>
0

>  <SCORE.INTRA.VDW.0>
0

>  <SCORE.INTRA.norm>
0

>  <SCORE.RESTR>
0

>  <SCORE.RESTR.CAVITY>
0

>  <SCORE.RESTR.norm>
0

>  <SCORE.SYSTEM>
0

>  <SCORE.SYSTEM.CONST>
0

>  <SCORE.SYSTEM.DIHEDRAL>
0

>  <SCORE.SYSTEM.SOLV>
0

>  <SCORE.SYSTEM.norm>
0

>  <SCORE.heavy>
11

>  <SCORE.norm>
-0.800084

>  <RMSD>
2.776

$$$$
ligand
 OpenBabel02271912153D
libRbt.so/2013.1/901 2013/11/27
 11 12  0  0  0  0  0  0  0  0999 V2000
  -12.0600  -11.8681    8.9704 N   0  0  0  0  0  0  0  0  0  0  0  0
  -12.0356  -11.0108    7.9374 C   0  0  0  0  0  0  0  0  0  0  0  0
  -12.3414   -9.7314    8.1336 N   0  0  0  0  0  0  0  0  0  0  0  0
  -11.7151  -11.4355    6.7053 N   0  0  0  0  0  0  0  0  0  0  0  0
  -11.4163  -12.7237    6.4814 C   0  0  0  0  0  0  0  0  0  0  0  0
  -11.4341  -13.6317    7.5325 C   0  0  0  0  0  0  0  0  0  0  0  0
  -11.7668  -13.1671    8.8006 C   0  0  0  0  0  0  0  0  0  0  0  0
  -11.7868  -13.9999    9.8370 N   0  0  0  0  0  0  0  0  0  0  0  0
  -11.1184  -14.8243    7.0365 N   0  0  0  0  0  0  0  0  0  0  0  0
  -10.9101  -14.6798    5.7297 C   0  0  0  0  0  0  0  0  0  0  0  0
  -11.0893  -13.4057    5.3874 N   0  0  0  0  0  0  0  0  0  0  0  0
  1  7  2  0  0  0  0
  1  2  1  0  0  0  0
  2  3  1  0  0  0  0
  2  4  2  0  0  0  0
  4  5  1  0  0  0  0
  5  6  2  0  0  0  0
  5 11  1  0  0  0  0
  6  7  1  0  0  0  0
  6  9  1  0  0  0  0
  7  8  1  0  0  0  0
  9 10  1  0  0  0  0
 10 11  2  0  0  0  0
M  END
>  <CHROM.1>
-11.61324680,-12.75190136,7.51914496,2.92454105,1.30561925,-0.82488175

>  <Name>
ligand

>  <RI>
0

>  <Rbt.Current_Directory>
/home/itssahil/PROJECTS/Mol_Feturizer/Test_systems_manuscript/rnas/2b57

>  <Rbt.Executable>
rbdock ($Id: //depot/dev/client3/rdock/2013.1/src/exe/rbdock.cxx#4 $)

>  <Rbt.Library>
libRbt.so (2013.1, Build901 2013/11/27)

>  <Rbt.Parameter_File>
/export/apps/rDock/src/rDock_2013.1_src/data/scripts/dock_solv.prm

>  <Rbt.Receptor>
prm/blind_docking_60.prm

>  <SCORE>
-8.80027

>  <SCORE.INTER>
-8.80027

>  <SCORE.INTER.CONST>
1

>  <SCORE.INTER.POLAR>
0

>  <SCORE.INTER.ROT>
0

>  <SCORE.INTER.SOLV>
20.1084

>  <SCORE.INTER.VDW>
-16.1696

>  <SCORE.INTER.norm>
-0.800025

>  <SCORE.INTRA>
0

>  <SCORE.INTRA.DIHEDRAL>
0

>  <SCORE.INTRA.DIHEDRAL.0>
0

>  <SCORE.INTRA.POLAR>
0

>  <SCORE.INTRA.POLAR.0>
0

>  <SCORE.INTRA.REPUL>
0

>  <SCORE.INTRA.REPUL.0>
0

>  <SCORE.INTRA.SOLV>
0

>  <SCORE.INTRA.SOLV.lig_0>
-48.3454

>  <SCORE.INTRA.VDW>
0

>  <SCORE.INTRA.VDW.0>
0

>  <SCORE.INTRA.norm>
0

>  <SCORE.RESTR>
0

>  <SCORE.RESTR.CAVITY>
0

>  <SCORE.RESTR.norm>
0

>  <SCORE.SYSTEM>
0

>  <SCORE.SYSTEM.CONST>
0

>  <SCORE.SYSTEM.DIHEDRAL>
0

>  <SCORE.SYSTEM.SOLV>
0

>  <SCORE.SYSTEM.norm>
0

>  <SCORE.heavy>
11

>  <SCORE.norm>
-0.800025

>  <RMSD>
2.776

$$$$
ligand
 OpenBabel02271912153D
libRbt.so/2013.1/901 2013/11/27
 11 12  0  0  0  0  0  0  0  0999 V2000
  -11.9876  -11.8613    9.0318 N   0  0  0  0  0  0  0  0  0  0  0  0
  -12.1429  -11.0502    7.9731 C   0  0  0  0  0  0  0  0  0  0  0  0
  -12.5395   -9.7939    8.1562 N   0  0  0  0  0  0  0  0  0  0  0  0
  -11.9112  -11.4989    6.7297 N   0  0  0  0  0  0  0  0  0  0  0  0
  -11.5236  -12.7656    6.5201 C   0  0  0  0  0  0  0  0  0  0  0  0
  -11.3555  -13.6258    7.5978 C   0  0  0  0  0  0  0  0  0  0  0  0
  -11.5992  -13.1369    8.8770 C   0  0  0  0  0  0  0  0  0  0  0  0
  -11.4413  -13.9231    9.9377 N   0  0  0  0  0  0  0  0  0  0  0  0
  -10.9868  -14.8077    7.1128 N   0  0  0  0  0  0  0  0  0  0  0  0
  -10.9243  -14.7024    5.7873 C   0  0  0  0  0  0  0  0  0  0  0  0
  -11.2489  -13.4639    5.4221 N   0  0  0  0  0  0  0  0  0  0  0  0
  1  7  2  0  0  0  0
  1  2  1  0  0  0  0
  2  3  1  0  0  0  0
  2  4  2  0  0  0  0
  4  5  1  0  0  0  0
  5  6  2  0  0  0  0
  5 11  1  0  0  0  0
  6  7  1  0  0  0  0
  6  9  1  0  0  0  0
  7  8  1  0  0  0  0
  9 10  1  0  0  0  0
 10 11  2  0  0  0  0
M  END
>  <CHROM.1>
-11.61221503,-12.76572159,7.57306936,-2.87859118,1.27709916,-1.32577304

>  <Name>
ligand

>  <RI>
0

>  <Rbt.Current_Directory>
/home/itssahil/PROJECTS/Mol_Feturizer/Test_systems_manuscript/rnas/2b57

>  <Rbt.Executable>
rbdock ($Id: //depot/dev/client3/rdock/2013.1/src/exe/rbdock.cxx#4 $)

>  <Rbt.Library>
libRbt.so (2013.1, Build901 2013/11/27)

>  <Rbt.Parameter_File>
/export/apps/rDock/src/rDock_2013.1_src/data/scripts/dock_solv.prm

>  <Rbt.Receptor>
prm/pocket_docking_3.prm

>  <SCORE>
-8.4521

>  <SCORE.INTER>
-8.4521

>  <SCORE.INTER.CONST>
1

>  <SCORE.INTER.POLAR>
0

>  <SCORE.INTER.ROT>
0

>  <SCORE.INTER.SOLV>
19.8642

>  <SCORE.INTER.VDW>
-15.8561

>  <SCORE.INTER.norm>
-0.768373

>  <SCORE.INTRA>
0

>  <SCORE.INTRA.DIHEDRAL>
0

>  <SCORE.INTRA.DIHEDRAL.0>
0

>  <SCORE.INTRA.POLAR>
0

>  <SCORE.INTRA.POLAR.0>
0

>  <SCORE.INTRA.REPUL>
0

>  <SCORE.INTRA.REPUL.0>
0

>  <SCORE.INTRA.SOLV>
0

>  <SCORE.INTRA.SOLV.lig_0>
-48.3454

>  <SCORE.INTRA.VDW>
0

>  <SCORE.INTRA.VDW.0>
0

>  <SCORE.INTRA.norm>
0

>  <SCORE.RESTR>
0

>  <SCORE.RESTR.CAVITY>
0

>  <SCORE.RESTR.norm>
0

>  <SCORE.SYSTEM>
0

>  <SCORE.SYSTEM.CONST>
0

>  <SCORE.SYSTEM.DIHEDRAL>
0

>  <SCORE.SYSTEM.SOLV>
0

>  <SCORE.SYSTEM.norm>
0

>  <SCORE.heavy>
11

>  <SCORE.norm>
-0.768373

>  <RMSD>
2.776

$$$$
ligand
 OpenBabel02271912153D
libRbt.so/2013.1/901 2013/11/27
 11 12  0  0  0  0  0  0  0  0999 V2000
  -12.0471  -11.8638    8.9805 N   0  0  0  0  0  0  0  0  0  0  0  0
  -12.0326  -11.0034    7.9499 C   0  0  0  0  0  0  0  0  0  0  0  0
  -12.3348   -9.7242    8.1531 N   0  0  0  0  0  0  0  0  0  0  0  0
  -11.7258  -11.4248    6.7132 N   0  0  0  0  0  0  0  0  0  0  0  0
  -11.4309  -12.7126    6.4822 C   0  0  0  0  0  0  0  0  0  0  0  0
  -11.4386  -13.6237    7.5308 C   0  0  0  0  0  0  0  0  0  0  0  0
  -11.7573  -13.1625    8.8038 C   0  0  0  0  0  0  0  0  0  0  0  0
  -11.7672  -13.9985    9.8378 N   0  0  0  0  0  0  0  0  0  0  0  0
  -11.1297  -14.8152    7.0279 N   0  0  0  0  0  0  0  0  0  0  0  0
  -10.9352  -14.6670    5.7194 C   0  0  0  0  0  0  0  0  0  0  0  0
  -11.1165  -13.3917    5.3828 N   0  0  0  0  0  0  0  0  0  0  0  0
  1  7  2  0  0  0  0
  1  2  1  0  0  0  0
  2  3  1  0  0  0  0
  2  4  2  0  0  0  0
  4  5  1  0  0  0  0
  5  6  2  0  0  0  0
  5 11  1  0  0  0  0
  6  7  1  0  0  0  0
  6  9  1  0  0  0  0
  7  8  1  0  0  0  0
  9 10  1  0  0  0  0
 10 11  2  0  0  0  0
M  END
>  <CHROM.1>
-11.61684816,-12.74369159,7.52194076,2.95208536,1.31364571,-0.84849664

>  <Name>
ligand

>  <RI>
0

>  <Rbt.Current_Directory>
/home/itssahil/PROJECTS/Mol_Feturizer/Test_systems_manuscript/rnas/2b57

>  <Rbt.Executable>
rbdock ($Id: //depot/dev/client3/rdock/2013.1/src/exe/rbdock.cxx#4 $)

>  <Rbt.Library>
libRbt.so (2013.1, Build901 2013/11/27)

>  <Rbt.Parameter_File>
/export/apps/rDock/src/rDock_2013.1_src/data/scripts/dock_solv.prm

>  <Rbt.Receptor>
prm/pocket_docking_6.prm

>  <SCORE>
-8.79573

>  <SCORE.INTER>
-8.79573

>  <SCORE.INTER.CONST>
1

>  <SCORE.INTER.POLAR>
0

>  <SCORE.INTER.ROT>
0

>  <SCORE.INTER.SOLV>
20.2038

>  <SCORE.INTER.VDW>
-16.1984

>  <SCORE.INTER.norm>
-0.799611

>  <SCORE.INTRA>
0

>  <SCORE.INTRA.DIHEDRAL>
0

>  <SCORE.INTRA.DIHEDRAL.0>
0

>  <SCORE.INTRA.POLAR>
0

>  <SCORE.INTRA.POLAR.0>
0

>  <SCORE.INTRA.REPUL>
0

>  <SCORE.INTRA.REPUL.0>
0

>  <SCORE.INTRA.SOLV>
0

>  <SCORE.INTRA.SOLV.lig_0>
-48.3454

>  <SCORE.INTRA.VDW>
0

>  <SCORE.INTRA.VDW.0>
0

>  <SCORE.INTRA.norm>
0

>  <SCORE.RESTR>
0

>  <SCORE.RESTR.CAVITY>
0

>  <SCORE.RESTR.norm>
0

>  <SCORE.SYSTEM>
0

>  <SCORE.SYSTEM.CONST>
0

>  <SCORE.SYSTEM.DIHEDRAL>
0

>  <SCORE.SYSTEM.SOLV>
0

>  <SCORE.SYSTEM.norm>
0

>  <SCORE.heavy>
11

>  <SCORE.norm>
-0.799611

>  <RMSD>
2.776

$$$$
ligand
 OpenBabel02271912153D
libRbt.so/2013.1/901 2013/11/27
 11 12  0  0  0  0  0  0  0  0999 V2000
  -12.0405  -11.8703    8.9764 N   0  0  0  0  0  0  0  0  0  0  0  0
  -12.0268  -11.0178    7.9392 C   0  0  0  0  0  0  0  0  0  0  0  0
  -12.3311   -9.7375    8.1326 N   0  0  0  0  0  0  0  0  0  0  0  0
  -11.7186  -11.4481    6.7060 N   0  0  0  0  0  0  0  0  0  0  0  0
  -11.4216  -12.7373    6.4850 C   0  0  0  0  0  0  0  0  0  0  0  0
  -11.4285  -13.6404    7.5405 C   0  0  0  0  0  0  0  0  0  0  0  0
  -11.7486  -13.1699    8.8098 C   0  0  0  0  0  0  0  0  0  0  0  0
  -11.7578  -13.9980    9.8501 N   0  0  0  0  0  0  0  0  0  0  0  0
  -11.1174  -14.8352    7.0469 N   0  0  0  0  0  0  0  0  0  0  0  0
  -10.9224  -14.6966    5.7374 C   0  0  0  0  0  0  0  0  0  0  0  0
  -11.1055  -13.4242    5.3910 N   0  0  0  0  0  0  0  0  0  0  0  0
  1  7  2  0  0  0  0
  1  2  1  0  0  0  0
  2  3  1  0  0  0  0
  2  4  2  0  0  0  0
  4  5  1  0  0  0  0
  5  6  2  0  0  0  0
  5 11  1  0  0  0  0
  6  7  1  0  0  0  0
  6  9  1  0  0  0  0
  7  8  1  0  0  0  0
  9 10  1  0  0  0  0
 10 11  2  0  0  0  0
M  END
>  <CHROM.1>
-11.60807898,-12.76068797,7.52484985,2.95445313,1.31211776,-0.85841905

>  <Name>
ligand

>  <RI>
0

>  <Rbt.Current_Directory>
/home/itssahil/PROJECTS/Mol_Feturizer/Test_systems_manuscript/rnas/2b57

>  <Rbt.Executable>
rbdock ($Id: //depot/dev/client3/rdock/2013.1/src/exe/rbdock.cxx#4 $)

>  <Rbt.Library>
libRbt.so (2013.1, Build901 2013/11/27)

>  <Rbt.Parameter_File>
/export/apps/rDock/src/rDock_2013.1_src/data/scripts/dock_solv.prm

>  <Rbt.Receptor>
prm/pocket_docking_7.prm

>  <SCORE>
-8.7619

>  <SCORE.INTER>
-8.7619

>  <SCORE.INTER.CONST>
1

>  <SCORE.INTER.POLAR>
0

>  <SCORE.INTER.ROT>
0

>  <SCORE.INTER.SOLV>
20.2015

>  <SCORE.INTER.VDW>
-16.1751

>  <SCORE.INTER.norm>
-0.796537

>  <SCORE.INTRA>
0

>  <SCORE.INTRA.DIHEDRAL>
0

>  <SCORE.INTRA.DIHEDRAL.0>
0

>  <SCORE.INTRA.POLAR>
0

>  <SCORE.INTRA.POLAR.0>
0

>  <SCORE.INTRA.REPUL>
0

>  <SCORE.INTRA.REPUL.0>
0

>  <SCORE.INTRA.SOLV>
0

>  <SCORE.INTRA.SOLV.lig_0>
-48.3454

>  <SCORE.INTRA.VDW>
0

>  <SCORE.INTRA.VDW.0>
0

>  <SCORE.INTRA.norm>
0

>  <SCORE.RESTR>
0

>  <SCORE.RESTR.CAVITY>
0

>  <SCORE.RESTR.norm>
0

>  <SCORE.SYSTEM>
0

>  <SCORE.SYSTEM.CONST>
0

>  <SCORE.SYSTEM.DIHEDRAL>
0

>  <SCORE.SYSTEM.SOLV>
0

>  <SCORE.SYSTEM.norm>
0

>  <SCORE.heavy>
11

>  <SCORE.norm>
-0.796537

>  <RMSD>
2.776

$$$$
ligand
 OpenBabel02271912153D
libRbt.so/2013.1/901 2013/11/27
 11 12  0  0  0  0  0  0  0  0999 V2000
  -12.0296  -11.8577    8.9810 N   0  0  0  0  0  0  0  0  0  0  0  0
  -12.0122  -10.9980    7.9498 C   0  0  0  0  0  0  0  0  0  0  0  0
  -12.3069   -9.7170    8.1527 N   0  0  0  0  0  0  0  0  0  0  0  0
  -11.7099  -11.4220    6.7128 N   0  0  0  0  0  0  0  0  0  0  0  0
  -11.4226  -12.7116    6.4822 C   0  0  0  0  0  0  0  0  0  0  0  0
  -11.4335  -13.6219    7.5314 C   0  0  0  0  0  0  0  0  0  0  0  0
  -11.7474  -13.1581    8.8047 C   0  0  0  0  0  0  0  0  0  0  0  0
  -11.7602  -13.9933    9.8393 N   0  0  0  0  0  0  0  0  0  0  0  0
  -11.1321  -14.8155    7.0288 N   0  0  0  0  0  0  0  0  0  0  0  0
  -10.9391  -14.6692    5.7199 C   0  0  0  0  0  0  0  0  0  0  0  0
  -11.1139  -13.3932    5.3828 N   0  0  0  0  0  0  0  0  0  0  0  0
  1  7  2  0  0  0  0
  1  2  1  0  0  0  0
  2  3  1  0  0  0  0
  2  4  2  0  0  0  0
  4  5  1  0  0  0  0
  5  6  2  0  0  0  0
  5 11  1  0  0  0  0
  6  7  1  0  0  0  0
  6  9  1  0  0  0  0
  7  8  1  0  0  0  0
  9 10  1  0  0  0  0
 10 11  2  0  0  0  0
M  END
>  <CHROM.1>
-11.60688675,-12.74093359,7.52232070,2.94259345,1.31896066,-0.83998210

>  <Name>
ligand

>  <RI>
0

>  <Rbt.Current_Directory>
/home/itssahil/PROJECTS/Mol_Feturizer/Test_systems_manuscript/rnas/2b57

>  <Rbt.Executable>
rbdock ($Id: //depot/dev/client3/rdock/2013.1/src/exe/rbdock.cxx#4 $)

>  <Rbt.Library>
libRbt.so (2013.1, Build901 2013/11/27)

>  <Rbt.Parameter_File>
/export/apps/rDock/src/rDock_2013.1_src/data/scripts/dock_solv.prm

>  <Rbt.Receptor>
prm/blind_docking_40.prm

>  <SCORE>
-8.79228

>  <SCORE.INTER>
-8.79228

>  <SCORE.INTER.CONST>
1

>  <SCORE.INTER.POLAR>
0

>  <SCORE.INTER.ROT>
0

>  <SCORE.INTER.SOLV>
20.3302

>  <SCORE.INTER.VDW>
-16.2383

>  <SCORE.INTER.norm>
-0.799299

>  <SCORE.INTRA>
0

>  <SCORE.INTRA.DIHEDRAL>
0

>  <SCORE.INTRA.DIHEDRAL.0>
0

>  <SCORE.INTRA.POLAR>
0

>  <SCORE.INTRA.POLAR.0>
0

>  <SCORE.INTRA.REPUL>
0

>  <SCORE.INTRA.REPUL.0>
0

>  <SCORE.INTRA.SOLV>
0

>  <SCORE.INTRA.SOLV.lig_0>
-48.3454

>  <SCORE.INTRA.VDW>
0

>  <SCORE.INTRA.VDW.0>
0

>  <SCORE.INTRA.norm>
0

>  <SCORE.RESTR>
0

>  <SCORE.RESTR.CAVITY>
0

>  <SCORE.RESTR.norm>
0

>  <SCORE.SYSTEM>
0

>  <SCORE.SYSTEM.CONST>
0

>  <SCORE.SYSTEM.DIHEDRAL>
0

>  <SCORE.SYSTEM.SOLV>
0

>  <SCORE.SYSTEM.norm>
0

>  <SCORE.heavy>
11

>  <SCORE.norm>
-0.799299

>  <RMSD>
2.777

$$$$
ligand
 OpenBabel02271912153D
libRbt.so/2013.1/901 2013/11/27
 11 12  0  0  0  0  0  0  0  0999 V2000
  -12.0390  -11.8641    8.9763 N   0  0  0  0  0  0  0  0  0  0  0  0
  -12.0249  -11.0119    7.9388 C   0  0  0  0  0  0  0  0  0  0  0  0
  -12.3272   -9.7312    8.1319 N   0  0  0  0  0  0  0  0  0  0  0  0
  -11.7183  -11.4432    6.7054 N   0  0  0  0  0  0  0  0  0  0  0  0
  -11.4234  -12.7328    6.4847 C   0  0  0  0  0  0  0  0  0  0  0  0
  -11.4308  -13.6355    7.5405 C   0  0  0  0  0  0  0  0  0  0  0  0
  -11.7491  -13.1642    8.8099 C   0  0  0  0  0  0  0  0  0  0  0  0
  -11.7588  -13.9918    9.8505 N   0  0  0  0  0  0  0  0  0  0  0  0
  -11.1218  -14.8309    7.0471 N   0  0  0  0  0  0  0  0  0  0  0  0
  -10.9276  -14.6932    5.7374 C   0  0  0  0  0  0  0  0  0  0  0  0
  -11.1091  -13.4206    5.3907 N   0  0  0  0  0  0  0  0  0  0  0  0
  1  7  2  0  0  0  0
  1  2  1  0  0  0  0
  2  3  1  0  0  0  0
  2  4  2  0  0  0  0
  4  5  1  0  0  0  0
  5  6  2  0  0  0  0
  5 11  1  0  0  0  0
  6  7  1  0  0  0  0
  6  9  1  0  0  0  0
  7  8  1  0  0  0  0
  9 10  1  0  0  0  0
 10 11  2  0  0  0  0
M  END
>  <CHROM.1>
-11.60907841,-12.75556947,7.52469918,2.95303827,1.31371987,-0.85741516

>  <Name>
ligand

>  <RI>
0

>  <Rbt.Current_Directory>
/home/itssahil/PROJECTS/Mol_Feturizer/Test_systems_manuscript/rnas/2b57

>  <Rbt.Executable>
rbdock ($Id: //depot/dev/client3/rdock/2013.1/src/exe/rbdock.cxx#4 $)

>  <Rbt.Library>
libRbt.so (2013.1, Build901 2013/11/27)

>  <Rbt.Parameter_File>
/export/apps/rDock/src/rDock_2013.1_src/data/scripts/dock_solv.prm

>  <Rbt.Receptor>
prm/blind_docking_60.prm

>  <SCORE>
-8.76548

>  <SCORE.INTER>
-8.76548

>  <SCORE.INTER.CONST>
1

>  <SCORE.INTER.POLAR>
0

>  <SCORE.INTER.ROT>
0

>  <SCORE.INTER.SOLV>
20.2035

>  <SCORE.INTER.VDW>
-16.1781

>  <SCORE.INTER.norm>
-0.796861

>  <SCORE.INTRA>
0

>  <SCORE.INTRA.DIHEDRAL>
0

>  <SCORE.INTRA.DIHEDRAL.0>
0

>  <SCORE.INTRA.POLAR>
0

>  <SCORE.INTRA.POLAR.0>
0

>  <SCORE.INTRA.REPUL>
0

>  <SCORE.INTRA.REPUL.0>
0

>  <SCORE.INTRA.SOLV>
0

>  <SCORE.INTRA.SOLV.lig_0>
-48.3454

>  <SCORE.INTRA.VDW>
0

>  <SCORE.INTRA.VDW.0>
0

>  <SCORE.INTRA.norm>
0

>  <SCORE.RESTR>
0

>  <SCORE.RESTR.CAVITY>
0

>  <SCORE.RESTR.norm>
0

>  <SCORE.SYSTEM>
0

>  <SCORE.SYSTEM.CONST>
0

>  <SCORE.SYSTEM.DIHEDRAL>
0

>  <SCORE.SYSTEM.SOLV>
0

>  <SCORE.SYSTEM.norm>
0

>  <SCORE.heavy>
11

>  <SCORE.norm>
-0.796861

>  <RMSD>
2.777

$$$$
ligand
 OpenBabel02271912153D
libRbt.so/2013.1/901 2013/11/27
 11 12  0  0  0  0  0  0  0  0999 V2000
  -12.0492  -11.8703    8.9777 N   0  0  0  0  0  0  0  0  0  0  0  0
  -12.0517  -11.0241    7.9352 C   0  0  0  0  0  0  0  0  0  0  0  0
  -12.3684   -9.7461    8.1228 N   0  0  0  0  0  0  0  0  0  0  0  0
  -11.7473  -11.4588    6.7026 N   0  0  0  0  0  0  0  0  0  0  0  0
  -11.4380  -12.7461    6.4875 C   0  0  0  0  0  0  0  0  0  0  0  0
  -11.4280  -13.6426    7.5485 C   0  0  0  0  0  0  0  0  0  0  0  0
  -11.7445  -13.1677    8.8171 C   0  0  0  0  0  0  0  0  0  0  0  0
  -11.7378  -13.9894    9.8625 N   0  0  0  0  0  0  0  0  0  0  0  0
  -11.1075  -14.8371    7.0602 N   0  0  0  0  0  0  0  0  0  0  0  0
  -10.9229  -14.7046    5.7485 C   0  0  0  0  0  0  0  0  0  0  0  0
  -11.1220  -13.4364    5.3956 N   0  0  0  0  0  0  0  0  0  0  0  0
  1  7  2  0  0  0  0
  1  2  1  0  0  0  0
  2  3  1  0  0  0  0
  2  4  2  0  0  0  0
  4  5  1  0  0  0  0
  5  6  2  0  0  0  0
  5 11  1  0  0  0  0
  6  7  1  0  0  0  0
  6  9  1  0  0  0  0
  7  8  1  0  0  0  0
  9 10  1  0  0  0  0
 10 11  2  0  0  0  0
M  END
>  <CHROM.1>
-11.61716118,-12.76501535,7.52872731,3.00125313,1.30815613,-0.90982547

>  <Name>
ligand

>  <RI>
0

>  <Rbt.Current_Directory>
/home/itssahil/PROJECTS/Mol_Feturizer/Test_systems_manuscript/rnas/2b57

>  <Rbt.Executable>
rbdock ($Id: //depot/dev/client3/rdock/2013.1/src/exe/rbdock.cxx#4 $)

>  <Rbt.Library>
libRbt.so (2013.1, Build901 2013/11/27)

>  <Rbt.Parameter_File>
/export/apps/rDock/src/rDock_2013.1_src/data/scripts/dock_solv.prm

>  <Rbt.Receptor>
prm/pocket_docking_5.prm

>  <SCORE>
-8.72549

>  <SCORE.INTER>
-8.72549

>  <SCORE.INTER.CONST>
1

>  <SCORE.INTER.POLAR>
0

>  <SCORE.INTER.ROT>
0

>  <SCORE.INTER.SOLV>
20.0265

>  <SCORE.INTER.VDW>
-16.0925

>  <SCORE.INTER.norm>
-0.793226

>  <SCORE.INTRA>
0

>  <SCORE.INTRA.DIHEDRAL>
0

>  <SCORE.INTRA.DIHEDRAL.0>
0

>  <SCORE.INTRA.POLAR>
0

>  <SCORE.INTRA.POLAR.0>
0

>  <SCORE.INTRA.REPUL>
0

>  <SCORE.INTRA.REPUL.0>
0

>  <SCORE.INTRA.SOLV>
0

>  <SCORE.INTRA.SOLV.lig_0>
-48.3454

>  <SCORE.INTRA.VDW>
0

>  <SCORE.INTRA.VDW.0>
0

>  <SCORE.INTRA.norm>
0

>  <SCORE.RESTR>
0

>  <SCORE.RESTR.CAVITY>
0

>  <SCORE.RESTR.norm>
0

>  <SCORE.SYSTEM>
0

>  <SCORE.SYSTEM.CONST>
0

>  <SCORE.SYSTEM.DIHEDRAL>
0

>  <SCORE.SYSTEM.SOLV>
0

>  <SCORE.SYSTEM.norm>
0

>  <SCORE.heavy>
11

>  <SCORE.norm>
-0.793226

>  <RMSD>
2.777

$$$$
ligand
 OpenBabel02271912153D
libRbt.so/2013.1/901 2013/11/27
 11 12  0  0  0  0  0  0  0  0999 V2000
  -12.0488  -11.8637    8.9766 N   0  0  0  0  0  0  0  0  0  0  0  0
  -12.0325  -11.0145    7.9368 C   0  0  0  0  0  0  0  0  0  0  0  0
  -12.3400   -9.7342    8.1248 N   0  0  0  0  0  0  0  0  0  0  0  0
  -11.7185  -11.4481    6.7061 N   0  0  0  0  0  0  0  0  0  0  0  0
  -11.4182  -12.7374    6.4905 C   0  0  0  0  0  0  0  0  0  0  0  0
  -11.4276  -13.6371    7.5488 C   0  0  0  0  0  0  0  0  0  0  0  0
  -11.7537  -13.1633    8.8153 C   0  0  0  0  0  0  0  0  0  0  0  0
  -11.7656  -13.9881    9.8582 N   0  0  0  0  0  0  0  0  0  0  0  0
  -11.1123  -14.8329    7.0603 N   0  0  0  0  0  0  0  0  0  0  0  0
  -10.9122  -14.6982    5.7511 C   0  0  0  0  0  0  0  0  0  0  0  0
  -11.0964  -13.4273    5.4000 N   0  0  0  0  0  0  0  0  0  0  0  0
  1  7  2  0  0  0  0
  1  2  1  0  0  0  0
  2  3  1  0  0  0  0
  2  4  2  0  0  0  0
  4  5  1  0  0  0  0
  5  6  2  0  0  0  0
  5 11  1  0  0  0  0
  6  7  1  0  0  0  0
  6  9  1  0  0  0  0
  7  8  1  0  0  0  0
  9 10  1  0  0  0  0
 10 11  2  0  0  0  0
M  END
>  <CHROM.1>
-11.60880996,-12.75787512,7.52963785,2.94742372,1.30802729,-0.85481224

>  <Name>
ligand

>  <RI>
0

>  <Rbt.Current_Directory>
/home/itssahil/PROJECTS/Mol_Feturizer/Test_systems_manuscript/rnas/2b57

>  <Rbt.Executable>
rbdock ($Id: //depot/dev/client3/rdock/2013.1/src/exe/rbdock.cxx#4 $)

>  <Rbt.Library>
libRbt.so (2013.1, Build901 2013/11/27)

>  <Rbt.Parameter_File>
/export/apps/rDock/src/rDock_2013.1_src/data/scripts/dock_solv.prm

>  <Rbt.Receptor>
prm/pocket_docking_6.prm

>  <SCORE>
-8.77114

>  <SCORE.INTER>
-8.77114

>  <SCORE.INTER.CONST>
1

>  <SCORE.INTER.POLAR>
0

>  <SCORE.INTER.ROT>
0

>  <SCORE.INTER.SOLV>
20.1211

>  <SCORE.INTER.VDW>
-16.1545

>  <SCORE.INTER.norm>
-0.797377

>  <SCORE.INTRA>
0

>  <SCORE.INTRA.DIHEDRAL>
0

>  <SCORE.INTRA.DIHEDRAL.0>
0

>  <SCORE.INTRA.POLAR>
0

>  <SCORE.INTRA.POLAR.0>
0

>  <SCORE.INTRA.REPUL>
0

>  <SCORE.INTRA.REPUL.0>
0

>  <SCORE.INTRA.SOLV>
0

>  <SCORE.INTRA.SOLV.lig_0>
-48.3454

>  <SCORE.INTRA.VDW>
0

>  <SCORE.INTRA.VDW.0>
0

>  <SCORE.INTRA.norm>
0

>  <SCORE.RESTR>
0

>  <SCORE.RESTR.CAVITY>
0

>  <SCORE.RESTR.norm>
0

>  <SCORE.SYSTEM>
0

>  <SCORE.SYSTEM.CONST>
0

>  <SCORE.SYSTEM.DIHEDRAL>
0

>  <SCORE.SYSTEM.SOLV>
0

>  <SCORE.SYSTEM.norm>
0

>  <SCORE.heavy>
11

>  <SCORE.norm>
-0.797377

>  <RMSD>
2.777

$$$$
ligand
 OpenBabel02271912153D
libRbt.so/2013.1/901 2013/11/27
 11 12  0  0  0  0  0  0  0  0999 V2000
  -12.0455  -11.8611    8.9770 N   0  0  0  0  0  0  0  0  0  0  0  0
  -12.0277  -11.0079    7.9404 C   0  0  0  0  0  0  0  0  0  0  0  0
  -12.3384   -9.7290    8.1322 N   0  0  0  0  0  0  0  0  0  0  0  0
  -11.7090  -11.4364    6.7092 N   0  0  0  0  0  0  0  0  0  0  0  0
  -11.4053  -12.7242    6.4897 C   0  0  0  0  0  0  0  0  0  0  0  0
  -11.4162  -13.6279    7.5446 C   0  0  0  0  0  0  0  0  0  0  0  0
  -11.7473  -13.1594    8.8118 C   0  0  0  0  0  0  0  0  0  0  0  0
  -11.7607  -13.9881    9.8516 N   0  0  0  0  0  0  0  0  0  0  0  0
  -11.0969  -14.8212    7.0526 N   0  0  0  0  0  0  0  0  0  0  0  0
  -10.8930  -14.6812    5.7446 C   0  0  0  0  0  0  0  0  0  0  0  0
  -11.0786  -13.4093    5.3976 N   0  0  0  0  0  0  0  0  0  0  0  0
  1  7  2  0  0  0  0
  1  2  1  0  0  0  0
  2  3  1  0  0  0  0
  2  4  2  0  0  0  0
  4  5  1  0  0  0  0
  5  6  2  0  0  0  0
  5 11  1  0  0  0  0
  6  7  1  0  0  0  0
  6  9  1  0  0  0  0
  7  8  1  0  0  0  0
  9 10  1  0  0  0  0
 10 11  2  0  0  0  0
M  END
>  <CHROM.1>
-11.59916035,-12.74892458,7.52811403,2.94357881,1.30440785,-0.84737788

>  <Name>
ligand

>  <RI>
0

>  <Rbt.Current_Directory>
/home/itssahil/PROJECTS/Mol_Feturizer/Test_systems_manuscript/rnas/2b57

>  <Rbt.Executable>
rbdock ($Id: //depot/dev/client3/rdock/2013.1/src/exe/rbdock.cxx#4 $)

>  <Rbt.Library>
libRbt.so (2013.1, Build901 2013/11/27)

>  <Rbt.Parameter_File>
/export/apps/rDock/src/rDock_2013.1_src/data/scripts/dock_solv.prm

>  <Rbt.Receptor>
prm/pocket_docking_8.prm

>  <SCORE>
-8.79358

>  <SCORE.INTER>
-8.79358

>  <SCORE.INTER.CONST>
1

>  <SCORE.INTER.POLAR>
0

>  <SCORE.INTER.ROT>
0

>  <SCORE.INTER.SOLV>
20.1307

>  <SCORE.INTER.VDW>
-16.1726

>  <SCORE.INTER.norm>
-0.799416

>  <SCORE.INTRA>
0

>  <SCORE.INTRA.DIHEDRAL>
0

>  <SCORE.INTRA.DIHEDRAL.0>
0

>  <SCORE.INTRA.POLAR>
0

>  <SCORE.INTRA.POLAR.0>
0

>  <SCORE.INTRA.REPUL>
0

>  <SCORE.INTRA.REPUL.0>
0

>  <SCORE.INTRA.SOLV>
0

>  <SCORE.INTRA.SOLV.lig_0>
-48.3454

>  <SCORE.INTRA.VDW>
0

>  <SCORE.INTRA.VDW.0>
0

>  <SCORE.INTRA.norm>
0

>  <SCORE.RESTR>
0

>  <SCORE.RESTR.CAVITY>
0

>  <SCORE.RESTR.norm>
0

>  <SCORE.SYSTEM>
0

>  <SCORE.SYSTEM.CONST>
0

>  <SCORE.SYSTEM.DIHEDRAL>
0

>  <SCORE.SYSTEM.SOLV>
0

>  <SCORE.SYSTEM.norm>
0

>  <SCORE.heavy>
11

>  <SCORE.norm>
-0.799416

>  <RMSD>
2.777

$$$$
ligand
 OpenBabel02271912153D
libRbt.so/2013.1/901 2013/11/27
 11 12  0  0  0  0  0  0  0  0999 V2000
  -12.0452  -11.8600    8.9755 N   0  0  0  0  0  0  0  0  0  0  0  0
  -12.0340  -11.0054    7.9401 C   0  0  0  0  0  0  0  0  0  0  0  0
  -12.3452   -9.7271    8.1354 N   0  0  0  0  0  0  0  0  0  0  0  0
  -11.7215  -11.4317    6.7065 N   0  0  0  0  0  0  0  0  0  0  0  0
  -11.4175  -12.7189    6.4835 C   0  0  0  0  0  0  0  0  0  0  0  0
  -11.4217  -13.6241    7.5372 C   0  0  0  0  0  0  0  0  0  0  0  0
  -11.7464  -13.1578    8.8068 C   0  0  0  0  0  0  0  0  0  0  0  0
  -11.7533  -13.9880    9.8455 N   0  0  0  0  0  0  0  0  0  0  0  0
  -11.1037  -14.8163    7.0418 N   0  0  0  0  0  0  0  0  0  0  0  0
  -10.9071  -14.6742    5.7329 C   0  0  0  0  0  0  0  0  0  0  0  0
  -11.0960  -13.4020    5.3887 N   0  0  0  0  0  0  0  0  0  0  0  0
  1  7  2  0  0  0  0
  1  2  1  0  0  0  0
  2  3  1  0  0  0  0
  2  4  2  0  0  0  0
  4  5  1  0  0  0  0
  5  6  2  0  0  0  0
  5 11  1  0  0  0  0
  6  7  1  0  0  0  0
  6  9  1  0  0  0  0
  7  8  1  0  0  0  0
  9 10  1  0  0  0  0
 10 11  2  0  0  0  0
M  END
>  <CHROM.1>
-11.60575532,-12.74529493,7.52297860,2.96202124,1.30709911,-0.86374349

>  <Name>
ligand

>  <RI>
0

>  <Rbt.Current_Directory>
/home/itssahil/PROJECTS/Mol_Feturizer/Test_systems_manuscript/rnas/2b57

>  <Rbt.Executable>
rbdock ($Id: //depot/dev/client3/rdock/2013.1/src/exe/rbdock.cxx#4 $)

>  <Rbt.Library>
libRbt.so (2013.1, Build901 2013/11/27)

>  <Rbt.Parameter_File>
/export/apps/rDock/src/rDock_2013.1_src/data/scripts/dock_solv.prm

>  <Rbt.Receptor>
prm/pocket_docking_8.prm

>  <SCORE>
-8.77361

>  <SCORE.INTER>
-8.77361

>  <SCORE.INTER.CONST>
1

>  <SCORE.INTER.POLAR>
0

>  <SCORE.INTER.ROT>
0

>  <SCORE.INTER.SOLV>
20.1042

>  <SCORE.INTER.VDW>
-16.1505

>  <SCORE.INTER.norm>
-0.797601

>  <SCORE.INTRA>
0

>  <SCORE.INTRA.DIHEDRAL>
0

>  <SCORE.INTRA.DIHEDRAL.0>
0

>  <SCORE.INTRA.POLAR>
0

>  <SCORE.INTRA.POLAR.0>
0

>  <SCORE.INTRA.REPUL>
0

>  <SCORE.INTRA.REPUL.0>
0

>  <SCORE.INTRA.SOLV>
0

>  <SCORE.INTRA.SOLV.lig_0>
-48.3454

>  <SCORE.INTRA.VDW>
0

>  <SCORE.INTRA.VDW.0>
0

>  <SCORE.INTRA.norm>
0

>  <SCORE.RESTR>
0

>  <SCORE.RESTR.CAVITY>
0

>  <SCORE.RESTR.norm>
0

>  <SCORE.SYSTEM>
0

>  <SCORE.SYSTEM.CONST>
0

>  <SCORE.SYSTEM.DIHEDRAL>
0

>  <SCORE.SYSTEM.SOLV>
0

>  <SCORE.SYSTEM.norm>
0

>  <SCORE.heavy>
11

>  <SCORE.norm>
-0.797601

>  <RMSD>
2.777

$$$$
ligand
 OpenBabel02271912153D
libRbt.so/2013.1/901 2013/11/27
 11 12  0  0  0  0  0  0  0  0999 V2000
  -11.9233  -11.8723    8.9816 N   0  0  0  0  0  0  0  0  0  0  0  0
  -11.9781  -11.0262    7.9406 C   0  0  0  0  0  0  0  0  0  0  0  0
  -12.2818   -9.7474    8.1441 N   0  0  0  0  0  0  0  0  0  0  0  0
  -11.7392  -11.4616    6.6938 N   0  0  0  0  0  0  0  0  0  0  0  0
  -11.4443  -12.7496    6.4631 C   0  0  0  0  0  0  0  0  0  0  0  0
  -11.3812  -13.6461    7.5224 C   0  0  0  0  0  0  0  0  0  0  0  0
  -11.6303  -13.1705    8.8055 C   0  0  0  0  0  0  0  0  0  0  0  0
  -11.5710  -13.9920    9.8494 N   0  0  0  0  0  0  0  0  0  0  0  0
  -11.0891  -14.8412    7.0182 N   0  0  0  0  0  0  0  0  0  0  0  0
  -10.9727  -14.7093    5.6987 C   0  0  0  0  0  0  0  0  0  0  0  0
  -11.1870  -13.4406    5.3564 N   0  0  0  0  0  0  0  0  0  0  0  0
  1  7  2  0  0  0  0
  1  2  1  0  0  0  0
  2  3  1  0  0  0  0
  2  4  2  0  0  0  0
  4  5  1  0  0  0  0
  5  6  2  0  0  0  0
  5 11  1  0  0  0  0
  6  7  1  0  0  0  0
  6  9  1  0  0  0  0
  7  8  1  0  0  0  0
  9 10  1  0  0  0  0
 10 11  2  0  0  0  0
M  END
>  <CHROM.1>
-11.56914755,-12.76805657,7.51227082,-3.10873295,1.33849618,-1.07788711

>  <Name>
ligand

>  <RI>
0

>  <Rbt.Current_Directory>
/home/itssahil/PROJECTS/Mol_Feturizer/Test_systems_manuscript/rnas/2b57

>  <Rbt.Executable>
rbdock ($Id: //depot/dev/client3/rdock/2013.1/src/exe/rbdock.cxx#4 $)

>  <Rbt.Library>
libRbt.so (2013.1, Build901 2013/11/27)

>  <Rbt.Parameter_File>
/export/apps/rDock/src/rDock_2013.1_src/data/scripts/dock_solv.prm

>  <Rbt.Receptor>
prm/pocket_docking_8.prm

>  <SCORE>
-8.74286

>  <SCORE.INTER>
-8.74286

>  <SCORE.INTER.CONST>
1

>  <SCORE.INTER.POLAR>
0

>  <SCORE.INTER.ROT>
0

>  <SCORE.INTER.SOLV>
20.6625

>  <SCORE.INTER.VDW>
-16.3161

>  <SCORE.INTER.norm>
-0.794805

>  <SCORE.INTRA>
0

>  <SCORE.INTRA.DIHEDRAL>
0

>  <SCORE.INTRA.DIHEDRAL.0>
0

>  <SCORE.INTRA.POLAR>
0

>  <SCORE.INTRA.POLAR.0>
0

>  <SCORE.INTRA.REPUL>
0

>  <SCORE.INTRA.REPUL.0>
0

>  <SCORE.INTRA.SOLV>
0

>  <SCORE.INTRA.SOLV.lig_0>
-48.3454

>  <SCORE.INTRA.VDW>
0

>  <SCORE.INTRA.VDW.0>
0

>  <SCORE.INTRA.norm>
0

>  <SCORE.RESTR>
0

>  <SCORE.RESTR.CAVITY>
0

>  <SCORE.RESTR.norm>
0

>  <SCORE.SYSTEM>
0

>  <SCORE.SYSTEM.CONST>
0

>  <SCORE.SYSTEM.DIHEDRAL>
0

>  <SCORE.SYSTEM.SOLV>
0

>  <SCORE.SYSTEM.norm>
0

>  <SCORE.heavy>
11

>  <SCORE.norm>
-0.794805

>  <RMSD>
2.778

$$$$
ligand
 OpenBabel02271912153D
libRbt.so/2013.1/901 2013/11/27
 11 12  0  0  0  0  0  0  0  0999 V2000
  -12.0634  -11.8395    8.9810 N   0  0  0  0  0  0  0  0  0  0  0  0
  -12.0453  -10.9841    7.9463 C   0  0  0  0  0  0  0  0  0  0  0  0
  -12.3489   -9.7041    8.1423 N   0  0  0  0  0  0  0  0  0  0  0  0
  -11.7334  -11.4113    6.7129 N   0  0  0  0  0  0  0  0  0  0  0  0
  -11.4370  -12.7001    6.4893 C   0  0  0  0  0  0  0  0  0  0  0  0
  -11.4484  -13.6061    7.5422 C   0  0  0  0  0  0  0  0  0  0  0  0
  -11.7722  -13.1390    8.8117 C   0  0  0  0  0  0  0  0  0  0  0  0
  -11.7858  -13.9699    9.8497 N   0  0  0  0  0  0  0  0  0  0  0  0
  -11.1368  -14.7999    7.0463 N   0  0  0  0  0  0  0  0  0  0  0  0
  -10.9373  -14.6579    5.7379 C   0  0  0  0  0  0  0  0  0  0  0  0
  -11.1179  -13.3843    5.3945 N   0  0  0  0  0  0  0  0  0  0  0  0
  1  7  2  0  0  0  0
  1  2  1  0  0  0  0
  2  3  1  0  0  0  0
  2  4  2  0  0  0  0
  4  5  1  0  0  0  0
  5  6  2  0  0  0  0
  5 11  1  0  0  0  0
  6  7  1  0  0  0  0
  6  9  1  0  0  0  0
  7  8  1  0  0  0  0
  9 10  1  0  0  0  0
 10 11  2  0  0  0  0
M  END
>  <CHROM.1>
-11.62700010,-12.72623019,7.52845779,2.94194968,1.31066509,-0.84351939

>  <Name>
ligand

>  <RI>
0

>  <Rbt.Current_Directory>
/home/itssahil/PROJECTS/Mol_Feturizer/Test_systems_manuscript/rnas/2b57

>  <Rbt.Executable>
rbdock ($Id: //depot/dev/client3/rdock/2013.1/src/exe/rbdock.cxx#4 $)

>  <Rbt.Library>
libRbt.so (2013.1, Build901 2013/11/27)

>  <Rbt.Parameter_File>
/export/apps/rDock/src/rDock_2013.1_src/data/scripts/dock_solv.prm

>  <Rbt.Receptor>
prm/blind_docking_100.prm

>  <SCORE>
-8.80899

>  <SCORE.INTER>
-8.80899

>  <SCORE.INTER.CONST>
1

>  <SCORE.INTER.POLAR>
0

>  <SCORE.INTER.ROT>
0

>  <SCORE.INTER.SOLV>
20.0439

>  <SCORE.INTER.VDW>
-16.1539

>  <SCORE.INTER.norm>
-0.800817

>  <SCORE.INTRA>
0

>  <SCORE.INTRA.DIHEDRAL>
0

>  <SCORE.INTRA.DIHEDRAL.0>
0

>  <SCORE.INTRA.POLAR>
0

>  <SCORE.INTRA.POLAR.0>
0

>  <SCORE.INTRA.REPUL>
0

>  <SCORE.INTRA.REPUL.0>
0

>  <SCORE.INTRA.SOLV>
0

>  <SCORE.INTRA.SOLV.lig_0>
-48.3454

>  <SCORE.INTRA.VDW>
0

>  <SCORE.INTRA.VDW.0>
0

>  <SCORE.INTRA.norm>
0

>  <SCORE.RESTR>
0

>  <SCORE.RESTR.CAVITY>
0

>  <SCORE.RESTR.norm>
0

>  <SCORE.SYSTEM>
0

>  <SCORE.SYSTEM.CONST>
0

>  <SCORE.SYSTEM.DIHEDRAL>
0

>  <SCORE.SYSTEM.SOLV>
0

>  <SCORE.SYSTEM.norm>
0

>  <SCORE.heavy>
11

>  <SCORE.norm>
-0.800817

>  <RMSD>
2.780

$$$$
ligand
 OpenBabel02271912153D
libRbt.so/2013.1/901 2013/11/27
 11 12  0  0  0  0  0  0  0  0999 V2000
  -11.9526  -11.8510    8.9855 N   0  0  0  0  0  0  0  0  0  0  0  0
  -11.9720  -11.0039    7.9440 C   0  0  0  0  0  0  0  0  0  0  0  0
  -12.2589   -9.7204    8.1418 N   0  0  0  0  0  0  0  0  0  0  0  0
  -11.7142  -11.4429    6.7022 N   0  0  0  0  0  0  0  0  0  0  0  0
  -11.4356  -12.7355    6.4771 C   0  0  0  0  0  0  0  0  0  0  0  0
  -11.4092  -13.6330    7.5369 C   0  0  0  0  0  0  0  0  0  0  0  0
  -11.6771  -13.1537    8.8149 C   0  0  0  0  0  0  0  0  0  0  0  0
  -11.6530  -13.9763    9.8593 N   0  0  0  0  0  0  0  0  0  0  0  0
  -11.1261  -14.8327    7.0383 N   0  0  0  0  0  0  0  0  0  0  0  0
  -10.9801  -14.7024    5.7216 C   0  0  0  0  0  0  0  0  0  0  0  0
  -11.1666  -13.4305    5.3756 N   0  0  0  0  0  0  0  0  0  0  0  0
  1  7  2  0  0  0  0
  1  2  1  0  0  0  0
  2  3  1  0  0  0  0
  2  4  2  0  0  0  0
  4  5  1  0  0  0  0
  5  6  2  0  0  0  0
  5 11  1  0  0  0  0
  6  7  1  0  0  0  0
  6  9  1  0  0  0  0
  7  8  1  0  0  0  0
  9 10  1  0  0  0  0
 10 11  2  0  0  0  0
M  END
>  <CHROM.1>
-11.58254362,-12.75208927,7.52338725,3.05965306,1.34152208,-0.96579028

>  <Name>
ligand

>  <RI>
0

>  <Rbt.Current_Directory>
/home/itssahil/PROJECTS/Mol_Feturizer/Test_systems_manuscript/rnas/2b57

>  <Rbt.Executable>
rbdock ($Id: //depot/dev/client3/rdock/2013.1/src/exe/rbdock.cxx#4 $)

>  <Rbt.Library>
libRbt.so (2013.1, Build901 2013/11/27)

>  <Rbt.Parameter_File>
/export/apps/rDock/src/rDock_2013.1_src/data/scripts/dock_solv.prm

>  <Rbt.Receptor>
prm/blind_docking_100.prm

>  <SCORE>
-8.81892

>  <SCORE.INTER>
-8.81892

>  <SCORE.INTER.CONST>
1

>  <SCORE.INTER.POLAR>
0

>  <SCORE.INTER.ROT>
0

>  <SCORE.INTER.SOLV>
20.6735

>  <SCORE.INTER.VDW>
-16.3704

>  <SCORE.INTER.norm>
-0.80172

>  <SCORE.INTRA>
0

>  <SCORE.INTRA.DIHEDRAL>
0

>  <SCORE.INTRA.DIHEDRAL.0>
0

>  <SCORE.INTRA.POLAR>
0

>  <SCORE.INTRA.POLAR.0>
0

>  <SCORE.INTRA.REPUL>
0

>  <SCORE.INTRA.REPUL.0>
0

>  <SCORE.INTRA.SOLV>
0

>  <SCORE.INTRA.SOLV.lig_0>
-48.3454

>  <SCORE.INTRA.VDW>
0

>  <SCORE.INTRA.VDW.0>
0

>  <SCORE.INTRA.norm>
0

>  <SCORE.RESTR>
0

>  <SCORE.RESTR.CAVITY>
0

>  <SCORE.RESTR.norm>
0

>  <SCORE.SYSTEM>
0

>  <SCORE.SYSTEM.CONST>
0

>  <SCORE.SYSTEM.DIHEDRAL>
0

>  <SCORE.SYSTEM.SOLV>
0

>  <SCORE.SYSTEM.norm>
0

>  <SCORE.heavy>
11

>  <SCORE.norm>
-0.80172

>  <RMSD>
2.780

$$$$
ligand
 OpenBabel02271912153D
libRbt.so/2013.1/901 2013/11/27
 11 12  0  0  0  0  0  0  0  0999 V2000
  -12.0661  -11.8364    8.9782 N   0  0  0  0  0  0  0  0  0  0  0  0
  -12.0434  -10.9816    7.9431 C   0  0  0  0  0  0  0  0  0  0  0  0
  -12.3440   -9.7007    8.1377 N   0  0  0  0  0  0  0  0  0  0  0  0
  -11.7300  -11.4103    6.7106 N   0  0  0  0  0  0  0  0  0  0  0  0
  -11.4365  -12.7000    6.4883 C   0  0  0  0  0  0  0  0  0  0  0  0
  -11.4526  -13.6055    7.5417 C   0  0  0  0  0  0  0  0  0  0  0  0
  -11.7780  -13.1367    8.8102 C   0  0  0  0  0  0  0  0  0  0  0  0
  -11.7961  -13.9671    9.8486 N   0  0  0  0  0  0  0  0  0  0  0  0
  -11.1432  -14.8003    7.0471 N   0  0  0  0  0  0  0  0  0  0  0  0
  -10.9404  -14.6595    5.7390 C   0  0  0  0  0  0  0  0  0  0  0  0
  -11.1169  -13.3857    5.3945 N   0  0  0  0  0  0  0  0  0  0  0  0
  1  7  2  0  0  0  0
  1  2  1  0  0  0  0
  2  3  1  0  0  0  0
  2  4  2  0  0  0  0
  4  5  1  0  0  0  0
  5  6  2  0  0  0  0
  5 11  1  0  0  0  0
  6  7  1  0  0  0  0
  6  9  1  0  0  0  0
  7  8  1  0  0  0  0
  9 10  1  0  0  0  0
 10 11  2  0  0  0  0
M  END
>  <CHROM.1>
-11.62887318,-12.72508629,7.52705688,2.92855736,1.31118585,-0.83110716

>  <Name>
ligand

>  <RI>
0

>  <Rbt.Current_Directory>
/home/itssahil/PROJECTS/Mol_Feturizer/Test_systems_manuscript/rnas/2b57

>  <Rbt.Executable>
rbdock ($Id: //depot/dev/client3/rdock/2013.1/src/exe/rbdock.cxx#4 $)

>  <Rbt.Library>
libRbt.so (2013.1, Build901 2013/11/27)

>  <Rbt.Parameter_File>
/export/apps/rDock/src/rDock_2013.1_src/data/scripts/dock_solv.prm

>  <Rbt.Receptor>
prm/blind_docking_40.prm

>  <SCORE>
-8.81415

>  <SCORE.INTER>
-8.81415

>  <SCORE.INTER.CONST>
1

>  <SCORE.INTER.POLAR>
0

>  <SCORE.INTER.ROT>
0

>  <SCORE.INTER.SOLV>
20.0405

>  <SCORE.INTER.VDW>
-16.1563

>  <SCORE.INTER.norm>
-0.801286

>  <SCORE.INTRA>
0

>  <SCORE.INTRA.DIHEDRAL>
0

>  <SCORE.INTRA.DIHEDRAL.0>
0

>  <SCORE.INTRA.POLAR>
0

>  <SCORE.INTRA.POLAR.0>
0

>  <SCORE.INTRA.REPUL>
0

>  <SCORE.INTRA.REPUL.0>
0

>  <SCORE.INTRA.SOLV>
0

>  <SCORE.INTRA.SOLV.lig_0>
-48.3454

>  <SCORE.INTRA.VDW>
0

>  <SCORE.INTRA.VDW.0>
0

>  <SCORE.INTRA.norm>
0

>  <SCORE.RESTR>
0

>  <SCORE.RESTR.CAVITY>
0

>  <SCORE.RESTR.norm>
0

>  <SCORE.SYSTEM>
0

>  <SCORE.SYSTEM.CONST>
0

>  <SCORE.SYSTEM.DIHEDRAL>
0

>  <SCORE.SYSTEM.SOLV>
0

>  <SCORE.SYSTEM.norm>
0

>  <SCORE.heavy>
11

>  <SCORE.norm>
-0.801286

>  <RMSD>
2.781

$$$$
ligand
 OpenBabel02271912153D
libRbt.so/2013.1/901 2013/11/27
 11 12  0  0  0  0  0  0  0  0999 V2000
  -12.0386  -11.8181    8.9629 N   0  0  0  0  0  0  0  0  0  0  0  0
  -12.0056  -10.9682    7.9240 C   0  0  0  0  0  0  0  0  0  0  0  0
  -12.2906   -9.6829    8.1130 N   0  0  0  0  0  0  0  0  0  0  0  0
  -11.6976  -11.4061    6.6934 N   0  0  0  0  0  0  0  0  0  0  0  0
  -11.4199  -12.7003    6.4768 C   0  0  0  0  0  0  0  0  0  0  0  0
  -11.4470  -13.6008    7.5341 C   0  0  0  0  0  0  0  0  0  0  0  0
  -11.7665  -13.1226    8.8006 C   0  0  0  0  0  0  0  0  0  0  0  0
  -11.7945  -13.9481    9.8427 N   0  0  0  0  0  0  0  0  0  0  0  0
  -11.1522  -14.8015    7.0447 N   0  0  0  0  0  0  0  0  0  0  0  0
  -10.9479  -14.6690    5.7361 C   0  0  0  0  0  0  0  0  0  0  0  0
  -11.1088  -13.3946    5.3860 N   0  0  0  0  0  0  0  0  0  0  0  0
  1  7  2  0  0  0  0
  1  2  1  0  0  0  0
  2  3  1  0  0  0  0
  2  4  2  0  0  0  0
  4  5  1  0  0  0  0
  5  6  2  0  0  0  0
  5 11  1  0  0  0  0
  6  7  1  0  0  0  0
  6  9  1  0  0  0  0
  7  8  1  0  0  0  0
  9 10  1  0  0  0  0
 10 11  2  0  0  0  0
M  END
>  <CHROM.1>
-11.61243978,-12.71844756,7.51563215,2.89575624,1.32015879,-0.80377243

>  <Name>
ligand

>  <RI>
0

>  <Rbt.Current_Directory>
/home/itssahil/PROJECTS/Mol_Feturizer/Test_systems_manuscript/rnas/2b57

>  <Rbt.Executable>
rbdock ($Id: //depot/dev/client3/rdock/2013.1/src/exe/rbdock.cxx#4 $)

>  <Rbt.Library>
libRbt.so (2013.1, Build901 2013/11/27)

>  <Rbt.Parameter_File>
/export/apps/rDock/src/rDock_2013.1_src/data/scripts/dock_solv.prm

>  <Rbt.Receptor>
prm/blind_docking_80.prm

>  <SCORE>
-8.77996

>  <SCORE.INTER>
-8.77996

>  <SCORE.INTER.CONST>
1

>  <SCORE.INTER.POLAR>
0

>  <SCORE.INTER.ROT>
0

>  <SCORE.INTER.SOLV>
20.1842

>  <SCORE.INTER.VDW>
-16.1814

>  <SCORE.INTER.norm>
-0.798178

>  <SCORE.INTRA>
0

>  <SCORE.INTRA.DIHEDRAL>
0

>  <SCORE.INTRA.DIHEDRAL.0>
0

>  <SCORE.INTRA.POLAR>
0

>  <SCORE.INTRA.POLAR.0>
0

>  <SCORE.INTRA.REPUL>
0

>  <SCORE.INTRA.REPUL.0>
0

>  <SCORE.INTRA.SOLV>
0

>  <SCORE.INTRA.SOLV.lig_0>
-48.3454

>  <SCORE.INTRA.VDW>
0

>  <SCORE.INTRA.VDW.0>
0

>  <SCORE.INTRA.norm>
0

>  <SCORE.RESTR>
0

>  <SCORE.RESTR.CAVITY>
0

>  <SCORE.RESTR.norm>
0

>  <SCORE.SYSTEM>
0

>  <SCORE.SYSTEM.CONST>
0

>  <SCORE.SYSTEM.DIHEDRAL>
0

>  <SCORE.SYSTEM.SOLV>
0

>  <SCORE.SYSTEM.norm>
0

>  <SCORE.heavy>
11

>  <SCORE.norm>
-0.798178

>  <RMSD>
2.785

$$$$
ligand
 OpenBabel02271912153D
libRbt.so/2013.1/901 2013/11/27
 11 12  0  0  0  0  0  0  0  0999 V2000
  -12.0612  -11.8251    8.9496 N   0  0  0  0  0  0  0  0  0  0  0  0
  -12.0170  -10.9799    7.9073 C   0  0  0  0  0  0  0  0  0  0  0  0
  -12.3099   -9.6949    8.0862 N   0  0  0  0  0  0  0  0  0  0  0  0
  -11.6897  -11.4222    6.6833 N   0  0  0  0  0  0  0  0  0  0  0  0
  -11.4036  -12.7162    6.4767 C   0  0  0  0  0  0  0  0  0  0  0  0
  -11.4420  -13.6119    7.5378 C   0  0  0  0  0  0  0  0  0  0  0  0
  -11.7815  -13.1292    8.7973 C   0  0  0  0  0  0  0  0  0  0  0  0
  -11.8211  -13.9500    9.8427 N   0  0  0  0  0  0  0  0  0  0  0  0
  -11.1354  -14.8136    7.0583 N   0  0  0  0  0  0  0  0  0  0  0  0
  -10.9130  -14.6863    5.7520 C   0  0  0  0  0  0  0  0  0  0  0  0
  -11.0742  -13.4142    5.3937 N   0  0  0  0  0  0  0  0  0  0  0  0
  1  7  2  0  0  0  0
  1  2  1  0  0  0  0
  2  3  1  0  0  0  0
  2  4  2  0  0  0  0
  4  5  1  0  0  0  0
  5  6  2  0  0  0  0
  5 11  1  0  0  0  0
  6  7  1  0  0  0  0
  6  9  1  0  0  0  0
  7  8  1  0  0  0  0
  9 10  1  0  0  0  0
 10 11  2  0  0  0  0
M  END
>  <CHROM.1>
-11.61085364,-12.73034935,7.51278209,2.86730992,1.30720933,-0.78091863

>  <Name>
ligand

>  <RI>
0

>  <Rbt.Current_Directory>
/home/itssahil/PROJECTS/Mol_Feturizer/Test_systems_manuscript/rnas/2b57

>  <Rbt.Executable>
rbdock ($Id: //depot/dev/client3/rdock/2013.1/src/exe/rbdock.cxx#4 $)

>  <Rbt.Library>
libRbt.so (2013.1, Build901 2013/11/27)

>  <Rbt.Parameter_File>
/export/apps/rDock/src/rDock_2013.1_src/data/scripts/dock_solv.prm

>  <Rbt.Receptor>
prm/pocket_docking_6.prm

>  <SCORE>
-8.79173

>  <SCORE.INTER>
-8.79173

>  <SCORE.INTER.CONST>
1

>  <SCORE.INTER.POLAR>
0

>  <SCORE.INTER.ROT>
0

>  <SCORE.INTER.SOLV>
19.9942

>  <SCORE.INTER.VDW>
-16.1259

>  <SCORE.INTER.norm>
-0.799248

>  <SCORE.INTRA>
0

>  <SCORE.INTRA.DIHEDRAL>
0

>  <SCORE.INTRA.DIHEDRAL.0>
0

>  <SCORE.INTRA.POLAR>
0

>  <SCORE.INTRA.POLAR.0>
0

>  <SCORE.INTRA.REPUL>
0

>  <SCORE.INTRA.REPUL.0>
0

>  <SCORE.INTRA.SOLV>
0

>  <SCORE.INTRA.SOLV.lig_0>
-48.3454

>  <SCORE.INTRA.VDW>
0

>  <SCORE.INTRA.VDW.0>
0

>  <SCORE.INTRA.norm>
0

>  <SCORE.RESTR>
0

>  <SCORE.RESTR.CAVITY>
0

>  <SCORE.RESTR.norm>
0

>  <SCORE.SYSTEM>
0

>  <SCORE.SYSTEM.CONST>
0

>  <SCORE.SYSTEM.DIHEDRAL>
0

>  <SCORE.SYSTEM.SOLV>
0

>  <SCORE.SYSTEM.norm>
0

>  <SCORE.heavy>
11

>  <SCORE.norm>
-0.799248

>  <RMSD>
2.785

$$$$
ligand
 OpenBabel02271912153D
libRbt.so/2013.1/901 2013/11/27
 11 12  0  0  0  0  0  0  0  0999 V2000
  -12.0634  -11.8229    8.9480 N   0  0  0  0  0  0  0  0  0  0  0  0
  -12.0172  -10.9789    7.9048 C   0  0  0  0  0  0  0  0  0  0  0  0
  -12.3104   -9.6937    8.0816 N   0  0  0  0  0  0  0  0  0  0  0  0
  -11.6876  -11.4227    6.6819 N   0  0  0  0  0  0  0  0  0  0  0  0
  -11.4012  -12.7169    6.4774 C   0  0  0  0  0  0  0  0  0  0  0  0
  -11.4416  -13.6114    7.5394 C   0  0  0  0  0  0  0  0  0  0  0  0
  -11.7834  -13.1271    8.7978 C   0  0  0  0  0  0  0  0  0  0  0  0
  -11.8248  -13.9466    9.8441 N   0  0  0  0  0  0  0  0  0  0  0  0
  -11.1340  -14.8136    7.0620 N   0  0  0  0  0  0  0  0  0  0  0  0
  -10.9092  -14.6879    5.7560 C   0  0  0  0  0  0  0  0  0  0  0  0
  -11.0697  -13.4163    5.3959 N   0  0  0  0  0  0  0  0  0  0  0  0
  1  7  2  0  0  0  0
  1  2  1  0  0  0  0
  2  3  1  0  0  0  0
  2  4  2  0  0  0  0
  4  5  1  0  0  0  0
  5  6  2  0  0  0  0
  5 11  1  0  0  0  0
  6  7  1  0  0  0  0
  6  9  1  0  0  0  0
  7  8  1  0  0  0  0
  9 10  1  0  0  0  0
 10 11  2  0  0  0  0
M  END
>  <CHROM.1>
-11.61033691,-12.72982709,7.51308866,2.86237483,1.30588868,-0.77735818

>  <Name>
ligand

>  <RI>
0

>  <Rbt.Current_Directory>
/home/itssahil/PROJECTS/Mol_Feturizer/Test_systems_manuscript/rnas/2b57

>  <Rbt.Executable>
rbdock ($Id: //depot/dev/client3/rdock/2013.1/src/exe/rbdock.cxx#4 $)

>  <Rbt.Library>
libRbt.so (2013.1, Build901 2013/11/27)

>  <Rbt.Parameter_File>
/export/apps/rDock/src/rDock_2013.1_src/data/scripts/dock_solv.prm

>  <Rbt.Receptor>
prm/blind_docking_60.prm

>  <SCORE>
-8.79196

>  <SCORE.INTER>
-8.79196

>  <SCORE.INTER.CONST>
1

>  <SCORE.INTER.POLAR>
0

>  <SCORE.INTER.ROT>
0

>  <SCORE.INTER.SOLV>
19.9706

>  <SCORE.INTER.VDW>
-16.1182

>  <SCORE.INTER.norm>
-0.799269

>  <SCORE.INTRA>
0

>  <SCORE.INTRA.DIHEDRAL>
0

>  <SCORE.INTRA.DIHEDRAL.0>
0

>  <SCORE.INTRA.POLAR>
0

>  <SCORE.INTRA.POLAR.0>
0

>  <SCORE.INTRA.REPUL>
0

>  <SCORE.INTRA.REPUL.0>
0

>  <SCORE.INTRA.SOLV>
0

>  <SCORE.INTRA.SOLV.lig_0>
-48.3454

>  <SCORE.INTRA.VDW>
0

>  <SCORE.INTRA.VDW.0>
0

>  <SCORE.INTRA.norm>
0

>  <SCORE.RESTR>
0

>  <SCORE.RESTR.CAVITY>
0

>  <SCORE.RESTR.norm>
0

>  <SCORE.SYSTEM>
0

>  <SCORE.SYSTEM.CONST>
0

>  <SCORE.SYSTEM.DIHEDRAL>
0

>  <SCORE.SYSTEM.SOLV>
0

>  <SCORE.SYSTEM.norm>
0

>  <SCORE.heavy>
11

>  <SCORE.norm>
-0.799269

>  <RMSD>
2.786

$$$$
ligand
 OpenBabel02271912153D
libRbt.so/2013.1/901 2013/11/27
 11 12  0  0  0  0  0  0  0  0999 V2000
  -12.2024  -11.7302    9.0261 N   0  0  0  0  0  0  0  0  0  0  0  0
  -12.0602  -10.9159    7.9681 C   0  0  0  0  0  0  0  0  0  0  0  0
  -12.3167   -9.6170    8.0953 N   0  0  0  0  0  0  0  0  0  0  0  0
  -11.6712  -11.4026    6.7795 N   0  0  0  0  0  0  0  0  0  0  0  0
  -11.4201  -12.7110    6.6245 C   0  0  0  0  0  0  0  0  0  0  0  0
  -11.5595  -13.5755    7.7028 C   0  0  0  0  0  0  0  0  0  0  0  0
  -11.9614  -13.0469    8.9251 C   0  0  0  0  0  0  0  0  0  0  0  0
  -12.0981  -13.8369    9.9859 N   0  0  0  0  0  0  0  0  0  0  0  0
  -11.2669  -14.7998    7.2746 N   0  0  0  0  0  0  0  0  0  0  0  0
  -10.9564  -14.7161    5.9829 C   0  0  0  0  0  0  0  0  0  0  0  0
  -11.0475  -13.4495    5.5831 N   0  0  0  0  0  0  0  0  0  0  0  0
  1  7  2  0  0  0  0
  1  2  1  0  0  0  0
  2  3  1  0  0  0  0
  2  4  2  0  0  0  0
  4  5  1  0  0  0  0
  5  6  2  0  0  0  0
  5 11  1  0  0  0  0
  6  7  1  0  0  0  0
  6  9  1  0  0  0  0
  7  8  1  0  0  0  0
  9 10  1  0  0  0  0
 10 11  2  0  0  0  0
M  END
>  <CHROM.1>
-11.69394311,-12.68957206,7.64484183,2.61714995,1.27864506,-0.56645680

>  <Name>
ligand

>  <RI>
0

>  <Rbt.Current_Directory>
/home/itssahil/PROJECTS/Mol_Feturizer/Test_systems_manuscript/rnas/2b57

>  <Rbt.Executable>
rbdock ($Id: //depot/dev/client3/rdock/2013.1/src/exe/rbdock.cxx#4 $)

>  <Rbt.Library>
libRbt.so (2013.1, Build901 2013/11/27)

>  <Rbt.Parameter_File>
/export/apps/rDock/src/rDock_2013.1_src/data/scripts/dock_solv.prm

>  <Rbt.Receptor>
prm/blind_docking_100.prm

>  <SCORE>
-8.61538

>  <SCORE.INTER>
-8.61538

>  <SCORE.INTER.CONST>
1

>  <SCORE.INTER.POLAR>
0

>  <SCORE.INTER.ROT>
0

>  <SCORE.INTER.SOLV>
19.6159

>  <SCORE.INTER.VDW>
-15.8822

>  <SCORE.INTER.norm>
-0.783216

>  <SCORE.INTRA>
0

>  <SCORE.INTRA.DIHEDRAL>
0

>  <SCORE.INTRA.DIHEDRAL.0>
0

>  <SCORE.INTRA.POLAR>
0

>  <SCORE.INTRA.POLAR.0>
0

>  <SCORE.INTRA.REPUL>
0

>  <SCORE.INTRA.REPUL.0>
0

>  <SCORE.INTRA.SOLV>
0

>  <SCORE.INTRA.SOLV.lig_0>
-48.3454

>  <SCORE.INTRA.VDW>
0

>  <SCORE.INTRA.VDW.0>
0

>  <SCORE.INTRA.norm>
0

>  <SCORE.RESTR>
0

>  <SCORE.RESTR.CAVITY>
0

>  <SCORE.RESTR.norm>
0

>  <SCORE.SYSTEM>
0

>  <SCORE.SYSTEM.CONST>
0

>  <SCORE.SYSTEM.DIHEDRAL>
0

>  <SCORE.SYSTEM.SOLV>
0

>  <SCORE.SYSTEM.norm>
0

>  <SCORE.heavy>
11

>  <SCORE.norm>
-0.783216

>  <RMSD>
2.797

$$$$
ligand
 OpenBabel02271912153D
libRbt.so/2013.1/901 2013/11/27
 11 12  0  0  0  0  0  0  0  0999 V2000
  -12.1820  -11.6850    9.0462 N   0  0  0  0  0  0  0  0  0  0  0  0
  -12.0922  -10.8983    7.9619 C   0  0  0  0  0  0  0  0  0  0  0  0
  -12.3698   -9.6014    8.0620 N   0  0  0  0  0  0  0  0  0  0  0  0
  -11.7345  -11.4111    6.7743 N   0  0  0  0  0  0  0  0  0  0  0  0
  -11.4630  -12.7184    6.6469 C   0  0  0  0  0  0  0  0  0  0  0  0
  -11.5483  -13.5545    7.7528 C   0  0  0  0  0  0  0  0  0  0  0  0
  -11.9186  -12.9993    8.9732 C   0  0  0  0  0  0  0  0  0  0  0  0
  -12.0034  -13.7614   10.0596 N   0  0  0  0  0  0  0  0  0  0  0  0
  -11.2464  -14.7847    7.3487 N   0  0  0  0  0  0  0  0  0  0  0  0
  -10.9819  -14.7317    6.0451 C   0  0  0  0  0  0  0  0  0  0  0  0
  -11.1116  -13.4788    5.6140 N   0  0  0  0  0  0  0  0  0  0  0  0
  1  7  2  0  0  0  0
  1  2  1  0  0  0  0
  2  3  1  0  0  0  0
  2  4  2  0  0  0  0
  4  5  1  0  0  0  0
  5  6  2  0  0  0  0
  5 11  1  0  0  0  0
  6  7  1  0  0  0  0
  6  9  1  0  0  0  0
  7  8  1  0  0  0  0
  9 10  1  0  0  0  0
 10 11  2  0  0  0  0
M  END
>  <CHROM.1>
-11.70218347,-12.67326279,7.67514084,2.74589301,1.29470561,-0.71798708

>  <Name>
ligand

>  <RI>
0

>  <Rbt.Current_Directory>
/home/itssahil/PROJECTS/Mol_Feturizer/Test_systems_manuscript/rnas/2b57

>  <Rbt.Executable>
rbdock ($Id: //depot/dev/client3/rdock/2013.1/src/exe/rbdock.cxx#4 $)

>  <Rbt.Library>
libRbt.so (2013.1, Build901 2013/11/27)

>  <Rbt.Parameter_File>
/export/apps/rDock/src/rDock_2013.1_src/data/scripts/dock_solv.prm

>  <Rbt.Receptor>
prm/blind_docking_60.prm

>  <SCORE>
-8.69714

>  <SCORE.INTER>
-8.69714

>  <SCORE.INTER.CONST>
1

>  <SCORE.INTER.POLAR>
0

>  <SCORE.INTER.ROT>
0

>  <SCORE.INTER.SOLV>
19.5724

>  <SCORE.INTER.VDW>
-15.9222

>  <SCORE.INTER.norm>
-0.790649

>  <SCORE.INTRA>
0

>  <SCORE.INTRA.DIHEDRAL>
0

>  <SCORE.INTRA.DIHEDRAL.0>
0

>  <SCORE.INTRA.POLAR>
0

>  <SCORE.INTRA.POLAR.0>
0

>  <SCORE.INTRA.REPUL>
0

>  <SCORE.INTRA.REPUL.0>
0

>  <SCORE.INTRA.SOLV>
0

>  <SCORE.INTRA.SOLV.lig_0>
-48.3454

>  <SCORE.INTRA.VDW>
0

>  <SCORE.INTRA.VDW.0>
0

>  <SCORE.INTRA.norm>
0

>  <SCORE.RESTR>
0

>  <SCORE.RESTR.CAVITY>
0

>  <SCORE.RESTR.norm>
0

>  <SCORE.SYSTEM>
0

>  <SCORE.SYSTEM.CONST>
0

>  <SCORE.SYSTEM.DIHEDRAL>
0

>  <SCORE.SYSTEM.SOLV>
0

>  <SCORE.SYSTEM.norm>
0

>  <SCORE.heavy>
11

>  <SCORE.norm>
-0.790649

>  <RMSD>
2.810

$$$$
ligand
 OpenBabel02271912153D
libRbt.so/2013.1/901 2013/11/27
 11 12  0  0  0  0  0  0  0  0999 V2000
  -12.1774  -11.6757    9.0441 N   0  0  0  0  0  0  0  0  0  0  0  0
  -12.0808  -10.8886    7.9606 C   0  0  0  0  0  0  0  0  0  0  0  0
  -12.3584   -9.5917    8.0596 N   0  0  0  0  0  0  0  0  0  0  0  0
  -11.7163  -11.4011    6.7750 N   0  0  0  0  0  0  0  0  0  0  0  0
  -11.4447  -12.7085    6.6487 C   0  0  0  0  0  0  0  0  0  0  0  0
  -11.5370  -13.5450    7.7538 C   0  0  0  0  0  0  0  0  0  0  0  0
  -11.9142  -12.9900    8.9722 C   0  0  0  0  0  0  0  0  0  0  0  0
  -12.0058  -13.7525   10.0577 N   0  0  0  0  0  0  0  0  0  0  0  0
  -11.2332  -14.7752    7.3510 N   0  0  0  0  0  0  0  0  0  0  0  0
  -10.9610  -14.7219    6.0490 C   0  0  0  0  0  0  0  0  0  0  0  0
  -11.0875  -13.4687    5.6176 N   0  0  0  0  0  0  0  0  0  0  0  0
  1  7  2  0  0  0  0
  1  2  1  0  0  0  0
  2  3  1  0  0  0  0
  2  4  2  0  0  0  0
  4  5  1  0  0  0  0
  5  6  2  0  0  0  0
  5 11  1  0  0  0  0
  6  7  1  0  0  0  0
  6  9  1  0  0  0  0
  7  8  1  0  0  0  0
  9 10  1  0  0  0  0
 10 11  2  0  0  0  0
M  END
>  <CHROM.1>
-11.68993923,-12.66363512,7.67554164,2.73050753,1.29051054,-0.70282075

>  <Name>
ligand

>  <RI>
0

>  <Rbt.Current_Directory>
/home/itssahil/PROJECTS/Mol_Feturizer/Test_systems_manuscript/rnas/2b57

>  <Rbt.Executable>
rbdock ($Id: //depot/dev/client3/rdock/2013.1/src/exe/rbdock.cxx#4 $)

>  <Rbt.Library>
libRbt.so (2013.1, Build901 2013/11/27)

>  <Rbt.Parameter_File>
/export/apps/rDock/src/rDock_2013.1_src/data/scripts/dock_solv.prm

>  <Rbt.Receptor>
prm/blind_docking_100.prm

>  <SCORE>
-8.67608

>  <SCORE.INTER>
-8.67608

>  <SCORE.INTER.CONST>
1

>  <SCORE.INTER.POLAR>
0

>  <SCORE.INTER.ROT>
0

>  <SCORE.INTER.SOLV>
19.575

>  <SCORE.INTER.VDW>
-15.909

>  <SCORE.INTER.norm>
-0.788734

>  <SCORE.INTRA>
0

>  <SCORE.INTRA.DIHEDRAL>
0

>  <SCORE.INTRA.DIHEDRAL.0>
0

>  <SCORE.INTRA.POLAR>
0

>  <SCORE.INTRA.POLAR.0>
0

>  <SCORE.INTRA.REPUL>
0

>  <SCORE.INTRA.REPUL.0>
0

>  <SCORE.INTRA.SOLV>
0

>  <SCORE.INTRA.SOLV.lig_0>
-48.3454

>  <SCORE.INTRA.VDW>
0

>  <SCORE.INTRA.VDW.0>
0

>  <SCORE.INTRA.norm>
0

>  <SCORE.RESTR>
0

>  <SCORE.RESTR.CAVITY>
0

>  <SCORE.RESTR.norm>
0

>  <SCORE.SYSTEM>
0

>  <SCORE.SYSTEM.CONST>
0

>  <SCORE.SYSTEM.DIHEDRAL>
0

>  <SCORE.SYSTEM.SOLV>
0

>  <SCORE.SYSTEM.norm>
0

>  <SCORE.heavy>
11

>  <SCORE.norm>
-0.788734

>  <RMSD>
2.811

$$$$
ligand
 OpenBabel02271912153D
libRbt.so/2013.1/901 2013/11/27
 11 12  0  0  0  0  0  0  0  0999 V2000
  -11.6360  -12.3815    6.2834 N   0  0  0  0  0  0  0  0  0  0  0  0
  -10.8943  -13.4906    6.1332 C   0  0  0  0  0  0  0  0  0  0  0  0
  -10.3280  -13.7523    4.9586 N   0  0  0  0  0  0  0  0  0  0  0  0
  -10.7275  -14.3438    7.1556 N   0  0  0  0  0  0  0  0  0  0  0  0
  -11.3002  -14.1073    8.3451 C   0  0  0  0  0  0  0  0  0  0  0  0
  -12.0727  -12.9673    8.5274 C   0  0  0  0  0  0  0  0  0  0  0  0
  -12.2288  -12.0969    7.4537 C   0  0  0  0  0  0  0  0  0  0  0  0
  -12.9519  -10.9890    7.5871 N   0  0  0  0  0  0  0  0  0  0  0  0
  -12.5264  -12.9870    9.7771 N   0  0  0  0  0  0  0  0  0  0  0  0
  -12.0632  -14.0898   10.3612 C   0  0  0  0  0  0  0  0  0  0  0  0
  -11.3175  -14.7737    9.4959 N   0  0  0  0  0  0  0  0  0  0  0  0
  1  7  2  0  0  0  0
  1  2  1  0  0  0  0
  2  3  1  0  0  0  0
  2  4  2  0  0  0  0
  4  5  1  0  0  0  0
  5  6  2  0  0  0  0
  5 11  1  0  0  0  0
  6  7  1  0  0  0  0
  6  9  1  0  0  0  0
  7  8  1  0  0  0  0
  9 10  1  0  0  0  0
 10 11  2  0  0  0  0
M  END
>  <CHROM.1>
-11.63564484,-13.26533758,7.80184422,1.08326207,0.95190941,-1.04112176

>  <Name>
ligand

>  <RI>
0

>  <Rbt.Current_Directory>
/home/itssahil/PROJECTS/Mol_Feturizer/Test_systems_manuscript/rnas/2b57

>  <Rbt.Executable>
rbdock ($Id: //depot/dev/client3/rdock/2013.1/src/exe/rbdock.cxx#4 $)

>  <Rbt.Library>
libRbt.so (2013.1, Build901 2013/11/27)

>  <Rbt.Parameter_File>
/export/apps/rDock/src/rDock_2013.1_src/data/scripts/dock_solv.prm

>  <Rbt.Receptor>
prm/pocket_docking_3.prm

>  <SCORE>
-10.2741

>  <SCORE.INTER>
-10.2741

>  <SCORE.INTER.CONST>
1

>  <SCORE.INTER.POLAR>
0

>  <SCORE.INTER.ROT>
0

>  <SCORE.INTER.SOLV>
18.0518

>  <SCORE.INTER.VDW>
-16.4667

>  <SCORE.INTER.norm>
-0.934011

>  <SCORE.INTRA>
0

>  <SCORE.INTRA.DIHEDRAL>
0

>  <SCORE.INTRA.DIHEDRAL.0>
0

>  <SCORE.INTRA.POLAR>
0

>  <SCORE.INTRA.POLAR.0>
0

>  <SCORE.INTRA.REPUL>
0

>  <SCORE.INTRA.REPUL.0>
0

>  <SCORE.INTRA.SOLV>
0

>  <SCORE.INTRA.SOLV.lig_0>
-48.3454

>  <SCORE.INTRA.VDW>
0

>  <SCORE.INTRA.VDW.0>
0

>  <SCORE.INTRA.norm>
0

>  <SCORE.RESTR>
0

>  <SCORE.RESTR.CAVITY>
0

>  <SCORE.RESTR.norm>
0

>  <SCORE.SYSTEM>
0

>  <SCORE.SYSTEM.CONST>
0

>  <SCORE.SYSTEM.DIHEDRAL>
0

>  <SCORE.SYSTEM.SOLV>
0

>  <SCORE.SYSTEM.norm>
0

>  <SCORE.heavy>
11

>  <SCORE.norm>
-0.934011

>  <RMSD>
3.341

$$$$
ligand
 OpenBabel02271912153D
libRbt.so/2013.1/901 2013/11/27
 11 12  0  0  0  0  0  0  0  0999 V2000
  -11.6285  -12.3783    6.2579 N   0  0  0  0  0  0  0  0  0  0  0  0
  -10.8830  -13.4855    6.1126 C   0  0  0  0  0  0  0  0  0  0  0  0
  -10.3168  -13.7511    4.9388 N   0  0  0  0  0  0  0  0  0  0  0  0
  -10.7120  -14.3328    7.1392 N   0  0  0  0  0  0  0  0  0  0  0  0
  -11.2843  -14.0922    8.3281 C   0  0  0  0  0  0  0  0  0  0  0  0
  -12.0607  -12.9541    8.5054 C   0  0  0  0  0  0  0  0  0  0  0  0
  -12.2211  -12.0898    7.4274 C   0  0  0  0  0  0  0  0  0  0  0  0
  -12.9481  -10.9839    7.5558 N   0  0  0  0  0  0  0  0  0  0  0  0
  -12.5131  -12.9690    9.7557 N   0  0  0  0  0  0  0  0  0  0  0  0
  -12.0453  -14.0671   10.3450 C   0  0  0  0  0  0  0  0  0  0  0  0
  -11.2980  -14.7527    9.4824 N   0  0  0  0  0  0  0  0  0  0  0  0
  1  7  2  0  0  0  0
  1  2  1  0  0  0  0
  2  3  1  0  0  0  0
  2  4  2  0  0  0  0
  4  5  1  0  0  0  0
  5  6  2  0  0  0  0
  5 11  1  0  0  0  0
  6  7  1  0  0  0  0
  6  9  1  0  0  0  0
  7  8  1  0  0  0  0
  9 10  1  0  0  0  0
 10 11  2  0  0  0  0
M  END
>  <CHROM.1>
-11.62336405,-13.25426745,7.78089765,1.08793920,0.94928483,-1.05009283

>  <Name>
ligand

>  <RI>
0

>  <Rbt.Current_Directory>
/home/itssahil/PROJECTS/Mol_Feturizer/Test_systems_manuscript/rnas/2b57

>  <Rbt.Executable>
rbdock ($Id: //depot/dev/client3/rdock/2013.1/src/exe/rbdock.cxx#4 $)

>  <Rbt.Library>
libRbt.so (2013.1, Build901 2013/11/27)

>  <Rbt.Parameter_File>
/export/apps/rDock/src/rDock_2013.1_src/data/scripts/dock_solv.prm

>  <Rbt.Receptor>
prm/pocket_docking_5.prm

>  <SCORE>
-10.3047

>  <SCORE.INTER>
-10.3047

>  <SCORE.INTER.CONST>
1

>  <SCORE.INTER.POLAR>
0

>  <SCORE.INTER.ROT>
0

>  <SCORE.INTER.SOLV>
18.1192

>  <SCORE.INTER.VDW>
-16.5095

>  <SCORE.INTER.norm>
-0.936788

>  <SCORE.INTRA>
0

>  <SCORE.INTRA.DIHEDRAL>
0

>  <SCORE.INTRA.DIHEDRAL.0>
0

>  <SCORE.INTRA.POLAR>
0

>  <SCORE.INTRA.POLAR.0>
0

>  <SCORE.INTRA.REPUL>
0

>  <SCORE.INTRA.REPUL.0>
0

>  <SCORE.INTRA.SOLV>
0

>  <SCORE.INTRA.SOLV.lig_0>
-48.3454

>  <SCORE.INTRA.VDW>
0

>  <SCORE.INTRA.VDW.0>
0

>  <SCORE.INTRA.norm>
0

>  <SCORE.RESTR>
0

>  <SCORE.RESTR.CAVITY>
0

>  <SCORE.RESTR.norm>
0

>  <SCORE.SYSTEM>
0

>  <SCORE.SYSTEM.CONST>
0

>  <SCORE.SYSTEM.DIHEDRAL>
0

>  <SCORE.SYSTEM.SOLV>
0

>  <SCORE.SYSTEM.norm>
0

>  <SCORE.heavy>
11

>  <SCORE.norm>
-0.936788

>  <RMSD>
3.341

$$$$
ligand
 OpenBabel02271912153D
libRbt.so/2013.1/901 2013/11/27
 11 12  0  0  0  0  0  0  0  0999 V2000
  -11.6254  -12.3843    6.2566 N   0  0  0  0  0  0  0  0  0  0  0  0
  -10.8703  -13.4852    6.1134 C   0  0  0  0  0  0  0  0  0  0  0  0
  -10.2951  -13.7439    4.9424 N   0  0  0  0  0  0  0  0  0  0  0  0
  -10.6988  -14.3335    7.1391 N   0  0  0  0  0  0  0  0  0  0  0  0
  -11.2801  -14.1000    8.3251 C   0  0  0  0  0  0  0  0  0  0  0  0
  -12.0665  -12.9684    8.5002 C   0  0  0  0  0  0  0  0  0  0  0  0
  -12.2272  -12.1030    7.4231 C   0  0  0  0  0  0  0  0  0  0  0  0
  -12.9636  -11.0031    7.5495 N   0  0  0  0  0  0  0  0  0  0  0  0
  -12.5262  -12.9896    9.7477 N   0  0  0  0  0  0  0  0  0  0  0  0
  -12.0533  -14.0853   10.3374 C   0  0  0  0  0  0  0  0  0  0  0  0
  -11.2955  -14.7631    9.4778 N   0  0  0  0  0  0  0  0  0  0  0  0
  1  7  2  0  0  0  0
  1  2  1  0  0  0  0
  2  3  1  0  0  0  0
  2  4  2  0  0  0  0
  4  5  1  0  0  0  0
  5  6  2  0  0  0  0
  5 11  1  0  0  0  0
  6  7  1  0  0  0  0
  6  9  1  0  0  0  0
  7  8  1  0  0  0  0
  9 10  1  0  0  0  0
 10 11  2  0  0  0  0
M  END
>  <CHROM.1>
-11.62247409,-13.26353482,7.77764611,1.08578749,0.93949708,-1.04617369

>  <Name>
ligand

>  <RI>
0

>  <Rbt.Current_Directory>
/home/itssahil/PROJECTS/Mol_Feturizer/Test_systems_manuscript/rnas/2b57

>  <Rbt.Executable>
rbdock ($Id: //depot/dev/client3/rdock/2013.1/src/exe/rbdock.cxx#4 $)

>  <Rbt.Library>
libRbt.so (2013.1, Build901 2013/11/27)

>  <Rbt.Parameter_File>
/export/apps/rDock/src/rDock_2013.1_src/data/scripts/dock_solv.prm

>  <Rbt.Receptor>
prm/pocket_docking_5.prm

>  <SCORE>
-10.2682

>  <SCORE.INTER>
-10.2682

>  <SCORE.INTER.CONST>
1

>  <SCORE.INTER.POLAR>
0

>  <SCORE.INTER.ROT>
0

>  <SCORE.INTER.SOLV>
18.0501

>  <SCORE.INTER.VDW>
-16.4622

>  <SCORE.INTER.norm>
-0.933472

>  <SCORE.INTRA>
0

>  <SCORE.INTRA.DIHEDRAL>
0

>  <SCORE.INTRA.DIHEDRAL.0>
0

>  <SCORE.INTRA.POLAR>
0

>  <SCORE.INTRA.POLAR.0>
0

>  <SCORE.INTRA.REPUL>
0

>  <SCORE.INTRA.REPUL.0>
0

>  <SCORE.INTRA.SOLV>
0

>  <SCORE.INTRA.SOLV.lig_0>
-48.3454

>  <SCORE.INTRA.VDW>
0

>  <SCORE.INTRA.VDW.0>
0

>  <SCORE.INTRA.norm>
0

>  <SCORE.RESTR>
0

>  <SCORE.RESTR.CAVITY>
0

>  <SCORE.RESTR.norm>
0

>  <SCORE.SYSTEM>
0

>  <SCORE.SYSTEM.CONST>
0

>  <SCORE.SYSTEM.DIHEDRAL>
0

>  <SCORE.SYSTEM.SOLV>
0

>  <SCORE.SYSTEM.norm>
0

>  <SCORE.heavy>
11

>  <SCORE.norm>
-0.933472

>  <RMSD>
3.341

$$$$
ligand
 OpenBabel02271912153D
libRbt.so/2013.1/901 2013/11/27
 11 12  0  0  0  0  0  0  0  0999 V2000
  -11.6144  -12.3874    6.2584 N   0  0  0  0  0  0  0  0  0  0  0  0
  -10.8647  -13.4928    6.1215 C   0  0  0  0  0  0  0  0  0  0  0  0
  -10.2918  -13.7616    4.9517 N   0  0  0  0  0  0  0  0  0  0  0  0
  -10.6963  -14.3353    7.1525 N   0  0  0  0  0  0  0  0  0  0  0  0
  -11.2755  -14.0915    8.3375 C   0  0  0  0  0  0  0  0  0  0  0  0
  -12.0563  -12.9551    8.5060 C   0  0  0  0  0  0  0  0  0  0  0  0
  -12.2139  -12.0958    7.4236 C   0  0  0  0  0  0  0  0  0  0  0  0
  -12.9450  -10.9917    7.5436 N   0  0  0  0  0  0  0  0  0  0  0  0
  -12.5150  -12.9662    9.7540 N   0  0  0  0  0  0  0  0  0  0  0  0
  -12.0468  -14.0603   10.3503 C   0  0  0  0  0  0  0  0  0  0  0  0
  -11.2930  -14.7472    9.4944 N   0  0  0  0  0  0  0  0  0  0  0  0
  1  7  2  0  0  0  0
  1  2  1  0  0  0  0
  2  3  1  0  0  0  0
  2  4  2  0  0  0  0
  4  5  1  0  0  0  0
  5  6  2  0  0  0  0
  5 11  1  0  0  0  0
  6  7  1  0  0  0  0
  6  9  1  0  0  0  0
  7  8  1  0  0  0  0
  9 10  1  0  0  0  0
 10 11  2  0  0  0  0
M  END
>  <CHROM.1>
-11.61433915,-13.25692692,7.78500096,1.08300947,0.94403377,-1.05028319

>  <Name>
ligand

>  <RI>
0

>  <Rbt.Current_Directory>
/home/itssahil/PROJECTS/Mol_Feturizer/Test_systems_manuscript/rnas/2b57

>  <Rbt.Executable>
rbdock ($Id: //depot/dev/client3/rdock/2013.1/src/exe/rbdock.cxx#4 $)

>  <Rbt.Library>
libRbt.so (2013.1, Build901 2013/11/27)

>  <Rbt.Parameter_File>
/export/apps/rDock/src/rDock_2013.1_src/data/scripts/dock_solv.prm

>  <Rbt.Receptor>
prm/pocket_docking_5.prm

>  <SCORE>
-10.2965

>  <SCORE.INTER>
-10.2965

>  <SCORE.INTER.CONST>
1

>  <SCORE.INTER.POLAR>
0

>  <SCORE.INTER.ROT>
0

>  <SCORE.INTER.SOLV>
18.0055

>  <SCORE.INTER.VDW>
-16.4662

>  <SCORE.INTER.norm>
-0.936049

>  <SCORE.INTRA>
0

>  <SCORE.INTRA.DIHEDRAL>
0

>  <SCORE.INTRA.DIHEDRAL.0>
0

>  <SCORE.INTRA.POLAR>
0

>  <SCORE.INTRA.POLAR.0>
0

>  <SCORE.INTRA.REPUL>
0

>  <SCORE.INTRA.REPUL.0>
0

>  <SCORE.INTRA.SOLV>
0

>  <SCORE.INTRA.SOLV.lig_0>
-48.3454

>  <SCORE.INTRA.VDW>
0

>  <SCORE.INTRA.VDW.0>
0

>  <SCORE.INTRA.norm>
0

>  <SCORE.RESTR>
0

>  <SCORE.RESTR.CAVITY>
0

>  <SCORE.RESTR.norm>
0

>  <SCORE.SYSTEM>
0

>  <SCORE.SYSTEM.CONST>
0

>  <SCORE.SYSTEM.DIHEDRAL>
0

>  <SCORE.SYSTEM.SOLV>
0

>  <SCORE.SYSTEM.norm>
0

>  <SCORE.heavy>
11

>  <SCORE.norm>
-0.936049

>  <RMSD>
3.341

$$$$
ligand
 OpenBabel02271912153D
libRbt.so/2013.1/901 2013/11/27
 11 12  0  0  0  0  0  0  0  0999 V2000
  -11.6651  -12.3965    6.2982 N   0  0  0  0  0  0  0  0  0  0  0  0
  -10.9478  -13.5202    6.1380 C   0  0  0  0  0  0  0  0  0  0  0  0
  -10.3968  -13.7894    4.9578 N   0  0  0  0  0  0  0  0  0  0  0  0
  -10.7902  -14.3803    7.1561 N   0  0  0  0  0  0  0  0  0  0  0  0
  -11.3480  -14.1362    8.3511 C   0  0  0  0  0  0  0  0  0  0  0  0
  -12.0951  -12.9810    8.5438 C   0  0  0  0  0  0  0  0  0  0  0  0
  -12.2420  -12.1038    7.4744 C   0  0  0  0  0  0  0  0  0  0  0  0
  -12.9409  -10.9817    7.6175 N   0  0  0  0  0  0  0  0  0  0  0  0
  -12.5387  -12.9958    9.7972 N   0  0  0  0  0  0  0  0  0  0  0  0
  -12.0937  -14.1100   10.3737 C   0  0  0  0  0  0  0  0  0  0  0  0
  -11.3695  -14.8061    9.4998 N   0  0  0  0  0  0  0  0  0  0  0  0
  1  7  2  0  0  0  0
  1  2  1  0  0  0  0
  2  3  1  0  0  0  0
  2  4  2  0  0  0  0
  4  5  1  0  0  0  0
  5  6  2  0  0  0  0
  5 11  1  0  0  0  0
  6  7  1  0  0  0  0
  6  9  1  0  0  0  0
  7  8  1  0  0  0  0
  9 10  1  0  0  0  0
 10 11  2  0  0  0  0
M  END
>  <CHROM.1>
-11.67039291,-13.28551802,7.81355711,1.07736453,0.97400931,-1.03282855

>  <Name>
ligand

>  <RI>
0

>  <Rbt.Current_Directory>
/home/itssahil/PROJECTS/Mol_Feturizer/Test_systems_manuscript/rnas/2b57

>  <Rbt.Executable>
rbdock ($Id: //depot/dev/client3/rdock/2013.1/src/exe/rbdock.cxx#4 $)

>  <Rbt.Library>
libRbt.so (2013.1, Build901 2013/11/27)

>  <Rbt.Parameter_File>
/export/apps/rDock/src/rDock_2013.1_src/data/scripts/dock_solv.prm

>  <Rbt.Receptor>
prm/pocket_docking_7.prm

>  <SCORE>
-10.2608

>  <SCORE.INTER>
-10.2608

>  <SCORE.INTER.CONST>
1

>  <SCORE.INTER.POLAR>
0

>  <SCORE.INTER.ROT>
0

>  <SCORE.INTER.SOLV>
18.2109

>  <SCORE.INTER.VDW>
-16.5108

>  <SCORE.INTER.norm>
-0.932798

>  <SCORE.INTRA>
0

>  <SCORE.INTRA.DIHEDRAL>
0

>  <SCORE.INTRA.DIHEDRAL.0>
0

>  <SCORE.INTRA.POLAR>
0

>  <SCORE.INTRA.POLAR.0>
0

>  <SCORE.INTRA.REPUL>
0

>  <SCORE.INTRA.REPUL.0>
0

>  <SCORE.INTRA.SOLV>
0

>  <SCORE.INTRA.SOLV.lig_0>
-48.3454

>  <SCORE.INTRA.VDW>
0

>  <SCORE.INTRA.VDW.0>
0

>  <SCORE.INTRA.norm>
0

>  <SCORE.RESTR>
0

>  <SCORE.RESTR.CAVITY>
0

>  <SCORE.RESTR.norm>
0

>  <SCORE.SYSTEM>
0

>  <SCORE.SYSTEM.CONST>
0

>  <SCORE.SYSTEM.DIHEDRAL>
0

>  <SCORE.SYSTEM.SOLV>
0

>  <SCORE.SYSTEM.norm>
0

>  <SCORE.heavy>
11

>  <SCORE.norm>
-0.932798

>  <RMSD>
3.341

$$$$
ligand
 OpenBabel02271912153D
libRbt.so/2013.1/901 2013/11/27
 11 12  0  0  0  0  0  0  0  0999 V2000
  -11.6763  -12.4011    6.2892 N   0  0  0  0  0  0  0  0  0  0  0  0
  -10.9515  -13.5199    6.1293 C   0  0  0  0  0  0  0  0  0  0  0  0
  -10.4043  -13.7891    4.9473 N   0  0  0  0  0  0  0  0  0  0  0  0
  -10.7824  -14.3753    7.1496 N   0  0  0  0  0  0  0  0  0  0  0  0
  -11.3360  -14.1311    8.3466 C   0  0  0  0  0  0  0  0  0  0  0  0
  -12.0908  -12.9809    8.5389 C   0  0  0  0  0  0  0  0  0  0  0  0
  -12.2496  -12.1086    7.4672 C   0  0  0  0  0  0  0  0  0  0  0  0
  -12.9561  -10.9911    7.6100 N   0  0  0  0  0  0  0  0  0  0  0  0
  -12.5280  -12.9945    9.7946 N   0  0  0  0  0  0  0  0  0  0  0  0
  -12.0718  -14.1034   10.3727 C   0  0  0  0  0  0  0  0  0  0  0  0
  -11.3469  -14.7971    9.4976 N   0  0  0  0  0  0  0  0  0  0  0  0
  1  7  2  0  0  0  0
  1  2  1  0  0  0  0
  2  3  1  0  0  0  0
  2  4  2  0  0  0  0
  4  5  1  0  0  0  0
  5  6  2  0  0  0  0
  5 11  1  0  0  0  0
  6  7  1  0  0  0  0
  6  9  1  0  0  0  0
  7  8  1  0  0  0  0
  9 10  1  0  0  0  0
 10 11  2  0  0  0  0
M  END
>  <CHROM.1>
-11.66745518,-13.28476770,7.80764281,1.09168937,0.97009864,-1.04815214

>  <Name>
ligand

>  <RI>
0

>  <Rbt.Current_Directory>
/home/itssahil/PROJECTS/Mol_Feturizer/Test_systems_manuscript/rnas/2b57

>  <Rbt.Executable>
rbdock ($Id: //depot/dev/client3/rdock/2013.1/src/exe/rbdock.cxx#4 $)

>  <Rbt.Library>
libRbt.so (2013.1, Build901 2013/11/27)

>  <Rbt.Parameter_File>
/export/apps/rDock/src/rDock_2013.1_src/data/scripts/dock_solv.prm

>  <Rbt.Receptor>
prm/blind_docking_40.prm

>  <SCORE>
-10.2608

>  <SCORE.INTER>
-10.2608

>  <SCORE.INTER.CONST>
1

>  <SCORE.INTER.POLAR>
0

>  <SCORE.INTER.ROT>
0

>  <SCORE.INTER.SOLV>
18.2491

>  <SCORE.INTER.VDW>
-16.5236

>  <SCORE.INTER.norm>
-0.932802

>  <SCORE.INTRA>
0

>  <SCORE.INTRA.DIHEDRAL>
0

>  <SCORE.INTRA.DIHEDRAL.0>
0

>  <SCORE.INTRA.POLAR>
0

>  <SCORE.INTRA.POLAR.0>
0

>  <SCORE.INTRA.REPUL>
0

>  <SCORE.INTRA.REPUL.0>
0

>  <SCORE.INTRA.SOLV>
0

>  <SCORE.INTRA.SOLV.lig_0>
-48.3454

>  <SCORE.INTRA.VDW>
0

>  <SCORE.INTRA.VDW.0>
0

>  <SCORE.INTRA.norm>
0

>  <SCORE.RESTR>
0

>  <SCORE.RESTR.CAVITY>
0

>  <SCORE.RESTR.norm>
0

>  <SCORE.SYSTEM>
0

>  <SCORE.SYSTEM.CONST>
0

>  <SCORE.SYSTEM.DIHEDRAL>
0

>  <SCORE.SYSTEM.SOLV>
0

>  <SCORE.SYSTEM.norm>
0

>  <SCORE.heavy>
11

>  <SCORE.norm>
-0.932802

>  <RMSD>
3.342

$$$$
ligand
 OpenBabel02271912153D
libRbt.so/2013.1/901 2013/11/27
 11 12  0  0  0  0  0  0  0  0999 V2000
  -11.6741  -12.3996    6.2969 N   0  0  0  0  0  0  0  0  0  0  0  0
  -10.9498  -13.5184    6.1347 C   0  0  0  0  0  0  0  0  0  0  0  0
  -10.4039  -13.7861    4.9518 N   0  0  0  0  0  0  0  0  0  0  0  0
  -10.7800  -14.3753    7.1536 N   0  0  0  0  0  0  0  0  0  0  0  0
  -11.3324  -14.1327    8.3515 C   0  0  0  0  0  0  0  0  0  0  0  0
  -12.0866  -12.9825    8.5462 C   0  0  0  0  0  0  0  0  0  0  0  0
  -12.2462  -12.1086    7.4759 C   0  0  0  0  0  0  0  0  0  0  0  0
  -12.9522  -10.9912    7.6210 N   0  0  0  0  0  0  0  0  0  0  0  0
  -12.5226  -12.9979    9.8023 N   0  0  0  0  0  0  0  0  0  0  0  0
  -12.0662  -14.1077   10.3783 C   0  0  0  0  0  0  0  0  0  0  0  0
  -11.3423  -14.8004    9.5016 N   0  0  0  0  0  0  0  0  0  0  0  0
  1  7  2  0  0  0  0
  1  2  1  0  0  0  0
  2  3  1  0  0  0  0
  2  4  2  0  0  0  0
  4  5  1  0  0  0  0
  5  6  2  0  0  0  0
  5 11  1  0  0  0  0
  6  7  1  0  0  0  0
  6  9  1  0  0  0  0
  7  8  1  0  0  0  0
  9 10  1  0  0  0  0
 10 11  2  0  0  0  0
M  END
>  <CHROM.1>
-11.66405932,-13.28546704,7.81408873,1.09292125,0.97083119,-1.04772365

>  <Name>
ligand

>  <RI>
0

>  <Rbt.Current_Directory>
/home/itssahil/PROJECTS/Mol_Feturizer/Test_systems_manuscript/rnas/2b57

>  <Rbt.Executable>
rbdock ($Id: //depot/dev/client3/rdock/2013.1/src/exe/rbdock.cxx#4 $)

>  <Rbt.Library>
libRbt.so (2013.1, Build901 2013/11/27)

>  <Rbt.Parameter_File>
/export/apps/rDock/src/rDock_2013.1_src/data/scripts/dock_solv.prm

>  <Rbt.Receptor>
prm/pocket_docking_5.prm

>  <SCORE>
-10.2589

>  <SCORE.INTER>
-10.2589

>  <SCORE.INTER.CONST>
1

>  <SCORE.INTER.POLAR>
0

>  <SCORE.INTER.ROT>
0

>  <SCORE.INTER.SOLV>
18.2288

>  <SCORE.INTER.VDW>
-16.5155

>  <SCORE.INTER.norm>
-0.932626

>  <SCORE.INTRA>
0

>  <SCORE.INTRA.DIHEDRAL>
0

>  <SCORE.INTRA.DIHEDRAL.0>
0

>  <SCORE.INTRA.POLAR>
0

>  <SCORE.INTRA.POLAR.0>
0

>  <SCORE.INTRA.REPUL>
0

>  <SCORE.INTRA.REPUL.0>
0

>  <SCORE.INTRA.SOLV>
0

>  <SCORE.INTRA.SOLV.lig_0>
-48.3454

>  <SCORE.INTRA.VDW>
0

>  <SCORE.INTRA.VDW.0>
0

>  <SCORE.INTRA.norm>
0

>  <SCORE.RESTR>
0

>  <SCORE.RESTR.CAVITY>
0

>  <SCORE.RESTR.norm>
0

>  <SCORE.SYSTEM>
0

>  <SCORE.SYSTEM.CONST>
0

>  <SCORE.SYSTEM.DIHEDRAL>
0

>  <SCORE.SYSTEM.SOLV>
0

>  <SCORE.SYSTEM.norm>
0

>  <SCORE.heavy>
11

>  <SCORE.norm>
-0.932626

>  <RMSD>
3.342

$$$$
ligand
 OpenBabel02271912153D
libRbt.so/2013.1/901 2013/11/27
 11 12  0  0  0  0  0  0  0  0999 V2000
  -11.6718  -12.4023    6.2975 N   0  0  0  0  0  0  0  0  0  0  0  0
  -10.9434  -13.5196    6.1427 C   0  0  0  0  0  0  0  0  0  0  0  0
  -10.3925  -13.7906    4.9628 N   0  0  0  0  0  0  0  0  0  0  0  0
  -10.7744  -14.3715    7.1658 N   0  0  0  0  0  0  0  0  0  0  0  0
  -11.3317  -14.1254    8.3607 C   0  0  0  0  0  0  0  0  0  0  0  0
  -12.0902  -12.9768    8.5479 C   0  0  0  0  0  0  0  0  0  0  0  0
  -12.2488  -12.1080    7.4732 C   0  0  0  0  0  0  0  0  0  0  0  0
  -12.9589  -10.9922    7.6110 N   0  0  0  0  0  0  0  0  0  0  0  0
  -12.5305  -12.9880    9.8024 N   0  0  0  0  0  0  0  0  0  0  0  0
  -12.0726  -14.0939   10.3849 C   0  0  0  0  0  0  0  0  0  0  0  0
  -11.3435  -14.7881    9.5137 N   0  0  0  0  0  0  0  0  0  0  0  0
  1  7  2  0  0  0  0
  1  2  1  0  0  0  0
  2  3  1  0  0  0  0
  2  4  2  0  0  0  0
  4  5  1  0  0  0  0
  5  6  2  0  0  0  0
  5 11  1  0  0  0  0
  6  7  1  0  0  0  0
  6  9  1  0  0  0  0
  7  8  1  0  0  0  0
  9 10  1  0  0  0  0
 10 11  2  0  0  0  0
M  END
>  <CHROM.1>
-11.66420073,-13.28157201,7.81851087,1.09040738,0.96637728,-1.05000820

>  <Name>
ligand

>  <RI>
0

>  <Rbt.Current_Directory>
/home/itssahil/PROJECTS/Mol_Feturizer/Test_systems_manuscript/rnas/2b57

>  <Rbt.Executable>
rbdock ($Id: //depot/dev/client3/rdock/2013.1/src/exe/rbdock.cxx#4 $)

>  <Rbt.Library>
libRbt.so (2013.1, Build901 2013/11/27)

>  <Rbt.Parameter_File>
/export/apps/rDock/src/rDock_2013.1_src/data/scripts/dock_solv.prm

>  <Rbt.Receptor>
prm/pocket_docking_6.prm

>  <SCORE>
-10.2553

>  <SCORE.INTER>
-10.2553

>  <SCORE.INTER.CONST>
1

>  <SCORE.INTER.POLAR>
0

>  <SCORE.INTER.ROT>
0

>  <SCORE.INTER.SOLV>
18.1507

>  <SCORE.INTER.VDW>
-16.4871

>  <SCORE.INTER.norm>
-0.932304

>  <SCORE.INTRA>
0

>  <SCORE.INTRA.DIHEDRAL>
0

>  <SCORE.INTRA.DIHEDRAL.0>
0

>  <SCORE.INTRA.POLAR>
0

>  <SCORE.INTRA.POLAR.0>
0

>  <SCORE.INTRA.REPUL>
0

>  <SCORE.INTRA.REPUL.0>
0

>  <SCORE.INTRA.SOLV>
0

>  <SCORE.INTRA.SOLV.lig_0>
-48.3454

>  <SCORE.INTRA.VDW>
0

>  <SCORE.INTRA.VDW.0>
0

>  <SCORE.INTRA.norm>
0

>  <SCORE.RESTR>
0

>  <SCORE.RESTR.CAVITY>
0

>  <SCORE.RESTR.norm>
0

>  <SCORE.SYSTEM>
0

>  <SCORE.SYSTEM.CONST>
0

>  <SCORE.SYSTEM.DIHEDRAL>
0

>  <SCORE.SYSTEM.SOLV>
0

>  <SCORE.SYSTEM.norm>
0

>  <SCORE.heavy>
11

>  <SCORE.norm>
-0.932304

>  <RMSD>
3.342

$$$$
ligand
 OpenBabel02271912153D
libRbt.so/2013.1/901 2013/11/27
 11 12  0  0  0  0  0  0  0  0999 V2000
  -11.6236  -12.3666    6.2023 N   0  0  0  0  0  0  0  0  0  0  0  0
  -10.8616  -13.4606    6.0437 C   0  0  0  0  0  0  0  0  0  0  0  0
  -10.3236  -13.7243    4.8562 N   0  0  0  0  0  0  0  0  0  0  0  0
  -10.6460  -14.2970    7.0708 N   0  0  0  0  0  0  0  0  0  0  0  0
  -11.1893  -14.0584    8.2737 C   0  0  0  0  0  0  0  0  0  0  0  0
  -11.9819  -12.9337    8.4649 C   0  0  0  0  0  0  0  0  0  0  0  0
  -12.1886  -12.0806    7.3859 C   0  0  0  0  0  0  0  0  0  0  0  0
  -12.9325  -10.9875    7.5271 N   0  0  0  0  0  0  0  0  0  0  0  0
  -12.3987  -12.9479    9.7274 N   0  0  0  0  0  0  0  0  0  0  0  0
  -11.8939  -14.0327   10.3109 C   0  0  0  0  0  0  0  0  0  0  0  0
  -11.1582  -14.7105    9.4323 N   0  0  0  0  0  0  0  0  0  0  0  0
  1  7  2  0  0  0  0
  1  2  1  0  0  0  0
  2  3  1  0  0  0  0
  2  4  2  0  0  0  0
  4  5  1  0  0  0  0
  5  6  2  0  0  0  0
  5 11  1  0  0  0  0
  6  7  1  0  0  0  0
  6  9  1  0  0  0  0
  7  8  1  0  0  0  0
  9 10  1  0  0  0  0
 10 11  2  0  0  0  0
M  END
>  <CHROM.1>
-11.55933347,-13.23103413,7.73043755,1.14550561,0.94601267,-1.10395920

>  <Name>
ligand

>  <RI>
0

>  <Rbt.Current_Directory>
/home/itssahil/PROJECTS/Mol_Feturizer/Test_systems_manuscript/rnas/2b57

>  <Rbt.Executable>
rbdock ($Id: //depot/dev/client3/rdock/2013.1/src/exe/rbdock.cxx#4 $)

>  <Rbt.Library>
libRbt.so (2013.1, Build901 2013/11/27)

>  <Rbt.Parameter_File>
/export/apps/rDock/src/rDock_2013.1_src/data/scripts/dock_solv.prm

>  <Rbt.Receptor>
prm/blind_docking_100.prm

>  <SCORE>
-10.3032

>  <SCORE.INTER>
-10.3032

>  <SCORE.INTER.CONST>
1

>  <SCORE.INTER.POLAR>
0

>  <SCORE.INTER.ROT>
0

>  <SCORE.INTER.SOLV>
18.5305

>  <SCORE.INTER.VDW>
-16.6457

>  <SCORE.INTER.norm>
-0.936659

>  <SCORE.INTRA>
0

>  <SCORE.INTRA.DIHEDRAL>
0

>  <SCORE.INTRA.DIHEDRAL.0>
0

>  <SCORE.INTRA.POLAR>
0

>  <SCORE.INTRA.POLAR.0>
0

>  <SCORE.INTRA.REPUL>
0

>  <SCORE.INTRA.REPUL.0>
0

>  <SCORE.INTRA.SOLV>
0

>  <SCORE.INTRA.SOLV.lig_0>
-48.3454

>  <SCORE.INTRA.VDW>
0

>  <SCORE.INTRA.VDW.0>
0

>  <SCORE.INTRA.norm>
0

>  <SCORE.RESTR>
0

>  <SCORE.RESTR.CAVITY>
0

>  <SCORE.RESTR.norm>
0

>  <SCORE.SYSTEM>
0

>  <SCORE.SYSTEM.CONST>
0

>  <SCORE.SYSTEM.DIHEDRAL>
0

>  <SCORE.SYSTEM.SOLV>
0

>  <SCORE.SYSTEM.norm>
0

>  <SCORE.heavy>
11

>  <SCORE.norm>
-0.936659

>  <RMSD>
3.343

$$$$
ligand
 OpenBabel02271912153D
libRbt.so/2013.1/901 2013/11/27
 11 12  0  0  0  0  0  0  0  0999 V2000
  -11.6845  -12.4163    6.2530 N   0  0  0  0  0  0  0  0  0  0  0  0
  -10.9474  -13.5265    6.0892 C   0  0  0  0  0  0  0  0  0  0  0  0
  -10.4358  -13.8092    4.8945 N   0  0  0  0  0  0  0  0  0  0  0  0
  -10.7304  -14.3597    7.1186 N   0  0  0  0  0  0  0  0  0  0  0  0
  -11.2475  -14.1018    8.3289 C   0  0  0  0  0  0  0  0  0  0  0  0
  -12.0140  -12.9601    8.5257 C   0  0  0  0  0  0  0  0  0  0  0  0
  -12.2227  -12.1107    7.4442 C   0  0  0  0  0  0  0  0  0  0  0  0
  -12.9421  -11.0020    7.5903 N   0  0  0  0  0  0  0  0  0  0  0  0
  -12.4086  -12.9570    9.7954 N   0  0  0  0  0  0  0  0  0  0  0  0
  -11.9153  -14.0476   10.3779 C   0  0  0  0  0  0  0  0  0  0  0  0
  -11.2089  -14.7462    9.4917 N   0  0  0  0  0  0  0  0  0  0  0  0
  1  7  2  0  0  0  0
  1  2  1  0  0  0  0
  2  3  1  0  0  0  0
  2  4  2  0  0  0  0
  4  5  1  0  0  0  0
  5  6  2  0  0  0  0
  5 11  1  0  0  0  0
  6  7  1  0  0  0  0
  6  9  1  0  0  0  0
  7  8  1  0  0  0  0
  9 10  1  0  0  0  0
 10 11  2  0  0  0  0
M  END
>  <CHROM.1>
-11.61048473,-13.27102488,7.78615388,1.15760141,0.97170585,-1.12108906

>  <Name>
ligand

>  <RI>
0

>  <Rbt.Current_Directory>
/home/itssahil/PROJECTS/Mol_Feturizer/Test_systems_manuscript/rnas/2b57

>  <Rbt.Executable>
rbdock ($Id: //depot/dev/client3/rdock/2013.1/src/exe/rbdock.cxx#4 $)

>  <Rbt.Library>
libRbt.so (2013.1, Build901 2013/11/27)

>  <Rbt.Parameter_File>
/export/apps/rDock/src/rDock_2013.1_src/data/scripts/dock_solv.prm

>  <Rbt.Receptor>
prm/blind_docking_60.prm

>  <SCORE>
-10.3471

>  <SCORE.INTER>
-10.3471

>  <SCORE.INTER.CONST>
1

>  <SCORE.INTER.POLAR>
0

>  <SCORE.INTER.ROT>
0

>  <SCORE.INTER.SOLV>
18.5323

>  <SCORE.INTER.VDW>
-16.6755

>  <SCORE.INTER.norm>
-0.940646

>  <SCORE.INTRA>
0

>  <SCORE.INTRA.DIHEDRAL>
0

>  <SCORE.INTRA.DIHEDRAL.0>
0

>  <SCORE.INTRA.POLAR>
0

>  <SCORE.INTRA.POLAR.0>
0

>  <SCORE.INTRA.REPUL>
0

>  <SCORE.INTRA.REPUL.0>
0

>  <SCORE.INTRA.SOLV>
0

>  <SCORE.INTRA.SOLV.lig_0>
-48.3454

>  <SCORE.INTRA.VDW>
0

>  <SCORE.INTRA.VDW.0>
0

>  <SCORE.INTRA.norm>
0

>  <SCORE.RESTR>
0

>  <SCORE.RESTR.CAVITY>
0

>  <SCORE.RESTR.norm>
0

>  <SCORE.SYSTEM>
0

>  <SCORE.SYSTEM.CONST>
0

>  <SCORE.SYSTEM.DIHEDRAL>
0

>  <SCORE.SYSTEM.SOLV>
0

>  <SCORE.SYSTEM.norm>
0

>  <SCORE.heavy>
11

>  <SCORE.norm>
-0.940646

>  <RMSD>
3.343

$$$$
ligand
 OpenBabel02271912153D
libRbt.so/2013.1/901 2013/11/27
 11 12  0  0  0  0  0  0  0  0999 V2000
  -11.6605  -12.4027    6.2603 N   0  0  0  0  0  0  0  0  0  0  0  0
  -10.9078  -13.5037    6.1052 C   0  0  0  0  0  0  0  0  0  0  0  0
  -10.3772  -13.7791    4.9171 N   0  0  0  0  0  0  0  0  0  0  0  0
  -10.6943  -14.3354    7.1367 N   0  0  0  0  0  0  0  0  0  0  0  0
  -11.2303  -14.0850    8.3403 C   0  0  0  0  0  0  0  0  0  0  0  0
  -12.0131  -12.9529    8.5280 C   0  0  0  0  0  0  0  0  0  0  0  0
  -12.2179  -12.1049    7.4446 C   0  0  0  0  0  0  0  0  0  0  0  0
  -12.9525  -11.0051    7.5822 N   0  0  0  0  0  0  0  0  0  0  0  0
  -12.4244  -12.9558    9.7924 N   0  0  0  0  0  0  0  0  0  0  0  0
  -11.9257  -14.0409   10.3804 C   0  0  0  0  0  0  0  0  0  0  0  0
  -11.1992  -14.7300    9.5029 N   0  0  0  0  0  0  0  0  0  0  0  0
  1  7  2  0  0  0  0
  1  2  1  0  0  0  0
  2  3  1  0  0  0  0
  2  4  2  0  0  0  0
  4  5  1  0  0  0  0
  5  6  2  0  0  0  0
  5 11  1  0  0  0  0
  6  7  1  0  0  0  0
  6  9  1  0  0  0  0
  7  8  1  0  0  0  0
  9 10  1  0  0  0  0
 10 11  2  0  0  0  0
M  END
>  <CHROM.1>
-11.59621038,-13.25808064,7.79356141,1.14622665,0.95506886,-1.11080269

>  <Name>
ligand

>  <RI>
0

>  <Rbt.Current_Directory>
/home/itssahil/PROJECTS/Mol_Feturizer/Test_systems_manuscript/rnas/2b57

>  <Rbt.Executable>
rbdock ($Id: //depot/dev/client3/rdock/2013.1/src/exe/rbdock.cxx#4 $)

>  <Rbt.Library>
libRbt.so (2013.1, Build901 2013/11/27)

>  <Rbt.Parameter_File>
/export/apps/rDock/src/rDock_2013.1_src/data/scripts/dock_solv.prm

>  <Rbt.Receptor>
prm/blind_docking_80.prm

>  <SCORE>
-10.327

>  <SCORE.INTER>
-10.327

>  <SCORE.INTER.CONST>
1

>  <SCORE.INTER.POLAR>
0

>  <SCORE.INTER.ROT>
0

>  <SCORE.INTER.SOLV>
18.3042

>  <SCORE.INTER.VDW>
-16.5861

>  <SCORE.INTER.norm>
-0.938822

>  <SCORE.INTRA>
0

>  <SCORE.INTRA.DIHEDRAL>
0

>  <SCORE.INTRA.DIHEDRAL.0>
0

>  <SCORE.INTRA.POLAR>
0

>  <SCORE.INTRA.POLAR.0>
0

>  <SCORE.INTRA.REPUL>
0

>  <SCORE.INTRA.REPUL.0>
0

>  <SCORE.INTRA.SOLV>
0

>  <SCORE.INTRA.SOLV.lig_0>
-48.3454

>  <SCORE.INTRA.VDW>
0

>  <SCORE.INTRA.VDW.0>
0

>  <SCORE.INTRA.norm>
0

>  <SCORE.RESTR>
0

>  <SCORE.RESTR.CAVITY>
0

>  <SCORE.RESTR.norm>
0

>  <SCORE.SYSTEM>
0

>  <SCORE.SYSTEM.CONST>
0

>  <SCORE.SYSTEM.DIHEDRAL>
0

>  <SCORE.SYSTEM.SOLV>
0

>  <SCORE.SYSTEM.norm>
0

>  <SCORE.heavy>
11

>  <SCORE.norm>
-0.938822

>  <RMSD>
3.343

$$$$
ligand
 OpenBabel02271912153D
libRbt.so/2013.1/901 2013/11/27
 11 12  0  0  0  0  0  0  0  0999 V2000
  -11.6554  -12.4013    6.2543 N   0  0  0  0  0  0  0  0  0  0  0  0
  -10.9042  -13.5032    6.0988 C   0  0  0  0  0  0  0  0  0  0  0  0
  -10.3739  -13.7787    4.9106 N   0  0  0  0  0  0  0  0  0  0  0  0
  -10.6917  -14.3355    7.1299 N   0  0  0  0  0  0  0  0  0  0  0  0
  -11.2275  -14.0849    8.3337 C   0  0  0  0  0  0  0  0  0  0  0  0
  -12.0088  -12.9519    8.5218 C   0  0  0  0  0  0  0  0  0  0  0  0
  -12.2125  -12.1032    7.4387 C   0  0  0  0  0  0  0  0  0  0  0  0
  -12.9457  -11.0025    7.5768 N   0  0  0  0  0  0  0  0  0  0  0  0
  -12.4202  -12.9548    9.7862 N   0  0  0  0  0  0  0  0  0  0  0  0
  -11.9228  -14.0408   10.3738 C   0  0  0  0  0  0  0  0  0  0  0  0
  -11.1972  -14.7305    9.4960 N   0  0  0  0  0  0  0  0  0  0  0  0
  1  7  2  0  0  0  0
  1  2  1  0  0  0  0
  2  3  1  0  0  0  0
  2  4  2  0  0  0  0
  4  5  1  0  0  0  0
  5  6  2  0  0  0  0
  5 11  1  0  0  0  0
  6  7  1  0  0  0  0
  6  9  1  0  0  0  0
  7  8  1  0  0  0  0
  9 10  1  0  0  0  0
 10 11  2  0  0  0  0
M  END
>  <CHROM.1>
-11.59227743,-13.25734205,7.78727397,1.14520832,0.95620422,-1.10956268

>  <Name>
ligand

>  <RI>
0

>  <Rbt.Current_Directory>
/home/itssahil/PROJECTS/Mol_Feturizer/Test_systems_manuscript/rnas/2b57

>  <Rbt.Executable>
rbdock ($Id: //depot/dev/client3/rdock/2013.1/src/exe/rbdock.cxx#4 $)

>  <Rbt.Library>
libRbt.so (2013.1, Build901 2013/11/27)

>  <Rbt.Parameter_File>
/export/apps/rDock/src/rDock_2013.1_src/data/scripts/dock_solv.prm

>  <Rbt.Receptor>
prm/pocket_docking_7.prm

>  <SCORE>
-10.3296

>  <SCORE.INTER>
-10.3296

>  <SCORE.INTER.CONST>
1

>  <SCORE.INTER.POLAR>
0

>  <SCORE.INTER.ROT>
0

>  <SCORE.INTER.SOLV>
18.3348

>  <SCORE.INTER.VDW>
-16.598

>  <SCORE.INTER.norm>
-0.939057

>  <SCORE.INTRA>
0

>  <SCORE.INTRA.DIHEDRAL>
0

>  <SCORE.INTRA.DIHEDRAL.0>
0

>  <SCORE.INTRA.POLAR>
0

>  <SCORE.INTRA.POLAR.0>
0

>  <SCORE.INTRA.REPUL>
0

>  <SCORE.INTRA.REPUL.0>
0

>  <SCORE.INTRA.SOLV>
0

>  <SCORE.INTRA.SOLV.lig_0>
-48.3454

>  <SCORE.INTRA.VDW>
0

>  <SCORE.INTRA.VDW.0>
0

>  <SCORE.INTRA.norm>
0

>  <SCORE.RESTR>
0

>  <SCORE.RESTR.CAVITY>
0

>  <SCORE.RESTR.norm>
0

>  <SCORE.SYSTEM>
0

>  <SCORE.SYSTEM.CONST>
0

>  <SCORE.SYSTEM.DIHEDRAL>
0

>  <SCORE.SYSTEM.SOLV>
0

>  <SCORE.SYSTEM.norm>
0

>  <SCORE.heavy>
11

>  <SCORE.norm>
-0.939057

>  <RMSD>
3.343

$$$$
ligand
 OpenBabel02271912153D
libRbt.so/2013.1/901 2013/11/27
 11 12  0  0  0  0  0  0  0  0999 V2000
  -11.6912  -12.4155    6.2588 N   0  0  0  0  0  0  0  0  0  0  0  0
  -10.9480  -13.5215    6.0940 C   0  0  0  0  0  0  0  0  0  0  0  0
  -10.4353  -13.8007    4.8989 N   0  0  0  0  0  0  0  0  0  0  0  0
  -10.7259  -14.3541    7.1228 N   0  0  0  0  0  0  0  0  0  0  0  0
  -11.2439  -14.0999    8.3335 C   0  0  0  0  0  0  0  0  0  0  0  0
  -12.0167  -12.9626    8.5313 C   0  0  0  0  0  0  0  0  0  0  0  0
  -12.2306  -12.1136    7.4504 C   0  0  0  0  0  0  0  0  0  0  0  0
  -12.9561  -11.0090    7.5975 N   0  0  0  0  0  0  0  0  0  0  0  0
  -12.4108  -12.9624    9.8011 N   0  0  0  0  0  0  0  0  0  0  0  0
  -11.9112  -14.0506   10.3828 C   0  0  0  0  0  0  0  0  0  0  0  0
  -11.2013  -14.7447    9.4958 N   0  0  0  0  0  0  0  0  0  0  0  0
  1  7  2  0  0  0  0
  1  2  1  0  0  0  0
  2  3  1  0  0  0  0
  2  4  2  0  0  0  0
  4  5  1  0  0  0  0
  5  6  2  0  0  0  0
  5 11  1  0  0  0  0
  6  7  1  0  0  0  0
  6  9  1  0  0  0  0
  7  8  1  0  0  0  0
  9 10  1  0  0  0  0
 10 11  2  0  0  0  0
M  END
>  <CHROM.1>
-11.61177659,-13.27075510,7.79139523,1.16250024,0.96688176,-1.12451416

>  <Name>
ligand

>  <RI>
0

>  <Rbt.Current_Directory>
/home/itssahil/PROJECTS/Mol_Feturizer/Test_systems_manuscript/rnas/2b57

>  <Rbt.Executable>
rbdock ($Id: //depot/dev/client3/rdock/2013.1/src/exe/rbdock.cxx#4 $)

>  <Rbt.Library>
libRbt.so (2013.1, Build901 2013/11/27)

>  <Rbt.Parameter_File>
/export/apps/rDock/src/rDock_2013.1_src/data/scripts/dock_solv.prm

>  <Rbt.Receptor>
prm/blind_docking_100.prm

>  <SCORE>
-10.3417

>  <SCORE.INTER>
-10.3417

>  <SCORE.INTER.CONST>
1

>  <SCORE.INTER.POLAR>
0

>  <SCORE.INTER.ROT>
0

>  <SCORE.INTER.SOLV>
18.4999

>  <SCORE.INTER.VDW>
-16.6611

>  <SCORE.INTER.norm>
-0.940157

>  <SCORE.INTRA>
0

>  <SCORE.INTRA.DIHEDRAL>
0

>  <SCORE.INTRA.DIHEDRAL.0>
0

>  <SCORE.INTRA.POLAR>
0

>  <SCORE.INTRA.POLAR.0>
0

>  <SCORE.INTRA.REPUL>
0

>  <SCORE.INTRA.REPUL.0>
0

>  <SCORE.INTRA.SOLV>
0

>  <SCORE.INTRA.SOLV.lig_0>
-48.3454

>  <SCORE.INTRA.VDW>
0

>  <SCORE.INTRA.VDW.0>
0

>  <SCORE.INTRA.norm>
0

>  <SCORE.RESTR>
0

>  <SCORE.RESTR.CAVITY>
0

>  <SCORE.RESTR.norm>
0

>  <SCORE.SYSTEM>
0

>  <SCORE.SYSTEM.CONST>
0

>  <SCORE.SYSTEM.DIHEDRAL>
0

>  <SCORE.SYSTEM.SOLV>
0

>  <SCORE.SYSTEM.norm>
0

>  <SCORE.heavy>
11

>  <SCORE.norm>
-0.940157

>  <RMSD>
3.344

$$$$
ligand
 OpenBabel02271912153D
libRbt.so/2013.1/901 2013/11/27
 11 12  0  0  0  0  0  0  0  0999 V2000
  -11.6385  -12.4087    6.2312 N   0  0  0  0  0  0  0  0  0  0  0  0
  -10.8786  -13.5057    6.0833 C   0  0  0  0  0  0  0  0  0  0  0  0
  -10.3405  -13.7816    4.8987 N   0  0  0  0  0  0  0  0  0  0  0  0
  -10.6650  -14.3327    7.1185 N   0  0  0  0  0  0  0  0  0  0  0  0
  -11.2084  -14.0817    8.3187 C   0  0  0  0  0  0  0  0  0  0  0  0
  -11.9989  -12.9537    8.4989 C   0  0  0  0  0  0  0  0  0  0  0  0
  -12.2035  -12.1104    7.4118 C   0  0  0  0  0  0  0  0  0  0  0  0
  -12.9454  -11.0147    7.5423 N   0  0  0  0  0  0  0  0  0  0  0  0
  -12.4163  -12.9551    9.7613 N   0  0  0  0  0  0  0  0  0  0  0  0
  -11.9138  -14.0353   10.3552 C   0  0  0  0  0  0  0  0  0  0  0  0
  -11.1790  -14.7228    9.4835 N   0  0  0  0  0  0  0  0  0  0  0  0
  1  7  2  0  0  0  0
  1  2  1  0  0  0  0
  2  3  1  0  0  0  0
  2  4  2  0  0  0  0
  4  5  1  0  0  0  0
  5  6  2  0  0  0  0
  5 11  1  0  0  0  0
  6  7  1  0  0  0  0
  6  9  1  0  0  0  0
  7  8  1  0  0  0  0
  9 10  1  0  0  0  0
 10 11  2  0  0  0  0
M  END
>  <CHROM.1>
-11.57657016,-13.25874982,7.76750334,1.14337324,0.94751095,-1.11170460

>  <Name>
ligand

>  <RI>
0

>  <Rbt.Current_Directory>
/home/itssahil/PROJECTS/Mol_Feturizer/Test_systems_manuscript/rnas/2b57

>  <Rbt.Executable>
rbdock ($Id: //depot/dev/client3/rdock/2013.1/src/exe/rbdock.cxx#4 $)

>  <Rbt.Library>
libRbt.so (2013.1, Build901 2013/11/27)

>  <Rbt.Parameter_File>
/export/apps/rDock/src/rDock_2013.1_src/data/scripts/dock_solv.prm

>  <Rbt.Receptor>
prm/blind_docking_60.prm

>  <SCORE>
-10.327

>  <SCORE.INTER>
-10.327

>  <SCORE.INTER.CONST>
1

>  <SCORE.INTER.POLAR>
0

>  <SCORE.INTER.ROT>
0

>  <SCORE.INTER.SOLV>
18.3325

>  <SCORE.INTER.VDW>
-16.5955

>  <SCORE.INTER.norm>
-0.938815

>  <SCORE.INTRA>
0

>  <SCORE.INTRA.DIHEDRAL>
0

>  <SCORE.INTRA.DIHEDRAL.0>
0

>  <SCORE.INTRA.POLAR>
0

>  <SCORE.INTRA.POLAR.0>
0

>  <SCORE.INTRA.REPUL>
0

>  <SCORE.INTRA.REPUL.0>
0

>  <SCORE.INTRA.SOLV>
0

>  <SCORE.INTRA.SOLV.lig_0>
-48.3454

>  <SCORE.INTRA.VDW>
0

>  <SCORE.INTRA.VDW.0>
0

>  <SCORE.INTRA.norm>
0

>  <SCORE.RESTR>
0

>  <SCORE.RESTR.CAVITY>
0

>  <SCORE.RESTR.norm>
0

>  <SCORE.SYSTEM>
0

>  <SCORE.SYSTEM.CONST>
0

>  <SCORE.SYSTEM.DIHEDRAL>
0

>  <SCORE.SYSTEM.SOLV>
0

>  <SCORE.SYSTEM.norm>
0

>  <SCORE.heavy>
11

>  <SCORE.norm>
-0.938815

>  <RMSD>
3.344

$$$$
ligand
 OpenBabel02271912153D
libRbt.so/2013.1/901 2013/11/27
 11 12  0  0  0  0  0  0  0  0999 V2000
  -11.6487  -12.4213    6.2167 N   0  0  0  0  0  0  0  0  0  0  0  0
  -10.8812  -13.5156    6.0894 C   0  0  0  0  0  0  0  0  0  0  0  0
  -10.3278  -13.8011    4.9141 N   0  0  0  0  0  0  0  0  0  0  0  0
  -10.6754  -14.3305    7.1357 N   0  0  0  0  0  0  0  0  0  0  0  0
  -11.2342  -14.0698    8.3268 C   0  0  0  0  0  0  0  0  0  0  0  0
  -12.0328  -12.9443    8.4857 C   0  0  0  0  0  0  0  0  0  0  0  0
  -12.2291  -12.1137    7.3874 C   0  0  0  0  0  0  0  0  0  0  0  0
  -12.9782  -11.0206    7.4975 N   0  0  0  0  0  0  0  0  0  0  0  0
  -12.4650  -12.9346    9.7431 N   0  0  0  0  0  0  0  0  0  0  0  0
  -11.9639  -14.0057   10.3543 C   0  0  0  0  0  0  0  0  0  0  0  0
  -11.2152  -14.6984    9.4986 N   0  0  0  0  0  0  0  0  0  0  0  0
  1  7  2  0  0  0  0
  1  2  1  0  0  0  0
  2  3  1  0  0  0  0
  2  4  2  0  0  0  0
  4  5  1  0  0  0  0
  5  6  2  0  0  0  0
  5 11  1  0  0  0  0
  6  7  1  0  0  0  0
  6  9  1  0  0  0  0
  7  8  1  0  0  0  0
  9 10  1  0  0  0  0
 10 11  2  0  0  0  0
M  END
>  <CHROM.1>
-11.60027201,-13.25472696,7.76258088,1.12950667,0.93749807,-1.11108183

>  <Name>
ligand

>  <RI>
0

>  <Rbt.Current_Directory>
/home/itssahil/PROJECTS/Mol_Feturizer/Test_systems_manuscript/rnas/2b57

>  <Rbt.Executable>
rbdock ($Id: //depot/dev/client3/rdock/2013.1/src/exe/rbdock.cxx#4 $)

>  <Rbt.Library>
libRbt.so (2013.1, Build901 2013/11/27)

>  <Rbt.Parameter_File>
/export/apps/rDock/src/rDock_2013.1_src/data/scripts/dock_solv.prm

>  <Rbt.Receptor>
prm/blind_docking_80.prm

>  <SCORE>
-10.3277

>  <SCORE.INTER>
-10.3277

>  <SCORE.INTER.CONST>
1

>  <SCORE.INTER.POLAR>
0

>  <SCORE.INTER.ROT>
0

>  <SCORE.INTER.SOLV>
18.222

>  <SCORE.INTER.VDW>
-16.5591

>  <SCORE.INTER.norm>
-0.938882

>  <SCORE.INTRA>
0

>  <SCORE.INTRA.DIHEDRAL>
0

>  <SCORE.INTRA.DIHEDRAL.0>
0

>  <SCORE.INTRA.POLAR>
0

>  <SCORE.INTRA.POLAR.0>
0

>  <SCORE.INTRA.REPUL>
0

>  <SCORE.INTRA.REPUL.0>
0

>  <SCORE.INTRA.SOLV>
0

>  <SCORE.INTRA.SOLV.lig_0>
-48.3454

>  <SCORE.INTRA.VDW>
0

>  <SCORE.INTRA.VDW.0>
0

>  <SCORE.INTRA.norm>
0

>  <SCORE.RESTR>
0

>  <SCORE.RESTR.CAVITY>
0

>  <SCORE.RESTR.norm>
0

>  <SCORE.SYSTEM>
0

>  <SCORE.SYSTEM.CONST>
0

>  <SCORE.SYSTEM.DIHEDRAL>
0

>  <SCORE.SYSTEM.SOLV>
0

>  <SCORE.SYSTEM.norm>
0

>  <SCORE.heavy>
11

>  <SCORE.norm>
-0.938882

>  <RMSD>
3.344

$$$$
ligand
 OpenBabel02271912153D
libRbt.so/2013.1/901 2013/11/27
 11 12  0  0  0  0  0  0  0  0999 V2000
  -11.6714  -12.4004    6.2352 N   0  0  0  0  0  0  0  0  0  0  0  0
  -10.9156  -13.5006    6.0904 C   0  0  0  0  0  0  0  0  0  0  0  0
  -10.3778  -13.7813    4.9067 N   0  0  0  0  0  0  0  0  0  0  0  0
  -10.7059  -14.3261    7.1275 N   0  0  0  0  0  0  0  0  0  0  0  0
  -11.2492  -14.0702    8.3268 C   0  0  0  0  0  0  0  0  0  0  0  0
  -12.0355  -12.9388    8.5039 C   0  0  0  0  0  0  0  0  0  0  0  0
  -12.2361  -12.0973    7.4147 C   0  0  0  0  0  0  0  0  0  0  0  0
  -12.9738  -10.9984    7.5422 N   0  0  0  0  0  0  0  0  0  0  0  0
  -12.4538  -12.9357    9.7660 N   0  0  0  0  0  0  0  0  0  0  0  0
  -11.9559  -14.0165   10.3628 C   0  0  0  0  0  0  0  0  0  0  0  0
  -11.2232  -14.7088    9.4931 N   0  0  0  0  0  0  0  0  0  0  0  0
  1  7  2  0  0  0  0
  1  2  1  0  0  0  0
  2  3  1  0  0  0  0
  2  4  2  0  0  0  0
  4  5  1  0  0  0  0
  5  6  2  0  0  0  0
  5 11  1  0  0  0  0
  6  7  1  0  0  0  0
  6  9  1  0  0  0  0
  7  8  1  0  0  0  0
  9 10  1  0  0  0  0
 10 11  2  0  0  0  0
M  END
>  <CHROM.1>
-11.61382728,-13.24718071,7.77348944,1.13933331,0.95065122,-1.11070510

>  <Name>
ligand

>  <RI>
0

>  <Rbt.Current_Directory>
/home/itssahil/PROJECTS/Mol_Feturizer/Test_systems_manuscript/rnas/2b57

>  <Rbt.Executable>
rbdock ($Id: //depot/dev/client3/rdock/2013.1/src/exe/rbdock.cxx#4 $)

>  <Rbt.Library>
libRbt.so (2013.1, Build901 2013/11/27)

>  <Rbt.Parameter_File>
/export/apps/rDock/src/rDock_2013.1_src/data/scripts/dock_solv.prm

>  <Rbt.Receptor>
prm/pocket_docking_5.prm

>  <SCORE>
-10.3108

>  <SCORE.INTER>
-10.3108

>  <SCORE.INTER.CONST>
1

>  <SCORE.INTER.POLAR>
0

>  <SCORE.INTER.ROT>
0

>  <SCORE.INTER.SOLV>
18.3469

>  <SCORE.INTER.VDW>
-16.5895

>  <SCORE.INTER.norm>
-0.937349

>  <SCORE.INTRA>
0

>  <SCORE.INTRA.DIHEDRAL>
0

>  <SCORE.INTRA.DIHEDRAL.0>
0

>  <SCORE.INTRA.POLAR>
0

>  <SCORE.INTRA.POLAR.0>
0

>  <SCORE.INTRA.REPUL>
0

>  <SCORE.INTRA.REPUL.0>
0

>  <SCORE.INTRA.SOLV>
0

>  <SCORE.INTRA.SOLV.lig_0>
-48.3454

>  <SCORE.INTRA.VDW>
0

>  <SCORE.INTRA.VDW.0>
0

>  <SCORE.INTRA.norm>
0

>  <SCORE.RESTR>
0

>  <SCORE.RESTR.CAVITY>
0

>  <SCORE.RESTR.norm>
0

>  <SCORE.SYSTEM>
0

>  <SCORE.SYSTEM.CONST>
0

>  <SCORE.SYSTEM.DIHEDRAL>
0

>  <SCORE.SYSTEM.SOLV>
0

>  <SCORE.SYSTEM.norm>
0

>  <SCORE.heavy>
11

>  <SCORE.norm>
-0.937349

>  <RMSD>
3.344

$$$$
ligand
 OpenBabel02271912153D
libRbt.so/2013.1/901 2013/11/27
 11 12  0  0  0  0  0  0  0  0999 V2000
  -11.6435  -12.3874    6.2524 N   0  0  0  0  0  0  0  0  0  0  0  0
  -10.8709  -13.4741    6.0945 C   0  0  0  0  0  0  0  0  0  0  0  0
  -10.3341  -13.7359    4.9061 N   0  0  0  0  0  0  0  0  0  0  0  0
  -10.6433  -14.3051    7.1235 N   0  0  0  0  0  0  0  0  0  0  0  0
  -11.1851  -14.0684    8.3274 C   0  0  0  0  0  0  0  0  0  0  0  0
  -11.9884  -12.9512    8.5179 C   0  0  0  0  0  0  0  0  0  0  0  0
  -12.2074  -12.1036    7.4370 C   0  0  0  0  0  0  0  0  0  0  0  0
  -12.9620  -11.0177    7.5774 N   0  0  0  0  0  0  0  0  0  0  0  0
  -12.4009  -12.9658    9.7818 N   0  0  0  0  0  0  0  0  0  0  0  0
  -11.8832  -14.0436   10.3668 C   0  0  0  0  0  0  0  0  0  0  0  0
  -11.1435  -14.7165    9.4879 N   0  0  0  0  0  0  0  0  0  0  0  0
  1  7  2  0  0  0  0
  1  2  1  0  0  0  0
  2  3  1  0  0  0  0
  2  4  2  0  0  0  0
  4  5  1  0  0  0  0
  5  6  2  0  0  0  0
  5 11  1  0  0  0  0
  6  7  1  0  0  0  0
  6  9  1  0  0  0  0
  7  8  1  0  0  0  0
  9 10  1  0  0  0  0
 10 11  2  0  0  0  0
M  END
>  <CHROM.1>
-11.56531218,-13.24645415,7.78292106,1.15826844,0.93834716,-1.11731533

>  <Name>
ligand

>  <RI>
0

>  <Rbt.Current_Directory>
/home/itssahil/PROJECTS/Mol_Feturizer/Test_systems_manuscript/rnas/2b57

>  <Rbt.Executable>
rbdock ($Id: //depot/dev/client3/rdock/2013.1/src/exe/rbdock.cxx#4 $)

>  <Rbt.Library>
libRbt.so (2013.1, Build901 2013/11/27)

>  <Rbt.Parameter_File>
/export/apps/rDock/src/rDock_2013.1_src/data/scripts/dock_solv.prm

>  <Rbt.Receptor>
prm/pocket_docking_6.prm

>  <SCORE>
-10.3315

>  <SCORE.INTER>
-10.3315

>  <SCORE.INTER.CONST>
1

>  <SCORE.INTER.POLAR>
0

>  <SCORE.INTER.ROT>
0

>  <SCORE.INTER.SOLV>
18.2689

>  <SCORE.INTER.VDW>
-16.5773

>  <SCORE.INTER.norm>
-0.939227

>  <SCORE.INTRA>
0

>  <SCORE.INTRA.DIHEDRAL>
0

>  <SCORE.INTRA.DIHEDRAL.0>
0

>  <SCORE.INTRA.POLAR>
0

>  <SCORE.INTRA.POLAR.0>
0

>  <SCORE.INTRA.REPUL>
0

>  <SCORE.INTRA.REPUL.0>
0

>  <SCORE.INTRA.SOLV>
0

>  <SCORE.INTRA.SOLV.lig_0>
-48.3454

>  <SCORE.INTRA.VDW>
0

>  <SCORE.INTRA.VDW.0>
0

>  <SCORE.INTRA.norm>
0

>  <SCORE.RESTR>
0

>  <SCORE.RESTR.CAVITY>
0

>  <SCORE.RESTR.norm>
0

>  <SCORE.SYSTEM>
0

>  <SCORE.SYSTEM.CONST>
0

>  <SCORE.SYSTEM.DIHEDRAL>
0

>  <SCORE.SYSTEM.SOLV>
0

>  <SCORE.SYSTEM.norm>
0

>  <SCORE.heavy>
11

>  <SCORE.norm>
-0.939227

>  <RMSD>
3.344

$$$$
ligand
 OpenBabel02271912153D
libRbt.so/2013.1/901 2013/11/27
 11 12  0  0  0  0  0  0  0  0999 V2000
  -11.6430  -12.4008    6.2561 N   0  0  0  0  0  0  0  0  0  0  0  0
  -10.8732  -13.4915    6.1129 C   0  0  0  0  0  0  0  0  0  0  0  0
  -10.3043  -13.7488    4.9386 N   0  0  0  0  0  0  0  0  0  0  0  0
  -10.6808  -14.3310    7.1422 N   0  0  0  0  0  0  0  0  0  0  0  0
  -11.2554  -14.0989    8.3317 C   0  0  0  0  0  0  0  0  0  0  0  0
  -12.0566  -12.9777    8.5068 C   0  0  0  0  0  0  0  0  0  0  0  0
  -12.2389  -12.1213    7.4260 C   0  0  0  0  0  0  0  0  0  0  0  0
  -12.9901  -11.0314    7.5523 N   0  0  0  0  0  0  0  0  0  0  0  0
  -12.5053  -12.9981    9.7582 N   0  0  0  0  0  0  0  0  0  0  0  0
  -12.0117  -14.0833   10.3503 C   0  0  0  0  0  0  0  0  0  0  0  0
  -11.2514  -14.7552    9.4883 N   0  0  0  0  0  0  0  0  0  0  0  0
  1  7  2  0  0  0  0
  1  2  1  0  0  0  0
  2  3  1  0  0  0  0
  2  4  2  0  0  0  0
  4  5  1  0  0  0  0
  5  6  2  0  0  0  0
  5 11  1  0  0  0  0
  6  7  1  0  0  0  0
  6  9  1  0  0  0  0
  7  8  1  0  0  0  0
  9 10  1  0  0  0  0
 10 11  2  0  0  0  0
M  END
>  <CHROM.1>
-11.61443887,-13.27075066,7.78223898,1.11018869,0.93103474,-1.07173619

>  <Name>
ligand

>  <RI>
0

>  <Rbt.Current_Directory>
/home/itssahil/PROJECTS/Mol_Feturizer/Test_systems_manuscript/rnas/2b57

>  <Rbt.Executable>
rbdock ($Id: //depot/dev/client3/rdock/2013.1/src/exe/rbdock.cxx#4 $)

>  <Rbt.Library>
libRbt.so (2013.1, Build901 2013/11/27)

>  <Rbt.Parameter_File>
/export/apps/rDock/src/rDock_2013.1_src/data/scripts/dock_solv.prm

>  <Rbt.Receptor>
prm/pocket_docking_7.prm

>  <SCORE>
-10.3193

>  <SCORE.INTER>
-10.3193

>  <SCORE.INTER.CONST>
1

>  <SCORE.INTER.POLAR>
0

>  <SCORE.INTER.ROT>
0

>  <SCORE.INTER.SOLV>
18.0519

>  <SCORE.INTER.VDW>
-16.4969

>  <SCORE.INTER.norm>
-0.938121

>  <SCORE.INTRA>
0

>  <SCORE.INTRA.DIHEDRAL>
0

>  <SCORE.INTRA.DIHEDRAL.0>
0

>  <SCORE.INTRA.POLAR>
0

>  <SCORE.INTRA.POLAR.0>
0

>  <SCORE.INTRA.REPUL>
0

>  <SCORE.INTRA.REPUL.0>
0

>  <SCORE.INTRA.SOLV>
0

>  <SCORE.INTRA.SOLV.lig_0>
-48.3454

>  <SCORE.INTRA.VDW>
0

>  <SCORE.INTRA.VDW.0>
0

>  <SCORE.INTRA.norm>
0

>  <SCORE.RESTR>
0

>  <SCORE.RESTR.CAVITY>
0

>  <SCORE.RESTR.norm>
0

>  <SCORE.SYSTEM>
0

>  <SCORE.SYSTEM.CONST>
0

>  <SCORE.SYSTEM.DIHEDRAL>
0

>  <SCORE.SYSTEM.SOLV>
0

>  <SCORE.SYSTEM.norm>
0

>  <SCORE.heavy>
11

>  <SCORE.norm>
-0.938121

>  <RMSD>
3.344

$$$$
ligand
 OpenBabel02271912153D
libRbt.so/2013.1/901 2013/11/27
 11 12  0  0  0  0  0  0  0  0999 V2000
  -11.6702  -12.4094    6.2560 N   0  0  0  0  0  0  0  0  0  0  0  0
  -10.8902  -13.4930    6.1139 C   0  0  0  0  0  0  0  0  0  0  0  0
  -10.3215  -13.7479    4.9389 N   0  0  0  0  0  0  0  0  0  0  0  0
  -10.6872  -14.3278    7.1449 N   0  0  0  0  0  0  0  0  0  0  0  0
  -11.2613  -14.0981    8.3351 C   0  0  0  0  0  0  0  0  0  0  0  0
  -12.0730  -12.9844    8.5091 C   0  0  0  0  0  0  0  0  0  0  0  0
  -12.2662  -12.1326    7.4265 C   0  0  0  0  0  0  0  0  0  0  0  0
  -13.0277  -11.0498    7.5517 N   0  0  0  0  0  0  0  0  0  0  0  0
  -12.5187  -13.0058    9.7617 N   0  0  0  0  0  0  0  0  0  0  0  0
  -12.0131  -14.0846   10.3555 C   0  0  0  0  0  0  0  0  0  0  0  0
  -11.2483  -14.7513    9.4935 N   0  0  0  0  0  0  0  0  0  0  0  0
  1  7  2  0  0  0  0
  1  2  1  0  0  0  0
  2  3  1  0  0  0  0
  2  4  2  0  0  0  0
  4  5  1  0  0  0  0
  5  6  2  0  0  0  0
  5 11  1  0  0  0  0
  6  7  1  0  0  0  0
  6  9  1  0  0  0  0
  7  8  1  0  0  0  0
  9 10  1  0  0  0  0
 10 11  2  0  0  0  0
M  END
>  <CHROM.1>
-11.62970601,-13.27502096,7.78430242,1.12128996,0.92354180,-1.08326863

>  <Name>
ligand

>  <RI>
0

>  <Rbt.Current_Directory>
/home/itssahil/PROJECTS/Mol_Feturizer/Test_systems_manuscript/rnas/2b57

>  <Rbt.Executable>
rbdock ($Id: //depot/dev/client3/rdock/2013.1/src/exe/rbdock.cxx#4 $)

>  <Rbt.Library>
libRbt.so (2013.1, Build901 2013/11/27)

>  <Rbt.Parameter_File>
/export/apps/rDock/src/rDock_2013.1_src/data/scripts/dock_solv.prm

>  <Rbt.Receptor>
prm/blind_docking_100.prm

>  <SCORE>
-10.2858

>  <SCORE.INTER>
-10.2858

>  <SCORE.INTER.CONST>
1

>  <SCORE.INTER.POLAR>
0

>  <SCORE.INTER.ROT>
0

>  <SCORE.INTER.SOLV>
18.0539

>  <SCORE.INTER.VDW>
-16.4752

>  <SCORE.INTER.norm>
-0.935073

>  <SCORE.INTRA>
0

>  <SCORE.INTRA.DIHEDRAL>
0

>  <SCORE.INTRA.DIHEDRAL.0>
0

>  <SCORE.INTRA.POLAR>
0

>  <SCORE.INTRA.POLAR.0>
0

>  <SCORE.INTRA.REPUL>
0

>  <SCORE.INTRA.REPUL.0>
0

>  <SCORE.INTRA.SOLV>
0

>  <SCORE.INTRA.SOLV.lig_0>
-48.3454

>  <SCORE.INTRA.VDW>
0

>  <SCORE.INTRA.VDW.0>
0

>  <SCORE.INTRA.norm>
0

>  <SCORE.RESTR>
0

>  <SCORE.RESTR.CAVITY>
0

>  <SCORE.RESTR.norm>
0

>  <SCORE.SYSTEM>
0

>  <SCORE.SYSTEM.CONST>
0

>  <SCORE.SYSTEM.DIHEDRAL>
0

>  <SCORE.SYSTEM.SOLV>
0

>  <SCORE.SYSTEM.norm>
0

>  <SCORE.heavy>
11

>  <SCORE.norm>
-0.935073

>  <RMSD>
3.345

$$$$
ligand
 OpenBabel02271912153D
libRbt.so/2013.1/901 2013/11/27
 11 12  0  0  0  0  0  0  0  0999 V2000
  -11.6737  -12.4035    6.2478 N   0  0  0  0  0  0  0  0  0  0  0  0
  -10.8963  -13.4888    6.1051 C   0  0  0  0  0  0  0  0  0  0  0  0
  -10.3329  -13.7476    4.9284 N   0  0  0  0  0  0  0  0  0  0  0  0
  -10.6905  -14.3215    7.1374 N   0  0  0  0  0  0  0  0  0  0  0  0
  -11.2592  -14.0878    8.3294 C   0  0  0  0  0  0  0  0  0  0  0  0
  -12.0681  -12.9721    8.5040 C   0  0  0  0  0  0  0  0  0  0  0  0
  -12.2642  -12.1227    7.4201 C   0  0  0  0  0  0  0  0  0  0  0  0
  -13.0233  -11.0381    7.5458 N   0  0  0  0  0  0  0  0  0  0  0  0
  -12.5086  -12.9896    9.7585 N   0  0  0  0  0  0  0  0  0  0  0  0
  -12.0025  -14.0678   10.3528 C   0  0  0  0  0  0  0  0  0  0  0  0
  -11.2425  -14.7381    9.4893 N   0  0  0  0  0  0  0  0  0  0  0  0
  1  7  2  0  0  0  0
  1  2  1  0  0  0  0
  2  3  1  0  0  0  0
  2  4  2  0  0  0  0
  4  5  1  0  0  0  0
  5  6  2  0  0  0  0
  5 11  1  0  0  0  0
  6  7  1  0  0  0  0
  6  9  1  0  0  0  0
  7  8  1  0  0  0  0
  9 10  1  0  0  0  0
 10 11  2  0  0  0  0
M  END
>  <CHROM.1>
-11.62837553,-13.26533449,7.77810986,1.12601261,0.92710684,-1.08952137

>  <Name>
ligand

>  <RI>
0

>  <Rbt.Current_Directory>
/home/itssahil/PROJECTS/Mol_Feturizer/Test_systems_manuscript/rnas/2b57

>  <Rbt.Executable>
rbdock ($Id: //depot/dev/client3/rdock/2013.1/src/exe/rbdock.cxx#4 $)

>  <Rbt.Library>
libRbt.so (2013.1, Build901 2013/11/27)

>  <Rbt.Parameter_File>
/export/apps/rDock/src/rDock_2013.1_src/data/scripts/dock_solv.prm

>  <Rbt.Receptor>
prm/pocket_docking_5.prm

>  <SCORE>
-10.2826

>  <SCORE.INTER>
-10.2826

>  <SCORE.INTER.CONST>
1

>  <SCORE.INTER.POLAR>
0

>  <SCORE.INTER.ROT>
0

>  <SCORE.INTER.SOLV>
18.1274

>  <SCORE.INTER.VDW>
-16.4975

>  <SCORE.INTER.norm>
-0.934779

>  <SCORE.INTRA>
0

>  <SCORE.INTRA.DIHEDRAL>
0

>  <SCORE.INTRA.DIHEDRAL.0>
0

>  <SCORE.INTRA.POLAR>
0

>  <SCORE.INTRA.POLAR.0>
0

>  <SCORE.INTRA.REPUL>
0

>  <SCORE.INTRA.REPUL.0>
0

>  <SCORE.INTRA.SOLV>
0

>  <SCORE.INTRA.SOLV.lig_0>
-48.3454

>  <SCORE.INTRA.VDW>
0

>  <SCORE.INTRA.VDW.0>
0

>  <SCORE.INTRA.norm>
0

>  <SCORE.RESTR>
0

>  <SCORE.RESTR.CAVITY>
0

>  <SCORE.RESTR.norm>
0

>  <SCORE.SYSTEM>
0

>  <SCORE.SYSTEM.CONST>
0

>  <SCORE.SYSTEM.DIHEDRAL>
0

>  <SCORE.SYSTEM.SOLV>
0

>  <SCORE.SYSTEM.norm>
0

>  <SCORE.heavy>
11

>  <SCORE.norm>
-0.934779

>  <RMSD>
3.345

$$$$
ligand
 OpenBabel02271912153D
libRbt.so/2013.1/901 2013/11/27
 11 12  0  0  0  0  0  0  0  0999 V2000
  -11.6482  -12.4064    6.2390 N   0  0  0  0  0  0  0  0  0  0  0  0
  -10.8768  -13.4958    6.0954 C   0  0  0  0  0  0  0  0  0  0  0  0
  -10.3329  -13.7687    4.9128 N   0  0  0  0  0  0  0  0  0  0  0  0
  -10.6576  -14.3185    7.1329 N   0  0  0  0  0  0  0  0  0  0  0  0
  -11.2066  -14.0705    8.3312 C   0  0  0  0  0  0  0  0  0  0  0  0
  -12.0090  -12.9503    8.5069 C   0  0  0  0  0  0  0  0  0  0  0  0
  -12.2193  -12.1114    7.4175 C   0  0  0  0  0  0  0  0  0  0  0  0
  -12.9726  -11.0230    7.5438 N   0  0  0  0  0  0  0  0  0  0  0  0
  -12.4297  -12.9533    9.7683 N   0  0  0  0  0  0  0  0  0  0  0  0
  -11.9179  -14.0271   10.3658 C   0  0  0  0  0  0  0  0  0  0  0  0
  -11.1738  -14.7089    9.4974 N   0  0  0  0  0  0  0  0  0  0  0  0
  1  7  2  0  0  0  0
  1  2  1  0  0  0  0
  2  3  1  0  0  0  0
  2  4  2  0  0  0  0
  4  5  1  0  0  0  0
  5  6  2  0  0  0  0
  5 11  1  0  0  0  0
  6  7  1  0  0  0  0
  6  9  1  0  0  0  0
  7  8  1  0  0  0  0
  9 10  1  0  0  0  0
 10 11  2  0  0  0  0
M  END
>  <CHROM.1>
-11.58168844,-13.25253631,7.77729002,1.14698554,0.93724271,-1.11670640

>  <Name>
ligand

>  <RI>
0

>  <Rbt.Current_Directory>
/home/itssahil/PROJECTS/Mol_Feturizer/Test_systems_manuscript/rnas/2b57

>  <Rbt.Executable>
rbdock ($Id: //depot/dev/client3/rdock/2013.1/src/exe/rbdock.cxx#4 $)

>  <Rbt.Library>
libRbt.so (2013.1, Build901 2013/11/27)

>  <Rbt.Parameter_File>
/export/apps/rDock/src/rDock_2013.1_src/data/scripts/dock_solv.prm

>  <Rbt.Receptor>
prm/pocket_docking_8.prm

>  <SCORE>
-10.3569

>  <SCORE.INTER>
-10.3569

>  <SCORE.INTER.CONST>
1

>  <SCORE.INTER.POLAR>
0

>  <SCORE.INTER.ROT>
0

>  <SCORE.INTER.SOLV>
18.2255

>  <SCORE.INTER.VDW>
-16.5798

>  <SCORE.INTER.norm>
-0.941535

>  <SCORE.INTRA>
0

>  <SCORE.INTRA.DIHEDRAL>
0

>  <SCORE.INTRA.DIHEDRAL.0>
0

>  <SCORE.INTRA.POLAR>
0

>  <SCORE.INTRA.POLAR.0>
0

>  <SCORE.INTRA.REPUL>
0

>  <SCORE.INTRA.REPUL.0>
0

>  <SCORE.INTRA.SOLV>
0

>  <SCORE.INTRA.SOLV.lig_0>
-48.3454

>  <SCORE.INTRA.VDW>
0

>  <SCORE.INTRA.VDW.0>
0

>  <SCORE.INTRA.norm>
0

>  <SCORE.RESTR>
0

>  <SCORE.RESTR.CAVITY>
0

>  <SCORE.RESTR.norm>
0

>  <SCORE.SYSTEM>
0

>  <SCORE.SYSTEM.CONST>
0

>  <SCORE.SYSTEM.DIHEDRAL>
0

>  <SCORE.SYSTEM.SOLV>
0

>  <SCORE.SYSTEM.norm>
0

>  <SCORE.heavy>
11

>  <SCORE.norm>
-0.941535

>  <RMSD>
3.345

$$$$
ligand
 OpenBabel02271912153D
libRbt.so/2013.1/901 2013/11/27
 11 12  0  0  0  0  0  0  0  0999 V2000
  -11.6468  -12.4219    6.2264 N   0  0  0  0  0  0  0  0  0  0  0  0
  -10.8586  -13.5011    6.0966 C   0  0  0  0  0  0  0  0  0  0  0  0
  -10.3038  -13.7760    4.9195 N   0  0  0  0  0  0  0  0  0  0  0  0
  -10.6335  -14.3117    7.1423 N   0  0  0  0  0  0  0  0  0  0  0  0
  -11.1932  -14.0617    8.3352 C   0  0  0  0  0  0  0  0  0  0  0  0
  -12.0129  -12.9519    8.4968 C   0  0  0  0  0  0  0  0  0  0  0  0
  -12.2291  -12.1254    7.3991 C   0  0  0  0  0  0  0  0  0  0  0  0
  -12.9990  -11.0471    7.5117 N   0  0  0  0  0  0  0  0  0  0  0  0
  -12.4409  -12.9504    9.7556 N   0  0  0  0  0  0  0  0  0  0  0  0
  -11.9170  -14.0115   10.3652 C   0  0  0  0  0  0  0  0  0  0  0  0
  -11.1580  -14.6896    9.5070 N   0  0  0  0  0  0  0  0  0  0  0  0
  1  7  2  0  0  0  0
  1  2  1  0  0  0  0
  2  3  1  0  0  0  0
  2  4  2  0  0  0  0
  4  5  1  0  0  0  0
  5  6  2  0  0  0  0
  5 11  1  0  0  0  0
  6  7  1  0  0  0  0
  6  9  1  0  0  0  0
  7  8  1  0  0  0  0
  9 10  1  0  0  0  0
 10 11  2  0  0  0  0
M  END
>  <CHROM.1>
-11.57694561,-13.25398916,7.77221707,1.14884183,0.92149732,-1.12668960

>  <Name>
ligand

>  <RI>
0

>  <Rbt.Current_Directory>
/home/itssahil/PROJECTS/Mol_Feturizer/Test_systems_manuscript/rnas/2b57

>  <Rbt.Executable>
rbdock ($Id: //depot/dev/client3/rdock/2013.1/src/exe/rbdock.cxx#4 $)

>  <Rbt.Library>
libRbt.so (2013.1, Build901 2013/11/27)

>  <Rbt.Parameter_File>
/export/apps/rDock/src/rDock_2013.1_src/data/scripts/dock_solv.prm

>  <Rbt.Receptor>
prm/pocket_docking_4.prm

>  <SCORE>
-10.3772

>  <SCORE.INTER>
-10.3772

>  <SCORE.INTER.CONST>
1

>  <SCORE.INTER.POLAR>
0

>  <SCORE.INTER.ROT>
0

>  <SCORE.INTER.SOLV>
18.1109

>  <SCORE.INTER.VDW>
-16.5551

>  <SCORE.INTER.norm>
-0.943381

>  <SCORE.INTRA>
0

>  <SCORE.INTRA.DIHEDRAL>
0

>  <SCORE.INTRA.DIHEDRAL.0>
0

>  <SCORE.INTRA.POLAR>
0

>  <SCORE.INTRA.POLAR.0>
0

>  <SCORE.INTRA.REPUL>
0

>  <SCORE.INTRA.REPUL.0>
0

>  <SCORE.INTRA.SOLV>
0

>  <SCORE.INTRA.SOLV.lig_0>
-48.3454

>  <SCORE.INTRA.VDW>
0

>  <SCORE.INTRA.VDW.0>
0

>  <SCORE.INTRA.norm>
0

>  <SCORE.RESTR>
0

>  <SCORE.RESTR.CAVITY>
0

>  <SCORE.RESTR.norm>
0

>  <SCORE.SYSTEM>
0

>  <SCORE.SYSTEM.CONST>
0

>  <SCORE.SYSTEM.DIHEDRAL>
0

>  <SCORE.SYSTEM.SOLV>
0

>  <SCORE.SYSTEM.norm>
0

>  <SCORE.heavy>
11

>  <SCORE.norm>
-0.943381

>  <RMSD>
3.346

$$$$
ligand
 OpenBabel02271912153D
libRbt.so/2013.1/901 2013/11/27
 11 12  0  0  0  0  0  0  0  0999 V2000
  -11.6297  -12.4384    6.2367 N   0  0  0  0  0  0  0  0  0  0  0  0
  -10.8446  -13.5207    6.1143 C   0  0  0  0  0  0  0  0  0  0  0  0
  -10.2856  -13.8019    4.9407 N   0  0  0  0  0  0  0  0  0  0  0  0
  -10.6268  -14.3282    7.1640 N   0  0  0  0  0  0  0  0  0  0  0  0
  -11.1909  -14.0718    8.3535 C   0  0  0  0  0  0  0  0  0  0  0  0
  -12.0076  -12.9587    8.5074 C   0  0  0  0  0  0  0  0  0  0  0  0
  -12.2161  -12.1356    7.4056 C   0  0  0  0  0  0  0  0  0  0  0  0
  -12.9828  -11.0543    7.5109 N   0  0  0  0  0  0  0  0  0  0  0  0
  -12.4411  -12.9511    9.7643 N   0  0  0  0  0  0  0  0  0  0  0  0
  -11.9234  -14.0117   10.3801 C   0  0  0  0  0  0  0  0  0  0  0  0
  -11.1629  -14.6955    9.5278 N   0  0  0  0  0  0  0  0  0  0  0  0
  1  7  2  0  0  0  0
  1  2  1  0  0  0  0
  2  3  1  0  0  0  0
  2  4  2  0  0  0  0
  4  5  1  0  0  0  0
  5  6  2  0  0  0  0
  5 11  1  0  0  0  0
  6  7  1  0  0  0  0
  6  9  1  0  0  0  0
  7  8  1  0  0  0  0
  9 10  1  0  0  0  0
 10 11  2  0  0  0  0
M  END
>  <CHROM.1>
-11.56944172,-13.26496902,7.78585441,1.13986257,0.92265083,-1.12324534

>  <Name>
ligand

>  <RI>
0

>  <Rbt.Current_Directory>
/home/itssahil/PROJECTS/Mol_Feturizer/Test_systems_manuscript/rnas/2b57

>  <Rbt.Executable>
rbdock ($Id: //depot/dev/client3/rdock/2013.1/src/exe/rbdock.cxx#4 $)

>  <Rbt.Library>
libRbt.so (2013.1, Build901 2013/11/27)

>  <Rbt.Parameter_File>
/export/apps/rDock/src/rDock_2013.1_src/data/scripts/dock_solv.prm

>  <Rbt.Receptor>
prm/pocket_docking_7.prm

>  <SCORE>
-10.3553

>  <SCORE.INTER>
-10.3553

>  <SCORE.INTER.CONST>
1

>  <SCORE.INTER.POLAR>
0

>  <SCORE.INTER.ROT>
0

>  <SCORE.INTER.SOLV>
17.9863

>  <SCORE.INTER.VDW>
-16.4989

>  <SCORE.INTER.norm>
-0.941387

>  <SCORE.INTRA>
0

>  <SCORE.INTRA.DIHEDRAL>
0

>  <SCORE.INTRA.DIHEDRAL.0>
0

>  <SCORE.INTRA.POLAR>
0

>  <SCORE.INTRA.POLAR.0>
0

>  <SCORE.INTRA.REPUL>
0

>  <SCORE.INTRA.REPUL.0>
0

>  <SCORE.INTRA.SOLV>
0

>  <SCORE.INTRA.SOLV.lig_0>
-48.3454

>  <SCORE.INTRA.VDW>
0

>  <SCORE.INTRA.VDW.0>
0

>  <SCORE.INTRA.norm>
0

>  <SCORE.RESTR>
0

>  <SCORE.RESTR.CAVITY>
0

>  <SCORE.RESTR.norm>
0

>  <SCORE.SYSTEM>
0

>  <SCORE.SYSTEM.CONST>
0

>  <SCORE.SYSTEM.DIHEDRAL>
0

>  <SCORE.SYSTEM.SOLV>
0

>  <SCORE.SYSTEM.norm>
0

>  <SCORE.heavy>
11

>  <SCORE.norm>
-0.941387

>  <RMSD>
3.346

$$$$
ligand
 OpenBabel02271912153D
libRbt.so/2013.1/901 2013/11/27
 11 12  0  0  0  0  0  0  0  0999 V2000
  -11.6402  -12.4448    6.2175 N   0  0  0  0  0  0  0  0  0  0  0  0
  -10.8580  -13.5276    6.0811 C   0  0  0  0  0  0  0  0  0  0  0  0
  -10.3123  -13.8036    4.9000 N   0  0  0  0  0  0  0  0  0  0  0  0
  -10.6299  -14.3405    7.1243 N   0  0  0  0  0  0  0  0  0  0  0  0
  -11.1806  -14.0893    8.3212 C   0  0  0  0  0  0  0  0  0  0  0  0
  -11.9939  -12.9758    8.4895 C   0  0  0  0  0  0  0  0  0  0  0  0
  -12.2133  -12.1470    7.3943 C   0  0  0  0  0  0  0  0  0  0  0  0
  -12.9772  -11.0652    7.5133 N   0  0  0  0  0  0  0  0  0  0  0  0
  -12.4136  -12.9739    9.7512 N   0  0  0  0  0  0  0  0  0  0  0  0
  -11.8908  -14.0383   10.3560 C   0  0  0  0  0  0  0  0  0  0  0  0
  -11.1406  -14.7189    9.4920 N   0  0  0  0  0  0  0  0  0  0  0  0
  1  7  2  0  0  0  0
  1  2  1  0  0  0  0
  2  3  1  0  0  0  0
  2  4  2  0  0  0  0
  4  5  1  0  0  0  0
  5  6  2  0  0  0  0
  5 11  1  0  0  0  0
  6  7  1  0  0  0  0
  6  9  1  0  0  0  0
  7  8  1  0  0  0  0
  9 10  1  0  0  0  0
 10 11  2  0  0  0  0
M  END
>  <CHROM.1>
-11.56412780,-13.27912303,7.76174670,1.15531465,0.92864034,-1.13061104

>  <Name>
ligand

>  <RI>
0

>  <Rbt.Current_Directory>
/home/itssahil/PROJECTS/Mol_Feturizer/Test_systems_manuscript/rnas/2b57

>  <Rbt.Executable>
rbdock ($Id: //depot/dev/client3/rdock/2013.1/src/exe/rbdock.cxx#4 $)

>  <Rbt.Library>
libRbt.so (2013.1, Build901 2013/11/27)

>  <Rbt.Parameter_File>
/export/apps/rDock/src/rDock_2013.1_src/data/scripts/dock_solv.prm

>  <Rbt.Receptor>
prm/pocket_docking_8.prm

>  <SCORE>
-10.3481

>  <SCORE.INTER>
-10.3481

>  <SCORE.INTER.CONST>
1

>  <SCORE.INTER.POLAR>
0

>  <SCORE.INTER.ROT>
0

>  <SCORE.INTER.SOLV>
18.2338

>  <SCORE.INTER.VDW>
-16.5767

>  <SCORE.INTER.norm>
-0.940736

>  <SCORE.INTRA>
0

>  <SCORE.INTRA.DIHEDRAL>
0

>  <SCORE.INTRA.DIHEDRAL.0>
0

>  <SCORE.INTRA.POLAR>
0

>  <SCORE.INTRA.POLAR.0>
0

>  <SCORE.INTRA.REPUL>
0

>  <SCORE.INTRA.REPUL.0>
0

>  <SCORE.INTRA.SOLV>
0

>  <SCORE.INTRA.SOLV.lig_0>
-48.3454

>  <SCORE.INTRA.VDW>
0

>  <SCORE.INTRA.VDW.0>
0

>  <SCORE.INTRA.norm>
0

>  <SCORE.RESTR>
0

>  <SCORE.RESTR.CAVITY>
0

>  <SCORE.RESTR.norm>
0

>  <SCORE.SYSTEM>
0

>  <SCORE.SYSTEM.CONST>
0

>  <SCORE.SYSTEM.DIHEDRAL>
0

>  <SCORE.SYSTEM.SOLV>
0

>  <SCORE.SYSTEM.norm>
0

>  <SCORE.heavy>
11

>  <SCORE.norm>
-0.940736

>  <RMSD>
3.346

$$$$
ligand
 OpenBabel02271912153D
libRbt.so/2013.1/901 2013/11/27
 11 12  0  0  0  0  0  0  0  0999 V2000
  -11.6620  -12.4238    6.2448 N   0  0  0  0  0  0  0  0  0  0  0  0
  -10.8855  -13.5094    6.0991 C   0  0  0  0  0  0  0  0  0  0  0  0
  -10.3471  -13.7821    4.9139 N   0  0  0  0  0  0  0  0  0  0  0  0
  -10.6557  -14.3286    7.1371 N   0  0  0  0  0  0  0  0  0  0  0  0
  -11.1990  -14.0809    8.3380 C   0  0  0  0  0  0  0  0  0  0  0  0
  -12.0064  -12.9646    8.5160 C   0  0  0  0  0  0  0  0  0  0  0  0
  -12.2277  -12.1293    7.4260 C   0  0  0  0  0  0  0  0  0  0  0  0
  -12.9861  -11.0447    7.5543 N   0  0  0  0  0  0  0  0  0  0  0  0
  -12.4196  -12.9670    9.7798 N   0  0  0  0  0  0  0  0  0  0  0  0
  -11.8985  -14.0367   10.3767 C   0  0  0  0  0  0  0  0  0  0  0  0
  -11.1559  -14.7164    9.5055 N   0  0  0  0  0  0  0  0  0  0  0  0
  1  7  2  0  0  0  0
  1  2  1  0  0  0  0
  2  3  1  0  0  0  0
  2  4  2  0  0  0  0
  4  5  1  0  0  0  0
  5  6  2  0  0  0  0
  5 11  1  0  0  0  0
  6  7  1  0  0  0  0
  6  9  1  0  0  0  0
  7  8  1  0  0  0  0
  9 10  1  0  0  0  0
 10 11  2  0  0  0  0
M  END
>  <CHROM.1>
-11.58180103,-13.26616503,7.78455528,1.15989833,0.93492831,-1.12934649

>  <Name>
ligand

>  <RI>
0

>  <Rbt.Current_Directory>
/home/itssahil/PROJECTS/Mol_Feturizer/Test_systems_manuscript/rnas/2b57

>  <Rbt.Executable>
rbdock ($Id: //depot/dev/client3/rdock/2013.1/src/exe/rbdock.cxx#4 $)

>  <Rbt.Library>
libRbt.so (2013.1, Build901 2013/11/27)

>  <Rbt.Parameter_File>
/export/apps/rDock/src/rDock_2013.1_src/data/scripts/dock_solv.prm

>  <Rbt.Receptor>
prm/pocket_docking_8.prm

>  <SCORE>
-10.3689

>  <SCORE.INTER>
-10.3689

>  <SCORE.INTER.CONST>
1

>  <SCORE.INTER.POLAR>
0

>  <SCORE.INTER.ROT>
0

>  <SCORE.INTER.SOLV>
18.2288

>  <SCORE.INTER.VDW>
-16.5889

>  <SCORE.INTER.norm>
-0.942627

>  <SCORE.INTRA>
0

>  <SCORE.INTRA.DIHEDRAL>
0

>  <SCORE.INTRA.DIHEDRAL.0>
0

>  <SCORE.INTRA.POLAR>
0

>  <SCORE.INTRA.POLAR.0>
0

>  <SCORE.INTRA.REPUL>
0

>  <SCORE.INTRA.REPUL.0>
0

>  <SCORE.INTRA.SOLV>
0

>  <SCORE.INTRA.SOLV.lig_0>
-48.3454

>  <SCORE.INTRA.VDW>
0

>  <SCORE.INTRA.VDW.0>
0

>  <SCORE.INTRA.norm>
0

>  <SCORE.RESTR>
0

>  <SCORE.RESTR.CAVITY>
0

>  <SCORE.RESTR.norm>
0

>  <SCORE.SYSTEM>
0

>  <SCORE.SYSTEM.CONST>
0

>  <SCORE.SYSTEM.DIHEDRAL>
0

>  <SCORE.SYSTEM.SOLV>
0

>  <SCORE.SYSTEM.norm>
0

>  <SCORE.heavy>
11

>  <SCORE.norm>
-0.942627

>  <RMSD>
3.346

$$$$
ligand
 OpenBabel02271912153D
libRbt.so/2013.1/901 2013/11/27
 11 12  0  0  0  0  0  0  0  0999 V2000
  -11.6851  -12.4243    6.2362 N   0  0  0  0  0  0  0  0  0  0  0  0
  -10.8985  -13.5033    6.0956 C   0  0  0  0  0  0  0  0  0  0  0  0
  -10.3574  -13.7763    4.9116 N   0  0  0  0  0  0  0  0  0  0  0  0
  -10.6611  -14.3154    7.1373 N   0  0  0  0  0  0  0  0  0  0  0  0
  -11.2068  -14.0673    8.3371 C   0  0  0  0  0  0  0  0  0  0  0  0
  -12.0246  -12.9578    8.5099 C   0  0  0  0  0  0  0  0  0  0  0  0
  -12.2536  -12.1296    7.4160 C   0  0  0  0  0  0  0  0  0  0  0  0
  -13.0221  -11.0516    7.5393 N   0  0  0  0  0  0  0  0  0  0  0  0
  -12.4379  -12.9583    9.7737 N   0  0  0  0  0  0  0  0  0  0  0  0
  -11.9069  -14.0203   10.3755 C   0  0  0  0  0  0  0  0  0  0  0  0
  -11.1579  -14.6970    9.5074 N   0  0  0  0  0  0  0  0  0  0  0  0
  1  7  2  0  0  0  0
  1  2  1  0  0  0  0
  2  3  1  0  0  0  0
  2  4  2  0  0  0  0
  4  5  1  0  0  0  0
  5  6  2  0  0  0  0
  5 11  1  0  0  0  0
  6  7  1  0  0  0  0
  6  9  1  0  0  0  0
  7  8  1  0  0  0  0
  9 10  1  0  0  0  0
 10 11  2  0  0  0  0
M  END
>  <CHROM.1>
-11.59713656,-13.25876939,7.77983422,1.16641388,0.92643368,-1.13917589

>  <Name>
ligand

>  <RI>
0

>  <Rbt.Current_Directory>
/home/itssahil/PROJECTS/Mol_Feturizer/Test_systems_manuscript/rnas/2b57

>  <Rbt.Executable>
rbdock ($Id: //depot/dev/client3/rdock/2013.1/src/exe/rbdock.cxx#4 $)

>  <Rbt.Library>
libRbt.so (2013.1, Build901 2013/11/27)

>  <Rbt.Parameter_File>
/export/apps/rDock/src/rDock_2013.1_src/data/scripts/dock_solv.prm

>  <Rbt.Receptor>
prm/blind_docking_40.prm

>  <SCORE>
-10.3795

>  <SCORE.INTER>
-10.3795

>  <SCORE.INTER.CONST>
1

>  <SCORE.INTER.POLAR>
0

>  <SCORE.INTER.ROT>
0

>  <SCORE.INTER.SOLV>
18.23

>  <SCORE.INTER.VDW>
-16.5964

>  <SCORE.INTER.norm>
-0.943591

>  <SCORE.INTRA>
0

>  <SCORE.INTRA.DIHEDRAL>
0

>  <SCORE.INTRA.DIHEDRAL.0>
0

>  <SCORE.INTRA.POLAR>
0

>  <SCORE.INTRA.POLAR.0>
0

>  <SCORE.INTRA.REPUL>
0

>  <SCORE.INTRA.REPUL.0>
0

>  <SCORE.INTRA.SOLV>
0

>  <SCORE.INTRA.SOLV.lig_0>
-48.3454

>  <SCORE.INTRA.VDW>
0

>  <SCORE.INTRA.VDW.0>
0

>  <SCORE.INTRA.norm>
0

>  <SCORE.RESTR>
0

>  <SCORE.RESTR.CAVITY>
0

>  <SCORE.RESTR.norm>
0

>  <SCORE.SYSTEM>
0

>  <SCORE.SYSTEM.CONST>
0

>  <SCORE.SYSTEM.DIHEDRAL>
0

>  <SCORE.SYSTEM.SOLV>
0

>  <SCORE.SYSTEM.norm>
0

>  <SCORE.heavy>
11

>  <SCORE.norm>
-0.943591

>  <RMSD>
3.347

$$$$
ligand
 OpenBabel02271912153D
libRbt.so/2013.1/901 2013/11/27
 11 12  0  0  0  0  0  0  0  0999 V2000
  -11.6714  -12.4279    6.2210 N   0  0  0  0  0  0  0  0  0  0  0  0
  -10.8824  -13.5056    6.0849 C   0  0  0  0  0  0  0  0  0  0  0  0
  -10.3364  -13.7795    4.9034 N   0  0  0  0  0  0  0  0  0  0  0  0
  -10.6476  -14.3159    7.1287 N   0  0  0  0  0  0  0  0  0  0  0  0
  -11.1983  -14.0669    8.3261 C   0  0  0  0  0  0  0  0  0  0  0  0
  -12.0186  -12.9586    8.4942 C   0  0  0  0  0  0  0  0  0  0  0  0
  -12.2450  -12.1325    7.3982 C   0  0  0  0  0  0  0  0  0  0  0  0
  -13.0159  -11.0556    7.5170 N   0  0  0  0  0  0  0  0  0  0  0  0
  -12.4367  -12.9580    9.7564 N   0  0  0  0  0  0  0  0  0  0  0  0
  -11.9061  -14.0181   10.3617 C   0  0  0  0  0  0  0  0  0  0  0  0
  -11.1526  -14.6948    9.4975 N   0  0  0  0  0  0  0  0  0  0  0  0
  1  7  2  0  0  0  0
  1  2  1  0  0  0  0
  2  3  1  0  0  0  0
  2  4  2  0  0  0  0
  4  5  1  0  0  0  0
  5  6  2  0  0  0  0
  5 11  1  0  0  0  0
  6  7  1  0  0  0  0
  6  9  1  0  0  0  0
  7  8  1  0  0  0  0
  9 10  1  0  0  0  0
 10 11  2  0  0  0  0
M  END
>  <CHROM.1>
-11.58787543,-13.25990278,7.76617080,1.16193259,0.92322438,-1.13707078

>  <Name>
ligand

>  <RI>
0

>  <Rbt.Current_Directory>
/home/itssahil/PROJECTS/Mol_Feturizer/Test_systems_manuscript/rnas/2b57

>  <Rbt.Executable>
rbdock ($Id: //depot/dev/client3/rdock/2013.1/src/exe/rbdock.cxx#4 $)

>  <Rbt.Library>
libRbt.so (2013.1, Build901 2013/11/27)

>  <Rbt.Parameter_File>
/export/apps/rDock/src/rDock_2013.1_src/data/scripts/dock_solv.prm

>  <Rbt.Receptor>
prm/pocket_docking_3.prm

>  <SCORE>
-10.3875

>  <SCORE.INTER>
-10.3875

>  <SCORE.INTER.CONST>
1

>  <SCORE.INTER.POLAR>
0

>  <SCORE.INTER.ROT>
0

>  <SCORE.INTER.SOLV>
18.2374

>  <SCORE.INTER.VDW>
-16.6042

>  <SCORE.INTER.norm>
-0.94432

>  <SCORE.INTRA>
0

>  <SCORE.INTRA.DIHEDRAL>
0

>  <SCORE.INTRA.DIHEDRAL.0>
0

>  <SCORE.INTRA.POLAR>
0

>  <SCORE.INTRA.POLAR.0>
0

>  <SCORE.INTRA.REPUL>
0

>  <SCORE.INTRA.REPUL.0>
0

>  <SCORE.INTRA.SOLV>
0

>  <SCORE.INTRA.SOLV.lig_0>
-48.3454

>  <SCORE.INTRA.VDW>
0

>  <SCORE.INTRA.VDW.0>
0

>  <SCORE.INTRA.norm>
0

>  <SCORE.RESTR>
0

>  <SCORE.RESTR.CAVITY>
0

>  <SCORE.RESTR.norm>
0

>  <SCORE.SYSTEM>
0

>  <SCORE.SYSTEM.CONST>
0

>  <SCORE.SYSTEM.DIHEDRAL>
0

>  <SCORE.SYSTEM.SOLV>
0

>  <SCORE.SYSTEM.norm>
0

>  <SCORE.heavy>
11

>  <SCORE.norm>
-0.94432

>  <RMSD>
3.347

$$$$
ligand
 OpenBabel02271912153D
libRbt.so/2013.1/901 2013/11/27
 11 12  0  0  0  0  0  0  0  0999 V2000
  -11.6623  -12.4161    6.2503 N   0  0  0  0  0  0  0  0  0  0  0  0
  -10.8669  -13.4889    6.1122 C   0  0  0  0  0  0  0  0  0  0  0  0
  -10.3097  -13.7505    4.9331 N   0  0  0  0  0  0  0  0  0  0  0  0
  -10.6367  -14.3064    7.1513 N   0  0  0  0  0  0  0  0  0  0  0  0
  -11.1986  -14.0698    8.3460 C   0  0  0  0  0  0  0  0  0  0  0  0
  -12.0259  -12.9669    8.5161 C   0  0  0  0  0  0  0  0  0  0  0  0
  -12.2471  -12.1331    7.4250 C   0  0  0  0  0  0  0  0  0  0  0  0
  -13.0243  -11.0610    7.5460 N   0  0  0  0  0  0  0  0  0  0  0  0
  -12.4545  -12.9786    9.7747 N   0  0  0  0  0  0  0  0  0  0  0  0
  -11.9237  -14.0410   10.3760 C   0  0  0  0  0  0  0  0  0  0  0  0
  -11.1597  -14.7070    9.5127 N   0  0  0  0  0  0  0  0  0  0  0  0
  1  7  2  0  0  0  0
  1  2  1  0  0  0  0
  2  3  1  0  0  0  0
  2  4  2  0  0  0  0
  4  5  1  0  0  0  0
  5  6  2  0  0  0  0
  5 11  1  0  0  0  0
  6  7  1  0  0  0  0
  6  9  1  0  0  0  0
  7  8  1  0  0  0  0
  9 10  1  0  0  0  0
 10 11  2  0  0  0  0
M  END
>  <CHROM.1>
-11.58757534,-13.26021878,7.78935634,1.15291814,0.91520621,-1.12181739

>  <Name>
ligand

>  <RI>
0

>  <Rbt.Current_Directory>
/home/itssahil/PROJECTS/Mol_Feturizer/Test_systems_manuscript/rnas/2b57

>  <Rbt.Executable>
rbdock ($Id: //depot/dev/client3/rdock/2013.1/src/exe/rbdock.cxx#4 $)

>  <Rbt.Library>
libRbt.so (2013.1, Build901 2013/11/27)

>  <Rbt.Parameter_File>
/export/apps/rDock/src/rDock_2013.1_src/data/scripts/dock_solv.prm

>  <Rbt.Receptor>
prm/pocket_docking_3.prm

>  <SCORE>
-10.3589

>  <SCORE.INTER>
-10.3589

>  <SCORE.INTER.CONST>
1

>  <SCORE.INTER.POLAR>
0

>  <SCORE.INTER.ROT>
0

>  <SCORE.INTER.SOLV>
18.0375

>  <SCORE.INTER.VDW>
-16.5184

>  <SCORE.INTER.norm>
-0.941719

>  <SCORE.INTRA>
0

>  <SCORE.INTRA.DIHEDRAL>
0

>  <SCORE.INTRA.DIHEDRAL.0>
0

>  <SCORE.INTRA.POLAR>
0

>  <SCORE.INTRA.POLAR.0>
0

>  <SCORE.INTRA.REPUL>
0

>  <SCORE.INTRA.REPUL.0>
0

>  <SCORE.INTRA.SOLV>
0

>  <SCORE.INTRA.SOLV.lig_0>
-48.3454

>  <SCORE.INTRA.VDW>
0

>  <SCORE.INTRA.VDW.0>
0

>  <SCORE.INTRA.norm>
0

>  <SCORE.RESTR>
0

>  <SCORE.RESTR.CAVITY>
0

>  <SCORE.RESTR.norm>
0

>  <SCORE.SYSTEM>
0

>  <SCORE.SYSTEM.CONST>
0

>  <SCORE.SYSTEM.DIHEDRAL>
0

>  <SCORE.SYSTEM.SOLV>
0

>  <SCORE.SYSTEM.norm>
0

>  <SCORE.heavy>
11

>  <SCORE.norm>
-0.941719

>  <RMSD>
3.347

$$$$
ligand
 OpenBabel02271912153D
libRbt.so/2013.1/901 2013/11/27
 11 12  0  0  0  0  0  0  0  0999 V2000
  -11.6581  -12.4293    6.2181 N   0  0  0  0  0  0  0  0  0  0  0  0
  -10.8692  -13.5071    6.0807 C   0  0  0  0  0  0  0  0  0  0  0  0
  -10.3212  -13.7782    4.8996 N   0  0  0  0  0  0  0  0  0  0  0  0
  -10.6366  -14.3199    7.1230 N   0  0  0  0  0  0  0  0  0  0  0  0
  -11.1894  -14.0737    8.3199 C   0  0  0  0  0  0  0  0  0  0  0  0
  -12.0097  -12.9655    8.4893 C   0  0  0  0  0  0  0  0  0  0  0  0
  -12.2337  -12.1366    7.3950 C   0  0  0  0  0  0  0  0  0  0  0  0
  -13.0044  -11.0597    7.5150 N   0  0  0  0  0  0  0  0  0  0  0  0
  -12.4300  -12.9679    9.7507 N   0  0  0  0  0  0  0  0  0  0  0  0
  -11.9009  -14.0297   10.3544 C   0  0  0  0  0  0  0  0  0  0  0  0
  -11.1461  -14.7046    9.4899 N   0  0  0  0  0  0  0  0  0  0  0  0
  1  7  2  0  0  0  0
  1  2  1  0  0  0  0
  2  3  1  0  0  0  0
  2  4  2  0  0  0  0
  4  5  1  0  0  0  0
  5  6  2  0  0  0  0
  5 11  1  0  0  0  0
  6  7  1  0  0  0  0
  6  9  1  0  0  0  0
  7  8  1  0  0  0  0
  9 10  1  0  0  0  0
 10 11  2  0  0  0  0
M  END
>  <CHROM.1>
-11.57768594,-13.26519784,7.76130200,1.15894745,0.92280329,-1.13222278

>  <Name>
ligand

>  <RI>
0

>  <Rbt.Current_Directory>
/home/itssahil/PROJECTS/Mol_Feturizer/Test_systems_manuscript/rnas/2b57

>  <Rbt.Executable>
rbdock ($Id: //depot/dev/client3/rdock/2013.1/src/exe/rbdock.cxx#4 $)

>  <Rbt.Library>
libRbt.so (2013.1, Build901 2013/11/27)

>  <Rbt.Parameter_File>
/export/apps/rDock/src/rDock_2013.1_src/data/scripts/dock_solv.prm

>  <Rbt.Receptor>
prm/pocket_docking_4.prm

>  <SCORE>
-10.3812

>  <SCORE.INTER>
-10.3812

>  <SCORE.INTER.CONST>
1

>  <SCORE.INTER.POLAR>
0

>  <SCORE.INTER.ROT>
0

>  <SCORE.INTER.SOLV>
18.2364

>  <SCORE.INTER.VDW>
-16.5996

>  <SCORE.INTER.norm>
-0.943741

>  <SCORE.INTRA>
0

>  <SCORE.INTRA.DIHEDRAL>
0

>  <SCORE.INTRA.DIHEDRAL.0>
0

>  <SCORE.INTRA.POLAR>
0

>  <SCORE.INTRA.POLAR.0>
0

>  <SCORE.INTRA.REPUL>
0

>  <SCORE.INTRA.REPUL.0>
0

>  <SCORE.INTRA.SOLV>
0

>  <SCORE.INTRA.SOLV.lig_0>
-48.3454

>  <SCORE.INTRA.VDW>
0

>  <SCORE.INTRA.VDW.0>
0

>  <SCORE.INTRA.norm>
0

>  <SCORE.RESTR>
0

>  <SCORE.RESTR.CAVITY>
0

>  <SCORE.RESTR.norm>
0

>  <SCORE.SYSTEM>
0

>  <SCORE.SYSTEM.CONST>
0

>  <SCORE.SYSTEM.DIHEDRAL>
0

>  <SCORE.SYSTEM.SOLV>
0

>  <SCORE.SYSTEM.norm>
0

>  <SCORE.heavy>
11

>  <SCORE.norm>
-0.943741

>  <RMSD>
3.347

$$$$
ligand
 OpenBabel02271912153D
libRbt.so/2013.1/901 2013/11/27
 11 12  0  0  0  0  0  0  0  0999 V2000
  -11.6421  -12.4120    6.2386 N   0  0  0  0  0  0  0  0  0  0  0  0
  -10.8397  -13.4811    6.1118 C   0  0  0  0  0  0  0  0  0  0  0  0
  -10.2686  -13.7430    4.9396 N   0  0  0  0  0  0  0  0  0  0  0  0
  -10.6168  -14.2947    7.1556 N   0  0  0  0  0  0  0  0  0  0  0  0
  -11.1927  -14.0579    8.3435 C   0  0  0  0  0  0  0  0  0  0  0  0
  -12.0272  -12.9588    8.5018 C   0  0  0  0  0  0  0  0  0  0  0  0
  -12.2409  -12.1289    7.4061 C   0  0  0  0  0  0  0  0  0  0  0  0
  -13.0247  -11.0604    7.5159 N   0  0  0  0  0  0  0  0  0  0  0  0
  -12.4693  -12.9692    9.7558 N   0  0  0  0  0  0  0  0  0  0  0  0
  -11.9397  -14.0274   10.3655 C   0  0  0  0  0  0  0  0  0  0  0  0
  -11.1631  -14.6918    9.5123 N   0  0  0  0  0  0  0  0  0  0  0  0
  1  7  2  0  0  0  0
  1  2  1  0  0  0  0
  2  3  1  0  0  0  0
  2  4  2  0  0  0  0
  4  5  1  0  0  0  0
  5  6  2  0  0  0  0
  5 11  1  0  0  0  0
  6  7  1  0  0  0  0
  6  9  1  0  0  0  0
  7  8  1  0  0  0  0
  9 10  1  0  0  0  0
 10 11  2  0  0  0  0
M  END
>  <CHROM.1>
-11.57964264,-13.25171682,7.78057153,1.14071875,0.90596645,-1.11483291

>  <Name>
ligand

>  <RI>
0

>  <Rbt.Current_Directory>
/home/itssahil/PROJECTS/Mol_Feturizer/Test_systems_manuscript/rnas/2b57

>  <Rbt.Executable>
rbdock ($Id: //depot/dev/client3/rdock/2013.1/src/exe/rbdock.cxx#4 $)

>  <Rbt.Library>
libRbt.so (2013.1, Build901 2013/11/27)

>  <Rbt.Parameter_File>
/export/apps/rDock/src/rDock_2013.1_src/data/scripts/dock_solv.prm

>  <Rbt.Receptor>
prm/pocket_docking_6.prm

>  <SCORE>
-10.3597

>  <SCORE.INTER>
-10.3597

>  <SCORE.INTER.CONST>
1

>  <SCORE.INTER.POLAR>
0

>  <SCORE.INTER.ROT>
0

>  <SCORE.INTER.SOLV>
17.9251

>  <SCORE.INTER.VDW>
-16.4815

>  <SCORE.INTER.norm>
-0.941795

>  <SCORE.INTRA>
0

>  <SCORE.INTRA.DIHEDRAL>
0

>  <SCORE.INTRA.DIHEDRAL.0>
0

>  <SCORE.INTRA.POLAR>
0

>  <SCORE.INTRA.POLAR.0>
0

>  <SCORE.INTRA.REPUL>
0

>  <SCORE.INTRA.REPUL.0>
0

>  <SCORE.INTRA.SOLV>
0

>  <SCORE.INTRA.SOLV.lig_0>
-48.3454

>  <SCORE.INTRA.VDW>
0

>  <SCORE.INTRA.VDW.0>
0

>  <SCORE.INTRA.norm>
0

>  <SCORE.RESTR>
0

>  <SCORE.RESTR.CAVITY>
0

>  <SCORE.RESTR.norm>
0

>  <SCORE.SYSTEM>
0

>  <SCORE.SYSTEM.CONST>
0

>  <SCORE.SYSTEM.DIHEDRAL>
0

>  <SCORE.SYSTEM.SOLV>
0

>  <SCORE.SYSTEM.norm>
0

>  <SCORE.heavy>
11

>  <SCORE.norm>
-0.941795

>  <RMSD>
3.347

$$$$
ligand
 OpenBabel02271912153D
libRbt.so/2013.1/901 2013/11/27
 11 12  0  0  0  0  0  0  0  0999 V2000
  -11.6900  -12.4331    6.2196 N   0  0  0  0  0  0  0  0  0  0  0  0
  -10.9040  -13.5129    6.0817 C   0  0  0  0  0  0  0  0  0  0  0  0
  -10.3622  -13.7886    4.8987 N   0  0  0  0  0  0  0  0  0  0  0  0
  -10.6681  -14.3232    7.1252 N   0  0  0  0  0  0  0  0  0  0  0  0
  -11.2147  -14.0723    8.3240 C   0  0  0  0  0  0  0  0  0  0  0  0
  -12.0318  -12.9619    8.4940 C   0  0  0  0  0  0  0  0  0  0  0  0
  -12.2593  -12.1358    7.3983 C   0  0  0  0  0  0  0  0  0  0  0  0
  -13.0272  -11.0569    7.5188 N   0  0  0  0  0  0  0  0  0  0  0  0
  -12.4462  -12.9596    9.7574 N   0  0  0  0  0  0  0  0  0  0  0  0
  -11.9164  -14.0208   10.3617 C   0  0  0  0  0  0  0  0  0  0  0  0
  -11.1671  -14.6998    9.4957 N   0  0  0  0  0  0  0  0  0  0  0  0
  1  7  2  0  0  0  0
  1  2  1  0  0  0  0
  2  3  1  0  0  0  0
  2  4  2  0  0  0  0
  4  5  1  0  0  0  0
  5  6  2  0  0  0  0
  5 11  1  0  0  0  0
  6  7  1  0  0  0  0
  6  9  1  0  0  0  0
  7  8  1  0  0  0  0
  9 10  1  0  0  0  0
 10 11  2  0  0  0  0
M  END
>  <CHROM.1>
-11.60394282,-13.26461054,7.76487555,1.16466156,0.92669379,-1.13973731

>  <Name>
ligand

>  <RI>
0

>  <Rbt.Current_Directory>
/home/itssahil/PROJECTS/Mol_Feturizer/Test_systems_manuscript/rnas/2b57

>  <Rbt.Executable>
rbdock ($Id: //depot/dev/client3/rdock/2013.1/src/exe/rbdock.cxx#4 $)

>  <Rbt.Library>
libRbt.so (2013.1, Build901 2013/11/27)

>  <Rbt.Parameter_File>
/export/apps/rDock/src/rDock_2013.1_src/data/scripts/dock_solv.prm

>  <Rbt.Receptor>
prm/pocket_docking_6.prm

>  <SCORE>
-10.3591

>  <SCORE.INTER>
-10.3591

>  <SCORE.INTER.CONST>
1

>  <SCORE.INTER.POLAR>
0

>  <SCORE.INTER.ROT>
0

>  <SCORE.INTER.SOLV>
18.3015

>  <SCORE.INTER.VDW>
-16.6066

>  <SCORE.INTER.norm>
-0.941736

>  <SCORE.INTRA>
0

>  <SCORE.INTRA.DIHEDRAL>
0

>  <SCORE.INTRA.DIHEDRAL.0>
0

>  <SCORE.INTRA.POLAR>
0

>  <SCORE.INTRA.POLAR.0>
0

>  <SCORE.INTRA.REPUL>
0

>  <SCORE.INTRA.REPUL.0>
0

>  <SCORE.INTRA.SOLV>
0

>  <SCORE.INTRA.SOLV.lig_0>
-48.3454

>  <SCORE.INTRA.VDW>
0

>  <SCORE.INTRA.VDW.0>
0

>  <SCORE.INTRA.norm>
0

>  <SCORE.RESTR>
0

>  <SCORE.RESTR.CAVITY>
0

>  <SCORE.RESTR.norm>
0

>  <SCORE.SYSTEM>
0

>  <SCORE.SYSTEM.CONST>
0

>  <SCORE.SYSTEM.DIHEDRAL>
0

>  <SCORE.SYSTEM.SOLV>
0

>  <SCORE.SYSTEM.norm>
0

>  <SCORE.heavy>
11

>  <SCORE.norm>
-0.941736

>  <RMSD>
3.347

$$$$
ligand
 OpenBabel02271912153D
libRbt.so/2013.1/901 2013/11/27
 11 12  0  0  0  0  0  0  0  0999 V2000
  -11.6789  -12.4293    6.2374 N   0  0  0  0  0  0  0  0  0  0  0  0
  -10.8906  -13.5067    6.0948 C   0  0  0  0  0  0  0  0  0  0  0  0
  -10.3473  -13.7755    4.9109 N   0  0  0  0  0  0  0  0  0  0  0  0
  -10.6540  -14.3217    7.1344 N   0  0  0  0  0  0  0  0  0  0  0  0
  -11.2020  -14.0780    8.3340 C   0  0  0  0  0  0  0  0  0  0  0  0
  -12.0215  -12.9701    8.5089 C   0  0  0  0  0  0  0  0  0  0  0  0
  -12.2498  -12.1389    7.4171 C   0  0  0  0  0  0  0  0  0  0  0  0
  -13.0200  -11.0622    7.5424 N   0  0  0  0  0  0  0  0  0  0  0  0
  -12.4369  -12.9749    9.7720 N   0  0  0  0  0  0  0  0  0  0  0  0
  -11.9055  -14.0380   10.3714 C   0  0  0  0  0  0  0  0  0  0  0  0
  -11.1542  -14.7112    9.5025 N   0  0  0  0  0  0  0  0  0  0  0  0
  1  7  2  0  0  0  0
  1  2  1  0  0  0  0
  2  3  1  0  0  0  0
  2  4  2  0  0  0  0
  4  5  1  0  0  0  0
  5  6  2  0  0  0  0
  5 11  1  0  0  0  0
  6  7  1  0  0  0  0
  6  9  1  0  0  0  0
  7  8  1  0  0  0  0
  9 10  1  0  0  0  0
 10 11  2  0  0  0  0
M  END
>  <CHROM.1>
-11.59245444,-13.26827037,7.77859459,1.16483667,0.92452712,-1.13488307

>  <Name>
ligand

>  <RI>
0

>  <Rbt.Current_Directory>
/home/itssahil/PROJECTS/Mol_Feturizer/Test_systems_manuscript/rnas/2b57

>  <Rbt.Executable>
rbdock ($Id: //depot/dev/client3/rdock/2013.1/src/exe/rbdock.cxx#4 $)

>  <Rbt.Library>
libRbt.so (2013.1, Build901 2013/11/27)

>  <Rbt.Parameter_File>
/export/apps/rDock/src/rDock_2013.1_src/data/scripts/dock_solv.prm

>  <Rbt.Receptor>
prm/pocket_docking_8.prm

>  <SCORE>
-10.3814

>  <SCORE.INTER>
-10.3814

>  <SCORE.INTER.CONST>
1

>  <SCORE.INTER.POLAR>
0

>  <SCORE.INTER.ROT>
0

>  <SCORE.INTER.SOLV>
18.2151

>  <SCORE.INTER.VDW>
-16.5926

>  <SCORE.INTER.norm>
-0.943761

>  <SCORE.INTRA>
0

>  <SCORE.INTRA.DIHEDRAL>
0

>  <SCORE.INTRA.DIHEDRAL.0>
0

>  <SCORE.INTRA.POLAR>
0

>  <SCORE.INTRA.POLAR.0>
0

>  <SCORE.INTRA.REPUL>
0

>  <SCORE.INTRA.REPUL.0>
0

>  <SCORE.INTRA.SOLV>
0

>  <SCORE.INTRA.SOLV.lig_0>
-48.3454

>  <SCORE.INTRA.VDW>
0

>  <SCORE.INTRA.VDW.0>
0

>  <SCORE.INTRA.norm>
0

>  <SCORE.RESTR>
0

>  <SCORE.RESTR.CAVITY>
0

>  <SCORE.RESTR.norm>
0

>  <SCORE.SYSTEM>
0

>  <SCORE.SYSTEM.CONST>
0

>  <SCORE.SYSTEM.DIHEDRAL>
0

>  <SCORE.SYSTEM.SOLV>
0

>  <SCORE.SYSTEM.norm>
0

>  <SCORE.heavy>
11

>  <SCORE.norm>
-0.943761

>  <RMSD>
3.347

$$$$
ligand
 OpenBabel02271912153D
libRbt.so/2013.1/901 2013/11/27
 11 12  0  0  0  0  0  0  0  0999 V2000
  -11.6772  -12.4368    6.2173 N   0  0  0  0  0  0  0  0  0  0  0  0
  -10.8823  -13.5103    6.0809 C   0  0  0  0  0  0  0  0  0  0  0  0
  -10.3347  -13.7807    4.8994 N   0  0  0  0  0  0  0  0  0  0  0  0
  -10.6434  -14.3197    7.1244 N   0  0  0  0  0  0  0  0  0  0  0  0
  -11.1957  -14.0742    8.3217 C   0  0  0  0  0  0  0  0  0  0  0  0
  -12.0220  -12.9703    8.4901 C   0  0  0  0  0  0  0  0  0  0  0  0
  -12.2525  -12.1450    7.3945 C   0  0  0  0  0  0  0  0  0  0  0  0
  -13.0292  -11.0722    7.5136 N   0  0  0  0  0  0  0  0  0  0  0  0
  -12.4404  -12.9725    9.7522 N   0  0  0  0  0  0  0  0  0  0  0  0
  -11.9042  -14.0300   10.3572 C   0  0  0  0  0  0  0  0  0  0  0  0
  -11.1470  -14.7024    9.4929 N   0  0  0  0  0  0  0  0  0  0  0  0
  1  7  2  0  0  0  0
  1  2  1  0  0  0  0
  2  3  1  0  0  0  0
  2  4  2  0  0  0  0
  4  5  1  0  0  0  0
  5  6  2  0  0  0  0
  5 11  1  0  0  0  0
  6  7  1  0  0  0  0
  6  9  1  0  0  0  0
  7  8  1  0  0  0  0
  9 10  1  0  0  0  0
 10 11  2  0  0  0  0
M  END
>  <CHROM.1>
-11.58951252,-13.26901300,7.76207953,1.16529335,0.91830413,-1.13931077

>  <Name>
ligand

>  <RI>
0

>  <Rbt.Current_Directory>
/home/itssahil/PROJECTS/Mol_Feturizer/Test_systems_manuscript/rnas/2b57

>  <Rbt.Executable>
rbdock ($Id: //depot/dev/client3/rdock/2013.1/src/exe/rbdock.cxx#4 $)

>  <Rbt.Library>
libRbt.so (2013.1, Build901 2013/11/27)

>  <Rbt.Parameter_File>
/export/apps/rDock/src/rDock_2013.1_src/data/scripts/dock_solv.prm

>  <Rbt.Receptor>
prm/blind_docking_100.prm

>  <SCORE>
-10.3848

>  <SCORE.INTER>
-10.3848

>  <SCORE.INTER.CONST>
1

>  <SCORE.INTER.POLAR>
0

>  <SCORE.INTER.ROT>
0

>  <SCORE.INTER.SOLV>
18.2423

>  <SCORE.INTER.VDW>
-16.604

>  <SCORE.INTER.norm>
-0.944076

>  <SCORE.INTRA>
0

>  <SCORE.INTRA.DIHEDRAL>
0

>  <SCORE.INTRA.DIHEDRAL.0>
0

>  <SCORE.INTRA.POLAR>
0

>  <SCORE.INTRA.POLAR.0>
0

>  <SCORE.INTRA.REPUL>
0

>  <SCORE.INTRA.REPUL.0>
0

>  <SCORE.INTRA.SOLV>
0

>  <SCORE.INTRA.SOLV.lig_0>
-48.3454

>  <SCORE.INTRA.VDW>
0

>  <SCORE.INTRA.VDW.0>
0

>  <SCORE.INTRA.norm>
0

>  <SCORE.RESTR>
0

>  <SCORE.RESTR.CAVITY>
0

>  <SCORE.RESTR.norm>
0

>  <SCORE.SYSTEM>
0

>  <SCORE.SYSTEM.CONST>
0

>  <SCORE.SYSTEM.DIHEDRAL>
0

>  <SCORE.SYSTEM.SOLV>
0

>  <SCORE.SYSTEM.norm>
0

>  <SCORE.heavy>
11

>  <SCORE.norm>
-0.944076

>  <RMSD>
3.348

$$$$
ligand
 OpenBabel02271912153D
libRbt.so/2013.1/901 2013/11/27
 11 12  0  0  0  0  0  0  0  0999 V2000
  -11.6734  -12.4364    6.2193 N   0  0  0  0  0  0  0  0  0  0  0  0
  -10.8782  -13.5097    6.0830 C   0  0  0  0  0  0  0  0  0  0  0  0
  -10.3288  -13.7789    4.9021 N   0  0  0  0  0  0  0  0  0  0  0  0
  -10.6408  -14.3201    7.1261 N   0  0  0  0  0  0  0  0  0  0  0  0
  -11.1948  -14.0758    8.3228 C   0  0  0  0  0  0  0  0  0  0  0  0
  -12.0215  -12.9723    8.4911 C   0  0  0  0  0  0  0  0  0  0  0  0
  -12.2505  -12.1458    7.3959 C   0  0  0  0  0  0  0  0  0  0  0  0
  -13.0275  -11.0733    7.5149 N   0  0  0  0  0  0  0  0  0  0  0  0
  -12.4418  -12.9757    9.7526 N   0  0  0  0  0  0  0  0  0  0  0  0
  -11.9064  -14.0338   10.3574 C   0  0  0  0  0  0  0  0  0  0  0  0
  -11.1478  -14.7052    9.4935 N   0  0  0  0  0  0  0  0  0  0  0  0
  1  7  2  0  0  0  0
  1  2  1  0  0  0  0
  2  3  1  0  0  0  0
  2  4  2  0  0  0  0
  4  5  1  0  0  0  0
  5  6  2  0  0  0  0
  5 11  1  0  0  0  0
  6  7  1  0  0  0  0
  6  9  1  0  0  0  0
  7  8  1  0  0  0  0
  9 10  1  0  0  0  0
 10 11  2  0  0  0  0
M  END
>  <CHROM.1>
-11.58791284,-13.27017540,7.76339174,1.16318291,0.91757360,-1.13666000

>  <Name>
ligand

>  <RI>
0

>  <Rbt.Current_Directory>
/home/itssahil/PROJECTS/Mol_Feturizer/Test_systems_manuscript/rnas/2b57

>  <Rbt.Executable>
rbdock ($Id: //depot/dev/client3/rdock/2013.1/src/exe/rbdock.cxx#4 $)

>  <Rbt.Library>
libRbt.so (2013.1, Build901 2013/11/27)

>  <Rbt.Parameter_File>
/export/apps/rDock/src/rDock_2013.1_src/data/scripts/dock_solv.prm

>  <Rbt.Receptor>
prm/blind_docking_100.prm

>  <SCORE>
-10.387

>  <SCORE.INTER>
-10.387

>  <SCORE.INTER.CONST>
1

>  <SCORE.INTER.POLAR>
0

>  <SCORE.INTER.ROT>
0

>  <SCORE.INTER.SOLV>
18.2182

>  <SCORE.INTER.VDW>
-16.5974

>  <SCORE.INTER.norm>
-0.944273

>  <SCORE.INTRA>
0

>  <SCORE.INTRA.DIHEDRAL>
0

>  <SCORE.INTRA.DIHEDRAL.0>
0

>  <SCORE.INTRA.POLAR>
0

>  <SCORE.INTRA.POLAR.0>
0

>  <SCORE.INTRA.REPUL>
0

>  <SCORE.INTRA.REPUL.0>
0

>  <SCORE.INTRA.SOLV>
0

>  <SCORE.INTRA.SOLV.lig_0>
-48.3454

>  <SCORE.INTRA.VDW>
0

>  <SCORE.INTRA.VDW.0>
0

>  <SCORE.INTRA.norm>
0

>  <SCORE.RESTR>
0

>  <SCORE.RESTR.CAVITY>
0

>  <SCORE.RESTR.norm>
0

>  <SCORE.SYSTEM>
0

>  <SCORE.SYSTEM.CONST>
0

>  <SCORE.SYSTEM.DIHEDRAL>
0

>  <SCORE.SYSTEM.SOLV>
0

>  <SCORE.SYSTEM.norm>
0

>  <SCORE.heavy>
11

>  <SCORE.norm>
-0.944273

>  <RMSD>
3.348

$$$$
ligand
 OpenBabel02271912153D
libRbt.so/2013.1/901 2013/11/27
 11 12  0  0  0  0  0  0  0  0999 V2000
  -11.6924  -12.4392    6.2252 N   0  0  0  0  0  0  0  0  0  0  0  0
  -10.8971  -13.5126    6.0907 C   0  0  0  0  0  0  0  0  0  0  0  0
  -10.3502  -13.7855    4.9095 N   0  0  0  0  0  0  0  0  0  0  0  0
  -10.6570  -14.3194    7.1360 N   0  0  0  0  0  0  0  0  0  0  0  0
  -11.2085  -14.0714    8.3332 C   0  0  0  0  0  0  0  0  0  0  0  0
  -12.0352  -12.9676    8.4996 C   0  0  0  0  0  0  0  0  0  0  0  0
  -12.2670  -12.1449    7.4022 C   0  0  0  0  0  0  0  0  0  0  0  0
  -13.0441  -11.0723    7.5194 N   0  0  0  0  0  0  0  0  0  0  0  0
  -12.4526  -12.9670    9.7620 N   0  0  0  0  0  0  0  0  0  0  0  0
  -11.9155  -14.0228   10.3691 C   0  0  0  0  0  0  0  0  0  0  0  0
  -11.1586  -14.6968    9.5058 N   0  0  0  0  0  0  0  0  0  0  0  0
  1  7  2  0  0  0  0
  1  2  1  0  0  0  0
  2  3  1  0  0  0  0
  2  4  2  0  0  0  0
  4  5  1  0  0  0  0
  5  6  2  0  0  0  0
  5 11  1  0  0  0  0
  6  7  1  0  0  0  0
  6  9  1  0  0  0  0
  7  8  1  0  0  0  0
  9 10  1  0  0  0  0
 10 11  2  0  0  0  0
M  END
>  <CHROM.1>
-11.60313144,-13.26775591,7.77192479,1.16679205,0.91817820,-1.14285303

>  <Name>
ligand

>  <RI>
0

>  <Rbt.Current_Directory>
/home/itssahil/PROJECTS/Mol_Feturizer/Test_systems_manuscript/rnas/2b57

>  <Rbt.Executable>
rbdock ($Id: //depot/dev/client3/rdock/2013.1/src/exe/rbdock.cxx#4 $)

>  <Rbt.Library>
libRbt.so (2013.1, Build901 2013/11/27)

>  <Rbt.Parameter_File>
/export/apps/rDock/src/rDock_2013.1_src/data/scripts/dock_solv.prm

>  <Rbt.Receptor>
prm/blind_docking_40.prm

>  <SCORE>
-10.4193

>  <SCORE.INTER>
-10.4193

>  <SCORE.INTER.CONST>
1

>  <SCORE.INTER.POLAR>
0

>  <SCORE.INTER.ROT>
0

>  <SCORE.INTER.SOLV>
18.2062

>  <SCORE.INTER.VDW>
-16.6149

>  <SCORE.INTER.norm>
-0.947205

>  <SCORE.INTRA>
0

>  <SCORE.INTRA.DIHEDRAL>
0

>  <SCORE.INTRA.DIHEDRAL.0>
0

>  <SCORE.INTRA.POLAR>
0

>  <SCORE.INTRA.POLAR.0>
0

>  <SCORE.INTRA.REPUL>
0

>  <SCORE.INTRA.REPUL.0>
0

>  <SCORE.INTRA.SOLV>
0

>  <SCORE.INTRA.SOLV.lig_0>
-48.3454

>  <SCORE.INTRA.VDW>
0

>  <SCORE.INTRA.VDW.0>
0

>  <SCORE.INTRA.norm>
0

>  <SCORE.RESTR>
0

>  <SCORE.RESTR.CAVITY>
0

>  <SCORE.RESTR.norm>
0

>  <SCORE.SYSTEM>
0

>  <SCORE.SYSTEM.CONST>
0

>  <SCORE.SYSTEM.DIHEDRAL>
0

>  <SCORE.SYSTEM.SOLV>
0

>  <SCORE.SYSTEM.norm>
0

>  <SCORE.heavy>
11

>  <SCORE.norm>
-0.947205

>  <RMSD>
3.348

$$$$
ligand
 OpenBabel02271912153D
libRbt.so/2013.1/901 2013/11/27
 11 12  0  0  0  0  0  0  0  0999 V2000
  -11.6607  -12.4249    6.2383 N   0  0  0  0  0  0  0  0  0  0  0  0
  -10.8542  -13.4902    6.1061 C   0  0  0  0  0  0  0  0  0  0  0  0
  -10.2907  -13.7500    4.9297 N   0  0  0  0  0  0  0  0  0  0  0  0
  -10.6195  -14.3020    7.1487 N   0  0  0  0  0  0  0  0  0  0  0  0
  -11.1875  -14.0672    8.3408 C   0  0  0  0  0  0  0  0  0  0  0  0
  -12.0262  -12.9720    8.5046 C   0  0  0  0  0  0  0  0  0  0  0  0
  -12.2521  -12.1439    7.4101 C   0  0  0  0  0  0  0  0  0  0  0  0
  -13.0402  -11.0791    7.5251 N   0  0  0  0  0  0  0  0  0  0  0  0
  -12.4587  -12.9838    9.7619 N   0  0  0  0  0  0  0  0  0  0  0  0
  -11.9194  -14.0390   10.3683 C   0  0  0  0  0  0  0  0  0  0  0  0
  -11.1461  -14.7002    9.5096 N   0  0  0  0  0  0  0  0  0  0  0  0
  1  7  2  0  0  0  0
  1  2  1  0  0  0  0
  2  3  1  0  0  0  0
  2  4  2  0  0  0  0
  4  5  1  0  0  0  0
  5  6  2  0  0  0  0
  5 11  1  0  0  0  0
  6  7  1  0  0  0  0
  6  9  1  0  0  0  0
  7  8  1  0  0  0  0
  9 10  1  0  0  0  0
 10 11  2  0  0  0  0
M  END
>  <CHROM.1>
-11.58262596,-13.26325335,7.78025056,1.15512455,0.90490422,-1.12678902

>  <Name>
ligand

>  <RI>
0

>  <Rbt.Current_Directory>
/home/itssahil/PROJECTS/Mol_Feturizer/Test_systems_manuscript/rnas/2b57

>  <Rbt.Executable>
rbdock ($Id: //depot/dev/client3/rdock/2013.1/src/exe/rbdock.cxx#4 $)

>  <Rbt.Library>
libRbt.so (2013.1, Build901 2013/11/27)

>  <Rbt.Parameter_File>
/export/apps/rDock/src/rDock_2013.1_src/data/scripts/dock_solv.prm

>  <Rbt.Receptor>
prm/blind_docking_40.prm

>  <SCORE>
-10.3934

>  <SCORE.INTER>
-10.3934

>  <SCORE.INTER.CONST>
1

>  <SCORE.INTER.POLAR>
0

>  <SCORE.INTER.ROT>
0

>  <SCORE.INTER.SOLV>
17.9951

>  <SCORE.INTER.VDW>
-16.5273

>  <SCORE.INTER.norm>
-0.944854

>  <SCORE.INTRA>
0

>  <SCORE.INTRA.DIHEDRAL>
0

>  <SCORE.INTRA.DIHEDRAL.0>
0

>  <SCORE.INTRA.POLAR>
0

>  <SCORE.INTRA.POLAR.0>
0

>  <SCORE.INTRA.REPUL>
0

>  <SCORE.INTRA.REPUL.0>
0

>  <SCORE.INTRA.SOLV>
0

>  <SCORE.INTRA.SOLV.lig_0>
-48.3454

>  <SCORE.INTRA.VDW>
0

>  <SCORE.INTRA.VDW.0>
0

>  <SCORE.INTRA.norm>
0

>  <SCORE.RESTR>
0

>  <SCORE.RESTR.CAVITY>
0

>  <SCORE.RESTR.norm>
0

>  <SCORE.SYSTEM>
0

>  <SCORE.SYSTEM.CONST>
0

>  <SCORE.SYSTEM.DIHEDRAL>
0

>  <SCORE.SYSTEM.SOLV>
0

>  <SCORE.SYSTEM.norm>
0

>  <SCORE.heavy>
11

>  <SCORE.norm>
-0.944854

>  <RMSD>
3.348

$$$$
ligand
 OpenBabel02271912153D
libRbt.so/2013.1/901 2013/11/27
 11 12  0  0  0  0  0  0  0  0999 V2000
  -11.6776  -12.4267    6.2315 N   0  0  0  0  0  0  0  0  0  0  0  0
  -10.8784  -13.4973    6.0974 C   0  0  0  0  0  0  0  0  0  0  0  0
  -10.3241  -13.7642    4.9183 N   0  0  0  0  0  0  0  0  0  0  0  0
  -10.6418  -14.3073    7.1410 N   0  0  0  0  0  0  0  0  0  0  0  0
  -11.2007  -14.0654    8.3360 C   0  0  0  0  0  0  0  0  0  0  0  0
  -12.0316  -12.9647    8.5019 C   0  0  0  0  0  0  0  0  0  0  0  0
  -12.2596  -12.1385    7.4063 C   0  0  0  0  0  0  0  0  0  0  0  0
  -13.0405  -11.0686    7.5231 N   0  0  0  0  0  0  0  0  0  0  0  0
  -12.4561  -12.9700    9.7619 N   0  0  0  0  0  0  0  0  0  0  0  0
  -11.9192  -14.0266   10.3681 C   0  0  0  0  0  0  0  0  0  0  0  0
  -11.1555  -14.6951    9.5065 N   0  0  0  0  0  0  0  0  0  0  0  0
  1  7  2  0  0  0  0
  1  2  1  0  0  0  0
  2  3  1  0  0  0  0
  2  4  2  0  0  0  0
  4  5  1  0  0  0  0
  5  6  2  0  0  0  0
  5 11  1  0  0  0  0
  6  7  1  0  0  0  0
  6  9  1  0  0  0  0
  7  8  1  0  0  0  0
  9 10  1  0  0  0  0
 10 11  2  0  0  0  0
M  END
>  <CHROM.1>
-11.59454616,-13.26083166,7.77553181,1.16045473,0.91315577,-1.13408543

>  <Name>
ligand

>  <RI>
0

>  <Rbt.Current_Directory>
/home/itssahil/PROJECTS/Mol_Feturizer/Test_systems_manuscript/rnas/2b57

>  <Rbt.Executable>
rbdock ($Id: //depot/dev/client3/rdock/2013.1/src/exe/rbdock.cxx#4 $)

>  <Rbt.Library>
libRbt.so (2013.1, Build901 2013/11/27)

>  <Rbt.Parameter_File>
/export/apps/rDock/src/rDock_2013.1_src/data/scripts/dock_solv.prm

>  <Rbt.Receptor>
prm/blind_docking_60.prm

>  <SCORE>
-10.3932

>  <SCORE.INTER>
-10.3932

>  <SCORE.INTER.CONST>
1

>  <SCORE.INTER.POLAR>
0

>  <SCORE.INTER.ROT>
0

>  <SCORE.INTER.SOLV>
18.1175

>  <SCORE.INTER.VDW>
-16.568

>  <SCORE.INTER.norm>
-0.944835

>  <SCORE.INTRA>
0

>  <SCORE.INTRA.DIHEDRAL>
0

>  <SCORE.INTRA.DIHEDRAL.0>
0

>  <SCORE.INTRA.POLAR>
0

>  <SCORE.INTRA.POLAR.0>
0

>  <SCORE.INTRA.REPUL>
0

>  <SCORE.INTRA.REPUL.0>
0

>  <SCORE.INTRA.SOLV>
0

>  <SCORE.INTRA.SOLV.lig_0>
-48.3454

>  <SCORE.INTRA.VDW>
0

>  <SCORE.INTRA.VDW.0>
0

>  <SCORE.INTRA.norm>
0

>  <SCORE.RESTR>
0

>  <SCORE.RESTR.CAVITY>
0

>  <SCORE.RESTR.norm>
0

>  <SCORE.SYSTEM>
0

>  <SCORE.SYSTEM.CONST>
0

>  <SCORE.SYSTEM.DIHEDRAL>
0

>  <SCORE.SYSTEM.SOLV>
0

>  <SCORE.SYSTEM.norm>
0

>  <SCORE.heavy>
11

>  <SCORE.norm>
-0.944835

>  <RMSD>
3.348

$$$$
ligand
 OpenBabel02271912153D
libRbt.so/2013.1/901 2013/11/27
 11 12  0  0  0  0  0  0  0  0999 V2000
  -11.6884  -12.4406    6.2245 N   0  0  0  0  0  0  0  0  0  0  0  0
  -10.8940  -13.5146    6.0900 C   0  0  0  0  0  0  0  0  0  0  0  0
  -10.3470  -13.7877    4.9088 N   0  0  0  0  0  0  0  0  0  0  0  0
  -10.6548  -14.3218    7.1351 N   0  0  0  0  0  0  0  0  0  0  0  0
  -11.2063  -14.0736    8.3322 C   0  0  0  0  0  0  0  0  0  0  0  0
  -12.0322  -12.9692    8.4987 C   0  0  0  0  0  0  0  0  0  0  0  0
  -12.2630  -12.1461    7.4014 C   0  0  0  0  0  0  0  0  0  0  0  0
  -13.0393  -11.0729    7.5186 N   0  0  0  0  0  0  0  0  0  0  0  0
  -12.4499  -12.9685    9.7610 N   0  0  0  0  0  0  0  0  0  0  0  0
  -11.9138  -14.0249   10.3680 C   0  0  0  0  0  0  0  0  0  0  0  0
  -11.1572  -14.6993    9.5047 N   0  0  0  0  0  0  0  0  0  0  0  0
  1  7  2  0  0  0  0
  1  2  1  0  0  0  0
  2  3  1  0  0  0  0
  2  4  2  0  0  0  0
  4  5  1  0  0  0  0
  5  6  2  0  0  0  0
  5 11  1  0  0  0  0
  6  7  1  0  0  0  0
  6  9  1  0  0  0  0
  7  8  1  0  0  0  0
  9 10  1  0  0  0  0
 10 11  2  0  0  0  0
M  END
>  <CHROM.1>
-11.60016612,-13.26954573,7.77106858,1.16587188,0.91879764,-1.14191318

>  <Name>
ligand

>  <RI>
0

>  <Rbt.Current_Directory>
/home/itssahil/PROJECTS/Mol_Feturizer/Test_systems_manuscript/rnas/2b57

>  <Rbt.Executable>
rbdock ($Id: //depot/dev/client3/rdock/2013.1/src/exe/rbdock.cxx#4 $)

>  <Rbt.Library>
libRbt.so (2013.1, Build901 2013/11/27)

>  <Rbt.Parameter_File>
/export/apps/rDock/src/rDock_2013.1_src/data/scripts/dock_solv.prm

>  <Rbt.Receptor>
prm/blind_docking_60.prm

>  <SCORE>
-10.4175

>  <SCORE.INTER>
-10.4175

>  <SCORE.INTER.CONST>
1

>  <SCORE.INTER.POLAR>
0

>  <SCORE.INTER.ROT>
0

>  <SCORE.INTER.SOLV>
18.2074

>  <SCORE.INTER.VDW>
-16.6141

>  <SCORE.INTER.norm>
-0.947049

>  <SCORE.INTRA>
0

>  <SCORE.INTRA.DIHEDRAL>
0

>  <SCORE.INTRA.DIHEDRAL.0>
0

>  <SCORE.INTRA.POLAR>
0

>  <SCORE.INTRA.POLAR.0>
0

>  <SCORE.INTRA.REPUL>
0

>  <SCORE.INTRA.REPUL.0>
0

>  <SCORE.INTRA.SOLV>
0

>  <SCORE.INTRA.SOLV.lig_0>
-48.3454

>  <SCORE.INTRA.VDW>
0

>  <SCORE.INTRA.VDW.0>
0

>  <SCORE.INTRA.norm>
0

>  <SCORE.RESTR>
0

>  <SCORE.RESTR.CAVITY>
0

>  <SCORE.RESTR.norm>
0

>  <SCORE.SYSTEM>
0

>  <SCORE.SYSTEM.CONST>
0

>  <SCORE.SYSTEM.DIHEDRAL>
0

>  <SCORE.SYSTEM.SOLV>
0

>  <SCORE.SYSTEM.norm>
0

>  <SCORE.heavy>
11

>  <SCORE.norm>
-0.947049

>  <RMSD>
3.348

$$$$
ligand
 OpenBabel02271912153D
libRbt.so/2013.1/901 2013/11/27
 11 12  0  0  0  0  0  0  0  0999 V2000
  -11.6839  -12.4310    6.2403 N   0  0  0  0  0  0  0  0  0  0  0  0
  -10.8813  -13.4991    6.1070 C   0  0  0  0  0  0  0  0  0  0  0  0
  -10.3254  -13.7645    4.9282 N   0  0  0  0  0  0  0  0  0  0  0  0
  -10.6428  -14.3081    7.1509 N   0  0  0  0  0  0  0  0  0  0  0  0
  -11.2031  -14.0677    8.3455 C   0  0  0  0  0  0  0  0  0  0  0  0
  -12.0376  -12.9695    8.5106 C   0  0  0  0  0  0  0  0  0  0  0  0
  -12.2675  -12.1443    7.4147 C   0  0  0  0  0  0  0  0  0  0  0  0
  -13.0518  -11.0768    7.5308 N   0  0  0  0  0  0  0  0  0  0  0  0
  -12.4628  -12.9758    9.7705 N   0  0  0  0  0  0  0  0  0  0  0  0
  -11.9230  -14.0306   10.3772 C   0  0  0  0  0  0  0  0  0  0  0  0
  -11.1567  -14.6969    9.5162 N   0  0  0  0  0  0  0  0  0  0  0  0
  1  7  2  0  0  0  0
  1  2  1  0  0  0  0
  2  3  1  0  0  0  0
  2  4  2  0  0  0  0
  4  5  1  0  0  0  0
  5  6  2  0  0  0  0
  5 11  1  0  0  0  0
  6  7  1  0  0  0  0
  6  9  1  0  0  0  0
  7  8  1  0  0  0  0
  9 10  1  0  0  0  0
 10 11  2  0  0  0  0
M  END
>  <CHROM.1>
-11.59915734,-13.26443271,7.78463464,1.16171932,0.91007548,-1.13531029

>  <Name>
ligand

>  <RI>
0

>  <Rbt.Current_Directory>
/home/itssahil/PROJECTS/Mol_Feturizer/Test_systems_manuscript/rnas/2b57

>  <Rbt.Executable>
rbdock ($Id: //depot/dev/client3/rdock/2013.1/src/exe/rbdock.cxx#4 $)

>  <Rbt.Library>
libRbt.so (2013.1, Build901 2013/11/27)

>  <Rbt.Parameter_File>
/export/apps/rDock/src/rDock_2013.1_src/data/scripts/dock_solv.prm

>  <Rbt.Receptor>
prm/blind_docking_80.prm

>  <SCORE>
-10.3921

>  <SCORE.INTER>
-10.3921

>  <SCORE.INTER.CONST>
1

>  <SCORE.INTER.POLAR>
0

>  <SCORE.INTER.ROT>
0

>  <SCORE.INTER.SOLV>
18.0611

>  <SCORE.INTER.VDW>
-16.5484

>  <SCORE.INTER.norm>
-0.944739

>  <SCORE.INTRA>
0

>  <SCORE.INTRA.DIHEDRAL>
0

>  <SCORE.INTRA.DIHEDRAL.0>
0

>  <SCORE.INTRA.POLAR>
0

>  <SCORE.INTRA.POLAR.0>
0

>  <SCORE.INTRA.REPUL>
0

>  <SCORE.INTRA.REPUL.0>
0

>  <SCORE.INTRA.SOLV>
0

>  <SCORE.INTRA.SOLV.lig_0>
-48.3454

>  <SCORE.INTRA.VDW>
0

>  <SCORE.INTRA.VDW.0>
0

>  <SCORE.INTRA.norm>
0

>  <SCORE.RESTR>
0

>  <SCORE.RESTR.CAVITY>
0

>  <SCORE.RESTR.norm>
0

>  <SCORE.SYSTEM>
0

>  <SCORE.SYSTEM.CONST>
0

>  <SCORE.SYSTEM.DIHEDRAL>
0

>  <SCORE.SYSTEM.SOLV>
0

>  <SCORE.SYSTEM.norm>
0

>  <SCORE.heavy>
11

>  <SCORE.norm>
-0.944739

>  <RMSD>
3.348

$$$$
ligand
 OpenBabel02271912153D
libRbt.so/2013.1/901 2013/11/27
 11 12  0  0  0  0  0  0  0  0999 V2000
  -11.6903  -12.4451    6.2288 N   0  0  0  0  0  0  0  0  0  0  0  0
  -10.8951  -13.5184    6.0928 C   0  0  0  0  0  0  0  0  0  0  0  0
  -10.3480  -13.7895    4.9112 N   0  0  0  0  0  0  0  0  0  0  0  0
  -10.6553  -14.3269    7.1368 N   0  0  0  0  0  0  0  0  0  0  0  0
  -11.2070  -14.0807    8.3343 C   0  0  0  0  0  0  0  0  0  0  0  0
  -12.0337  -12.9770    8.5023 C   0  0  0  0  0  0  0  0  0  0  0  0
  -12.2651  -12.1526    7.4061 C   0  0  0  0  0  0  0  0  0  0  0  0
  -13.0421  -11.0801    7.5248 N   0  0  0  0  0  0  0  0  0  0  0  0
  -12.4514  -12.9784    9.7646 N   0  0  0  0  0  0  0  0  0  0  0  0
  -11.9145  -14.0353   10.3701 C   0  0  0  0  0  0  0  0  0  0  0  0
  -11.1574  -14.7079    9.5059 N   0  0  0  0  0  0  0  0  0  0  0  0
  1  7  2  0  0  0  0
  1  2  1  0  0  0  0
  2  3  1  0  0  0  0
  2  4  2  0  0  0  0
  4  5  1  0  0  0  0
  5  6  2  0  0  0  0
  5 11  1  0  0  0  0
  6  7  1  0  0  0  0
  6  9  1  0  0  0  0
  7  8  1  0  0  0  0
  9 10  1  0  0  0  0
 10 11  2  0  0  0  0
M  END
>  <CHROM.1>
-11.60144938,-13.27609908,7.77421499,1.16638520,0.91817092,-1.14094487

>  <Name>
ligand

>  <RI>
0

>  <Rbt.Current_Directory>
/home/itssahil/PROJECTS/Mol_Feturizer/Test_systems_manuscript/rnas/2b57

>  <Rbt.Executable>
rbdock ($Id: //depot/dev/client3/rdock/2013.1/src/exe/rbdock.cxx#4 $)

>  <Rbt.Library>
libRbt.so (2013.1, Build901 2013/11/27)

>  <Rbt.Parameter_File>
/export/apps/rDock/src/rDock_2013.1_src/data/scripts/dock_solv.prm

>  <Rbt.Receptor>
prm/pocket_docking_5.prm

>  <SCORE>
-10.4171

>  <SCORE.INTER>
-10.4171

>  <SCORE.INTER.CONST>
1

>  <SCORE.INTER.POLAR>
0

>  <SCORE.INTER.ROT>
0

>  <SCORE.INTER.SOLV>
18.1931

>  <SCORE.INTER.VDW>
-16.6091

>  <SCORE.INTER.norm>
-0.94701

>  <SCORE.INTRA>
0

>  <SCORE.INTRA.DIHEDRAL>
0

>  <SCORE.INTRA.DIHEDRAL.0>
0

>  <SCORE.INTRA.POLAR>
0

>  <SCORE.INTRA.POLAR.0>
0

>  <SCORE.INTRA.REPUL>
0

>  <SCORE.INTRA.REPUL.0>
0

>  <SCORE.INTRA.SOLV>
0

>  <SCORE.INTRA.SOLV.lig_0>
-48.3454

>  <SCORE.INTRA.VDW>
0

>  <SCORE.INTRA.VDW.0>
0

>  <SCORE.INTRA.norm>
0

>  <SCORE.RESTR>
0

>  <SCORE.RESTR.CAVITY>
0

>  <SCORE.RESTR.norm>
0

>  <SCORE.SYSTEM>
0

>  <SCORE.SYSTEM.CONST>
0

>  <SCORE.SYSTEM.DIHEDRAL>
0

>  <SCORE.SYSTEM.SOLV>
0

>  <SCORE.SYSTEM.norm>
0

>  <SCORE.heavy>
11

>  <SCORE.norm>
-0.94701

>  <RMSD>
3.348

$$$$
ligand
 OpenBabel02271912153D
libRbt.so/2013.1/901 2013/11/27
 11 12  0  0  0  0  0  0  0  0999 V2000
  -11.6796  -12.4308    6.2379 N   0  0  0  0  0  0  0  0  0  0  0  0
  -10.8790  -13.5003    6.1037 C   0  0  0  0  0  0  0  0  0  0  0  0
  -10.3235  -13.7657    4.9248 N   0  0  0  0  0  0  0  0  0  0  0  0
  -10.6421  -14.3107    7.1469 N   0  0  0  0  0  0  0  0  0  0  0  0
  -11.2021  -14.0703    8.3417 C   0  0  0  0  0  0  0  0  0  0  0  0
  -12.0346  -12.9706    8.5077 C   0  0  0  0  0  0  0  0  0  0  0  0
  -12.2628  -12.1441    7.4125 C   0  0  0  0  0  0  0  0  0  0  0  0
  -13.0452  -11.0753    7.5294 N   0  0  0  0  0  0  0  0  0  0  0  0
  -12.4599  -12.9773    9.7675 N   0  0  0  0  0  0  0  0  0  0  0  0
  -11.9221  -14.0336   10.3733 C   0  0  0  0  0  0  0  0  0  0  0  0
  -11.1570  -14.7006    9.5118 N   0  0  0  0  0  0  0  0  0  0  0  0
  1  7  2  0  0  0  0
  1  2  1  0  0  0  0
  2  3  1  0  0  0  0
  2  4  2  0  0  0  0
  4  5  1  0  0  0  0
  5  6  2  0  0  0  0
  5 11  1  0  0  0  0
  6  7  1  0  0  0  0
  6  9  1  0  0  0  0
  7  8  1  0  0  0  0
  9 10  1  0  0  0  0
 10 11  2  0  0  0  0
M  END
>  <CHROM.1>
-11.59660601,-13.26578961,7.78146312,1.16027612,0.91171862,-1.13330045

>  <Name>
ligand

>  <RI>
0

>  <Rbt.Current_Directory>
/home/itssahil/PROJECTS/Mol_Feturizer/Test_systems_manuscript/rnas/2b57

>  <Rbt.Executable>
rbdock ($Id: //depot/dev/client3/rdock/2013.1/src/exe/rbdock.cxx#4 $)

>  <Rbt.Library>
libRbt.so (2013.1, Build901 2013/11/27)

>  <Rbt.Parameter_File>
/export/apps/rDock/src/rDock_2013.1_src/data/scripts/dock_solv.prm

>  <Rbt.Receptor>
prm/pocket_docking_6.prm

>  <SCORE>
-10.3943

>  <SCORE.INTER>
-10.3943

>  <SCORE.INTER.CONST>
1

>  <SCORE.INTER.POLAR>
0

>  <SCORE.INTER.ROT>
0

>  <SCORE.INTER.SOLV>
18.079

>  <SCORE.INTER.VDW>
-16.5558

>  <SCORE.INTER.norm>
-0.944933

>  <SCORE.INTRA>
0

>  <SCORE.INTRA.DIHEDRAL>
0

>  <SCORE.INTRA.DIHEDRAL.0>
0

>  <SCORE.INTRA.POLAR>
0

>  <SCORE.INTRA.POLAR.0>
0

>  <SCORE.INTRA.REPUL>
0

>  <SCORE.INTRA.REPUL.0>
0

>  <SCORE.INTRA.SOLV>
0

>  <SCORE.INTRA.SOLV.lig_0>
-48.3454

>  <SCORE.INTRA.VDW>
0

>  <SCORE.INTRA.VDW.0>
0

>  <SCORE.INTRA.norm>
0

>  <SCORE.RESTR>
0

>  <SCORE.RESTR.CAVITY>
0

>  <SCORE.RESTR.norm>
0

>  <SCORE.SYSTEM>
0

>  <SCORE.SYSTEM.CONST>
0

>  <SCORE.SYSTEM.DIHEDRAL>
0

>  <SCORE.SYSTEM.SOLV>
0

>  <SCORE.SYSTEM.norm>
0

>  <SCORE.heavy>
11

>  <SCORE.norm>
-0.944933

>  <RMSD>
3.348

$$$$
ligand
 OpenBabel02271912153D
libRbt.so/2013.1/901 2013/11/27
 11 12  0  0  0  0  0  0  0  0999 V2000
  -11.6846  -12.4293    6.2361 N   0  0  0  0  0  0  0  0  0  0  0  0
  -10.8829  -13.4980    6.1024 C   0  0  0  0  0  0  0  0  0  0  0  0
  -10.3282  -13.7640    4.9232 N   0  0  0  0  0  0  0  0  0  0  0  0
  -10.6440  -14.3069    7.1463 N   0  0  0  0  0  0  0  0  0  0  0  0
  -11.2032  -14.0658    8.3413 C   0  0  0  0  0  0  0  0  0  0  0  0
  -12.0368  -12.9670    8.5068 C   0  0  0  0  0  0  0  0  0  0  0  0
  -12.2671  -12.1420    7.4109 C   0  0  0  0  0  0  0  0  0  0  0  0
  -13.0506  -11.0740    7.5274 N   0  0  0  0  0  0  0  0  0  0  0  0
  -12.4610  -12.9728    9.7670 N   0  0  0  0  0  0  0  0  0  0  0  0
  -11.9214  -14.0278   10.3735 C   0  0  0  0  0  0  0  0  0  0  0  0
  -11.1562  -14.6948    9.5121 N   0  0  0  0  0  0  0  0  0  0  0  0
  1  7  2  0  0  0  0
  1  2  1  0  0  0  0
  2  3  1  0  0  0  0
  2  4  2  0  0  0  0
  4  5  1  0  0  0  0
  5  6  2  0  0  0  0
  5 11  1  0  0  0  0
  6  7  1  0  0  0  0
  6  9  1  0  0  0  0
  7  8  1  0  0  0  0
  9 10  1  0  0  0  0
 10 11  2  0  0  0  0
M  END
>  <CHROM.1>
-11.59918276,-13.26246996,7.78054060,1.16248319,0.91102948,-1.13615218

>  <Name>
ligand

>  <RI>
0

>  <Rbt.Current_Directory>
/home/itssahil/PROJECTS/Mol_Feturizer/Test_systems_manuscript/rnas/2b57

>  <Rbt.Executable>
rbdock ($Id: //depot/dev/client3/rdock/2013.1/src/exe/rbdock.cxx#4 $)

>  <Rbt.Library>
libRbt.so (2013.1, Build901 2013/11/27)

>  <Rbt.Parameter_File>
/export/apps/rDock/src/rDock_2013.1_src/data/scripts/dock_solv.prm

>  <Rbt.Receptor>
prm/pocket_docking_6.prm

>  <SCORE>
-10.3933

>  <SCORE.INTER>
-10.3933

>  <SCORE.INTER.CONST>
1

>  <SCORE.INTER.POLAR>
0

>  <SCORE.INTER.ROT>
0

>  <SCORE.INTER.SOLV>
18.0912

>  <SCORE.INTER.VDW>
-16.5593

>  <SCORE.INTER.norm>
-0.944846

>  <SCORE.INTRA>
0

>  <SCORE.INTRA.DIHEDRAL>
0

>  <SCORE.INTRA.DIHEDRAL.0>
0

>  <SCORE.INTRA.POLAR>
0

>  <SCORE.INTRA.POLAR.0>
0

>  <SCORE.INTRA.REPUL>
0

>  <SCORE.INTRA.REPUL.0>
0

>  <SCORE.INTRA.SOLV>
0

>  <SCORE.INTRA.SOLV.lig_0>
-48.3454

>  <SCORE.INTRA.VDW>
0

>  <SCORE.INTRA.VDW.0>
0

>  <SCORE.INTRA.norm>
0

>  <SCORE.RESTR>
0

>  <SCORE.RESTR.CAVITY>
0

>  <SCORE.RESTR.norm>
0

>  <SCORE.SYSTEM>
0

>  <SCORE.SYSTEM.CONST>
0

>  <SCORE.SYSTEM.DIHEDRAL>
0

>  <SCORE.SYSTEM.SOLV>
0

>  <SCORE.SYSTEM.norm>
0

>  <SCORE.heavy>
11

>  <SCORE.norm>
-0.944846

>  <RMSD>
3.348

$$$$
ligand
 OpenBabel02271912153D
libRbt.so/2013.1/901 2013/11/27
 11 12  0  0  0  0  0  0  0  0999 V2000
  -11.6702  -12.4336    6.2413 N   0  0  0  0  0  0  0  0  0  0  0  0
  -10.8690  -13.5027    6.1082 C   0  0  0  0  0  0  0  0  0  0  0  0
  -10.3104  -13.7669    4.9304 N   0  0  0  0  0  0  0  0  0  0  0  0
  -10.6346  -14.3141    7.1512 N   0  0  0  0  0  0  0  0  0  0  0  0
  -11.1978  -14.0750    8.3447 C   0  0  0  0  0  0  0  0  0  0  0  0
  -12.0309  -12.9757    8.5097 C   0  0  0  0  0  0  0  0  0  0  0  0
  -12.2566  -12.1482    7.4147 C   0  0  0  0  0  0  0  0  0  0  0  0
  -13.0395  -11.0797    7.5306 N   0  0  0  0  0  0  0  0  0  0  0  0
  -12.4595  -12.9837    9.7683 N   0  0  0  0  0  0  0  0  0  0  0  0
  -11.9230  -14.0405   10.3745 C   0  0  0  0  0  0  0  0  0  0  0  0
  -11.1554  -14.7064    9.5144 N   0  0  0  0  0  0  0  0  0  0  0  0
  1  7  2  0  0  0  0
  1  2  1  0  0  0  0
  2  3  1  0  0  0  0
  2  4  2  0  0  0  0
  4  5  1  0  0  0  0
  5  6  2  0  0  0  0
  5 11  1  0  0  0  0
  6  7  1  0  0  0  0
  6  9  1  0  0  0  0
  7  8  1  0  0  0  0
  9 10  1  0  0  0  0
 10 11  2  0  0  0  0
M  END
>  <CHROM.1>
-11.59098638,-13.27005928,7.78429461,1.15665987,0.91036986,-1.12947680

>  <Name>
ligand

>  <RI>
0

>  <Rbt.Current_Directory>
/home/itssahil/PROJECTS/Mol_Feturizer/Test_systems_manuscript/rnas/2b57

>  <Rbt.Executable>
rbdock ($Id: //depot/dev/client3/rdock/2013.1/src/exe/rbdock.cxx#4 $)

>  <Rbt.Library>
libRbt.so (2013.1, Build901 2013/11/27)

>  <Rbt.Parameter_File>
/export/apps/rDock/src/rDock_2013.1_src/data/scripts/dock_solv.prm

>  <Rbt.Receptor>
prm/pocket_docking_6.prm

>  <SCORE>
-10.3922

>  <SCORE.INTER>
-10.3922

>  <SCORE.INTER.CONST>
1

>  <SCORE.INTER.POLAR>
0

>  <SCORE.INTER.ROT>
0

>  <SCORE.INTER.SOLV>
18.0299

>  <SCORE.INTER.VDW>
-16.5381

>  <SCORE.INTER.norm>
-0.944748

>  <SCORE.INTRA>
0

>  <SCORE.INTRA.DIHEDRAL>
0

>  <SCORE.INTRA.DIHEDRAL.0>
0

>  <SCORE.INTRA.POLAR>
0

>  <SCORE.INTRA.POLAR.0>
0

>  <SCORE.INTRA.REPUL>
0

>  <SCORE.INTRA.REPUL.0>
0

>  <SCORE.INTRA.SOLV>
0

>  <SCORE.INTRA.SOLV.lig_0>
-48.3454

>  <SCORE.INTRA.VDW>
0

>  <SCORE.INTRA.VDW.0>
0

>  <SCORE.INTRA.norm>
0

>  <SCORE.RESTR>
0

>  <SCORE.RESTR.CAVITY>
0

>  <SCORE.RESTR.norm>
0

>  <SCORE.SYSTEM>
0

>  <SCORE.SYSTEM.CONST>
0

>  <SCORE.SYSTEM.DIHEDRAL>
0

>  <SCORE.SYSTEM.SOLV>
0

>  <SCORE.SYSTEM.norm>
0

>  <SCORE.heavy>
11

>  <SCORE.norm>
-0.944748

>  <RMSD>
3.348

$$$$
ligand
 OpenBabel02271912153D
libRbt.so/2013.1/901 2013/11/27
 11 12  0  0  0  0  0  0  0  0999 V2000
  -11.7274  -12.4435    6.2424 N   0  0  0  0  0  0  0  0  0  0  0  0
  -10.9494  -13.5278    6.0949 C   0  0  0  0  0  0  0  0  0  0  0  0
  -10.4278  -13.8094    4.9043 N   0  0  0  0  0  0  0  0  0  0  0  0
  -10.7013  -14.3366    7.1367 N   0  0  0  0  0  0  0  0  0  0  0  0
  -11.2274  -14.0798    8.3434 C   0  0  0  0  0  0  0  0  0  0  0  0
  -12.0360  -12.9647    8.5233 C   0  0  0  0  0  0  0  0  0  0  0  0
  -12.2764  -12.1401    7.4292 C   0  0  0  0  0  0  0  0  0  0  0  0
  -13.0367  -11.0569    7.5590 N   0  0  0  0  0  0  0  0  0  0  0  0
  -12.4303  -12.9570    9.7931 N   0  0  0  0  0  0  0  0  0  0  0  0
  -11.8965  -14.0194   10.3918 C   0  0  0  0  0  0  0  0  0  0  0  0
  -11.1647  -14.7045    9.5157 N   0  0  0  0  0  0  0  0  0  0  0  0
  1  7  2  0  0  0  0
  1  2  1  0  0  0  0
  2  3  1  0  0  0  0
  2  4  2  0  0  0  0
  4  5  1  0  0  0  0
  5  6  2  0  0  0  0
  5 11  1  0  0  0  0
  6  7  1  0  0  0  0
  6  9  1  0  0  0  0
  7  8  1  0  0  0  0
  9 10  1  0  0  0  0
 10 11  2  0  0  0  0
M  END
>  <CHROM.1>
-11.62128100,-13.27148009,7.78832417,1.18526590,0.93799334,-1.15887041

>  <Name>
ligand

>  <RI>
0

>  <Rbt.Current_Directory>
/home/itssahil/PROJECTS/Mol_Feturizer/Test_systems_manuscript/rnas/2b57

>  <Rbt.Executable>
rbdock ($Id: //depot/dev/client3/rdock/2013.1/src/exe/rbdock.cxx#4 $)

>  <Rbt.Library>
libRbt.so (2013.1, Build901 2013/11/27)

>  <Rbt.Parameter_File>
/export/apps/rDock/src/rDock_2013.1_src/data/scripts/dock_solv.prm

>  <Rbt.Receptor>
prm/pocket_docking_7.prm

>  <SCORE>
-10.3736

>  <SCORE.INTER>
-10.3736

>  <SCORE.INTER.CONST>
1

>  <SCORE.INTER.POLAR>
0

>  <SCORE.INTER.ROT>
0

>  <SCORE.INTER.SOLV>
18.38

>  <SCORE.INTER.VDW>
-16.6424

>  <SCORE.INTER.norm>
-0.943054

>  <SCORE.INTRA>
0

>  <SCORE.INTRA.DIHEDRAL>
0

>  <SCORE.INTRA.DIHEDRAL.0>
0

>  <SCORE.INTRA.POLAR>
0

>  <SCORE.INTRA.POLAR.0>
0

>  <SCORE.INTRA.REPUL>
0

>  <SCORE.INTRA.REPUL.0>
0

>  <SCORE.INTRA.SOLV>
0

>  <SCORE.INTRA.SOLV.lig_0>
-48.3454

>  <SCORE.INTRA.VDW>
0

>  <SCORE.INTRA.VDW.0>
0

>  <SCORE.INTRA.norm>
0

>  <SCORE.RESTR>
0

>  <SCORE.RESTR.CAVITY>
0

>  <SCORE.RESTR.norm>
0

>  <SCORE.SYSTEM>
0

>  <SCORE.SYSTEM.CONST>
0

>  <SCORE.SYSTEM.DIHEDRAL>
0

>  <SCORE.SYSTEM.SOLV>
0

>  <SCORE.SYSTEM.norm>
0

>  <SCORE.heavy>
11

>  <SCORE.norm>
-0.943054

>  <RMSD>
3.348

$$$$
ligand
 OpenBabel02271912153D
libRbt.so/2013.1/901 2013/11/27
 11 12  0  0  0  0  0  0  0  0999 V2000
  -11.6773  -12.4272    6.2271 N   0  0  0  0  0  0  0  0  0  0  0  0
  -10.8772  -13.4972    6.0946 C   0  0  0  0  0  0  0  0  0  0  0  0
  -10.3225  -13.7651    4.9158 N   0  0  0  0  0  0  0  0  0  0  0  0
  -10.6400  -14.3057    7.1392 N   0  0  0  0  0  0  0  0  0  0  0  0
  -11.1993  -14.0627    8.3338 C   0  0  0  0  0  0  0  0  0  0  0  0
  -12.0312  -12.9625    8.4982 C   0  0  0  0  0  0  0  0  0  0  0  0
  -12.2598  -12.1380    7.4015 C   0  0  0  0  0  0  0  0  0  0  0  0
  -13.0417  -11.0686    7.5168 N   0  0  0  0  0  0  0  0  0  0  0  0
  -12.4559  -12.9666    9.7582 N   0  0  0  0  0  0  0  0  0  0  0  0
  -11.9182  -14.0219   10.3658 C   0  0  0  0  0  0  0  0  0  0  0  0
  -11.1537  -14.6908    9.5052 N   0  0  0  0  0  0  0  0  0  0  0  0
  1  7  2  0  0  0  0
  1  2  1  0  0  0  0
  2  3  1  0  0  0  0
  2  4  2  0  0  0  0
  4  5  1  0  0  0  0
  5  6  2  0  0  0  0
  5 11  1  0  0  0  0
  6  7  1  0  0  0  0
  6  9  1  0  0  0  0
  7  8  1  0  0  0  0
  9 10  1  0  0  0  0
 10 11  2  0  0  0  0
M  END
>  <CHROM.1>
-11.59379952,-13.25919452,7.77226508,1.16084045,0.91228245,-1.13567814

>  <Name>
ligand

>  <RI>
0

>  <Rbt.Current_Directory>
/home/itssahil/PROJECTS/Mol_Feturizer/Test_systems_manuscript/rnas/2b57

>  <Rbt.Executable>
rbdock ($Id: //depot/dev/client3/rdock/2013.1/src/exe/rbdock.cxx#4 $)

>  <Rbt.Library>
libRbt.so (2013.1, Build901 2013/11/27)

>  <Rbt.Parameter_File>
/export/apps/rDock/src/rDock_2013.1_src/data/scripts/dock_solv.prm

>  <Rbt.Receptor>
prm/pocket_docking_8.prm

>  <SCORE>
-10.3909

>  <SCORE.INTER>
-10.3909

>  <SCORE.INTER.CONST>
1

>  <SCORE.INTER.POLAR>
0

>  <SCORE.INTER.ROT>
0

>  <SCORE.INTER.SOLV>
18.1267

>  <SCORE.INTER.VDW>
-16.5695

>  <SCORE.INTER.norm>
-0.944632

>  <SCORE.INTRA>
0

>  <SCORE.INTRA.DIHEDRAL>
0

>  <SCORE.INTRA.DIHEDRAL.0>
0

>  <SCORE.INTRA.POLAR>
0

>  <SCORE.INTRA.POLAR.0>
0

>  <SCORE.INTRA.REPUL>
0

>  <SCORE.INTRA.REPUL.0>
0

>  <SCORE.INTRA.SOLV>
0

>  <SCORE.INTRA.SOLV.lig_0>
-48.3454

>  <SCORE.INTRA.VDW>
0

>  <SCORE.INTRA.VDW.0>
0

>  <SCORE.INTRA.norm>
0

>  <SCORE.RESTR>
0

>  <SCORE.RESTR.CAVITY>
0

>  <SCORE.RESTR.norm>
0

>  <SCORE.SYSTEM>
0

>  <SCORE.SYSTEM.CONST>
0

>  <SCORE.SYSTEM.DIHEDRAL>
0

>  <SCORE.SYSTEM.SOLV>
0

>  <SCORE.SYSTEM.norm>
0

>  <SCORE.heavy>
11

>  <SCORE.norm>
-0.944632

>  <RMSD>
3.348

$$$$
ligand
 OpenBabel02271912153D
libRbt.so/2013.1/901 2013/11/27
 11 12  0  0  0  0  0  0  0  0999 V2000
  -11.7039  -12.4314    6.2291 N   0  0  0  0  0  0  0  0  0  0  0  0
  -10.9072  -13.5036    6.0929 C   0  0  0  0  0  0  0  0  0  0  0  0
  -10.3622  -13.7754    4.9106 N   0  0  0  0  0  0  0  0  0  0  0  0
  -10.6638  -14.3102    7.1375 N   0  0  0  0  0  0  0  0  0  0  0  0
  -11.2134  -14.0633    8.3358 C   0  0  0  0  0  0  0  0  0  0  0  0
  -12.0416  -12.9608    8.5040 C   0  0  0  0  0  0  0  0  0  0  0  0
  -12.2767  -12.1383    7.4073 C   0  0  0  0  0  0  0  0  0  0  0  0
  -13.0553  -11.0669    7.5261 N   0  0  0  0  0  0  0  0  0  0  0  0
  -12.4565  -12.9611    9.7673 N   0  0  0  0  0  0  0  0  0  0  0  0
  -11.9165  -14.0162   10.3731 C   0  0  0  0  0  0  0  0  0  0  0  0
  -11.1602  -14.6888    9.5082 N   0  0  0  0  0  0  0  0  0  0  0  0
  1  7  2  0  0  0  0
  1  2  1  0  0  0  0
  2  3  1  0  0  0  0
  2  4  2  0  0  0  0
  4  5  1  0  0  0  0
  5  6  2  0  0  0  0
  5 11  1  0  0  0  0
  6  7  1  0  0  0  0
  6  9  1  0  0  0  0
  7  8  1  0  0  0  0
  9 10  1  0  0  0  0
 10 11  2  0  0  0  0
M  END
>  <CHROM.1>
-11.61038138,-13.26013237,7.77549628,1.17075409,0.91751663,-1.14581401

>  <Name>
ligand

>  <RI>
0

>  <Rbt.Current_Directory>
/home/itssahil/PROJECTS/Mol_Feturizer/Test_systems_manuscript/rnas/2b57

>  <Rbt.Executable>
rbdock ($Id: //depot/dev/client3/rdock/2013.1/src/exe/rbdock.cxx#4 $)

>  <Rbt.Library>
libRbt.so (2013.1, Build901 2013/11/27)

>  <Rbt.Parameter_File>
/export/apps/rDock/src/rDock_2013.1_src/data/scripts/dock_solv.prm

>  <Rbt.Receptor>
prm/pocket_docking_8.prm

>  <SCORE>
-10.4202

>  <SCORE.INTER>
-10.4202

>  <SCORE.INTER.CONST>
1

>  <SCORE.INTER.POLAR>
0

>  <SCORE.INTER.ROT>
0

>  <SCORE.INTER.SOLV>
18.2131

>  <SCORE.INTER.VDW>
-16.6178

>  <SCORE.INTER.norm>
-0.94729

>  <SCORE.INTRA>
0

>  <SCORE.INTRA.DIHEDRAL>
0

>  <SCORE.INTRA.DIHEDRAL.0>
0

>  <SCORE.INTRA.POLAR>
0

>  <SCORE.INTRA.POLAR.0>
0

>  <SCORE.INTRA.REPUL>
0

>  <SCORE.INTRA.REPUL.0>
0

>  <SCORE.INTRA.SOLV>
0

>  <SCORE.INTRA.SOLV.lig_0>
-48.3454

>  <SCORE.INTRA.VDW>
0

>  <SCORE.INTRA.VDW.0>
0

>  <SCORE.INTRA.norm>
0

>  <SCORE.RESTR>
0

>  <SCORE.RESTR.CAVITY>
0

>  <SCORE.RESTR.norm>
0

>  <SCORE.SYSTEM>
0

>  <SCORE.SYSTEM.CONST>
0

>  <SCORE.SYSTEM.DIHEDRAL>
0

>  <SCORE.SYSTEM.SOLV>
0

>  <SCORE.SYSTEM.norm>
0

>  <SCORE.heavy>
11

>  <SCORE.norm>
-0.94729

>  <RMSD>
3.348

$$$$
ligand
 OpenBabel02271912153D
libRbt.so/2013.1/901 2013/11/27
 11 12  0  0  0  0  0  0  0  0999 V2000
  -11.7356  -12.4514    6.2619 N   0  0  0  0  0  0  0  0  0  0  0  0
  -10.9471  -13.5280    6.1136 C   0  0  0  0  0  0  0  0  0  0  0  0
  -10.4168  -13.7994    4.9244 N   0  0  0  0  0  0  0  0  0  0  0  0
  -10.6972  -14.3394    7.1529 N   0  0  0  0  0  0  0  0  0  0  0  0
  -11.2320  -14.0929    8.3580 C   0  0  0  0  0  0  0  0  0  0  0  0
  -12.0514  -12.9858    8.5388 C   0  0  0  0  0  0  0  0  0  0  0  0
  -12.2935  -12.1584    7.4472 C   0  0  0  0  0  0  0  0  0  0  0  0
  -13.0640  -11.0826    7.5780 N   0  0  0  0  0  0  0  0  0  0  0  0
  -12.4524  -12.9876    9.8065 N   0  0  0  0  0  0  0  0  0  0  0  0
  -11.9123  -14.0480   10.4031 C   0  0  0  0  0  0  0  0  0  0  0  0
  -11.1698  -14.7225    9.5278 N   0  0  0  0  0  0  0  0  0  0  0  0
  1  7  2  0  0  0  0
  1  2  1  0  0  0  0
  2  3  1  0  0  0  0
  2  4  2  0  0  0  0
  4  5  1  0  0  0  0
  5  6  2  0  0  0  0
  5 11  1  0  0  0  0
  6  7  1  0  0  0  0
  6  9  1  0  0  0  0
  7  8  1  0  0  0  0
  9 10  1  0  0  0  0
 10 11  2  0  0  0  0
M  END
>  <CHROM.1>
-11.63012356,-13.28554079,7.80457708,1.18323886,0.92771485,-1.15261283

>  <Name>
ligand

>  <RI>
0

>  <Rbt.Current_Directory>
/home/itssahil/PROJECTS/Mol_Feturizer/Test_systems_manuscript/rnas/2b57

>  <Rbt.Executable>
rbdock ($Id: //depot/dev/client3/rdock/2013.1/src/exe/rbdock.cxx#4 $)

>  <Rbt.Library>
libRbt.so (2013.1, Build901 2013/11/27)

>  <Rbt.Parameter_File>
/export/apps/rDock/src/rDock_2013.1_src/data/scripts/dock_solv.prm

>  <Rbt.Receptor>
prm/blind_docking_40.prm

>  <SCORE>
-10.3472

>  <SCORE.INTER>
-10.3472

>  <SCORE.INTER.CONST>
1

>  <SCORE.INTER.POLAR>
0

>  <SCORE.INTER.ROT>
0

>  <SCORE.INTER.SOLV>
18.236

>  <SCORE.INTER.VDW>
-16.5768

>  <SCORE.INTER.norm>
-0.940657

>  <SCORE.INTRA>
0

>  <SCORE.INTRA.DIHEDRAL>
0

>  <SCORE.INTRA.DIHEDRAL.0>
0

>  <SCORE.INTRA.POLAR>
0

>  <SCORE.INTRA.POLAR.0>
0

>  <SCORE.INTRA.REPUL>
0

>  <SCORE.INTRA.REPUL.0>
0

>  <SCORE.INTRA.SOLV>
0

>  <SCORE.INTRA.SOLV.lig_0>
-48.3454

>  <SCORE.INTRA.VDW>
0

>  <SCORE.INTRA.VDW.0>
0

>  <SCORE.INTRA.norm>
0

>  <SCORE.RESTR>
0

>  <SCORE.RESTR.CAVITY>
0

>  <SCORE.RESTR.norm>
0

>  <SCORE.SYSTEM>
0

>  <SCORE.SYSTEM.CONST>
0

>  <SCORE.SYSTEM.DIHEDRAL>
0

>  <SCORE.SYSTEM.SOLV>
0

>  <SCORE.SYSTEM.norm>
0

>  <SCORE.heavy>
11

>  <SCORE.norm>
-0.940657

>  <RMSD>
3.349

$$$$
ligand
 OpenBabel02271912153D
libRbt.so/2013.1/901 2013/11/27
 11 12  0  0  0  0  0  0  0  0999 V2000
  -11.6795  -12.4384    6.2327 N   0  0  0  0  0  0  0  0  0  0  0  0
  -10.8777  -13.5073    6.1021 C   0  0  0  0  0  0  0  0  0  0  0  0
  -10.3217  -13.7759    4.9241 N   0  0  0  0  0  0  0  0  0  0  0  0
  -10.6400  -14.3142    7.1479 N   0  0  0  0  0  0  0  0  0  0  0  0
  -11.2006  -14.0706    8.3418 C   0  0  0  0  0  0  0  0  0  0  0  0
  -12.0343  -12.9714    8.5041 C   0  0  0  0  0  0  0  0  0  0  0  0
  -12.2633  -12.1486    7.4063 C   0  0  0  0  0  0  0  0  0  0  0  0
  -13.0468  -11.0803    7.5196 N   0  0  0  0  0  0  0  0  0  0  0  0
  -12.4598  -12.9745    9.7639 N   0  0  0  0  0  0  0  0  0  0  0  0
  -11.9210  -14.0283   10.3732 C   0  0  0  0  0  0  0  0  0  0  0  0
  -11.1549  -14.6971    9.5140 N   0  0  0  0  0  0  0  0  0  0  0  0
  1  7  2  0  0  0  0
  1  2  1  0  0  0  0
  2  3  1  0  0  0  0
  2  4  2  0  0  0  0
  4  5  1  0  0  0  0
  5  6  2  0  0  0  0
  5 11  1  0  0  0  0
  6  7  1  0  0  0  0
  6  9  1  0  0  0  0
  7  8  1  0  0  0  0
  9 10  1  0  0  0  0
 10 11  2  0  0  0  0
M  END
>  <CHROM.1>
-11.59584036,-13.26832625,7.77894713,1.16079132,0.91060350,-1.13688925

>  <Name>
ligand

>  <RI>
0

>  <Rbt.Current_Directory>
/home/itssahil/PROJECTS/Mol_Feturizer/Test_systems_manuscript/rnas/2b57

>  <Rbt.Executable>
rbdock ($Id: //depot/dev/client3/rdock/2013.1/src/exe/rbdock.cxx#4 $)

>  <Rbt.Library>
libRbt.so (2013.1, Build901 2013/11/27)

>  <Rbt.Parameter_File>
/export/apps/rDock/src/rDock_2013.1_src/data/scripts/dock_solv.prm

>  <Rbt.Receptor>
prm/blind_docking_60.prm

>  <SCORE>
-10.3898

>  <SCORE.INTER>
-10.3898

>  <SCORE.INTER.CONST>
1

>  <SCORE.INTER.POLAR>
0

>  <SCORE.INTER.ROT>
0

>  <SCORE.INTER.SOLV>
18.0747

>  <SCORE.INTER.VDW>
-16.5515

>  <SCORE.INTER.norm>
-0.944531

>  <SCORE.INTRA>
0

>  <SCORE.INTRA.DIHEDRAL>
0

>  <SCORE.INTRA.DIHEDRAL.0>
0

>  <SCORE.INTRA.POLAR>
0

>  <SCORE.INTRA.POLAR.0>
0

>  <SCORE.INTRA.REPUL>
0

>  <SCORE.INTRA.REPUL.0>
0

>  <SCORE.INTRA.SOLV>
0

>  <SCORE.INTRA.SOLV.lig_0>
-48.3454

>  <SCORE.INTRA.VDW>
0

>  <SCORE.INTRA.VDW.0>
0

>  <SCORE.INTRA.norm>
0

>  <SCORE.RESTR>
0

>  <SCORE.RESTR.CAVITY>
0

>  <SCORE.RESTR.norm>
0

>  <SCORE.SYSTEM>
0

>  <SCORE.SYSTEM.CONST>
0

>  <SCORE.SYSTEM.DIHEDRAL>
0

>  <SCORE.SYSTEM.SOLV>
0

>  <SCORE.SYSTEM.norm>
0

>  <SCORE.heavy>
11

>  <SCORE.norm>
-0.944531

>  <RMSD>
3.349

$$$$
ligand
 OpenBabel02271912153D
libRbt.so/2013.1/901 2013/11/27
 11 12  0  0  0  0  0  0  0  0999 V2000
  -11.6888  -12.4359    6.2316 N   0  0  0  0  0  0  0  0  0  0  0  0
  -10.8829  -13.5013    6.0974 C   0  0  0  0  0  0  0  0  0  0  0  0
  -10.3270  -13.7646    4.9181 N   0  0  0  0  0  0  0  0  0  0  0  0
  -10.6410  -14.3099    7.1408 N   0  0  0  0  0  0  0  0  0  0  0  0
  -11.2013  -14.0717    8.3359 C   0  0  0  0  0  0  0  0  0  0  0  0
  -12.0392  -12.9762    8.5020 C   0  0  0  0  0  0  0  0  0  0  0  0
  -12.2726  -12.1515    7.4064 C   0  0  0  0  0  0  0  0  0  0  0  0
  -13.0603  -11.0866    7.5234 N   0  0  0  0  0  0  0  0  0  0  0  0
  -12.4635  -12.9844    9.7621 N   0  0  0  0  0  0  0  0  0  0  0  0
  -11.9199  -14.0375   10.3681 C   0  0  0  0  0  0  0  0  0  0  0  0
  -11.1520  -14.7011    9.5064 N   0  0  0  0  0  0  0  0  0  0  0  0
  1  7  2  0  0  0  0
  1  2  1  0  0  0  0
  2  3  1  0  0  0  0
  2  4  2  0  0  0  0
  4  5  1  0  0  0  0
  5  6  2  0  0  0  0
  5 11  1  0  0  0  0
  6  7  1  0  0  0  0
  6  9  1  0  0  0  0
  7  8  1  0  0  0  0
  9 10  1  0  0  0  0
 10 11  2  0  0  0  0
M  END
>  <CHROM.1>
-11.60032936,-13.26954543,7.77554591,1.16497412,0.90741105,-1.13757678

>  <Name>
ligand

>  <RI>
0

>  <Rbt.Current_Directory>
/home/itssahil/PROJECTS/Mol_Feturizer/Test_systems_manuscript/rnas/2b57

>  <Rbt.Executable>
rbdock ($Id: //depot/dev/client3/rdock/2013.1/src/exe/rbdock.cxx#4 $)

>  <Rbt.Library>
libRbt.so (2013.1, Build901 2013/11/27)

>  <Rbt.Parameter_File>
/export/apps/rDock/src/rDock_2013.1_src/data/scripts/dock_solv.prm

>  <Rbt.Receptor>
prm/blind_docking_60.prm

>  <SCORE>
-10.3957

>  <SCORE.INTER>
-10.3957

>  <SCORE.INTER.CONST>
1

>  <SCORE.INTER.POLAR>
0

>  <SCORE.INTER.ROT>
0

>  <SCORE.INTER.SOLV>
18.102

>  <SCORE.INTER.VDW>
-16.5645

>  <SCORE.INTER.norm>
-0.945062

>  <SCORE.INTRA>
0

>  <SCORE.INTRA.DIHEDRAL>
0

>  <SCORE.INTRA.DIHEDRAL.0>
0

>  <SCORE.INTRA.POLAR>
0

>  <SCORE.INTRA.POLAR.0>
0

>  <SCORE.INTRA.REPUL>
0

>  <SCORE.INTRA.REPUL.0>
0

>  <SCORE.INTRA.SOLV>
0

>  <SCORE.INTRA.SOLV.lig_0>
-48.3454

>  <SCORE.INTRA.VDW>
0

>  <SCORE.INTRA.VDW.0>
0

>  <SCORE.INTRA.norm>
0

>  <SCORE.RESTR>
0

>  <SCORE.RESTR.CAVITY>
0

>  <SCORE.RESTR.norm>
0

>  <SCORE.SYSTEM>
0

>  <SCORE.SYSTEM.CONST>
0

>  <SCORE.SYSTEM.DIHEDRAL>
0

>  <SCORE.SYSTEM.SOLV>
0

>  <SCORE.SYSTEM.norm>
0

>  <SCORE.heavy>
11

>  <SCORE.norm>
-0.945062

>  <RMSD>
3.349

$$$$
ligand
 OpenBabel02271912153D
libRbt.so/2013.1/901 2013/11/27
 11 12  0  0  0  0  0  0  0  0999 V2000
  -11.7076  -12.4426    6.2287 N   0  0  0  0  0  0  0  0  0  0  0  0
  -10.9036  -13.5091    6.0919 C   0  0  0  0  0  0  0  0  0  0  0  0
  -10.3542  -13.7749    4.9102 N   0  0  0  0  0  0  0  0  0  0  0  0
  -10.6572  -14.3164    7.1354 N   0  0  0  0  0  0  0  0  0  0  0  0
  -11.2110  -14.0756    8.3330 C   0  0  0  0  0  0  0  0  0  0  0  0
  -12.0467  -12.9789    8.5017 C   0  0  0  0  0  0  0  0  0  0  0  0
  -12.2849  -12.1556    7.4061 C   0  0  0  0  0  0  0  0  0  0  0  0
  -13.0707  -11.0897    7.5255 N   0  0  0  0  0  0  0  0  0  0  0  0
  -12.4644  -12.9846    9.7640 N   0  0  0  0  0  0  0  0  0  0  0  0
  -11.9188  -14.0374   10.3689 C   0  0  0  0  0  0  0  0  0  0  0  0
  -11.1562  -14.7032    9.5042 N   0  0  0  0  0  0  0  0  0  0  0  0
  1  7  2  0  0  0  0
  1  2  1  0  0  0  0
  2  3  1  0  0  0  0
  2  4  2  0  0  0  0
  4  5  1  0  0  0  0
  5  6  2  0  0  0  0
  5 11  1  0  0  0  0
  6  7  1  0  0  0  0
  6  9  1  0  0  0  0
  7  8  1  0  0  0  0
  9 10  1  0  0  0  0
 10 11  2  0  0  0  0
M  END
>  <CHROM.1>
-11.61199345,-13.27389046,7.77347639,1.17194358,0.91064896,-1.14464790

>  <Name>
ligand

>  <RI>
0

>  <Rbt.Current_Directory>
/home/itssahil/PROJECTS/Mol_Feturizer/Test_systems_manuscript/rnas/2b57

>  <Rbt.Executable>
rbdock ($Id: //depot/dev/client3/rdock/2013.1/src/exe/rbdock.cxx#4 $)

>  <Rbt.Library>
libRbt.so (2013.1, Build901 2013/11/27)

>  <Rbt.Parameter_File>
/export/apps/rDock/src/rDock_2013.1_src/data/scripts/dock_solv.prm

>  <Rbt.Receptor>
prm/blind_docking_60.prm

>  <SCORE>
-10.4267

>  <SCORE.INTER>
-10.4267

>  <SCORE.INTER.CONST>
1

>  <SCORE.INTER.POLAR>
0

>  <SCORE.INTER.ROT>
0

>  <SCORE.INTER.SOLV>
18.1822

>  <SCORE.INTER.VDW>
-16.6119

>  <SCORE.INTER.norm>
-0.947882

>  <SCORE.INTRA>
0

>  <SCORE.INTRA.DIHEDRAL>
0

>  <SCORE.INTRA.DIHEDRAL.0>
0

>  <SCORE.INTRA.POLAR>
0

>  <SCORE.INTRA.POLAR.0>
0

>  <SCORE.INTRA.REPUL>
0

>  <SCORE.INTRA.REPUL.0>
0

>  <SCORE.INTRA.SOLV>
0

>  <SCORE.INTRA.SOLV.lig_0>
-48.3454

>  <SCORE.INTRA.VDW>
0

>  <SCORE.INTRA.VDW.0>
0

>  <SCORE.INTRA.norm>
0

>  <SCORE.RESTR>
0

>  <SCORE.RESTR.CAVITY>
0

>  <SCORE.RESTR.norm>
0

>  <SCORE.SYSTEM>
0

>  <SCORE.SYSTEM.CONST>
0

>  <SCORE.SYSTEM.DIHEDRAL>
0

>  <SCORE.SYSTEM.SOLV>
0

>  <SCORE.SYSTEM.norm>
0

>  <SCORE.heavy>
11

>  <SCORE.norm>
-0.947882

>  <RMSD>
3.349

$$$$
ligand
 OpenBabel02271912153D
libRbt.so/2013.1/901 2013/11/27
 11 12  0  0  0  0  0  0  0  0999 V2000
  -11.7123  -12.4412    6.2297 N   0  0  0  0  0  0  0  0  0  0  0  0
  -10.9087  -13.5082    6.0933 C   0  0  0  0  0  0  0  0  0  0  0  0
  -10.3604  -13.7752    4.9113 N   0  0  0  0  0  0  0  0  0  0  0  0
  -10.6617  -14.3146    7.1373 N   0  0  0  0  0  0  0  0  0  0  0  0
  -11.2145  -14.0725    8.3351 C   0  0  0  0  0  0  0  0  0  0  0  0
  -12.0497  -12.9754    8.5035 C   0  0  0  0  0  0  0  0  0  0  0  0
  -12.2885  -12.1530    7.4074 C   0  0  0  0  0  0  0  0  0  0  0  0
  -13.0739  -11.0867    7.5264 N   0  0  0  0  0  0  0  0  0  0  0  0
  -12.4664  -12.9798    9.7662 N   0  0  0  0  0  0  0  0  0  0  0  0
  -11.9207  -14.0323   10.3715 C   0  0  0  0  0  0  0  0  0  0  0  0
  -11.1590  -14.6991    9.5068 N   0  0  0  0  0  0  0  0  0  0  0  0
  1  7  2  0  0  0  0
  1  2  1  0  0  0  0
  2  3  1  0  0  0  0
  2  4  2  0  0  0  0
  4  5  1  0  0  0  0
  5  6  2  0  0  0  0
  5 11  1  0  0  0  0
  6  7  1  0  0  0  0
  6  9  1  0  0  0  0
  7  8  1  0  0  0  0
  9 10  1  0  0  0  0
 10 11  2  0  0  0  0
M  END
>  <CHROM.1>
-11.61566576,-13.27118544,7.77517652,1.17291783,0.91128122,-1.14632392

>  <Name>
ligand

>  <RI>
0

>  <Rbt.Current_Directory>
/home/itssahil/PROJECTS/Mol_Feturizer/Test_systems_manuscript/rnas/2b57

>  <Rbt.Executable>
rbdock ($Id: //depot/dev/client3/rdock/2013.1/src/exe/rbdock.cxx#4 $)

>  <Rbt.Library>
libRbt.so (2013.1, Build901 2013/11/27)

>  <Rbt.Parameter_File>
/export/apps/rDock/src/rDock_2013.1_src/data/scripts/dock_solv.prm

>  <Rbt.Receptor>
prm/blind_docking_80.prm

>  <SCORE>
-10.4267

>  <SCORE.INTER>
-10.4267

>  <SCORE.INTER.CONST>
1

>  <SCORE.INTER.POLAR>
0

>  <SCORE.INTER.ROT>
0

>  <SCORE.INTER.SOLV>
18.1855

>  <SCORE.INTER.VDW>
-16.6129

>  <SCORE.INTER.norm>
-0.947877

>  <SCORE.INTRA>
0

>  <SCORE.INTRA.DIHEDRAL>
0

>  <SCORE.INTRA.DIHEDRAL.0>
0

>  <SCORE.INTRA.POLAR>
0

>  <SCORE.INTRA.POLAR.0>
0

>  <SCORE.INTRA.REPUL>
0

>  <SCORE.INTRA.REPUL.0>
0

>  <SCORE.INTRA.SOLV>
0

>  <SCORE.INTRA.SOLV.lig_0>
-48.3454

>  <SCORE.INTRA.VDW>
0

>  <SCORE.INTRA.VDW.0>
0

>  <SCORE.INTRA.norm>
0

>  <SCORE.RESTR>
0

>  <SCORE.RESTR.CAVITY>
0

>  <SCORE.RESTR.norm>
0

>  <SCORE.SYSTEM>
0

>  <SCORE.SYSTEM.CONST>
0

>  <SCORE.SYSTEM.DIHEDRAL>
0

>  <SCORE.SYSTEM.SOLV>
0

>  <SCORE.SYSTEM.norm>
0

>  <SCORE.heavy>
11

>  <SCORE.norm>
-0.947877

>  <RMSD>
3.349

$$$$
ligand
 OpenBabel02271912153D
libRbt.so/2013.1/901 2013/11/27
 11 12  0  0  0  0  0  0  0  0999 V2000
  -11.6994  -12.4462    6.2278 N   0  0  0  0  0  0  0  0  0  0  0  0
  -10.8992  -13.5158    6.0919 C   0  0  0  0  0  0  0  0  0  0  0  0
  -10.3507  -13.7844    4.9105 N   0  0  0  0  0  0  0  0  0  0  0  0
  -10.6558  -14.3231    7.1360 N   0  0  0  0  0  0  0  0  0  0  0  0
  -11.2089  -14.0794    8.3334 C   0  0  0  0  0  0  0  0  0  0  0  0
  -12.0407  -12.9796    8.5012 C   0  0  0  0  0  0  0  0  0  0  0  0
  -12.2758  -12.1563    7.4050 C   0  0  0  0  0  0  0  0  0  0  0  0
  -13.0578  -11.0874    7.5235 N   0  0  0  0  0  0  0  0  0  0  0  0
  -12.4586  -12.9829    9.7635 N   0  0  0  0  0  0  0  0  0  0  0  0
  -11.9168  -14.0372   10.3691 C   0  0  0  0  0  0  0  0  0  0  0  0
  -11.1566  -14.7064    9.5051 N   0  0  0  0  0  0  0  0  0  0  0  0
  1  7  2  0  0  0  0
  1  2  1  0  0  0  0
  2  3  1  0  0  0  0
  2  4  2  0  0  0  0
  4  5  1  0  0  0  0
  5  6  2  0  0  0  0
  5 11  1  0  0  0  0
  6  7  1  0  0  0  0
  6  9  1  0  0  0  0
  7  8  1  0  0  0  0
  9 10  1  0  0  0  0
 10 11  2  0  0  0  0
M  END
>  <CHROM.1>
-11.60697068,-13.27671455,7.77322794,1.16933609,0.91386563,-1.14333355

>  <Name>
ligand

>  <RI>
0

>  <Rbt.Current_Directory>
/home/itssahil/PROJECTS/Mol_Feturizer/Test_systems_manuscript/rnas/2b57

>  <Rbt.Executable>
rbdock ($Id: //depot/dev/client3/rdock/2013.1/src/exe/rbdock.cxx#4 $)

>  <Rbt.Library>
libRbt.so (2013.1, Build901 2013/11/27)

>  <Rbt.Parameter_File>
/export/apps/rDock/src/rDock_2013.1_src/data/scripts/dock_solv.prm

>  <Rbt.Receptor>
prm/pocket_docking_4.prm

>  <SCORE>
-10.421

>  <SCORE.INTER>
-10.421

>  <SCORE.INTER.CONST>
1

>  <SCORE.INTER.POLAR>
0

>  <SCORE.INTER.ROT>
0

>  <SCORE.INTER.SOLV>
18.1866

>  <SCORE.INTER.VDW>
-16.6096

>  <SCORE.INTER.norm>
-0.947367

>  <SCORE.INTRA>
0

>  <SCORE.INTRA.DIHEDRAL>
0

>  <SCORE.INTRA.DIHEDRAL.0>
0

>  <SCORE.INTRA.POLAR>
0

>  <SCORE.INTRA.POLAR.0>
0

>  <SCORE.INTRA.REPUL>
0

>  <SCORE.INTRA.REPUL.0>
0

>  <SCORE.INTRA.SOLV>
0

>  <SCORE.INTRA.SOLV.lig_0>
-48.3454

>  <SCORE.INTRA.VDW>
0

>  <SCORE.INTRA.VDW.0>
0

>  <SCORE.INTRA.norm>
0

>  <SCORE.RESTR>
0

>  <SCORE.RESTR.CAVITY>
0

>  <SCORE.RESTR.norm>
0

>  <SCORE.SYSTEM>
0

>  <SCORE.SYSTEM.CONST>
0

>  <SCORE.SYSTEM.DIHEDRAL>
0

>  <SCORE.SYSTEM.SOLV>
0

>  <SCORE.SYSTEM.norm>
0

>  <SCORE.heavy>
11

>  <SCORE.norm>
-0.947367

>  <RMSD>
3.349

$$$$
ligand
 OpenBabel02271912153D
libRbt.so/2013.1/901 2013/11/27
 11 12  0  0  0  0  0  0  0  0999 V2000
  -11.7005  -12.4376    6.2343 N   0  0  0  0  0  0  0  0  0  0  0  0
  -10.8947  -13.5031    6.0993 C   0  0  0  0  0  0  0  0  0  0  0  0
  -10.3414  -13.7673    4.9190 N   0  0  0  0  0  0  0  0  0  0  0  0
  -10.6503  -14.3107    7.1429 N   0  0  0  0  0  0  0  0  0  0  0  0
  -11.2080  -14.0714    8.3390 C   0  0  0  0  0  0  0  0  0  0  0  0
  -12.0457  -12.9760    8.5060 C   0  0  0  0  0  0  0  0  0  0  0  0
  -12.2817  -12.1523    7.4103 C   0  0  0  0  0  0  0  0  0  0  0  0
  -13.0693  -11.0874    7.5280 N   0  0  0  0  0  0  0  0  0  0  0  0
  -12.4671  -12.9830    9.7671 N   0  0  0  0  0  0  0  0  0  0  0  0
  -11.9219  -14.0356   10.3728 C   0  0  0  0  0  0  0  0  0  0  0  0
  -11.1559  -14.6998    9.5100 N   0  0  0  0  0  0  0  0  0  0  0  0
  1  7  2  0  0  0  0
  1  2  1  0  0  0  0
  2  3  1  0  0  0  0
  2  4  2  0  0  0  0
  4  5  1  0  0  0  0
  5  6  2  0  0  0  0
  5 11  1  0  0  0  0
  6  7  1  0  0  0  0
  6  9  1  0  0  0  0
  7  8  1  0  0  0  0
  9 10  1  0  0  0  0
 10 11  2  0  0  0  0
M  END
>  <CHROM.1>
-11.60839642,-13.26987899,7.77887058,1.16843190,0.90819766,-1.14120924

>  <Name>
ligand

>  <RI>
0

>  <Rbt.Current_Directory>
/home/itssahil/PROJECTS/Mol_Feturizer/Test_systems_manuscript/rnas/2b57

>  <Rbt.Executable>
rbdock ($Id: //depot/dev/client3/rdock/2013.1/src/exe/rbdock.cxx#4 $)

>  <Rbt.Library>
libRbt.so (2013.1, Build901 2013/11/27)

>  <Rbt.Parameter_File>
/export/apps/rDock/src/rDock_2013.1_src/data/scripts/dock_solv.prm

>  <Rbt.Receptor>
prm/pocket_docking_4.prm

>  <SCORE>
-10.3957

>  <SCORE.INTER>
-10.3957

>  <SCORE.INTER.CONST>
1

>  <SCORE.INTER.POLAR>
0

>  <SCORE.INTER.ROT>
0

>  <SCORE.INTER.SOLV>
18.116

>  <SCORE.INTER.VDW>
-16.5691

>  <SCORE.INTER.norm>
-0.945061

>  <SCORE.INTRA>
0

>  <SCORE.INTRA.DIHEDRAL>
0

>  <SCORE.INTRA.DIHEDRAL.0>
0

>  <SCORE.INTRA.POLAR>
0

>  <SCORE.INTRA.POLAR.0>
0

>  <SCORE.INTRA.REPUL>
0

>  <SCORE.INTRA.REPUL.0>
0

>  <SCORE.INTRA.SOLV>
0

>  <SCORE.INTRA.SOLV.lig_0>
-48.3454

>  <SCORE.INTRA.VDW>
0

>  <SCORE.INTRA.VDW.0>
0

>  <SCORE.INTRA.norm>
0

>  <SCORE.RESTR>
0

>  <SCORE.RESTR.CAVITY>
0

>  <SCORE.RESTR.norm>
0

>  <SCORE.SYSTEM>
0

>  <SCORE.SYSTEM.CONST>
0

>  <SCORE.SYSTEM.DIHEDRAL>
0

>  <SCORE.SYSTEM.SOLV>
0

>  <SCORE.SYSTEM.norm>
0

>  <SCORE.heavy>
11

>  <SCORE.norm>
-0.945061

>  <RMSD>
3.349

$$$$
ligand
 OpenBabel02271912153D
libRbt.so/2013.1/901 2013/11/27
 11 12  0  0  0  0  0  0  0  0999 V2000
  -11.7143  -12.4420    6.2340 N   0  0  0  0  0  0  0  0  0  0  0  0
  -10.9127  -13.5103    6.0966 C   0  0  0  0  0  0  0  0  0  0  0  0
  -10.3664  -13.7783    4.9139 N   0  0  0  0  0  0  0  0  0  0  0  0
  -10.6654  -14.3168    7.1403 N   0  0  0  0  0  0  0  0  0  0  0  0
  -11.2160  -14.0737    8.3390 C   0  0  0  0  0  0  0  0  0  0  0  0
  -12.0492  -12.9752    8.5084 C   0  0  0  0  0  0  0  0  0  0  0  0
  -12.2883  -12.1526    7.4125 C   0  0  0  0  0  0  0  0  0  0  0  0
  -13.0718  -11.0850    7.5325 N   0  0  0  0  0  0  0  0  0  0  0  0
  -12.4641  -12.9787    9.7717 N   0  0  0  0  0  0  0  0  0  0  0  0
  -11.9192  -14.0320   10.3764 C   0  0  0  0  0  0  0  0  0  0  0  0
  -11.1599  -14.7002    9.5107 N   0  0  0  0  0  0  0  0  0  0  0  0
  1  7  2  0  0  0  0
  1  2  1  0  0  0  0
  2  3  1  0  0  0  0
  2  4  2  0  0  0  0
  4  5  1  0  0  0  0
  5  6  2  0  0  0  0
  5 11  1  0  0  0  0
  6  7  1  0  0  0  0
  6  9  1  0  0  0  0
  7  8  1  0  0  0  0
  9 10  1  0  0  0  0
 10 11  2  0  0  0  0
M  END
>  <CHROM.1>
-11.61674462,-13.27182663,7.77949865,1.17400325,0.91336556,-1.14734357

>  <Name>
ligand

>  <RI>
0

>  <Rbt.Current_Directory>
/home/itssahil/PROJECTS/Mol_Feturizer/Test_systems_manuscript/rnas/2b57

>  <Rbt.Executable>
rbdock ($Id: //depot/dev/client3/rdock/2013.1/src/exe/rbdock.cxx#4 $)

>  <Rbt.Library>
libRbt.so (2013.1, Build901 2013/11/27)

>  <Rbt.Parameter_File>
/export/apps/rDock/src/rDock_2013.1_src/data/scripts/dock_solv.prm

>  <Rbt.Receptor>
prm/pocket_docking_4.prm

>  <SCORE>
-10.4225

>  <SCORE.INTER>
-10.4225

>  <SCORE.INTER.CONST>
1

>  <SCORE.INTER.POLAR>
0

>  <SCORE.INTER.ROT>
0

>  <SCORE.INTER.SOLV>
18.1854

>  <SCORE.INTER.VDW>
-16.6101

>  <SCORE.INTER.norm>
-0.947499

>  <SCORE.INTRA>
0

>  <SCORE.INTRA.DIHEDRAL>
0

>  <SCORE.INTRA.DIHEDRAL.0>
0

>  <SCORE.INTRA.POLAR>
0

>  <SCORE.INTRA.POLAR.0>
0

>  <SCORE.INTRA.REPUL>
0

>  <SCORE.INTRA.REPUL.0>
0

>  <SCORE.INTRA.SOLV>
0

>  <SCORE.INTRA.SOLV.lig_0>
-48.3454

>  <SCORE.INTRA.VDW>
0

>  <SCORE.INTRA.VDW.0>
0

>  <SCORE.INTRA.norm>
0

>  <SCORE.RESTR>
0

>  <SCORE.RESTR.CAVITY>
0

>  <SCORE.RESTR.norm>
0

>  <SCORE.SYSTEM>
0

>  <SCORE.SYSTEM.CONST>
0

>  <SCORE.SYSTEM.DIHEDRAL>
0

>  <SCORE.SYSTEM.SOLV>
0

>  <SCORE.SYSTEM.norm>
0

>  <SCORE.heavy>
11

>  <SCORE.norm>
-0.947499

>  <RMSD>
3.349

$$$$
ligand
 OpenBabel02271912153D
libRbt.so/2013.1/901 2013/11/27
 11 12  0  0  0  0  0  0  0  0999 V2000
  -11.7024  -12.4386    6.2293 N   0  0  0  0  0  0  0  0  0  0  0  0
  -10.9017  -13.5075    6.0918 C   0  0  0  0  0  0  0  0  0  0  0  0
  -10.3539  -13.7747    4.9096 N   0  0  0  0  0  0  0  0  0  0  0  0
  -10.6569  -14.3157    7.1349 N   0  0  0  0  0  0  0  0  0  0  0  0
  -11.2091  -14.0735    8.3329 C   0  0  0  0  0  0  0  0  0  0  0  0
  -12.0415  -12.9744    8.5025 C   0  0  0  0  0  0  0  0  0  0  0  0
  -12.2779  -12.1502    7.4072 C   0  0  0  0  0  0  0  0  0  0  0  0
  -13.0605  -11.0819    7.5274 N   0  0  0  0  0  0  0  0  0  0  0  0
  -12.4583  -12.9790    9.7651 N   0  0  0  0  0  0  0  0  0  0  0  0
  -11.9154  -14.0336   10.3693 C   0  0  0  0  0  0  0  0  0  0  0  0
  -11.1554  -14.7015    9.5040 N   0  0  0  0  0  0  0  0  0  0  0  0
  1  7  2  0  0  0  0
  1  2  1  0  0  0  0
  2  3  1  0  0  0  0
  2  4  2  0  0  0  0
  4  5  1  0  0  0  0
  5  6  2  0  0  0  0
  5 11  1  0  0  0  0
  6  7  1  0  0  0  0
  6  9  1  0  0  0  0
  7  8  1  0  0  0  0
  9 10  1  0  0  0  0
 10 11  2  0  0  0  0
M  END
>  <CHROM.1>
-11.60812963,-13.27048511,7.77387223,1.17098175,0.91365442,-1.14369854

>  <Name>
ligand

>  <RI>
0

>  <Rbt.Current_Directory>
/home/itssahil/PROJECTS/Mol_Feturizer/Test_systems_manuscript/rnas/2b57

>  <Rbt.Executable>
rbdock ($Id: //depot/dev/client3/rdock/2013.1/src/exe/rbdock.cxx#4 $)

>  <Rbt.Library>
libRbt.so (2013.1, Build901 2013/11/27)

>  <Rbt.Parameter_File>
/export/apps/rDock/src/rDock_2013.1_src/data/scripts/dock_solv.prm

>  <Rbt.Receptor>
prm/pocket_docking_4.prm

>  <SCORE>
-10.4249

>  <SCORE.INTER>
-10.4249

>  <SCORE.INTER.CONST>
1

>  <SCORE.INTER.POLAR>
0

>  <SCORE.INTER.ROT>
0

>  <SCORE.INTER.SOLV>
18.1952

>  <SCORE.INTER.VDW>
-16.615

>  <SCORE.INTER.norm>
-0.94772

>  <SCORE.INTRA>
0

>  <SCORE.INTRA.DIHEDRAL>
0

>  <SCORE.INTRA.DIHEDRAL.0>
0

>  <SCORE.INTRA.POLAR>
0

>  <SCORE.INTRA.POLAR.0>
0

>  <SCORE.INTRA.REPUL>
0

>  <SCORE.INTRA.REPUL.0>
0

>  <SCORE.INTRA.SOLV>
0

>  <SCORE.INTRA.SOLV.lig_0>
-48.3454

>  <SCORE.INTRA.VDW>
0

>  <SCORE.INTRA.VDW.0>
0

>  <SCORE.INTRA.norm>
0

>  <SCORE.RESTR>
0

>  <SCORE.RESTR.CAVITY>
0

>  <SCORE.RESTR.norm>
0

>  <SCORE.SYSTEM>
0

>  <SCORE.SYSTEM.CONST>
0

>  <SCORE.SYSTEM.DIHEDRAL>
0

>  <SCORE.SYSTEM.SOLV>
0

>  <SCORE.SYSTEM.norm>
0

>  <SCORE.heavy>
11

>  <SCORE.norm>
-0.94772

>  <RMSD>
3.349

$$$$
ligand
 OpenBabel02271912153D
libRbt.so/2013.1/901 2013/11/27
 11 12  0  0  0  0  0  0  0  0999 V2000
  -11.7014  -12.4470    6.2300 N   0  0  0  0  0  0  0  0  0  0  0  0
  -10.9026  -13.5176    6.0941 C   0  0  0  0  0  0  0  0  0  0  0  0
  -10.3555  -13.7877    4.9123 N   0  0  0  0  0  0  0  0  0  0  0  0
  -10.6591  -14.3245    7.1385 N   0  0  0  0  0  0  0  0  0  0  0  0
  -11.2107  -14.0793    8.3363 C   0  0  0  0  0  0  0  0  0  0  0  0
  -12.0411  -12.9784    8.5041 C   0  0  0  0  0  0  0  0  0  0  0  0
  -12.2763  -12.1556    7.4075 C   0  0  0  0  0  0  0  0  0  0  0  0
  -13.0570  -11.0858    7.5260 N   0  0  0  0  0  0  0  0  0  0  0  0
  -12.4577  -12.9803    9.7668 N   0  0  0  0  0  0  0  0  0  0  0  0
  -11.9166  -14.0348   10.3727 C   0  0  0  0  0  0  0  0  0  0  0  0
  -11.1579  -14.7055    9.5083 N   0  0  0  0  0  0  0  0  0  0  0  0
  1  7  2  0  0  0  0
  1  2  1  0  0  0  0
  2  3  1  0  0  0  0
  2  4  2  0  0  0  0
  4  5  1  0  0  0  0
  5  6  2  0  0  0  0
  5 11  1  0  0  0  0
  6  7  1  0  0  0  0
  6  9  1  0  0  0  0
  7  8  1  0  0  0  0
  9 10  1  0  0  0  0
 10 11  2  0  0  0  0
M  END
>  <CHROM.1>
-11.60840827,-13.27654445,7.77591259,1.17003832,0.91533671,-1.14460772

>  <Name>
ligand

>  <RI>
0

>  <Rbt.Current_Directory>
/home/itssahil/PROJECTS/Mol_Feturizer/Test_systems_manuscript/rnas/2b57

>  <Rbt.Executable>
rbdock ($Id: //depot/dev/client3/rdock/2013.1/src/exe/rbdock.cxx#4 $)

>  <Rbt.Library>
libRbt.so (2013.1, Build901 2013/11/27)

>  <Rbt.Parameter_File>
/export/apps/rDock/src/rDock_2013.1_src/data/scripts/dock_solv.prm

>  <Rbt.Receptor>
prm/pocket_docking_5.prm

>  <SCORE>
-10.4185

>  <SCORE.INTER>
-10.4185

>  <SCORE.INTER.CONST>
1

>  <SCORE.INTER.POLAR>
0

>  <SCORE.INTER.ROT>
0

>  <SCORE.INTER.SOLV>
18.1874

>  <SCORE.INTER.VDW>
-16.6081

>  <SCORE.INTER.norm>
-0.947136

>  <SCORE.INTRA>
0

>  <SCORE.INTRA.DIHEDRAL>
0

>  <SCORE.INTRA.DIHEDRAL.0>
0

>  <SCORE.INTRA.POLAR>
0

>  <SCORE.INTRA.POLAR.0>
0

>  <SCORE.INTRA.REPUL>
0

>  <SCORE.INTRA.REPUL.0>
0

>  <SCORE.INTRA.SOLV>
0

>  <SCORE.INTRA.SOLV.lig_0>
-48.3454

>  <SCORE.INTRA.VDW>
0

>  <SCORE.INTRA.VDW.0>
0

>  <SCORE.INTRA.norm>
0

>  <SCORE.RESTR>
0

>  <SCORE.RESTR.CAVITY>
0

>  <SCORE.RESTR.norm>
0

>  <SCORE.SYSTEM>
0

>  <SCORE.SYSTEM.CONST>
0

>  <SCORE.SYSTEM.DIHEDRAL>
0

>  <SCORE.SYSTEM.SOLV>
0

>  <SCORE.SYSTEM.norm>
0

>  <SCORE.heavy>
11

>  <SCORE.norm>
-0.947136

>  <RMSD>
3.349

$$$$
ligand
 OpenBabel02271912153D
libRbt.so/2013.1/901 2013/11/27
 11 12  0  0  0  0  0  0  0  0999 V2000
  -11.6739  -12.4275    6.2430 N   0  0  0  0  0  0  0  0  0  0  0  0
  -10.8641  -13.4902    6.1108 C   0  0  0  0  0  0  0  0  0  0  0  0
  -10.3009  -13.7490    4.9340 N   0  0  0  0  0  0  0  0  0  0  0  0
  -10.6255  -14.3005    7.1537 N   0  0  0  0  0  0  0  0  0  0  0  0
  -11.1931  -14.0667    8.3462 C   0  0  0  0  0  0  0  0  0  0  0  0
  -12.0352  -12.9741    8.5102 C   0  0  0  0  0  0  0  0  0  0  0  0
  -12.2650  -12.1476    7.4153 C   0  0  0  0  0  0  0  0  0  0  0  0
  -13.0565  -11.0853    7.5304 N   0  0  0  0  0  0  0  0  0  0  0  0
  -12.4663  -12.9865    9.7679 N   0  0  0  0  0  0  0  0  0  0  0  0
  -11.9229  -14.0394   10.3745 C   0  0  0  0  0  0  0  0  0  0  0  0
  -11.1483  -14.6987    9.5155 N   0  0  0  0  0  0  0  0  0  0  0  0
  1  7  2  0  0  0  0
  1  2  1  0  0  0  0
  2  3  1  0  0  0  0
  2  4  2  0  0  0  0
  4  5  1  0  0  0  0
  5  6  2  0  0  0  0
  5 11  1  0  0  0  0
  6  7  1  0  0  0  0
  6  9  1  0  0  0  0
  7  8  1  0  0  0  0
  9 10  1  0  0  0  0
 10 11  2  0  0  0  0
M  END
>  <CHROM.1>
-11.59142451,-13.26447276,7.78554195,1.15894687,0.90238788,-1.13051376

>  <Name>
ligand

>  <RI>
0

>  <Rbt.Current_Directory>
/home/itssahil/PROJECTS/Mol_Feturizer/Test_systems_manuscript/rnas/2b57

>  <Rbt.Executable>
rbdock ($Id: //depot/dev/client3/rdock/2013.1/src/exe/rbdock.cxx#4 $)

>  <Rbt.Library>
libRbt.so (2013.1, Build901 2013/11/27)

>  <Rbt.Parameter_File>
/export/apps/rDock/src/rDock_2013.1_src/data/scripts/dock_solv.prm

>  <Rbt.Receptor>
prm/pocket_docking_6.prm

>  <SCORE>
-10.3966

>  <SCORE.INTER>
-10.3966

>  <SCORE.INTER.CONST>
1

>  <SCORE.INTER.POLAR>
0

>  <SCORE.INTER.ROT>
0

>  <SCORE.INTER.SOLV>
17.982

>  <SCORE.INTER.VDW>
-16.5251

>  <SCORE.INTER.norm>
-0.945148

>  <SCORE.INTRA>
0

>  <SCORE.INTRA.DIHEDRAL>
0

>  <SCORE.INTRA.DIHEDRAL.0>
0

>  <SCORE.INTRA.POLAR>
0

>  <SCORE.INTRA.POLAR.0>
0

>  <SCORE.INTRA.REPUL>
0

>  <SCORE.INTRA.REPUL.0>
0

>  <SCORE.INTRA.SOLV>
0

>  <SCORE.INTRA.SOLV.lig_0>
-48.3454

>  <SCORE.INTRA.VDW>
0

>  <SCORE.INTRA.VDW.0>
0

>  <SCORE.INTRA.norm>
0

>  <SCORE.RESTR>
0

>  <SCORE.RESTR.CAVITY>
0

>  <SCORE.RESTR.norm>
0

>  <SCORE.SYSTEM>
0

>  <SCORE.SYSTEM.CONST>
0

>  <SCORE.SYSTEM.DIHEDRAL>
0

>  <SCORE.SYSTEM.SOLV>
0

>  <SCORE.SYSTEM.norm>
0

>  <SCORE.heavy>
11

>  <SCORE.norm>
-0.945148

>  <RMSD>
3.349

$$$$
ligand
 OpenBabel02271912153D
libRbt.so/2013.1/901 2013/11/27
 11 12  0  0  0  0  0  0  0  0999 V2000
  -11.7003  -12.4340    6.2361 N   0  0  0  0  0  0  0  0  0  0  0  0
  -10.8946  -13.4996    6.1016 C   0  0  0  0  0  0  0  0  0  0  0  0
  -10.3412  -13.7644    4.9216 N   0  0  0  0  0  0  0  0  0  0  0  0
  -10.6505  -14.3068    7.1456 N   0  0  0  0  0  0  0  0  0  0  0  0
  -11.2084  -14.0670    8.3416 C   0  0  0  0  0  0  0  0  0  0  0  0
  -12.0460  -12.9714    8.5079 C   0  0  0  0  0  0  0  0  0  0  0  0
  -12.2817  -12.1481    7.4118 C   0  0  0  0  0  0  0  0  0  0  0  0
  -13.0692  -11.0831    7.5290 N   0  0  0  0  0  0  0  0  0  0  0  0
  -12.4676  -12.9779    9.7689 N   0  0  0  0  0  0  0  0  0  0  0  0
  -11.9227  -14.0302   10.3752 C   0  0  0  0  0  0  0  0  0  0  0  0
  -11.1566  -14.6949    9.5128 N   0  0  0  0  0  0  0  0  0  0  0  0
  1  7  2  0  0  0  0
  1  2  1  0  0  0  0
  2  3  1  0  0  0  0
  2  4  2  0  0  0  0
  4  5  1  0  0  0  0
  5  6  2  0  0  0  0
  5 11  1  0  0  0  0
  6  7  1  0  0  0  0
  6  9  1  0  0  0  0
  7  8  1  0  0  0  0
  9 10  1  0  0  0  0
 10 11  2  0  0  0  0
M  END
>  <CHROM.1>
-11.60858650,-13.26564521,7.78098521,1.16808414,0.90823503,-1.14134384

>  <Name>
ligand

>  <RI>
0

>  <Rbt.Current_Directory>
/home/itssahil/PROJECTS/Mol_Feturizer/Test_systems_manuscript/rnas/2b57

>  <Rbt.Executable>
rbdock ($Id: //depot/dev/client3/rdock/2013.1/src/exe/rbdock.cxx#4 $)

>  <Rbt.Library>
libRbt.so (2013.1, Build901 2013/11/27)

>  <Rbt.Parameter_File>
/export/apps/rDock/src/rDock_2013.1_src/data/scripts/dock_solv.prm

>  <Rbt.Receptor>
prm/pocket_docking_7.prm

>  <SCORE>
-10.3944

>  <SCORE.INTER>
-10.3944

>  <SCORE.INTER.CONST>
1

>  <SCORE.INTER.POLAR>
0

>  <SCORE.INTER.ROT>
0

>  <SCORE.INTER.SOLV>
18.1059

>  <SCORE.INTER.VDW>
-16.5649

>  <SCORE.INTER.norm>
-0.944943

>  <SCORE.INTRA>
0

>  <SCORE.INTRA.DIHEDRAL>
0

>  <SCORE.INTRA.DIHEDRAL.0>
0

>  <SCORE.INTRA.POLAR>
0

>  <SCORE.INTRA.POLAR.0>
0

>  <SCORE.INTRA.REPUL>
0

>  <SCORE.INTRA.REPUL.0>
0

>  <SCORE.INTRA.SOLV>
0

>  <SCORE.INTRA.SOLV.lig_0>
-48.3454

>  <SCORE.INTRA.VDW>
0

>  <SCORE.INTRA.VDW.0>
0

>  <SCORE.INTRA.norm>
0

>  <SCORE.RESTR>
0

>  <SCORE.RESTR.CAVITY>
0

>  <SCORE.RESTR.norm>
0

>  <SCORE.SYSTEM>
0

>  <SCORE.SYSTEM.CONST>
0

>  <SCORE.SYSTEM.DIHEDRAL>
0

>  <SCORE.SYSTEM.SOLV>
0

>  <SCORE.SYSTEM.norm>
0

>  <SCORE.heavy>
11

>  <SCORE.norm>
-0.944943

>  <RMSD>
3.349

$$$$
ligand
 OpenBabel02271912153D
libRbt.so/2013.1/901 2013/11/27
 11 12  0  0  0  0  0  0  0  0999 V2000
  -11.6781  -12.4276    6.2462 N   0  0  0  0  0  0  0  0  0  0  0  0
  -10.8661  -13.4887    6.1137 C   0  0  0  0  0  0  0  0  0  0  0  0
  -10.3025  -13.7460    4.9368 N   0  0  0  0  0  0  0  0  0  0  0  0
  -10.6259  -14.2988    7.1563 N   0  0  0  0  0  0  0  0  0  0  0  0
  -11.1940  -14.0665    8.3489 C   0  0  0  0  0  0  0  0  0  0  0  0
  -12.0383  -12.9757    8.5132 C   0  0  0  0  0  0  0  0  0  0  0  0
  -12.2698  -12.1492    7.4186 C   0  0  0  0  0  0  0  0  0  0  0  0
  -13.0634  -11.0886    7.5340 N   0  0  0  0  0  0  0  0  0  0  0  0
  -12.4694  -12.9892    9.7709 N   0  0  0  0  0  0  0  0  0  0  0  0
  -11.9238  -14.0413   10.3772 C   0  0  0  0  0  0  0  0  0  0  0  0
  -11.1479  -14.6987    9.5180 N   0  0  0  0  0  0  0  0  0  0  0  0
  1  7  2  0  0  0  0
  1  2  1  0  0  0  0
  2  3  1  0  0  0  0
  2  4  2  0  0  0  0
  4  5  1  0  0  0  0
  5  6  2  0  0  0  0
  5 11  1  0  0  0  0
  6  7  1  0  0  0  0
  6  9  1  0  0  0  0
  7  8  1  0  0  0  0
  9 10  1  0  0  0  0
 10 11  2  0  0  0  0
M  END
>  <CHROM.1>
-11.59394183,-13.26488590,7.78846255,1.16034927,0.90054158,-1.13132849

>  <Name>
ligand

>  <RI>
0

>  <Rbt.Current_Directory>
/home/itssahil/PROJECTS/Mol_Feturizer/Test_systems_manuscript/rnas/2b57

>  <Rbt.Executable>
rbdock ($Id: //depot/dev/client3/rdock/2013.1/src/exe/rbdock.cxx#4 $)

>  <Rbt.Library>
libRbt.so (2013.1, Build901 2013/11/27)

>  <Rbt.Parameter_File>
/export/apps/rDock/src/rDock_2013.1_src/data/scripts/dock_solv.prm

>  <Rbt.Receptor>
prm/pocket_docking_7.prm

>  <SCORE>
-10.3966

>  <SCORE.INTER>
-10.3966

>  <SCORE.INTER.CONST>
1

>  <SCORE.INTER.POLAR>
0

>  <SCORE.INTER.ROT>
0

>  <SCORE.INTER.SOLV>
17.9662

>  <SCORE.INTER.VDW>
-16.5198

>  <SCORE.INTER.norm>
-0.945143

>  <SCORE.INTRA>
0

>  <SCORE.INTRA.DIHEDRAL>
0

>  <SCORE.INTRA.DIHEDRAL.0>
0

>  <SCORE.INTRA.POLAR>
0

>  <SCORE.INTRA.POLAR.0>
0

>  <SCORE.INTRA.REPUL>
0

>  <SCORE.INTRA.REPUL.0>
0

>  <SCORE.INTRA.SOLV>
0

>  <SCORE.INTRA.SOLV.lig_0>
-48.3454

>  <SCORE.INTRA.VDW>
0

>  <SCORE.INTRA.VDW.0>
0

>  <SCORE.INTRA.norm>
0

>  <SCORE.RESTR>
0

>  <SCORE.RESTR.CAVITY>
0

>  <SCORE.RESTR.norm>
0

>  <SCORE.SYSTEM>
0

>  <SCORE.SYSTEM.CONST>
0

>  <SCORE.SYSTEM.DIHEDRAL>
0

>  <SCORE.SYSTEM.SOLV>
0

>  <SCORE.SYSTEM.norm>
0

>  <SCORE.heavy>
11

>  <SCORE.norm>
-0.945143

>  <RMSD>
3.349

$$$$
ligand
 OpenBabel02271912153D
libRbt.so/2013.1/901 2013/11/27
 11 12  0  0  0  0  0  0  0  0999 V2000
  -11.6913  -12.4383    6.2352 N   0  0  0  0  0  0  0  0  0  0  0  0
  -10.8822  -13.5014    6.1013 C   0  0  0  0  0  0  0  0  0  0  0  0
  -10.3249  -13.7628    4.9223 N   0  0  0  0  0  0  0  0  0  0  0  0
  -10.6384  -14.3094    7.1448 N   0  0  0  0  0  0  0  0  0  0  0  0
  -11.2000  -14.0729    8.3396 C   0  0  0  0  0  0  0  0  0  0  0  0
  -12.0412  -12.9800    8.5054 C   0  0  0  0  0  0  0  0  0  0  0  0
  -12.2765  -12.1558    7.4099 C   0  0  0  0  0  0  0  0  0  0  0  0
  -13.0675  -11.0933    7.5266 N   0  0  0  0  0  0  0  0  0  0  0  0
  -12.4661  -12.9896    9.7653 N   0  0  0  0  0  0  0  0  0  0  0  0
  -11.9196  -14.0412   10.3714 C   0  0  0  0  0  0  0  0  0  0  0  0
  -11.1494  -14.7024    9.5100 N   0  0  0  0  0  0  0  0  0  0  0  0
  1  7  2  0  0  0  0
  1  2  1  0  0  0  0
  2  3  1  0  0  0  0
  2  4  2  0  0  0  0
  4  5  1  0  0  0  0
  5  6  2  0  0  0  0
  5 11  1  0  0  0  0
  6  7  1  0  0  0  0
  6  9  1  0  0  0  0
  7  8  1  0  0  0  0
  9 10  1  0  0  0  0
 10 11  2  0  0  0  0
M  END
>  <CHROM.1>
-11.60111691,-13.27194785,7.77916613,1.16627981,0.90449637,-1.13846997

>  <Name>
ligand

>  <RI>
0

>  <Rbt.Current_Directory>
/home/itssahil/PROJECTS/Mol_Feturizer/Test_systems_manuscript/rnas/2b57

>  <Rbt.Executable>
rbdock ($Id: //depot/dev/client3/rdock/2013.1/src/exe/rbdock.cxx#4 $)

>  <Rbt.Library>
libRbt.so (2013.1, Build901 2013/11/27)

>  <Rbt.Parameter_File>
/export/apps/rDock/src/rDock_2013.1_src/data/scripts/dock_solv.prm

>  <Rbt.Receptor>
prm/pocket_docking_7.prm

>  <SCORE>
-10.395

>  <SCORE.INTER>
-10.395

>  <SCORE.INTER.CONST>
1

>  <SCORE.INTER.POLAR>
0

>  <SCORE.INTER.ROT>
0

>  <SCORE.INTER.SOLV>
18.0689

>  <SCORE.INTER.VDW>
-16.553

>  <SCORE.INTER.norm>
-0.945001

>  <SCORE.INTRA>
0

>  <SCORE.INTRA.DIHEDRAL>
0

>  <SCORE.INTRA.DIHEDRAL.0>
0

>  <SCORE.INTRA.POLAR>
0

>  <SCORE.INTRA.POLAR.0>
0

>  <SCORE.INTRA.REPUL>
0

>  <SCORE.INTRA.REPUL.0>
0

>  <SCORE.INTRA.SOLV>
0

>  <SCORE.INTRA.SOLV.lig_0>
-48.3454

>  <SCORE.INTRA.VDW>
0

>  <SCORE.INTRA.VDW.0>
0

>  <SCORE.INTRA.norm>
0

>  <SCORE.RESTR>
0

>  <SCORE.RESTR.CAVITY>
0

>  <SCORE.RESTR.norm>
0

>  <SCORE.SYSTEM>
0

>  <SCORE.SYSTEM.CONST>
0

>  <SCORE.SYSTEM.DIHEDRAL>
0

>  <SCORE.SYSTEM.SOLV>
0

>  <SCORE.SYSTEM.norm>
0

>  <SCORE.heavy>
11

>  <SCORE.norm>
-0.945001

>  <RMSD>
3.349

$$$$
ligand
 OpenBabel02271912153D
libRbt.so/2013.1/901 2013/11/27
 11 12  0  0  0  0  0  0  0  0999 V2000
  -11.6916  -12.4343    6.2360 N   0  0  0  0  0  0  0  0  0  0  0  0
  -10.8860  -13.4999    6.1006 C   0  0  0  0  0  0  0  0  0  0  0  0
  -10.3308  -13.7624    4.9209 N   0  0  0  0  0  0  0  0  0  0  0  0
  -10.6439  -14.3093    7.1433 N   0  0  0  0  0  0  0  0  0  0  0  0
  -11.2036  -14.0718    8.3389 C   0  0  0  0  0  0  0  0  0  0  0  0
  -12.0411  -12.9763    8.5061 C   0  0  0  0  0  0  0  0  0  0  0  0
  -12.2747  -12.1506    7.4114 C   0  0  0  0  0  0  0  0  0  0  0  0
  -13.0621  -11.0856    7.5295 N   0  0  0  0  0  0  0  0  0  0  0  0
  -12.4648  -12.9852    9.7664 N   0  0  0  0  0  0  0  0  0  0  0  0
  -11.9212  -14.0390   10.3714 C   0  0  0  0  0  0  0  0  0  0  0  0
  -11.1539  -14.7022    9.5088 N   0  0  0  0  0  0  0  0  0  0  0  0
  1  7  2  0  0  0  0
  1  2  1  0  0  0  0
  2  3  1  0  0  0  0
  2  4  2  0  0  0  0
  4  5  1  0  0  0  0
  5  6  2  0  0  0  0
  5 11  1  0  0  0  0
  6  7  1  0  0  0  0
  6  9  1  0  0  0  0
  7  8  1  0  0  0  0
  9 10  1  0  0  0  0
 10 11  2  0  0  0  0
M  END
>  <CHROM.1>
-11.60263436,-13.26916498,7.77930377,1.16547448,0.90786731,-1.13721449

>  <Name>
ligand

>  <RI>
0

>  <Rbt.Current_Directory>
/home/itssahil/PROJECTS/Mol_Feturizer/Test_systems_manuscript/rnas/2b57

>  <Rbt.Executable>
rbdock ($Id: //depot/dev/client3/rdock/2013.1/src/exe/rbdock.cxx#4 $)

>  <Rbt.Library>
libRbt.so (2013.1, Build901 2013/11/27)

>  <Rbt.Parameter_File>
/export/apps/rDock/src/rDock_2013.1_src/data/scripts/dock_solv.prm

>  <Rbt.Receptor>
prm/pocket_docking_7.prm

>  <SCORE>
-10.3967

>  <SCORE.INTER>
-10.3967

>  <SCORE.INTER.CONST>
1

>  <SCORE.INTER.POLAR>
0

>  <SCORE.INTER.ROT>
0

>  <SCORE.INTER.SOLV>
18.0945

>  <SCORE.INTER.VDW>
-16.5627

>  <SCORE.INTER.norm>
-0.945157

>  <SCORE.INTRA>
0

>  <SCORE.INTRA.DIHEDRAL>
0

>  <SCORE.INTRA.DIHEDRAL.0>
0

>  <SCORE.INTRA.POLAR>
0

>  <SCORE.INTRA.POLAR.0>
0

>  <SCORE.INTRA.REPUL>
0

>  <SCORE.INTRA.REPUL.0>
0

>  <SCORE.INTRA.SOLV>
0

>  <SCORE.INTRA.SOLV.lig_0>
-48.3454

>  <SCORE.INTRA.VDW>
0

>  <SCORE.INTRA.VDW.0>
0

>  <SCORE.INTRA.norm>
0

>  <SCORE.RESTR>
0

>  <SCORE.RESTR.CAVITY>
0

>  <SCORE.RESTR.norm>
0

>  <SCORE.SYSTEM>
0

>  <SCORE.SYSTEM.CONST>
0

>  <SCORE.SYSTEM.DIHEDRAL>
0

>  <SCORE.SYSTEM.SOLV>
0

>  <SCORE.SYSTEM.norm>
0

>  <SCORE.heavy>
11

>  <SCORE.norm>
-0.945157

>  <RMSD>
3.349

$$$$
ligand
 OpenBabel02271912153D
libRbt.so/2013.1/901 2013/11/27
 11 12  0  0  0  0  0  0  0  0999 V2000
  -11.6840  -12.4328    6.2346 N   0  0  0  0  0  0  0  0  0  0  0  0
  -10.8816  -13.5008    6.1004 C   0  0  0  0  0  0  0  0  0  0  0  0
  -10.3264  -13.7658    4.9212 N   0  0  0  0  0  0  0  0  0  0  0  0
  -10.6426  -14.3104    7.1438 N   0  0  0  0  0  0  0  0  0  0  0  0
  -11.2023  -14.0704    8.3388 C   0  0  0  0  0  0  0  0  0  0  0  0
  -12.0365  -12.9722    8.5049 C   0  0  0  0  0  0  0  0  0  0  0  0
  -12.2670  -12.1466    7.4095 C   0  0  0  0  0  0  0  0  0  0  0  0
  -13.0512  -11.0791    7.5264 N   0  0  0  0  0  0  0  0  0  0  0  0
  -12.4610  -12.9791    9.7649 N   0  0  0  0  0  0  0  0  0  0  0  0
  -11.9210  -14.0342   10.3709 C   0  0  0  0  0  0  0  0  0  0  0  0
  -11.1552  -14.7002    9.5092 N   0  0  0  0  0  0  0  0  0  0  0  0
  1  7  2  0  0  0  0
  1  2  1  0  0  0  0
  2  3  1  0  0  0  0
  2  4  2  0  0  0  0
  4  5  1  0  0  0  0
  5  6  2  0  0  0  0
  5 11  1  0  0  0  0
  6  7  1  0  0  0  0
  6  9  1  0  0  0  0
  7  8  1  0  0  0  0
  9 10  1  0  0  0  0
 10 11  2  0  0  0  0
M  END
>  <CHROM.1>
-11.59853256,-13.26691823,7.77849470,1.16248672,0.91036094,-1.13547755

>  <Name>
ligand

>  <RI>
0

>  <Rbt.Current_Directory>
/home/itssahil/PROJECTS/Mol_Feturizer/Test_systems_manuscript/rnas/2b57

>  <Rbt.Executable>
rbdock ($Id: //depot/dev/client3/rdock/2013.1/src/exe/rbdock.cxx#4 $)

>  <Rbt.Library>
libRbt.so (2013.1, Build901 2013/11/27)

>  <Rbt.Parameter_File>
/export/apps/rDock/src/rDock_2013.1_src/data/scripts/dock_solv.prm

>  <Rbt.Receptor>
prm/pocket_docking_7.prm

>  <SCORE>
-10.3953

>  <SCORE.INTER>
-10.3953

>  <SCORE.INTER.CONST>
1

>  <SCORE.INTER.POLAR>
0

>  <SCORE.INTER.ROT>
0

>  <SCORE.INTER.SOLV>
18.0954

>  <SCORE.INTER.VDW>
-16.562

>  <SCORE.INTER.norm>
-0.945024

>  <SCORE.INTRA>
0

>  <SCORE.INTRA.DIHEDRAL>
0

>  <SCORE.INTRA.DIHEDRAL.0>
0

>  <SCORE.INTRA.POLAR>
0

>  <SCORE.INTRA.POLAR.0>
0

>  <SCORE.INTRA.REPUL>
0

>  <SCORE.INTRA.REPUL.0>
0

>  <SCORE.INTRA.SOLV>
0

>  <SCORE.INTRA.SOLV.lig_0>
-48.3454

>  <SCORE.INTRA.VDW>
0

>  <SCORE.INTRA.VDW.0>
0

>  <SCORE.INTRA.norm>
0

>  <SCORE.RESTR>
0

>  <SCORE.RESTR.CAVITY>
0

>  <SCORE.RESTR.norm>
0

>  <SCORE.SYSTEM>
0

>  <SCORE.SYSTEM.CONST>
0

>  <SCORE.SYSTEM.DIHEDRAL>
0

>  <SCORE.SYSTEM.SOLV>
0

>  <SCORE.SYSTEM.norm>
0

>  <SCORE.heavy>
11

>  <SCORE.norm>
-0.945024

>  <RMSD>
3.349

$$$$
ligand
 OpenBabel02271912153D
libRbt.so/2013.1/901 2013/11/27
 11 12  0  0  0  0  0  0  0  0999 V2000
  -11.7072  -12.4409    6.2306 N   0  0  0  0  0  0  0  0  0  0  0  0
  -10.9091  -13.5121    6.0953 C   0  0  0  0  0  0  0  0  0  0  0  0
  -10.3632  -13.7839    4.9133 N   0  0  0  0  0  0  0  0  0  0  0  0
  -10.6650  -14.3178    7.1405 N   0  0  0  0  0  0  0  0  0  0  0  0
  -11.2153  -14.0709    8.3384 C   0  0  0  0  0  0  0  0  0  0  0  0
  -12.0449  -12.9694    8.5057 C   0  0  0  0  0  0  0  0  0  0  0  0
  -12.2807  -12.1478    7.4084 C   0  0  0  0  0  0  0  0  0  0  0  0
  -13.0607  -11.0773    7.5264 N   0  0  0  0  0  0  0  0  0  0  0  0
  -12.4603  -12.9694    9.7688 N   0  0  0  0  0  0  0  0  0  0  0  0
  -11.9192  -14.0235   10.3755 C   0  0  0  0  0  0  0  0  0  0  0  0
  -11.1617  -14.6957    9.5112 N   0  0  0  0  0  0  0  0  0  0  0  0
  1  7  2  0  0  0  0
  1  2  1  0  0  0  0
  2  3  1  0  0  0  0
  2  4  2  0  0  0  0
  4  5  1  0  0  0  0
  5  6  2  0  0  0  0
  5 11  1  0  0  0  0
  6  7  1  0  0  0  0
  6  9  1  0  0  0  0
  7  8  1  0  0  0  0
  9 10  1  0  0  0  0
 10 11  2  0  0  0  0
M  END
>  <CHROM.1>
-11.61308362,-13.26858025,7.77749891,1.17111015,0.91621734,-1.14667272

>  <Name>
ligand

>  <RI>
0

>  <Rbt.Current_Directory>
/home/itssahil/PROJECTS/Mol_Feturizer/Test_systems_manuscript/rnas/2b57

>  <Rbt.Executable>
rbdock ($Id: //depot/dev/client3/rdock/2013.1/src/exe/rbdock.cxx#4 $)

>  <Rbt.Library>
libRbt.so (2013.1, Build901 2013/11/27)

>  <Rbt.Parameter_File>
/export/apps/rDock/src/rDock_2013.1_src/data/scripts/dock_solv.prm

>  <Rbt.Receptor>
prm/pocket_docking_8.prm

>  <SCORE>
-10.4194

>  <SCORE.INTER>
-10.4194

>  <SCORE.INTER.CONST>
1

>  <SCORE.INTER.POLAR>
0

>  <SCORE.INTER.ROT>
0

>  <SCORE.INTER.SOLV>
18.1949

>  <SCORE.INTER.VDW>
-16.6112

>  <SCORE.INTER.norm>
-0.947214

>  <SCORE.INTRA>
0

>  <SCORE.INTRA.DIHEDRAL>
0

>  <SCORE.INTRA.DIHEDRAL.0>
0

>  <SCORE.INTRA.POLAR>
0

>  <SCORE.INTRA.POLAR.0>
0

>  <SCORE.INTRA.REPUL>
0

>  <SCORE.INTRA.REPUL.0>
0

>  <SCORE.INTRA.SOLV>
0

>  <SCORE.INTRA.SOLV.lig_0>
-48.3454

>  <SCORE.INTRA.VDW>
0

>  <SCORE.INTRA.VDW.0>
0

>  <SCORE.INTRA.norm>
0

>  <SCORE.RESTR>
0

>  <SCORE.RESTR.CAVITY>
0

>  <SCORE.RESTR.norm>
0

>  <SCORE.SYSTEM>
0

>  <SCORE.SYSTEM.CONST>
0

>  <SCORE.SYSTEM.DIHEDRAL>
0

>  <SCORE.SYSTEM.SOLV>
0

>  <SCORE.SYSTEM.norm>
0

>  <SCORE.heavy>
11

>  <SCORE.norm>
-0.947214

>  <RMSD>
3.349

$$$$
ligand
 OpenBabel02271912153D
libRbt.so/2013.1/901 2013/11/27
 11 12  0  0  0  0  0  0  0  0999 V2000
  -11.6816  -12.4349    6.2360 N   0  0  0  0  0  0  0  0  0  0  0  0
  -10.8778  -13.5020    6.1022 C   0  0  0  0  0  0  0  0  0  0  0  0
  -10.3210  -13.7657    4.9234 N   0  0  0  0  0  0  0  0  0  0  0  0
  -10.6389  -14.3117    7.1454 N   0  0  0  0  0  0  0  0  0  0  0  0
  -11.2002  -14.0730    8.3400 C   0  0  0  0  0  0  0  0  0  0  0  0
  -12.0359  -12.9758    8.5056 C   0  0  0  0  0  0  0  0  0  0  0  0
  -12.2662  -12.1499    7.4104 C   0  0  0  0  0  0  0  0  0  0  0  0
  -13.0517  -11.0834    7.5270 N   0  0  0  0  0  0  0  0  0  0  0  0
  -12.4618  -12.9838    9.7652 N   0  0  0  0  0  0  0  0  0  0  0  0
  -11.9212  -14.0385   10.3713 C   0  0  0  0  0  0  0  0  0  0  0  0
  -11.1537  -14.7032    9.5101 N   0  0  0  0  0  0  0  0  0  0  0  0
  1  7  2  0  0  0  0
  1  2  1  0  0  0  0
  2  3  1  0  0  0  0
  2  4  2  0  0  0  0
  4  5  1  0  0  0  0
  5  6  2  0  0  0  0
  5 11  1  0  0  0  0
  6  7  1  0  0  0  0
  6  9  1  0  0  0  0
  7  8  1  0  0  0  0
  9 10  1  0  0  0  0
 10 11  2  0  0  0  0
M  END
>  <CHROM.1>
-11.59678788,-13.26964950,7.77960087,1.16168333,0.90884454,-1.13438158

>  <Name>
ligand

>  <RI>
0

>  <Rbt.Current_Directory>
/home/itssahil/PROJECTS/Mol_Feturizer/Test_systems_manuscript/rnas/2b57

>  <Rbt.Executable>
rbdock ($Id: //depot/dev/client3/rdock/2013.1/src/exe/rbdock.cxx#4 $)

>  <Rbt.Library>
libRbt.so (2013.1, Build901 2013/11/27)

>  <Rbt.Parameter_File>
/export/apps/rDock/src/rDock_2013.1_src/data/scripts/dock_solv.prm

>  <Rbt.Receptor>
prm/pocket_docking_8.prm

>  <SCORE>
-10.3951

>  <SCORE.INTER>
-10.3951

>  <SCORE.INTER.CONST>
1

>  <SCORE.INTER.POLAR>
0

>  <SCORE.INTER.ROT>
0

>  <SCORE.INTER.SOLV>
18.0721

>  <SCORE.INTER.VDW>
-16.5541

>  <SCORE.INTER.norm>
-0.945008

>  <SCORE.INTRA>
0

>  <SCORE.INTRA.DIHEDRAL>
0

>  <SCORE.INTRA.DIHEDRAL.0>
0

>  <SCORE.INTRA.POLAR>
0

>  <SCORE.INTRA.POLAR.0>
0

>  <SCORE.INTRA.REPUL>
0

>  <SCORE.INTRA.REPUL.0>
0

>  <SCORE.INTRA.SOLV>
0

>  <SCORE.INTRA.SOLV.lig_0>
-48.3454

>  <SCORE.INTRA.VDW>
0

>  <SCORE.INTRA.VDW.0>
0

>  <SCORE.INTRA.norm>
0

>  <SCORE.RESTR>
0

>  <SCORE.RESTR.CAVITY>
0

>  <SCORE.RESTR.norm>
0

>  <SCORE.SYSTEM>
0

>  <SCORE.SYSTEM.CONST>
0

>  <SCORE.SYSTEM.DIHEDRAL>
0

>  <SCORE.SYSTEM.SOLV>
0

>  <SCORE.SYSTEM.norm>
0

>  <SCORE.heavy>
11

>  <SCORE.norm>
-0.945008

>  <RMSD>
3.349

$$$$
ligand
 OpenBabel02271912153D
libRbt.so/2013.1/901 2013/11/27
 11 12  0  0  0  0  0  0  0  0999 V2000
  -11.6671  -12.4274    6.2383 N   0  0  0  0  0  0  0  0  0  0  0  0
  -10.8577  -13.4908    6.1091 C   0  0  0  0  0  0  0  0  0  0  0  0
  -10.2934  -13.7522    4.9334 N   0  0  0  0  0  0  0  0  0  0  0  0
  -10.6206  -14.2991    7.1538 N   0  0  0  0  0  0  0  0  0  0  0  0
  -11.1893  -14.0626    8.3453 C   0  0  0  0  0  0  0  0  0  0  0  0
  -12.0310  -12.9693    8.5062 C   0  0  0  0  0  0  0  0  0  0  0  0
  -12.2593  -12.1448    7.4095 C   0  0  0  0  0  0  0  0  0  0  0  0
  -13.0504  -11.0820    7.5216 N   0  0  0  0  0  0  0  0  0  0  0  0
  -12.4635  -12.9790    9.7635 N   0  0  0  0  0  0  0  0  0  0  0  0
  -11.9212  -14.0310   10.3727 C   0  0  0  0  0  0  0  0  0  0  0  0
  -11.1461  -14.6923    9.5159 N   0  0  0  0  0  0  0  0  0  0  0  0
  1  7  2  0  0  0  0
  1  2  1  0  0  0  0
  2  3  1  0  0  0  0
  2  4  2  0  0  0  0
  4  5  1  0  0  0  0
  5  6  2  0  0  0  0
  5 11  1  0  0  0  0
  6  7  1  0  0  0  0
  6  9  1  0  0  0  0
  7  8  1  0  0  0  0
  9 10  1  0  0  0  0
 10 11  2  0  0  0  0
M  END
>  <CHROM.1>
-11.58666142,-13.26133032,7.78260193,1.15709372,0.90237587,-1.13105296

>  <Name>
ligand

>  <RI>
0

>  <Rbt.Current_Directory>
/home/itssahil/PROJECTS/Mol_Feturizer/Test_systems_manuscript/rnas/2b57

>  <Rbt.Executable>
rbdock ($Id: //depot/dev/client3/rdock/2013.1/src/exe/rbdock.cxx#4 $)

>  <Rbt.Library>
libRbt.so (2013.1, Build901 2013/11/27)

>  <Rbt.Parameter_File>
/export/apps/rDock/src/rDock_2013.1_src/data/scripts/dock_solv.prm

>  <Rbt.Receptor>
prm/pocket_docking_8.prm

>  <SCORE>
-10.3934

>  <SCORE.INTER>
-10.3934

>  <SCORE.INTER.CONST>
1

>  <SCORE.INTER.POLAR>
0

>  <SCORE.INTER.ROT>
0

>  <SCORE.INTER.SOLV>
17.974

>  <SCORE.INTER.VDW>
-16.5202

>  <SCORE.INTER.norm>
-0.944853

>  <SCORE.INTRA>
0

>  <SCORE.INTRA.DIHEDRAL>
0

>  <SCORE.INTRA.DIHEDRAL.0>
0

>  <SCORE.INTRA.POLAR>
0

>  <SCORE.INTRA.POLAR.0>
0

>  <SCORE.INTRA.REPUL>
0

>  <SCORE.INTRA.REPUL.0>
0

>  <SCORE.INTRA.SOLV>
0

>  <SCORE.INTRA.SOLV.lig_0>
-48.3454

>  <SCORE.INTRA.VDW>
0

>  <SCORE.INTRA.VDW.0>
0

>  <SCORE.INTRA.norm>
0

>  <SCORE.RESTR>
0

>  <SCORE.RESTR.CAVITY>
0

>  <SCORE.RESTR.norm>
0

>  <SCORE.SYSTEM>
0

>  <SCORE.SYSTEM.CONST>
0

>  <SCORE.SYSTEM.DIHEDRAL>
0

>  <SCORE.SYSTEM.SOLV>
0

>  <SCORE.SYSTEM.norm>
0

>  <SCORE.heavy>
11

>  <SCORE.norm>
-0.944853

>  <RMSD>
3.349

$$$$
ligand
 OpenBabel02271912153D
libRbt.so/2013.1/901 2013/11/27
 11 12  0  0  0  0  0  0  0  0999 V2000
  -11.7250  -12.4422    6.2350 N   0  0  0  0  0  0  0  0  0  0  0  0
  -10.9202  -13.5081    6.0981 C   0  0  0  0  0  0  0  0  0  0  0  0
  -10.3735  -13.7754    4.9154 N   0  0  0  0  0  0  0  0  0  0  0  0
  -10.6701  -14.3132    7.1423 N   0  0  0  0  0  0  0  0  0  0  0  0
  -11.2211  -14.0709    8.3409 C   0  0  0  0  0  0  0  0  0  0  0  0
  -12.0576  -12.9749    8.5098 C   0  0  0  0  0  0  0  0  0  0  0  0
  -12.2996  -12.1538    7.4134 C   0  0  0  0  0  0  0  0  0  0  0  0
  -13.0863  -11.0886    7.5329 N   0  0  0  0  0  0  0  0  0  0  0  0
  -12.4720  -12.9787    9.7733 N   0  0  0  0  0  0  0  0  0  0  0  0
  -11.9237  -14.0299   10.3785 C   0  0  0  0  0  0  0  0  0  0  0  0
  -11.1626  -14.6964    9.5131 N   0  0  0  0  0  0  0  0  0  0  0  0
  1  7  2  0  0  0  0
  1  2  1  0  0  0  0
  2  3  1  0  0  0  0
  2  4  2  0  0  0  0
  4  5  1  0  0  0  0
  5  6  2  0  0  0  0
  5 11  1  0  0  0  0
  6  7  1  0  0  0  0
  6  9  1  0  0  0  0
  7  8  1  0  0  0  0
  9 10  1  0  0  0  0
 10 11  2  0  0  0  0
M  END
>  <CHROM.1>
-11.62446098,-13.27066267,7.78100545,1.17656783,0.91066852,-1.15009589

>  <Name>
ligand

>  <RI>
0

>  <Rbt.Current_Directory>
/home/itssahil/PROJECTS/Mol_Feturizer/Test_systems_manuscript/rnas/2b57

>  <Rbt.Executable>
rbdock ($Id: //depot/dev/client3/rdock/2013.1/src/exe/rbdock.cxx#4 $)

>  <Rbt.Library>
libRbt.so (2013.1, Build901 2013/11/27)

>  <Rbt.Parameter_File>
/export/apps/rDock/src/rDock_2013.1_src/data/scripts/dock_solv.prm

>  <Rbt.Receptor>
prm/blind_docking_100.prm

>  <SCORE>
-10.4226

>  <SCORE.INTER>
-10.4226

>  <SCORE.INTER.CONST>
1

>  <SCORE.INTER.POLAR>
0

>  <SCORE.INTER.ROT>
0

>  <SCORE.INTER.SOLV>
18.1775

>  <SCORE.INTER.VDW>
-16.6076

>  <SCORE.INTER.norm>
-0.947508

>  <SCORE.INTRA>
0

>  <SCORE.INTRA.DIHEDRAL>
0

>  <SCORE.INTRA.DIHEDRAL.0>
0

>  <SCORE.INTRA.POLAR>
0

>  <SCORE.INTRA.POLAR.0>
0

>  <SCORE.INTRA.REPUL>
0

>  <SCORE.INTRA.REPUL.0>
0

>  <SCORE.INTRA.SOLV>
0

>  <SCORE.INTRA.SOLV.lig_0>
-48.3454

>  <SCORE.INTRA.VDW>
0

>  <SCORE.INTRA.VDW.0>
0

>  <SCORE.INTRA.norm>
0

>  <SCORE.RESTR>
0

>  <SCORE.RESTR.CAVITY>
0

>  <SCORE.RESTR.norm>
0

>  <SCORE.SYSTEM>
0

>  <SCORE.SYSTEM.CONST>
0

>  <SCORE.SYSTEM.DIHEDRAL>
0

>  <SCORE.SYSTEM.SOLV>
0

>  <SCORE.SYSTEM.norm>
0

>  <SCORE.heavy>
11

>  <SCORE.norm>
-0.947508

>  <RMSD>
3.350

$$$$
ligand
 OpenBabel02271912153D
libRbt.so/2013.1/901 2013/11/27
 11 12  0  0  0  0  0  0  0  0999 V2000
  -11.7143  -12.4415    6.2296 N   0  0  0  0  0  0  0  0  0  0  0  0
  -10.9106  -13.5084    6.0935 C   0  0  0  0  0  0  0  0  0  0  0  0
  -10.3626  -13.7760    4.9116 N   0  0  0  0  0  0  0  0  0  0  0  0
  -10.6631  -14.3141    7.1379 N   0  0  0  0  0  0  0  0  0  0  0  0
  -11.2155  -14.0714    8.3358 C   0  0  0  0  0  0  0  0  0  0  0  0
  -12.0508  -12.9743    8.5038 C   0  0  0  0  0  0  0  0  0  0  0  0
  -12.2901  -12.1527    7.4073 C   0  0  0  0  0  0  0  0  0  0  0  0
  -13.0756  -11.0864    7.5260 N   0  0  0  0  0  0  0  0  0  0  0  0
  -12.4671  -12.9780    9.7666 N   0  0  0  0  0  0  0  0  0  0  0  0
  -11.9210  -14.0301   10.3724 C   0  0  0  0  0  0  0  0  0  0  0  0
  -11.1595  -14.6973    9.5079 N   0  0  0  0  0  0  0  0  0  0  0  0
  1  7  2  0  0  0  0
  1  2  1  0  0  0  0
  2  3  1  0  0  0  0
  2  4  2  0  0  0  0
  4  5  1  0  0  0  0
  5  6  2  0  0  0  0
  5 11  1  0  0  0  0
  6  7  1  0  0  0  0
  6  9  1  0  0  0  0
  7  8  1  0  0  0  0
  9 10  1  0  0  0  0
 10 11  2  0  0  0  0
M  END
>  <CHROM.1>
-11.61700851,-13.27049479,7.77552723,1.17352423,0.91128002,-1.14740239

>  <Name>
ligand

>  <RI>
0

>  <Rbt.Current_Directory>
/home/itssahil/PROJECTS/Mol_Feturizer/Test_systems_manuscript/rnas/2b57

>  <Rbt.Executable>
rbdock ($Id: //depot/dev/client3/rdock/2013.1/src/exe/rbdock.cxx#4 $)

>  <Rbt.Library>
libRbt.so (2013.1, Build901 2013/11/27)

>  <Rbt.Parameter_File>
/export/apps/rDock/src/rDock_2013.1_src/data/scripts/dock_solv.prm

>  <Rbt.Receptor>
prm/blind_docking_40.prm

>  <SCORE>
-10.4255

>  <SCORE.INTER>
-10.4255

>  <SCORE.INTER.CONST>
1

>  <SCORE.INTER.POLAR>
0

>  <SCORE.INTER.ROT>
0

>  <SCORE.INTER.SOLV>
18.1868

>  <SCORE.INTER.VDW>
-16.6126

>  <SCORE.INTER.norm>
-0.947777

>  <SCORE.INTRA>
0

>  <SCORE.INTRA.DIHEDRAL>
0

>  <SCORE.INTRA.DIHEDRAL.0>
0

>  <SCORE.INTRA.POLAR>
0

>  <SCORE.INTRA.POLAR.0>
0

>  <SCORE.INTRA.REPUL>
0

>  <SCORE.INTRA.REPUL.0>
0

>  <SCORE.INTRA.SOLV>
0

>  <SCORE.INTRA.SOLV.lig_0>
-48.3454

>  <SCORE.INTRA.VDW>
0

>  <SCORE.INTRA.VDW.0>
0

>  <SCORE.INTRA.norm>
0

>  <SCORE.RESTR>
0

>  <SCORE.RESTR.CAVITY>
0

>  <SCORE.RESTR.norm>
0

>  <SCORE.SYSTEM>
0

>  <SCORE.SYSTEM.CONST>
0

>  <SCORE.SYSTEM.DIHEDRAL>
0

>  <SCORE.SYSTEM.SOLV>
0

>  <SCORE.SYSTEM.norm>
0

>  <SCORE.heavy>
11

>  <SCORE.norm>
-0.947777

>  <RMSD>
3.350

$$$$
ligand
 OpenBabel02271912153D
libRbt.so/2013.1/901 2013/11/27
 11 12  0  0  0  0  0  0  0  0999 V2000
  -11.7265  -12.4453    6.2351 N   0  0  0  0  0  0  0  0  0  0  0  0
  -10.9213  -13.5106    6.0959 C   0  0  0  0  0  0  0  0  0  0  0  0
  -10.3800  -13.7790    4.9110 N   0  0  0  0  0  0  0  0  0  0  0  0
  -10.6656  -14.3140    7.1401 N   0  0  0  0  0  0  0  0  0  0  0  0
  -11.2111  -14.0705    8.3409 C   0  0  0  0  0  0  0  0  0  0  0  0
  -12.0479  -12.9750    8.5122 C   0  0  0  0  0  0  0  0  0  0  0  0
  -12.2958  -12.1557    7.4158 C   0  0  0  0  0  0  0  0  0  0  0  0
  -13.0830  -11.0910    7.5375 N   0  0  0  0  0  0  0  0  0  0  0  0
  -12.4564  -12.9775    9.7776 N   0  0  0  0  0  0  0  0  0  0  0  0
  -11.9042  -14.0272   10.3818 C   0  0  0  0  0  0  0  0  0  0  0  0
  -11.1465  -14.6942    9.5137 N   0  0  0  0  0  0  0  0  0  0  0  0
  1  7  2  0  0  0  0
  1  2  1  0  0  0  0
  2  3  1  0  0  0  0
  2  4  2  0  0  0  0
  4  5  1  0  0  0  0
  5  6  2  0  0  0  0
  5 11  1  0  0  0  0
  6  7  1  0  0  0  0
  6  9  1  0  0  0  0
  7  8  1  0  0  0  0
  9 10  1  0  0  0  0
 10 11  2  0  0  0  0
M  END
>  <CHROM.1>
-11.61789402,-13.27141531,7.78178042,1.18421222,0.91173102,-1.15755171

>  <Name>
ligand

>  <RI>
0

>  <Rbt.Current_Directory>
/home/itssahil/PROJECTS/Mol_Feturizer/Test_systems_manuscript/rnas/2b57

>  <Rbt.Executable>
rbdock ($Id: //depot/dev/client3/rdock/2013.1/src/exe/rbdock.cxx#4 $)

>  <Rbt.Library>
libRbt.so (2013.1, Build901 2013/11/27)

>  <Rbt.Parameter_File>
/export/apps/rDock/src/rDock_2013.1_src/data/scripts/dock_solv.prm

>  <Rbt.Receptor>
prm/blind_docking_60.prm

>  <SCORE>
-10.4051

>  <SCORE.INTER>
-10.4051

>  <SCORE.INTER.CONST>
1

>  <SCORE.INTER.POLAR>
0

>  <SCORE.INTER.ROT>
0

>  <SCORE.INTER.SOLV>
18.2092

>  <SCORE.INTER.VDW>
-16.6065

>  <SCORE.INTER.norm>
-0.94592

>  <SCORE.INTRA>
0

>  <SCORE.INTRA.DIHEDRAL>
0

>  <SCORE.INTRA.DIHEDRAL.0>
0

>  <SCORE.INTRA.POLAR>
0

>  <SCORE.INTRA.POLAR.0>
0

>  <SCORE.INTRA.REPUL>
0

>  <SCORE.INTRA.REPUL.0>
0

>  <SCORE.INTRA.SOLV>
0

>  <SCORE.INTRA.SOLV.lig_0>
-48.3454

>  <SCORE.INTRA.VDW>
0

>  <SCORE.INTRA.VDW.0>
0

>  <SCORE.INTRA.norm>
0

>  <SCORE.RESTR>
0

>  <SCORE.RESTR.CAVITY>
0

>  <SCORE.RESTR.norm>
0

>  <SCORE.SYSTEM>
0

>  <SCORE.SYSTEM.CONST>
0

>  <SCORE.SYSTEM.DIHEDRAL>
0

>  <SCORE.SYSTEM.SOLV>
0

>  <SCORE.SYSTEM.norm>
0

>  <SCORE.heavy>
11

>  <SCORE.norm>
-0.94592

>  <RMSD>
3.350

$$$$
ligand
 OpenBabel02271912153D
libRbt.so/2013.1/901 2013/11/27
 11 12  0  0  0  0  0  0  0  0999 V2000
  -11.7132  -12.4440    6.2268 N   0  0  0  0  0  0  0  0  0  0  0  0
  -10.9078  -13.5098    6.0916 C   0  0  0  0  0  0  0  0  0  0  0  0
  -10.3586  -13.7768    4.9100 N   0  0  0  0  0  0  0  0  0  0  0  0
  -10.6598  -14.3148    7.1363 N   0  0  0  0  0  0  0  0  0  0  0  0
  -11.2134  -14.0727    8.3338 C   0  0  0  0  0  0  0  0  0  0  0  0
  -12.0506  -12.9769    8.5009 C   0  0  0  0  0  0  0  0  0  0  0  0
  -12.2903  -12.1559    7.4040 C   0  0  0  0  0  0  0  0  0  0  0  0
  -13.0776  -11.0908    7.5219 N   0  0  0  0  0  0  0  0  0  0  0  0
  -12.4677  -12.9809    9.7635 N   0  0  0  0  0  0  0  0  0  0  0  0
  -11.9204  -14.0320   10.3699 C   0  0  0  0  0  0  0  0  0  0  0  0
  -11.1573  -14.6983    9.5060 N   0  0  0  0  0  0  0  0  0  0  0  0
  1  7  2  0  0  0  0
  1  2  1  0  0  0  0
  2  3  1  0  0  0  0
  2  4  2  0  0  0  0
  4  5  1  0  0  0  0
  5  6  2  0  0  0  0
  5 11  1  0  0  0  0
  6  7  1  0  0  0  0
  6  9  1  0  0  0  0
  7  8  1  0  0  0  0
  9 10  1  0  0  0  0
 10 11  2  0  0  0  0
M  END
>  <CHROM.1>
-11.61576726,-13.27255327,7.77302389,1.17352672,0.90958636,-1.14764301

>  <Name>
ligand

>  <RI>
0

>  <Rbt.Current_Directory>
/home/itssahil/PROJECTS/Mol_Feturizer/Test_systems_manuscript/rnas/2b57

>  <Rbt.Executable>
rbdock ($Id: //depot/dev/client3/rdock/2013.1/src/exe/rbdock.cxx#4 $)

>  <Rbt.Library>
libRbt.so (2013.1, Build901 2013/11/27)

>  <Rbt.Parameter_File>
/export/apps/rDock/src/rDock_2013.1_src/data/scripts/dock_solv.prm

>  <Rbt.Receptor>
prm/blind_docking_80.prm

>  <SCORE>
-10.4248

>  <SCORE.INTER>
-10.4248

>  <SCORE.INTER.CONST>
1

>  <SCORE.INTER.POLAR>
0

>  <SCORE.INTER.ROT>
0

>  <SCORE.INTER.SOLV>
18.1856

>  <SCORE.INTER.VDW>
-16.6117

>  <SCORE.INTER.norm>
-0.947707

>  <SCORE.INTRA>
0

>  <SCORE.INTRA.DIHEDRAL>
0

>  <SCORE.INTRA.DIHEDRAL.0>
0

>  <SCORE.INTRA.POLAR>
0

>  <SCORE.INTRA.POLAR.0>
0

>  <SCORE.INTRA.REPUL>
0

>  <SCORE.INTRA.REPUL.0>
0

>  <SCORE.INTRA.SOLV>
0

>  <SCORE.INTRA.SOLV.lig_0>
-48.3454

>  <SCORE.INTRA.VDW>
0

>  <SCORE.INTRA.VDW.0>
0

>  <SCORE.INTRA.norm>
0

>  <SCORE.RESTR>
0

>  <SCORE.RESTR.CAVITY>
0

>  <SCORE.RESTR.norm>
0

>  <SCORE.SYSTEM>
0

>  <SCORE.SYSTEM.CONST>
0

>  <SCORE.SYSTEM.DIHEDRAL>
0

>  <SCORE.SYSTEM.SOLV>
0

>  <SCORE.SYSTEM.norm>
0

>  <SCORE.heavy>
11

>  <SCORE.norm>
-0.947707

>  <RMSD>
3.350

$$$$
ligand
 OpenBabel02271912153D
libRbt.so/2013.1/901 2013/11/27
 11 12  0  0  0  0  0  0  0  0999 V2000
  -11.7273  -12.4487    6.2374 N   0  0  0  0  0  0  0  0  0  0  0  0
  -10.9218  -13.5141    6.1000 C   0  0  0  0  0  0  0  0  0  0  0  0
  -10.3755  -13.7808    4.9170 N   0  0  0  0  0  0  0  0  0  0  0  0
  -10.6708  -14.3191    7.1440 N   0  0  0  0  0  0  0  0  0  0  0  0
  -11.2213  -14.0773    8.3429 C   0  0  0  0  0  0  0  0  0  0  0  0
  -12.0586  -12.9819    8.5123 C   0  0  0  0  0  0  0  0  0  0  0  0
  -12.3015  -12.1609    7.4161 C   0  0  0  0  0  0  0  0  0  0  0  0
  -13.0890  -11.0962    7.5361 N   0  0  0  0  0  0  0  0  0  0  0  0
  -12.4724  -12.9863    9.7759 N   0  0  0  0  0  0  0  0  0  0  0  0
  -11.9231  -14.0371   10.3808 C   0  0  0  0  0  0  0  0  0  0  0  0
  -11.1619  -14.7030    9.5150 N   0  0  0  0  0  0  0  0  0  0  0  0
  1  7  2  0  0  0  0
  1  2  1  0  0  0  0
  2  3  1  0  0  0  0
  2  4  2  0  0  0  0
  4  5  1  0  0  0  0
  5  6  2  0  0  0  0
  5 11  1  0  0  0  0
  6  7  1  0  0  0  0
  6  9  1  0  0  0  0
  7  8  1  0  0  0  0
  9 10  1  0  0  0  0
 10 11  2  0  0  0  0
M  END
>  <CHROM.1>
-11.62552083,-13.27731256,7.78327933,1.17765929,0.91022238,-1.15081796

>  <Name>
ligand

>  <RI>
0

>  <Rbt.Current_Directory>
/home/itssahil/PROJECTS/Mol_Feturizer/Test_systems_manuscript/rnas/2b57

>  <Rbt.Executable>
rbdock ($Id: //depot/dev/client3/rdock/2013.1/src/exe/rbdock.cxx#4 $)

>  <Rbt.Library>
libRbt.so (2013.1, Build901 2013/11/27)

>  <Rbt.Parameter_File>
/export/apps/rDock/src/rDock_2013.1_src/data/scripts/dock_solv.prm

>  <Rbt.Receptor>
prm/blind_docking_80.prm

>  <SCORE>
-10.4191

>  <SCORE.INTER>
-10.4191

>  <SCORE.INTER.CONST>
1

>  <SCORE.INTER.POLAR>
0

>  <SCORE.INTER.ROT>
0

>  <SCORE.INTER.SOLV>
18.1684

>  <SCORE.INTER.VDW>
-16.6022

>  <SCORE.INTER.norm>
-0.947195

>  <SCORE.INTRA>
0

>  <SCORE.INTRA.DIHEDRAL>
0

>  <SCORE.INTRA.DIHEDRAL.0>
0

>  <SCORE.INTRA.POLAR>
0

>  <SCORE.INTRA.POLAR.0>
0

>  <SCORE.INTRA.REPUL>
0

>  <SCORE.INTRA.REPUL.0>
0

>  <SCORE.INTRA.SOLV>
0

>  <SCORE.INTRA.SOLV.lig_0>
-48.3454

>  <SCORE.INTRA.VDW>
0

>  <SCORE.INTRA.VDW.0>
0

>  <SCORE.INTRA.norm>
0

>  <SCORE.RESTR>
0

>  <SCORE.RESTR.CAVITY>
0

>  <SCORE.RESTR.norm>
0

>  <SCORE.SYSTEM>
0

>  <SCORE.SYSTEM.CONST>
0

>  <SCORE.SYSTEM.DIHEDRAL>
0

>  <SCORE.SYSTEM.SOLV>
0

>  <SCORE.SYSTEM.norm>
0

>  <SCORE.heavy>
11

>  <SCORE.norm>
-0.947195

>  <RMSD>
3.350

$$$$
ligand
 OpenBabel02271912153D
libRbt.so/2013.1/901 2013/11/27
 11 12  0  0  0  0  0  0  0  0999 V2000
  -11.7169  -12.4465    6.2294 N   0  0  0  0  0  0  0  0  0  0  0  0
  -10.9097  -13.5107    6.0928 C   0  0  0  0  0  0  0  0  0  0  0  0
  -10.3610  -13.7759    4.9106 N   0  0  0  0  0  0  0  0  0  0  0  0
  -10.6595  -14.3162    7.1367 N   0  0  0  0  0  0  0  0  0  0  0  0
  -11.2125  -14.0759    8.3348 C   0  0  0  0  0  0  0  0  0  0  0  0
  -12.0515  -12.9817    8.5034 C   0  0  0  0  0  0  0  0  0  0  0  0
  -12.2935  -12.1602    7.4074 C   0  0  0  0  0  0  0  0  0  0  0  0
  -13.0826  -11.0966    7.5267 N   0  0  0  0  0  0  0  0  0  0  0  0
  -12.4676  -12.9874    9.7663 N   0  0  0  0  0  0  0  0  0  0  0  0
  -11.9180  -14.0380   10.3715 C   0  0  0  0  0  0  0  0  0  0  0  0
  -11.1544  -14.7022    9.5065 N   0  0  0  0  0  0  0  0  0  0  0  0
  1  7  2  0  0  0  0
  1  2  1  0  0  0  0
  2  3  1  0  0  0  0
  2  4  2  0  0  0  0
  4  5  1  0  0  0  0
  5  6  2  0  0  0  0
  5 11  1  0  0  0  0
  6  7  1  0  0  0  0
  6  9  1  0  0  0  0
  7  8  1  0  0  0  0
  9 10  1  0  0  0  0
 10 11  2  0  0  0  0
M  END
>  <CHROM.1>
-11.61673129,-13.27602859,7.77495781,1.17587680,0.90832738,-1.14873836

>  <Name>
ligand

>  <RI>
0

>  <Rbt.Current_Directory>
/home/itssahil/PROJECTS/Mol_Feturizer/Test_systems_manuscript/rnas/2b57

>  <Rbt.Executable>
rbdock ($Id: //depot/dev/client3/rdock/2013.1/src/exe/rbdock.cxx#4 $)

>  <Rbt.Library>
libRbt.so (2013.1, Build901 2013/11/27)

>  <Rbt.Parameter_File>
/export/apps/rDock/src/rDock_2013.1_src/data/scripts/dock_solv.prm

>  <Rbt.Receptor>
prm/blind_docking_80.prm

>  <SCORE>
-10.4233

>  <SCORE.INTER>
-10.4233

>  <SCORE.INTER.CONST>
1

>  <SCORE.INTER.POLAR>
0

>  <SCORE.INTER.ROT>
0

>  <SCORE.INTER.SOLV>
18.1792

>  <SCORE.INTER.VDW>
-16.6086

>  <SCORE.INTER.norm>
-0.947569

>  <SCORE.INTRA>
0

>  <SCORE.INTRA.DIHEDRAL>
0

>  <SCORE.INTRA.DIHEDRAL.0>
0

>  <SCORE.INTRA.POLAR>
0

>  <SCORE.INTRA.POLAR.0>
0

>  <SCORE.INTRA.REPUL>
0

>  <SCORE.INTRA.REPUL.0>
0

>  <SCORE.INTRA.SOLV>
0

>  <SCORE.INTRA.SOLV.lig_0>
-48.3454

>  <SCORE.INTRA.VDW>
0

>  <SCORE.INTRA.VDW.0>
0

>  <SCORE.INTRA.norm>
0

>  <SCORE.RESTR>
0

>  <SCORE.RESTR.CAVITY>
0

>  <SCORE.RESTR.norm>
0

>  <SCORE.SYSTEM>
0

>  <SCORE.SYSTEM.CONST>
0

>  <SCORE.SYSTEM.DIHEDRAL>
0

>  <SCORE.SYSTEM.SOLV>
0

>  <SCORE.SYSTEM.norm>
0

>  <SCORE.heavy>
11

>  <SCORE.norm>
-0.947569

>  <RMSD>
3.350

$$$$
ligand
 OpenBabel02271912153D
libRbt.so/2013.1/901 2013/11/27
 11 12  0  0  0  0  0  0  0  0999 V2000
  -11.6948  -12.4513    6.2420 N   0  0  0  0  0  0  0  0  0  0  0  0
  -10.8850  -13.5145    6.1121 C   0  0  0  0  0  0  0  0  0  0  0  0
  -10.3266  -13.7793    4.9344 N   0  0  0  0  0  0  0  0  0  0  0  0
  -10.6419  -14.3191    7.1583 N   0  0  0  0  0  0  0  0  0  0  0  0
  -11.2047  -14.0792    8.3519 C   0  0  0  0  0  0  0  0  0  0  0  0
  -12.0466  -12.9861    8.5135 C   0  0  0  0  0  0  0  0  0  0  0  0
  -12.2811  -12.1654    7.4152 C   0  0  0  0  0  0  0  0  0  0  0  0
  -13.0726  -11.1028    7.5278 N   0  0  0  0  0  0  0  0  0  0  0  0
  -12.4726  -12.9919    9.7730 N   0  0  0  0  0  0  0  0  0  0  0  0
  -11.9263  -14.0414   10.3829 C   0  0  0  0  0  0  0  0  0  0  0  0
  -11.1550  -14.7049    9.5243 N   0  0  0  0  0  0  0  0  0  0  0  0
  1  7  2  0  0  0  0
  1  2  1  0  0  0  0
  2  3  1  0  0  0  0
  2  4  2  0  0  0  0
  4  5  1  0  0  0  0
  5  6  2  0  0  0  0
  5 11  1  0  0  0  0
  6  7  1  0  0  0  0
  6  9  1  0  0  0  0
  7  8  1  0  0  0  0
  9 10  1  0  0  0  0
 10 11  2  0  0  0  0
M  END
>  <CHROM.1>
-11.60565747,-13.28007876,7.78858589,1.16516789,0.90375936,-1.14071878

>  <Name>
ligand

>  <RI>
0

>  <Rbt.Current_Directory>
/home/itssahil/PROJECTS/Mol_Feturizer/Test_systems_manuscript/rnas/2b57

>  <Rbt.Executable>
rbdock ($Id: //depot/dev/client3/rdock/2013.1/src/exe/rbdock.cxx#4 $)

>  <Rbt.Library>
libRbt.so (2013.1, Build901 2013/11/27)

>  <Rbt.Parameter_File>
/export/apps/rDock/src/rDock_2013.1_src/data/scripts/dock_solv.prm

>  <Rbt.Receptor>
prm/blind_docking_80.prm

>  <SCORE>
-10.3901

>  <SCORE.INTER>
-10.3901

>  <SCORE.INTER.CONST>
1

>  <SCORE.INTER.POLAR>
0

>  <SCORE.INTER.ROT>
0

>  <SCORE.INTER.SOLV>
18.005

>  <SCORE.INTER.VDW>
-16.5284

>  <SCORE.INTER.norm>
-0.944553

>  <SCORE.INTRA>
0

>  <SCORE.INTRA.DIHEDRAL>
0

>  <SCORE.INTRA.DIHEDRAL.0>
0

>  <SCORE.INTRA.POLAR>
0

>  <SCORE.INTRA.POLAR.0>
0

>  <SCORE.INTRA.REPUL>
0

>  <SCORE.INTRA.REPUL.0>
0

>  <SCORE.INTRA.SOLV>
0

>  <SCORE.INTRA.SOLV.lig_0>
-48.3454

>  <SCORE.INTRA.VDW>
0

>  <SCORE.INTRA.VDW.0>
0

>  <SCORE.INTRA.norm>
0

>  <SCORE.RESTR>
0

>  <SCORE.RESTR.CAVITY>
0

>  <SCORE.RESTR.norm>
0

>  <SCORE.SYSTEM>
0

>  <SCORE.SYSTEM.CONST>
0

>  <SCORE.SYSTEM.DIHEDRAL>
0

>  <SCORE.SYSTEM.SOLV>
0

>  <SCORE.SYSTEM.norm>
0

>  <SCORE.heavy>
11

>  <SCORE.norm>
-0.944553

>  <RMSD>
3.350

$$$$
ligand
 OpenBabel02271912153D
libRbt.so/2013.1/901 2013/11/27
 11 12  0  0  0  0  0  0  0  0999 V2000
  -11.6985  -12.4385    6.2354 N   0  0  0  0  0  0  0  0  0  0  0  0
  -10.8888  -13.5014    6.1031 C   0  0  0  0  0  0  0  0  0  0  0  0
  -10.3324  -13.7650    4.9241 N   0  0  0  0  0  0  0  0  0  0  0  0
  -10.6438  -14.3070    7.1480 N   0  0  0  0  0  0  0  0  0  0  0  0
  -11.2045  -14.0683    8.3428 C   0  0  0  0  0  0  0  0  0  0  0  0
  -12.0462  -12.9755    8.5070 C   0  0  0  0  0  0  0  0  0  0  0  0
  -12.2828  -12.1538    7.4099 C   0  0  0  0  0  0  0  0  0  0  0  0
  -13.0742  -11.0915    7.5250 N   0  0  0  0  0  0  0  0  0  0  0  0
  -12.4701  -12.9826    9.7672 N   0  0  0  0  0  0  0  0  0  0  0  0
  -11.9225  -14.0326   10.3752 C   0  0  0  0  0  0  0  0  0  0  0  0
  -11.1526  -14.6952    9.5145 N   0  0  0  0  0  0  0  0  0  0  0  0
  1  7  2  0  0  0  0
  1  2  1  0  0  0  0
  2  3  1  0  0  0  0
  2  4  2  0  0  0  0
  4  5  1  0  0  0  0
  5  6  2  0  0  0  0
  5 11  1  0  0  0  0
  6  7  1  0  0  0  0
  6  9  1  0  0  0  0
  7  8  1  0  0  0  0
  9 10  1  0  0  0  0
 10 11  2  0  0  0  0
M  END
>  <CHROM.1>
-11.60655309,-13.26875009,7.78099535,1.16783318,0.90436782,-1.14183224

>  <Name>
ligand

>  <RI>
0

>  <Rbt.Current_Directory>
/home/itssahil/PROJECTS/Mol_Feturizer/Test_systems_manuscript/rnas/2b57

>  <Rbt.Executable>
rbdock ($Id: //depot/dev/client3/rdock/2013.1/src/exe/rbdock.cxx#4 $)

>  <Rbt.Library>
libRbt.so (2013.1, Build901 2013/11/27)

>  <Rbt.Parameter_File>
/export/apps/rDock/src/rDock_2013.1_src/data/scripts/dock_solv.prm

>  <Rbt.Receptor>
prm/blind_docking_80.prm

>  <SCORE>
-10.3945

>  <SCORE.INTER>
-10.3945

>  <SCORE.INTER.CONST>
1

>  <SCORE.INTER.POLAR>
0

>  <SCORE.INTER.ROT>
0

>  <SCORE.INTER.SOLV>
18.0695

>  <SCORE.INTER.VDW>
-16.5528

>  <SCORE.INTER.norm>
-0.944952

>  <SCORE.INTRA>
0

>  <SCORE.INTRA.DIHEDRAL>
0

>  <SCORE.INTRA.DIHEDRAL.0>
0

>  <SCORE.INTRA.POLAR>
0

>  <SCORE.INTRA.POLAR.0>
0

>  <SCORE.INTRA.REPUL>
0

>  <SCORE.INTRA.REPUL.0>
0

>  <SCORE.INTRA.SOLV>
0

>  <SCORE.INTRA.SOLV.lig_0>
-48.3454

>  <SCORE.INTRA.VDW>
0

>  <SCORE.INTRA.VDW.0>
0

>  <SCORE.INTRA.norm>
0

>  <SCORE.RESTR>
0

>  <SCORE.RESTR.CAVITY>
0

>  <SCORE.RESTR.norm>
0

>  <SCORE.SYSTEM>
0

>  <SCORE.SYSTEM.CONST>
0

>  <SCORE.SYSTEM.DIHEDRAL>
0

>  <SCORE.SYSTEM.SOLV>
0

>  <SCORE.SYSTEM.norm>
0

>  <SCORE.heavy>
11

>  <SCORE.norm>
-0.944952

>  <RMSD>
3.350

$$$$
ligand
 OpenBabel02271912153D
libRbt.so/2013.1/901 2013/11/27
 11 12  0  0  0  0  0  0  0  0999 V2000
  -11.7201  -12.4459    6.2310 N   0  0  0  0  0  0  0  0  0  0  0  0
  -10.9135  -13.5105    6.0938 C   0  0  0  0  0  0  0  0  0  0  0  0
  -10.3649  -13.7754    4.9115 N   0  0  0  0  0  0  0  0  0  0  0  0
  -10.6636  -14.3165    7.1374 N   0  0  0  0  0  0  0  0  0  0  0  0
  -11.2165  -14.0765    8.3356 C   0  0  0  0  0  0  0  0  0  0  0  0
  -12.0549  -12.9820    8.5048 C   0  0  0  0  0  0  0  0  0  0  0  0
  -12.2966  -12.1599    7.4091 C   0  0  0  0  0  0  0  0  0  0  0  0
  -13.0851  -11.0959    7.5289 N   0  0  0  0  0  0  0  0  0  0  0  0
  -12.4710  -12.9881    9.7676 N   0  0  0  0  0  0  0  0  0  0  0  0
  -11.9219  -14.0392   10.3723 C   0  0  0  0  0  0  0  0  0  0  0  0
  -11.1587  -14.7034    9.5070 N   0  0  0  0  0  0  0  0  0  0  0  0
  1  7  2  0  0  0  0
  1  2  1  0  0  0  0
  2  3  1  0  0  0  0
  2  4  2  0  0  0  0
  4  5  1  0  0  0  0
  5  6  2  0  0  0  0
  5 11  1  0  0  0  0
  6  7  1  0  0  0  0
  6  9  1  0  0  0  0
  7  8  1  0  0  0  0
  9 10  1  0  0  0  0
 10 11  2  0  0  0  0
M  END
>  <CHROM.1>
-11.62036624,-13.27618086,7.77614998,1.17556791,0.90877357,-1.14803526

>  <Name>
ligand

>  <RI>
0

>  <Rbt.Current_Directory>
/home/itssahil/PROJECTS/Mol_Feturizer/Test_systems_manuscript/rnas/2b57

>  <Rbt.Executable>
rbdock ($Id: //depot/dev/client3/rdock/2013.1/src/exe/rbdock.cxx#4 $)

>  <Rbt.Library>
libRbt.so (2013.1, Build901 2013/11/27)

>  <Rbt.Parameter_File>
/export/apps/rDock/src/rDock_2013.1_src/data/scripts/dock_solv.prm

>  <Rbt.Receptor>
prm/pocket_docking_3.prm

>  <SCORE>
-10.4259

>  <SCORE.INTER>
-10.4259

>  <SCORE.INTER.CONST>
1

>  <SCORE.INTER.POLAR>
0

>  <SCORE.INTER.ROT>
0

>  <SCORE.INTER.SOLV>
18.1799

>  <SCORE.INTER.VDW>
-16.6106

>  <SCORE.INTER.norm>
-0.947813

>  <SCORE.INTRA>
0

>  <SCORE.INTRA.DIHEDRAL>
0

>  <SCORE.INTRA.DIHEDRAL.0>
0

>  <SCORE.INTRA.POLAR>
0

>  <SCORE.INTRA.POLAR.0>
0

>  <SCORE.INTRA.REPUL>
0

>  <SCORE.INTRA.REPUL.0>
0

>  <SCORE.INTRA.SOLV>
0

>  <SCORE.INTRA.SOLV.lig_0>
-48.3454

>  <SCORE.INTRA.VDW>
0

>  <SCORE.INTRA.VDW.0>
0

>  <SCORE.INTRA.norm>
0

>  <SCORE.RESTR>
0

>  <SCORE.RESTR.CAVITY>
0

>  <SCORE.RESTR.norm>
0

>  <SCORE.SYSTEM>
0

>  <SCORE.SYSTEM.CONST>
0

>  <SCORE.SYSTEM.DIHEDRAL>
0

>  <SCORE.SYSTEM.SOLV>
0

>  <SCORE.SYSTEM.norm>
0

>  <SCORE.heavy>
11

>  <SCORE.norm>
-0.947813

>  <RMSD>
3.350

$$$$
ligand
 OpenBabel02271912153D
libRbt.so/2013.1/901 2013/11/27
 11 12  0  0  0  0  0  0  0  0999 V2000
  -11.7096  -12.4443    6.2307 N   0  0  0  0  0  0  0  0  0  0  0  0
  -10.9055  -13.5107    6.0934 C   0  0  0  0  0  0  0  0  0  0  0  0
  -10.3565  -13.7760    4.9114 N   0  0  0  0  0  0  0  0  0  0  0  0
  -10.6586  -14.3182    7.1365 N   0  0  0  0  0  0  0  0  0  0  0  0
  -11.2121  -14.0779    8.3343 C   0  0  0  0  0  0  0  0  0  0  0  0
  -12.0479  -12.9814    8.5037 C   0  0  0  0  0  0  0  0  0  0  0  0
  -12.2865  -12.1578    7.4084 C   0  0  0  0  0  0  0  0  0  0  0  0
  -13.0725  -11.0920    7.5284 N   0  0  0  0  0  0  0  0  0  0  0  0
  -12.4652  -12.9875    9.7661 N   0  0  0  0  0  0  0  0  0  0  0  0
  -11.9193  -14.0405   10.3704 C   0  0  0  0  0  0  0  0  0  0  0  0
  -11.1569  -14.7059    9.5053 N   0  0  0  0  0  0  0  0  0  0  0  0
  1  7  2  0  0  0  0
  1  2  1  0  0  0  0
  2  3  1  0  0  0  0
  2  4  2  0  0  0  0
  4  5  1  0  0  0  0
  5  6  2  0  0  0  0
  5 11  1  0  0  0  0
  6  7  1  0  0  0  0
  6  9  1  0  0  0  0
  7  8  1  0  0  0  0
  9 10  1  0  0  0  0
 10 11  2  0  0  0  0
M  END
>  <CHROM.1>
-11.61338694,-13.27608479,7.77519598,1.17252225,0.91064496,-1.14479949

>  <Name>
ligand

>  <RI>
0

>  <Rbt.Current_Directory>
/home/itssahil/PROJECTS/Mol_Feturizer/Test_systems_manuscript/rnas/2b57

>  <Rbt.Executable>
rbdock ($Id: //depot/dev/client3/rdock/2013.1/src/exe/rbdock.cxx#4 $)

>  <Rbt.Library>
libRbt.so (2013.1, Build901 2013/11/27)

>  <Rbt.Parameter_File>
/export/apps/rDock/src/rDock_2013.1_src/data/scripts/dock_solv.prm

>  <Rbt.Receptor>
prm/pocket_docking_4.prm

>  <SCORE>
-10.4259

>  <SCORE.INTER>
-10.4259

>  <SCORE.INTER.CONST>
1

>  <SCORE.INTER.POLAR>
0

>  <SCORE.INTER.ROT>
0

>  <SCORE.INTER.SOLV>
18.1782

>  <SCORE.INTER.VDW>
-16.61

>  <SCORE.INTER.norm>
-0.947813

>  <SCORE.INTRA>
0

>  <SCORE.INTRA.DIHEDRAL>
0

>  <SCORE.INTRA.DIHEDRAL.0>
0

>  <SCORE.INTRA.POLAR>
0

>  <SCORE.INTRA.POLAR.0>
0

>  <SCORE.INTRA.REPUL>
0

>  <SCORE.INTRA.REPUL.0>
0

>  <SCORE.INTRA.SOLV>
0

>  <SCORE.INTRA.SOLV.lig_0>
-48.3454

>  <SCORE.INTRA.VDW>
0

>  <SCORE.INTRA.VDW.0>
0

>  <SCORE.INTRA.norm>
0

>  <SCORE.RESTR>
0

>  <SCORE.RESTR.CAVITY>
0

>  <SCORE.RESTR.norm>
0

>  <SCORE.SYSTEM>
0

>  <SCORE.SYSTEM.CONST>
0

>  <SCORE.SYSTEM.DIHEDRAL>
0

>  <SCORE.SYSTEM.SOLV>
0

>  <SCORE.SYSTEM.norm>
0

>  <SCORE.heavy>
11

>  <SCORE.norm>
-0.947813

>  <RMSD>
3.350

$$$$
ligand
 OpenBabel02271912153D
libRbt.so/2013.1/901 2013/11/27
 11 12  0  0  0  0  0  0  0  0999 V2000
  -11.7166  -12.4404    6.2353 N   0  0  0  0  0  0  0  0  0  0  0  0
  -10.9135  -13.5075    6.0973 C   0  0  0  0  0  0  0  0  0  0  0  0
  -10.3663  -13.7737    4.9147 N   0  0  0  0  0  0  0  0  0  0  0  0
  -10.6659  -14.3149    7.1404 N   0  0  0  0  0  0  0  0  0  0  0  0
  -11.2175  -14.0737    8.3389 C   0  0  0  0  0  0  0  0  0  0  0  0
  -12.0522  -12.9765    8.5090 C   0  0  0  0  0  0  0  0  0  0  0  0
  -12.2917  -12.1531    7.4138 C   0  0  0  0  0  0  0  0  0  0  0  0
  -13.0767  -11.0866    7.5344 N   0  0  0  0  0  0  0  0  0  0  0  0
  -12.4678  -12.9818    9.7720 N   0  0  0  0  0  0  0  0  0  0  0  0
  -11.9218  -14.0349   10.3760 C   0  0  0  0  0  0  0  0  0  0  0  0
  -11.1611  -14.7013    9.5101 N   0  0  0  0  0  0  0  0  0  0  0  0
  1  7  2  0  0  0  0
  1  2  1  0  0  0  0
  2  3  1  0  0  0  0
  2  4  2  0  0  0  0
  4  5  1  0  0  0  0
  5  6  2  0  0  0  0
  5 11  1  0  0  0  0
  6  7  1  0  0  0  0
  6  9  1  0  0  0  0
  7  8  1  0  0  0  0
  9 10  1  0  0  0  0
 10 11  2  0  0  0  0
M  END
>  <CHROM.1>
-11.61891576,-13.27175317,7.78003244,1.17402653,0.91192211,-1.14635347

>  <Name>
ligand

>  <RI>
0

>  <Rbt.Current_Directory>
/home/itssahil/PROJECTS/Mol_Feturizer/Test_systems_manuscript/rnas/2b57

>  <Rbt.Executable>
rbdock ($Id: //depot/dev/client3/rdock/2013.1/src/exe/rbdock.cxx#4 $)

>  <Rbt.Library>
libRbt.so (2013.1, Build901 2013/11/27)

>  <Rbt.Parameter_File>
/export/apps/rDock/src/rDock_2013.1_src/data/scripts/dock_solv.prm

>  <Rbt.Receptor>
prm/pocket_docking_4.prm

>  <SCORE>
-10.4268

>  <SCORE.INTER>
-10.4268

>  <SCORE.INTER.CONST>
1

>  <SCORE.INTER.POLAR>
0

>  <SCORE.INTER.ROT>
0

>  <SCORE.INTER.SOLV>
18.1765

>  <SCORE.INTER.VDW>
-16.6101

>  <SCORE.INTER.norm>
-0.947892

>  <SCORE.INTRA>
0

>  <SCORE.INTRA.DIHEDRAL>
0

>  <SCORE.INTRA.DIHEDRAL.0>
0

>  <SCORE.INTRA.POLAR>
0

>  <SCORE.INTRA.POLAR.0>
0

>  <SCORE.INTRA.REPUL>
0

>  <SCORE.INTRA.REPUL.0>
0

>  <SCORE.INTRA.SOLV>
0

>  <SCORE.INTRA.SOLV.lig_0>
-48.3454

>  <SCORE.INTRA.VDW>
0

>  <SCORE.INTRA.VDW.0>
0

>  <SCORE.INTRA.norm>
0

>  <SCORE.RESTR>
0

>  <SCORE.RESTR.CAVITY>
0

>  <SCORE.RESTR.norm>
0

>  <SCORE.SYSTEM>
0

>  <SCORE.SYSTEM.CONST>
0

>  <SCORE.SYSTEM.DIHEDRAL>
0

>  <SCORE.SYSTEM.SOLV>
0

>  <SCORE.SYSTEM.norm>
0

>  <SCORE.heavy>
11

>  <SCORE.norm>
-0.947892

>  <RMSD>
3.350

$$$$
ligand
 OpenBabel02271912153D
libRbt.so/2013.1/901 2013/11/27
 11 12  0  0  0  0  0  0  0  0999 V2000
  -11.7497  -12.4614    6.2372 N   0  0  0  0  0  0  0  0  0  0  0  0
  -10.9530  -13.5332    6.0987 C   0  0  0  0  0  0  0  0  0  0  0  0
  -10.4212  -13.8119    4.9119 N   0  0  0  0  0  0  0  0  0  0  0  0
  -10.6962  -14.3327    7.1456 N   0  0  0  0  0  0  0  0  0  0  0  0
  -11.2323  -14.0788    8.3486 C   0  0  0  0  0  0  0  0  0  0  0  0
  -12.0602  -12.9765    8.5192 C   0  0  0  0  0  0  0  0  0  0  0  0
  -12.3093  -12.1614    7.4200 C   0  0  0  0  0  0  0  0  0  0  0  0
  -13.0881  -11.0905    7.5409 N   0  0  0  0  0  0  0  0  0  0  0  0
  -12.4605  -12.9692    9.7872 N   0  0  0  0  0  0  0  0  0  0  0  0
  -11.9119  -14.0196   10.3936 C   0  0  0  0  0  0  0  0  0  0  0  0
  -11.1646  -14.6966    9.5243 N   0  0  0  0  0  0  0  0  0  0  0  0
  1  7  2  0  0  0  0
  1  2  1  0  0  0  0
  2  3  1  0  0  0  0
  2  4  2  0  0  0  0
  4  5  1  0  0  0  0
  5  6  2  0  0  0  0
  5 11  1  0  0  0  0
  6  7  1  0  0  0  0
  6  9  1  0  0  0  0
  7  8  1  0  0  0  0
  9 10  1  0  0  0  0
 10 11  2  0  0  0  0
M  END
>  <CHROM.1>
-11.63696713,-13.27991233,7.78769733,1.18924555,0.92078838,-1.16699791

>  <Name>
ligand

>  <RI>
0

>  <Rbt.Current_Directory>
/home/itssahil/PROJECTS/Mol_Feturizer/Test_systems_manuscript/rnas/2b57

>  <Rbt.Executable>
rbdock ($Id: //depot/dev/client3/rdock/2013.1/src/exe/rbdock.cxx#4 $)

>  <Rbt.Library>
libRbt.so (2013.1, Build901 2013/11/27)

>  <Rbt.Parameter_File>
/export/apps/rDock/src/rDock_2013.1_src/data/scripts/dock_solv.prm

>  <Rbt.Receptor>
prm/pocket_docking_4.prm

>  <SCORE>
-10.4046

>  <SCORE.INTER>
-10.4046

>  <SCORE.INTER.CONST>
1

>  <SCORE.INTER.POLAR>
0

>  <SCORE.INTER.ROT>
0

>  <SCORE.INTER.SOLV>
18.2772

>  <SCORE.INTER.VDW>
-16.6288

>  <SCORE.INTER.norm>
-0.945874

>  <SCORE.INTRA>
0

>  <SCORE.INTRA.DIHEDRAL>
0

>  <SCORE.INTRA.DIHEDRAL.0>
0

>  <SCORE.INTRA.POLAR>
0

>  <SCORE.INTRA.POLAR.0>
0

>  <SCORE.INTRA.REPUL>
0

>  <SCORE.INTRA.REPUL.0>
0

>  <SCORE.INTRA.SOLV>
0

>  <SCORE.INTRA.SOLV.lig_0>
-48.3454

>  <SCORE.INTRA.VDW>
0

>  <SCORE.INTRA.VDW.0>
0

>  <SCORE.INTRA.norm>
0

>  <SCORE.RESTR>
0

>  <SCORE.RESTR.CAVITY>
0

>  <SCORE.RESTR.norm>
0

>  <SCORE.SYSTEM>
0

>  <SCORE.SYSTEM.CONST>
0

>  <SCORE.SYSTEM.DIHEDRAL>
0

>  <SCORE.SYSTEM.SOLV>
0

>  <SCORE.SYSTEM.norm>
0

>  <SCORE.heavy>
11

>  <SCORE.norm>
-0.945874

>  <RMSD>
3.350

$$$$
ligand
 OpenBabel02271912153D
libRbt.so/2013.1/901 2013/11/27
 11 12  0  0  0  0  0  0  0  0999 V2000
  -11.7186  -12.4439    6.2323 N   0  0  0  0  0  0  0  0  0  0  0  0
  -10.9128  -13.5091    6.0951 C   0  0  0  0  0  0  0  0  0  0  0  0
  -10.3643  -13.7744    4.9128 N   0  0  0  0  0  0  0  0  0  0  0  0
  -10.6637  -14.3154    7.1386 N   0  0  0  0  0  0  0  0  0  0  0  0
  -11.2165  -14.0751    8.3368 C   0  0  0  0  0  0  0  0  0  0  0  0
  -12.0541  -12.9799    8.5060 C   0  0  0  0  0  0  0  0  0  0  0  0
  -12.2950  -12.1575    7.4103 C   0  0  0  0  0  0  0  0  0  0  0  0
  -13.0826  -11.0929    7.5302 N   0  0  0  0  0  0  0  0  0  0  0  0
  -12.4703  -12.9857    9.7688 N   0  0  0  0  0  0  0  0  0  0  0  0
  -11.9221  -14.0373   10.3734 C   0  0  0  0  0  0  0  0  0  0  0  0
  -11.1593  -14.7021    9.5082 N   0  0  0  0  0  0  0  0  0  0  0  0
  1  7  2  0  0  0  0
  1  2  1  0  0  0  0
  2  3  1  0  0  0  0
  2  4  2  0  0  0  0
  4  5  1  0  0  0  0
  5  6  2  0  0  0  0
  5 11  1  0  0  0  0
  6  7  1  0  0  0  0
  6  9  1  0  0  0  0
  7  8  1  0  0  0  0
  9 10  1  0  0  0  0
 10 11  2  0  0  0  0
M  END
>  <CHROM.1>
-11.61964496,-13.27438058,7.77737923,1.17488348,0.90948221,-1.14740846

>  <Name>
ligand

>  <RI>
0

>  <Rbt.Current_Directory>
/home/itssahil/PROJECTS/Mol_Feturizer/Test_systems_manuscript/rnas/2b57

>  <Rbt.Executable>
rbdock ($Id: //depot/dev/client3/rdock/2013.1/src/exe/rbdock.cxx#4 $)

>  <Rbt.Library>
libRbt.so (2013.1, Build901 2013/11/27)

>  <Rbt.Parameter_File>
/export/apps/rDock/src/rDock_2013.1_src/data/scripts/dock_solv.prm

>  <Rbt.Receptor>
prm/pocket_docking_5.prm

>  <SCORE>
-10.4268

>  <SCORE.INTER>
-10.4268

>  <SCORE.INTER.CONST>
1

>  <SCORE.INTER.POLAR>
0

>  <SCORE.INTER.ROT>
0

>  <SCORE.INTER.SOLV>
18.1752

>  <SCORE.INTER.VDW>
-16.6096

>  <SCORE.INTER.norm>
-0.947895

>  <SCORE.INTRA>
0

>  <SCORE.INTRA.DIHEDRAL>
0

>  <SCORE.INTRA.DIHEDRAL.0>
0

>  <SCORE.INTRA.POLAR>
0

>  <SCORE.INTRA.POLAR.0>
0

>  <SCORE.INTRA.REPUL>
0

>  <SCORE.INTRA.REPUL.0>
0

>  <SCORE.INTRA.SOLV>
0

>  <SCORE.INTRA.SOLV.lig_0>
-48.3454

>  <SCORE.INTRA.VDW>
0

>  <SCORE.INTRA.VDW.0>
0

>  <SCORE.INTRA.norm>
0

>  <SCORE.RESTR>
0

>  <SCORE.RESTR.CAVITY>
0

>  <SCORE.RESTR.norm>
0

>  <SCORE.SYSTEM>
0

>  <SCORE.SYSTEM.CONST>
0

>  <SCORE.SYSTEM.DIHEDRAL>
0

>  <SCORE.SYSTEM.SOLV>
0

>  <SCORE.SYSTEM.norm>
0

>  <SCORE.heavy>
11

>  <SCORE.norm>
-0.947895

>  <RMSD>
3.350

$$$$
ligand
 OpenBabel02271912153D
libRbt.so/2013.1/901 2013/11/27
 11 12  0  0  0  0  0  0  0  0999 V2000
  -11.7201  -12.4404    6.2308 N   0  0  0  0  0  0  0  0  0  0  0  0
  -10.9164  -13.5073    6.0944 C   0  0  0  0  0  0  0  0  0  0  0  0
  -10.3703  -13.7759    4.9118 N   0  0  0  0  0  0  0  0  0  0  0  0
  -10.6671  -14.3120    7.1391 N   0  0  0  0  0  0  0  0  0  0  0  0
  -11.2175  -14.0683    8.3377 C   0  0  0  0  0  0  0  0  0  0  0  0
  -12.0528  -12.9712    8.5061 C   0  0  0  0  0  0  0  0  0  0  0  0
  -12.2940  -12.1506    7.4091 C   0  0  0  0  0  0  0  0  0  0  0  0
  -13.0796  -11.0843    7.5281 N   0  0  0  0  0  0  0  0  0  0  0  0
  -12.4670  -12.9738    9.7696 N   0  0  0  0  0  0  0  0  0  0  0  0
  -11.9197  -14.0251   10.3754 C   0  0  0  0  0  0  0  0  0  0  0  0
  -11.1595  -14.6930    9.5103 N   0  0  0  0  0  0  0  0  0  0  0  0
  1  7  2  0  0  0  0
  1  2  1  0  0  0  0
  2  3  1  0  0  0  0
  2  4  2  0  0  0  0
  4  5  1  0  0  0  0
  5  6  2  0  0  0  0
  5 11  1  0  0  0  0
  6  7  1  0  0  0  0
  6  9  1  0  0  0  0
  7  8  1  0  0  0  0
  9 10  1  0  0  0  0
 10 11  2  0  0  0  0
M  END
>  <CHROM.1>
-11.62011529,-13.26794574,7.77733678,1.17611214,0.91178001,-1.15039510

>  <Name>
ligand

>  <RI>
0

>  <Rbt.Current_Directory>
/home/itssahil/PROJECTS/Mol_Feturizer/Test_systems_manuscript/rnas/2b57

>  <Rbt.Executable>
rbdock ($Id: //depot/dev/client3/rdock/2013.1/src/exe/rbdock.cxx#4 $)

>  <Rbt.Library>
libRbt.so (2013.1, Build901 2013/11/27)

>  <Rbt.Parameter_File>
/export/apps/rDock/src/rDock_2013.1_src/data/scripts/dock_solv.prm

>  <Rbt.Receptor>
prm/pocket_docking_5.prm

>  <SCORE>
-10.4213

>  <SCORE.INTER>
-10.4213

>  <SCORE.INTER.CONST>
1

>  <SCORE.INTER.POLAR>
0

>  <SCORE.INTER.ROT>
0

>  <SCORE.INTER.SOLV>
18.1958

>  <SCORE.INTER.VDW>
-16.6128

>  <SCORE.INTER.norm>
-0.947389

>  <SCORE.INTRA>
0

>  <SCORE.INTRA.DIHEDRAL>
0

>  <SCORE.INTRA.DIHEDRAL.0>
0

>  <SCORE.INTRA.POLAR>
0

>  <SCORE.INTRA.POLAR.0>
0

>  <SCORE.INTRA.REPUL>
0

>  <SCORE.INTRA.REPUL.0>
0

>  <SCORE.INTRA.SOLV>
0

>  <SCORE.INTRA.SOLV.lig_0>
-48.3454

>  <SCORE.INTRA.VDW>
0

>  <SCORE.INTRA.VDW.0>
0

>  <SCORE.INTRA.norm>
0

>  <SCORE.RESTR>
0

>  <SCORE.RESTR.CAVITY>
0

>  <SCORE.RESTR.norm>
0

>  <SCORE.SYSTEM>
0

>  <SCORE.SYSTEM.CONST>
0

>  <SCORE.SYSTEM.DIHEDRAL>
0

>  <SCORE.SYSTEM.SOLV>
0

>  <SCORE.SYSTEM.norm>
0

>  <SCORE.heavy>
11

>  <SCORE.norm>
-0.947389

>  <RMSD>
3.350

$$$$
ligand
 OpenBabel02271912153D
libRbt.so/2013.1/901 2013/11/27
 11 12  0  0  0  0  0  0  0  0999 V2000
  -11.7230  -12.4456    6.2296 N   0  0  0  0  0  0  0  0  0  0  0  0
  -10.9167  -13.5106    6.0940 C   0  0  0  0  0  0  0  0  0  0  0  0
  -10.3697  -13.7787    4.9116 N   0  0  0  0  0  0  0  0  0  0  0  0
  -10.6656  -14.3141    7.1393 N   0  0  0  0  0  0  0  0  0  0  0  0
  -11.2168  -14.0710    8.3376 C   0  0  0  0  0  0  0  0  0  0  0  0
  -12.0548  -12.9758    8.5051 C   0  0  0  0  0  0  0  0  0  0  0  0
  -12.2978  -12.1565    7.4077 C   0  0  0  0  0  0  0  0  0  0  0  0
  -13.0860  -11.0921    7.5259 N   0  0  0  0  0  0  0  0  0  0  0  0
  -12.4692  -12.9787    9.7686 N   0  0  0  0  0  0  0  0  0  0  0  0
  -11.9194  -14.0283   10.3752 C   0  0  0  0  0  0  0  0  0  0  0  0
  -11.1574  -14.6949    9.5105 N   0  0  0  0  0  0  0  0  0  0  0  0
  1  7  2  0  0  0  0
  1  2  1  0  0  0  0
  2  3  1  0  0  0  0
  2  4  2  0  0  0  0
  4  5  1  0  0  0  0
  5  6  2  0  0  0  0
  5 11  1  0  0  0  0
  6  7  1  0  0  0  0
  6  9  1  0  0  0  0
  7  8  1  0  0  0  0
  9 10  1  0  0  0  0
 10 11  2  0  0  0  0
M  END
>  <CHROM.1>
-11.62125009,-13.27197758,7.77666802,1.17748276,0.90947354,-1.15208903

>  <Name>
ligand

>  <RI>
0

>  <Rbt.Current_Directory>
/home/itssahil/PROJECTS/Mol_Feturizer/Test_systems_manuscript/rnas/2b57

>  <Rbt.Executable>
rbdock ($Id: //depot/dev/client3/rdock/2013.1/src/exe/rbdock.cxx#4 $)

>  <Rbt.Library>
libRbt.so (2013.1, Build901 2013/11/27)

>  <Rbt.Parameter_File>
/export/apps/rDock/src/rDock_2013.1_src/data/scripts/dock_solv.prm

>  <Rbt.Receptor>
prm/pocket_docking_5.prm

>  <SCORE>
-10.4197

>  <SCORE.INTER>
-10.4197

>  <SCORE.INTER.CONST>
1

>  <SCORE.INTER.POLAR>
0

>  <SCORE.INTER.ROT>
0

>  <SCORE.INTER.SOLV>
18.1875

>  <SCORE.INTER.VDW>
-16.6089

>  <SCORE.INTER.norm>
-0.947243

>  <SCORE.INTRA>
0

>  <SCORE.INTRA.DIHEDRAL>
0

>  <SCORE.INTRA.DIHEDRAL.0>
0

>  <SCORE.INTRA.POLAR>
0

>  <SCORE.INTRA.POLAR.0>
0

>  <SCORE.INTRA.REPUL>
0

>  <SCORE.INTRA.REPUL.0>
0

>  <SCORE.INTRA.SOLV>
0

>  <SCORE.INTRA.SOLV.lig_0>
-48.3454

>  <SCORE.INTRA.VDW>
0

>  <SCORE.INTRA.VDW.0>
0

>  <SCORE.INTRA.norm>
0

>  <SCORE.RESTR>
0

>  <SCORE.RESTR.CAVITY>
0

>  <SCORE.RESTR.norm>
0

>  <SCORE.SYSTEM>
0

>  <SCORE.SYSTEM.CONST>
0

>  <SCORE.SYSTEM.DIHEDRAL>
0

>  <SCORE.SYSTEM.SOLV>
0

>  <SCORE.SYSTEM.norm>
0

>  <SCORE.heavy>
11

>  <SCORE.norm>
-0.947243

>  <RMSD>
3.350

$$$$
ligand
 OpenBabel02271912153D
libRbt.so/2013.1/901 2013/11/27
 11 12  0  0  0  0  0  0  0  0999 V2000
  -11.7278  -12.4601    6.2366 N   0  0  0  0  0  0  0  0  0  0  0  0
  -10.9298  -13.5317    6.1039 C   0  0  0  0  0  0  0  0  0  0  0  0
  -10.3887  -13.8099    4.9212 N   0  0  0  0  0  0  0  0  0  0  0  0
  -10.6810  -14.3315    7.1526 N   0  0  0  0  0  0  0  0  0  0  0  0
  -11.2265  -14.0781    8.3514 C   0  0  0  0  0  0  0  0  0  0  0  0
  -12.0559  -12.9760    8.5159 C   0  0  0  0  0  0  0  0  0  0  0  0
  -12.2966  -12.1607    7.4150 C   0  0  0  0  0  0  0  0  0  0  0  0
  -13.0766  -11.0899    7.5302 N   0  0  0  0  0  0  0  0  0  0  0  0
  -12.4661  -12.9692    9.7807 N   0  0  0  0  0  0  0  0  0  0  0  0
  -11.9220  -14.0197   10.3910 C   0  0  0  0  0  0  0  0  0  0  0  0
  -11.1678  -14.6963    9.5274 N   0  0  0  0  0  0  0  0  0  0  0  0
  1  7  2  0  0  0  0
  1  2  1  0  0  0  0
  2  3  1  0  0  0  0
  2  4  2  0  0  0  0
  4  5  1  0  0  0  0
  5  6  2  0  0  0  0
  5 11  1  0  0  0  0
  6  7  1  0  0  0  0
  6  9  1  0  0  0  0
  7  8  1  0  0  0  0
  9 10  1  0  0  0  0
 10 11  2  0  0  0  0
M  END
>  <CHROM.1>
-11.62696628,-13.27912416,7.78762392,1.17757015,0.91751288,-1.15739477

>  <Name>
ligand

>  <RI>
0

>  <Rbt.Current_Directory>
/home/itssahil/PROJECTS/Mol_Feturizer/Test_systems_manuscript/rnas/2b57

>  <Rbt.Executable>
rbdock ($Id: //depot/dev/client3/rdock/2013.1/src/exe/rbdock.cxx#4 $)

>  <Rbt.Library>
libRbt.so (2013.1, Build901 2013/11/27)

>  <Rbt.Parameter_File>
/export/apps/rDock/src/rDock_2013.1_src/data/scripts/dock_solv.prm

>  <Rbt.Receptor>
prm/pocket_docking_6.prm

>  <SCORE>
-10.3895

>  <SCORE.INTER>
-10.3895

>  <SCORE.INTER.CONST>
1

>  <SCORE.INTER.POLAR>
0

>  <SCORE.INTER.ROT>
0

>  <SCORE.INTER.SOLV>
18.1843

>  <SCORE.INTER.VDW>
-16.5878

>  <SCORE.INTER.norm>
-0.944498

>  <SCORE.INTRA>
0

>  <SCORE.INTRA.DIHEDRAL>
0

>  <SCORE.INTRA.DIHEDRAL.0>
0

>  <SCORE.INTRA.POLAR>
0

>  <SCORE.INTRA.POLAR.0>
0

>  <SCORE.INTRA.REPUL>
0

>  <SCORE.INTRA.REPUL.0>
0

>  <SCORE.INTRA.SOLV>
0

>  <SCORE.INTRA.SOLV.lig_0>
-48.3454

>  <SCORE.INTRA.VDW>
0

>  <SCORE.INTRA.VDW.0>
0

>  <SCORE.INTRA.norm>
0

>  <SCORE.RESTR>
0

>  <SCORE.RESTR.CAVITY>
0

>  <SCORE.RESTR.norm>
0

>  <SCORE.SYSTEM>
0

>  <SCORE.SYSTEM.CONST>
0

>  <SCORE.SYSTEM.DIHEDRAL>
0

>  <SCORE.SYSTEM.SOLV>
0

>  <SCORE.SYSTEM.norm>
0

>  <SCORE.heavy>
11

>  <SCORE.norm>
-0.944498

>  <RMSD>
3.350

$$$$
ligand
 OpenBabel02271912153D
libRbt.so/2013.1/901 2013/11/27
 11 12  0  0  0  0  0  0  0  0999 V2000
  -11.6984  -12.4434    6.2362 N   0  0  0  0  0  0  0  0  0  0  0  0
  -10.8858  -13.5040    6.1044 C   0  0  0  0  0  0  0  0  0  0  0  0
  -10.3274  -13.7659    4.9260 N   0  0  0  0  0  0  0  0  0  0  0  0
  -10.6397  -14.3094    7.1494 N   0  0  0  0  0  0  0  0  0  0  0  0
  -11.2024  -14.0725    8.3436 C   0  0  0  0  0  0  0  0  0  0  0  0
  -12.0471  -12.9820    8.5072 C   0  0  0  0  0  0  0  0  0  0  0  0
  -12.2847  -12.1606    7.4101 C   0  0  0  0  0  0  0  0  0  0  0  0
  -13.0791  -11.1004    7.5247 N   0  0  0  0  0  0  0  0  0  0  0  0
  -12.4723  -12.9906    9.7670 N   0  0  0  0  0  0  0  0  0  0  0  0
  -11.9226  -14.0394   10.3752 C   0  0  0  0  0  0  0  0  0  0  0  0
  -11.1501  -14.6997    9.5152 N   0  0  0  0  0  0  0  0  0  0  0  0
  1  7  2  0  0  0  0
  1  2  1  0  0  0  0
  2  3  1  0  0  0  0
  2  4  2  0  0  0  0
  4  5  1  0  0  0  0
  5  6  2  0  0  0  0
  5 11  1  0  0  0  0
  6  7  1  0  0  0  0
  6  9  1  0  0  0  0
  7  8  1  0  0  0  0
  9 10  1  0  0  0  0
 10 11  2  0  0  0  0
M  END
>  <CHROM.1>
-11.60591585,-13.27383947,7.78161711,1.16805098,0.90151644,-1.14169438

>  <Name>
ligand

>  <RI>
0

>  <Rbt.Current_Directory>
/home/itssahil/PROJECTS/Mol_Feturizer/Test_systems_manuscript/rnas/2b57

>  <Rbt.Executable>
rbdock ($Id: //depot/dev/client3/rdock/2013.1/src/exe/rbdock.cxx#4 $)

>  <Rbt.Library>
libRbt.so (2013.1, Build901 2013/11/27)

>  <Rbt.Parameter_File>
/export/apps/rDock/src/rDock_2013.1_src/data/scripts/dock_solv.prm

>  <Rbt.Receptor>
prm/pocket_docking_7.prm

>  <SCORE>
-10.3948

>  <SCORE.INTER>
-10.3948

>  <SCORE.INTER.CONST>
1

>  <SCORE.INTER.POLAR>
0

>  <SCORE.INTER.ROT>
0

>  <SCORE.INTER.SOLV>
18.044

>  <SCORE.INTER.VDW>
-16.5445

>  <SCORE.INTER.norm>
-0.944985

>  <SCORE.INTRA>
0

>  <SCORE.INTRA.DIHEDRAL>
0

>  <SCORE.INTRA.DIHEDRAL.0>
0

>  <SCORE.INTRA.POLAR>
0

>  <SCORE.INTRA.POLAR.0>
0

>  <SCORE.INTRA.REPUL>
0

>  <SCORE.INTRA.REPUL.0>
0

>  <SCORE.INTRA.SOLV>
0

>  <SCORE.INTRA.SOLV.lig_0>
-48.3454

>  <SCORE.INTRA.VDW>
0

>  <SCORE.INTRA.VDW.0>
0

>  <SCORE.INTRA.norm>
0

>  <SCORE.RESTR>
0

>  <SCORE.RESTR.CAVITY>
0

>  <SCORE.RESTR.norm>
0

>  <SCORE.SYSTEM>
0

>  <SCORE.SYSTEM.CONST>
0

>  <SCORE.SYSTEM.DIHEDRAL>
0

>  <SCORE.SYSTEM.SOLV>
0

>  <SCORE.SYSTEM.norm>
0

>  <SCORE.heavy>
11

>  <SCORE.norm>
-0.944985

>  <RMSD>
3.350

$$$$
ligand
 OpenBabel02271912153D
libRbt.so/2013.1/901 2013/11/27
 11 12  0  0  0  0  0  0  0  0999 V2000
  -11.7128  -12.4629    6.2348 N   0  0  0  0  0  0  0  0  0  0  0  0
  -10.9118  -13.5311    6.0931 C   0  0  0  0  0  0  0  0  0  0  0  0
  -10.3769  -13.8026    4.9060 N   0  0  0  0  0  0  0  0  0  0  0  0
  -10.6539  -14.3342    7.1369 N   0  0  0  0  0  0  0  0  0  0  0  0
  -11.1930  -14.0876    8.3400 C   0  0  0  0  0  0  0  0  0  0  0  0
  -12.0254  -12.9891    8.5140 C   0  0  0  0  0  0  0  0  0  0  0  0
  -12.2756  -12.1702    7.4179 C   0  0  0  0  0  0  0  0  0  0  0  0
  -13.0587  -11.1028    7.5421 N   0  0  0  0  0  0  0  0  0  0  0  0
  -12.4279  -12.9888    9.7813 N   0  0  0  0  0  0  0  0  0  0  0  0
  -11.8764  -14.0398   10.3840 C   0  0  0  0  0  0  0  0  0  0  0  0
  -11.1251  -14.7103    9.5132 N   0  0  0  0  0  0  0  0  0  0  0  0
  1  7  2  0  0  0  0
  1  2  1  0  0  0  0
  2  3  1  0  0  0  0
  2  4  2  0  0  0  0
  4  5  1  0  0  0  0
  5  6  2  0  0  0  0
  5 11  1  0  0  0  0
  6  7  1  0  0  0  0
  6  9  1  0  0  0  0
  7  8  1  0  0  0  0
  9 10  1  0  0  0  0
 10 11  2  0  0  0  0
M  END
>  <CHROM.1>
-11.59975646,-13.28777131,7.78192719,1.18901508,0.91664189,-1.16245317

>  <Name>
ligand

>  <RI>
0

>  <Rbt.Current_Directory>
/home/itssahil/PROJECTS/Mol_Feturizer/Test_systems_manuscript/rnas/2b57

>  <Rbt.Executable>
rbdock ($Id: //depot/dev/client3/rdock/2013.1/src/exe/rbdock.cxx#4 $)

>  <Rbt.Library>
libRbt.so (2013.1, Build901 2013/11/27)

>  <Rbt.Parameter_File>
/export/apps/rDock/src/rDock_2013.1_src/data/scripts/dock_solv.prm

>  <Rbt.Receptor>
prm/pocket_docking_7.prm

>  <SCORE>
-10.3661

>  <SCORE.INTER>
-10.3661

>  <SCORE.INTER.CONST>
1

>  <SCORE.INTER.POLAR>
0

>  <SCORE.INTER.ROT>
0

>  <SCORE.INTER.SOLV>
18.2447

>  <SCORE.INTER.VDW>
-16.5923

>  <SCORE.INTER.norm>
-0.942369

>  <SCORE.INTRA>
0

>  <SCORE.INTRA.DIHEDRAL>
0

>  <SCORE.INTRA.DIHEDRAL.0>
0

>  <SCORE.INTRA.POLAR>
0

>  <SCORE.INTRA.POLAR.0>
0

>  <SCORE.INTRA.REPUL>
0

>  <SCORE.INTRA.REPUL.0>
0

>  <SCORE.INTRA.SOLV>
0

>  <SCORE.INTRA.SOLV.lig_0>
-48.3454

>  <SCORE.INTRA.VDW>
0

>  <SCORE.INTRA.VDW.0>
0

>  <SCORE.INTRA.norm>
0

>  <SCORE.RESTR>
0

>  <SCORE.RESTR.CAVITY>
0

>  <SCORE.RESTR.norm>
0

>  <SCORE.SYSTEM>
0

>  <SCORE.SYSTEM.CONST>
0

>  <SCORE.SYSTEM.DIHEDRAL>
0

>  <SCORE.SYSTEM.SOLV>
0

>  <SCORE.SYSTEM.norm>
0

>  <SCORE.heavy>
11

>  <SCORE.norm>
-0.942369

>  <RMSD>
3.350

$$$$
ligand
 OpenBabel02271912153D
libRbt.so/2013.1/901 2013/11/27
 11 12  0  0  0  0  0  0  0  0999 V2000
  -11.7547  -12.4662    6.2332 N   0  0  0  0  0  0  0  0  0  0  0  0
  -10.9578  -13.5372    6.0905 C   0  0  0  0  0  0  0  0  0  0  0  0
  -10.4282  -13.8128    4.9020 N   0  0  0  0  0  0  0  0  0  0  0  0
  -10.6986  -14.3392    7.1350 N   0  0  0  0  0  0  0  0  0  0  0  0
  -11.2324  -14.0885    8.3396 C   0  0  0  0  0  0  0  0  0  0  0  0
  -12.0604  -12.9870    8.5146 C   0  0  0  0  0  0  0  0  0  0  0  0
  -12.3121  -12.1693    7.4178 C   0  0  0  0  0  0  0  0  0  0  0  0
  -13.0912  -11.0991    7.5429 N   0  0  0  0  0  0  0  0  0  0  0  0
  -12.4582  -12.9829    9.7833 N   0  0  0  0  0  0  0  0  0  0  0  0
  -11.9079  -14.0345   10.3861 C   0  0  0  0  0  0  0  0  0  0  0  0
  -11.1621  -14.7092    9.5137 N   0  0  0  0  0  0  0  0  0  0  0  0
  1  7  2  0  0  0  0
  1  2  1  0  0  0  0
  2  3  1  0  0  0  0
  2  4  2  0  0  0  0
  4  5  1  0  0  0  0
  5  6  2  0  0  0  0
  5 11  1  0  0  0  0
  6  7  1  0  0  0  0
  6  9  1  0  0  0  0
  7  8  1  0  0  0  0
  9 10  1  0  0  0  0
 10 11  2  0  0  0  0
M  END
>  <CHROM.1>
-11.63856043,-13.28840426,7.78147586,1.19255604,0.92114336,-1.16718628

>  <Name>
ligand

>  <RI>
0

>  <Rbt.Current_Directory>
/home/itssahil/PROJECTS/Mol_Feturizer/Test_systems_manuscript/rnas/2b57

>  <Rbt.Executable>
rbdock ($Id: //depot/dev/client3/rdock/2013.1/src/exe/rbdock.cxx#4 $)

>  <Rbt.Library>
libRbt.so (2013.1, Build901 2013/11/27)

>  <Rbt.Parameter_File>
/export/apps/rDock/src/rDock_2013.1_src/data/scripts/dock_solv.prm

>  <Rbt.Receptor>
prm/pocket_docking_8.prm

>  <SCORE>
-10.4045

>  <SCORE.INTER>
-10.4045

>  <SCORE.INTER.CONST>
1

>  <SCORE.INTER.POLAR>
0

>  <SCORE.INTER.ROT>
0

>  <SCORE.INTER.SOLV>
18.3363

>  <SCORE.INTER.VDW>
-16.6484

>  <SCORE.INTER.norm>
-0.945868

>  <SCORE.INTRA>
0

>  <SCORE.INTRA.DIHEDRAL>
0

>  <SCORE.INTRA.DIHEDRAL.0>
0

>  <SCORE.INTRA.POLAR>
0

>  <SCORE.INTRA.POLAR.0>
0

>  <SCORE.INTRA.REPUL>
0

>  <SCORE.INTRA.REPUL.0>
0

>  <SCORE.INTRA.SOLV>
0

>  <SCORE.INTRA.SOLV.lig_0>
-48.3454

>  <SCORE.INTRA.VDW>
0

>  <SCORE.INTRA.VDW.0>
0

>  <SCORE.INTRA.norm>
0

>  <SCORE.RESTR>
0

>  <SCORE.RESTR.CAVITY>
0

>  <SCORE.RESTR.norm>
0

>  <SCORE.SYSTEM>
0

>  <SCORE.SYSTEM.CONST>
0

>  <SCORE.SYSTEM.DIHEDRAL>
0

>  <SCORE.SYSTEM.SOLV>
0

>  <SCORE.SYSTEM.norm>
0

>  <SCORE.heavy>
11

>  <SCORE.norm>
-0.945868

>  <RMSD>
3.351

$$$$
ligand
 OpenBabel02271912153D
libRbt.so/2013.1/901 2013/11/27
 11 12  0  0  0  0  0  0  0  0999 V2000
  -10.6484  -14.3952    7.6892 N   0  0  0  0  0  0  0  0  0  0  0  0
  -10.6243  -13.8037    6.4841 C   0  0  0  0  0  0  0  0  0  0  0  0
   -9.8983  -14.3326    5.5032 N   0  0  0  0  0  0  0  0  0  0  0  0
  -11.3186  -12.6767    6.2629 N   0  0  0  0  0  0  0  0  0  0  0  0
  -12.0468  -12.1181    7.2410 C   0  0  0  0  0  0  0  0  0  0  0  0
  -12.0890  -12.7095    8.4972 C   0  0  0  0  0  0  0  0  0  0  0  0
  -11.3631  -13.8784    8.7012 C   0  0  0  0  0  0  0  0  0  0  0  0
  -11.3829  -14.4830    9.8853 N   0  0  0  0  0  0  0  0  0  0  0  0
  -12.8613  -11.9521    9.2703 N   0  0  0  0  0  0  0  0  0  0  0  0
  -13.2895  -10.9262    8.5381 C   0  0  0  0  0  0  0  0  0  0  0  0
  -12.7980  -11.0225    7.3045 N   0  0  0  0  0  0  0  0  0  0  0  0
  1  7  2  0  0  0  0
  1  2  1  0  0  0  0
  2  3  1  0  0  0  0
  2  4  2  0  0  0  0
  4  5  1  0  0  0  0
  5  6  2  0  0  0  0
  5 11  1  0  0  0  0
  6  7  1  0  0  0  0
  6  9  1  0  0  0  0
  7  8  1  0  0  0  0
  9 10  1  0  0  0  0
 10 11  2  0  0  0  0
M  END
>  <CHROM.1>
-11.65042987,-12.95341737,7.75249376,-0.12668467,-0.91757951,2.05651054

>  <Name>
ligand

>  <RI>
0

>  <Rbt.Current_Directory>
/home/itssahil/PROJECTS/Mol_Feturizer/Test_systems_manuscript/rnas/2b57

>  <Rbt.Executable>
rbdock ($Id: //depot/dev/client3/rdock/2013.1/src/exe/rbdock.cxx#4 $)

>  <Rbt.Library>
libRbt.so (2013.1, Build901 2013/11/27)

>  <Rbt.Parameter_File>
/export/apps/rDock/src/rDock_2013.1_src/data/scripts/dock_solv.prm

>  <Rbt.Receptor>
prm/blind_docking_40.prm

>  <SCORE>
-6.07545

>  <SCORE.INTER>
-6.07545

>  <SCORE.INTER.CONST>
1

>  <SCORE.INTER.POLAR>
0

>  <SCORE.INTER.ROT>
0

>  <SCORE.INTER.SOLV>
21.0905

>  <SCORE.INTER.VDW>
-14.6805

>  <SCORE.INTER.norm>
-0.552314

>  <SCORE.INTRA>
0

>  <SCORE.INTRA.DIHEDRAL>
0

>  <SCORE.INTRA.DIHEDRAL.0>
0

>  <SCORE.INTRA.POLAR>
0

>  <SCORE.INTRA.POLAR.0>
0

>  <SCORE.INTRA.REPUL>
0

>  <SCORE.INTRA.REPUL.0>
0

>  <SCORE.INTRA.SOLV>
0

>  <SCORE.INTRA.SOLV.lig_0>
-48.3454

>  <SCORE.INTRA.VDW>
0

>  <SCORE.INTRA.VDW.0>
0

>  <SCORE.INTRA.norm>
0

>  <SCORE.RESTR>
0

>  <SCORE.RESTR.CAVITY>
0

>  <SCORE.RESTR.norm>
0

>  <SCORE.SYSTEM>
0

>  <SCORE.SYSTEM.CONST>
0

>  <SCORE.SYSTEM.DIHEDRAL>
0

>  <SCORE.SYSTEM.SOLV>
0

>  <SCORE.SYSTEM.norm>
0

>  <SCORE.heavy>
11

>  <SCORE.norm>
-0.552314

>  <RMSD>
3.580

$$$$
ligand
 OpenBabel02271912153D
libRbt.so/2013.1/901 2013/11/27
 11 12  0  0  0  0  0  0  0  0999 V2000
  -12.0245  -11.6183    6.8783 N   0  0  0  0  0  0  0  0  0  0  0  0
  -12.7182  -11.0178    7.8585 C   0  0  0  0  0  0  0  0  0  0  0  0
  -13.2386   -9.8108    7.6554 N   0  0  0  0  0  0  0  0  0  0  0  0
  -12.8829  -11.6206    9.0462 N   0  0  0  0  0  0  0  0  0  0  0  0
  -12.3557  -12.8319    9.2781 C   0  0  0  0  0  0  0  0  0  0  0  0
  -11.6333  -13.4753    8.2811 C   0  0  0  0  0  0  0  0  0  0  0  0
  -11.4785  -12.8314    7.0579 C   0  0  0  0  0  0  0  0  0  0  0  0
  -10.8027  -13.4151    6.0727 N   0  0  0  0  0  0  0  0  0  0  0  0
  -11.2169  -14.6374    8.7752 N   0  0  0  0  0  0  0  0  0  0  0  0
  -11.6548  -14.7272   10.0291 C   0  0  0  0  0  0  0  0  0  0  0  0
  -12.3474  -13.6333   10.3393 N   0  0  0  0  0  0  0  0  0  0  0  0
  1  7  2  0  0  0  0
  1  2  1  0  0  0  0
  2  3  1  0  0  0  0
  2  4  2  0  0  0  0
  4  5  1  0  0  0  0
  5  6  2  0  0  0  0
  5 11  1  0  0  0  0
  6  7  1  0  0  0  0
  6  9  1  0  0  0  0
  7  8  1  0  0  0  0
  9 10  1  0  0  0  0
 10 11  2  0  0  0  0
M  END
>  <CHROM.1>
-12.03656870,-12.67296770,8.28333976,-2.04620096,-1.00014455,2.22236372

>  <Name>
ligand

>  <RI>
0

>  <Rbt.Current_Directory>
/home/itssahil/PROJECTS/Mol_Feturizer/Test_systems_manuscript/rnas/2b57

>  <Rbt.Executable>
rbdock ($Id: //depot/dev/client3/rdock/2013.1/src/exe/rbdock.cxx#4 $)

>  <Rbt.Library>
libRbt.so (2013.1, Build901 2013/11/27)

>  <Rbt.Parameter_File>
/export/apps/rDock/src/rDock_2013.1_src/data/scripts/dock_solv.prm

>  <Rbt.Receptor>
prm/pocket_docking_7.prm

>  <SCORE>
-9.56305

>  <SCORE.INTER>
-9.56305

>  <SCORE.INTER.CONST>
1

>  <SCORE.INTER.POLAR>
0

>  <SCORE.INTER.ROT>
0

>  <SCORE.INTER.SOLV>
15.3022

>  <SCORE.INTER.VDW>
-15.0761

>  <SCORE.INTER.norm>
-0.869368

>  <SCORE.INTRA>
0

>  <SCORE.INTRA.DIHEDRAL>
0

>  <SCORE.INTRA.DIHEDRAL.0>
0

>  <SCORE.INTRA.POLAR>
0

>  <SCORE.INTRA.POLAR.0>
0

>  <SCORE.INTRA.REPUL>
0

>  <SCORE.INTRA.REPUL.0>
0

>  <SCORE.INTRA.SOLV>
0

>  <SCORE.INTRA.SOLV.lig_0>
-48.3454

>  <SCORE.INTRA.VDW>
0

>  <SCORE.INTRA.VDW.0>
0

>  <SCORE.INTRA.norm>
0

>  <SCORE.RESTR>
0

>  <SCORE.RESTR.CAVITY>
0

>  <SCORE.RESTR.norm>
0

>  <SCORE.SYSTEM>
0

>  <SCORE.SYSTEM.CONST>
0

>  <SCORE.SYSTEM.DIHEDRAL>
0

>  <SCORE.SYSTEM.SOLV>
0

>  <SCORE.SYSTEM.norm>
0

>  <SCORE.heavy>
11

>  <SCORE.norm>
-0.869368

>  <RMSD>
3.710

$$$$
ligand
 OpenBabel02271912153D
libRbt.so/2013.1/901 2013/11/27
 11 12  0  0  0  0  0  0  0  0999 V2000
  -11.6170  -11.6011    6.7840 N   0  0  0  0  0  0  0  0  0  0  0  0
  -12.0702  -10.8636    7.8104 C   0  0  0  0  0  0  0  0  0  0  0  0
  -12.3422   -9.5745    7.6280 N   0  0  0  0  0  0  0  0  0  0  0  0
  -12.2417  -11.4134    9.0226 N   0  0  0  0  0  0  0  0  0  0  0  0
  -11.9611  -12.7080    9.2331 C   0  0  0  0  0  0  0  0  0  0  0  0
  -11.4907  -13.4935    8.1884 C   0  0  0  0  0  0  0  0  0  0  0  0
  -11.3236  -12.9016    6.9408 C   0  0  0  0  0  0  0  0  0  0  0  0
  -10.8849  -13.6189    5.9107 N   0  0  0  0  0  0  0  0  0  0  0  0
  -11.2822  -14.7155    8.6691 N   0  0  0  0  0  0  0  0  0  0  0  0
  -11.6051  -14.7058    9.9605 C   0  0  0  0  0  0  0  0  0  0  0  0
  -12.0185  -13.4889   10.3080 N   0  0  0  0  0  0  0  0  0  0  0  0
  1  7  2  0  0  0  0
  1  2  1  0  0  0  0
  2  3  1  0  0  0  0
  2  4  2  0  0  0  0
  4  5  1  0  0  0  0
  5  6  2  0  0  0  0
  5 11  1  0  0  0  0
  6  7  1  0  0  0  0
  6  9  1  0  0  0  0
  7  8  1  0  0  0  0
  9 10  1  0  0  0  0
 10 11  2  0  0  0  0
M  END
>  <CHROM.1>
-11.71401630,-12.62395917,8.20917685,-1.89726259,-1.22517857,2.34261885

>  <Name>
ligand

>  <RI>
0

>  <Rbt.Current_Directory>
/home/itssahil/PROJECTS/Mol_Feturizer/Test_systems_manuscript/rnas/2b57

>  <Rbt.Executable>
rbdock ($Id: //depot/dev/client3/rdock/2013.1/src/exe/rbdock.cxx#4 $)

>  <Rbt.Library>
libRbt.so (2013.1, Build901 2013/11/27)

>  <Rbt.Parameter_File>
/export/apps/rDock/src/rDock_2013.1_src/data/scripts/dock_solv.prm

>  <Rbt.Receptor>
prm/blind_docking_60.prm

>  <SCORE>
-9.59414

>  <SCORE.INTER>
-9.59414

>  <SCORE.INTER.CONST>
1

>  <SCORE.INTER.POLAR>
0

>  <SCORE.INTER.ROT>
0

>  <SCORE.INTER.SOLV>
18.215

>  <SCORE.INTER.VDW>
-16.0678

>  <SCORE.INTER.norm>
-0.872194

>  <SCORE.INTRA>
0

>  <SCORE.INTRA.DIHEDRAL>
0

>  <SCORE.INTRA.DIHEDRAL.0>
0

>  <SCORE.INTRA.POLAR>
0

>  <SCORE.INTRA.POLAR.0>
0

>  <SCORE.INTRA.REPUL>
0

>  <SCORE.INTRA.REPUL.0>
0

>  <SCORE.INTRA.SOLV>
0

>  <SCORE.INTRA.SOLV.lig_0>
-48.3454

>  <SCORE.INTRA.VDW>
0

>  <SCORE.INTRA.VDW.0>
0

>  <SCORE.INTRA.norm>
0

>  <SCORE.RESTR>
0

>  <SCORE.RESTR.CAVITY>
0

>  <SCORE.RESTR.norm>
0

>  <SCORE.SYSTEM>
0

>  <SCORE.SYSTEM.CONST>
0

>  <SCORE.SYSTEM.DIHEDRAL>
0

>  <SCORE.SYSTEM.SOLV>
0

>  <SCORE.SYSTEM.norm>
0

>  <SCORE.heavy>
11

>  <SCORE.norm>
-0.872194

>  <RMSD>
3.711

$$$$
ligand
 OpenBabel02271912153D
libRbt.so/2013.1/901 2013/11/27
 11 12  0  0  0  0  0  0  0  0999 V2000
  -11.7695  -11.5694    6.8092 N   0  0  0  0  0  0  0  0  0  0  0  0
  -12.3411  -10.8872    7.8145 C   0  0  0  0  0  0  0  0  0  0  0  0
  -12.7407   -9.6338    7.6189 N   0  0  0  0  0  0  0  0  0  0  0  0
  -12.5038  -11.4556    9.0193 N   0  0  0  0  0  0  0  0  0  0  0  0
  -12.0963  -12.7137    9.2434 C   0  0  0  0  0  0  0  0  0  0  0  0
  -11.5018  -13.4417    8.2206 C   0  0  0  0  0  0  0  0  0  0  0  0
  -11.3465  -12.8318    6.9801 C   0  0  0  0  0  0  0  0  0  0  0  0
  -10.7912  -13.4954    5.9705 N   0  0  0  0  0  0  0  0  0  0  0  0
  -11.1848  -14.6361    8.7115 N   0  0  0  0  0  0  0  0  0  0  0  0
  -11.5608  -14.6645    9.9881 C   0  0  0  0  0  0  0  0  0  0  0  0
  -12.1153  -13.4995   10.3162 N   0  0  0  0  0  0  0  0  0  0  0  0
  1  7  2  0  0  0  0
  1  2  1  0  0  0  0
  2  3  1  0  0  0  0
  2  4  2  0  0  0  0
  4  5  1  0  0  0  0
  5  6  2  0  0  0  0
  5 11  1  0  0  0  0
  6  7  1  0  0  0  0
  6  9  1  0  0  0  0
  7  8  1  0  0  0  0
  9 10  1  0  0  0  0
 10 11  2  0  0  0  0
M  END
>  <CHROM.1>
-11.81688366,-12.60091349,8.23058060,-1.99818991,-1.11751713,2.25017857

>  <Name>
ligand

>  <RI>
0

>  <Rbt.Current_Directory>
/home/itssahil/PROJECTS/Mol_Feturizer/Test_systems_manuscript/rnas/2b57

>  <Rbt.Executable>
rbdock ($Id: //depot/dev/client3/rdock/2013.1/src/exe/rbdock.cxx#4 $)

>  <Rbt.Library>
libRbt.so (2013.1, Build901 2013/11/27)

>  <Rbt.Parameter_File>
/export/apps/rDock/src/rDock_2013.1_src/data/scripts/dock_solv.prm

>  <Rbt.Receptor>
prm/pocket_docking_7.prm

>  <SCORE>
-9.63633

>  <SCORE.INTER>
-9.63633

>  <SCORE.INTER.CONST>
1

>  <SCORE.INTER.POLAR>
0

>  <SCORE.INTER.ROT>
0

>  <SCORE.INTER.SOLV>
16.6879

>  <SCORE.INTER.VDW>
-15.5868

>  <SCORE.INTER.norm>
-0.87603

>  <SCORE.INTRA>
0

>  <SCORE.INTRA.DIHEDRAL>
0

>  <SCORE.INTRA.DIHEDRAL.0>
0

>  <SCORE.INTRA.POLAR>
0

>  <SCORE.INTRA.POLAR.0>
0

>  <SCORE.INTRA.REPUL>
0

>  <SCORE.INTRA.REPUL.0>
0

>  <SCORE.INTRA.SOLV>
0

>  <SCORE.INTRA.SOLV.lig_0>
-48.3454

>  <SCORE.INTRA.VDW>
0

>  <SCORE.INTRA.VDW.0>
0

>  <SCORE.INTRA.norm>
0

>  <SCORE.RESTR>
0

>  <SCORE.RESTR.CAVITY>
0

>  <SCORE.RESTR.norm>
0

>  <SCORE.SYSTEM>
0

>  <SCORE.SYSTEM.CONST>
0

>  <SCORE.SYSTEM.DIHEDRAL>
0

>  <SCORE.SYSTEM.SOLV>
0

>  <SCORE.SYSTEM.norm>
0

>  <SCORE.heavy>
11

>  <SCORE.norm>
-0.87603

>  <RMSD>
3.712

$$$$
ligand
 OpenBabel02271912153D
libRbt.so/2013.1/901 2013/11/27
 11 12  0  0  0  0  0  0  0  0999 V2000
  -12.0094  -11.6179    6.8955 N   0  0  0  0  0  0  0  0  0  0  0  0
  -12.7141  -11.0208    7.8699 C   0  0  0  0  0  0  0  0  0  0  0  0
  -13.2358   -9.8149    7.6636 N   0  0  0  0  0  0  0  0  0  0  0  0
  -12.8886  -11.6259    9.0550 N   0  0  0  0  0  0  0  0  0  0  0  0
  -12.3604  -12.8362    9.2901 C   0  0  0  0  0  0  0  0  0  0  0  0
  -11.6267  -13.4760    8.2992 C   0  0  0  0  0  0  0  0  0  0  0  0
  -11.4619  -12.8298    7.0785 C   0  0  0  0  0  0  0  0  0  0  0  0
  -10.7751  -13.4102    6.0989 N   0  0  0  0  0  0  0  0  0  0  0  0
  -11.2120  -14.6378    8.7954 N   0  0  0  0  0  0  0  0  0  0  0  0
  -11.6617  -14.7308   10.0449 C   0  0  0  0  0  0  0  0  0  0  0  0
  -12.3602  -13.6393   10.3501 N   0  0  0  0  0  0  0  0  0  0  0  0
  1  7  2  0  0  0  0
  1  2  1  0  0  0  0
  2  3  1  0  0  0  0
  2  4  2  0  0  0  0
  4  5  1  0  0  0  0
  5  6  2  0  0  0  0
  5 11  1  0  0  0  0
  6  7  1  0  0  0  0
  6  9  1  0  0  0  0
  7  8  1  0  0  0  0
  9 10  1  0  0  0  0
 10 11  2  0  0  0  0
M  END
>  <CHROM.1>
-12.03215965,-12.67482688,8.29871681,-2.03517857,-0.99216528,2.23317705

>  <Name>
ligand

>  <RI>
0

>  <Rbt.Current_Directory>
/home/itssahil/PROJECTS/Mol_Feturizer/Test_systems_manuscript/rnas/2b57

>  <Rbt.Executable>
rbdock ($Id: //depot/dev/client3/rdock/2013.1/src/exe/rbdock.cxx#4 $)

>  <Rbt.Library>
libRbt.so (2013.1, Build901 2013/11/27)

>  <Rbt.Parameter_File>
/export/apps/rDock/src/rDock_2013.1_src/data/scripts/dock_solv.prm

>  <Rbt.Receptor>
prm/pocket_docking_7.prm

>  <SCORE>
-9.53122

>  <SCORE.INTER>
-9.53122

>  <SCORE.INTER.CONST>
1

>  <SCORE.INTER.POLAR>
0

>  <SCORE.INTER.ROT>
0

>  <SCORE.INTER.SOLV>
15.1994

>  <SCORE.INTER.VDW>
-15.0206

>  <SCORE.INTER.norm>
-0.866475

>  <SCORE.INTRA>
0

>  <SCORE.INTRA.DIHEDRAL>
0

>  <SCORE.INTRA.DIHEDRAL.0>
0

>  <SCORE.INTRA.POLAR>
0

>  <SCORE.INTRA.POLAR.0>
0

>  <SCORE.INTRA.REPUL>
0

>  <SCORE.INTRA.REPUL.0>
0

>  <SCORE.INTRA.SOLV>
0

>  <SCORE.INTRA.SOLV.lig_0>
-48.3454

>  <SCORE.INTRA.VDW>
0

>  <SCORE.INTRA.VDW.0>
0

>  <SCORE.INTRA.norm>
0

>  <SCORE.RESTR>
0

>  <SCORE.RESTR.CAVITY>
0

>  <SCORE.RESTR.norm>
0

>  <SCORE.SYSTEM>
0

>  <SCORE.SYSTEM.CONST>
0

>  <SCORE.SYSTEM.DIHEDRAL>
0

>  <SCORE.SYSTEM.SOLV>
0

>  <SCORE.SYSTEM.norm>
0

>  <SCORE.heavy>
11

>  <SCORE.norm>
-0.866475

>  <RMSD>
3.712

$$$$
ligand
 OpenBabel02271912153D
libRbt.so/2013.1/901 2013/11/27
 11 12  0  0  0  0  0  0  0  0999 V2000
  -11.6183  -11.5965    6.7843 N   0  0  0  0  0  0  0  0  0  0  0  0
  -12.0628  -10.8559    7.8122 C   0  0  0  0  0  0  0  0  0  0  0  0
  -12.3372   -9.5676    7.6280 N   0  0  0  0  0  0  0  0  0  0  0  0
  -12.2232  -11.4018    9.0277 N   0  0  0  0  0  0  0  0  0  0  0  0
  -11.9401  -12.6955    9.2399 C   0  0  0  0  0  0  0  0  0  0  0  0
  -11.4785  -13.4842    8.1937 C   0  0  0  0  0  0  0  0  0  0  0  0
  -11.3229  -12.8964    6.9427 C   0  0  0  0  0  0  0  0  0  0  0  0
  -10.8929  -13.6168    5.9111 N   0  0  0  0  0  0  0  0  0  0  0  0
  -11.2650  -14.7046    8.6765 N   0  0  0  0  0  0  0  0  0  0  0  0
  -11.5765  -14.6908    9.9707 C   0  0  0  0  0  0  0  0  0  0  0  0
  -11.9875  -13.4730   10.3179 N   0  0  0  0  0  0  0  0  0  0  0  0
  1  7  2  0  0  0  0
  1  2  1  0  0  0  0
  2  3  1  0  0  0  0
  2  4  2  0  0  0  0
  4  5  1  0  0  0  0
  5  6  2  0  0  0  0
  5 11  1  0  0  0  0
  6  7  1  0  0  0  0
  6  9  1  0  0  0  0
  7  8  1  0  0  0  0
  9 10  1  0  0  0  0
 10 11  2  0  0  0  0
M  END
>  <CHROM.1>
-11.70213755,-12.61476927,8.21355674,-1.91753606,-1.23088206,2.32024437

>  <Name>
ligand

>  <RI>
0

>  <Rbt.Current_Directory>
/home/itssahil/PROJECTS/Mol_Feturizer/Test_systems_manuscript/rnas/2b57

>  <Rbt.Executable>
rbdock ($Id: //depot/dev/client3/rdock/2013.1/src/exe/rbdock.cxx#4 $)

>  <Rbt.Library>
libRbt.so (2013.1, Build901 2013/11/27)

>  <Rbt.Parameter_File>
/export/apps/rDock/src/rDock_2013.1_src/data/scripts/dock_solv.prm

>  <Rbt.Receptor>
prm/pocket_docking_8.prm

>  <SCORE>
-9.61817

>  <SCORE.INTER>
-9.61817

>  <SCORE.INTER.CONST>
1

>  <SCORE.INTER.POLAR>
0

>  <SCORE.INTER.ROT>
0

>  <SCORE.INTER.SOLV>
18.251

>  <SCORE.INTER.VDW>
-16.0958

>  <SCORE.INTER.norm>
-0.874379

>  <SCORE.INTRA>
0

>  <SCORE.INTRA.DIHEDRAL>
0

>  <SCORE.INTRA.DIHEDRAL.0>
0

>  <SCORE.INTRA.POLAR>
0

>  <SCORE.INTRA.POLAR.0>
0

>  <SCORE.INTRA.REPUL>
0

>  <SCORE.INTRA.REPUL.0>
0

>  <SCORE.INTRA.SOLV>
0

>  <SCORE.INTRA.SOLV.lig_0>
-48.3454

>  <SCORE.INTRA.VDW>
0

>  <SCORE.INTRA.VDW.0>
0

>  <SCORE.INTRA.norm>
0

>  <SCORE.RESTR>
0

>  <SCORE.RESTR.CAVITY>
0

>  <SCORE.RESTR.norm>
0

>  <SCORE.SYSTEM>
0

>  <SCORE.SYSTEM.CONST>
0

>  <SCORE.SYSTEM.DIHEDRAL>
0

>  <SCORE.SYSTEM.SOLV>
0

>  <SCORE.SYSTEM.norm>
0

>  <SCORE.heavy>
11

>  <SCORE.norm>
-0.874379

>  <RMSD>
3.713

$$$$
ligand
 OpenBabel02271912153D
libRbt.so/2013.1/901 2013/11/27
 11 12  0  0  0  0  0  0  0  0999 V2000
  -11.6405  -11.6093    6.7635 N   0  0  0  0  0  0  0  0  0  0  0  0
  -12.1064  -10.8714    7.7839 C   0  0  0  0  0  0  0  0  0  0  0  0
  -12.3966   -9.5876    7.5921 N   0  0  0  0  0  0  0  0  0  0  0  0
  -12.2723  -11.4152    8.9995 N   0  0  0  0  0  0  0  0  0  0  0  0
  -11.9736  -12.7041    9.2195 C   0  0  0  0  0  0  0  0  0  0  0  0
  -11.4898  -13.4899    8.1812 C   0  0  0  0  0  0  0  0  0  0  0  0
  -11.3288  -12.9043    6.9298 C   0  0  0  0  0  0  0  0  0  0  0  0
  -10.8777  -13.6223    5.9056 N   0  0  0  0  0  0  0  0  0  0  0  0
  -11.2646  -14.7055    8.6707 N   0  0  0  0  0  0  0  0  0  0  0  0
  -11.5903  -14.6916    9.9614 C   0  0  0  0  0  0  0  0  0  0  0  0
  -12.0219  -13.4784   10.2997 N   0  0  0  0  0  0  0  0  0  0  0  0
  1  7  2  0  0  0  0
  1  2  1  0  0  0  0
  2  3  1  0  0  0  0
  2  4  2  0  0  0  0
  4  5  1  0  0  0  0
  5  6  2  0  0  0  0
  5 11  1  0  0  0  0
  6  7  1  0  0  0  0
  6  9  1  0  0  0  0
  7  8  1  0  0  0  0
  9 10  1  0  0  0  0
 10 11  2  0  0  0  0
M  END
>  <CHROM.1>
-11.72566889,-12.62360407,8.19549443,-1.92191808,-1.21334036,2.31257608

>  <Name>
ligand

>  <RI>
0

>  <Rbt.Current_Directory>
/home/itssahil/PROJECTS/Mol_Feturizer/Test_systems_manuscript/rnas/2b57

>  <Rbt.Executable>
rbdock ($Id: //depot/dev/client3/rdock/2013.1/src/exe/rbdock.cxx#4 $)

>  <Rbt.Library>
libRbt.so (2013.1, Build901 2013/11/27)

>  <Rbt.Parameter_File>
/export/apps/rDock/src/rDock_2013.1_src/data/scripts/dock_solv.prm

>  <Rbt.Receptor>
prm/blind_docking_40.prm

>  <SCORE>
-9.60216

>  <SCORE.INTER>
-9.60216

>  <SCORE.INTER.CONST>
1

>  <SCORE.INTER.POLAR>
0

>  <SCORE.INTER.ROT>
0

>  <SCORE.INTER.SOLV>
18.0344

>  <SCORE.INTER.VDW>
-16.0129

>  <SCORE.INTER.norm>
-0.872924

>  <SCORE.INTRA>
0

>  <SCORE.INTRA.DIHEDRAL>
0

>  <SCORE.INTRA.DIHEDRAL.0>
0

>  <SCORE.INTRA.POLAR>
0

>  <SCORE.INTRA.POLAR.0>
0

>  <SCORE.INTRA.REPUL>
0

>  <SCORE.INTRA.REPUL.0>
0

>  <SCORE.INTRA.SOLV>
0

>  <SCORE.INTRA.SOLV.lig_0>
-48.3454

>  <SCORE.INTRA.VDW>
0

>  <SCORE.INTRA.VDW.0>
0

>  <SCORE.INTRA.norm>
0

>  <SCORE.RESTR>
0

>  <SCORE.RESTR.CAVITY>
0

>  <SCORE.RESTR.norm>
0

>  <SCORE.SYSTEM>
0

>  <SCORE.SYSTEM.CONST>
0

>  <SCORE.SYSTEM.DIHEDRAL>
0

>  <SCORE.SYSTEM.SOLV>
0

>  <SCORE.SYSTEM.norm>
0

>  <SCORE.heavy>
11

>  <SCORE.norm>
-0.872924

>  <RMSD>
3.714

$$$$
ligand
 OpenBabel02271912153D
libRbt.so/2013.1/901 2013/11/27
 11 12  0  0  0  0  0  0  0  0999 V2000
  -11.6200  -11.5876    6.8285 N   0  0  0  0  0  0  0  0  0  0  0  0
  -12.0784  -10.8545    7.8556 C   0  0  0  0  0  0  0  0  0  0  0  0
  -12.3543   -9.5658    7.6760 N   0  0  0  0  0  0  0  0  0  0  0  0
  -12.2512  -11.4081    9.0659 N   0  0  0  0  0  0  0  0  0  0  0  0
  -11.9669  -12.7023    9.2736 C   0  0  0  0  0  0  0  0  0  0  0  0
  -11.4911  -13.4834    8.2281 C   0  0  0  0  0  0  0  0  0  0  0  0
  -11.3228  -12.8876    6.9825 C   0  0  0  0  0  0  0  0  0  0  0  0
  -10.8789  -13.6006    5.9516 N   0  0  0  0  0  0  0  0  0  0  0  0
  -11.2797  -14.7060    8.7060 N   0  0  0  0  0  0  0  0  0  0  0  0
  -11.6060  -14.7009    9.9965 C   0  0  0  0  0  0  0  0  0  0  0  0
  -12.0244  -13.4864   10.3463 N   0  0  0  0  0  0  0  0  0  0  0  0
  1  7  2  0  0  0  0
  1  2  1  0  0  0  0
  2  3  1  0  0  0  0
  2  4  2  0  0  0  0
  4  5  1  0  0  0  0
  5  6  2  0  0  0  0
  5 11  1  0  0  0  0
  6  7  1  0  0  0  0
  6  9  1  0  0  0  0
  7  8  1  0  0  0  0
  9 10  1  0  0  0  0
 10 11  2  0  0  0  0
M  END
>  <CHROM.1>
-11.71736878,-12.61469499,8.25055517,-1.89866236,-1.22094849,2.34401436

>  <Name>
ligand

>  <RI>
0

>  <Rbt.Current_Directory>
/home/itssahil/PROJECTS/Mol_Feturizer/Test_systems_manuscript/rnas/2b57

>  <Rbt.Executable>
rbdock ($Id: //depot/dev/client3/rdock/2013.1/src/exe/rbdock.cxx#4 $)

>  <Rbt.Library>
libRbt.so (2013.1, Build901 2013/11/27)

>  <Rbt.Parameter_File>
/export/apps/rDock/src/rDock_2013.1_src/data/scripts/dock_solv.prm

>  <Rbt.Receptor>
prm/blind_docking_60.prm

>  <SCORE>
-9.57699

>  <SCORE.INTER>
-9.57699

>  <SCORE.INTER.CONST>
1

>  <SCORE.INTER.POLAR>
0

>  <SCORE.INTER.ROT>
0

>  <SCORE.INTER.SOLV>
18.0987

>  <SCORE.INTER.VDW>
-16.0176

>  <SCORE.INTER.norm>
-0.870635

>  <SCORE.INTRA>
0

>  <SCORE.INTRA.DIHEDRAL>
0

>  <SCORE.INTRA.DIHEDRAL.0>
0

>  <SCORE.INTRA.POLAR>
0

>  <SCORE.INTRA.POLAR.0>
0

>  <SCORE.INTRA.REPUL>
0

>  <SCORE.INTRA.REPUL.0>
0

>  <SCORE.INTRA.SOLV>
0

>  <SCORE.INTRA.SOLV.lig_0>
-48.3454

>  <SCORE.INTRA.VDW>
0

>  <SCORE.INTRA.VDW.0>
0

>  <SCORE.INTRA.norm>
0

>  <SCORE.RESTR>
0

>  <SCORE.RESTR.CAVITY>
0

>  <SCORE.RESTR.norm>
0

>  <SCORE.SYSTEM>
0

>  <SCORE.SYSTEM.CONST>
0

>  <SCORE.SYSTEM.DIHEDRAL>
0

>  <SCORE.SYSTEM.SOLV>
0

>  <SCORE.SYSTEM.norm>
0

>  <SCORE.heavy>
11

>  <SCORE.norm>
-0.870635

>  <RMSD>
3.715

$$$$
ligand
 OpenBabel02271912153D
libRbt.so/2013.1/901 2013/11/27
 11 12  0  0  0  0  0  0  0  0999 V2000
  -11.6369  -11.6102    6.7638 N   0  0  0  0  0  0  0  0  0  0  0  0
  -12.1025  -10.8720    7.7841 C   0  0  0  0  0  0  0  0  0  0  0  0
  -12.3949   -9.5889    7.5915 N   0  0  0  0  0  0  0  0  0  0  0  0
  -12.2661  -11.4150    9.0005 N   0  0  0  0  0  0  0  0  0  0  0  0
  -11.9652  -12.7032    9.2213 C   0  0  0  0  0  0  0  0  0  0  0  0
  -11.4816  -13.4893    8.1830 C   0  0  0  0  0  0  0  0  0  0  0  0
  -11.3230  -12.9046    6.9309 C   0  0  0  0  0  0  0  0  0  0  0  0
  -10.8722  -13.6229    5.9067 N   0  0  0  0  0  0  0  0  0  0  0  0
  -11.2539  -14.7041    8.6734 N   0  0  0  0  0  0  0  0  0  0  0  0
  -11.5779  -14.6894    9.9644 C   0  0  0  0  0  0  0  0  0  0  0  0
  -12.0109  -13.4766   10.3022 N   0  0  0  0  0  0  0  0  0  0  0  0
  1  7  2  0  0  0  0
  1  2  1  0  0  0  0
  2  3  1  0  0  0  0
  2  4  2  0  0  0  0
  4  5  1  0  0  0  0
  5  6  2  0  0  0  0
  5 11  1  0  0  0  0
  6  7  1  0  0  0  0
  6  9  1  0  0  0  0
  7  8  1  0  0  0  0
  9 10  1  0  0  0  0
 10 11  2  0  0  0  0
M  END
>  <CHROM.1>
-11.71868997,-12.62332130,8.19683459,-1.92750283,-1.21311641,2.30641260

>  <Name>
ligand

>  <RI>
0

>  <Rbt.Current_Directory>
/home/itssahil/PROJECTS/Mol_Feturizer/Test_systems_manuscript/rnas/2b57

>  <Rbt.Executable>
rbdock ($Id: //depot/dev/client3/rdock/2013.1/src/exe/rbdock.cxx#4 $)

>  <Rbt.Library>
libRbt.so (2013.1, Build901 2013/11/27)

>  <Rbt.Parameter_File>
/export/apps/rDock/src/rDock_2013.1_src/data/scripts/dock_solv.prm

>  <Rbt.Receptor>
prm/pocket_docking_5.prm

>  <SCORE>
-9.60071

>  <SCORE.INTER>
-9.60071

>  <SCORE.INTER.CONST>
1

>  <SCORE.INTER.POLAR>
0

>  <SCORE.INTER.ROT>
0

>  <SCORE.INTER.SOLV>
18.0205

>  <SCORE.INTER.VDW>
-16.0073

>  <SCORE.INTER.norm>
-0.872792

>  <SCORE.INTRA>
0

>  <SCORE.INTRA.DIHEDRAL>
0

>  <SCORE.INTRA.DIHEDRAL.0>
0

>  <SCORE.INTRA.POLAR>
0

>  <SCORE.INTRA.POLAR.0>
0

>  <SCORE.INTRA.REPUL>
0

>  <SCORE.INTRA.REPUL.0>
0

>  <SCORE.INTRA.SOLV>
0

>  <SCORE.INTRA.SOLV.lig_0>
-48.3454

>  <SCORE.INTRA.VDW>
0

>  <SCORE.INTRA.VDW.0>
0

>  <SCORE.INTRA.norm>
0

>  <SCORE.RESTR>
0

>  <SCORE.RESTR.CAVITY>
0

>  <SCORE.RESTR.norm>
0

>  <SCORE.SYSTEM>
0

>  <SCORE.SYSTEM.CONST>
0

>  <SCORE.SYSTEM.DIHEDRAL>
0

>  <SCORE.SYSTEM.SOLV>
0

>  <SCORE.SYSTEM.norm>
0

>  <SCORE.heavy>
11

>  <SCORE.norm>
-0.872792

>  <RMSD>
3.715

$$$$
ligand
 OpenBabel02271912153D
libRbt.so/2013.1/901 2013/11/27
 11 12  0  0  0  0  0  0  0  0999 V2000
  -11.6323  -11.6067    6.7589 N   0  0  0  0  0  0  0  0  0  0  0  0
  -12.1002  -10.8686    7.7781 C   0  0  0  0  0  0  0  0  0  0  0  0
  -12.3893   -9.5847    7.5856 N   0  0  0  0  0  0  0  0  0  0  0  0
  -12.2694  -11.4123    8.9933 N   0  0  0  0  0  0  0  0  0  0  0  0
  -11.9719  -12.7014    9.2140 C   0  0  0  0  0  0  0  0  0  0  0  0
  -11.4860  -13.4874    8.1769 C   0  0  0  0  0  0  0  0  0  0  0  0
  -11.3216  -12.9019    6.9259 C   0  0  0  0  0  0  0  0  0  0  0  0
  -10.8684  -13.6201    5.9027 N   0  0  0  0  0  0  0  0  0  0  0  0
  -11.2626  -14.7031    8.6669 N   0  0  0  0  0  0  0  0  0  0  0  0
  -11.5914  -14.6891    9.9568 C   0  0  0  0  0  0  0  0  0  0  0  0
  -12.0232  -13.4757   10.2941 N   0  0  0  0  0  0  0  0  0  0  0  0
  1  7  2  0  0  0  0
  1  2  1  0  0  0  0
  2  3  1  0  0  0  0
  2  4  2  0  0  0  0
  4  5  1  0  0  0  0
  5  6  2  0  0  0  0
  5 11  1  0  0  0  0
  6  7  1  0  0  0  0
  6  9  1  0  0  0  0
  7  8  1  0  0  0  0
  9 10  1  0  0  0  0
 10 11  2  0  0  0  0
M  END
>  <CHROM.1>
-11.72142910,-12.62100538,8.19061235,-1.91580207,-1.21206911,2.31832075

>  <Name>
ligand

>  <RI>
0

>  <Rbt.Current_Directory>
/home/itssahil/PROJECTS/Mol_Feturizer/Test_systems_manuscript/rnas/2b57

>  <Rbt.Executable>
rbdock ($Id: //depot/dev/client3/rdock/2013.1/src/exe/rbdock.cxx#4 $)

>  <Rbt.Library>
libRbt.so (2013.1, Build901 2013/11/27)

>  <Rbt.Parameter_File>
/export/apps/rDock/src/rDock_2013.1_src/data/scripts/dock_solv.prm

>  <Rbt.Receptor>
prm/pocket_docking_8.prm

>  <SCORE>
-9.59756

>  <SCORE.INTER>
-9.59756

>  <SCORE.INTER.CONST>
1

>  <SCORE.INTER.POLAR>
0

>  <SCORE.INTER.ROT>
0

>  <SCORE.INTER.SOLV>
18.0397

>  <SCORE.INTER.VDW>
-16.0116

>  <SCORE.INTER.norm>
-0.872506

>  <SCORE.INTRA>
0

>  <SCORE.INTRA.DIHEDRAL>
0

>  <SCORE.INTRA.DIHEDRAL.0>
0

>  <SCORE.INTRA.POLAR>
0

>  <SCORE.INTRA.POLAR.0>
0

>  <SCORE.INTRA.REPUL>
0

>  <SCORE.INTRA.REPUL.0>
0

>  <SCORE.INTRA.SOLV>
0

>  <SCORE.INTRA.SOLV.lig_0>
-48.3454

>  <SCORE.INTRA.VDW>
0

>  <SCORE.INTRA.VDW.0>
0

>  <SCORE.INTRA.norm>
0

>  <SCORE.RESTR>
0

>  <SCORE.RESTR.CAVITY>
0

>  <SCORE.RESTR.norm>
0

>  <SCORE.SYSTEM>
0

>  <SCORE.SYSTEM.CONST>
0

>  <SCORE.SYSTEM.DIHEDRAL>
0

>  <SCORE.SYSTEM.SOLV>
0

>  <SCORE.SYSTEM.norm>
0

>  <SCORE.heavy>
11

>  <SCORE.norm>
-0.872506

>  <RMSD>
3.715

$$$$
ligand
 OpenBabel02271912153D
libRbt.so/2013.1/901 2013/11/27
 11 12  0  0  0  0  0  0  0  0999 V2000
  -11.6361  -11.6079    6.7634 N   0  0  0  0  0  0  0  0  0  0  0  0
  -12.1027  -10.8688    7.7825 C   0  0  0  0  0  0  0  0  0  0  0  0
  -12.3910   -9.5848    7.5895 N   0  0  0  0  0  0  0  0  0  0  0  0
  -12.2714  -11.4117    8.9982 N   0  0  0  0  0  0  0  0  0  0  0  0
  -11.9746  -12.7008    9.2195 C   0  0  0  0  0  0  0  0  0  0  0  0
  -11.4901  -13.4879    8.1824 C   0  0  0  0  0  0  0  0  0  0  0  0
  -11.3263  -12.9032    6.9310 C   0  0  0  0  0  0  0  0  0  0  0  0
  -10.8744  -13.6224    5.9079 N   0  0  0  0  0  0  0  0  0  0  0  0
  -11.2673  -14.7034    8.6731 N   0  0  0  0  0  0  0  0  0  0  0  0
  -11.5950  -14.6883    9.9631 C   0  0  0  0  0  0  0  0  0  0  0  0
  -12.0257  -13.4744   10.3000 N   0  0  0  0  0  0  0  0  0  0  0  0
  1  7  2  0  0  0  0
  1  2  1  0  0  0  0
  2  3  1  0  0  0  0
  2  4  2  0  0  0  0
  4  5  1  0  0  0  0
  5  6  2  0  0  0  0
  5 11  1  0  0  0  0
  6  7  1  0  0  0  0
  6  9  1  0  0  0  0
  7  8  1  0  0  0  0
  9 10  1  0  0  0  0
 10 11  2  0  0  0  0
M  END
>  <CHROM.1>
-11.72491837,-12.62124581,8.19581454,-1.91602499,-1.21315580,2.31749225

>  <Name>
ligand

>  <RI>
0

>  <Rbt.Current_Directory>
/home/itssahil/PROJECTS/Mol_Feturizer/Test_systems_manuscript/rnas/2b57

>  <Rbt.Executable>
rbdock ($Id: //depot/dev/client3/rdock/2013.1/src/exe/rbdock.cxx#4 $)

>  <Rbt.Library>
libRbt.so (2013.1, Build901 2013/11/27)

>  <Rbt.Parameter_File>
/export/apps/rDock/src/rDock_2013.1_src/data/scripts/dock_solv.prm

>  <Rbt.Receptor>
prm/blind_docking_40.prm

>  <SCORE>
-9.60039

>  <SCORE.INTER>
-9.60039

>  <SCORE.INTER.CONST>
1

>  <SCORE.INTER.POLAR>
0

>  <SCORE.INTER.ROT>
0

>  <SCORE.INTER.SOLV>
18.0355

>  <SCORE.INTER.VDW>
-16.0121

>  <SCORE.INTER.norm>
-0.872763

>  <SCORE.INTRA>
0

>  <SCORE.INTRA.DIHEDRAL>
0

>  <SCORE.INTRA.DIHEDRAL.0>
0

>  <SCORE.INTRA.POLAR>
0

>  <SCORE.INTRA.POLAR.0>
0

>  <SCORE.INTRA.REPUL>
0

>  <SCORE.INTRA.REPUL.0>
0

>  <SCORE.INTRA.SOLV>
0

>  <SCORE.INTRA.SOLV.lig_0>
-48.3454

>  <SCORE.INTRA.VDW>
0

>  <SCORE.INTRA.VDW.0>
0

>  <SCORE.INTRA.norm>
0

>  <SCORE.RESTR>
0

>  <SCORE.RESTR.CAVITY>
0

>  <SCORE.RESTR.norm>
0

>  <SCORE.SYSTEM>
0

>  <SCORE.SYSTEM.CONST>
0

>  <SCORE.SYSTEM.DIHEDRAL>
0

>  <SCORE.SYSTEM.SOLV>
0

>  <SCORE.SYSTEM.norm>
0

>  <SCORE.heavy>
11

>  <SCORE.norm>
-0.872763

>  <RMSD>
3.716

$$$$
ligand
 OpenBabel02271912153D
libRbt.so/2013.1/901 2013/11/27
 11 12  0  0  0  0  0  0  0  0999 V2000
  -11.6384  -11.6077    6.7646 N   0  0  0  0  0  0  0  0  0  0  0  0
  -12.1024  -10.8681    7.7846 C   0  0  0  0  0  0  0  0  0  0  0  0
  -12.3922   -9.5845    7.5914 N   0  0  0  0  0  0  0  0  0  0  0  0
  -12.2670  -11.4101    9.0013 N   0  0  0  0  0  0  0  0  0  0  0  0
  -11.9686  -12.6988    9.2227 C   0  0  0  0  0  0  0  0  0  0  0  0
  -11.4868  -13.4864    8.1848 C   0  0  0  0  0  0  0  0  0  0  0  0
  -11.3271  -12.9027    6.9324 C   0  0  0  0  0  0  0  0  0  0  0  0
  -10.8779  -13.6224    5.9085 N   0  0  0  0  0  0  0  0  0  0  0  0
  -11.2616  -14.7014    8.6758 N   0  0  0  0  0  0  0  0  0  0  0  0
  -11.5854  -14.6854    9.9669 C   0  0  0  0  0  0  0  0  0  0  0  0
  -12.0158  -13.4716   10.3041 N   0  0  0  0  0  0  0  0  0  0  0  0
  1  7  2  0  0  0  0
  1  2  1  0  0  0  0
  2  3  1  0  0  0  0
  2  4  2  0  0  0  0
  4  5  1  0  0  0  0
  5  6  2  0  0  0  0
  5 11  1  0  0  0  0
  6  7  1  0  0  0  0
  6  9  1  0  0  0  0
  7  8  1  0  0  0  0
  9 10  1  0  0  0  0
 10 11  2  0  0  0  0
M  END
>  <CHROM.1>
-11.72210037,-12.61995154,8.19820992,-1.92379486,-1.21469114,2.30937349

>  <Name>
ligand

>  <RI>
0

>  <Rbt.Current_Directory>
/home/itssahil/PROJECTS/Mol_Feturizer/Test_systems_manuscript/rnas/2b57

>  <Rbt.Executable>
rbdock ($Id: //depot/dev/client3/rdock/2013.1/src/exe/rbdock.cxx#4 $)

>  <Rbt.Library>
libRbt.so (2013.1, Build901 2013/11/27)

>  <Rbt.Parameter_File>
/export/apps/rDock/src/rDock_2013.1_src/data/scripts/dock_solv.prm

>  <Rbt.Receptor>
prm/pocket_docking_3.prm

>  <SCORE>
-9.60162

>  <SCORE.INTER>
-9.60162

>  <SCORE.INTER.CONST>
1

>  <SCORE.INTER.POLAR>
0

>  <SCORE.INTER.ROT>
0

>  <SCORE.INTER.SOLV>
18.0395

>  <SCORE.INTER.VDW>
-16.0143

>  <SCORE.INTER.norm>
-0.872875

>  <SCORE.INTRA>
0

>  <SCORE.INTRA.DIHEDRAL>
0

>  <SCORE.INTRA.DIHEDRAL.0>
0

>  <SCORE.INTRA.POLAR>
0

>  <SCORE.INTRA.POLAR.0>
0

>  <SCORE.INTRA.REPUL>
0

>  <SCORE.INTRA.REPUL.0>
0

>  <SCORE.INTRA.SOLV>
0

>  <SCORE.INTRA.SOLV.lig_0>
-48.3454

>  <SCORE.INTRA.VDW>
0

>  <SCORE.INTRA.VDW.0>
0

>  <SCORE.INTRA.norm>
0

>  <SCORE.RESTR>
0

>  <SCORE.RESTR.CAVITY>
0

>  <SCORE.RESTR.norm>
0

>  <SCORE.SYSTEM>
0

>  <SCORE.SYSTEM.CONST>
0

>  <SCORE.SYSTEM.DIHEDRAL>
0

>  <SCORE.SYSTEM.SOLV>
0

>  <SCORE.SYSTEM.norm>
0

>  <SCORE.heavy>
11

>  <SCORE.norm>
-0.872875

>  <RMSD>
3.716

$$$$
ligand
 OpenBabel02271912153D
libRbt.so/2013.1/901 2013/11/27
 11 12  0  0  0  0  0  0  0  0999 V2000
  -11.6274  -11.6044    6.7784 N   0  0  0  0  0  0  0  0  0  0  0  0
  -12.0854  -10.8634    7.8001 C   0  0  0  0  0  0  0  0  0  0  0  0
  -12.3742   -9.5795    7.6074 N   0  0  0  0  0  0  0  0  0  0  0  0
  -12.2448  -11.4044    9.0179 N   0  0  0  0  0  0  0  0  0  0  0  0
  -11.9472  -12.6934    9.2387 C   0  0  0  0  0  0  0  0  0  0  0  0
  -11.4715  -13.4823    8.1990 C   0  0  0  0  0  0  0  0  0  0  0  0
  -11.3171  -12.8997    6.9455 C   0  0  0  0  0  0  0  0  0  0  0  0
  -10.8739  -13.6207    5.9199 N   0  0  0  0  0  0  0  0  0  0  0  0
  -11.2456  -14.6973    8.6897 N   0  0  0  0  0  0  0  0  0  0  0  0
  -11.5631  -14.6801    9.9823 C   0  0  0  0  0  0  0  0  0  0  0  0
  -11.9902  -13.4654   10.3208 N   0  0  0  0  0  0  0  0  0  0  0  0
  1  7  2  0  0  0  0
  1  2  1  0  0  0  0
  2  3  1  0  0  0  0
  2  4  2  0  0  0  0
  4  5  1  0  0  0  0
  5  6  2  0  0  0  0
  5 11  1  0  0  0  0
  6  7  1  0  0  0  0
  6  9  1  0  0  0  0
  7  8  1  0  0  0  0
  9 10  1  0  0  0  0
 10 11  2  0  0  0  0
M  END
>  <CHROM.1>
-11.70553160,-12.61553749,8.21298665,-1.93145160,-1.21900888,2.30153166

>  <Name>
ligand

>  <RI>
0

>  <Rbt.Current_Directory>
/home/itssahil/PROJECTS/Mol_Feturizer/Test_systems_manuscript/rnas/2b57

>  <Rbt.Executable>
rbdock ($Id: //depot/dev/client3/rdock/2013.1/src/exe/rbdock.cxx#4 $)

>  <Rbt.Library>
libRbt.so (2013.1, Build901 2013/11/27)

>  <Rbt.Parameter_File>
/export/apps/rDock/src/rDock_2013.1_src/data/scripts/dock_solv.prm

>  <Rbt.Receptor>
prm/pocket_docking_6.prm

>  <SCORE>
-9.5993

>  <SCORE.INTER>
-9.5993

>  <SCORE.INTER.CONST>
1

>  <SCORE.INTER.POLAR>
0

>  <SCORE.INTER.ROT>
0

>  <SCORE.INTER.SOLV>
18.0664

>  <SCORE.INTER.VDW>
-16.0217

>  <SCORE.INTER.norm>
-0.872663

>  <SCORE.INTRA>
0

>  <SCORE.INTRA.DIHEDRAL>
0

>  <SCORE.INTRA.DIHEDRAL.0>
0

>  <SCORE.INTRA.POLAR>
0

>  <SCORE.INTRA.POLAR.0>
0

>  <SCORE.INTRA.REPUL>
0

>  <SCORE.INTRA.REPUL.0>
0

>  <SCORE.INTRA.SOLV>
0

>  <SCORE.INTRA.SOLV.lig_0>
-48.3454

>  <SCORE.INTRA.VDW>
0

>  <SCORE.INTRA.VDW.0>
0

>  <SCORE.INTRA.norm>
0

>  <SCORE.RESTR>
0

>  <SCORE.RESTR.CAVITY>
0

>  <SCORE.RESTR.norm>
0

>  <SCORE.SYSTEM>
0

>  <SCORE.SYSTEM.CONST>
0

>  <SCORE.SYSTEM.DIHEDRAL>
0

>  <SCORE.SYSTEM.SOLV>
0

>  <SCORE.SYSTEM.norm>
0

>  <SCORE.heavy>
11

>  <SCORE.norm>
-0.872663

>  <RMSD>
3.717

$$$$
ligand
 OpenBabel02271912153D
libRbt.so/2013.1/901 2013/11/27
 11 12  0  0  0  0  0  0  0  0999 V2000
  -11.9435  -11.6034    6.9127 N   0  0  0  0  0  0  0  0  0  0  0  0
  -12.6567  -11.0005    7.8773 C   0  0  0  0  0  0  0  0  0  0  0  0
  -13.1596   -9.7874    7.6664 N   0  0  0  0  0  0  0  0  0  0  0  0
  -12.8584  -11.6070    9.0574 N   0  0  0  0  0  0  0  0  0  0  0  0
  -12.3495  -12.8245    9.2972 C   0  0  0  0  0  0  0  0  0  0  0  0
  -11.6077  -13.4706    8.3165 C   0  0  0  0  0  0  0  0  0  0  0  0
  -11.4145  -12.8228    7.1008 C   0  0  0  0  0  0  0  0  0  0  0  0
  -10.7189  -13.4088    6.1308 N   0  0  0  0  0  0  0  0  0  0  0  0
  -11.2160  -14.6390    8.8157 N   0  0  0  0  0  0  0  0  0  0  0  0
  -11.6875  -14.7301   10.0572 C   0  0  0  0  0  0  0  0  0  0  0  0
  -12.3771  -13.6308   10.3545 N   0  0  0  0  0  0  0  0  0  0  0  0
  1  7  2  0  0  0  0
  1  2  1  0  0  0  0
  2  3  1  0  0  0  0
  2  4  2  0  0  0  0
  4  5  1  0  0  0  0
  5  6  2  0  0  0  0
  5 11  1  0  0  0  0
  6  7  1  0  0  0  0
  6  9  1  0  0  0  0
  7  8  1  0  0  0  0
  9 10  1  0  0  0  0
 10 11  2  0  0  0  0
M  END
>  <CHROM.1>
-12.00290541,-12.66429215,8.31194208,-1.99709073,-0.99158305,2.26823642

>  <Name>
ligand

>  <RI>
0

>  <Rbt.Current_Directory>
/home/itssahil/PROJECTS/Mol_Feturizer/Test_systems_manuscript/rnas/2b57

>  <Rbt.Executable>
rbdock ($Id: //depot/dev/client3/rdock/2013.1/src/exe/rbdock.cxx#4 $)

>  <Rbt.Library>
libRbt.so (2013.1, Build901 2013/11/27)

>  <Rbt.Parameter_File>
/export/apps/rDock/src/rDock_2013.1_src/data/scripts/dock_solv.prm

>  <Rbt.Receptor>
prm/blind_docking_40.prm

>  <SCORE>
-9.50302

>  <SCORE.INTER>
-9.50302

>  <SCORE.INTER.CONST>
1

>  <SCORE.INTER.POLAR>
0

>  <SCORE.INTER.ROT>
0

>  <SCORE.INTER.SOLV>
15.2263

>  <SCORE.INTER.VDW>
-15.0108

>  <SCORE.INTER.norm>
-0.863911

>  <SCORE.INTRA>
0

>  <SCORE.INTRA.DIHEDRAL>
0

>  <SCORE.INTRA.DIHEDRAL.0>
0

>  <SCORE.INTRA.POLAR>
0

>  <SCORE.INTRA.POLAR.0>
0

>  <SCORE.INTRA.REPUL>
0

>  <SCORE.INTRA.REPUL.0>
0

>  <SCORE.INTRA.SOLV>
0

>  <SCORE.INTRA.SOLV.lig_0>
-48.3454

>  <SCORE.INTRA.VDW>
0

>  <SCORE.INTRA.VDW.0>
0

>  <SCORE.INTRA.norm>
0

>  <SCORE.RESTR>
0

>  <SCORE.RESTR.CAVITY>
0

>  <SCORE.RESTR.norm>
0

>  <SCORE.SYSTEM>
0

>  <SCORE.SYSTEM.CONST>
0

>  <SCORE.SYSTEM.DIHEDRAL>
0

>  <SCORE.SYSTEM.SOLV>
0

>  <SCORE.SYSTEM.norm>
0

>  <SCORE.heavy>
11

>  <SCORE.norm>
-0.863911

>  <RMSD>
3.718

$$$$
ligand
 OpenBabel02271912153D
libRbt.so/2013.1/901 2013/11/27
 11 12  0  0  0  0  0  0  0  0999 V2000
  -11.9405  -11.6029    6.9100 N   0  0  0  0  0  0  0  0  0  0  0  0
  -12.6464  -10.9943    7.8764 C   0  0  0  0  0  0  0  0  0  0  0  0
  -13.1398   -9.7770    7.6670 N   0  0  0  0  0  0  0  0  0  0  0  0
  -12.8503  -11.5993    9.0568 N   0  0  0  0  0  0  0  0  0  0  0  0
  -12.3509  -12.8211    9.2952 C   0  0  0  0  0  0  0  0  0  0  0  0
  -11.6168  -13.4730    8.3126 C   0  0  0  0  0  0  0  0  0  0  0  0
  -11.4211  -12.8266    7.0966 C   0  0  0  0  0  0  0  0  0  0  0  0
  -10.7327  -13.4181    6.1249 N   0  0  0  0  0  0  0  0  0  0  0  0
  -11.2335  -14.6448    8.8107 N   0  0  0  0  0  0  0  0  0  0  0  0
  -11.7028  -14.7323   10.0533 C   0  0  0  0  0  0  0  0  0  0  0  0
  -12.3827  -13.6273   10.3524 N   0  0  0  0  0  0  0  0  0  0  0  0
  1  7  2  0  0  0  0
  1  2  1  0  0  0  0
  2  3  1  0  0  0  0
  2  4  2  0  0  0  0
  4  5  1  0  0  0  0
  5  6  2  0  0  0  0
  5 11  1  0  0  0  0
  6  7  1  0  0  0  0
  6  9  1  0  0  0  0
  7  8  1  0  0  0  0
  9 10  1  0  0  0  0
 10 11  2  0  0  0  0
M  END
>  <CHROM.1>
-12.00533176,-12.66352803,8.30917158,-1.99063826,-0.99941877,2.27385601

>  <Name>
ligand

>  <RI>
0

>  <Rbt.Current_Directory>
/home/itssahil/PROJECTS/Mol_Feturizer/Test_systems_manuscript/rnas/2b57

>  <Rbt.Executable>
rbdock ($Id: //depot/dev/client3/rdock/2013.1/src/exe/rbdock.cxx#4 $)

>  <Rbt.Library>
libRbt.so (2013.1, Build901 2013/11/27)

>  <Rbt.Parameter_File>
/export/apps/rDock/src/rDock_2013.1_src/data/scripts/dock_solv.prm

>  <Rbt.Receptor>
prm/blind_docking_40.prm

>  <SCORE>
-9.50402

>  <SCORE.INTER>
-9.50402

>  <SCORE.INTER.CONST>
1

>  <SCORE.INTER.POLAR>
0

>  <SCORE.INTER.ROT>
0

>  <SCORE.INTER.SOLV>
15.3002

>  <SCORE.INTER.VDW>
-15.0361

>  <SCORE.INTER.norm>
-0.864002

>  <SCORE.INTRA>
0

>  <SCORE.INTRA.DIHEDRAL>
0

>  <SCORE.INTRA.DIHEDRAL.0>
0

>  <SCORE.INTRA.POLAR>
0

>  <SCORE.INTRA.POLAR.0>
0

>  <SCORE.INTRA.REPUL>
0

>  <SCORE.INTRA.REPUL.0>
0

>  <SCORE.INTRA.SOLV>
0

>  <SCORE.INTRA.SOLV.lig_0>
-48.3454

>  <SCORE.INTRA.VDW>
0

>  <SCORE.INTRA.VDW.0>
0

>  <SCORE.INTRA.norm>
0

>  <SCORE.RESTR>
0

>  <SCORE.RESTR.CAVITY>
0

>  <SCORE.RESTR.norm>
0

>  <SCORE.SYSTEM>
0

>  <SCORE.SYSTEM.CONST>
0

>  <SCORE.SYSTEM.DIHEDRAL>
0

>  <SCORE.SYSTEM.SOLV>
0

>  <SCORE.SYSTEM.norm>
0

>  <SCORE.heavy>
11

>  <SCORE.norm>
-0.864002

>  <RMSD>
3.719

$$$$
ligand
 OpenBabel02271912153D
libRbt.so/2013.1/901 2013/11/27
 11 12  0  0  0  0  0  0  0  0999 V2000
  -11.7299  -11.5553    6.8068 N   0  0  0  0  0  0  0  0  0  0  0  0
  -12.3082  -10.8682    7.8049 C   0  0  0  0  0  0  0  0  0  0  0  0
  -12.6931   -9.6109    7.6048 N   0  0  0  0  0  0  0  0  0  0  0  0
  -12.4923  -11.4357    9.0070 N   0  0  0  0  0  0  0  0  0  0  0  0
  -12.0999  -12.6977    9.2357 C   0  0  0  0  0  0  0  0  0  0  0  0
  -11.4989  -13.4309    8.2204 C   0  0  0  0  0  0  0  0  0  0  0  0
  -11.3213  -12.8218    6.9825 C   0  0  0  0  0  0  0  0  0  0  0  0
  -10.7591  -13.4902    5.9798 N   0  0  0  0  0  0  0  0  0  0  0  0
  -11.1999  -14.6285    8.7147 N   0  0  0  0  0  0  0  0  0  0  0  0
  -11.5930  -14.6540    9.9862 C   0  0  0  0  0  0  0  0  0  0  0  0
  -12.1407  -13.4839   10.3076 N   0  0  0  0  0  0  0  0  0  0  0  0
  1  7  2  0  0  0  0
  1  2  1  0  0  0  0
  2  3  1  0  0  0  0
  2  4  2  0  0  0  0
  4  5  1  0  0  0  0
  5  6  2  0  0  0  0
  5 11  1  0  0  0  0
  6  7  1  0  0  0  0
  6  9  1  0  0  0  0
  7  8  1  0  0  0  0
  9 10  1  0  0  0  0
 10 11  2  0  0  0  0
M  END
>  <CHROM.1>
-11.80599591,-12.58710426,8.22674342,-1.96095884,-1.11635121,2.28423735

>  <Name>
ligand

>  <RI>
0

>  <Rbt.Current_Directory>
/home/itssahil/PROJECTS/Mol_Feturizer/Test_systems_manuscript/rnas/2b57

>  <Rbt.Executable>
rbdock ($Id: //depot/dev/client3/rdock/2013.1/src/exe/rbdock.cxx#4 $)

>  <Rbt.Library>
libRbt.so (2013.1, Build901 2013/11/27)

>  <Rbt.Parameter_File>
/export/apps/rDock/src/rDock_2013.1_src/data/scripts/dock_solv.prm

>  <Rbt.Receptor>
prm/pocket_docking_6.prm

>  <SCORE>
-9.60534

>  <SCORE.INTER>
-9.60534

>  <SCORE.INTER.CONST>
1

>  <SCORE.INTER.POLAR>
0

>  <SCORE.INTER.ROT>
0

>  <SCORE.INTER.SOLV>
16.7743

>  <SCORE.INTER.VDW>
-15.595

>  <SCORE.INTER.norm>
-0.873213

>  <SCORE.INTRA>
0

>  <SCORE.INTRA.DIHEDRAL>
0

>  <SCORE.INTRA.DIHEDRAL.0>
0

>  <SCORE.INTRA.POLAR>
0

>  <SCORE.INTRA.POLAR.0>
0

>  <SCORE.INTRA.REPUL>
0

>  <SCORE.INTRA.REPUL.0>
0

>  <SCORE.INTRA.SOLV>
0

>  <SCORE.INTRA.SOLV.lig_0>
-48.3454

>  <SCORE.INTRA.VDW>
0

>  <SCORE.INTRA.VDW.0>
0

>  <SCORE.INTRA.norm>
0

>  <SCORE.RESTR>
0

>  <SCORE.RESTR.CAVITY>
0

>  <SCORE.RESTR.norm>
0

>  <SCORE.SYSTEM>
0

>  <SCORE.SYSTEM.CONST>
0

>  <SCORE.SYSTEM.DIHEDRAL>
0

>  <SCORE.SYSTEM.SOLV>
0

>  <SCORE.SYSTEM.norm>
0

>  <SCORE.heavy>
11

>  <SCORE.norm>
-0.873213

>  <RMSD>
3.719

$$$$
ligand
 OpenBabel02271912153D
libRbt.so/2013.1/901 2013/11/27
 11 12  0  0  0  0  0  0  0  0999 V2000
  -11.6446  -11.6126    6.7586 N   0  0  0  0  0  0  0  0  0  0  0  0
  -12.0948  -10.8654    7.7792 C   0  0  0  0  0  0  0  0  0  0  0  0
  -12.3853   -9.5827    7.5808 N   0  0  0  0  0  0  0  0  0  0  0  0
  -12.2448  -11.3988    9.0016 N   0  0  0  0  0  0  0  0  0  0  0  0
  -11.9454  -12.6864    9.2281 C   0  0  0  0  0  0  0  0  0  0  0  0
  -11.4776  -13.4817    8.1896 C   0  0  0  0  0  0  0  0  0  0  0  0
  -11.3329  -12.9068    6.9314 C   0  0  0  0  0  0  0  0  0  0  0  0
  -10.8974  -13.6341    5.9069 N   0  0  0  0  0  0  0  0  0  0  0  0
  -11.2478  -14.6936    8.6861 N   0  0  0  0  0  0  0  0  0  0  0  0
  -11.5554  -14.6684    9.9809 C   0  0  0  0  0  0  0  0  0  0  0  0
  -11.9800  -13.4517   10.3152 N   0  0  0  0  0  0  0  0  0  0  0  0
  1  7  2  0  0  0  0
  1  2  1  0  0  0  0
  2  3  1  0  0  0  0
  2  4  2  0  0  0  0
  4  5  1  0  0  0  0
  5  6  2  0  0  0  0
  5 11  1  0  0  0  0
  6  7  1  0  0  0  0
  6  9  1  0  0  0  0
  7  8  1  0  0  0  0
  9 10  1  0  0  0  0
 10 11  2  0  0  0  0
M  END
>  <CHROM.1>
-11.71160381,-12.61487314,8.20003164,-1.94849417,-1.22397819,2.27934521

>  <Name>
ligand

>  <RI>
0

>  <Rbt.Current_Directory>
/home/itssahil/PROJECTS/Mol_Feturizer/Test_systems_manuscript/rnas/2b57

>  <Rbt.Executable>
rbdock ($Id: //depot/dev/client3/rdock/2013.1/src/exe/rbdock.cxx#4 $)

>  <Rbt.Library>
libRbt.so (2013.1, Build901 2013/11/27)

>  <Rbt.Parameter_File>
/export/apps/rDock/src/rDock_2013.1_src/data/scripts/dock_solv.prm

>  <Rbt.Receptor>
prm/pocket_docking_8.prm

>  <SCORE>
-9.56498

>  <SCORE.INTER>
-9.56498

>  <SCORE.INTER.CONST>
1

>  <SCORE.INTER.POLAR>
0

>  <SCORE.INTER.ROT>
0

>  <SCORE.INTER.SOLV>
18.1044

>  <SCORE.INTER.VDW>
-16.0114

>  <SCORE.INTER.norm>
-0.869543

>  <SCORE.INTRA>
0

>  <SCORE.INTRA.DIHEDRAL>
0

>  <SCORE.INTRA.DIHEDRAL.0>
0

>  <SCORE.INTRA.POLAR>
0

>  <SCORE.INTRA.POLAR.0>
0

>  <SCORE.INTRA.REPUL>
0

>  <SCORE.INTRA.REPUL.0>
0

>  <SCORE.INTRA.SOLV>
0

>  <SCORE.INTRA.SOLV.lig_0>
-48.3454

>  <SCORE.INTRA.VDW>
0

>  <SCORE.INTRA.VDW.0>
0

>  <SCORE.INTRA.norm>
0

>  <SCORE.RESTR>
0

>  <SCORE.RESTR.CAVITY>
0

>  <SCORE.RESTR.norm>
0

>  <SCORE.SYSTEM>
0

>  <SCORE.SYSTEM.CONST>
0

>  <SCORE.SYSTEM.DIHEDRAL>
0

>  <SCORE.SYSTEM.SOLV>
0

>  <SCORE.SYSTEM.norm>
0

>  <SCORE.heavy>
11

>  <SCORE.norm>
-0.869543

>  <RMSD>
3.720

$$$$
ligand
 OpenBabel02271912153D
libRbt.so/2013.1/901 2013/11/27
 11 12  0  0  0  0  0  0  0  0999 V2000
  -11.7602  -11.5481    6.8375 N   0  0  0  0  0  0  0  0  0  0  0  0
  -12.3456  -10.8685    7.8367 C   0  0  0  0  0  0  0  0  0  0  0  0
  -12.7436   -9.6150    7.6384 N   0  0  0  0  0  0  0  0  0  0  0  0
  -12.5237  -11.4396    9.0380 N   0  0  0  0  0  0  0  0  0  0  0  0
  -12.1181  -12.6977    9.2649 C   0  0  0  0  0  0  0  0  0  0  0  0
  -11.5095  -13.4231    8.2485 C   0  0  0  0  0  0  0  0  0  0  0  0
  -11.3384  -12.8105    7.0114 C   0  0  0  0  0  0  0  0  0  0  0  0
  -10.7693  -13.4716    6.0078 N   0  0  0  0  0  0  0  0  0  0  0  0
  -11.1980  -14.6183    8.7410 N   0  0  0  0  0  0  0  0  0  0  0  0
  -11.5907  -14.6497   10.0126 C   0  0  0  0  0  0  0  0  0  0  0  0
  -12.1506  -13.4858   10.3356 N   0  0  0  0  0  0  0  0  0  0  0  0
  1  7  2  0  0  0  0
  1  2  1  0  0  0  0
  2  3  1  0  0  0  0
  2  4  2  0  0  0  0
  4  5  1  0  0  0  0
  5  6  2  0  0  0  0
  5 11  1  0  0  0  0
  6  7  1  0  0  0  0
  6  9  1  0  0  0  0
  7  8  1  0  0  0  0
  9 10  1  0  0  0  0
 10 11  2  0  0  0  0
M  END
>  <CHROM.1>
-11.82544120,-12.58263338,8.25604458,-1.97641596,-1.10847019,2.27179039

>  <Name>
ligand

>  <RI>
0

>  <Rbt.Current_Directory>
/home/itssahil/PROJECTS/Mol_Feturizer/Test_systems_manuscript/rnas/2b57

>  <Rbt.Executable>
rbdock ($Id: //depot/dev/client3/rdock/2013.1/src/exe/rbdock.cxx#4 $)

>  <Rbt.Library>
libRbt.so (2013.1, Build901 2013/11/27)

>  <Rbt.Parameter_File>
/export/apps/rDock/src/rDock_2013.1_src/data/scripts/dock_solv.prm

>  <Rbt.Receptor>
prm/pocket_docking_6.prm

>  <SCORE>
-9.60004

>  <SCORE.INTER>
-9.60004

>  <SCORE.INTER.CONST>
1

>  <SCORE.INTER.POLAR>
0

>  <SCORE.INTER.ROT>
0

>  <SCORE.INTER.SOLV>
16.5842

>  <SCORE.INTER.VDW>
-15.5281

>  <SCORE.INTER.norm>
-0.872731

>  <SCORE.INTRA>
0

>  <SCORE.INTRA.DIHEDRAL>
0

>  <SCORE.INTRA.DIHEDRAL.0>
0

>  <SCORE.INTRA.POLAR>
0

>  <SCORE.INTRA.POLAR.0>
0

>  <SCORE.INTRA.REPUL>
0

>  <SCORE.INTRA.REPUL.0>
0

>  <SCORE.INTRA.SOLV>
0

>  <SCORE.INTRA.SOLV.lig_0>
-48.3454

>  <SCORE.INTRA.VDW>
0

>  <SCORE.INTRA.VDW.0>
0

>  <SCORE.INTRA.norm>
0

>  <SCORE.RESTR>
0

>  <SCORE.RESTR.CAVITY>
0

>  <SCORE.RESTR.norm>
0

>  <SCORE.SYSTEM>
0

>  <SCORE.SYSTEM.CONST>
0

>  <SCORE.SYSTEM.DIHEDRAL>
0

>  <SCORE.SYSTEM.SOLV>
0

>  <SCORE.SYSTEM.norm>
0

>  <SCORE.heavy>
11

>  <SCORE.norm>
-0.872731

>  <RMSD>
3.721

$$$$
ligand
 OpenBabel02271912153D
libRbt.so/2013.1/901 2013/11/27
 11 12  0  0  0  0  0  0  0  0999 V2000
  -11.7438  -11.5741    6.7891 N   0  0  0  0  0  0  0  0  0  0  0  0
  -12.3210  -10.8812    7.7838 C   0  0  0  0  0  0  0  0  0  0  0  0
  -12.7104   -9.6266    7.5754 N   0  0  0  0  0  0  0  0  0  0  0  0
  -12.4996  -11.4401    8.9908 N   0  0  0  0  0  0  0  0  0  0  0  0
  -12.1027  -12.6991    9.2277 C   0  0  0  0  0  0  0  0  0  0  0  0
  -11.5026  -13.4381    8.2161 C   0  0  0  0  0  0  0  0  0  0  0  0
  -11.3307  -12.8380    6.9731 C   0  0  0  0  0  0  0  0  0  0  0  0
  -10.7697  -13.5123    5.9738 N   0  0  0  0  0  0  0  0  0  0  0  0
  -11.1985  -14.6311    8.7185 N   0  0  0  0  0  0  0  0  0  0  0  0
  -11.5875  -14.6481    9.9915 C   0  0  0  0  0  0  0  0  0  0  0  0
  -12.1378  -13.4772   10.3057 N   0  0  0  0  0  0  0  0  0  0  0  0
  1  7  2  0  0  0  0
  1  2  1  0  0  0  0
  2  3  1  0  0  0  0
  2  4  2  0  0  0  0
  4  5  1  0  0  0  0
  5  6  2  0  0  0  0
  5 11  1  0  0  0  0
  6  7  1  0  0  0  0
  6  9  1  0  0  0  0
  7  8  1  0  0  0  0
  9 10  1  0  0  0  0
 10 11  2  0  0  0  0
M  END
>  <CHROM.1>
-11.81229633,-12.59526763,8.21706535,-1.97085811,-1.11609457,2.26775001

>  <Name>
ligand

>  <RI>
0

>  <Rbt.Current_Directory>
/home/itssahil/PROJECTS/Mol_Feturizer/Test_systems_manuscript/rnas/2b57

>  <Rbt.Executable>
rbdock ($Id: //depot/dev/client3/rdock/2013.1/src/exe/rbdock.cxx#4 $)

>  <Rbt.Library>
libRbt.so (2013.1, Build901 2013/11/27)

>  <Rbt.Parameter_File>
/export/apps/rDock/src/rDock_2013.1_src/data/scripts/dock_solv.prm

>  <Rbt.Receptor>
prm/pocket_docking_5.prm

>  <SCORE>
-9.64474

>  <SCORE.INTER>
-9.64474

>  <SCORE.INTER.CONST>
1

>  <SCORE.INTER.POLAR>
0

>  <SCORE.INTER.ROT>
0

>  <SCORE.INTER.SOLV>
16.7455

>  <SCORE.INTER.VDW>
-15.6117

>  <SCORE.INTER.norm>
-0.876795

>  <SCORE.INTRA>
0

>  <SCORE.INTRA.DIHEDRAL>
0

>  <SCORE.INTRA.DIHEDRAL.0>
0

>  <SCORE.INTRA.POLAR>
0

>  <SCORE.INTRA.POLAR.0>
0

>  <SCORE.INTRA.REPUL>
0

>  <SCORE.INTRA.REPUL.0>
0

>  <SCORE.INTRA.SOLV>
0

>  <SCORE.INTRA.SOLV.lig_0>
-48.3454

>  <SCORE.INTRA.VDW>
0

>  <SCORE.INTRA.VDW.0>
0

>  <SCORE.INTRA.norm>
0

>  <SCORE.RESTR>
0

>  <SCORE.RESTR.CAVITY>
0

>  <SCORE.RESTR.norm>
0

>  <SCORE.SYSTEM>
0

>  <SCORE.SYSTEM.CONST>
0

>  <SCORE.SYSTEM.DIHEDRAL>
0

>  <SCORE.SYSTEM.SOLV>
0

>  <SCORE.SYSTEM.norm>
0

>  <SCORE.heavy>
11

>  <SCORE.norm>
-0.876795

>  <RMSD>
3.722

$$$$
ligand
 OpenBabel02271912153D
libRbt.so/2013.1/901 2013/11/27
 11 12  0  0  0  0  0  0  0  0999 V2000
  -11.7075  -11.6162    6.8179 N   0  0  0  0  0  0  0  0  0  0  0  0
  -12.2808  -10.9118    7.8068 C   0  0  0  0  0  0  0  0  0  0  0  0
  -12.6479   -9.6514    7.5929 N   0  0  0  0  0  0  0  0  0  0  0  0
  -12.4778  -11.4651    9.0135 N   0  0  0  0  0  0  0  0  0  0  0  0
  -12.1034  -12.7300    9.2560 C   0  0  0  0  0  0  0  0  0  0  0  0
  -11.5079  -13.4809    8.2505 C   0  0  0  0  0  0  0  0  0  0  0  0
  -11.3167  -12.8863    7.0076 C   0  0  0  0  0  0  0  0  0  0  0  0
  -10.7592  -13.5718    6.0140 N   0  0  0  0  0  0  0  0  0  0  0  0
  -11.2273  -14.6776    8.7576 N   0  0  0  0  0  0  0  0  0  0  0  0
  -11.6262  -14.6856   10.0275 C   0  0  0  0  0  0  0  0  0  0  0  0
  -12.1595  -13.5051   10.3352 N   0  0  0  0  0  0  0  0  0  0  0  0
  1  7  2  0  0  0  0
  1  2  1  0  0  0  0
  2  3  1  0  0  0  0
  2  4  2  0  0  0  0
  4  5  1  0  0  0  0
  5  6  2  0  0  0  0
  5 11  1  0  0  0  0
  6  7  1  0  0  0  0
  6  9  1  0  0  0  0
  7  8  1  0  0  0  0
  9 10  1  0  0  0  0
 10 11  2  0  0  0  0
M  END
>  <CHROM.1>
-11.80366333,-12.63307954,8.24735866,-1.93294281,-1.12351982,2.29981839

>  <Name>
ligand

>  <RI>
0

>  <Rbt.Current_Directory>
/home/itssahil/PROJECTS/Mol_Feturizer/Test_systems_manuscript/rnas/2b57

>  <Rbt.Executable>
rbdock ($Id: //depot/dev/client3/rdock/2013.1/src/exe/rbdock.cxx#4 $)

>  <Rbt.Library>
libRbt.so (2013.1, Build901 2013/11/27)

>  <Rbt.Parameter_File>
/export/apps/rDock/src/rDock_2013.1_src/data/scripts/dock_solv.prm

>  <Rbt.Receptor>
prm/blind_docking_40.prm

>  <SCORE>
-9.58289

>  <SCORE.INTER>
-9.58289

>  <SCORE.INTER.CONST>
1

>  <SCORE.INTER.POLAR>
0

>  <SCORE.INTER.ROT>
0

>  <SCORE.INTER.SOLV>
16.8462

>  <SCORE.INTER.VDW>
-15.604

>  <SCORE.INTER.norm>
-0.871172

>  <SCORE.INTRA>
0

>  <SCORE.INTRA.DIHEDRAL>
0

>  <SCORE.INTRA.DIHEDRAL.0>
0

>  <SCORE.INTRA.POLAR>
0

>  <SCORE.INTRA.POLAR.0>
0

>  <SCORE.INTRA.REPUL>
0

>  <SCORE.INTRA.REPUL.0>
0

>  <SCORE.INTRA.SOLV>
0

>  <SCORE.INTRA.SOLV.lig_0>
-48.3454

>  <SCORE.INTRA.VDW>
0

>  <SCORE.INTRA.VDW.0>
0

>  <SCORE.INTRA.norm>
0

>  <SCORE.RESTR>
0

>  <SCORE.RESTR.CAVITY>
0

>  <SCORE.RESTR.norm>
0

>  <SCORE.SYSTEM>
0

>  <SCORE.SYSTEM.CONST>
0

>  <SCORE.SYSTEM.DIHEDRAL>
0

>  <SCORE.SYSTEM.SOLV>
0

>  <SCORE.SYSTEM.norm>
0

>  <SCORE.heavy>
11

>  <SCORE.norm>
-0.871172

>  <RMSD>
3.727

$$$$
ligand
 OpenBabel02271912153D
libRbt.so/2013.1/901 2013/11/27
 11 12  0  0  0  0  0  0  0  0999 V2000
  -11.7462  -11.5971    6.8124 N   0  0  0  0  0  0  0  0  0  0  0  0
  -12.3099  -10.8945    7.8081 C   0  0  0  0  0  0  0  0  0  0  0  0
  -12.6841   -9.6355    7.5984 N   0  0  0  0  0  0  0  0  0  0  0  0
  -12.4900  -11.4482    9.0172 N   0  0  0  0  0  0  0  0  0  0  0  0
  -12.1082  -12.7117    9.2554 C   0  0  0  0  0  0  0  0  0  0  0  0
  -11.5224  -13.4608    8.2428 C   0  0  0  0  0  0  0  0  0  0  0  0
  -11.3486  -12.8658    6.9976 C   0  0  0  0  0  0  0  0  0  0  0  0
  -10.8009  -13.5496    5.9973 N   0  0  0  0  0  0  0  0  0  0  0  0
  -11.2313  -14.6563    8.7467 N   0  0  0  0  0  0  0  0  0  0  0  0
  -11.6145  -14.6653   10.0215 C   0  0  0  0  0  0  0  0  0  0  0  0
  -12.1482  -13.4867   10.3354 N   0  0  0  0  0  0  0  0  0  0  0  0
  1  7  2  0  0  0  0
  1  2  1  0  0  0  0
  2  3  1  0  0  0  0
  2  4  2  0  0  0  0
  4  5  1  0  0  0  0
  5  6  2  0  0  0  0
  5 11  1  0  0  0  0
  6  7  1  0  0  0  0
  6  9  1  0  0  0  0
  7  8  1  0  0  0  0
  9 10  1  0  0  0  0
 10 11  2  0  0  0  0
M  END
>  <CHROM.1>
-11.82120080,-12.61397808,8.24316740,-1.95997209,-1.12892211,2.27516509

>  <Name>
ligand

>  <RI>
0

>  <Rbt.Current_Directory>
/home/itssahil/PROJECTS/Mol_Feturizer/Test_systems_manuscript/rnas/2b57

>  <Rbt.Executable>
rbdock ($Id: //depot/dev/client3/rdock/2013.1/src/exe/rbdock.cxx#4 $)

>  <Rbt.Library>
libRbt.so (2013.1, Build901 2013/11/27)

>  <Rbt.Parameter_File>
/export/apps/rDock/src/rDock_2013.1_src/data/scripts/dock_solv.prm

>  <Rbt.Receptor>
prm/pocket_docking_4.prm

>  <SCORE>
-9.58464

>  <SCORE.INTER>
-9.58464

>  <SCORE.INTER.CONST>
1

>  <SCORE.INTER.POLAR>
0

>  <SCORE.INTER.ROT>
0

>  <SCORE.INTER.SOLV>
16.8202

>  <SCORE.INTER.VDW>
-15.5965

>  <SCORE.INTER.norm>
-0.871331

>  <SCORE.INTRA>
0

>  <SCORE.INTRA.DIHEDRAL>
0

>  <SCORE.INTRA.DIHEDRAL.0>
0

>  <SCORE.INTRA.POLAR>
0

>  <SCORE.INTRA.POLAR.0>
0

>  <SCORE.INTRA.REPUL>
0

>  <SCORE.INTRA.REPUL.0>
0

>  <SCORE.INTRA.SOLV>
0

>  <SCORE.INTRA.SOLV.lig_0>
-48.3454

>  <SCORE.INTRA.VDW>
0

>  <SCORE.INTRA.VDW.0>
0

>  <SCORE.INTRA.norm>
0

>  <SCORE.RESTR>
0

>  <SCORE.RESTR.CAVITY>
0

>  <SCORE.RESTR.norm>
0

>  <SCORE.SYSTEM>
0

>  <SCORE.SYSTEM.CONST>
0

>  <SCORE.SYSTEM.DIHEDRAL>
0

>  <SCORE.SYSTEM.SOLV>
0

>  <SCORE.SYSTEM.norm>
0

>  <SCORE.heavy>
11

>  <SCORE.norm>
-0.871331

>  <RMSD>
3.727

$$$$
ligand
 OpenBabel02271912153D
libRbt.so/2013.1/901 2013/11/27
 11 12  0  0  0  0  0  0  0  0999 V2000
  -11.7073  -11.6025    6.8254 N   0  0  0  0  0  0  0  0  0  0  0  0
  -12.2801  -10.8985    7.8148 C   0  0  0  0  0  0  0  0  0  0  0  0
  -12.6434   -9.6367    7.6028 N   0  0  0  0  0  0  0  0  0  0  0  0
  -12.4803  -11.4536    9.0201 N   0  0  0  0  0  0  0  0  0  0  0  0
  -12.1097  -12.7200    9.2608 C   0  0  0  0  0  0  0  0  0  0  0  0
  -11.5149  -13.4706    8.2546 C   0  0  0  0  0  0  0  0  0  0  0  0
  -11.3203  -12.8741    7.0132 C   0  0  0  0  0  0  0  0  0  0  0  0
  -10.7633  -13.5593    6.0190 N   0  0  0  0  0  0  0  0  0  0  0  0
  -11.2382  -14.6690    8.7598 N   0  0  0  0  0  0  0  0  0  0  0  0
  -11.6389  -14.6783   10.0292 C   0  0  0  0  0  0  0  0  0  0  0  0
  -12.1694  -13.4970   10.3384 N   0  0  0  0  0  0  0  0  0  0  0  0
  1  7  2  0  0  0  0
  1  2  1  0  0  0  0
  2  3  1  0  0  0  0
  2  4  2  0  0  0  0
  4  5  1  0  0  0  0
  5  6  2  0  0  0  0
  5 11  1  0  0  0  0
  6  7  1  0  0  0  0
  6  9  1  0  0  0  0
  7  8  1  0  0  0  0
  9 10  1  0  0  0  0
 10 11  2  0  0  0  0
M  END
>  <CHROM.1>
-11.80829314,-12.62194406,8.25272114,-1.92629516,-1.12464628,2.30774198

>  <Name>
ligand

>  <RI>
0

>  <Rbt.Current_Directory>
/home/itssahil/PROJECTS/Mol_Feturizer/Test_systems_manuscript/rnas/2b57

>  <Rbt.Executable>
rbdock ($Id: //depot/dev/client3/rdock/2013.1/src/exe/rbdock.cxx#4 $)

>  <Rbt.Library>
libRbt.so (2013.1, Build901 2013/11/27)

>  <Rbt.Parameter_File>
/export/apps/rDock/src/rDock_2013.1_src/data/scripts/dock_solv.prm

>  <Rbt.Receptor>
prm/pocket_docking_6.prm

>  <SCORE>
-9.57386

>  <SCORE.INTER>
-9.57386

>  <SCORE.INTER.CONST>
1

>  <SCORE.INTER.POLAR>
0

>  <SCORE.INTER.ROT>
0

>  <SCORE.INTER.SOLV>
16.8611

>  <SCORE.INTER.VDW>
-15.6029

>  <SCORE.INTER.norm>
-0.870351

>  <SCORE.INTRA>
0

>  <SCORE.INTRA.DIHEDRAL>
0

>  <SCORE.INTRA.DIHEDRAL.0>
0

>  <SCORE.INTRA.POLAR>
0

>  <SCORE.INTRA.POLAR.0>
0

>  <SCORE.INTRA.REPUL>
0

>  <SCORE.INTRA.REPUL.0>
0

>  <SCORE.INTRA.SOLV>
0

>  <SCORE.INTRA.SOLV.lig_0>
-48.3454

>  <SCORE.INTRA.VDW>
0

>  <SCORE.INTRA.VDW.0>
0

>  <SCORE.INTRA.norm>
0

>  <SCORE.RESTR>
0

>  <SCORE.RESTR.CAVITY>
0

>  <SCORE.RESTR.norm>
0

>  <SCORE.SYSTEM>
0

>  <SCORE.SYSTEM.CONST>
0

>  <SCORE.SYSTEM.DIHEDRAL>
0

>  <SCORE.SYSTEM.SOLV>
0

>  <SCORE.SYSTEM.norm>
0

>  <SCORE.heavy>
11

>  <SCORE.norm>
-0.870351

>  <RMSD>
3.729

$$$$
ligand
 OpenBabel02271912153D
libRbt.so/2013.1/901 2013/11/27
 11 12  0  0  0  0  0  0  0  0999 V2000
  -11.7716  -11.6015    6.7940 N   0  0  0  0  0  0  0  0  0  0  0  0
  -12.3203  -10.8913    7.7926 C   0  0  0  0  0  0  0  0  0  0  0  0
  -12.6967   -9.6336    7.5793 N   0  0  0  0  0  0  0  0  0  0  0  0
  -12.4834  -11.4362    9.0082 N   0  0  0  0  0  0  0  0  0  0  0  0
  -12.0990  -12.6982    9.2499 C   0  0  0  0  0  0  0  0  0  0  0  0
  -11.5283  -13.4550    8.2344 C   0  0  0  0  0  0  0  0  0  0  0  0
  -11.3722  -12.8691    6.9825 C   0  0  0  0  0  0  0  0  0  0  0  0
  -10.8394  -13.5605    5.9794 N   0  0  0  0  0  0  0  0  0  0  0  0
  -11.2308  -14.6471    8.7426 N   0  0  0  0  0  0  0  0  0  0  0  0
  -11.5956  -14.6466   10.0228 C   0  0  0  0  0  0  0  0  0  0  0  0
  -12.1239  -13.4654   10.3359 N   0  0  0  0  0  0  0  0  0  0  0  0
  1  7  2  0  0  0  0
  1  2  1  0  0  0  0
  2  3  1  0  0  0  0
  2  4  2  0  0  0  0
  4  5  1  0  0  0  0
  5  6  2  0  0  0  0
  5 11  1  0  0  0  0
  6  7  1  0  0  0  0
  6  9  1  0  0  0  0
  7  8  1  0  0  0  0
  9 10  1  0  0  0  0
 10 11  2  0  0  0  0
M  END
>  <CHROM.1>
-11.82654774,-12.60797457,8.23295219,-1.98519898,-1.13863880,2.24511294

>  <Name>
ligand

>  <RI>
0

>  <Rbt.Current_Directory>
/home/itssahil/PROJECTS/Mol_Feturizer/Test_systems_manuscript/rnas/2b57

>  <Rbt.Executable>
rbdock ($Id: //depot/dev/client3/rdock/2013.1/src/exe/rbdock.cxx#4 $)

>  <Rbt.Library>
libRbt.so (2013.1, Build901 2013/11/27)

>  <Rbt.Parameter_File>
/export/apps/rDock/src/rDock_2013.1_src/data/scripts/dock_solv.prm

>  <Rbt.Receptor>
prm/pocket_docking_6.prm

>  <SCORE>
-9.61283

>  <SCORE.INTER>
-9.61283

>  <SCORE.INTER.CONST>
1

>  <SCORE.INTER.POLAR>
0

>  <SCORE.INTER.ROT>
0

>  <SCORE.INTER.SOLV>
16.8786

>  <SCORE.INTER.VDW>
-15.6348

>  <SCORE.INTER.norm>
-0.873893

>  <SCORE.INTRA>
0

>  <SCORE.INTRA.DIHEDRAL>
0

>  <SCORE.INTRA.DIHEDRAL.0>
0

>  <SCORE.INTRA.POLAR>
0

>  <SCORE.INTRA.POLAR.0>
0

>  <SCORE.INTRA.REPUL>
0

>  <SCORE.INTRA.REPUL.0>
0

>  <SCORE.INTRA.SOLV>
0

>  <SCORE.INTRA.SOLV.lig_0>
-48.3454

>  <SCORE.INTRA.VDW>
0

>  <SCORE.INTRA.VDW.0>
0

>  <SCORE.INTRA.norm>
0

>  <SCORE.RESTR>
0

>  <SCORE.RESTR.CAVITY>
0

>  <SCORE.RESTR.norm>
0

>  <SCORE.SYSTEM>
0

>  <SCORE.SYSTEM.CONST>
0

>  <SCORE.SYSTEM.DIHEDRAL>
0

>  <SCORE.SYSTEM.SOLV>
0

>  <SCORE.SYSTEM.norm>
0

>  <SCORE.heavy>
11

>  <SCORE.norm>
-0.873893

>  <RMSD>
3.729

$$$$
ligand
 OpenBabel02271912153D
libRbt.so/2013.1/901 2013/11/27
 11 12  0  0  0  0  0  0  0  0999 V2000
  -11.7566  -11.5919    6.7895 N   0  0  0  0  0  0  0  0  0  0  0  0
  -12.3257  -10.8881    7.7812 C   0  0  0  0  0  0  0  0  0  0  0  0
  -12.7115   -9.6339    7.5638 N   0  0  0  0  0  0  0  0  0  0  0  0
  -12.4998  -11.4356    8.9940 N   0  0  0  0  0  0  0  0  0  0  0  0
  -12.1064  -12.6941    9.2399 C   0  0  0  0  0  0  0  0  0  0  0  0
  -11.5147  -13.4443    8.2316 C   0  0  0  0  0  0  0  0  0  0  0  0
  -11.3474  -12.8558    6.9824 C   0  0  0  0  0  0  0  0  0  0  0  0
  -10.7945  -13.5410    5.9860 N   0  0  0  0  0  0  0  0  0  0  0  0
  -11.2124  -14.6339    8.7428 N   0  0  0  0  0  0  0  0  0  0  0  0
  -11.5944  -14.6382   10.0180 C   0  0  0  0  0  0  0  0  0  0  0  0
  -12.1384  -13.4625   10.3249 N   0  0  0  0  0  0  0  0  0  0  0  0
  1  7  2  0  0  0  0
  1  2  1  0  0  0  0
  2  3  1  0  0  0  0
  2  4  2  0  0  0  0
  4  5  1  0  0  0  0
  5  6  2  0  0  0  0
  5 11  1  0  0  0  0
  6  7  1  0  0  0  0
  6  9  1  0  0  0  0
  7  8  1  0  0  0  0
  9 10  1  0  0  0  0
 10 11  2  0  0  0  0
M  END
>  <CHROM.1>
-11.82115845,-12.60025609,8.22676886,-1.97500521,-1.12256506,2.25520457

>  <Name>
ligand

>  <RI>
0

>  <Rbt.Current_Directory>
/home/itssahil/PROJECTS/Mol_Feturizer/Test_systems_manuscript/rnas/2b57

>  <Rbt.Executable>
rbdock ($Id: //depot/dev/client3/rdock/2013.1/src/exe/rbdock.cxx#4 $)

>  <Rbt.Library>
libRbt.so (2013.1, Build901 2013/11/27)

>  <Rbt.Parameter_File>
/export/apps/rDock/src/rDock_2013.1_src/data/scripts/dock_solv.prm

>  <Rbt.Receptor>
prm/pocket_docking_3.prm

>  <SCORE>
-9.63087

>  <SCORE.INTER>
-9.63087

>  <SCORE.INTER.CONST>
1

>  <SCORE.INTER.POLAR>
0

>  <SCORE.INTER.ROT>
0

>  <SCORE.INTER.SOLV>
16.7567

>  <SCORE.INTER.VDW>
-15.6061

>  <SCORE.INTER.norm>
-0.875533

>  <SCORE.INTRA>
0

>  <SCORE.INTRA.DIHEDRAL>
0

>  <SCORE.INTRA.DIHEDRAL.0>
0

>  <SCORE.INTRA.POLAR>
0

>  <SCORE.INTRA.POLAR.0>
0

>  <SCORE.INTRA.REPUL>
0

>  <SCORE.INTRA.REPUL.0>
0

>  <SCORE.INTRA.SOLV>
0

>  <SCORE.INTRA.SOLV.lig_0>
-48.3454

>  <SCORE.INTRA.VDW>
0

>  <SCORE.INTRA.VDW.0>
0

>  <SCORE.INTRA.norm>
0

>  <SCORE.RESTR>
0

>  <SCORE.RESTR.CAVITY>
0

>  <SCORE.RESTR.norm>
0

>  <SCORE.SYSTEM>
0

>  <SCORE.SYSTEM.CONST>
0

>  <SCORE.SYSTEM.DIHEDRAL>
0

>  <SCORE.SYSTEM.SOLV>
0

>  <SCORE.SYSTEM.norm>
0

>  <SCORE.heavy>
11

>  <SCORE.norm>
-0.875533

>  <RMSD>
3.730

$$$$
ligand
 OpenBabel02271912153D
libRbt.so/2013.1/901 2013/11/27
 11 12  0  0  0  0  0  0  0  0999 V2000
  -11.7590  -11.5981    6.7920 N   0  0  0  0  0  0  0  0  0  0  0  0
  -12.3231  -10.8926    7.7853 C   0  0  0  0  0  0  0  0  0  0  0  0
  -12.7088   -9.6384    7.5682 N   0  0  0  0  0  0  0  0  0  0  0  0
  -12.4922  -11.4385    8.9997 N   0  0  0  0  0  0  0  0  0  0  0  0
  -12.0986  -12.6969    9.2454 C   0  0  0  0  0  0  0  0  0  0  0  0
  -11.5121  -13.4489    8.2353 C   0  0  0  0  0  0  0  0  0  0  0  0
  -11.3499  -12.8621    6.9846 C   0  0  0  0  0  0  0  0  0  0  0  0
  -10.8020  -13.5490    5.9866 N   0  0  0  0  0  0  0  0  0  0  0  0
  -11.2084  -14.6381    8.7467 N   0  0  0  0  0  0  0  0  0  0  0  0
  -11.5847  -14.6406   10.0235 C   0  0  0  0  0  0  0  0  0  0  0  0
  -12.1264  -13.4640   10.3314 N   0  0  0  0  0  0  0  0  0  0  0  0
  1  7  2  0  0  0  0
  1  2  1  0  0  0  0
  2  3  1  0  0  0  0
  2  4  2  0  0  0  0
  4  5  1  0  0  0  0
  5  6  2  0  0  0  0
  5 11  1  0  0  0  0
  6  7  1  0  0  0  0
  6  9  1  0  0  0  0
  7  8  1  0  0  0  0
  9 10  1  0  0  0  0
 10 11  2  0  0  0  0
M  END
>  <CHROM.1>
-11.81788222,-12.60462652,8.23082525,-1.98194120,-1.12600472,2.24770070

>  <Name>
ligand

>  <RI>
0

>  <Rbt.Current_Directory>
/home/itssahil/PROJECTS/Mol_Feturizer/Test_systems_manuscript/rnas/2b57

>  <Rbt.Executable>
rbdock ($Id: //depot/dev/client3/rdock/2013.1/src/exe/rbdock.cxx#4 $)

>  <Rbt.Library>
libRbt.so (2013.1, Build901 2013/11/27)

>  <Rbt.Parameter_File>
/export/apps/rDock/src/rDock_2013.1_src/data/scripts/dock_solv.prm

>  <Rbt.Receptor>
prm/pocket_docking_4.prm

>  <SCORE>
-9.6345

>  <SCORE.INTER>
-9.6345

>  <SCORE.INTER.CONST>
1

>  <SCORE.INTER.POLAR>
0

>  <SCORE.INTER.ROT>
0

>  <SCORE.INTER.SOLV>
16.7707

>  <SCORE.INTER.VDW>
-15.6132

>  <SCORE.INTER.norm>
-0.875863

>  <SCORE.INTRA>
0

>  <SCORE.INTRA.DIHEDRAL>
0

>  <SCORE.INTRA.DIHEDRAL.0>
0

>  <SCORE.INTRA.POLAR>
0

>  <SCORE.INTRA.POLAR.0>
0

>  <SCORE.INTRA.REPUL>
0

>  <SCORE.INTRA.REPUL.0>
0

>  <SCORE.INTRA.SOLV>
0

>  <SCORE.INTRA.SOLV.lig_0>
-48.3454

>  <SCORE.INTRA.VDW>
0

>  <SCORE.INTRA.VDW.0>
0

>  <SCORE.INTRA.norm>
0

>  <SCORE.RESTR>
0

>  <SCORE.RESTR.CAVITY>
0

>  <SCORE.RESTR.norm>
0

>  <SCORE.SYSTEM>
0

>  <SCORE.SYSTEM.CONST>
0

>  <SCORE.SYSTEM.DIHEDRAL>
0

>  <SCORE.SYSTEM.SOLV>
0

>  <SCORE.SYSTEM.norm>
0

>  <SCORE.heavy>
11

>  <SCORE.norm>
-0.875863

>  <RMSD>
3.730

$$$$
ligand
 OpenBabel02271912153D
libRbt.so/2013.1/901 2013/11/27
 11 12  0  0  0  0  0  0  0  0999 V2000
  -11.7122  -11.6526    6.8085 N   0  0  0  0  0  0  0  0  0  0  0  0
  -12.2567  -10.9298    7.8003 C   0  0  0  0  0  0  0  0  0  0  0  0
  -12.5999   -9.6634    7.5830 N   0  0  0  0  0  0  0  0  0  0  0  0
  -12.4485  -11.4710    9.0134 N   0  0  0  0  0  0  0  0  0  0  0  0
  -12.0976  -12.7420    9.2593 C   0  0  0  0  0  0  0  0  0  0  0  0
  -11.5322  -13.5119    8.2507 C   0  0  0  0  0  0  0  0  0  0  0  0
  -11.3458  -12.9296    7.0014 C   0  0  0  0  0  0  0  0  0  0  0  0
  -10.8168  -13.6332    6.0048 N   0  0  0  0  0  0  0  0  0  0  0  0
  -11.2699  -14.7110    8.7620 N   0  0  0  0  0  0  0  0  0  0  0  0
  -11.6512  -14.7022   10.0374 C   0  0  0  0  0  0  0  0  0  0  0  0
  -12.1550  -13.5087   10.3444 N   0  0  0  0  0  0  0  0  0  0  0  0
  1  7  2  0  0  0  0
  1  2  1  0  0  0  0
  2  3  1  0  0  0  0
  2  4  2  0  0  0  0
  4  5  1  0  0  0  0
  5  6  2  0  0  0  0
  5 11  1  0  0  0  0
  6  7  1  0  0  0  0
  6  9  1  0  0  0  0
  7  8  1  0  0  0  0
  9 10  1  0  0  0  0
 10 11  2  0  0  0  0
M  END
>  <CHROM.1>
-11.80994813,-12.65800933,8.24595349,-1.92389588,-1.14858653,2.30140104

>  <Name>
ligand

>  <RI>
0

>  <Rbt.Current_Directory>
/home/itssahil/PROJECTS/Mol_Feturizer/Test_systems_manuscript/rnas/2b57

>  <Rbt.Executable>
rbdock ($Id: //depot/dev/client3/rdock/2013.1/src/exe/rbdock.cxx#4 $)

>  <Rbt.Library>
libRbt.so (2013.1, Build901 2013/11/27)

>  <Rbt.Parameter_File>
/export/apps/rDock/src/rDock_2013.1_src/data/scripts/dock_solv.prm

>  <Rbt.Receptor>
prm/blind_docking_80.prm

>  <SCORE>
-9.59748

>  <SCORE.INTER>
-9.59748

>  <SCORE.INTER.CONST>
1

>  <SCORE.INTER.POLAR>
0

>  <SCORE.INTER.ROT>
0

>  <SCORE.INTER.SOLV>
17.0853

>  <SCORE.INTER.VDW>
-15.6934

>  <SCORE.INTER.norm>
-0.872498

>  <SCORE.INTRA>
0

>  <SCORE.INTRA.DIHEDRAL>
0

>  <SCORE.INTRA.DIHEDRAL.0>
0

>  <SCORE.INTRA.POLAR>
0

>  <SCORE.INTRA.POLAR.0>
0

>  <SCORE.INTRA.REPUL>
0

>  <SCORE.INTRA.REPUL.0>
0

>  <SCORE.INTRA.SOLV>
0

>  <SCORE.INTRA.SOLV.lig_0>
-48.3454

>  <SCORE.INTRA.VDW>
0

>  <SCORE.INTRA.VDW.0>
0

>  <SCORE.INTRA.norm>
0

>  <SCORE.RESTR>
0

>  <SCORE.RESTR.CAVITY>
0

>  <SCORE.RESTR.norm>
0

>  <SCORE.SYSTEM>
0

>  <SCORE.SYSTEM.CONST>
0

>  <SCORE.SYSTEM.DIHEDRAL>
0

>  <SCORE.SYSTEM.SOLV>
0

>  <SCORE.SYSTEM.norm>
0

>  <SCORE.heavy>
11

>  <SCORE.norm>
-0.872498

>  <RMSD>
3.731

$$$$
ligand
 OpenBabel02271912153D
libRbt.so/2013.1/901 2013/11/27
 11 12  0  0  0  0  0  0  0  0999 V2000
  -11.6975  -11.6466    6.8064 N   0  0  0  0  0  0  0  0  0  0  0  0
  -12.2621  -10.9286    7.7905 C   0  0  0  0  0  0  0  0  0  0  0  0
  -12.6209   -9.6677    7.5658 N   0  0  0  0  0  0  0  0  0  0  0  0
  -12.4585  -11.4688    9.0033 N   0  0  0  0  0  0  0  0  0  0  0  0
  -12.0924  -12.7340    9.2566 C   0  0  0  0  0  0  0  0  0  0  0  0
  -11.5060  -13.4988    8.2562 C   0  0  0  0  0  0  0  0  0  0  0  0
  -11.3152  -12.9176    7.0070 C   0  0  0  0  0  0  0  0  0  0  0  0
  -10.7664  -13.6167    6.0180 N   0  0  0  0  0  0  0  0  0  0  0  0
  -11.2321  -14.6926    8.7738 N   0  0  0  0  0  0  0  0  0  0  0  0
  -11.6263  -14.6854   10.0452 C   0  0  0  0  0  0  0  0  0  0  0  0
  -12.1499  -13.4982   10.3435 N   0  0  0  0  0  0  0  0  0  0  0  0
  1  7  2  0  0  0  0
  1  2  1  0  0  0  0
  2  3  1  0  0  0  0
  2  4  2  0  0  0  0
  4  5  1  0  0  0  0
  5  6  2  0  0  0  0
  5 11  1  0  0  0  0
  6  7  1  0  0  0  0
  6  9  1  0  0  0  0
  7  8  1  0  0  0  0
  9 10  1  0  0  0  0
 10 11  2  0  0  0  0
M  END
>  <CHROM.1>
-11.79568478,-12.64895737,8.24599720,-1.92824950,-1.13137899,2.29440693

>  <Name>
ligand

>  <RI>
0

>  <Rbt.Current_Directory>
/home/itssahil/PROJECTS/Mol_Feturizer/Test_systems_manuscript/rnas/2b57

>  <Rbt.Executable>
rbdock ($Id: //depot/dev/client3/rdock/2013.1/src/exe/rbdock.cxx#4 $)

>  <Rbt.Library>
libRbt.so (2013.1, Build901 2013/11/27)

>  <Rbt.Parameter_File>
/export/apps/rDock/src/rDock_2013.1_src/data/scripts/dock_solv.prm

>  <Rbt.Receptor>
prm/pocket_docking_6.prm

>  <SCORE>
-9.60158

>  <SCORE.INTER>
-9.60158

>  <SCORE.INTER.CONST>
1

>  <SCORE.INTER.POLAR>
0

>  <SCORE.INTER.ROT>
0

>  <SCORE.INTER.SOLV>
16.9337

>  <SCORE.INTER.VDW>
-15.6456

>  <SCORE.INTER.norm>
-0.872871

>  <SCORE.INTRA>
0

>  <SCORE.INTRA.DIHEDRAL>
0

>  <SCORE.INTRA.DIHEDRAL.0>
0

>  <SCORE.INTRA.POLAR>
0

>  <SCORE.INTRA.POLAR.0>
0

>  <SCORE.INTRA.REPUL>
0

>  <SCORE.INTRA.REPUL.0>
0

>  <SCORE.INTRA.SOLV>
0

>  <SCORE.INTRA.SOLV.lig_0>
-48.3454

>  <SCORE.INTRA.VDW>
0

>  <SCORE.INTRA.VDW.0>
0

>  <SCORE.INTRA.norm>
0

>  <SCORE.RESTR>
0

>  <SCORE.RESTR.CAVITY>
0

>  <SCORE.RESTR.norm>
0

>  <SCORE.SYSTEM>
0

>  <SCORE.SYSTEM.CONST>
0

>  <SCORE.SYSTEM.DIHEDRAL>
0

>  <SCORE.SYSTEM.SOLV>
0

>  <SCORE.SYSTEM.norm>
0

>  <SCORE.heavy>
11

>  <SCORE.norm>
-0.872871

>  <RMSD>
3.733

$$$$
ligand
 OpenBabel02271912153D
libRbt.so/2013.1/901 2013/11/27
 11 12  0  0  0  0  0  0  0  0999 V2000
  -11.7019  -11.6492    6.8004 N   0  0  0  0  0  0  0  0  0  0  0  0
  -12.2681  -10.9296    7.7824 C   0  0  0  0  0  0  0  0  0  0  0  0
  -12.6271   -9.6693    7.5549 N   0  0  0  0  0  0  0  0  0  0  0  0
  -12.4660  -11.4676    8.9959 N   0  0  0  0  0  0  0  0  0  0  0  0
  -12.0997  -12.7322    9.2521 C   0  0  0  0  0  0  0  0  0  0  0  0
  -11.5116  -13.4987    8.2539 C   0  0  0  0  0  0  0  0  0  0  0  0
  -11.3193  -12.9197    7.0039 C   0  0  0  0  0  0  0  0  0  0  0  0
  -10.7688  -13.6204    6.0169 N   0  0  0  0  0  0  0  0  0  0  0  0
  -11.2379  -14.6913    8.7741 N   0  0  0  0  0  0  0  0  0  0  0  0
  -11.6339  -14.6820   10.0449 C   0  0  0  0  0  0  0  0  0  0  0  0
  -12.1584  -13.4945   10.3402 N   0  0  0  0  0  0  0  0  0  0  0  0
  1  7  2  0  0  0  0
  1  2  1  0  0  0  0
  2  3  1  0  0  0  0
  2  4  2  0  0  0  0
  4  5  1  0  0  0  0
  5  6  2  0  0  0  0
  5 11  1  0  0  0  0
  6  7  1  0  0  0  0
  6  9  1  0  0  0  0
  7  8  1  0  0  0  0
  9 10  1  0  0  0  0
 10 11  2  0  0  0  0
M  END
>  <CHROM.1>
-11.80160135,-12.64892719,8.24169858,-1.92643407,-1.13015233,2.29420331

>  <Name>
ligand

>  <RI>
0

>  <Rbt.Current_Directory>
/home/itssahil/PROJECTS/Mol_Feturizer/Test_systems_manuscript/rnas/2b57

>  <Rbt.Executable>
rbdock ($Id: //depot/dev/client3/rdock/2013.1/src/exe/rbdock.cxx#4 $)

>  <Rbt.Library>
libRbt.so (2013.1, Build901 2013/11/27)

>  <Rbt.Parameter_File>
/export/apps/rDock/src/rDock_2013.1_src/data/scripts/dock_solv.prm

>  <Rbt.Receptor>
prm/pocket_docking_8.prm

>  <SCORE>
-9.60532

>  <SCORE.INTER>
-9.60532

>  <SCORE.INTER.CONST>
1

>  <SCORE.INTER.POLAR>
0

>  <SCORE.INTER.ROT>
0

>  <SCORE.INTER.SOLV>
16.9224

>  <SCORE.INTER.VDW>
-15.6443

>  <SCORE.INTER.norm>
-0.873211

>  <SCORE.INTRA>
0

>  <SCORE.INTRA.DIHEDRAL>
0

>  <SCORE.INTRA.DIHEDRAL.0>
0

>  <SCORE.INTRA.POLAR>
0

>  <SCORE.INTRA.POLAR.0>
0

>  <SCORE.INTRA.REPUL>
0

>  <SCORE.INTRA.REPUL.0>
0

>  <SCORE.INTRA.SOLV>
0

>  <SCORE.INTRA.SOLV.lig_0>
-48.3454

>  <SCORE.INTRA.VDW>
0

>  <SCORE.INTRA.VDW.0>
0

>  <SCORE.INTRA.norm>
0

>  <SCORE.RESTR>
0

>  <SCORE.RESTR.CAVITY>
0

>  <SCORE.RESTR.norm>
0

>  <SCORE.SYSTEM>
0

>  <SCORE.SYSTEM.CONST>
0

>  <SCORE.SYSTEM.DIHEDRAL>
0

>  <SCORE.SYSTEM.SOLV>
0

>  <SCORE.SYSTEM.norm>
0

>  <SCORE.heavy>
11

>  <SCORE.norm>
-0.873211

>  <RMSD>
3.735

$$$$
ligand
 OpenBabel02271912153D
libRbt.so/2013.1/901 2013/11/27
 11 12  0  0  0  0  0  0  0  0999 V2000
  -12.7501  -10.0867    8.2698 N   0  0  0  0  0  0  0  0  0  0  0  0
  -13.1531  -11.3540    8.4549 C   0  0  0  0  0  0  0  0  0  0  0  0
  -12.4382  -12.1685    9.2259 N   0  0  0  0  0  0  0  0  0  0  0  0
  -14.2665  -11.8099    7.8602 N   0  0  0  0  0  0  0  0  0  0  0  0
  -14.9958  -11.0104    7.0677 C   0  0  0  0  0  0  0  0  0  0  0  0
  -14.6011   -9.6950    6.8592 C   0  0  0  0  0  0  0  0  0  0  0  0
  -13.4451   -9.2450    7.4885 C   0  0  0  0  0  0  0  0  0  0  0  0
  -13.0361   -7.9904    7.3242 N   0  0  0  0  0  0  0  0  0  0  0  0
  -15.4819   -9.1392    6.0326 N   0  0  0  0  0  0  0  0  0  0  0  0
  -16.3939  -10.0603    5.7299 C   0  0  0  0  0  0  0  0  0  0  0  0
  -16.1036  -11.1986    6.3564 N   0  0  0  0  0  0  0  0  0  0  0  0
  1  7  2  0  0  0  0
  1  2  1  0  0  0  0
  2  3  1  0  0  0  0
  2  4  2  0  0  0  0
  4  5  1  0  0  0  0
  5  6  2  0  0  0  0
  5 11  1  0  0  0  0
  6  7  1  0  0  0  0
  6  9  1  0  0  0  0
  7  8  1  0  0  0  0
  9 10  1  0  0  0  0
 10 11  2  0  0  0  0
M  END
>  <CHROM.1>
-14.22323152,-10.34639151,7.34836478,-0.52473934,-0.57674344,-0.34663490

>  <Name>
ligand

>  <RI>
0

>  <Rbt.Current_Directory>
/home/itssahil/PROJECTS/Mol_Feturizer/Test_systems_manuscript/rnas/2b57

>  <Rbt.Executable>
rbdock ($Id: //depot/dev/client3/rdock/2013.1/src/exe/rbdock.cxx#4 $)

>  <Rbt.Library>
libRbt.so (2013.1, Build901 2013/11/27)

>  <Rbt.Parameter_File>
/export/apps/rDock/src/rDock_2013.1_src/data/scripts/dock_solv.prm

>  <Rbt.Receptor>
prm/blind_docking_80.prm

>  <SCORE>
-6.49482

>  <SCORE.INTER>
-6.49482

>  <SCORE.INTER.CONST>
1

>  <SCORE.INTER.POLAR>
0

>  <SCORE.INTER.ROT>
0

>  <SCORE.INTER.SOLV>
14.945

>  <SCORE.INTER.VDW>
-12.9115

>  <SCORE.INTER.norm>
-0.590438

>  <SCORE.INTRA>
0

>  <SCORE.INTRA.DIHEDRAL>
0

>  <SCORE.INTRA.DIHEDRAL.0>
0

>  <SCORE.INTRA.POLAR>
0

>  <SCORE.INTRA.POLAR.0>
0

>  <SCORE.INTRA.REPUL>
0

>  <SCORE.INTRA.REPUL.0>
0

>  <SCORE.INTRA.SOLV>
0

>  <SCORE.INTRA.SOLV.lig_0>
-48.3454

>  <SCORE.INTRA.VDW>
0

>  <SCORE.INTRA.VDW.0>
0

>  <SCORE.INTRA.norm>
0

>  <SCORE.RESTR>
0

>  <SCORE.RESTR.CAVITY>
0

>  <SCORE.RESTR.norm>
0

>  <SCORE.SYSTEM>
0

>  <SCORE.SYSTEM.CONST>
0

>  <SCORE.SYSTEM.DIHEDRAL>
0

>  <SCORE.SYSTEM.SOLV>
0

>  <SCORE.SYSTEM.norm>
0

>  <SCORE.heavy>
11

>  <SCORE.norm>
-0.590438

>  <RMSD>
4.372

$$$$
ligand
 OpenBabel02271912153D
libRbt.so/2013.1/901 2013/11/27
 11 12  0  0  0  0  0  0  0  0999 V2000
  -14.6272   -8.6262    6.9337 N   0  0  0  0  0  0  0  0  0  0  0  0
  -13.4782   -8.0080    7.2506 C   0  0  0  0  0  0  0  0  0  0  0  0
  -13.3690   -6.6926    7.0866 N   0  0  0  0  0  0  0  0  0  0  0  0
  -12.4343   -8.7074    7.7221 N   0  0  0  0  0  0  0  0  0  0  0  0
  -12.5171  -10.0363    7.8829 C   0  0  0  0  0  0  0  0  0  0  0  0
  -13.6943  -10.7007    7.5626 C   0  0  0  0  0  0  0  0  0  0  0  0
  -14.7630   -9.9539    7.0781 C   0  0  0  0  0  0  0  0  0  0  0  0
  -15.9116  -10.5480    6.7682 N   0  0  0  0  0  0  0  0  0  0  0  0
  -13.5007  -11.9946    7.7999 N   0  0  0  0  0  0  0  0  0  0  0  0
  -12.2570  -12.1446    8.2499 C   0  0  0  0  0  0  0  0  0  0  0  0
  -11.6553  -10.9581    8.3026 N   0  0  0  0  0  0  0  0  0  0  0  0
  1  7  2  0  0  0  0
  1  2  1  0  0  0  0
  2  3  1  0  0  0  0
  2  4  2  0  0  0  0
  4  5  1  0  0  0  0
  5  6  2  0  0  0  0
  5 11  1  0  0  0  0
  6  7  1  0  0  0  0
  6  9  1  0  0  0  0
  7  8  1  0  0  0  0
  9 10  1  0  0  0  0
 10 11  2  0  0  0  0
M  END
>  <CHROM.1>
-13.48254145,-9.82992517,7.50608345,1.84618542,-0.33162175,-0.14124144

>  <Name>
ligand

>  <RI>
0

>  <Rbt.Current_Directory>
/home/itssahil/PROJECTS/Mol_Feturizer/Test_systems_manuscript/rnas/2b57

>  <Rbt.Executable>
rbdock ($Id: //depot/dev/client3/rdock/2013.1/src/exe/rbdock.cxx#4 $)

>  <Rbt.Library>
libRbt.so (2013.1, Build901 2013/11/27)

>  <Rbt.Parameter_File>
/export/apps/rDock/src/rDock_2013.1_src/data/scripts/dock_solv.prm

>  <Rbt.Receptor>
prm/pocket_docking_8.prm

>  <SCORE>
-5.96656

>  <SCORE.INTER>
-5.96656

>  <SCORE.INTER.CONST>
1

>  <SCORE.INTER.POLAR>
0

>  <SCORE.INTER.ROT>
0

>  <SCORE.INTER.SOLV>
14.316

>  <SCORE.INTER.VDW>
-12.3497

>  <SCORE.INTER.norm>
-0.542415

>  <SCORE.INTRA>
0

>  <SCORE.INTRA.DIHEDRAL>
0

>  <SCORE.INTRA.DIHEDRAL.0>
0

>  <SCORE.INTRA.POLAR>
0

>  <SCORE.INTRA.POLAR.0>
0

>  <SCORE.INTRA.REPUL>
0

>  <SCORE.INTRA.REPUL.0>
0

>  <SCORE.INTRA.SOLV>
0

>  <SCORE.INTRA.SOLV.lig_0>
-48.3454

>  <SCORE.INTRA.VDW>
0

>  <SCORE.INTRA.VDW.0>
0

>  <SCORE.INTRA.norm>
0

>  <SCORE.RESTR>
0

>  <SCORE.RESTR.CAVITY>
0

>  <SCORE.RESTR.norm>
0

>  <SCORE.SYSTEM>
0

>  <SCORE.SYSTEM.CONST>
0

>  <SCORE.SYSTEM.DIHEDRAL>
0

>  <SCORE.SYSTEM.SOLV>
0

>  <SCORE.SYSTEM.norm>
0

>  <SCORE.heavy>
11

>  <SCORE.norm>
-0.542415

>  <RMSD>
5.002

$$$$
ligand
 OpenBabel02271912153D
libRbt.so/2013.1/901 2013/11/27
 11 12  0  0  0  0  0  0  0  0999 V2000
  -14.6021   -8.6254    6.9462 N   0  0  0  0  0  0  0  0  0  0  0  0
  -13.5102   -7.9512    7.3408 C   0  0  0  0  0  0  0  0  0  0  0  0
  -13.4711   -6.6274    7.2181 N   0  0  0  0  0  0  0  0  0  0  0  0
  -12.4525   -8.6024    7.8491 N   0  0  0  0  0  0  0  0  0  0  0  0
  -12.4642   -9.9381    7.9697 C   0  0  0  0  0  0  0  0  0  0  0  0
  -13.5813  -10.6600    7.5689 C   0  0  0  0  0  0  0  0  0  0  0  0
  -14.6659   -9.9624    7.0476 C   0  0  0  0  0  0  0  0  0  0  0  0
  -15.7592  -10.6128    6.6606 N   0  0  0  0  0  0  0  0  0  0  0  0
  -13.3236  -11.9470    7.7817 N   0  0  0  0  0  0  0  0  0  0  0  0
  -12.0983  -12.0377    8.2939 C   0  0  0  0  0  0  0  0  0  0  0  0
  -11.5720  -10.8204    8.4106 N   0  0  0  0  0  0  0  0  0  0  0  0
  1  7  2  0  0  0  0
  1  2  1  0  0  0  0
  2  3  1  0  0  0  0
  2  4  2  0  0  0  0
  4  5  1  0  0  0  0
  5  6  2  0  0  0  0
  5 11  1  0  0  0  0
  6  7  1  0  0  0  0
  6  9  1  0  0  0  0
  7  8  1  0  0  0  0
  9 10  1  0  0  0  0
 10 11  2  0  0  0  0
M  END
>  <CHROM.1>
-13.41918136,-9.77705875,7.54708850,1.90211355,-0.39126145,-0.09319577

>  <Name>
ligand

>  <RI>
0

>  <Rbt.Current_Directory>
/home/itssahil/PROJECTS/Mol_Feturizer/Test_systems_manuscript/rnas/2b57

>  <Rbt.Executable>
rbdock ($Id: //depot/dev/client3/rdock/2013.1/src/exe/rbdock.cxx#4 $)

>  <Rbt.Library>
libRbt.so (2013.1, Build901 2013/11/27)

>  <Rbt.Parameter_File>
/export/apps/rDock/src/rDock_2013.1_src/data/scripts/dock_solv.prm

>  <Rbt.Receptor>
prm/pocket_docking_7.prm

>  <SCORE>
-5.96068

>  <SCORE.INTER>
-5.96068

>  <SCORE.INTER.CONST>
1

>  <SCORE.INTER.POLAR>
0

>  <SCORE.INTER.ROT>
0

>  <SCORE.INTER.SOLV>
13.643

>  <SCORE.INTER.VDW>
-12.1214

>  <SCORE.INTER.norm>
-0.54188

>  <SCORE.INTRA>
0

>  <SCORE.INTRA.DIHEDRAL>
0

>  <SCORE.INTRA.DIHEDRAL.0>
0

>  <SCORE.INTRA.POLAR>
0

>  <SCORE.INTRA.POLAR.0>
0

>  <SCORE.INTRA.REPUL>
0

>  <SCORE.INTRA.REPUL.0>
0

>  <SCORE.INTRA.SOLV>
0

>  <SCORE.INTRA.SOLV.lig_0>
-48.3454

>  <SCORE.INTRA.VDW>
0

>  <SCORE.INTRA.VDW.0>
0

>  <SCORE.INTRA.norm>
0

>  <SCORE.RESTR>
0

>  <SCORE.RESTR.CAVITY>
0

>  <SCORE.RESTR.norm>
0

>  <SCORE.SYSTEM>
0

>  <SCORE.SYSTEM.CONST>
0

>  <SCORE.SYSTEM.DIHEDRAL>
0

>  <SCORE.SYSTEM.SOLV>
0

>  <SCORE.SYSTEM.norm>
0

>  <SCORE.heavy>
11

>  <SCORE.norm>
-0.54188

>  <RMSD>
5.018

$$$$
ligand
 OpenBabel02271912153D
libRbt.so/2013.1/901 2013/11/27
 11 12  0  0  0  0  0  0  0  0999 V2000
  -12.6815   -8.9573    7.8592 N   0  0  0  0  0  0  0  0  0  0  0  0
  -13.1139   -7.9490    7.0853 C   0  0  0  0  0  0  0  0  0  0  0  0
  -12.4368   -6.8047    7.0522 N   0  0  0  0  0  0  0  0  0  0  0  0
  -14.2300   -8.0817    6.3519 N   0  0  0  0  0  0  0  0  0  0  0  0
  -14.9362   -9.2216    6.3799 C   0  0  0  0  0  0  0  0  0  0  0  0
  -14.5110  -10.2804    7.1723 C   0  0  0  0  0  0  0  0  0  0  0  0
  -13.3500  -10.1198    7.9213 C   0  0  0  0  0  0  0  0  0  0  0  0
  -12.9018  -11.1110    8.6860 N   0  0  0  0  0  0  0  0  0  0  0  0
  -15.3899  -11.2674    7.0265 N   0  0  0  0  0  0  0  0  0  0  0  0
  -16.3306  -10.8535    6.1805 C   0  0  0  0  0  0  0  0  0  0  0  0
  -16.0595   -9.6117    5.7844 N   0  0  0  0  0  0  0  0  0  0  0  0
  1  7  2  0  0  0  0
  1  2  1  0  0  0  0
  2  3  1  0  0  0  0
  2  4  2  0  0  0  0
  4  5  1  0  0  0  0
  5  6  2  0  0  0  0
  5 11  1  0  0  0  0
  6  7  1  0  0  0  0
  6  9  1  0  0  0  0
  7  8  1  0  0  0  0
  9 10  1  0  0  0  0
 10 11  2  0  0  0  0
M  END
>  <CHROM.1>
-14.15763182,-9.46367498,7.05216164,-0.55539177,0.56769195,2.71028590

>  <Name>
ligand

>  <RI>
0

>  <Rbt.Current_Directory>
/home/itssahil/PROJECTS/Mol_Feturizer/Test_systems_manuscript/rnas/2b57

>  <Rbt.Executable>
rbdock ($Id: //depot/dev/client3/rdock/2013.1/src/exe/rbdock.cxx#4 $)

>  <Rbt.Library>
libRbt.so (2013.1, Build901 2013/11/27)

>  <Rbt.Parameter_File>
/export/apps/rDock/src/rDock_2013.1_src/data/scripts/dock_solv.prm

>  <Rbt.Receptor>
prm/blind_docking_80.prm

>  <SCORE>
-7.53268

>  <SCORE.INTER>
-7.53268

>  <SCORE.INTER.CONST>
1

>  <SCORE.INTER.POLAR>
0

>  <SCORE.INTER.ROT>
0

>  <SCORE.INTER.SOLV>
13.615

>  <SCORE.INTER.VDW>
-13.1601

>  <SCORE.INTER.norm>
-0.684789

>  <SCORE.INTRA>
0

>  <SCORE.INTRA.DIHEDRAL>
0

>  <SCORE.INTRA.DIHEDRAL.0>
0

>  <SCORE.INTRA.POLAR>
0

>  <SCORE.INTRA.POLAR.0>
0

>  <SCORE.INTRA.REPUL>
0

>  <SCORE.INTRA.REPUL.0>
0

>  <SCORE.INTRA.SOLV>
0

>  <SCORE.INTRA.SOLV.lig_0>
-48.3454

>  <SCORE.INTRA.VDW>
0

>  <SCORE.INTRA.VDW.0>
0

>  <SCORE.INTRA.norm>
0

>  <SCORE.RESTR>
0

>  <SCORE.RESTR.CAVITY>
0

>  <SCORE.RESTR.norm>
0

>  <SCORE.SYSTEM>
0

>  <SCORE.SYSTEM.CONST>
0

>  <SCORE.SYSTEM.DIHEDRAL>
0

>  <SCORE.SYSTEM.SOLV>
0

>  <SCORE.SYSTEM.norm>
0

>  <SCORE.heavy>
11

>  <SCORE.norm>
-0.684789

>  <RMSD>
5.653

$$$$
ligand
 OpenBabel02271912153D
libRbt.so/2013.1/901 2013/11/27
 11 12  0  0  0  0  0  0  0  0999 V2000
  -12.7501   -8.8652    7.8966 N   0  0  0  0  0  0  0  0  0  0  0  0
  -13.1932   -7.8574    7.1280 C   0  0  0  0  0  0  0  0  0  0  0  0
  -12.5446   -6.6962    7.1230 N   0  0  0  0  0  0  0  0  0  0  0  0
  -14.2916   -8.0078    6.3717 N   0  0  0  0  0  0  0  0  0  0  0  0
  -14.9692   -9.1653    6.3711 C   0  0  0  0  0  0  0  0  0  0  0  0
  -14.5324  -10.2239    7.1574 C   0  0  0  0  0  0  0  0  0  0  0  0
  -13.3901  -10.0446    7.9306 C   0  0  0  0  0  0  0  0  0  0  0  0
  -12.9315  -11.0348    8.6905 N   0  0  0  0  0  0  0  0  0  0  0  0
  -15.3834  -11.2304    6.9818 N   0  0  0  0  0  0  0  0  0  0  0  0
  -16.3181  -10.8285    6.1235 C   0  0  0  0  0  0  0  0  0  0  0  0
  -16.0709   -9.5750    5.7491 N   0  0  0  0  0  0  0  0  0  0  0  0
  1  7  2  0  0  0  0
  1  2  1  0  0  0  0
  2  3  1  0  0  0  0
  2  4  2  0  0  0  0
  4  5  1  0  0  0  0
  5  6  2  0  0  0  0
  5 11  1  0  0  0  0
  6  7  1  0  0  0  0
  6  9  1  0  0  0  0
  7  8  1  0  0  0  0
  9 10  1  0  0  0  0
 10 11  2  0  0  0  0
M  END
>  <CHROM.1>
-14.19758624,-9.39703685,7.05486851,-0.57355227,0.59521789,2.73372222

>  <Name>
ligand

>  <RI>
0

>  <Rbt.Current_Directory>
/home/itssahil/PROJECTS/Mol_Feturizer/Test_systems_manuscript/rnas/2b57

>  <Rbt.Executable>
rbdock ($Id: //depot/dev/client3/rdock/2013.1/src/exe/rbdock.cxx#4 $)

>  <Rbt.Library>
libRbt.so (2013.1, Build901 2013/11/27)

>  <Rbt.Parameter_File>
/export/apps/rDock/src/rDock_2013.1_src/data/scripts/dock_solv.prm

>  <Rbt.Receptor>
prm/pocket_docking_8.prm

>  <SCORE>
-7.58883

>  <SCORE.INTER>
-7.58883

>  <SCORE.INTER.CONST>
1

>  <SCORE.INTER.POLAR>
0

>  <SCORE.INTER.ROT>
0

>  <SCORE.INTER.SOLV>
12.8954

>  <SCORE.INTER.VDW>
-12.9577

>  <SCORE.INTER.norm>
-0.689894

>  <SCORE.INTRA>
0

>  <SCORE.INTRA.DIHEDRAL>
0

>  <SCORE.INTRA.DIHEDRAL.0>
0

>  <SCORE.INTRA.POLAR>
0

>  <SCORE.INTRA.POLAR.0>
0

>  <SCORE.INTRA.REPUL>
0

>  <SCORE.INTRA.REPUL.0>
0

>  <SCORE.INTRA.SOLV>
0

>  <SCORE.INTRA.SOLV.lig_0>
-48.3454

>  <SCORE.INTRA.VDW>
0

>  <SCORE.INTRA.VDW.0>
0

>  <SCORE.INTRA.norm>
0

>  <SCORE.RESTR>
0

>  <SCORE.RESTR.CAVITY>
0

>  <SCORE.RESTR.norm>
0

>  <SCORE.SYSTEM>
0

>  <SCORE.SYSTEM.CONST>
0

>  <SCORE.SYSTEM.DIHEDRAL>
0

>  <SCORE.SYSTEM.SOLV>
0

>  <SCORE.SYSTEM.norm>
0

>  <SCORE.heavy>
11

>  <SCORE.norm>
-0.689894

>  <RMSD>
5.703

$$$$
ligand
 OpenBabel02271912153D
libRbt.so/2013.1/901 2013/11/27
 11 12  0  0  0  0  0  0  0  0999 V2000
  -12.7849   -8.8408    7.8980 N   0  0  0  0  0  0  0  0  0  0  0  0
  -13.2474   -7.8378    7.1346 C   0  0  0  0  0  0  0  0  0  0  0  0
  -12.6166   -6.6669    7.1292 N   0  0  0  0  0  0  0  0  0  0  0  0
  -14.3476   -8.0028    6.3839 N   0  0  0  0  0  0  0  0  0  0  0  0
  -15.0076   -9.1704    6.3839 C   0  0  0  0  0  0  0  0  0  0  0  0
  -14.5506  -10.2244    7.1648 C   0  0  0  0  0  0  0  0  0  0  0  0
  -13.4069  -10.0300    7.9322 C   0  0  0  0  0  0  0  0  0  0  0  0
  -12.9291  -11.0151    8.6868 N   0  0  0  0  0  0  0  0  0  0  0  0
  -15.3871  -11.2432    6.9911 N   0  0  0  0  0  0  0  0  0  0  0  0
  -16.3325  -10.8532    6.1390 C   0  0  0  0  0  0  0  0  0  0  0  0
  -16.1065   -9.5951    5.7668 N   0  0  0  0  0  0  0  0  0  0  0  0
  1  7  2  0  0  0  0
  1  2  1  0  0  0  0
  2  3  1  0  0  0  0
  2  4  2  0  0  0  0
  4  5  1  0  0  0  0
  5  6  2  0  0  0  0
  5 11  1  0  0  0  0
  6  7  1  0  0  0  0
  6  9  1  0  0  0  0
  7  8  1  0  0  0  0
  9 10  1  0  0  0  0
 10 11  2  0  0  0  0
M  END
>  <CHROM.1>
-14.22883285,-9.39231153,7.06271301,-0.59297860,0.59605052,2.74735276

>  <Name>
ligand

>  <RI>
0

>  <Rbt.Current_Directory>
/home/itssahil/PROJECTS/Mol_Feturizer/Test_systems_manuscript/rnas/2b57

>  <Rbt.Executable>
rbdock ($Id: //depot/dev/client3/rdock/2013.1/src/exe/rbdock.cxx#4 $)

>  <Rbt.Library>
libRbt.so (2013.1, Build901 2013/11/27)

>  <Rbt.Parameter_File>
/export/apps/rDock/src/rDock_2013.1_src/data/scripts/dock_solv.prm

>  <Rbt.Receptor>
prm/blind_docking_80.prm

>  <SCORE>
-7.57931

>  <SCORE.INTER>
-7.57931

>  <SCORE.INTER.CONST>
1

>  <SCORE.INTER.POLAR>
0

>  <SCORE.INTER.ROT>
0

>  <SCORE.INTER.SOLV>
12.638

>  <SCORE.INTER.VDW>
-12.8655

>  <SCORE.INTER.norm>
-0.689028

>  <SCORE.INTRA>
0

>  <SCORE.INTRA.DIHEDRAL>
0

>  <SCORE.INTRA.DIHEDRAL.0>
0

>  <SCORE.INTRA.POLAR>
0

>  <SCORE.INTRA.POLAR.0>
0

>  <SCORE.INTRA.REPUL>
0

>  <SCORE.INTRA.REPUL.0>
0

>  <SCORE.INTRA.SOLV>
0

>  <SCORE.INTRA.SOLV.lig_0>
-48.3454

>  <SCORE.INTRA.VDW>
0

>  <SCORE.INTRA.VDW.0>
0

>  <SCORE.INTRA.norm>
0

>  <SCORE.RESTR>
0

>  <SCORE.RESTR.CAVITY>
0

>  <SCORE.RESTR.norm>
0

>  <SCORE.SYSTEM>
0

>  <SCORE.SYSTEM.CONST>
0

>  <SCORE.SYSTEM.DIHEDRAL>
0

>  <SCORE.SYSTEM.SOLV>
0

>  <SCORE.SYSTEM.norm>
0

>  <SCORE.heavy>
11

>  <SCORE.norm>
-0.689028

>  <RMSD>
5.720

$$$$
ligand
 OpenBabel02271912153D
libRbt.so/2013.1/901 2013/11/27
 11 12  0  0  0  0  0  0  0  0999 V2000
  -13.9992   -6.0093    7.6579 N   0  0  0  0  0  0  0  0  0  0  0  0
  -12.8020   -6.5427    7.9496 C   0  0  0  0  0  0  0  0  0  0  0  0
  -11.8053   -5.7539    8.3410 N   0  0  0  0  0  0  0  0  0  0  0  0
  -12.5987   -7.8647    7.8398 N   0  0  0  0  0  0  0  0  0  0  0  0
  -13.5853   -8.6777    7.4340 C   0  0  0  0  0  0  0  0  0  0  0  0
  -14.8335   -8.1518    7.1258 C   0  0  0  0  0  0  0  0  0  0  0  0
  -15.0205   -6.7791    7.2498 C   0  0  0  0  0  0  0  0  0  0  0  0
  -16.2020   -6.2347    6.9744 N   0  0  0  0  0  0  0  0  0  0  0  0
  -15.6094   -9.1612    6.7421 N   0  0  0  0  0  0  0  0  0  0  0  0
  -14.8861  -10.2770    6.8036 C   0  0  0  0  0  0  0  0  0  0  0  0
  -13.6561   -9.9890    7.2237 N   0  0  0  0  0  0  0  0  0  0  0  0
  1  7  2  0  0  0  0
  1  2  1  0  0  0  0
  2  3  1  0  0  0  0
  2  4  2  0  0  0  0
  4  5  1  0  0  0  0
  5  6  2  0  0  0  0
  5 11  1  0  0  0  0
  6  7  1  0  0  0  0
  6  9  1  0  0  0  0
  7  8  1  0  0  0  0
  9 10  1  0  0  0  0
 10 11  2  0  0  0  0
M  END
>  <CHROM.1>
-14.08140151,-7.74532680,7.40038953,1.03686958,-0.28890403,0.13504805

>  <Name>
ligand

>  <RI>
0

>  <Rbt.Current_Directory>
/home/itssahil/PROJECTS/Mol_Feturizer/Test_systems_manuscript/rnas/2b57

>  <Rbt.Executable>
rbdock ($Id: //depot/dev/client3/rdock/2013.1/src/exe/rbdock.cxx#4 $)

>  <Rbt.Library>
libRbt.so (2013.1, Build901 2013/11/27)

>  <Rbt.Parameter_File>
/export/apps/rDock/src/rDock_2013.1_src/data/scripts/dock_solv.prm

>  <Rbt.Receptor>
prm/pocket_docking_7.prm

>  <SCORE>
-4.43363

>  <SCORE.INTER>
-4.43363

>  <SCORE.INTER.CONST>
1

>  <SCORE.INTER.POLAR>
0

>  <SCORE.INTER.ROT>
0

>  <SCORE.INTER.SOLV>
7.72639

>  <SCORE.INTER.VDW>
-9.13122

>  <SCORE.INTER.norm>
-0.403057

>  <SCORE.INTRA>
0

>  <SCORE.INTRA.DIHEDRAL>
0

>  <SCORE.INTRA.DIHEDRAL.0>
0

>  <SCORE.INTRA.POLAR>
0

>  <SCORE.INTRA.POLAR.0>
0

>  <SCORE.INTRA.REPUL>
0

>  <SCORE.INTRA.REPUL.0>
0

>  <SCORE.INTRA.SOLV>
0

>  <SCORE.INTRA.SOLV.lig_0>
-48.3454

>  <SCORE.INTRA.VDW>
0

>  <SCORE.INTRA.VDW.0>
0

>  <SCORE.INTRA.norm>
0

>  <SCORE.RESTR>
0

>  <SCORE.RESTR.CAVITY>
0

>  <SCORE.RESTR.norm>
0

>  <SCORE.SYSTEM>
0

>  <SCORE.SYSTEM.CONST>
0

>  <SCORE.SYSTEM.DIHEDRAL>
0

>  <SCORE.SYSTEM.SOLV>
0

>  <SCORE.SYSTEM.norm>
0

>  <SCORE.heavy>
11

>  <SCORE.norm>
-0.403057

>  <RMSD>
6.462

$$$$
ligand
 OpenBabel02271912153D
libRbt.so/2013.1/901 2013/11/27
 11 12  0  0  0  0  0  0  0  0999 V2000
  -14.6806   -7.2934    8.3815 N   0  0  0  0  0  0  0  0  0  0  0  0
  -14.5874   -8.2769    7.4723 C   0  0  0  0  0  0  0  0  0  0  0  0
  -15.4518   -9.2873    7.5013 N   0  0  0  0  0  0  0  0  0  0  0  0
  -13.6225   -8.2551    6.5397 N   0  0  0  0  0  0  0  0  0  0  0  0
  -12.7316   -7.2533    6.4997 C   0  0  0  0  0  0  0  0  0  0  0  0
  -12.8054   -6.2233    7.4288 C   0  0  0  0  0  0  0  0  0  0  0  0
  -13.8157   -6.2668    8.3838 C   0  0  0  0  0  0  0  0  0  0  0  0
  -13.9290   -5.2966    9.2861 N   0  0  0  0  0  0  0  0  0  0  0  0
  -11.8073   -5.3824    7.1741 N   0  0  0  0  0  0  0  0  0  0  0  0
  -11.1305   -5.8576    6.1310 C   0  0  0  0  0  0  0  0  0  0  0  0
  -11.6880   -6.9936    5.7173 N   0  0  0  0  0  0  0  0  0  0  0  0
  1  7  2  0  0  0  0
  1  2  1  0  0  0  0
  2  3  1  0  0  0  0
  2  4  2  0  0  0  0
  4  5  1  0  0  0  0
  5  6  2  0  0  0  0
  5 11  1  0  0  0  0
  6  7  1  0  0  0  0
  6  9  1  0  0  0  0
  7  8  1  0  0  0  0
  9 10  1  0  0  0  0
 10 11  2  0  0  0  0
M  END
>  <CHROM.1>
-13.31492217,-6.95589298,7.32904520,2.89103426,-0.64298808,-2.45209180

>  <Name>
ligand

>  <RI>
0

>  <Rbt.Current_Directory>
/home/itssahil/PROJECTS/Mol_Feturizer/Test_systems_manuscript/rnas/2b57

>  <Rbt.Executable>
rbdock ($Id: //depot/dev/client3/rdock/2013.1/src/exe/rbdock.cxx#4 $)

>  <Rbt.Library>
libRbt.so (2013.1, Build901 2013/11/27)

>  <Rbt.Parameter_File>
/export/apps/rDock/src/rDock_2013.1_src/data/scripts/dock_solv.prm

>  <Rbt.Receptor>
prm/pocket_docking_7.prm

>  <SCORE>
-4.36941

>  <SCORE.INTER>
-4.36941

>  <SCORE.INTER.CONST>
1

>  <SCORE.INTER.POLAR>
0

>  <SCORE.INTER.ROT>
0

>  <SCORE.INTER.SOLV>
6.94352

>  <SCORE.INTER.VDW>
-8.82745

>  <SCORE.INTER.norm>
-0.397219

>  <SCORE.INTRA>
0

>  <SCORE.INTRA.DIHEDRAL>
0

>  <SCORE.INTRA.DIHEDRAL.0>
0

>  <SCORE.INTRA.POLAR>
0

>  <SCORE.INTRA.POLAR.0>
0

>  <SCORE.INTRA.REPUL>
0

>  <SCORE.INTRA.REPUL.0>
0

>  <SCORE.INTRA.SOLV>
0

>  <SCORE.INTRA.SOLV.lig_0>
-48.3454

>  <SCORE.INTRA.VDW>
0

>  <SCORE.INTRA.VDW.0>
0

>  <SCORE.INTRA.norm>
0

>  <SCORE.RESTR>
0

>  <SCORE.RESTR.CAVITY>
0

>  <SCORE.RESTR.norm>
0

>  <SCORE.SYSTEM>
0

>  <SCORE.SYSTEM.CONST>
0

>  <SCORE.SYSTEM.DIHEDRAL>
0

>  <SCORE.SYSTEM.SOLV>
0

>  <SCORE.SYSTEM.norm>
0

>  <SCORE.heavy>
11

>  <SCORE.norm>
-0.397219

>  <RMSD>
6.769

$$$$
ligand
 OpenBabel02271912153D
libRbt.so/2013.1/901 2013/11/27
 11 12  0  0  0  0  0  0  0  0999 V2000
  -14.8198   -7.2953    8.2213 N   0  0  0  0  0  0  0  0  0  0  0  0
  -14.6350   -8.3131    7.3653 C   0  0  0  0  0  0  0  0  0  0  0  0
  -15.4772   -9.3424    7.3713 N   0  0  0  0  0  0  0  0  0  0  0  0
  -13.6010   -8.3061    6.5097 N   0  0  0  0  0  0  0  0  0  0  0  0
  -12.7314   -7.2851    6.4950 C   0  0  0  0  0  0  0  0  0  0  0  0
  -12.8994   -6.2196    7.3703 C   0  0  0  0  0  0  0  0  0  0  0  0
  -13.9799   -6.2484    8.2458 C   0  0  0  0  0  0  0  0  0  0  0  0
  -14.1839   -5.2448    9.0938 N   0  0  0  0  0  0  0  0  0  0  0  0
  -11.9027   -5.3657    7.1571 N   0  0  0  0  0  0  0  0  0  0  0  0
  -11.1367   -5.8668    6.1907 C   0  0  0  0  0  0  0  0  0  0  0  0
  -11.6358   -7.0324    5.7847 N   0  0  0  0  0  0  0  0  0  0  0  0
  1  7  2  0  0  0  0
  1  2  1  0  0  0  0
  2  3  1  0  0  0  0
  2  4  2  0  0  0  0
  4  5  1  0  0  0  0
  5  6  2  0  0  0  0
  5 11  1  0  0  0  0
  6  7  1  0  0  0  0
  6  9  1  0  0  0  0
  7  8  1  0  0  0  0
  9 10  1  0  0  0  0
 10 11  2  0  0  0  0
M  END
>  <CHROM.1>
-13.38379400,-6.96809774,7.26342714,2.81117192,-0.59487834,-2.54087002

>  <Name>
ligand

>  <RI>
0

>  <Rbt.Current_Directory>
/home/itssahil/PROJECTS/Mol_Feturizer/Test_systems_manuscript/rnas/2b57

>  <Rbt.Executable>
rbdock ($Id: //depot/dev/client3/rdock/2013.1/src/exe/rbdock.cxx#4 $)

>  <Rbt.Library>
libRbt.so (2013.1, Build901 2013/11/27)

>  <Rbt.Parameter_File>
/export/apps/rDock/src/rDock_2013.1_src/data/scripts/dock_solv.prm

>  <Rbt.Receptor>
prm/pocket_docking_8.prm

>  <SCORE>
-4.39067

>  <SCORE.INTER>
-4.39067

>  <SCORE.INTER.CONST>
1

>  <SCORE.INTER.POLAR>
0

>  <SCORE.INTER.ROT>
0

>  <SCORE.INTER.SOLV>
7.08384

>  <SCORE.INTER.VDW>
-8.88839

>  <SCORE.INTER.norm>
-0.399152

>  <SCORE.INTRA>
0

>  <SCORE.INTRA.DIHEDRAL>
0

>  <SCORE.INTRA.DIHEDRAL.0>
0

>  <SCORE.INTRA.POLAR>
0

>  <SCORE.INTRA.POLAR.0>
0

>  <SCORE.INTRA.REPUL>
0

>  <SCORE.INTRA.REPUL.0>
0

>  <SCORE.INTRA.SOLV>
0

>  <SCORE.INTRA.SOLV.lig_0>
-48.3454

>  <SCORE.INTRA.VDW>
0

>  <SCORE.INTRA.VDW.0>
0

>  <SCORE.INTRA.norm>
0

>  <SCORE.RESTR>
0

>  <SCORE.RESTR.CAVITY>
0

>  <SCORE.RESTR.norm>
0

>  <SCORE.SYSTEM>
0

>  <SCORE.SYSTEM.CONST>
0

>  <SCORE.SYSTEM.DIHEDRAL>
0

>  <SCORE.SYSTEM.SOLV>
0

>  <SCORE.SYSTEM.norm>
0

>  <SCORE.heavy>
11

>  <SCORE.norm>
-0.399152

>  <RMSD>
6.785

$$$$
ligand
 OpenBabel02271912153D
libRbt.so/2013.1/901 2013/11/27
 11 12  0  0  0  0  0  0  0  0999 V2000
  -11.5224   -4.7000    6.5771 N   0  0  0  0  0  0  0  0  0  0  0  0
  -11.8532   -5.9653    6.2733 C   0  0  0  0  0  0  0  0  0  0  0  0
  -12.4579   -6.7261    7.1813 N   0  0  0  0  0  0  0  0  0  0  0  0
  -11.5697   -6.4733    5.0639 N   0  0  0  0  0  0  0  0  0  0  0  0
  -10.9484   -5.7290    4.1372 C   0  0  0  0  0  0  0  0  0  0  0  0
  -10.5950   -4.4169    4.4256 C   0  0  0  0  0  0  0  0  0  0  0  0
  -10.9017   -3.9122    5.6849 C   0  0  0  0  0  0  0  0  0  0  0  0
  -10.5902   -2.6584    5.9999 N   0  0  0  0  0  0  0  0  0  0  0  0
   -9.9879   -3.9207    3.3517 N   0  0  0  0  0  0  0  0  0  0  0  0
   -9.9569   -4.8749    2.4240 C   0  0  0  0  0  0  0  0  0  0  0  0
  -10.5394   -5.9751    2.8959 N   0  0  0  0  0  0  0  0  0  0  0  0
  1  7  2  0  0  0  0
  1  2  1  0  0  0  0
  2  3  1  0  0  0  0
  2  4  2  0  0  0  0
  4  5  1  0  0  0  0
  5  6  2  0  0  0  0
  5 11  1  0  0  0  0
  6  7  1  0  0  0  0
  6  9  1  0  0  0  0
  7  8  1  0  0  0  0
  9 10  1  0  0  0  0
 10 11  2  0  0  0  0
M  END
>  <CHROM.1>
-11.00280209,-5.03562549,4.93269447,-2.75125651,-1.08803952,-2.40875201

>  <Name>
ligand

>  <RI>
0

>  <Rbt.Current_Directory>
/home/itssahil/PROJECTS/Mol_Feturizer/Test_systems_manuscript/rnas/2b57

>  <Rbt.Executable>
rbdock ($Id: //depot/dev/client3/rdock/2013.1/src/exe/rbdock.cxx#4 $)

>  <Rbt.Library>
libRbt.so (2013.1, Build901 2013/11/27)

>  <Rbt.Parameter_File>
/export/apps/rDock/src/rDock_2013.1_src/data/scripts/dock_solv.prm

>  <Rbt.Receptor>
prm/blind_docking_80.prm

>  <SCORE>
-8.43228

>  <SCORE.INTER>
-8.43228

>  <SCORE.INTER.CONST>
1

>  <SCORE.INTER.POLAR>
0

>  <SCORE.INTER.ROT>
0

>  <SCORE.INTER.SOLV>
7.63698

>  <SCORE.INTER.VDW>
-11.7672

>  <SCORE.INTER.norm>
-0.766571

>  <SCORE.INTRA>
0

>  <SCORE.INTRA.DIHEDRAL>
0

>  <SCORE.INTRA.DIHEDRAL.0>
0

>  <SCORE.INTRA.POLAR>
0

>  <SCORE.INTRA.POLAR.0>
0

>  <SCORE.INTRA.REPUL>
0

>  <SCORE.INTRA.REPUL.0>
0

>  <SCORE.INTRA.SOLV>
0

>  <SCORE.INTRA.SOLV.lig_0>
-48.3454

>  <SCORE.INTRA.VDW>
0

>  <SCORE.INTRA.VDW.0>
0

>  <SCORE.INTRA.norm>
0

>  <SCORE.RESTR>
0

>  <SCORE.RESTR.CAVITY>
0

>  <SCORE.RESTR.norm>
0

>  <SCORE.SYSTEM>
0

>  <SCORE.SYSTEM.CONST>
0

>  <SCORE.SYSTEM.DIHEDRAL>
0

>  <SCORE.SYSTEM.SOLV>
0

>  <SCORE.SYSTEM.norm>
0

>  <SCORE.heavy>
11

>  <SCORE.norm>
-0.766571

>  <RMSD>
8.706

$$$$
ligand
 OpenBabel02271912153D
libRbt.so/2013.1/901 2013/11/27
 11 12  0  0  0  0  0  0  0  0999 V2000
  -11.5575   -4.6911    6.5998 N   0  0  0  0  0  0  0  0  0  0  0  0
  -11.8520   -5.9642    6.2914 C   0  0  0  0  0  0  0  0  0  0  0  0
  -12.4439   -6.7422    7.1932 N   0  0  0  0  0  0  0  0  0  0  0  0
  -11.5450   -6.4625    5.0837 N   0  0  0  0  0  0  0  0  0  0  0  0
  -10.9359   -5.7004    4.1633 C   0  0  0  0  0  0  0  0  0  0  0  0
  -10.6199   -4.3799    4.4566 C   0  0  0  0  0  0  0  0  0  0  0  0
  -10.9505   -3.8856    5.7140 C   0  0  0  0  0  0  0  0  0  0  0  0
  -10.6750   -2.6245    6.0335 N   0  0  0  0  0  0  0  0  0  0  0  0
  -10.0172   -3.8660    3.3886 N   0  0  0  0  0  0  0  0  0  0  0  0
   -9.9532   -4.8174    2.4598 C   0  0  0  0  0  0  0  0  0  0  0  0
  -10.5102   -5.9335    2.9251 N   0  0  0  0  0  0  0  0  0  0  0  0
  1  7  2  0  0  0  0
  1  2  1  0  0  0  0
  2  3  1  0  0  0  0
  2  4  2  0  0  0  0
  4  5  1  0  0  0  0
  5  6  2  0  0  0  0
  5 11  1  0  0  0  0
  6  7  1  0  0  0  0
  6  9  1  0  0  0  0
  7  8  1  0  0  0  0
  9 10  1  0  0  0  0
 10 11  2  0  0  0  0
M  END
>  <CHROM.1>
-11.01541690,-5.01004432,4.95935825,-2.80698105,-1.09894529,-2.45669362

>  <Name>
ligand

>  <RI>
0

>  <Rbt.Current_Directory>
/home/itssahil/PROJECTS/Mol_Feturizer/Test_systems_manuscript/rnas/2b57

>  <Rbt.Executable>
rbdock ($Id: //depot/dev/client3/rdock/2013.1/src/exe/rbdock.cxx#4 $)

>  <Rbt.Library>
libRbt.so (2013.1, Build901 2013/11/27)

>  <Rbt.Parameter_File>
/export/apps/rDock/src/rDock_2013.1_src/data/scripts/dock_solv.prm

>  <Rbt.Receptor>
prm/blind_docking_80.prm

>  <SCORE>
-8.45656

>  <SCORE.INTER>
-8.45656

>  <SCORE.INTER.CONST>
1

>  <SCORE.INTER.POLAR>
0

>  <SCORE.INTER.ROT>
0

>  <SCORE.INTER.SOLV>
7.47744

>  <SCORE.INTER.VDW>
-11.7302

>  <SCORE.INTER.norm>
-0.768778

>  <SCORE.INTRA>
0

>  <SCORE.INTRA.DIHEDRAL>
0

>  <SCORE.INTRA.DIHEDRAL.0>
0

>  <SCORE.INTRA.POLAR>
0

>  <SCORE.INTRA.POLAR.0>
0

>  <SCORE.INTRA.REPUL>
0

>  <SCORE.INTRA.REPUL.0>
0

>  <SCORE.INTRA.SOLV>
0

>  <SCORE.INTRA.SOLV.lig_0>
-48.3454

>  <SCORE.INTRA.VDW>
0

>  <SCORE.INTRA.VDW.0>
0

>  <SCORE.INTRA.norm>
0

>  <SCORE.RESTR>
0

>  <SCORE.RESTR.CAVITY>
0

>  <SCORE.RESTR.norm>
0

>  <SCORE.SYSTEM>
0

>  <SCORE.SYSTEM.CONST>
0

>  <SCORE.SYSTEM.DIHEDRAL>
0

>  <SCORE.SYSTEM.SOLV>
0

>  <SCORE.SYSTEM.norm>
0

>  <SCORE.heavy>
11

>  <SCORE.norm>
-0.768778

>  <RMSD>
8.719

$$$$
ligand
 OpenBabel02271912153D
libRbt.so/2013.1/901 2013/11/27
 11 12  0  0  0  0  0  0  0  0999 V2000
  -11.5421   -4.6951    6.6003 N   0  0  0  0  0  0  0  0  0  0  0  0
  -11.8355   -5.9682    6.2906 C   0  0  0  0  0  0  0  0  0  0  0  0
  -12.4143   -6.7516    7.1963 N   0  0  0  0  0  0  0  0  0  0  0  0
  -11.5404   -6.4610    5.0777 N   0  0  0  0  0  0  0  0  0  0  0  0
  -10.9445   -5.6934    4.1532 C   0  0  0  0  0  0  0  0  0  0  0  0
  -10.6300   -4.3728    4.4477 C   0  0  0  0  0  0  0  0  0  0  0  0
  -10.9480   -3.8842    5.7106 C   0  0  0  0  0  0  0  0  0  0  0  0
  -10.6735   -2.6233    6.0314 N   0  0  0  0  0  0  0  0  0  0  0  0
  -10.0413   -3.8529    3.3748 N   0  0  0  0  0  0  0  0  0  0  0  0
   -9.9844   -4.8008    2.4419 C   0  0  0  0  0  0  0  0  0  0  0  0
  -10.5321   -5.9206    2.9095 N   0  0  0  0  0  0  0  0  0  0  0  0
  1  7  2  0  0  0  0
  1  2  1  0  0  0  0
  2  3  1  0  0  0  0
  2  4  2  0  0  0  0
  4  5  1  0  0  0  0
  5  6  2  0  0  0  0
  5 11  1  0  0  0  0
  6  7  1  0  0  0  0
  6  9  1  0  0  0  0
  7  8  1  0  0  0  0
  9 10  1  0  0  0  0
 10 11  2  0  0  0  0
M  END
>  <CHROM.1>
-11.01748065,-5.00619937,4.95263386,-2.79712868,-1.10999538,-2.44429984

>  <Name>
ligand

>  <RI>
0

>  <Rbt.Current_Directory>
/home/itssahil/PROJECTS/Mol_Feturizer/Test_systems_manuscript/rnas/2b57

>  <Rbt.Executable>
rbdock ($Id: //depot/dev/client3/rdock/2013.1/src/exe/rbdock.cxx#4 $)

>  <Rbt.Library>
libRbt.so (2013.1, Build901 2013/11/27)

>  <Rbt.Parameter_File>
/export/apps/rDock/src/rDock_2013.1_src/data/scripts/dock_solv.prm

>  <Rbt.Receptor>
prm/blind_docking_40.prm

>  <SCORE>
-8.4208

>  <SCORE.INTER>
-8.42108

>  <SCORE.INTER.CONST>
1

>  <SCORE.INTER.POLAR>
0

>  <SCORE.INTER.ROT>
0

>  <SCORE.INTER.SOLV>
7.56804

>  <SCORE.INTER.VDW>
-11.7367

>  <SCORE.INTER.norm>
-0.765552

>  <SCORE.INTRA>
0

>  <SCORE.INTRA.DIHEDRAL>
0

>  <SCORE.INTRA.DIHEDRAL.0>
0

>  <SCORE.INTRA.POLAR>
0

>  <SCORE.INTRA.POLAR.0>
0

>  <SCORE.INTRA.REPUL>
0

>  <SCORE.INTRA.REPUL.0>
0

>  <SCORE.INTRA.SOLV>
0

>  <SCORE.INTRA.SOLV.lig_0>
-48.3454

>  <SCORE.INTRA.VDW>
0

>  <SCORE.INTRA.VDW.0>
0

>  <SCORE.INTRA.norm>
0

>  <SCORE.RESTR>
0.000272405

>  <SCORE.RESTR.CAVITY>
0.000272405

>  <SCORE.RESTR.norm>
2.47641e-05

>  <SCORE.SYSTEM>
0

>  <SCORE.SYSTEM.CONST>
0

>  <SCORE.SYSTEM.DIHEDRAL>
0

>  <SCORE.SYSTEM.SOLV>
0

>  <SCORE.SYSTEM.norm>
0

>  <SCORE.heavy>
11

>  <SCORE.norm>
-0.765528

>  <RMSD>
8.724

$$$$
ligand
 OpenBabel02271912153D
libRbt.so/2013.1/901 2013/11/27
 11 12  0  0  0  0  0  0  0  0999 V2000
  -11.5595   -4.6906    6.6001 N   0  0  0  0  0  0  0  0  0  0  0  0
  -11.8474   -5.9654    6.2925 C   0  0  0  0  0  0  0  0  0  0  0  0
  -12.4241   -6.7494    7.1989 N   0  0  0  0  0  0  0  0  0  0  0  0
  -11.5488   -6.4593    5.0809 N   0  0  0  0  0  0  0  0  0  0  0  0
  -10.9549   -5.6911    4.1557 C   0  0  0  0  0  0  0  0  0  0  0  0
  -10.6461   -4.3686    4.4480 C   0  0  0  0  0  0  0  0  0  0  0  0
  -10.9677   -3.8789    5.7096 C   0  0  0  0  0  0  0  0  0  0  0  0
  -10.6986   -2.6164    6.0284 N   0  0  0  0  0  0  0  0  0  0  0  0
  -10.0582   -3.8484    3.3749 N   0  0  0  0  0  0  0  0  0  0  0  0
   -9.9963   -4.7978    2.4439 C   0  0  0  0  0  0  0  0  0  0  0  0
  -10.5400   -5.9189    2.9129 N   0  0  0  0  0  0  0  0  0  0  0  0
  1  7  2  0  0  0  0
  1  2  1  0  0  0  0
  2  3  1  0  0  0  0
  2  4  2  0  0  0  0
  4  5  1  0  0  0  0
  5  6  2  0  0  0  0
  5 11  1  0  0  0  0
  6  7  1  0  0  0  0
  6  9  1  0  0  0  0
  7  8  1  0  0  0  0
  9 10  1  0  0  0  0
 10 11  2  0  0  0  0
M  END
>  <CHROM.1>
-11.03163457,-5.00265542,4.95371059,-2.80594062,-1.11163698,-2.45409128

>  <Name>
ligand

>  <RI>
0

>  <Rbt.Current_Directory>
/home/itssahil/PROJECTS/Mol_Feturizer/Test_systems_manuscript/rnas/2b57

>  <Rbt.Executable>
rbdock ($Id: //depot/dev/client3/rdock/2013.1/src/exe/rbdock.cxx#4 $)

>  <Rbt.Library>
libRbt.so (2013.1, Build901 2013/11/27)

>  <Rbt.Parameter_File>
/export/apps/rDock/src/rDock_2013.1_src/data/scripts/dock_solv.prm

>  <Rbt.Receptor>
prm/blind_docking_80.prm

>  <SCORE>
-8.43814

>  <SCORE.INTER>
-8.43825

>  <SCORE.INTER.CONST>
1

>  <SCORE.INTER.POLAR>
0

>  <SCORE.INTER.ROT>
0

>  <SCORE.INTER.SOLV>
7.49891

>  <SCORE.INTER.VDW>
-11.7251

>  <SCORE.INTER.norm>
-0.767114

>  <SCORE.INTRA>
0

>  <SCORE.INTRA.DIHEDRAL>
0

>  <SCORE.INTRA.DIHEDRAL.0>
0

>  <SCORE.INTRA.POLAR>
0

>  <SCORE.INTRA.POLAR.0>
0

>  <SCORE.INTRA.REPUL>
0

>  <SCORE.INTRA.REPUL.0>
0

>  <SCORE.INTRA.SOLV>
0

>  <SCORE.INTRA.SOLV.lig_0>
-48.3454

>  <SCORE.INTRA.VDW>
0

>  <SCORE.INTRA.VDW.0>
0

>  <SCORE.INTRA.norm>
0

>  <SCORE.RESTR>
0.000109275

>  <SCORE.RESTR.CAVITY>
0.000109275

>  <SCORE.RESTR.norm>
9.93412e-06

>  <SCORE.SYSTEM>
0

>  <SCORE.SYSTEM.CONST>
0

>  <SCORE.SYSTEM.DIHEDRAL>
0

>  <SCORE.SYSTEM.SOLV>
0

>  <SCORE.SYSTEM.norm>
0

>  <SCORE.heavy>
11

>  <SCORE.norm>
-0.767104

>  <RMSD>
8.726

$$$$
ligand
 OpenBabel02271912153D
libRbt.so/2013.1/901 2013/11/27
 11 12  0  0  0  0  0  0  0  0999 V2000
  -11.1405   -4.1975    6.5165 N   0  0  0  0  0  0  0  0  0  0  0  0
  -10.5789   -3.0767    6.0358 C   0  0  0  0  0  0  0  0  0  0  0  0
  -10.4407   -2.0159    6.8260 N   0  0  0  0  0  0  0  0  0  0  0  0
  -10.1646   -3.0135    4.7608 N   0  0  0  0  0  0  0  0  0  0  0  0
  -10.3061   -4.0662    3.9420 C   0  0  0  0  0  0  0  0  0  0  0  0
  -10.8840   -5.2380    4.4139 C   0  0  0  0  0  0  0  0  0  0  0  0
  -11.3031   -5.2801    5.7395 C   0  0  0  0  0  0  0  0  0  0  0  0
  -11.8527   -6.3848    6.2352 N   0  0  0  0  0  0  0  0  0  0  0  0
  -10.9148   -6.1035    3.4049 N   0  0  0  0  0  0  0  0  0  0  0  0
  -10.3811   -5.5078    2.3409 C   0  0  0  0  0  0  0  0  0  0  0  0
  -10.0093   -4.2703    2.6618 N   0  0  0  0  0  0  0  0  0  0  0  0
  1  7  2  0  0  0  0
  1  2  1  0  0  0  0
  2  3  1  0  0  0  0
  2  4  2  0  0  0  0
  4  5  1  0  0  0  0
  5  6  2  0  0  0  0
  5 11  1  0  0  0  0
  6  7  1  0  0  0  0
  6  9  1  0  0  0  0
  7  8  1  0  0  0  0
  9 10  1  0  0  0  0
 10 11  2  0  0  0  0
M  END
>  <CHROM.1>
-10.72747064,-4.45713117,4.82868450,1.66174225,1.12791553,0.88765455

>  <Name>
ligand

>  <RI>
0

>  <Rbt.Current_Directory>
/home/itssahil/PROJECTS/Mol_Feturizer/Test_systems_manuscript/rnas/2b57

>  <Rbt.Executable>
rbdock ($Id: //depot/dev/client3/rdock/2013.1/src/exe/rbdock.cxx#4 $)

>  <Rbt.Library>
libRbt.so (2013.1, Build901 2013/11/27)

>  <Rbt.Parameter_File>
/export/apps/rDock/src/rDock_2013.1_src/data/scripts/dock_solv.prm

>  <Rbt.Receptor>
prm/blind_docking_40.prm

>  <SCORE>
-7.25447

>  <SCORE.INTER>
-7.25447

>  <SCORE.INTER.CONST>
1

>  <SCORE.INTER.POLAR>
0

>  <SCORE.INTER.ROT>
0

>  <SCORE.INTER.SOLV>
10.4949

>  <SCORE.INTER.VDW>
-11.9346

>  <SCORE.INTER.norm>
-0.659497

>  <SCORE.INTRA>
0

>  <SCORE.INTRA.DIHEDRAL>
0

>  <SCORE.INTRA.DIHEDRAL.0>
0

>  <SCORE.INTRA.POLAR>
0

>  <SCORE.INTRA.POLAR.0>
0

>  <SCORE.INTRA.REPUL>
0

>  <SCORE.INTRA.REPUL.0>
0

>  <SCORE.INTRA.SOLV>
0

>  <SCORE.INTRA.SOLV.lig_0>
-48.3454

>  <SCORE.INTRA.VDW>
0

>  <SCORE.INTRA.VDW.0>
0

>  <SCORE.INTRA.norm>
0

>  <SCORE.RESTR>
0

>  <SCORE.RESTR.CAVITY>
0

>  <SCORE.RESTR.norm>
0

>  <SCORE.SYSTEM>
0

>  <SCORE.SYSTEM.CONST>
0

>  <SCORE.SYSTEM.DIHEDRAL>
0

>  <SCORE.SYSTEM.SOLV>
0

>  <SCORE.SYSTEM.norm>
0

>  <SCORE.heavy>
11

>  <SCORE.norm>
-0.659497

>  <RMSD>
9.562

$$$$
ligand
 OpenBabel02271912153D
libRbt.so/2013.1/901 2013/11/27
 11 12  0  0  0  0  0  0  0  0999 V2000
  -11.2978   -2.2683    5.4469 N   0  0  0  0  0  0  0  0  0  0  0  0
  -10.7221   -3.2199    6.1991 C   0  0  0  0  0  0  0  0  0  0  0  0
  -10.5298   -3.0086    7.4981 N   0  0  0  0  0  0  0  0  0  0  0  0
  -10.3290   -4.3795    5.6496 N   0  0  0  0  0  0  0  0  0  0  0  0
  -10.5006   -4.6091    4.3394 C   0  0  0  0  0  0  0  0  0  0  0  0
  -11.0935   -3.6413    3.5384 C   0  0  0  0  0  0  0  0  0  0  0  0
  -11.4947   -2.4488    4.1314 C   0  0  0  0  0  0  0  0  0  0  0  0
  -12.0751   -1.4991    3.4038 N   0  0  0  0  0  0  0  0  0  0  0  0
  -11.1267   -4.1151    2.2965 N   0  0  0  0  0  0  0  0  0  0  0  0
  -10.5792   -5.3284    2.3087 C   0  0  0  0  0  0  0  0  0  0  0  0
  -10.1976   -5.6335    3.5472 N   0  0  0  0  0  0  0  0  0  0  0  0
  1  7  2  0  0  0  0
  1  2  1  0  0  0  0
  2  3  1  0  0  0  0
  2  4  2  0  0  0  0
  4  5  1  0  0  0  0
  5  6  2  0  0  0  0
  5 11  1  0  0  0  0
  6  7  1  0  0  0  0
  6  9  1  0  0  0  0
  7  8  1  0  0  0  0
  9 10  1  0  0  0  0
 10 11  2  0  0  0  0
M  END
>  <CHROM.1>
-10.90599723,-3.63634024,4.41656219,1.61845702,-1.11341849,1.13322900

>  <Name>
ligand

>  <RI>
0

>  <Rbt.Current_Directory>
/home/itssahil/PROJECTS/Mol_Feturizer/Test_systems_manuscript/rnas/2b57

>  <Rbt.Executable>
rbdock ($Id: //depot/dev/client3/rdock/2013.1/src/exe/rbdock.cxx#4 $)

>  <Rbt.Library>
libRbt.so (2013.1, Build901 2013/11/27)

>  <Rbt.Parameter_File>
/export/apps/rDock/src/rDock_2013.1_src/data/scripts/dock_solv.prm

>  <Rbt.Receptor>
prm/blind_docking_20.prm

>  <SCORE>
-6.81692

>  <SCORE.INTER>
-6.81692

>  <SCORE.INTER.CONST>
1

>  <SCORE.INTER.POLAR>
0

>  <SCORE.INTER.ROT>
0

>  <SCORE.INTER.SOLV>
2.84567

>  <SCORE.INTER.VDW>
-9.09317

>  <SCORE.INTER.norm>
-0.61972

>  <SCORE.INTRA>
0

>  <SCORE.INTRA.DIHEDRAL>
0

>  <SCORE.INTRA.DIHEDRAL.0>
0

>  <SCORE.INTRA.POLAR>
0

>  <SCORE.INTRA.POLAR.0>
0

>  <SCORE.INTRA.REPUL>
0

>  <SCORE.INTRA.REPUL.0>
0

>  <SCORE.INTRA.SOLV>
0

>  <SCORE.INTRA.SOLV.lig_0>
-48.3454

>  <SCORE.INTRA.VDW>
0

>  <SCORE.INTRA.VDW.0>
0

>  <SCORE.INTRA.norm>
0

>  <SCORE.RESTR>
0

>  <SCORE.RESTR.CAVITY>
0

>  <SCORE.RESTR.norm>
0

>  <SCORE.SYSTEM>
0

>  <SCORE.SYSTEM.CONST>
0

>  <SCORE.SYSTEM.DIHEDRAL>
0

>  <SCORE.SYSTEM.SOLV>
0

>  <SCORE.SYSTEM.norm>
0

>  <SCORE.heavy>
11

>  <SCORE.norm>
-0.61972

>  <RMSD>
10.206

$$$$
ligand
 OpenBabel02271912153D
libRbt.so/2013.1/901 2013/11/27
 11 12  0  0  0  0  0  0  0  0999 V2000
  -12.1170   -3.2620    5.9862 N   0  0  0  0  0  0  0  0  0  0  0  0
  -12.0447   -2.2576    5.0981 C   0  0  0  0  0  0  0  0  0  0  0  0
  -12.5556   -1.0681    5.4033 N   0  0  0  0  0  0  0  0  0  0  0  0
  -11.4703   -2.4459    3.9000 N   0  0  0  0  0  0  0  0  0  0  0  0
  -10.9605   -3.6405    3.5653 C   0  0  0  0  0  0  0  0  0  0  0  0
  -11.0222   -4.6966    4.4655 C   0  0  0  0  0  0  0  0  0  0  0  0
  -11.6201   -4.4762    5.7019 C   0  0  0  0  0  0  0  0  0  0  0  0
  -11.6920   -5.4565    6.5973 N   0  0  0  0  0  0  0  0  0  0  0  0
  -10.4648   -5.7532    3.8816 N   0  0  0  0  0  0  0  0  0  0  0  0
  -10.0678   -5.3844    2.6658 C   0  0  0  0  0  0  0  0  0  0  0  0
  -10.3661   -4.1020    2.4687 N   0  0  0  0  0  0  0  0  0  0  0  0
  1  7  2  0  0  0  0
  1  2  1  0  0  0  0
  2  3  1  0  0  0  0
  2  4  2  0  0  0  0
  4  5  1  0  0  0  0
  5  6  2  0  0  0  0
  5 11  1  0  0  0  0
  6  7  1  0  0  0  0
  6  9  1  0  0  0  0
  7  8  1  0  0  0  0
  9 10  1  0  0  0  0
 10 11  2  0  0  0  0
M  END
>  <CHROM.1>
-11.31874886,-3.85206148,4.53662992,2.87117780,1.08877036,-0.62862561

>  <Name>
ligand

>  <RI>
0

>  <Rbt.Current_Directory>
/home/itssahil/PROJECTS/Mol_Feturizer/Test_systems_manuscript/rnas/2b57

>  <Rbt.Executable>
rbdock ($Id: //depot/dev/client3/rdock/2013.1/src/exe/rbdock.cxx#4 $)

>  <Rbt.Library>
libRbt.so (2013.1, Build901 2013/11/27)

>  <Rbt.Parameter_File>
/export/apps/rDock/src/rDock_2013.1_src/data/scripts/dock_solv.prm

>  <Rbt.Receptor>
prm/blind_docking_40.prm

>  <SCORE>
-6.65565

>  <SCORE.INTER>
-6.6557

>  <SCORE.INTER.CONST>
1

>  <SCORE.INTER.POLAR>
0

>  <SCORE.INTER.ROT>
0

>  <SCORE.INTER.SOLV>
4.67377

>  <SCORE.INTER.VDW>
-9.59505

>  <SCORE.INTER.norm>
-0.605063

>  <SCORE.INTRA>
0

>  <SCORE.INTRA.DIHEDRAL>
0

>  <SCORE.INTRA.DIHEDRAL.0>
0

>  <SCORE.INTRA.POLAR>
0

>  <SCORE.INTRA.POLAR.0>
0

>  <SCORE.INTRA.REPUL>
0

>  <SCORE.INTRA.REPUL.0>
0

>  <SCORE.INTRA.SOLV>
0

>  <SCORE.INTRA.SOLV.lig_0>
-48.3454

>  <SCORE.INTRA.VDW>
0

>  <SCORE.INTRA.VDW.0>
0

>  <SCORE.INTRA.norm>
0

>  <SCORE.RESTR>
4.78702e-05

>  <SCORE.RESTR.CAVITY>
4.78702e-05

>  <SCORE.RESTR.norm>
4.35184e-06

>  <SCORE.SYSTEM>
0

>  <SCORE.SYSTEM.CONST>
0

>  <SCORE.SYSTEM.DIHEDRAL>
0

>  <SCORE.SYSTEM.SOLV>
0

>  <SCORE.SYSTEM.norm>
0

>  <SCORE.heavy>
11

>  <SCORE.norm>
-0.605059

>  <RMSD>
10.231

$$$$
ligand
 OpenBabel02271912153D
libRbt.so/2013.1/901 2013/11/27
 11 12  0  0  0  0  0  0  0  0999 V2000
  -11.3670   -2.0595    5.4766 N   0  0  0  0  0  0  0  0  0  0  0  0
  -10.7480   -2.9777    6.2357 C   0  0  0  0  0  0  0  0  0  0  0  0
  -10.5539   -2.7423    7.5303 N   0  0  0  0  0  0  0  0  0  0  0  0
  -10.3136   -4.1279    5.6975 N   0  0  0  0  0  0  0  0  0  0  0  0
  -10.4863   -4.3809    4.3917 C   0  0  0  0  0  0  0  0  0  0  0  0
  -11.1235   -3.4478    3.5838 C   0  0  0  0  0  0  0  0  0  0  0  0
  -11.5670   -2.2645    4.1651 C   0  0  0  0  0  0  0  0  0  0  0  0
  -12.1904   -1.3480    3.4306 N   0  0  0  0  0  0  0  0  0  0  0  0
  -11.1476   -3.9385    2.3482 N   0  0  0  0  0  0  0  0  0  0  0  0
  -10.5523   -5.1289    2.3710 C   0  0  0  0  0  0  0  0  0  0  0  0
  -10.1491   -5.4026    3.6099 N   0  0  0  0  0  0  0  0  0  0  0  0
  1  7  2  0  0  0  0
  1  2  1  0  0  0  0
  2  3  1  0  0  0  0
  2  4  2  0  0  0  0
  4  5  1  0  0  0  0
  5  6  2  0  0  0  0
  5 11  1  0  0  0  0
  6  7  1  0  0  0  0
  6  9  1  0  0  0  0
  7  8  1  0  0  0  0
  9 10  1  0  0  0  0
 10 11  2  0  0  0  0
M  END
>  <CHROM.1>
-10.92934745,-3.42406742,4.46015516,1.63870721,-1.07398320,1.13852204

>  <Name>
ligand

>  <RI>
0

>  <Rbt.Current_Directory>
/home/itssahil/PROJECTS/Mol_Feturizer/Test_systems_manuscript/rnas/2b57

>  <Rbt.Executable>
rbdock ($Id: //depot/dev/client3/rdock/2013.1/src/exe/rbdock.cxx#4 $)

>  <Rbt.Library>
libRbt.so (2013.1, Build901 2013/11/27)

>  <Rbt.Parameter_File>
/export/apps/rDock/src/rDock_2013.1_src/data/scripts/dock_solv.prm

>  <Rbt.Receptor>
prm/blind_docking_20.prm

>  <SCORE>
-6.74258

>  <SCORE.INTER>
-6.74258

>  <SCORE.INTER.CONST>
1

>  <SCORE.INTER.POLAR>
0

>  <SCORE.INTER.ROT>
0

>  <SCORE.INTER.SOLV>
2.17068

>  <SCORE.INTER.VDW>
-8.81861

>  <SCORE.INTER.norm>
-0.612961

>  <SCORE.INTRA>
0

>  <SCORE.INTRA.DIHEDRAL>
0

>  <SCORE.INTRA.DIHEDRAL.0>
0

>  <SCORE.INTRA.POLAR>
0

>  <SCORE.INTRA.POLAR.0>
0

>  <SCORE.INTRA.REPUL>
0

>  <SCORE.INTRA.REPUL.0>
0

>  <SCORE.INTRA.SOLV>
0

>  <SCORE.INTRA.SOLV.lig_0>
-48.3454

>  <SCORE.INTRA.VDW>
0

>  <SCORE.INTRA.VDW.0>
0

>  <SCORE.INTRA.norm>
0

>  <SCORE.RESTR>
0

>  <SCORE.RESTR.CAVITY>
0

>  <SCORE.RESTR.norm>
0

>  <SCORE.SYSTEM>
0

>  <SCORE.SYSTEM.CONST>
0

>  <SCORE.SYSTEM.DIHEDRAL>
0

>  <SCORE.SYSTEM.SOLV>
0

>  <SCORE.SYSTEM.norm>
0

>  <SCORE.heavy>
11

>  <SCORE.norm>
-0.612961

>  <RMSD>
10.392

$$$$
ligand
 OpenBabel02271912153D
libRbt.so/2013.1/901 2013/11/27
 11 12  0  0  0  0  0  0  0  0999 V2000
  -11.9730   -2.1871    4.3637 N   0  0  0  0  0  0  0  0  0  0  0  0
  -11.3436   -2.7473    5.4090 C   0  0  0  0  0  0  0  0  0  0  0  0
  -11.3877   -2.1573    6.6001 N   0  0  0  0  0  0  0  0  0  0  0  0
  -10.6609   -3.8932    5.2604 N   0  0  0  0  0  0  0  0  0  0  0  0
  -10.5915   -4.4988    4.0657 C   0  0  0  0  0  0  0  0  0  0  0  0
  -11.2336   -3.9404    2.9678 C   0  0  0  0  0  0  0  0  0  0  0  0
  -11.9368   -2.7538    3.1473 C   0  0  0  0  0  0  0  0  0  0  0  0
  -12.5741   -2.1898    2.1256 N   0  0  0  0  0  0  0  0  0  0  0  0
  -10.9934   -4.7254    1.9218 N   0  0  0  0  0  0  0  0  0  0  0  0
  -10.2330   -5.7359    2.3370 C   0  0  0  0  0  0  0  0  0  0  0  0
   -9.9863   -5.6034    3.6386 N   0  0  0  0  0  0  0  0  0  0  0  0
  1  7  2  0  0  0  0
  1  2  1  0  0  0  0
  2  3  1  0  0  0  0
  2  4  2  0  0  0  0
  4  5  1  0  0  0  0
  5  6  2  0  0  0  0
  5 11  1  0  0  0  0
  6  7  1  0  0  0  0
  6  9  1  0  0  0  0
  7  8  1  0  0  0  0
  9 10  1  0  0  0  0
 10 11  2  0  0  0  0
M  END
>  <CHROM.1>
-11.18134863,-3.65768691,3.81846196,2.00309586,-0.96548165,1.17736449

>  <Name>
ligand

>  <RI>
0

>  <Rbt.Current_Directory>
/home/itssahil/PROJECTS/Mol_Feturizer/Test_systems_manuscript/rnas/2b57

>  <Rbt.Executable>
rbdock ($Id: //depot/dev/client3/rdock/2013.1/src/exe/rbdock.cxx#4 $)

>  <Rbt.Library>
libRbt.so (2013.1, Build901 2013/11/27)

>  <Rbt.Parameter_File>
/export/apps/rDock/src/rDock_2013.1_src/data/scripts/dock_solv.prm

>  <Rbt.Receptor>
prm/blind_docking_20.prm

>  <SCORE>
-6.98213

>  <SCORE.INTER>
-6.98225

>  <SCORE.INTER.CONST>
1

>  <SCORE.INTER.POLAR>
0

>  <SCORE.INTER.ROT>
0

>  <SCORE.INTER.SOLV>
2.83451

>  <SCORE.INTER.VDW>
-9.19967

>  <SCORE.INTER.norm>
-0.63475

>  <SCORE.INTRA>
0

>  <SCORE.INTRA.DIHEDRAL>
0

>  <SCORE.INTRA.DIHEDRAL.0>
0

>  <SCORE.INTRA.POLAR>
0

>  <SCORE.INTRA.POLAR.0>
0

>  <SCORE.INTRA.REPUL>
0

>  <SCORE.INTRA.REPUL.0>
0

>  <SCORE.INTRA.SOLV>
0

>  <SCORE.INTRA.SOLV.lig_0>
-48.3454

>  <SCORE.INTRA.VDW>
0

>  <SCORE.INTRA.VDW.0>
0

>  <SCORE.INTRA.norm>
0

>  <SCORE.RESTR>
0.000121187

>  <SCORE.RESTR.CAVITY>
0.000121187

>  <SCORE.RESTR.norm>
1.1017e-05

>  <SCORE.SYSTEM>
0

>  <SCORE.SYSTEM.CONST>
0

>  <SCORE.SYSTEM.DIHEDRAL>
0

>  <SCORE.SYSTEM.SOLV>
0

>  <SCORE.SYSTEM.norm>
0

>  <SCORE.heavy>
11

>  <SCORE.norm>
-0.634739

>  <RMSD>
10.460

$$$$
ligand
 OpenBabel02271912153D
libRbt.so/2013.1/901 2013/11/27
 11 12  0  0  0  0  0  0  0  0999 V2000
  -11.9983   -2.1819    4.3512 N   0  0  0  0  0  0  0  0  0  0  0  0
  -11.3938   -2.7468    5.4086 C   0  0  0  0  0  0  0  0  0  0  0  0
  -11.4618   -2.1593    6.5999 N   0  0  0  0  0  0  0  0  0  0  0  0
  -10.7122   -3.8948    5.2723 N   0  0  0  0  0  0  0  0  0  0  0  0
  -10.6189   -4.4980    4.0779 C   0  0  0  0  0  0  0  0  0  0  0  0
  -11.2349   -3.9347    2.9676 C   0  0  0  0  0  0  0  0  0  0  0  0
  -11.9377   -2.7460    3.1346 C   0  0  0  0  0  0  0  0  0  0  0  0
  -12.5505   -2.1774    2.1005 N   0  0  0  0  0  0  0  0  0  0  0  0
  -10.9749   -4.7182    1.9252 N   0  0  0  0  0  0  0  0  0  0  0  0
  -10.2273   -5.7325    2.3546 C   0  0  0  0  0  0  0  0  0  0  0  0
  -10.0085   -5.6038    3.6615 N   0  0  0  0  0  0  0  0  0  0  0  0
  1  7  2  0  0  0  0
  1  2  1  0  0  0  0
  2  3  1  0  0  0  0
  2  4  2  0  0  0  0
  4  5  1  0  0  0  0
  5  6  2  0  0  0  0
  5 11  1  0  0  0  0
  6  7  1  0  0  0  0
  6  9  1  0  0  0  0
  7  8  1  0  0  0  0
  9 10  1  0  0  0  0
 10 11  2  0  0  0  0
M  END
>  <CHROM.1>
-11.20024986,-3.65417755,3.81987097,2.03658979,-0.97688348,1.20731130

>  <Name>
ligand

>  <RI>
0

>  <Rbt.Current_Directory>
/home/itssahil/PROJECTS/Mol_Feturizer/Test_systems_manuscript/rnas/2b57

>  <Rbt.Executable>
rbdock ($Id: //depot/dev/client3/rdock/2013.1/src/exe/rbdock.cxx#4 $)

>  <Rbt.Library>
libRbt.so (2013.1, Build901 2013/11/27)

>  <Rbt.Parameter_File>
/export/apps/rDock/src/rDock_2013.1_src/data/scripts/dock_solv.prm

>  <Rbt.Receptor>
prm/blind_docking_20.prm

>  <SCORE>
-6.9799

>  <SCORE.INTER>
-6.9799

>  <SCORE.INTER.CONST>
1

>  <SCORE.INTER.POLAR>
0

>  <SCORE.INTER.ROT>
0

>  <SCORE.INTER.SOLV>
2.76614

>  <SCORE.INTER.VDW>
-9.17531

>  <SCORE.INTER.norm>
-0.634536

>  <SCORE.INTRA>
0

>  <SCORE.INTRA.DIHEDRAL>
0

>  <SCORE.INTRA.DIHEDRAL.0>
0

>  <SCORE.INTRA.POLAR>
0

>  <SCORE.INTRA.POLAR.0>
0

>  <SCORE.INTRA.REPUL>
0

>  <SCORE.INTRA.REPUL.0>
0

>  <SCORE.INTRA.SOLV>
0

>  <SCORE.INTRA.SOLV.lig_0>
-48.3454

>  <SCORE.INTRA.VDW>
0

>  <SCORE.INTRA.VDW.0>
0

>  <SCORE.INTRA.norm>
0

>  <SCORE.RESTR>
0

>  <SCORE.RESTR.CAVITY>
0

>  <SCORE.RESTR.norm>
0

>  <SCORE.SYSTEM>
0

>  <SCORE.SYSTEM.CONST>
0

>  <SCORE.SYSTEM.DIHEDRAL>
0

>  <SCORE.SYSTEM.SOLV>
0

>  <SCORE.SYSTEM.norm>
0

>  <SCORE.heavy>
11

>  <SCORE.norm>
-0.634536

>  <RMSD>
10.463

$$$$
ligand
 OpenBabel02271912153D
libRbt.so/2013.1/901 2013/11/27
 11 12  0  0  0  0  0  0  0  0999 V2000
  -11.9591   -2.2003    4.1816 N   0  0  0  0  0  0  0  0  0  0  0  0
  -11.3203   -2.7076    5.2480 C   0  0  0  0  0  0  0  0  0  0  0  0
  -11.3433   -2.0522    6.4051 N   0  0  0  0  0  0  0  0  0  0  0  0
  -10.6494   -3.8662    5.1544 N   0  0  0  0  0  0  0  0  0  0  0  0
  -10.6013   -4.5376    3.9943 C   0  0  0  0  0  0  0  0  0  0  0  0
  -11.2534   -4.0348    2.8755 C   0  0  0  0  0  0  0  0  0  0  0  0
  -11.9441   -2.8337    2.9982 C   0  0  0  0  0  0  0  0  0  0  0  0
  -12.5904   -2.3213    1.9552 N   0  0  0  0  0  0  0  0  0  0  0  0
  -11.0341   -4.8786    1.8716 N   0  0  0  0  0  0  0  0  0  0  0  0
  -10.2766   -5.8716    2.3323 C   0  0  0  0  0  0  0  0  0  0  0  0
  -10.0112   -5.6695    3.6212 N   0  0  0  0  0  0  0  0  0  0  0  0
  1  7  2  0  0  0  0
  1  2  1  0  0  0  0
  2  3  1  0  0  0  0
  2  4  2  0  0  0  0
  4  5  1  0  0  0  0
  5  6  2  0  0  0  0
  5 11  1  0  0  0  0
  6  7  1  0  0  0  0
  6  9  1  0  0  0  0
  7  8  1  0  0  0  0
  9 10  1  0  0  0  0
 10 11  2  0  0  0  0
M  END
>  <CHROM.1>
-11.18729957,-3.70601612,3.70847914,1.97534427,-0.96789775,1.09911768

>  <Name>
ligand

>  <RI>
0

>  <Rbt.Current_Directory>
/home/itssahil/PROJECTS/Mol_Feturizer/Test_systems_manuscript/rnas/2b57

>  <Rbt.Executable>
rbdock ($Id: //depot/dev/client3/rdock/2013.1/src/exe/rbdock.cxx#4 $)

>  <Rbt.Library>
libRbt.so (2013.1, Build901 2013/11/27)

>  <Rbt.Parameter_File>
/export/apps/rDock/src/rDock_2013.1_src/data/scripts/dock_solv.prm

>  <Rbt.Receptor>
prm/blind_docking_20.prm

>  <SCORE>
-7.0268

>  <SCORE.INTER>
-7.0268

>  <SCORE.INTER.CONST>
1

>  <SCORE.INTER.POLAR>
0

>  <SCORE.INTER.ROT>
0

>  <SCORE.INTER.SOLV>
3.42412

>  <SCORE.INTER.VDW>
-9.42591

>  <SCORE.INTER.norm>
-0.6388

>  <SCORE.INTRA>
0

>  <SCORE.INTRA.DIHEDRAL>
0

>  <SCORE.INTRA.DIHEDRAL.0>
0

>  <SCORE.INTRA.POLAR>
0

>  <SCORE.INTRA.POLAR.0>
0

>  <SCORE.INTRA.REPUL>
0

>  <SCORE.INTRA.REPUL.0>
0

>  <SCORE.INTRA.SOLV>
0

>  <SCORE.INTRA.SOLV.lig_0>
-48.3454

>  <SCORE.INTRA.VDW>
0

>  <SCORE.INTRA.VDW.0>
0

>  <SCORE.INTRA.norm>
0

>  <SCORE.RESTR>
0

>  <SCORE.RESTR.CAVITY>
0

>  <SCORE.RESTR.norm>
0

>  <SCORE.SYSTEM>
0

>  <SCORE.SYSTEM.CONST>
0

>  <SCORE.SYSTEM.DIHEDRAL>
0

>  <SCORE.SYSTEM.SOLV>
0

>  <SCORE.SYSTEM.norm>
0

>  <SCORE.heavy>
11

>  <SCORE.norm>
-0.6388

>  <RMSD>
10.473

$$$$
ligand
 OpenBabel02271912153D
libRbt.so/2013.1/901 2013/11/27
 11 12  0  0  0  0  0  0  0  0999 V2000
  -12.0427   -2.1594    4.3534 N   0  0  0  0  0  0  0  0  0  0  0  0
  -11.4281   -2.7074    5.4139 C   0  0  0  0  0  0  0  0  0  0  0  0
  -11.4994   -2.1101    6.6001 N   0  0  0  0  0  0  0  0  0  0  0  0
  -10.7330   -3.8483    5.2857 N   0  0  0  0  0  0  0  0  0  0  0  0
  -10.6362   -4.4610    4.0966 C   0  0  0  0  0  0  0  0  0  0  0  0
  -11.2624   -3.9153    2.9832 C   0  0  0  0  0  0  0  0  0  0  0  0
  -11.9790   -2.7337    3.1418 C   0  0  0  0  0  0  0  0  0  0  0  0
  -12.6019   -2.1818    2.1046 N   0  0  0  0  0  0  0  0  0  0  0  0
  -10.9962   -4.7049    1.9471 N   0  0  0  0  0  0  0  0  0  0  0  0
  -10.2351   -5.7062    2.3831 C   0  0  0  0  0  0  0  0  0  0  0  0
  -10.0138   -5.5631    3.6881 N   0  0  0  0  0  0  0  0  0  0  0  0
  1  7  2  0  0  0  0
  1  2  1  0  0  0  0
  2  3  1  0  0  0  0
  2  4  2  0  0  0  0
  4  5  1  0  0  0  0
  5  6  2  0  0  0  0
  5 11  1  0  0  0  0
  6  7  1  0  0  0  0
  6  9  1  0  0  0  0
  7  8  1  0  0  0  0
  9 10  1  0  0  0  0
 10 11  2  0  0  0  0
M  END
>  <CHROM.1>
-11.22850124,-3.62663912,3.83282035,2.03902496,-0.96447408,1.20032971

>  <Name>
ligand

>  <RI>
0

>  <Rbt.Current_Directory>
/home/itssahil/PROJECTS/Mol_Feturizer/Test_systems_manuscript/rnas/2b57

>  <Rbt.Executable>
rbdock ($Id: //depot/dev/client3/rdock/2013.1/src/exe/rbdock.cxx#4 $)

>  <Rbt.Library>
libRbt.so (2013.1, Build901 2013/11/27)

>  <Rbt.Parameter_File>
/export/apps/rDock/src/rDock_2013.1_src/data/scripts/dock_solv.prm

>  <Rbt.Receptor>
prm/blind_docking_20.prm

>  <SCORE>
-6.97651

>  <SCORE.INTER>
-6.97664

>  <SCORE.INTER.CONST>
1

>  <SCORE.INTER.POLAR>
0

>  <SCORE.INTER.ROT>
0

>  <SCORE.INTER.SOLV>
2.69455

>  <SCORE.INTER.VDW>
-9.14927

>  <SCORE.INTER.norm>
-0.63424

>  <SCORE.INTRA>
0

>  <SCORE.INTRA.DIHEDRAL>
0

>  <SCORE.INTRA.DIHEDRAL.0>
0

>  <SCORE.INTRA.POLAR>
0

>  <SCORE.INTRA.POLAR.0>
0

>  <SCORE.INTRA.REPUL>
0

>  <SCORE.INTRA.REPUL.0>
0

>  <SCORE.INTRA.SOLV>
0

>  <SCORE.INTRA.SOLV.lig_0>
-48.3454

>  <SCORE.INTRA.VDW>
0

>  <SCORE.INTRA.VDW.0>
0

>  <SCORE.INTRA.norm>
0

>  <SCORE.RESTR>
0.000126519

>  <SCORE.RESTR.CAVITY>
0.000126519

>  <SCORE.RESTR.norm>
1.15018e-05

>  <SCORE.SYSTEM>
0

>  <SCORE.SYSTEM.CONST>
0

>  <SCORE.SYSTEM.DIHEDRAL>
0

>  <SCORE.SYSTEM.SOLV>
0

>  <SCORE.SYSTEM.norm>
0

>  <SCORE.heavy>
11

>  <SCORE.norm>
-0.634228

>  <RMSD>
10.484

$$$$
ligand
 OpenBabel02271912153D
libRbt.so/2013.1/901 2013/11/27
 11 12  0  0  0  0  0  0  0  0999 V2000
  -11.9803   -2.1960    4.1542 N   0  0  0  0  0  0  0  0  0  0  0  0
  -11.3152   -2.6783    5.2161 C   0  0  0  0  0  0  0  0  0  0  0  0
  -11.3298   -2.0079    6.3647 N   0  0  0  0  0  0  0  0  0  0  0  0
  -10.6265   -3.8266    5.1262 N   0  0  0  0  0  0  0  0  0  0  0  0
  -10.5865   -4.5126    3.9744 C   0  0  0  0  0  0  0  0  0  0  0  0
  -11.2658   -4.0359    2.8604 C   0  0  0  0  0  0  0  0  0  0  0  0
  -11.9746   -2.8450    2.9791 C   0  0  0  0  0  0  0  0  0  0  0  0
  -12.6469   -2.3574    1.9406 N   0  0  0  0  0  0  0  0  0  0  0  0
  -11.0492   -4.8893    1.8641 N   0  0  0  0  0  0  0  0  0  0  0  0
  -10.2675   -5.8633    2.3248 C   0  0  0  0  0  0  0  0  0  0  0  0
   -9.9839   -5.6395    3.6062 N   0  0  0  0  0  0  0  0  0  0  0  0
  1  7  2  0  0  0  0
  1  2  1  0  0  0  0
  2  3  1  0  0  0  0
  2  4  2  0  0  0  0
  4  5  1  0  0  0  0
  5  6  2  0  0  0  0
  5 11  1  0  0  0  0
  6  7  1  0  0  0  0
  6  9  1  0  0  0  0
  7  8  1  0  0  0  0
  9 10  1  0  0  0  0
 10 11  2  0  0  0  0
M  END
>  <CHROM.1>
-11.19128563,-3.69487908,3.68774553,1.96282677,-0.94515402,1.07561087

>  <Name>
ligand

>  <RI>
0

>  <Rbt.Current_Directory>
/home/itssahil/PROJECTS/Mol_Feturizer/Test_systems_manuscript/rnas/2b57

>  <Rbt.Executable>
rbdock ($Id: //depot/dev/client3/rdock/2013.1/src/exe/rbdock.cxx#4 $)

>  <Rbt.Library>
libRbt.so (2013.1, Build901 2013/11/27)

>  <Rbt.Parameter_File>
/export/apps/rDock/src/rDock_2013.1_src/data/scripts/dock_solv.prm

>  <Rbt.Receptor>
prm/blind_docking_20.prm

>  <SCORE>
-7.03126

>  <SCORE.INTER>
-7.03126

>  <SCORE.INTER.CONST>
1

>  <SCORE.INTER.POLAR>
0

>  <SCORE.INTER.ROT>
0

>  <SCORE.INTER.SOLV>
3.44512

>  <SCORE.INTER.VDW>
-9.43588

>  <SCORE.INTER.norm>
-0.639205

>  <SCORE.INTRA>
0

>  <SCORE.INTRA.DIHEDRAL>
0

>  <SCORE.INTRA.DIHEDRAL.0>
0

>  <SCORE.INTRA.POLAR>
0

>  <SCORE.INTRA.POLAR.0>
0

>  <SCORE.INTRA.REPUL>
0

>  <SCORE.INTRA.REPUL.0>
0

>  <SCORE.INTRA.SOLV>
0

>  <SCORE.INTRA.SOLV.lig_0>
-48.3454

>  <SCORE.INTRA.VDW>
0

>  <SCORE.INTRA.VDW.0>
0

>  <SCORE.INTRA.norm>
0

>  <SCORE.RESTR>
0

>  <SCORE.RESTR.CAVITY>
0

>  <SCORE.RESTR.norm>
0

>  <SCORE.SYSTEM>
0

>  <SCORE.SYSTEM.CONST>
0

>  <SCORE.SYSTEM.DIHEDRAL>
0

>  <SCORE.SYSTEM.SOLV>
0

>  <SCORE.SYSTEM.norm>
0

>  <SCORE.heavy>
11

>  <SCORE.norm>
-0.639205

>  <RMSD>
10.494

$$$$
ligand
 OpenBabel02271912153D
libRbt.so/2013.1/901 2013/11/27
 11 12  0  0  0  0  0  0  0  0999 V2000
  -11.9814   -2.1941    4.1492 N   0  0  0  0  0  0  0  0  0  0  0  0
  -11.3179   -2.6743    5.2131 C   0  0  0  0  0  0  0  0  0  0  0  0
  -11.3347   -2.0019    6.3605 N   0  0  0  0  0  0  0  0  0  0  0  0
  -10.6286   -3.8226    5.1264 N   0  0  0  0  0  0  0  0  0  0  0  0
  -10.5865   -4.5106    3.9758 C   0  0  0  0  0  0  0  0  0  0  0  0
  -11.2640   -4.0360    2.8598 C   0  0  0  0  0  0  0  0  0  0  0  0
  -11.9734   -2.8451    2.9752 C   0  0  0  0  0  0  0  0  0  0  0  0
  -12.6441   -2.3595    1.9347 N   0  0  0  0  0  0  0  0  0  0  0  0
  -11.0454   -4.8911    1.8654 N   0  0  0  0  0  0  0  0  0  0  0  0
  -10.2641   -5.8640    2.3291 C   0  0  0  0  0  0  0  0  0  0  0  0
   -9.9828   -5.6379    3.6106 N   0  0  0  0  0  0  0  0  0  0  0  0
  1  7  2  0  0  0  0
  1  2  1  0  0  0  0
  2  3  1  0  0  0  0
  2  4  2  0  0  0  0
  4  5  1  0  0  0  0
  5  6  2  0  0  0  0
  5 11  1  0  0  0  0
  6  7  1  0  0  0  0
  6  9  1  0  0  0  0
  7  8  1  0  0  0  0
  9 10  1  0  0  0  0
 10 11  2  0  0  0  0
M  END
>  <CHROM.1>
-11.19102122,-3.69349510,3.68670293,1.96568045,-0.94568007,1.07619177

>  <Name>
ligand

>  <RI>
0

>  <Rbt.Current_Directory>
/home/itssahil/PROJECTS/Mol_Feturizer/Test_systems_manuscript/rnas/2b57

>  <Rbt.Executable>
rbdock ($Id: //depot/dev/client3/rdock/2013.1/src/exe/rbdock.cxx#4 $)

>  <Rbt.Library>
libRbt.so (2013.1, Build901 2013/11/27)

>  <Rbt.Parameter_File>
/export/apps/rDock/src/rDock_2013.1_src/data/scripts/dock_solv.prm

>  <Rbt.Receptor>
prm/blind_docking_20.prm

>  <SCORE>
-7.03116

>  <SCORE.INTER>
-7.03116

>  <SCORE.INTER.CONST>
1

>  <SCORE.INTER.POLAR>
0

>  <SCORE.INTER.ROT>
0

>  <SCORE.INTER.SOLV>
3.45651

>  <SCORE.INTER.VDW>
-9.43961

>  <SCORE.INTER.norm>
-0.639196

>  <SCORE.INTRA>
0

>  <SCORE.INTRA.DIHEDRAL>
0

>  <SCORE.INTRA.DIHEDRAL.0>
0

>  <SCORE.INTRA.POLAR>
0

>  <SCORE.INTRA.POLAR.0>
0

>  <SCORE.INTRA.REPUL>
0

>  <SCORE.INTRA.REPUL.0>
0

>  <SCORE.INTRA.SOLV>
0

>  <SCORE.INTRA.SOLV.lig_0>
-48.3454

>  <SCORE.INTRA.VDW>
0

>  <SCORE.INTRA.VDW.0>
0

>  <SCORE.INTRA.norm>
0

>  <SCORE.RESTR>
0

>  <SCORE.RESTR.CAVITY>
0

>  <SCORE.RESTR.norm>
0

>  <SCORE.SYSTEM>
0

>  <SCORE.SYSTEM.CONST>
0

>  <SCORE.SYSTEM.DIHEDRAL>
0

>  <SCORE.SYSTEM.SOLV>
0

>  <SCORE.SYSTEM.norm>
0

>  <SCORE.heavy>
11

>  <SCORE.norm>
-0.639196

>  <RMSD>
10.496

$$$$
ligand
 OpenBabel02271912153D
libRbt.so/2013.1/901 2013/11/27
 11 12  0  0  0  0  0  0  0  0999 V2000
  -11.9855   -2.1810    4.1174 N   0  0  0  0  0  0  0  0  0  0  0  0
  -11.3428   -2.6565    5.1961 C   0  0  0  0  0  0  0  0  0  0  0  0
  -11.3764   -1.9757    6.3382 N   0  0  0  0  0  0  0  0  0  0  0  0
  -10.6575   -3.8084    5.1296 N   0  0  0  0  0  0  0  0  0  0  0  0
  -10.5986   -4.5049    3.9849 C   0  0  0  0  0  0  0  0  0  0  0  0
  -11.2544   -4.0354    2.8539 C   0  0  0  0  0  0  0  0  0  0  0  0
  -11.9602   -2.8405    2.9484 C   0  0  0  0  0  0  0  0  0  0  0  0
  -12.6104   -2.3595    1.8930 N   0  0  0  0  0  0  0  0  0  0  0  0
  -11.0226   -4.8986    1.8696 N   0  0  0  0  0  0  0  0  0  0  0  0
  -10.2539   -5.8716    2.3538 C   0  0  0  0  0  0  0  0  0  0  0  0
   -9.9939   -5.6375    3.6383 N   0  0  0  0  0  0  0  0  0  0  0  0
  1  7  2  0  0  0  0
  1  2  1  0  0  0  0
  2  3  1  0  0  0  0
  2  4  2  0  0  0  0
  4  5  1  0  0  0  0
  5  6  2  0  0  0  0
  5 11  1  0  0  0  0
  6  7  1  0  0  0  0
  6  9  1  0  0  0  0
  7  8  1  0  0  0  0
  9 10  1  0  0  0  0
 10 11  2  0  0  0  0
M  END
>  <CHROM.1>
-11.19418274,-3.68724614,3.67947223,1.98840841,-0.95787655,1.08749927

>  <Name>
ligand

>  <RI>
0

>  <Rbt.Current_Directory>
/home/itssahil/PROJECTS/Mol_Feturizer/Test_systems_manuscript/rnas/2b57

>  <Rbt.Executable>
rbdock ($Id: //depot/dev/client3/rdock/2013.1/src/exe/rbdock.cxx#4 $)

>  <Rbt.Library>
libRbt.so (2013.1, Build901 2013/11/27)

>  <Rbt.Parameter_File>
/export/apps/rDock/src/rDock_2013.1_src/data/scripts/dock_solv.prm

>  <Rbt.Receptor>
prm/blind_docking_20.prm

>  <SCORE>
-6.99003

>  <SCORE.INTER>
-6.99003

>  <SCORE.INTER.CONST>
1

>  <SCORE.INTER.POLAR>
0

>  <SCORE.INTER.ROT>
0

>  <SCORE.INTER.SOLV>
3.5197

>  <SCORE.INTER.VDW>
-9.43325

>  <SCORE.INTER.norm>
-0.635457

>  <SCORE.INTRA>
0

>  <SCORE.INTRA.DIHEDRAL>
0

>  <SCORE.INTRA.DIHEDRAL.0>
0

>  <SCORE.INTRA.POLAR>
0

>  <SCORE.INTRA.POLAR.0>
0

>  <SCORE.INTRA.REPUL>
0

>  <SCORE.INTRA.REPUL.0>
0

>  <SCORE.INTRA.SOLV>
0

>  <SCORE.INTRA.SOLV.lig_0>
-48.3454

>  <SCORE.INTRA.VDW>
0

>  <SCORE.INTRA.VDW.0>
0

>  <SCORE.INTRA.norm>
0

>  <SCORE.RESTR>
0

>  <SCORE.RESTR.CAVITY>
0

>  <SCORE.RESTR.norm>
0

>  <SCORE.SYSTEM>
0

>  <SCORE.SYSTEM.CONST>
0

>  <SCORE.SYSTEM.DIHEDRAL>
0

>  <SCORE.SYSTEM.SOLV>
0

>  <SCORE.SYSTEM.norm>
0

>  <SCORE.heavy>
11

>  <SCORE.norm>
-0.635457

>  <RMSD>
10.508

$$$$
ligand
 OpenBabel02271912153D
libRbt.so/2013.1/901 2013/11/27
 11 12  0  0  0  0  0  0  0  0999 V2000
  -12.5114   -3.1879    4.9270 N   0  0  0  0  0  0  0  0  0  0  0  0
  -12.5141   -2.4145    3.8295 C   0  0  0  0  0  0  0  0  0  0  0  0
  -13.2951   -1.3390    3.7815 N   0  0  0  0  0  0  0  0  0  0  0  0
  -11.7429   -2.7228    2.7753 N   0  0  0  0  0  0  0  0  0  0  0  0
  -10.9576   -3.8098    2.7961 C   0  0  0  0  0  0  0  0  0  0  0  0
  -10.9359   -4.6272    3.9192 C   0  0  0  0  0  0  0  0  0  0  0  0
  -11.7419   -4.2855    5.0000 C   0  0  0  0  0  0  0  0  0  0  0  0
  -11.7448   -5.0345    6.0987 N   0  0  0  0  0  0  0  0  0  0  0  0
  -10.0957   -5.6272    3.6701 N   0  0  0  0  0  0  0  0  0  0  0  0
   -9.6068   -5.4526    2.4443 C   0  0  0  0  0  0  0  0  0  0  0  0
  -10.1267   -4.3500    1.9093 N   0  0  0  0  0  0  0  0  0  0  0  0
  1  7  2  0  0  0  0
  1  2  1  0  0  0  0
  2  3  1  0  0  0  0
  2  4  2  0  0  0  0
  4  5  1  0  0  0  0
  5  6  2  0  0  0  0
  5 11  1  0  0  0  0
  6  7  1  0  0  0  0
  6  9  1  0  0  0  0
  7  8  1  0  0  0  0
  9 10  1  0  0  0  0
 10 11  2  0  0  0  0
M  END
>  <CHROM.1>
-11.40486748,-3.88015111,3.75091490,2.98777386,0.84356360,-0.96465386

>  <Name>
ligand

>  <RI>
0

>  <Rbt.Current_Directory>
/home/itssahil/PROJECTS/Mol_Feturizer/Test_systems_manuscript/rnas/2b57

>  <Rbt.Executable>
rbdock ($Id: //depot/dev/client3/rdock/2013.1/src/exe/rbdock.cxx#4 $)

>  <Rbt.Library>
libRbt.so (2013.1, Build901 2013/11/27)

>  <Rbt.Parameter_File>
/export/apps/rDock/src/rDock_2013.1_src/data/scripts/dock_solv.prm

>  <Rbt.Receptor>
prm/blind_docking_20.prm

>  <SCORE>
-7.95559

>  <SCORE.INTER>
-7.95559

>  <SCORE.INTER.CONST>
1

>  <SCORE.INTER.POLAR>
0

>  <SCORE.INTER.ROT>
0

>  <SCORE.INTER.SOLV>
3.86378

>  <SCORE.INTER.VDW>
-10.1917

>  <SCORE.INTER.norm>
-0.723235

>  <SCORE.INTRA>
0

>  <SCORE.INTRA.DIHEDRAL>
0

>  <SCORE.INTRA.DIHEDRAL.0>
0

>  <SCORE.INTRA.POLAR>
0

>  <SCORE.INTRA.POLAR.0>
0

>  <SCORE.INTRA.REPUL>
0

>  <SCORE.INTRA.REPUL.0>
0

>  <SCORE.INTRA.SOLV>
0

>  <SCORE.INTRA.SOLV.lig_0>
-48.3454

>  <SCORE.INTRA.VDW>
0

>  <SCORE.INTRA.VDW.0>
0

>  <SCORE.INTRA.norm>
0

>  <SCORE.RESTR>
0

>  <SCORE.RESTR.CAVITY>
0

>  <SCORE.RESTR.norm>
0

>  <SCORE.SYSTEM>
0

>  <SCORE.SYSTEM.CONST>
0

>  <SCORE.SYSTEM.DIHEDRAL>
0

>  <SCORE.SYSTEM.SOLV>
0

>  <SCORE.SYSTEM.norm>
0

>  <SCORE.heavy>
11

>  <SCORE.norm>
-0.723235

>  <RMSD>
10.509

$$$$
ligand
 OpenBabel02271912153D
libRbt.so/2013.1/901 2013/11/27
 11 12  0  0  0  0  0  0  0  0999 V2000
  -11.9730   -2.1768    4.1209 N   0  0  0  0  0  0  0  0  0  0  0  0
  -11.3331   -2.6583    5.1985 C   0  0  0  0  0  0  0  0  0  0  0  0
  -11.3654   -1.9815    6.3430 N   0  0  0  0  0  0  0  0  0  0  0  0
  -10.6517   -3.8124    5.1287 N   0  0  0  0  0  0  0  0  0  0  0  0
  -10.5941   -4.5051    3.9816 C   0  0  0  0  0  0  0  0  0  0  0  0
  -11.2472   -4.0293    2.8516 C   0  0  0  0  0  0  0  0  0  0  0  0
  -11.9488   -2.8323    2.9496 C   0  0  0  0  0  0  0  0  0  0  0  0
  -12.5964   -2.3453    1.8953 N   0  0  0  0  0  0  0  0  0  0  0  0
  -11.0174   -4.8899    1.8645 N   0  0  0  0  0  0  0  0  0  0  0  0
  -10.2527   -5.8673    2.3460 C   0  0  0  0  0  0  0  0  0  0  0  0
   -9.9930   -5.6386    3.6316 N   0  0  0  0  0  0  0  0  0  0  0  0
  1  7  2  0  0  0  0
  1  2  1  0  0  0  0
  2  3  1  0  0  0  0
  2  4  2  0  0  0  0
  4  5  1  0  0  0  0
  5  6  2  0  0  0  0
  5 11  1  0  0  0  0
  6  7  1  0  0  0  0
  6  9  1  0  0  0  0
  7  8  1  0  0  0  0
  9 10  1  0  0  0  0
 10 11  2  0  0  0  0
M  END
>  <CHROM.1>
-11.18656710,-3.68428144,3.67845128,1.98711750,-0.96144691,1.08995809

>  <Name>
ligand

>  <RI>
0

>  <Rbt.Current_Directory>
/home/itssahil/PROJECTS/Mol_Feturizer/Test_systems_manuscript/rnas/2b57

>  <Rbt.Executable>
rbdock ($Id: //depot/dev/client3/rdock/2013.1/src/exe/rbdock.cxx#4 $)

>  <Rbt.Library>
libRbt.so (2013.1, Build901 2013/11/27)

>  <Rbt.Parameter_File>
/export/apps/rDock/src/rDock_2013.1_src/data/scripts/dock_solv.prm

>  <Rbt.Receptor>
prm/blind_docking_20.prm

>  <SCORE>
-6.98587

>  <SCORE.INTER>
-6.98587

>  <SCORE.INTER.CONST>
1

>  <SCORE.INTER.POLAR>
0

>  <SCORE.INTER.ROT>
0

>  <SCORE.INTER.SOLV>
3.53096

>  <SCORE.INTER.VDW>
-9.43423

>  <SCORE.INTER.norm>
-0.635079

>  <SCORE.INTRA>
0

>  <SCORE.INTRA.DIHEDRAL>
0

>  <SCORE.INTRA.DIHEDRAL.0>
0

>  <SCORE.INTRA.POLAR>
0

>  <SCORE.INTRA.POLAR.0>
0

>  <SCORE.INTRA.REPUL>
0

>  <SCORE.INTRA.REPUL.0>
0

>  <SCORE.INTRA.SOLV>
0

>  <SCORE.INTRA.SOLV.lig_0>
-48.3454

>  <SCORE.INTRA.VDW>
0

>  <SCORE.INTRA.VDW.0>
0

>  <SCORE.INTRA.norm>
0

>  <SCORE.RESTR>
0

>  <SCORE.RESTR.CAVITY>
0

>  <SCORE.RESTR.norm>
0

>  <SCORE.SYSTEM>
0

>  <SCORE.SYSTEM.CONST>
0

>  <SCORE.SYSTEM.DIHEDRAL>
0

>  <SCORE.SYSTEM.SOLV>
0

>  <SCORE.SYSTEM.norm>
0

>  <SCORE.heavy>
11

>  <SCORE.norm>
-0.635079

>  <RMSD>
10.510

$$$$
ligand
 OpenBabel02271912153D
libRbt.so/2013.1/901 2013/11/27
 11 12  0  0  0  0  0  0  0  0999 V2000
  -11.9687   -2.1700    4.1132 N   0  0  0  0  0  0  0  0  0  0  0  0
  -11.3434   -2.6687    5.1916 C   0  0  0  0  0  0  0  0  0  0  0  0
  -11.3768   -2.0016    6.3418 N   0  0  0  0  0  0  0  0  0  0  0  0
  -10.6755   -3.8304    5.1169 N   0  0  0  0  0  0  0  0  0  0  0  0
  -10.6170   -4.5136    3.9642 C   0  0  0  0  0  0  0  0  0  0  0  0
  -11.2551   -4.0199    2.8334 C   0  0  0  0  0  0  0  0  0  0  0  0
  -11.9430   -2.8154    2.9364 C   0  0  0  0  0  0  0  0  0  0  0  0
  -12.5760   -2.3113    1.8813 N   0  0  0  0  0  0  0  0  0  0  0  0
  -11.0277   -4.8746    1.8405 N   0  0  0  0  0  0  0  0  0  0  0  0
  -10.2788   -5.8654    2.3194 C   0  0  0  0  0  0  0  0  0  0  0  0
  -10.0269   -5.6512    3.6090 N   0  0  0  0  0  0  0  0  0  0  0  0
  1  7  2  0  0  0  0
  1  2  1  0  0  0  0
  2  3  1  0  0  0  0
  2  4  2  0  0  0  0
  4  5  1  0  0  0  0
  5  6  2  0  0  0  0
  5 11  1  0  0  0  0
  6  7  1  0  0  0  0
  6  9  1  0  0  0  0
  7  8  1  0  0  0  0
  9 10  1  0  0  0  0
 10 11  2  0  0  0  0
M  END
>  <CHROM.1>
-11.19698728,-3.68299323,3.66369947,1.98991032,-0.97592435,1.10110566

>  <Name>
ligand

>  <RI>
0

>  <Rbt.Current_Directory>
/home/itssahil/PROJECTS/Mol_Feturizer/Test_systems_manuscript/rnas/2b57

>  <Rbt.Executable>
rbdock ($Id: //depot/dev/client3/rdock/2013.1/src/exe/rbdock.cxx#4 $)

>  <Rbt.Library>
libRbt.so (2013.1, Build901 2013/11/27)

>  <Rbt.Parameter_File>
/export/apps/rDock/src/rDock_2013.1_src/data/scripts/dock_solv.prm

>  <Rbt.Receptor>
prm/blind_docking_20.prm

>  <SCORE>
-7.00196

>  <SCORE.INTER>
-7.00196

>  <SCORE.INTER.CONST>
1

>  <SCORE.INTER.POLAR>
0

>  <SCORE.INTER.ROT>
0

>  <SCORE.INTER.SOLV>
3.51615

>  <SCORE.INTER.VDW>
-9.44002

>  <SCORE.INTER.norm>
-0.636542

>  <SCORE.INTRA>
0

>  <SCORE.INTRA.DIHEDRAL>
0

>  <SCORE.INTRA.DIHEDRAL.0>
0

>  <SCORE.INTRA.POLAR>
0

>  <SCORE.INTRA.POLAR.0>
0

>  <SCORE.INTRA.REPUL>
0

>  <SCORE.INTRA.REPUL.0>
0

>  <SCORE.INTRA.SOLV>
0

>  <SCORE.INTRA.SOLV.lig_0>
-48.3454

>  <SCORE.INTRA.VDW>
0

>  <SCORE.INTRA.VDW.0>
0

>  <SCORE.INTRA.norm>
0

>  <SCORE.RESTR>
0

>  <SCORE.RESTR.CAVITY>
0

>  <SCORE.RESTR.norm>
0

>  <SCORE.SYSTEM>
0

>  <SCORE.SYSTEM.CONST>
0

>  <SCORE.SYSTEM.DIHEDRAL>
0

>  <SCORE.SYSTEM.SOLV>
0

>  <SCORE.SYSTEM.norm>
0

>  <SCORE.heavy>
11

>  <SCORE.norm>
-0.636542

>  <RMSD>
10.515

$$$$
ligand
 OpenBabel02271912153D
libRbt.so/2013.1/901 2013/11/27
 11 12  0  0  0  0  0  0  0  0999 V2000
  -11.9602   -2.1615    4.1807 N   0  0  0  0  0  0  0  0  0  0  0  0
  -11.2835   -2.6477    5.2335 C   0  0  0  0  0  0  0  0  0  0  0  0
  -11.2884   -1.9833    6.3857 N   0  0  0  0  0  0  0  0  0  0  0  0
  -10.5930   -3.7939    5.1309 N   0  0  0  0  0  0  0  0  0  0  0  0
  -10.5628   -4.4738    3.9751 C   0  0  0  0  0  0  0  0  0  0  0  0
  -11.2542   -3.9929    2.8704 C   0  0  0  0  0  0  0  0  0  0  0  0
  -11.9645   -2.8043    3.0022 C   0  0  0  0  0  0  0  0  0  0  0  0
  -12.6482   -2.3130    1.9730 N   0  0  0  0  0  0  0  0  0  0  0  0
  -11.0454   -4.8407    1.8676 N   0  0  0  0  0  0  0  0  0  0  0  0
  -10.2568   -5.8151    2.3155 C   0  0  0  0  0  0  0  0  0  0  0  0
   -9.9612   -5.5973    3.5952 N   0  0  0  0  0  0  0  0  0  0  0  0
  1  7  2  0  0  0  0
  1  2  1  0  0  0  0
  2  3  1  0  0  0  0
  2  4  2  0  0  0  0
  4  5  1  0  0  0  0
  5  6  2  0  0  0  0
  5 11  1  0  0  0  0
  6  7  1  0  0  0  0
  6  9  1  0  0  0  0
  7  8  1  0  0  0  0
  9 10  1  0  0  0  0
 10 11  2  0  0  0  0
M  END
>  <CHROM.1>
-11.17229056,-3.65605314,3.69873058,1.95006208,-0.93838130,1.07049124

>  <Name>
ligand

>  <RI>
0

>  <Rbt.Current_Directory>
/home/itssahil/PROJECTS/Mol_Feturizer/Test_systems_manuscript/rnas/2b57

>  <Rbt.Executable>
rbdock ($Id: //depot/dev/client3/rdock/2013.1/src/exe/rbdock.cxx#4 $)

>  <Rbt.Library>
libRbt.so (2013.1, Build901 2013/11/27)

>  <Rbt.Parameter_File>
/export/apps/rDock/src/rDock_2013.1_src/data/scripts/dock_solv.prm

>  <Rbt.Receptor>
prm/blind_docking_20.prm

>  <SCORE>
-7.07233

>  <SCORE.INTER>
-7.07233

>  <SCORE.INTER.CONST>
1

>  <SCORE.INTER.POLAR>
0

>  <SCORE.INTER.ROT>
0

>  <SCORE.INTER.SOLV>
3.44316

>  <SCORE.INTER.VDW>
-9.46261

>  <SCORE.INTER.norm>
-0.642939

>  <SCORE.INTRA>
0

>  <SCORE.INTRA.DIHEDRAL>
0

>  <SCORE.INTRA.DIHEDRAL.0>
0

>  <SCORE.INTRA.POLAR>
0

>  <SCORE.INTRA.POLAR.0>
0

>  <SCORE.INTRA.REPUL>
0

>  <SCORE.INTRA.REPUL.0>
0

>  <SCORE.INTRA.SOLV>
0

>  <SCORE.INTRA.SOLV.lig_0>
-48.3454

>  <SCORE.INTRA.VDW>
0

>  <SCORE.INTRA.VDW.0>
0

>  <SCORE.INTRA.norm>
0

>  <SCORE.RESTR>
0

>  <SCORE.RESTR.CAVITY>
0

>  <SCORE.RESTR.norm>
0

>  <SCORE.SYSTEM>
0

>  <SCORE.SYSTEM.CONST>
0

>  <SCORE.SYSTEM.DIHEDRAL>
0

>  <SCORE.SYSTEM.SOLV>
0

>  <SCORE.SYSTEM.norm>
0

>  <SCORE.heavy>
11

>  <SCORE.norm>
-0.642939

>  <RMSD>
10.523

$$$$
ligand
 OpenBabel02271912153D
libRbt.so/2013.1/901 2013/11/27
 11 12  0  0  0  0  0  0  0  0999 V2000
  -11.9392   -2.1592    4.1161 N   0  0  0  0  0  0  0  0  0  0  0  0
  -11.2936   -2.6477    5.1873 C   0  0  0  0  0  0  0  0  0  0  0  0
  -11.3092   -1.9719    6.3327 N   0  0  0  0  0  0  0  0  0  0  0  0
  -10.6232   -3.8077    5.1098 N   0  0  0  0  0  0  0  0  0  0  0  0
  -10.5825   -4.4995    3.9615 C   0  0  0  0  0  0  0  0  0  0  0  0
  -11.2418   -4.0166    2.8382 C   0  0  0  0  0  0  0  0  0  0  0  0
  -11.9318   -2.8135    2.9440 C   0  0  0  0  0  0  0  0  0  0  0  0
  -12.5847   -2.3195    1.8963 N   0  0  0  0  0  0  0  0  0  0  0  0
  -11.0289   -4.8780    1.8480 N   0  0  0  0  0  0  0  0  0  0  0  0
  -10.2685   -5.8628    2.3213 C   0  0  0  0  0  0  0  0  0  0  0  0
   -9.9949   -5.6380    3.6047 N   0  0  0  0  0  0  0  0  0  0  0  0
  1  7  2  0  0  0  0
  1  2  1  0  0  0  0
  2  3  1  0  0  0  0
  2  4  2  0  0  0  0
  4  5  1  0  0  0  0
  5  6  2  0  0  0  0
  5 11  1  0  0  0  0
  6  7  1  0  0  0  0
  6  9  1  0  0  0  0
  7  8  1  0  0  0  0
  9 10  1  0  0  0  0
 10 11  2  0  0  0  0
M  END
>  <CHROM.1>
-11.17039553,-3.67311559,3.66476571,1.96535260,-0.96495886,1.07321711

>  <Name>
ligand

>  <RI>
0

>  <Rbt.Current_Directory>
/home/itssahil/PROJECTS/Mol_Feturizer/Test_systems_manuscript/rnas/2b57

>  <Rbt.Executable>
rbdock ($Id: //depot/dev/client3/rdock/2013.1/src/exe/rbdock.cxx#4 $)

>  <Rbt.Library>
libRbt.so (2013.1, Build901 2013/11/27)

>  <Rbt.Parameter_File>
/export/apps/rDock/src/rDock_2013.1_src/data/scripts/dock_solv.prm

>  <Rbt.Receptor>
prm/blind_docking_20.prm

>  <SCORE>
-7.04766

>  <SCORE.INTER>
-7.04766

>  <SCORE.INTER.CONST>
1

>  <SCORE.INTER.POLAR>
0

>  <SCORE.INTER.ROT>
0

>  <SCORE.INTER.SOLV>
3.62595

>  <SCORE.INTER.VDW>
-9.50709

>  <SCORE.INTER.norm>
-0.640696

>  <SCORE.INTRA>
0

>  <SCORE.INTRA.DIHEDRAL>
0

>  <SCORE.INTRA.DIHEDRAL.0>
0

>  <SCORE.INTRA.POLAR>
0

>  <SCORE.INTRA.POLAR.0>
0

>  <SCORE.INTRA.REPUL>
0

>  <SCORE.INTRA.REPUL.0>
0

>  <SCORE.INTRA.SOLV>
0

>  <SCORE.INTRA.SOLV.lig_0>
-48.3454

>  <SCORE.INTRA.VDW>
0

>  <SCORE.INTRA.VDW.0>
0

>  <SCORE.INTRA.norm>
0

>  <SCORE.RESTR>
0

>  <SCORE.RESTR.CAVITY>
0

>  <SCORE.RESTR.norm>
0

>  <SCORE.SYSTEM>
0

>  <SCORE.SYSTEM.CONST>
0

>  <SCORE.SYSTEM.DIHEDRAL>
0

>  <SCORE.SYSTEM.SOLV>
0

>  <SCORE.SYSTEM.norm>
0

>  <SCORE.heavy>
11

>  <SCORE.norm>
-0.640696

>  <RMSD>
10.525

$$$$
ligand
 OpenBabel02271912153D
libRbt.so/2013.1/901 2013/11/27
 11 12  0  0  0  0  0  0  0  0999 V2000
  -11.9397   -2.1601    4.1182 N   0  0  0  0  0  0  0  0  0  0  0  0
  -11.2917   -2.6446    5.1897 C   0  0  0  0  0  0  0  0  0  0  0  0
  -11.3090   -1.9671    6.3341 N   0  0  0  0  0  0  0  0  0  0  0  0
  -10.6173   -3.8024    5.1136 N   0  0  0  0  0  0  0  0  0  0  0  0
  -10.5748   -4.4959    3.9663 C   0  0  0  0  0  0  0  0  0  0  0  0
  -11.2365   -4.0170    2.8427 C   0  0  0  0  0  0  0  0  0  0  0  0
  -11.9307   -2.8162    2.9471 C   0  0  0  0  0  0  0  0  0  0  0  0
  -12.5860   -2.3261    1.8990 N   0  0  0  0  0  0  0  0  0  0  0  0
  -11.0211   -4.8792    1.8537 N   0  0  0  0  0  0  0  0  0  0  0  0
  -10.2569   -5.8606    2.3281 C   0  0  0  0  0  0  0  0  0  0  0  0
   -9.9833   -5.6328    3.6110 N   0  0  0  0  0  0  0  0  0  0  0  0
  1  7  2  0  0  0  0
  1  2  1  0  0  0  0
  2  3  1  0  0  0  0
  2  4  2  0  0  0  0
  4  5  1  0  0  0  0
  5  6  2  0  0  0  0
  5 11  1  0  0  0  0
  6  7  1  0  0  0  0
  6  9  1  0  0  0  0
  7  8  1  0  0  0  0
  9 10  1  0  0  0  0
 10 11  2  0  0  0  0
M  END
>  <CHROM.1>
-11.16579204,-3.67200266,3.66872341,1.96737479,-0.96153843,1.07332359

>  <Name>
ligand

>  <RI>
0

>  <Rbt.Current_Directory>
/home/itssahil/PROJECTS/Mol_Feturizer/Test_systems_manuscript/rnas/2b57

>  <Rbt.Executable>
rbdock ($Id: //depot/dev/client3/rdock/2013.1/src/exe/rbdock.cxx#4 $)

>  <Rbt.Library>
libRbt.so (2013.1, Build901 2013/11/27)

>  <Rbt.Parameter_File>
/export/apps/rDock/src/rDock_2013.1_src/data/scripts/dock_solv.prm

>  <Rbt.Receptor>
prm/blind_docking_20.prm

>  <SCORE>
-7.04934

>  <SCORE.INTER>
-7.04934

>  <SCORE.INTER.CONST>
1

>  <SCORE.INTER.POLAR>
0

>  <SCORE.INTER.ROT>
0

>  <SCORE.INTER.SOLV>
3.62741

>  <SCORE.INTER.VDW>
-9.5087

>  <SCORE.INTER.norm>
-0.640849

>  <SCORE.INTRA>
0

>  <SCORE.INTRA.DIHEDRAL>
0

>  <SCORE.INTRA.DIHEDRAL.0>
0

>  <SCORE.INTRA.POLAR>
0

>  <SCORE.INTRA.POLAR.0>
0

>  <SCORE.INTRA.REPUL>
0

>  <SCORE.INTRA.REPUL.0>
0

>  <SCORE.INTRA.SOLV>
0

>  <SCORE.INTRA.SOLV.lig_0>
-48.3454

>  <SCORE.INTRA.VDW>
0

>  <SCORE.INTRA.VDW.0>
0

>  <SCORE.INTRA.norm>
0

>  <SCORE.RESTR>
0

>  <SCORE.RESTR.CAVITY>
0

>  <SCORE.RESTR.norm>
0

>  <SCORE.SYSTEM>
0

>  <SCORE.SYSTEM.CONST>
0

>  <SCORE.SYSTEM.DIHEDRAL>
0

>  <SCORE.SYSTEM.SOLV>
0

>  <SCORE.SYSTEM.norm>
0

>  <SCORE.heavy>
11

>  <SCORE.norm>
-0.640849

>  <RMSD>
10.525

$$$$
ligand
 OpenBabel02271912153D
libRbt.so/2013.1/901 2013/11/27
 11 12  0  0  0  0  0  0  0  0999 V2000
  -12.5922   -3.1921    4.8998 N   0  0  0  0  0  0  0  0  0  0  0  0
  -12.6269   -2.4371    3.7901 C   0  0  0  0  0  0  0  0  0  0  0  0
  -13.4438   -1.3893    3.7294 N   0  0  0  0  0  0  0  0  0  0  0  0
  -11.8515   -2.7364    2.7364 N   0  0  0  0  0  0  0  0  0  0  0  0
  -11.0300   -3.7961    2.7700 C   0  0  0  0  0  0  0  0  0  0  0  0
  -10.9747   -4.5939    3.9058 C   0  0  0  0  0  0  0  0  0  0  0  0
  -11.7860   -4.2619    4.9858 C   0  0  0  0  0  0  0  0  0  0  0  0
  -11.7578   -4.9927    6.0964 N   0  0  0  0  0  0  0  0  0  0  0  0
  -10.1028   -5.5691    3.6678 N   0  0  0  0  0  0  0  0  0  0  0  0
   -9.6266   -5.3982    2.4365 C   0  0  0  0  0  0  0  0  0  0  0  0
  -10.1862   -4.3224    1.8870 N   0  0  0  0  0  0  0  0  0  0  0  0
  1  7  2  0  0  0  0
  1  2  1  0  0  0  0
  2  3  1  0  0  0  0
  2  4  2  0  0  0  0
  4  5  1  0  0  0  0
  5  6  2  0  0  0  0
  5 11  1  0  0  0  0
  6  7  1  0  0  0  0
  6  9  1  0  0  0  0
  7  8  1  0  0  0  0
  9 10  1  0  0  0  0
 10 11  2  0  0  0  0
M  END
>  <CHROM.1>
-11.46948811,-3.86582051,3.72839843,3.02229739,0.81871623,-1.00629646

>  <Name>
ligand

>  <RI>
0

>  <Rbt.Current_Directory>
/home/itssahil/PROJECTS/Mol_Feturizer/Test_systems_manuscript/rnas/2b57

>  <Rbt.Executable>
rbdock ($Id: //depot/dev/client3/rdock/2013.1/src/exe/rbdock.cxx#4 $)

>  <Rbt.Library>
libRbt.so (2013.1, Build901 2013/11/27)

>  <Rbt.Parameter_File>
/export/apps/rDock/src/rDock_2013.1_src/data/scripts/dock_solv.prm

>  <Rbt.Receptor>
prm/blind_docking_20.prm

>  <SCORE>
-7.97309

>  <SCORE.INTER>
-7.97309

>  <SCORE.INTER.CONST>
1

>  <SCORE.INTER.POLAR>
0

>  <SCORE.INTER.ROT>
0

>  <SCORE.INTER.SOLV>
3.67716

>  <SCORE.INTER.VDW>
-10.1411

>  <SCORE.INTER.norm>
-0.724826

>  <SCORE.INTRA>
0

>  <SCORE.INTRA.DIHEDRAL>
0

>  <SCORE.INTRA.DIHEDRAL.0>
0

>  <SCORE.INTRA.POLAR>
0

>  <SCORE.INTRA.POLAR.0>
0

>  <SCORE.INTRA.REPUL>
0

>  <SCORE.INTRA.REPUL.0>
0

>  <SCORE.INTRA.SOLV>
0

>  <SCORE.INTRA.SOLV.lig_0>
-48.3454

>  <SCORE.INTRA.VDW>
0

>  <SCORE.INTRA.VDW.0>
0

>  <SCORE.INTRA.norm>
0

>  <SCORE.RESTR>
0

>  <SCORE.RESTR.CAVITY>
0

>  <SCORE.RESTR.norm>
0

>  <SCORE.SYSTEM>
0

>  <SCORE.SYSTEM.CONST>
0

>  <SCORE.SYSTEM.DIHEDRAL>
0

>  <SCORE.SYSTEM.SOLV>
0

>  <SCORE.SYSTEM.norm>
0

>  <SCORE.heavy>
11

>  <SCORE.norm>
-0.724826

>  <RMSD>
10.529

$$$$
ligand
 OpenBabel02271912153D
libRbt.so/2013.1/901 2013/11/27
 11 12  0  0  0  0  0  0  0  0999 V2000
  -12.6074   -3.2011    4.8913 N   0  0  0  0  0  0  0  0  0  0  0  0
  -12.6522   -2.4510    3.7787 C   0  0  0  0  0  0  0  0  0  0  0  0
  -13.4816   -1.4132    3.7148 N   0  0  0  0  0  0  0  0  0  0  0  0
  -11.8743   -2.7452    2.7254 N   0  0  0  0  0  0  0  0  0  0  0  0
  -11.0403   -3.7949    2.7622 C   0  0  0  0  0  0  0  0  0  0  0  0
  -10.9744   -4.5875    3.9011 C   0  0  0  0  0  0  0  0  0  0  0  0
  -11.7885   -4.2610    4.9807 C   0  0  0  0  0  0  0  0  0  0  0  0
  -11.7504   -4.9870    6.0940 N   0  0  0  0  0  0  0  0  0  0  0  0
  -10.0912   -5.5533    3.6660 N   0  0  0  0  0  0  0  0  0  0  0  0
   -9.6184   -5.3815    2.4335 C   0  0  0  0  0  0  0  0  0  0  0  0
  -10.1912   -4.3146    1.8804 N   0  0  0  0  0  0  0  0  0  0  0  0
  1  7  2  0  0  0  0
  1  2  1  0  0  0  0
  2  3  1  0  0  0  0
  2  4  2  0  0  0  0
  4  5  1  0  0  0  0
  5  6  2  0  0  0  0
  5 11  1  0  0  0  0
  6  7  1  0  0  0  0
  6  9  1  0  0  0  0
  7  8  1  0  0  0  0
  9 10  1  0  0  0  0
 10 11  2  0  0  0  0
M  END
>  <CHROM.1>
-11.47794645,-3.86610159,3.72137028,3.03274732,0.80920521,-1.01781397

>  <Name>
ligand

>  <RI>
0

>  <Rbt.Current_Directory>
/home/itssahil/PROJECTS/Mol_Feturizer/Test_systems_manuscript/rnas/2b57

>  <Rbt.Executable>
rbdock ($Id: //depot/dev/client3/rdock/2013.1/src/exe/rbdock.cxx#4 $)

>  <Rbt.Library>
libRbt.so (2013.1, Build901 2013/11/27)

>  <Rbt.Parameter_File>
/export/apps/rDock/src/rDock_2013.1_src/data/scripts/dock_solv.prm

>  <Rbt.Receptor>
prm/blind_docking_20.prm

>  <SCORE>
-7.97248

>  <SCORE.INTER>
-7.97248

>  <SCORE.INTER.CONST>
1

>  <SCORE.INTER.POLAR>
0

>  <SCORE.INTER.ROT>
0

>  <SCORE.INTER.SOLV>
3.67351

>  <SCORE.INTER.VDW>
-10.1395

>  <SCORE.INTER.norm>
-0.72477

>  <SCORE.INTRA>
0

>  <SCORE.INTRA.DIHEDRAL>
0

>  <SCORE.INTRA.DIHEDRAL.0>
0

>  <SCORE.INTRA.POLAR>
0

>  <SCORE.INTRA.POLAR.0>
0

>  <SCORE.INTRA.REPUL>
0

>  <SCORE.INTRA.REPUL.0>
0

>  <SCORE.INTRA.SOLV>
0

>  <SCORE.INTRA.SOLV.lig_0>
-48.3454

>  <SCORE.INTRA.VDW>
0

>  <SCORE.INTRA.VDW.0>
0

>  <SCORE.INTRA.norm>
0

>  <SCORE.RESTR>
0

>  <SCORE.RESTR.CAVITY>
0

>  <SCORE.RESTR.norm>
0

>  <SCORE.SYSTEM>
0

>  <SCORE.SYSTEM.CONST>
0

>  <SCORE.SYSTEM.DIHEDRAL>
0

>  <SCORE.SYSTEM.SOLV>
0

>  <SCORE.SYSTEM.norm>
0

>  <SCORE.heavy>
11

>  <SCORE.norm>
-0.72477

>  <RMSD>
10.532

$$$$
ligand
 OpenBabel02271912153D
libRbt.so/2013.1/901 2013/11/27
 11 12  0  0  0  0  0  0  0  0999 V2000
  -12.6019   -3.1931    4.9026 N   0  0  0  0  0  0  0  0  0  0  0  0
  -12.6404   -2.4358    3.7946 C   0  0  0  0  0  0  0  0  0  0  0  0
  -13.4635   -1.3927    3.7358 N   0  0  0  0  0  0  0  0  0  0  0  0
  -11.8625   -2.7281    2.7407 N   0  0  0  0  0  0  0  0  0  0  0  0
  -11.0348   -3.7829    2.7724 C   0  0  0  0  0  0  0  0  0  0  0  0
  -10.9755   -4.5830    3.9064 C   0  0  0  0  0  0  0  0  0  0  0  0
  -11.7893   -4.2583    4.9867 C   0  0  0  0  0  0  0  0  0  0  0  0
  -11.7574   -4.9914    6.0956 N   0  0  0  0  0  0  0  0  0  0  0  0
  -10.0976   -5.5525    3.6668 N   0  0  0  0  0  0  0  0  0  0  0  0
   -9.6217   -5.3759    2.4362 C   0  0  0  0  0  0  0  0  0  0  0  0
  -10.1874   -4.3022    1.8887 N   0  0  0  0  0  0  0  0  0  0  0  0
  1  7  2  0  0  0  0
  1  2  1  0  0  0  0
  2  3  1  0  0  0  0
  2  4  2  0  0  0  0
  4  5  1  0  0  0  0
  5  6  2  0  0  0  0
  5 11  1  0  0  0  0
  6  7  1  0  0  0  0
  6  9  1  0  0  0  0
  7  8  1  0  0  0  0
  9 10  1  0  0  0  0
 10 11  2  0  0  0  0
M  END
>  <CHROM.1>
-11.47443453,-3.85746925,3.73038168,3.02618511,0.81337674,-1.00686089

>  <Name>
ligand

>  <RI>
0

>  <Rbt.Current_Directory>
/home/itssahil/PROJECTS/Mol_Feturizer/Test_systems_manuscript/rnas/2b57

>  <Rbt.Executable>
rbdock ($Id: //depot/dev/client3/rdock/2013.1/src/exe/rbdock.cxx#4 $)

>  <Rbt.Library>
libRbt.so (2013.1, Build901 2013/11/27)

>  <Rbt.Parameter_File>
/export/apps/rDock/src/rDock_2013.1_src/data/scripts/dock_solv.prm

>  <Rbt.Receptor>
prm/blind_docking_20.prm

>  <SCORE>
-7.9806

>  <SCORE.INTER>
-7.9806

>  <SCORE.INTER.CONST>
1

>  <SCORE.INTER.POLAR>
0

>  <SCORE.INTER.ROT>
0

>  <SCORE.INTER.SOLV>
3.66236

>  <SCORE.INTER.VDW>
-10.1412

>  <SCORE.INTER.norm>
-0.725509

>  <SCORE.INTRA>
0

>  <SCORE.INTRA.DIHEDRAL>
0

>  <SCORE.INTRA.DIHEDRAL.0>
0

>  <SCORE.INTRA.POLAR>
0

>  <SCORE.INTRA.POLAR.0>
0

>  <SCORE.INTRA.REPUL>
0

>  <SCORE.INTRA.REPUL.0>
0

>  <SCORE.INTRA.SOLV>
0

>  <SCORE.INTRA.SOLV.lig_0>
-48.3454

>  <SCORE.INTRA.VDW>
0

>  <SCORE.INTRA.VDW.0>
0

>  <SCORE.INTRA.norm>
0

>  <SCORE.RESTR>
0

>  <SCORE.RESTR.CAVITY>
0

>  <SCORE.RESTR.norm>
0

>  <SCORE.SYSTEM>
0

>  <SCORE.SYSTEM.CONST>
0

>  <SCORE.SYSTEM.DIHEDRAL>
0

>  <SCORE.SYSTEM.SOLV>
0

>  <SCORE.SYSTEM.norm>
0

>  <SCORE.heavy>
11

>  <SCORE.norm>
-0.725509

>  <RMSD>
10.536

$$$$
ligand
 OpenBabel02271912153D
libRbt.so/2013.1/901 2013/11/27
 11 12  0  0  0  0  0  0  0  0999 V2000
  -12.6144   -3.1737    4.8481 N   0  0  0  0  0  0  0  0  0  0  0  0
  -12.6477   -2.4341    3.7280 C   0  0  0  0  0  0  0  0  0  0  0  0
  -13.4734   -1.3945    3.6474 N   0  0  0  0  0  0  0  0  0  0  0  0
  -11.8622   -2.7408    2.6840 N   0  0  0  0  0  0  0  0  0  0  0  0
  -11.0317   -3.7926    2.7377 C   0  0  0  0  0  0  0  0  0  0  0  0
  -10.9776   -4.5745    3.8847 C   0  0  0  0  0  0  0  0  0  0  0  0
  -11.7994   -4.2351    4.9543 C   0  0  0  0  0  0  0  0  0  0  0  0
  -11.7728   -4.9505    6.0749 N   0  0  0  0  0  0  0  0  0  0  0  0
  -10.0955   -5.5450    3.6661 N   0  0  0  0  0  0  0  0  0  0  0  0
   -9.6120   -5.3866    2.4360 C   0  0  0  0  0  0  0  0  0  0  0  0
  -10.1771   -4.3233    1.8679 N   0  0  0  0  0  0  0  0  0  0  0  0
  1  7  2  0  0  0  0
  1  2  1  0  0  0  0
  2  3  1  0  0  0  0
  2  4  2  0  0  0  0
  4  5  1  0  0  0  0
  5  6  2  0  0  0  0
  5 11  1  0  0  0  0
  6  7  1  0  0  0  0
  6  9  1  0  0  0  0
  7  8  1  0  0  0  0
  9 10  1  0  0  0  0
 10 11  2  0  0  0  0
M  END
>  <CHROM.1>
-11.47743048,-3.85327479,3.69389648,3.02033345,0.80748759,-1.01843126

>  <Name>
ligand

>  <RI>
0

>  <Rbt.Current_Directory>
/home/itssahil/PROJECTS/Mol_Feturizer/Test_systems_manuscript/rnas/2b57

>  <Rbt.Executable>
rbdock ($Id: //depot/dev/client3/rdock/2013.1/src/exe/rbdock.cxx#4 $)

>  <Rbt.Library>
libRbt.so (2013.1, Build901 2013/11/27)

>  <Rbt.Parameter_File>
/export/apps/rDock/src/rDock_2013.1_src/data/scripts/dock_solv.prm

>  <Rbt.Receptor>
prm/blind_docking_20.prm

>  <SCORE>
-7.95427

>  <SCORE.INTER>
-7.95427

>  <SCORE.INTER.CONST>
1

>  <SCORE.INTER.POLAR>
0

>  <SCORE.INTER.ROT>
0

>  <SCORE.INTER.SOLV>
3.58314

>  <SCORE.INTER.VDW>
-10.0972

>  <SCORE.INTER.norm>
-0.723115

>  <SCORE.INTRA>
0

>  <SCORE.INTRA.DIHEDRAL>
0

>  <SCORE.INTRA.DIHEDRAL.0>
0

>  <SCORE.INTRA.POLAR>
0

>  <SCORE.INTRA.POLAR.0>
0

>  <SCORE.INTRA.REPUL>
0

>  <SCORE.INTRA.REPUL.0>
0

>  <SCORE.INTRA.SOLV>
0

>  <SCORE.INTRA.SOLV.lig_0>
-48.3454

>  <SCORE.INTRA.VDW>
0

>  <SCORE.INTRA.VDW.0>
0

>  <SCORE.INTRA.norm>
0

>  <SCORE.RESTR>
0

>  <SCORE.RESTR.CAVITY>
0

>  <SCORE.RESTR.norm>
0

>  <SCORE.SYSTEM>
0

>  <SCORE.SYSTEM.CONST>
0

>  <SCORE.SYSTEM.DIHEDRAL>
0

>  <SCORE.SYSTEM.SOLV>
0

>  <SCORE.SYSTEM.norm>
0

>  <SCORE.heavy>
11

>  <SCORE.norm>
-0.723115

>  <RMSD>
10.555

$$$$
ligand
 OpenBabel02271912153D
libRbt.so/2013.1/901 2013/11/27
 11 12  0  0  0  0  0  0  0  0999 V2000
  -12.6323   -3.1658    4.8176 N   0  0  0  0  0  0  0  0  0  0  0  0
  -12.6657   -2.4360    3.6911 C   0  0  0  0  0  0  0  0  0  0  0  0
  -13.4957   -1.4009    3.5991 N   0  0  0  0  0  0  0  0  0  0  0  0
  -11.8758   -2.7482    2.6520 N   0  0  0  0  0  0  0  0  0  0  0  0
  -11.0407   -3.7957    2.7172 C   0  0  0  0  0  0  0  0  0  0  0  0
  -10.9865   -4.5674    3.8710 C   0  0  0  0  0  0  0  0  0  0  0  0
  -11.8130   -4.2226    4.9353 C   0  0  0  0  0  0  0  0  0  0  0  0
  -11.7864   -4.9282    6.0621 N   0  0  0  0  0  0  0  0  0  0  0  0
  -10.0994   -5.5359    3.6633 N   0  0  0  0  0  0  0  0  0  0  0  0
   -9.6131   -5.3858    2.4333 C   0  0  0  0  0  0  0  0  0  0  0  0
  -10.1813   -4.3301    1.8544 N   0  0  0  0  0  0  0  0  0  0  0  0
  1  7  2  0  0  0  0
  1  2  1  0  0  0  0
  2  3  1  0  0  0  0
  2  4  2  0  0  0  0
  4  5  1  0  0  0  0
  5  6  2  0  0  0  0
  5 11  1  0  0  0  0
  6  7  1  0  0  0  0
  6  9  1  0  0  0  0
  7  8  1  0  0  0  0
  9 10  1  0  0  0  0
 10 11  2  0  0  0  0
M  END
>  <CHROM.1>
-11.48898849,-3.85015434,3.67257349,3.02013383,0.80216726,-1.02689404

>  <Name>
ligand

>  <RI>
0

>  <Rbt.Current_Directory>
/home/itssahil/PROJECTS/Mol_Feturizer/Test_systems_manuscript/rnas/2b57

>  <Rbt.Executable>
rbdock ($Id: //depot/dev/client3/rdock/2013.1/src/exe/rbdock.cxx#4 $)

>  <Rbt.Library>
libRbt.so (2013.1, Build901 2013/11/27)

>  <Rbt.Parameter_File>
/export/apps/rDock/src/rDock_2013.1_src/data/scripts/dock_solv.prm

>  <Rbt.Receptor>
prm/blind_docking_20.prm

>  <SCORE>
-7.95219

>  <SCORE.INTER>
-7.9524

>  <SCORE.INTER.CONST>
1

>  <SCORE.INTER.POLAR>
0

>  <SCORE.INTER.ROT>
0

>  <SCORE.INTER.SOLV>
3.5394

>  <SCORE.INTER.VDW>
-10.0814

>  <SCORE.INTER.norm>
-0.722946

>  <SCORE.INTRA>
0

>  <SCORE.INTRA.DIHEDRAL>
0

>  <SCORE.INTRA.DIHEDRAL.0>
0

>  <SCORE.INTRA.POLAR>
0

>  <SCORE.INTRA.POLAR.0>
0

>  <SCORE.INTRA.REPUL>
0

>  <SCORE.INTRA.REPUL.0>
0

>  <SCORE.INTRA.SOLV>
0

>  <SCORE.INTRA.SOLV.lig_0>
-48.3454

>  <SCORE.INTRA.VDW>
0

>  <SCORE.INTRA.VDW.0>
0

>  <SCORE.INTRA.norm>
0

>  <SCORE.RESTR>
0.00021139

>  <SCORE.RESTR.CAVITY>
0.00021139

>  <SCORE.RESTR.norm>
1.92172e-05

>  <SCORE.SYSTEM>
0

>  <SCORE.SYSTEM.CONST>
0

>  <SCORE.SYSTEM.DIHEDRAL>
0

>  <SCORE.SYSTEM.SOLV>
0

>  <SCORE.SYSTEM.norm>
0

>  <SCORE.heavy>
11

>  <SCORE.norm>
-0.722926

>  <RMSD>
10.567

$$$$
ligand
 OpenBabel02271912153D
libRbt.so/2013.1/901 2013/11/27
 11 12  0  0  0  0  0  0  0  0999 V2000
  -12.0076   -2.1420    3.9998 N   0  0  0  0  0  0  0  0  0  0  0  0
  -11.3155   -2.5579    5.0725 C   0  0  0  0  0  0  0  0  0  0  0  0
  -11.3364   -1.8390    6.1913 N   0  0  0  0  0  0  0  0  0  0  0  0
  -10.5937   -3.6882    5.0229 N   0  0  0  0  0  0  0  0  0  0  0  0
  -10.5471   -4.4221    3.9013 C   0  0  0  0  0  0  0  0  0  0  0  0
  -11.2538   -4.0145    2.7770 C   0  0  0  0  0  0  0  0  0  0  0  0
  -11.9966   -2.8409    2.8538 C   0  0  0  0  0  0  0  0  0  0  0  0
  -12.6957   -2.4190    1.8043 N   0  0  0  0  0  0  0  0  0  0  0  0
  -11.0237   -4.9036    1.8155 N   0  0  0  0  0  0  0  0  0  0  0  0
  -10.2075   -5.8331    2.3072 C   0  0  0  0  0  0  0  0  0  0  0  0
   -9.9153   -5.5457    3.5739 N   0  0  0  0  0  0  0  0  0  0  0  0
  1  7  2  0  0  0  0
  1  2  1  0  0  0  0
  2  3  1  0  0  0  0
  2  4  2  0  0  0  0
  4  5  1  0  0  0  0
  5  6  2  0  0  0  0
  5 11  1  0  0  0  0
  6  7  1  0  0  0  0
  6  9  1  0  0  0  0
  7  8  1  0  0  0  0
  9 10  1  0  0  0  0
 10 11  2  0  0  0  0
M  END
>  <CHROM.1>
-11.17954235,-3.63579068,3.58781677,1.96881041,-0.91295547,1.03715214

>  <Name>
ligand

>  <RI>
0

>  <Rbt.Current_Directory>
/home/itssahil/PROJECTS/Mol_Feturizer/Test_systems_manuscript/rnas/2b57

>  <Rbt.Executable>
rbdock ($Id: //depot/dev/client3/rdock/2013.1/src/exe/rbdock.cxx#4 $)

>  <Rbt.Library>
libRbt.so (2013.1, Build901 2013/11/27)

>  <Rbt.Parameter_File>
/export/apps/rDock/src/rDock_2013.1_src/data/scripts/dock_solv.prm

>  <Rbt.Receptor>
prm/blind_docking_20.prm

>  <SCORE>
-7.03262

>  <SCORE.INTER>
-7.03262

>  <SCORE.INTER.CONST>
1

>  <SCORE.INTER.POLAR>
0

>  <SCORE.INTER.ROT>
0

>  <SCORE.INTER.SOLV>
3.6725

>  <SCORE.INTER.VDW>
-9.51258

>  <SCORE.INTER.norm>
-0.639329

>  <SCORE.INTRA>
0

>  <SCORE.INTRA.DIHEDRAL>
0

>  <SCORE.INTRA.DIHEDRAL.0>
0

>  <SCORE.INTRA.POLAR>
0

>  <SCORE.INTRA.POLAR.0>
0

>  <SCORE.INTRA.REPUL>
0

>  <SCORE.INTRA.REPUL.0>
0

>  <SCORE.INTRA.SOLV>
0

>  <SCORE.INTRA.SOLV.lig_0>
-48.3454

>  <SCORE.INTRA.VDW>
0

>  <SCORE.INTRA.VDW.0>
0

>  <SCORE.INTRA.norm>
0

>  <SCORE.RESTR>
0

>  <SCORE.RESTR.CAVITY>
0

>  <SCORE.RESTR.norm>
0

>  <SCORE.SYSTEM>
0

>  <SCORE.SYSTEM.CONST>
0

>  <SCORE.SYSTEM.DIHEDRAL>
0

>  <SCORE.SYSTEM.SOLV>
0

>  <SCORE.SYSTEM.norm>
0

>  <SCORE.heavy>
11

>  <SCORE.norm>
-0.639329

>  <RMSD>
10.599

$$$$
ligand
 OpenBabel02271912153D
libRbt.so/2013.1/901 2013/11/27
 11 12  0  0  0  0  0  0  0  0999 V2000
  -12.0777   -2.0611    3.9052 N   0  0  0  0  0  0  0  0  0  0  0  0
  -11.4157   -2.4489    5.0071 C   0  0  0  0  0  0  0  0  0  0  0  0
  -11.4618   -1.6978    6.1038 N   0  0  0  0  0  0  0  0  0  0  0  0
  -10.6988   -3.5834    5.0088 N   0  0  0  0  0  0  0  0  0  0  0  0
  -10.6271   -4.3496    3.9104 C   0  0  0  0  0  0  0  0  0  0  0  0
  -11.3024   -3.9714    2.7568 C   0  0  0  0  0  0  0  0  0  0  0  0
  -12.0407   -2.7929    2.7804 C   0  0  0  0  0  0  0  0  0  0  0  0
  -12.7103   -2.3983    1.7015 N   0  0  0  0  0  0  0  0  0  0  0  0
  -11.0521   -4.8890    1.8276 N   0  0  0  0  0  0  0  0  0  0  0  0
  -10.2538   -5.8076    2.3669 C   0  0  0  0  0  0  0  0  0  0  0  0
   -9.9929   -5.4849    3.6320 N   0  0  0  0  0  0  0  0  0  0  0  0
  1  7  2  0  0  0  0
  1  2  1  0  0  0  0
  2  3  1  0  0  0  0
  2  4  2  0  0  0  0
  4  5  1  0  0  0  0
  5  6  2  0  0  0  0
  5 11  1  0  0  0  0
  6  7  1  0  0  0  0
  6  9  1  0  0  0  0
  7  8  1  0  0  0  0
  9 10  1  0  0  0  0
 10 11  2  0  0  0  0
M  END
>  <CHROM.1>
-11.24711557,-3.56982555,3.55805751,2.00160018,-0.93034036,1.03440943

>  <Name>
ligand

>  <RI>
0

>  <Rbt.Current_Directory>
/home/itssahil/PROJECTS/Mol_Feturizer/Test_systems_manuscript/rnas/2b57

>  <Rbt.Executable>
rbdock ($Id: //depot/dev/client3/rdock/2013.1/src/exe/rbdock.cxx#4 $)

>  <Rbt.Library>
libRbt.so (2013.1, Build901 2013/11/27)

>  <Rbt.Parameter_File>
/export/apps/rDock/src/rDock_2013.1_src/data/scripts/dock_solv.prm

>  <Rbt.Receptor>
prm/blind_docking_20.prm

>  <SCORE>
-7.06204

>  <SCORE.INTER>
-7.06204

>  <SCORE.INTER.CONST>
1

>  <SCORE.INTER.POLAR>
0

>  <SCORE.INTER.ROT>
0

>  <SCORE.INTER.SOLV>
3.72324

>  <SCORE.INTER.VDW>
-9.54911

>  <SCORE.INTER.norm>
-0.642004

>  <SCORE.INTRA>
0

>  <SCORE.INTRA.DIHEDRAL>
0

>  <SCORE.INTRA.DIHEDRAL.0>
0

>  <SCORE.INTRA.POLAR>
0

>  <SCORE.INTRA.POLAR.0>
0

>  <SCORE.INTRA.REPUL>
0

>  <SCORE.INTRA.REPUL.0>
0

>  <SCORE.INTRA.SOLV>
0

>  <SCORE.INTRA.SOLV.lig_0>
-48.3454

>  <SCORE.INTRA.VDW>
0

>  <SCORE.INTRA.VDW.0>
0

>  <SCORE.INTRA.norm>
0

>  <SCORE.RESTR>
0

>  <SCORE.RESTR.CAVITY>
0

>  <SCORE.RESTR.norm>
0

>  <SCORE.SYSTEM>
0

>  <SCORE.SYSTEM.CONST>
0

>  <SCORE.SYSTEM.DIHEDRAL>
0

>  <SCORE.SYSTEM.SOLV>
0

>  <SCORE.SYSTEM.norm>
0

>  <SCORE.heavy>
11

>  <SCORE.norm>
-0.642004

>  <RMSD>
10.678

$$$$
ligand
 OpenBabel02271912153D
libRbt.so/2013.1/901 2013/11/27
 11 12  0  0  0  0  0  0  0  0999 V2000
  -12.4608   -2.6088    2.0650 N   0  0  0  0  0  0  0  0  0  0  0  0
  -11.7009   -3.2991    1.1998 C   0  0  0  0  0  0  0  0  0  0  0  0
  -11.7517   -3.0128   -0.0981 N   0  0  0  0  0  0  0  0  0  0  0  0
  -10.8974   -4.2834    1.6317 N   0  0  0  0  0  0  0  0  0  0  0  0
  -10.8400   -4.5985    2.9341 C   0  0  0  0  0  0  0  0  0  0  0  0
  -11.6159   -3.9001    3.8505 C   0  0  0  0  0  0  0  0  0  0  0  0
  -12.4388   -2.8826    3.3790 C   0  0  0  0  0  0  0  0  0  0  0  0
  -13.1911   -2.1822    4.2226 N   0  0  0  0  0  0  0  0  0  0  0  0
  -11.3806   -4.4191    5.0519 N   0  0  0  0  0  0  0  0  0  0  0  0
  -10.4958   -5.4026    4.9045 C   0  0  0  0  0  0  0  0  0  0  0  0
  -10.1639   -5.5155    3.6201 N   0  0  0  0  0  0  0  0  0  0  0  0
  1  7  2  0  0  0  0
  1  2  1  0  0  0  0
  2  3  1  0  0  0  0
  2  4  2  0  0  0  0
  4  5  1  0  0  0  0
  5  6  2  0  0  0  0
  5 11  1  0  0  0  0
  6  7  1  0  0  0  0
  6  9  1  0  0  0  0
  7  8  1  0  0  0  0
  9 10  1  0  0  0  0
 10 11  2  0  0  0  0
M  END
>  <CHROM.1>
-11.54814072,-3.81462165,2.95921562,1.97503579,0.84057432,-1.38056897

>  <Name>
ligand

>  <RI>
0

>  <Rbt.Current_Directory>
/home/itssahil/PROJECTS/Mol_Feturizer/Test_systems_manuscript/rnas/2b57

>  <Rbt.Executable>
rbdock ($Id: //depot/dev/client3/rdock/2013.1/src/exe/rbdock.cxx#4 $)

>  <Rbt.Library>
libRbt.so (2013.1, Build901 2013/11/27)

>  <Rbt.Parameter_File>
/export/apps/rDock/src/rDock_2013.1_src/data/scripts/dock_solv.prm

>  <Rbt.Receptor>
prm/blind_docking_20.prm

>  <SCORE>
-6.82889

>  <SCORE.INTER>
-6.82889

>  <SCORE.INTER.CONST>
1

>  <SCORE.INTER.POLAR>
0

>  <SCORE.INTER.ROT>
0

>  <SCORE.INTER.SOLV>
4.84912

>  <SCORE.INTER.VDW>
-9.76896

>  <SCORE.INTER.norm>
-0.620808

>  <SCORE.INTRA>
0

>  <SCORE.INTRA.DIHEDRAL>
0

>  <SCORE.INTRA.DIHEDRAL.0>
0

>  <SCORE.INTRA.POLAR>
0

>  <SCORE.INTRA.POLAR.0>
0

>  <SCORE.INTRA.REPUL>
0

>  <SCORE.INTRA.REPUL.0>
0

>  <SCORE.INTRA.SOLV>
0

>  <SCORE.INTRA.SOLV.lig_0>
-48.3454

>  <SCORE.INTRA.VDW>
0

>  <SCORE.INTRA.VDW.0>
0

>  <SCORE.INTRA.norm>
0

>  <SCORE.RESTR>
0

>  <SCORE.RESTR.CAVITY>
0

>  <SCORE.RESTR.norm>
0

>  <SCORE.SYSTEM>
0

>  <SCORE.SYSTEM.CONST>
0

>  <SCORE.SYSTEM.DIHEDRAL>
0

>  <SCORE.SYSTEM.SOLV>
0

>  <SCORE.SYSTEM.norm>
0

>  <SCORE.heavy>
11

>  <SCORE.norm>
-0.620808

>  <RMSD>
11.018

$$$$
ligand
 OpenBabel02271912153D
libRbt.so/2013.1/901 2013/11/27
 11 12  0  0  0  0  0  0  0  0999 V2000
  -12.4112   -2.5572    2.0505 N   0  0  0  0  0  0  0  0  0  0  0  0
  -11.6412   -3.2630    1.2069 C   0  0  0  0  0  0  0  0  0  0  0  0
  -11.6518   -2.9782   -0.0922 N   0  0  0  0  0  0  0  0  0  0  0  0
  -10.8678   -4.2611    1.6616 N   0  0  0  0  0  0  0  0  0  0  0  0
  -10.8511   -4.5748    2.9655 C   0  0  0  0  0  0  0  0  0  0  0  0
  -11.6383   -3.8605    3.8598 C   0  0  0  0  0  0  0  0  0  0  0  0
  -12.4294   -2.8289    3.3650 C   0  0  0  0  0  0  0  0  0  0  0  0
  -13.1910   -2.1132    4.1871 N   0  0  0  0  0  0  0  0  0  0  0  0
  -11.4449   -4.3815    5.0677 N   0  0  0  0  0  0  0  0  0  0  0  0
  -10.5747   -5.3814    4.9455 C   0  0  0  0  0  0  0  0  0  0  0  0
  -10.2106   -5.5028    3.6706 N   0  0  0  0  0  0  0  0  0  0  0  0
  1  7  2  0  0  0  0
  1  2  1  0  0  0  0
  2  3  1  0  0  0  0
  2  4  2  0  0  0  0
  4  5  1  0  0  0  0
  5  6  2  0  0  0  0
  5 11  1  0  0  0  0
  6  7  1  0  0  0  0
  6  9  1  0  0  0  0
  7  8  1  0  0  0  0
  9 10  1  0  0  0  0
 10 11  2  0  0  0  0
M  END
>  <CHROM.1>
-11.54510884,-3.77792768,2.97051690,1.92971182,0.85309211,-1.34822089

>  <Name>
ligand

>  <RI>
0

>  <Rbt.Current_Directory>
/home/itssahil/PROJECTS/Mol_Feturizer/Test_systems_manuscript/rnas/2b57

>  <Rbt.Executable>
rbdock ($Id: //depot/dev/client3/rdock/2013.1/src/exe/rbdock.cxx#4 $)

>  <Rbt.Library>
libRbt.so (2013.1, Build901 2013/11/27)

>  <Rbt.Parameter_File>
/export/apps/rDock/src/rDock_2013.1_src/data/scripts/dock_solv.prm

>  <Rbt.Receptor>
prm/blind_docking_20.prm

>  <SCORE>
-6.8973

>  <SCORE.INTER>
-6.8973

>  <SCORE.INTER.CONST>
1

>  <SCORE.INTER.POLAR>
0

>  <SCORE.INTER.ROT>
0

>  <SCORE.INTER.SOLV>
5.14049

>  <SCORE.INTER.VDW>
-9.9117

>  <SCORE.INTER.norm>
-0.627028

>  <SCORE.INTRA>
0

>  <SCORE.INTRA.DIHEDRAL>
0

>  <SCORE.INTRA.DIHEDRAL.0>
0

>  <SCORE.INTRA.POLAR>
0

>  <SCORE.INTRA.POLAR.0>
0

>  <SCORE.INTRA.REPUL>
0

>  <SCORE.INTRA.REPUL.0>
0

>  <SCORE.INTRA.SOLV>
0

>  <SCORE.INTRA.SOLV.lig_0>
-48.3454

>  <SCORE.INTRA.VDW>
0

>  <SCORE.INTRA.VDW.0>
0

>  <SCORE.INTRA.norm>
0

>  <SCORE.RESTR>
0

>  <SCORE.RESTR.CAVITY>
0

>  <SCORE.RESTR.norm>
0

>  <SCORE.SYSTEM>
0

>  <SCORE.SYSTEM.CONST>
0

>  <SCORE.SYSTEM.DIHEDRAL>
0

>  <SCORE.SYSTEM.SOLV>
0

>  <SCORE.SYSTEM.norm>
0

>  <SCORE.heavy>
11

>  <SCORE.norm>
-0.627028

>  <RMSD>
11.046

$$$$
ligand
 OpenBabel02271912153D
libRbt.so/2013.1/901 2013/11/27
 11 12  0  0  0  0  0  0  0  0999 V2000
  -12.7210   -1.9751    2.8881 N   0  0  0  0  0  0  0  0  0  0  0  0
  -12.3630   -1.9863    4.1821 C   0  0  0  0  0  0  0  0  0  0  0  0
  -12.8004   -1.0301    4.9966 N   0  0  0  0  0  0  0  0  0  0  0  0
  -11.5586   -2.9486    4.6595 N   0  0  0  0  0  0  0  0  0  0  0  0
  -11.0946   -3.9152    3.8537 C   0  0  0  0  0  0  0  0  0  0  0  0
  -11.4495   -3.9271    2.5107 C   0  0  0  0  0  0  0  0  0  0  0  0
  -12.2863   -2.9205    2.0401 C   0  0  0  0  0  0  0  0  0  0  0  0
  -12.6587   -2.8990    0.7638 N   0  0  0  0  0  0  0  0  0  0  0  0
  -10.8474   -4.9699    1.9469 N   0  0  0  0  0  0  0  0  0  0  0  0
  -10.1420   -5.5915    2.8893 C   0  0  0  0  0  0  0  0  0  0  0  0
  -10.2890   -4.9551    4.0494 N   0  0  0  0  0  0  0  0  0  0  0  0
  1  7  2  0  0  0  0
  1  2  1  0  0  0  0
  2  3  1  0  0  0  0
  2  4  2  0  0  0  0
  4  5  1  0  0  0  0
  5  6  2  0  0  0  0
  5 11  1  0  0  0  0
  6  7  1  0  0  0  0
  6  9  1  0  0  0  0
  7  8  1  0  0  0  0
  9 10  1  0  0  0  0
 10 11  2  0  0  0  0
M  END
>  <CHROM.1>
-11.66855777,-3.35406532,3.16643947,2.51975287,-0.91980606,1.20114760

>  <Name>
ligand

>  <RI>
0

>  <Rbt.Current_Directory>
/home/itssahil/PROJECTS/Mol_Feturizer/Test_systems_manuscript/rnas/2b57

>  <Rbt.Executable>
rbdock ($Id: //depot/dev/client3/rdock/2013.1/src/exe/rbdock.cxx#4 $)

>  <Rbt.Library>
libRbt.so (2013.1, Build901 2013/11/27)

>  <Rbt.Parameter_File>
/export/apps/rDock/src/rDock_2013.1_src/data/scripts/dock_solv.prm

>  <Rbt.Receptor>
prm/blind_docking_20.prm

>  <SCORE>
-6.83917

>  <SCORE.INTER>
-6.83917

>  <SCORE.INTER.CONST>
1

>  <SCORE.INTER.POLAR>
0

>  <SCORE.INTER.ROT>
0

>  <SCORE.INTER.SOLV>
2.06654

>  <SCORE.INTER.VDW>
-8.84829

>  <SCORE.INTER.norm>
-0.621743

>  <SCORE.INTRA>
0

>  <SCORE.INTRA.DIHEDRAL>
0

>  <SCORE.INTRA.DIHEDRAL.0>
0

>  <SCORE.INTRA.POLAR>
0

>  <SCORE.INTRA.POLAR.0>
0

>  <SCORE.INTRA.REPUL>
0

>  <SCORE.INTRA.REPUL.0>
0

>  <SCORE.INTRA.SOLV>
0

>  <SCORE.INTRA.SOLV.lig_0>
-48.3454

>  <SCORE.INTRA.VDW>
0

>  <SCORE.INTRA.VDW.0>
0

>  <SCORE.INTRA.norm>
0

>  <SCORE.RESTR>
0

>  <SCORE.RESTR.CAVITY>
0

>  <SCORE.RESTR.norm>
0

>  <SCORE.SYSTEM>
0

>  <SCORE.SYSTEM.CONST>
0

>  <SCORE.SYSTEM.DIHEDRAL>
0

>  <SCORE.SYSTEM.SOLV>
0

>  <SCORE.SYSTEM.norm>
0

>  <SCORE.heavy>
11

>  <SCORE.norm>
-0.621743

>  <RMSD>
11.134

$$$$
ligand
 OpenBabel02271912153D
libRbt.so/2013.1/901 2013/11/27
 11 12  0  0  0  0  0  0  0  0999 V2000
  -11.7159   -1.8345    4.4793 N   0  0  0  0  0  0  0  0  0  0  0  0
  -12.0260   -1.6438    3.1869 C   0  0  0  0  0  0  0  0  0  0  0  0
  -12.5998   -0.5058    2.8063 N   0  0  0  0  0  0  0  0  0  0  0  0
  -11.7715   -2.5961    2.2762 N   0  0  0  0  0  0  0  0  0  0  0  0
  -11.2059   -3.7568    2.6392 C   0  0  0  0  0  0  0  0  0  0  0  0
  -10.8751   -3.9799    3.9698 C   0  0  0  0  0  0  0  0  0  0  0  0
  -11.1463   -2.9769    4.8945 C   0  0  0  0  0  0  0  0  0  0  0  0
  -10.8373   -3.1445    6.1769 N   0  0  0  0  0  0  0  0  0  0  0  0
  -10.3501   -5.1987    4.0527 N   0  0  0  0  0  0  0  0  0  0  0  0
  -10.3483   -5.7255    2.8302 C   0  0  0  0  0  0  0  0  0  0  0  0
  -10.8667   -4.8536    1.9678 N   0  0  0  0  0  0  0  0  0  0  0  0
  1  7  2  0  0  0  0
  1  2  1  0  0  0  0
  2  3  1  0  0  0  0
  2  4  2  0  0  0  0
  4  5  1  0  0  0  0
  5  6  2  0  0  0  0
  5 11  1  0  0  0  0
  6  7  1  0  0  0  0
  6  9  1  0  0  0  0
  7  8  1  0  0  0  0
  9 10  1  0  0  0  0
 10 11  2  0  0  0  0
M  END
>  <CHROM.1>
-11.25828750,-3.26992252,3.57551942,-2.71542707,1.13418830,-1.96828357

>  <Name>
ligand

>  <RI>
0

>  <Rbt.Current_Directory>
/home/itssahil/PROJECTS/Mol_Feturizer/Test_systems_manuscript/rnas/2b57

>  <Rbt.Executable>
rbdock ($Id: //depot/dev/client3/rdock/2013.1/src/exe/rbdock.cxx#4 $)

>  <Rbt.Library>
libRbt.so (2013.1, Build901 2013/11/27)

>  <Rbt.Parameter_File>
/export/apps/rDock/src/rDock_2013.1_src/data/scripts/dock_solv.prm

>  <Rbt.Receptor>
prm/blind_docking_20.prm

>  <SCORE>
-7.23856

>  <SCORE.INTER>
-7.23856

>  <SCORE.INTER.CONST>
1

>  <SCORE.INTER.POLAR>
0

>  <SCORE.INTER.ROT>
0

>  <SCORE.INTER.SOLV>
2.43276

>  <SCORE.INTER.VDW>
-9.23663

>  <SCORE.INTER.norm>
-0.658051

>  <SCORE.INTRA>
0

>  <SCORE.INTRA.DIHEDRAL>
0

>  <SCORE.INTRA.DIHEDRAL.0>
0

>  <SCORE.INTRA.POLAR>
0

>  <SCORE.INTRA.POLAR.0>
0

>  <SCORE.INTRA.REPUL>
0

>  <SCORE.INTRA.REPUL.0>
0

>  <SCORE.INTRA.SOLV>
0

>  <SCORE.INTRA.SOLV.lig_0>
-48.3454

>  <SCORE.INTRA.VDW>
0

>  <SCORE.INTRA.VDW.0>
0

>  <SCORE.INTRA.norm>
0

>  <SCORE.RESTR>
0

>  <SCORE.RESTR.CAVITY>
0

>  <SCORE.RESTR.norm>
0

>  <SCORE.SYSTEM>
0

>  <SCORE.SYSTEM.CONST>
0

>  <SCORE.SYSTEM.DIHEDRAL>
0

>  <SCORE.SYSTEM.SOLV>
0

>  <SCORE.SYSTEM.norm>
0

>  <SCORE.heavy>
11

>  <SCORE.norm>
-0.658051

>  <RMSD>
11.138

$$$$
ligand
 OpenBabel02271912153D
libRbt.so/2013.1/901 2013/11/27
 11 12  0  0  0  0  0  0  0  0999 V2000
  -11.7346   -1.8373    4.3952 N   0  0  0  0  0  0  0  0  0  0  0  0
  -12.0270   -1.6673    3.0959 C   0  0  0  0  0  0  0  0  0  0  0  0
  -12.5949   -0.5354    2.6893 N   0  0  0  0  0  0  0  0  0  0  0  0
  -11.7607   -2.6343    2.2042 N   0  0  0  0  0  0  0  0  0  0  0  0
  -11.2007   -3.7892    2.5934 C   0  0  0  0  0  0  0  0  0  0  0  0
  -10.8882   -3.9910    3.9318 C   0  0  0  0  0  0  0  0  0  0  0  0
  -11.1714   -2.9732    4.8365 C   0  0  0  0  0  0  0  0  0  0  0  0
  -10.8800   -3.1203    6.1255 N   0  0  0  0  0  0  0  0  0  0  0  0
  -10.3651   -5.2085    4.0414 N   0  0  0  0  0  0  0  0  0  0  0  0
  -10.3470   -5.7548    2.8276 C   0  0  0  0  0  0  0  0  0  0  0  0
  -10.8530   -4.8967    1.9444 N   0  0  0  0  0  0  0  0  0  0  0  0
  1  7  2  0  0  0  0
  1  2  1  0  0  0  0
  2  3  1  0  0  0  0
  2  4  2  0  0  0  0
  4  5  1  0  0  0  0
  5  6  2  0  0  0  0
  5 11  1  0  0  0  0
  6  7  1  0  0  0  0
  6  9  1  0  0  0  0
  7  8  1  0  0  0  0
  9 10  1  0  0  0  0
 10 11  2  0  0  0  0
M  END
>  <CHROM.1>
-11.26558936,-3.28730431,3.52097960,-2.74494021,1.13982887,-1.95756318

>  <Name>
ligand

>  <RI>
0

>  <Rbt.Current_Directory>
/home/itssahil/PROJECTS/Mol_Feturizer/Test_systems_manuscript/rnas/2b57

>  <Rbt.Executable>
rbdock ($Id: //depot/dev/client3/rdock/2013.1/src/exe/rbdock.cxx#4 $)

>  <Rbt.Library>
libRbt.so (2013.1, Build901 2013/11/27)

>  <Rbt.Parameter_File>
/export/apps/rDock/src/rDock_2013.1_src/data/scripts/dock_solv.prm

>  <Rbt.Receptor>
prm/blind_docking_20.prm

>  <SCORE>
-7.28866

>  <SCORE.INTER>
-7.28866

>  <SCORE.INTER.CONST>
1

>  <SCORE.INTER.POLAR>
0

>  <SCORE.INTER.ROT>
0

>  <SCORE.INTER.SOLV>
2.36926

>  <SCORE.INTER.VDW>
-9.24886

>  <SCORE.INTER.norm>
-0.662606

>  <SCORE.INTRA>
0

>  <SCORE.INTRA.DIHEDRAL>
0

>  <SCORE.INTRA.DIHEDRAL.0>
0

>  <SCORE.INTRA.POLAR>
0

>  <SCORE.INTRA.POLAR.0>
0

>  <SCORE.INTRA.REPUL>
0

>  <SCORE.INTRA.REPUL.0>
0

>  <SCORE.INTRA.SOLV>
0

>  <SCORE.INTRA.SOLV.lig_0>
-48.3454

>  <SCORE.INTRA.VDW>
0

>  <SCORE.INTRA.VDW.0>
0

>  <SCORE.INTRA.norm>
0

>  <SCORE.RESTR>
0

>  <SCORE.RESTR.CAVITY>
0

>  <SCORE.RESTR.norm>
0

>  <SCORE.SYSTEM>
0

>  <SCORE.SYSTEM.CONST>
0

>  <SCORE.SYSTEM.DIHEDRAL>
0

>  <SCORE.SYSTEM.SOLV>
0

>  <SCORE.SYSTEM.norm>
0

>  <SCORE.heavy>
11

>  <SCORE.norm>
-0.662606

>  <RMSD>
11.145

$$$$
ligand
 OpenBabel02271912153D
libRbt.so/2013.1/901 2013/11/27
 11 12  0  0  0  0  0  0  0  0999 V2000
  -11.7355   -1.8292    4.3926 N   0  0  0  0  0  0  0  0  0  0  0  0
  -12.0335   -1.6673    3.0935 C   0  0  0  0  0  0  0  0  0  0  0  0
  -12.6083   -0.5403    2.6833 N   0  0  0  0  0  0  0  0  0  0  0  0
  -11.7658   -2.6376    2.2058 N   0  0  0  0  0  0  0  0  0  0  0  0
  -11.1989   -3.7878    2.5988 C   0  0  0  0  0  0  0  0  0  0  0  0
  -10.8804   -3.9811    3.9371 C   0  0  0  0  0  0  0  0  0  0  0  0
  -11.1652   -2.9600    4.8376 C   0  0  0  0  0  0  0  0  0  0  0  0
  -10.8683   -3.0991    6.1263 N   0  0  0  0  0  0  0  0  0  0  0  0
  -10.3511   -5.1956    4.0510 N   0  0  0  0  0  0  0  0  0  0  0  0
  -10.3349   -5.7480    2.8400 C   0  0  0  0  0  0  0  0  0  0  0  0
  -10.8483   -4.8970    1.9543 N   0  0  0  0  0  0  0  0  0  0  0  0
  1  7  2  0  0  0  0
  1  2  1  0  0  0  0
  2  3  1  0  0  0  0
  2  4  2  0  0  0  0
  4  5  1  0  0  0  0
  5  6  2  0  0  0  0
  5 11  1  0  0  0  0
  6  7  1  0  0  0  0
  6  9  1  0  0  0  0
  7  8  1  0  0  0  0
  9 10  1  0  0  0  0
 10 11  2  0  0  0  0
M  END
>  <CHROM.1>
-11.26273392,-3.28140422,3.52409533,-2.74114755,1.13398451,-1.96615212

>  <Name>
ligand

>  <RI>
0

>  <Rbt.Current_Directory>
/home/itssahil/PROJECTS/Mol_Feturizer/Test_systems_manuscript/rnas/2b57

>  <Rbt.Executable>
rbdock ($Id: //depot/dev/client3/rdock/2013.1/src/exe/rbdock.cxx#4 $)

>  <Rbt.Library>
libRbt.so (2013.1, Build901 2013/11/27)

>  <Rbt.Parameter_File>
/export/apps/rDock/src/rDock_2013.1_src/data/scripts/dock_solv.prm

>  <Rbt.Receptor>
prm/blind_docking_20.prm

>  <SCORE>
-7.29472

>  <SCORE.INTER>
-7.29472

>  <SCORE.INTER.CONST>
1

>  <SCORE.INTER.POLAR>
0

>  <SCORE.INTER.ROT>
0

>  <SCORE.INTER.SOLV>
2.35444

>  <SCORE.INTER.VDW>
-9.24796

>  <SCORE.INTER.norm>
-0.663157

>  <SCORE.INTRA>
0

>  <SCORE.INTRA.DIHEDRAL>
0

>  <SCORE.INTRA.DIHEDRAL.0>
0

>  <SCORE.INTRA.POLAR>
0

>  <SCORE.INTRA.POLAR.0>
0

>  <SCORE.INTRA.REPUL>
0

>  <SCORE.INTRA.REPUL.0>
0

>  <SCORE.INTRA.SOLV>
0

>  <SCORE.INTRA.SOLV.lig_0>
-48.3454

>  <SCORE.INTRA.VDW>
0

>  <SCORE.INTRA.VDW.0>
0

>  <SCORE.INTRA.norm>
0

>  <SCORE.RESTR>
0

>  <SCORE.RESTR.CAVITY>
0

>  <SCORE.RESTR.norm>
0

>  <SCORE.SYSTEM>
0

>  <SCORE.SYSTEM.CONST>
0

>  <SCORE.SYSTEM.DIHEDRAL>
0

>  <SCORE.SYSTEM.SOLV>
0

>  <SCORE.SYSTEM.norm>
0

>  <SCORE.heavy>
11

>  <SCORE.norm>
-0.663157

>  <RMSD>
11.149

$$$$
ligand
 OpenBabel02271912153D
libRbt.so/2013.1/901 2013/11/27
 11 12  0  0  0  0  0  0  0  0999 V2000
  -11.6493   -1.8201    4.3776 N   0  0  0  0  0  0  0  0  0  0  0  0
  -12.0132   -1.6691    3.0940 C   0  0  0  0  0  0  0  0  0  0  0  0
  -12.5939   -0.5391    2.7007 N   0  0  0  0  0  0  0  0  0  0  0  0
  -11.8054   -2.6532    2.2054 N   0  0  0  0  0  0  0  0  0  0  0  0
  -11.2338   -3.8065    2.5823 C   0  0  0  0  0  0  0  0  0  0  0  0
  -10.8479   -3.9887    3.9042 C   0  0  0  0  0  0  0  0  0  0  0  0
  -11.0713   -2.9535    4.8059 C   0  0  0  0  0  0  0  0  0  0  0  0
  -10.7088   -3.0817    6.0788 N   0  0  0  0  0  0  0  0  0  0  0  0
  -10.3293   -5.2090    4.0051 N   0  0  0  0  0  0  0  0  0  0  0  0
  -10.3842   -5.7756    2.8018 C   0  0  0  0  0  0  0  0  0  0  0  0
  -10.9323   -4.9278    1.9338 N   0  0  0  0  0  0  0  0  0  0  0  0
  1  7  2  0  0  0  0
  1  2  1  0  0  0  0
  2  3  1  0  0  0  0
  2  4  2  0  0  0  0
  4  5  1  0  0  0  0
  5  6  2  0  0  0  0
  5 11  1  0  0  0  0
  6  7  1  0  0  0  0
  6  9  1  0  0  0  0
  7  8  1  0  0  0  0
  9 10  1  0  0  0  0
 10 11  2  0  0  0  0
M  END
>  <CHROM.1>
-11.24212113,-3.28861313,3.50331026,-2.61685124,1.12282737,-2.09043813

>  <Name>
ligand

>  <RI>
0

>  <Rbt.Current_Directory>
/home/itssahil/PROJECTS/Mol_Feturizer/Test_systems_manuscript/rnas/2b57

>  <Rbt.Executable>
rbdock ($Id: //depot/dev/client3/rdock/2013.1/src/exe/rbdock.cxx#4 $)

>  <Rbt.Library>
libRbt.so (2013.1, Build901 2013/11/27)

>  <Rbt.Parameter_File>
/export/apps/rDock/src/rDock_2013.1_src/data/scripts/dock_solv.prm

>  <Rbt.Receptor>
prm/blind_docking_20.prm

>  <SCORE>
-7.2985

>  <SCORE.INTER>
-7.2985

>  <SCORE.INTER.CONST>
1

>  <SCORE.INTER.POLAR>
0

>  <SCORE.INTER.ROT>
0

>  <SCORE.INTER.SOLV>
2.82426

>  <SCORE.INTER.VDW>
-9.40709

>  <SCORE.INTER.norm>
-0.6635

>  <SCORE.INTRA>
0

>  <SCORE.INTRA.DIHEDRAL>
0

>  <SCORE.INTRA.DIHEDRAL.0>
0

>  <SCORE.INTRA.POLAR>
0

>  <SCORE.INTRA.POLAR.0>
0

>  <SCORE.INTRA.REPUL>
0

>  <SCORE.INTRA.REPUL.0>
0

>  <SCORE.INTRA.SOLV>
0

>  <SCORE.INTRA.SOLV.lig_0>
-48.3454

>  <SCORE.INTRA.VDW>
0

>  <SCORE.INTRA.VDW.0>
0

>  <SCORE.INTRA.norm>
0

>  <SCORE.RESTR>
0

>  <SCORE.RESTR.CAVITY>
0

>  <SCORE.RESTR.norm>
0

>  <SCORE.SYSTEM>
0

>  <SCORE.SYSTEM.CONST>
0

>  <SCORE.SYSTEM.DIHEDRAL>
0

>  <SCORE.SYSTEM.SOLV>
0

>  <SCORE.SYSTEM.norm>
0

>  <SCORE.heavy>
11

>  <SCORE.norm>
-0.6635

>  <RMSD>
11.151

$$$$
ligand
 OpenBabel02271912153D
libRbt.so/2013.1/901 2013/11/27
 11 12  0  0  0  0  0  0  0  0999 V2000
  -11.4968   -1.7684    4.4670 N   0  0  0  0  0  0  0  0  0  0  0  0
  -11.9650   -1.6034    3.2195 C   0  0  0  0  0  0  0  0  0  0  0  0
  -12.5682   -0.4661    2.8855 N   0  0  0  0  0  0  0  0  0  0  0  0
  -11.8389   -2.5807    2.3084 N   0  0  0  0  0  0  0  0  0  0  0  0
  -11.2463   -3.7411    2.6266 C   0  0  0  0  0  0  0  0  0  0  0  0
  -10.7532   -3.9378    3.9102 C   0  0  0  0  0  0  0  0  0  0  0  0
  -10.8935   -2.9093    4.8361 C   0  0  0  0  0  0  0  0  0  0  0  0
  -10.4274   -3.0515    6.0733 N   0  0  0  0  0  0  0  0  0  0  0  0
  -10.2370   -5.1623    3.9573 N   0  0  0  0  0  0  0  0  0  0  0  0
  -10.3958   -5.7176    2.7580 C   0  0  0  0  0  0  0  0  0  0  0  0
  -11.0079   -4.8584    1.9458 N   0  0  0  0  0  0  0  0  0  0  0  0
  1  7  2  0  0  0  0
  1  2  1  0  0  0  0
  2  3  1  0  0  0  0
  2  4  2  0  0  0  0
  4  5  1  0  0  0  0
  5  6  2  0  0  0  0
  5 11  1  0  0  0  0
  6  7  1  0  0  0  0
  6  9  1  0  0  0  0
  7  8  1  0  0  0  0
  9 10  1  0  0  0  0
 10 11  2  0  0  0  0
M  END
>  <CHROM.1>
-11.17437006,-3.23154149,3.54947943,-2.45476456,1.08230651,-2.22638126

>  <Name>
ligand

>  <RI>
0

>  <Rbt.Current_Directory>
/home/itssahil/PROJECTS/Mol_Feturizer/Test_systems_manuscript/rnas/2b57

>  <Rbt.Executable>
rbdock ($Id: //depot/dev/client3/rdock/2013.1/src/exe/rbdock.cxx#4 $)

>  <Rbt.Library>
libRbt.so (2013.1, Build901 2013/11/27)

>  <Rbt.Parameter_File>
/export/apps/rDock/src/rDock_2013.1_src/data/scripts/dock_solv.prm

>  <Rbt.Receptor>
prm/blind_docking_20.prm

>  <SCORE>
-7.21153

>  <SCORE.INTER>
-7.21153

>  <SCORE.INTER.CONST>
1

>  <SCORE.INTER.POLAR>
0

>  <SCORE.INTER.ROT>
0

>  <SCORE.INTER.SOLV>
3.53569

>  <SCORE.INTER.VDW>
-9.58625

>  <SCORE.INTER.norm>
-0.655594

>  <SCORE.INTRA>
0

>  <SCORE.INTRA.DIHEDRAL>
0

>  <SCORE.INTRA.DIHEDRAL.0>
0

>  <SCORE.INTRA.POLAR>
0

>  <SCORE.INTRA.POLAR.0>
0

>  <SCORE.INTRA.REPUL>
0

>  <SCORE.INTRA.REPUL.0>
0

>  <SCORE.INTRA.SOLV>
0

>  <SCORE.INTRA.SOLV.lig_0>
-48.3454

>  <SCORE.INTRA.VDW>
0

>  <SCORE.INTRA.VDW.0>
0

>  <SCORE.INTRA.norm>
0

>  <SCORE.RESTR>
0

>  <SCORE.RESTR.CAVITY>
0

>  <SCORE.RESTR.norm>
0

>  <SCORE.SYSTEM>
0

>  <SCORE.SYSTEM.CONST>
0

>  <SCORE.SYSTEM.DIHEDRAL>
0

>  <SCORE.SYSTEM.SOLV>
0

>  <SCORE.SYSTEM.norm>
0

>  <SCORE.heavy>
11

>  <SCORE.norm>
-0.655594

>  <RMSD>
11.183

$$$$
ligand
 OpenBabel02271912153D
libRbt.so/2013.1/901 2013/11/27
 11 12  0  0  0  0  0  0  0  0999 V2000
  -12.7569   -1.9158    2.9193 N   0  0  0  0  0  0  0  0  0  0  0  0
  -12.3930   -1.9524    4.2112 C   0  0  0  0  0  0  0  0  0  0  0  0
  -12.8382   -1.0207    5.0494 N   0  0  0  0  0  0  0  0  0  0  0  0
  -11.5749   -2.9157    4.6628 N   0  0  0  0  0  0  0  0  0  0  0  0
  -11.1029   -3.8578    3.8329 C   0  0  0  0  0  0  0  0  0  0  0  0
  -11.4637   -3.8430    2.4915 C   0  0  0  0  0  0  0  0  0  0  0  0
  -12.3146   -2.8361    2.0478 C   0  0  0  0  0  0  0  0  0  0  0  0
  -12.6931   -2.7897    0.7740 N   0  0  0  0  0  0  0  0  0  0  0  0
  -10.8516   -4.8652    1.9012 N   0  0  0  0  0  0  0  0  0  0  0  0
  -10.1346   -5.4997    2.8260 C   0  0  0  0  0  0  0  0  0  0  0  0
  -10.2841   -4.8921    4.0012 N   0  0  0  0  0  0  0  0  0  0  0  0
  1  7  2  0  0  0  0
  1  2  1  0  0  0  0
  2  3  1  0  0  0  0
  2  4  2  0  0  0  0
  4  5  1  0  0  0  0
  5  6  2  0  0  0  0
  5 11  1  0  0  0  0
  6  7  1  0  0  0  0
  6  9  1  0  0  0  0
  7  8  1  0  0  0  0
  9 10  1  0  0  0  0
 10 11  2  0  0  0  0
M  END
>  <CHROM.1>
-11.68668797,-3.28794408,3.16126079,2.51999487,-0.90696746,1.22441459

>  <Name>
ligand

>  <RI>
0

>  <Rbt.Current_Directory>
/home/itssahil/PROJECTS/Mol_Feturizer/Test_systems_manuscript/rnas/2b57

>  <Rbt.Executable>
rbdock ($Id: //depot/dev/client3/rdock/2013.1/src/exe/rbdock.cxx#4 $)

>  <Rbt.Library>
libRbt.so (2013.1, Build901 2013/11/27)

>  <Rbt.Parameter_File>
/export/apps/rDock/src/rDock_2013.1_src/data/scripts/dock_solv.prm

>  <Rbt.Receptor>
prm/blind_docking_20.prm

>  <SCORE>
-6.84029

>  <SCORE.INTER>
-6.84029

>  <SCORE.INTER.CONST>
1

>  <SCORE.INTER.POLAR>
0

>  <SCORE.INTER.ROT>
0

>  <SCORE.INTER.SOLV>
1.79831

>  <SCORE.INTER.VDW>
-8.75963

>  <SCORE.INTER.norm>
-0.621845

>  <SCORE.INTRA>
0

>  <SCORE.INTRA.DIHEDRAL>
0

>  <SCORE.INTRA.DIHEDRAL.0>
0

>  <SCORE.INTRA.POLAR>
0

>  <SCORE.INTRA.POLAR.0>
0

>  <SCORE.INTRA.REPUL>
0

>  <SCORE.INTRA.REPUL.0>
0

>  <SCORE.INTRA.SOLV>
0

>  <SCORE.INTRA.SOLV.lig_0>
-48.3454

>  <SCORE.INTRA.VDW>
0

>  <SCORE.INTRA.VDW.0>
0

>  <SCORE.INTRA.norm>
0

>  <SCORE.RESTR>
0

>  <SCORE.RESTR.CAVITY>
0

>  <SCORE.RESTR.norm>
0

>  <SCORE.SYSTEM>
0

>  <SCORE.SYSTEM.CONST>
0

>  <SCORE.SYSTEM.DIHEDRAL>
0

>  <SCORE.SYSTEM.SOLV>
0

>  <SCORE.SYSTEM.norm>
0

>  <SCORE.heavy>
11

>  <SCORE.norm>
-0.621845

>  <RMSD>
11.187

$$$$
ligand
 OpenBabel02271912153D
libRbt.so/2013.1/901 2013/11/27
 11 12  0  0  0  0  0  0  0  0999 V2000
  -11.4402   -1.7083    4.4659 N   0  0  0  0  0  0  0  0  0  0  0  0
  -11.9255   -1.5597    3.2229 C   0  0  0  0  0  0  0  0  0  0  0  0
  -12.5253   -0.4233    2.8795 N   0  0  0  0  0  0  0  0  0  0  0  0
  -11.8201   -2.5523    2.3258 N   0  0  0  0  0  0  0  0  0  0  0  0
  -11.2313   -3.7119    2.6538 C   0  0  0  0  0  0  0  0  0  0  0  0
  -10.7208   -3.8919    3.9331 C   0  0  0  0  0  0  0  0  0  0  0  0
  -10.8398   -2.8477    4.8444 C   0  0  0  0  0  0  0  0  0  0  0  0
  -10.3566   -2.9737    6.0767 N   0  0  0  0  0  0  0  0  0  0  0  0
  -10.2128   -5.1192    3.9923 N   0  0  0  0  0  0  0  0  0  0  0  0
  -10.3933   -5.6924    2.8044 C   0  0  0  0  0  0  0  0  0  0  0  0
  -11.0111   -4.8417    1.9877 N   0  0  0  0  0  0  0  0  0  0  0  0
  1  7  2  0  0  0  0
  1  2  1  0  0  0  0
  2  3  1  0  0  0  0
  2  4  2  0  0  0  0
  4  5  1  0  0  0  0
  5  6  2  0  0  0  0
  5 11  1  0  0  0  0
  6  7  1  0  0  0  0
  6  9  1  0  0  0  0
  7  8  1  0  0  0  0
  9 10  1  0  0  0  0
 10 11  2  0  0  0  0
M  END
>  <CHROM.1>
-11.14200430,-3.18825676,3.56730739,-2.42059789,1.07884440,-2.27250414

>  <Name>
ligand

>  <RI>
0

>  <Rbt.Current_Directory>
/home/itssahil/PROJECTS/Mol_Feturizer/Test_systems_manuscript/rnas/2b57

>  <Rbt.Executable>
rbdock ($Id: //depot/dev/client3/rdock/2013.1/src/exe/rbdock.cxx#4 $)

>  <Rbt.Library>
libRbt.so (2013.1, Build901 2013/11/27)

>  <Rbt.Parameter_File>
/export/apps/rDock/src/rDock_2013.1_src/data/scripts/dock_solv.prm

>  <Rbt.Receptor>
prm/blind_docking_20.prm

>  <SCORE>
-7.19894

>  <SCORE.INTER>
-7.19894

>  <SCORE.INTER.CONST>
1

>  <SCORE.INTER.POLAR>
0

>  <SCORE.INTER.ROT>
0

>  <SCORE.INTER.SOLV>
3.71946

>  <SCORE.INTER.VDW>
-9.63911

>  <SCORE.INTER.norm>
-0.654449

>  <SCORE.INTRA>
0

>  <SCORE.INTRA.DIHEDRAL>
0

>  <SCORE.INTRA.DIHEDRAL.0>
0

>  <SCORE.INTRA.POLAR>
0

>  <SCORE.INTRA.POLAR.0>
0

>  <SCORE.INTRA.REPUL>
0

>  <SCORE.INTRA.REPUL.0>
0

>  <SCORE.INTRA.SOLV>
0

>  <SCORE.INTRA.SOLV.lig_0>
-48.3454

>  <SCORE.INTRA.VDW>
0

>  <SCORE.INTRA.VDW.0>
0

>  <SCORE.INTRA.norm>
0

>  <SCORE.RESTR>
0

>  <SCORE.RESTR.CAVITY>
0

>  <SCORE.RESTR.norm>
0

>  <SCORE.SYSTEM>
0

>  <SCORE.SYSTEM.CONST>
0

>  <SCORE.SYSTEM.DIHEDRAL>
0

>  <SCORE.SYSTEM.SOLV>
0

>  <SCORE.SYSTEM.norm>
0

>  <SCORE.heavy>
11

>  <SCORE.norm>
-0.654449

>  <RMSD>
11.218

$$$$
ligand
 OpenBabel02271912153D
libRbt.so/2013.1/901 2013/11/27
 11 12  0  0  0  0  0  0  0  0999 V2000
  -12.2579   -1.8116    3.9391 N   0  0  0  0  0  0  0  0  0  0  0  0
  -12.4761   -1.8622    2.6153 C   0  0  0  0  0  0  0  0  0  0  0  0
  -13.1792   -0.9001    2.0246 N   0  0  0  0  0  0  0  0  0  0  0  0
  -11.9993   -2.8811    1.8834 N   0  0  0  0  0  0  0  0  0  0  0  0
  -11.2992   -3.8693    2.4597 C   0  0  0  0  0  0  0  0  0  0  0  0
  -11.0593   -3.8415    3.8277 C   0  0  0  0  0  0  0  0  0  0  0  0
  -11.5614   -2.7738    4.5644 C   0  0  0  0  0  0  0  0  0  0  0  0
  -11.3470   -2.7024    5.8748 N   0  0  0  0  0  0  0  0  0  0  0  0
  -10.3652   -4.9333    4.1345 N   0  0  0  0  0  0  0  0  0  0  0  0
  -10.1738   -5.6230    3.0122 C   0  0  0  0  0  0  0  0  0  0  0  0
  -10.7387   -4.9809    1.9919 N   0  0  0  0  0  0  0  0  0  0  0  0
  1  7  2  0  0  0  0
  1  2  1  0  0  0  0
  2  3  1  0  0  0  0
  2  4  2  0  0  0  0
  4  5  1  0  0  0  0
  5  6  2  0  0  0  0
  5 11  1  0  0  0  0
  6  7  1  0  0  0  0
  6  9  1  0  0  0  0
  7  8  1  0  0  0  0
  9 10  1  0  0  0  0
 10 11  2  0  0  0  0
M  END
>  <CHROM.1>
-11.50870989,-3.26789476,3.30297204,-2.98534669,1.01144791,-1.88223390

>  <Name>
ligand

>  <RI>
0

>  <Rbt.Current_Directory>
/home/itssahil/PROJECTS/Mol_Feturizer/Test_systems_manuscript/rnas/2b57

>  <Rbt.Executable>
rbdock ($Id: //depot/dev/client3/rdock/2013.1/src/exe/rbdock.cxx#4 $)

>  <Rbt.Library>
libRbt.so (2013.1, Build901 2013/11/27)

>  <Rbt.Parameter_File>
/export/apps/rDock/src/rDock_2013.1_src/data/scripts/dock_solv.prm

>  <Rbt.Receptor>
prm/blind_docking_20.prm

>  <SCORE>
-7.06414

>  <SCORE.INTER>
-7.06414

>  <SCORE.INTER.CONST>
1

>  <SCORE.INTER.POLAR>
0

>  <SCORE.INTER.ROT>
0

>  <SCORE.INTER.SOLV>
1.20431

>  <SCORE.INTER.VDW>
-8.71086

>  <SCORE.INTER.norm>
-0.642194

>  <SCORE.INTRA>
0

>  <SCORE.INTRA.DIHEDRAL>
0

>  <SCORE.INTRA.DIHEDRAL.0>
0

>  <SCORE.INTRA.POLAR>
0

>  <SCORE.INTRA.POLAR.0>
0

>  <SCORE.INTRA.REPUL>
0

>  <SCORE.INTRA.REPUL.0>
0

>  <SCORE.INTRA.SOLV>
0

>  <SCORE.INTRA.SOLV.lig_0>
-48.3454

>  <SCORE.INTRA.VDW>
0

>  <SCORE.INTRA.VDW.0>
0

>  <SCORE.INTRA.norm>
0

>  <SCORE.RESTR>
0

>  <SCORE.RESTR.CAVITY>
0

>  <SCORE.RESTR.norm>
0

>  <SCORE.SYSTEM>
0

>  <SCORE.SYSTEM.CONST>
0

>  <SCORE.SYSTEM.DIHEDRAL>
0

>  <SCORE.SYSTEM.SOLV>
0

>  <SCORE.SYSTEM.norm>
0

>  <SCORE.heavy>
11

>  <SCORE.norm>
-0.642194

>  <RMSD>
11.249

$$$$
ligand
 OpenBabel02271912153D
libRbt.so/2013.1/901 2013/11/27
 11 12  0  0  0  0  0  0  0  0999 V2000
  -12.2433   -1.7861    3.8261 N   0  0  0  0  0  0  0  0  0  0  0  0
  -12.3826   -1.8620    2.4929 C   0  0  0  0  0  0  0  0  0  0  0  0
  -13.0555   -0.9158    1.8442 N   0  0  0  0  0  0  0  0  0  0  0  0
  -11.8572   -2.8904    1.8092 N   0  0  0  0  0  0  0  0  0  0  0  0
  -11.1862   -3.8630    2.4439 C   0  0  0  0  0  0  0  0  0  0  0  0
  -11.0276   -3.8089    3.8228 C   0  0  0  0  0  0  0  0  0  0  0  0
  -11.5789   -2.7318    4.5090 C   0  0  0  0  0  0  0  0  0  0  0  0
  -11.4426   -2.6353    5.8282 N   0  0  0  0  0  0  0  0  0  0  0  0
  -10.3462   -4.8900    4.1900 N   0  0  0  0  0  0  0  0  0  0  0  0
  -10.0846   -5.5983    3.0938 C   0  0  0  0  0  0  0  0  0  0  0  0
  -10.5923   -4.9788    2.0303 N   0  0  0  0  0  0  0  0  0  0  0  0
  1  7  2  0  0  0  0
  1  2  1  0  0  0  0
  2  3  1  0  0  0  0
  2  4  2  0  0  0  0
  4  5  1  0  0  0  0
  5  6  2  0  0  0  0
  5 11  1  0  0  0  0
  6  7  1  0  0  0  0
  6  9  1  0  0  0  0
  7  8  1  0  0  0  0
  9 10  1  0  0  0  0
 10 11  2  0  0  0  0
M  END
>  <CHROM.1>
-11.44885100,-3.24808564,3.26210016,-3.09666955,1.02093262,-1.80576898

>  <Name>
ligand

>  <RI>
0

>  <Rbt.Current_Directory>
/home/itssahil/PROJECTS/Mol_Feturizer/Test_systems_manuscript/rnas/2b57

>  <Rbt.Executable>
rbdock ($Id: //depot/dev/client3/rdock/2013.1/src/exe/rbdock.cxx#4 $)

>  <Rbt.Library>
libRbt.so (2013.1, Build901 2013/11/27)

>  <Rbt.Parameter_File>
/export/apps/rDock/src/rDock_2013.1_src/data/scripts/dock_solv.prm

>  <Rbt.Receptor>
prm/blind_docking_20.prm

>  <SCORE>
-7.09644

>  <SCORE.INTER>
-7.09644

>  <SCORE.INTER.CONST>
1

>  <SCORE.INTER.POLAR>
0

>  <SCORE.INTER.ROT>
0

>  <SCORE.INTER.SOLV>
1.19236

>  <SCORE.INTER.VDW>
-8.72841

>  <SCORE.INTER.norm>
-0.645131

>  <SCORE.INTRA>
0

>  <SCORE.INTRA.DIHEDRAL>
0

>  <SCORE.INTRA.DIHEDRAL.0>
0

>  <SCORE.INTRA.POLAR>
0

>  <SCORE.INTRA.POLAR.0>
0

>  <SCORE.INTRA.REPUL>
0

>  <SCORE.INTRA.REPUL.0>
0

>  <SCORE.INTRA.SOLV>
0

>  <SCORE.INTRA.SOLV.lig_0>
-48.3454

>  <SCORE.INTRA.VDW>
0

>  <SCORE.INTRA.VDW.0>
0

>  <SCORE.INTRA.norm>
0

>  <SCORE.RESTR>
0

>  <SCORE.RESTR.CAVITY>
0

>  <SCORE.RESTR.norm>
0

>  <SCORE.SYSTEM>
0

>  <SCORE.SYSTEM.CONST>
0

>  <SCORE.SYSTEM.DIHEDRAL>
0

>  <SCORE.SYSTEM.SOLV>
0

>  <SCORE.SYSTEM.norm>
0

>  <SCORE.heavy>
11

>  <SCORE.norm>
-0.645131

>  <RMSD>
11.289

$$$$
ligand
 OpenBabel02271912153D
libRbt.so/2013.1/901 2013/11/27
 11 12  0  0  0  0  0  0  0  0999 V2000
  -12.2018   -1.7376    3.7245 N   0  0  0  0  0  0  0  0  0  0  0  0
  -12.3056   -1.8475    2.3904 C   0  0  0  0  0  0  0  0  0  0  0  0
  -12.9436   -0.9081    1.6980 N   0  0  0  0  0  0  0  0  0  0  0  0
  -11.7798   -2.9029    1.7495 N   0  0  0  0  0  0  0  0  0  0  0  0
  -11.1438   -3.8690    2.4286 C   0  0  0  0  0  0  0  0  0  0  0  0
  -11.0224   -3.7799    3.8095 C   0  0  0  0  0  0  0  0  0  0  0  0
  -11.5733   -2.6754    4.4508 C   0  0  0  0  0  0  0  0  0  0  0  0
  -11.4717   -2.5452    5.7702 N   0  0  0  0  0  0  0  0  0  0  0  0
  -10.3705   -4.8620    4.2245 N   0  0  0  0  0  0  0  0  0  0  0  0
  -10.0913   -5.6043    3.1554 C   0  0  0  0  0  0  0  0  0  0  0  0
  -10.5585   -5.0055    2.0620 N   0  0  0  0  0  0  0  0  0  0  0  0
  1  7  2  0  0  0  0
  1  2  1  0  0  0  0
  2  3  1  0  0  0  0
  2  4  2  0  0  0  0
  4  5  1  0  0  0  0
  5  6  2  0  0  0  0
  5 11  1  0  0  0  0
  6  7  1  0  0  0  0
  6  9  1  0  0  0  0
  7  8  1  0  0  0  0
  9 10  1  0  0  0  0
 10 11  2  0  0  0  0
M  END
>  <CHROM.1>
-11.41801803,-3.22763660,3.22237142,3.14134514,1.04406890,-1.79405007

>  <Name>
ligand

>  <RI>
0

>  <Rbt.Current_Directory>
/home/itssahil/PROJECTS/Mol_Feturizer/Test_systems_manuscript/rnas/2b57

>  <Rbt.Executable>
rbdock ($Id: //depot/dev/client3/rdock/2013.1/src/exe/rbdock.cxx#4 $)

>  <Rbt.Library>
libRbt.so (2013.1, Build901 2013/11/27)

>  <Rbt.Parameter_File>
/export/apps/rDock/src/rDock_2013.1_src/data/scripts/dock_solv.prm

>  <Rbt.Receptor>
prm/blind_docking_20.prm

>  <SCORE>
-7.12661

>  <SCORE.INTER>
-7.12661

>  <SCORE.INTER.CONST>
1

>  <SCORE.INTER.POLAR>
0

>  <SCORE.INTER.ROT>
0

>  <SCORE.INTER.SOLV>
1.35097

>  <SCORE.INTER.VDW>
-8.8014

>  <SCORE.INTER.norm>
-0.647874

>  <SCORE.INTRA>
0

>  <SCORE.INTRA.DIHEDRAL>
0

>  <SCORE.INTRA.DIHEDRAL.0>
0

>  <SCORE.INTRA.POLAR>
0

>  <SCORE.INTRA.POLAR.0>
0

>  <SCORE.INTRA.REPUL>
0

>  <SCORE.INTRA.REPUL.0>
0

>  <SCORE.INTRA.SOLV>
0

>  <SCORE.INTRA.SOLV.lig_0>
-48.3454

>  <SCORE.INTRA.VDW>
0

>  <SCORE.INTRA.VDW.0>
0

>  <SCORE.INTRA.norm>
0

>  <SCORE.RESTR>
0

>  <SCORE.RESTR.CAVITY>
0

>  <SCORE.RESTR.norm>
0

>  <SCORE.SYSTEM>
0

>  <SCORE.SYSTEM.CONST>
0

>  <SCORE.SYSTEM.DIHEDRAL>
0

>  <SCORE.SYSTEM.SOLV>
0

>  <SCORE.SYSTEM.norm>
0

>  <SCORE.heavy>
11

>  <SCORE.norm>
-0.647874

>  <RMSD>
11.328

$$$$
ligand
 OpenBabel02271912153D
libRbt.so/2013.1/901 2013/11/27
 11 12  0  0  0  0  0  0  0  0999 V2000
  -12.1991   -1.7319    3.6994 N   0  0  0  0  0  0  0  0  0  0  0  0
  -12.3089   -1.8501    2.3664 C   0  0  0  0  0  0  0  0  0  0  0  0
  -12.9442   -0.9116    1.6703 N   0  0  0  0  0  0  0  0  0  0  0  0
  -11.7918   -2.9128    1.7305 N   0  0  0  0  0  0  0  0  0  0  0  0
  -11.1587   -3.8780    2.4135 C   0  0  0  0  0  0  0  0  0  0  0  0
  -11.0313   -3.7805    3.7933 C   0  0  0  0  0  0  0  0  0  0  0  0
  -11.5732   -2.6686    4.4294 C   0  0  0  0  0  0  0  0  0  0  0  0
  -11.4657   -2.5303    5.7475 N   0  0  0  0  0  0  0  0  0  0  0  0
  -10.3840   -4.8635    4.2129 N   0  0  0  0  0  0  0  0  0  0  0  0
  -10.1134   -5.6146    3.1477 C   0  0  0  0  0  0  0  0  0  0  0  0
  -10.5814   -5.0203    2.0521 N   0  0  0  0  0  0  0  0  0  0  0  0
  1  7  2  0  0  0  0
  1  2  1  0  0  0  0
  2  3  1  0  0  0  0
  2  4  2  0  0  0  0
  4  5  1  0  0  0  0
  5  6  2  0  0  0  0
  5 11  1  0  0  0  0
  6  7  1  0  0  0  0
  6  9  1  0  0  0  0
  7  8  1  0  0  0  0
  9 10  1  0  0  0  0
 10 11  2  0  0  0  0
M  END
>  <CHROM.1>
-11.42603157,-3.22982254,3.20404412,-3.13153173,1.04881449,-1.80959700

>  <Name>
ligand

>  <RI>
0

>  <Rbt.Current_Directory>
/home/itssahil/PROJECTS/Mol_Feturizer/Test_systems_manuscript/rnas/2b57

>  <Rbt.Executable>
rbdock ($Id: //depot/dev/client3/rdock/2013.1/src/exe/rbdock.cxx#4 $)

>  <Rbt.Library>
libRbt.so (2013.1, Build901 2013/11/27)

>  <Rbt.Parameter_File>
/export/apps/rDock/src/rDock_2013.1_src/data/scripts/dock_solv.prm

>  <Rbt.Receptor>
prm/blind_docking_20.prm

>  <SCORE>
-7.13093

>  <SCORE.INTER>
-7.13093

>  <SCORE.INTER.CONST>
1

>  <SCORE.INTER.POLAR>
0

>  <SCORE.INTER.ROT>
0

>  <SCORE.INTER.SOLV>
1.39066

>  <SCORE.INTER.VDW>
-8.8175

>  <SCORE.INTER.norm>
-0.648266

>  <SCORE.INTRA>
0

>  <SCORE.INTRA.DIHEDRAL>
0

>  <SCORE.INTRA.DIHEDRAL.0>
0

>  <SCORE.INTRA.POLAR>
0

>  <SCORE.INTRA.POLAR.0>
0

>  <SCORE.INTRA.REPUL>
0

>  <SCORE.INTRA.REPUL.0>
0

>  <SCORE.INTRA.SOLV>
0

>  <SCORE.INTRA.SOLV.lig_0>
-48.3454

>  <SCORE.INTRA.VDW>
0

>  <SCORE.INTRA.VDW.0>
0

>  <SCORE.INTRA.norm>
0

>  <SCORE.RESTR>
0

>  <SCORE.RESTR.CAVITY>
0

>  <SCORE.RESTR.norm>
0

>  <SCORE.SYSTEM>
0

>  <SCORE.SYSTEM.CONST>
0

>  <SCORE.SYSTEM.DIHEDRAL>
0

>  <SCORE.SYSTEM.SOLV>
0

>  <SCORE.SYSTEM.norm>
0

>  <SCORE.heavy>
11

>  <SCORE.norm>
-0.648266

>  <RMSD>
11.334

$$$$
ligand
 OpenBabel02271912153D
libRbt.so/2013.1/901 2013/11/27
 11 12  0  0  0  0  0  0  0  0999 V2000
  -12.2780   -1.7251    3.6389 N   0  0  0  0  0  0  0  0  0  0  0  0
  -12.3010   -1.8415    2.3015 C   0  0  0  0  0  0  0  0  0  0  0  0
  -12.8950   -0.9051    1.5672 N   0  0  0  0  0  0  0  0  0  0  0  0
  -11.7385   -2.9005    1.6989 N   0  0  0  0  0  0  0  0  0  0  0  0
  -11.1458   -3.8637    2.4199 C   0  0  0  0  0  0  0  0  0  0  0  0
  -11.1081   -3.7678    3.8052 C   0  0  0  0  0  0  0  0  0  0  0  0
  -11.6956   -2.6597    4.4065 C   0  0  0  0  0  0  0  0  0  0  0  0
  -11.6740   -2.5231    5.7290 N   0  0  0  0  0  0  0  0  0  0  0  0
  -10.4836   -4.8483    4.2642 N   0  0  0  0  0  0  0  0  0  0  0  0
  -10.1410   -5.5961    3.2176 C   0  0  0  0  0  0  0  0  0  0  0  0
  -10.5406   -5.0024    2.0949 N   0  0  0  0  0  0  0  0  0  0  0  0
  1  7  2  0  0  0  0
  1  2  1  0  0  0  0
  2  3  1  0  0  0  0
  2  4  2  0  0  0  0
  4  5  1  0  0  0  0
  5  6  2  0  0  0  0
  5 11  1  0  0  0  0
  6  7  1  0  0  0  0
  6  9  1  0  0  0  0
  7  8  1  0  0  0  0
  9 10  1  0  0  0  0
 10 11  2  0  0  0  0
M  END
>  <CHROM.1>
-11.46687815,-3.21817263,3.19245911,3.02176843,1.05543236,-1.69525235

>  <Name>
ligand

>  <RI>
0

>  <Rbt.Current_Directory>
/home/itssahil/PROJECTS/Mol_Feturizer/Test_systems_manuscript/rnas/2b57

>  <Rbt.Executable>
rbdock ($Id: //depot/dev/client3/rdock/2013.1/src/exe/rbdock.cxx#4 $)

>  <Rbt.Library>
libRbt.so (2013.1, Build901 2013/11/27)

>  <Rbt.Parameter_File>
/export/apps/rDock/src/rDock_2013.1_src/data/scripts/dock_solv.prm

>  <Rbt.Receptor>
prm/blind_docking_20.prm

>  <SCORE>
-7.08785

>  <SCORE.INTER>
-7.08785

>  <SCORE.INTER.CONST>
1

>  <SCORE.INTER.POLAR>
0

>  <SCORE.INTER.ROT>
0

>  <SCORE.INTER.SOLV>
1.35352

>  <SCORE.INTER.VDW>
-8.77641

>  <SCORE.INTER.norm>
-0.64435

>  <SCORE.INTRA>
0

>  <SCORE.INTRA.DIHEDRAL>
0

>  <SCORE.INTRA.DIHEDRAL.0>
0

>  <SCORE.INTRA.POLAR>
0

>  <SCORE.INTRA.POLAR.0>
0

>  <SCORE.INTRA.REPUL>
0

>  <SCORE.INTRA.REPUL.0>
0

>  <SCORE.INTRA.SOLV>
0

>  <SCORE.INTRA.SOLV.lig_0>
-48.3454

>  <SCORE.INTRA.VDW>
0

>  <SCORE.INTRA.VDW.0>
0

>  <SCORE.INTRA.norm>
0

>  <SCORE.RESTR>
0

>  <SCORE.RESTR.CAVITY>
0

>  <SCORE.RESTR.norm>
0

>  <SCORE.SYSTEM>
0

>  <SCORE.SYSTEM.CONST>
0

>  <SCORE.SYSTEM.DIHEDRAL>
0

>  <SCORE.SYSTEM.SOLV>
0

>  <SCORE.SYSTEM.norm>
0

>  <SCORE.heavy>
11

>  <SCORE.norm>
-0.64435

>  <RMSD>
11.353

$$$$
ligand
 OpenBabel02271912153D
libRbt.so/2013.1/901 2013/11/27
 11 12  0  0  0  0  0  0  0  0999 V2000
  -12.2627   -1.7033    3.6964 N   0  0  0  0  0  0  0  0  0  0  0  0
  -12.3517   -1.8281    2.3625 C   0  0  0  0  0  0  0  0  0  0  0  0
  -12.9886   -0.9005    1.6534 N   0  0  0  0  0  0  0  0  0  0  0  0
  -11.8122   -2.8867    1.7385 N   0  0  0  0  0  0  0  0  0  0  0  0
  -11.1770   -3.8412    2.4345 C   0  0  0  0  0  0  0  0  0  0  0  0
  -11.0707   -3.7366    3.8156 C   0  0  0  0  0  0  0  0  0  0  0  0
  -11.6357   -2.6291    4.4392 C   0  0  0  0  0  0  0  0  0  0  0  0
  -11.5489   -2.4842    5.7582 N   0  0  0  0  0  0  0  0  0  0  0  0
  -10.4160   -4.8097    4.2490 N   0  0  0  0  0  0  0  0  0  0  0  0
  -10.1207   -5.5615    3.1908 C   0  0  0  0  0  0  0  0  0  0  0  0
  -10.5803   -4.9775    2.0862 N   0  0  0  0  0  0  0  0  0  0  0  0
  1  7  2  0  0  0  0
  1  2  1  0  0  0  0
  2  3  1  0  0  0  0
  2  4  2  0  0  0  0
  4  5  1  0  0  0  0
  5  6  2  0  0  0  0
  5 11  1  0  0  0  0
  6  7  1  0  0  0  0
  6  9  1  0  0  0  0
  7  8  1  0  0  0  0
  9 10  1  0  0  0  0
 10 11  2  0  0  0  0
M  END
>  <CHROM.1>
-11.46379100,-3.19328957,3.21843313,3.11808900,1.03979681,-1.78463582

>  <Name>
ligand

>  <RI>
0

>  <Rbt.Current_Directory>
/home/itssahil/PROJECTS/Mol_Feturizer/Test_systems_manuscript/rnas/2b57

>  <Rbt.Executable>
rbdock ($Id: //depot/dev/client3/rdock/2013.1/src/exe/rbdock.cxx#4 $)

>  <Rbt.Library>
libRbt.so (2013.1, Build901 2013/11/27)

>  <Rbt.Parameter_File>
/export/apps/rDock/src/rDock_2013.1_src/data/scripts/dock_solv.prm

>  <Rbt.Receptor>
prm/blind_docking_20.prm

>  <SCORE>
-7.11435

>  <SCORE.INTER>
-7.11435

>  <SCORE.INTER.CONST>
1

>  <SCORE.INTER.POLAR>
0

>  <SCORE.INTER.ROT>
0

>  <SCORE.INTER.SOLV>
1.2798

>  <SCORE.INTER.VDW>
-8.7695

>  <SCORE.INTER.norm>
-0.646759

>  <SCORE.INTRA>
0

>  <SCORE.INTRA.DIHEDRAL>
0

>  <SCORE.INTRA.DIHEDRAL.0>
0

>  <SCORE.INTRA.POLAR>
0

>  <SCORE.INTRA.POLAR.0>
0

>  <SCORE.INTRA.REPUL>
0

>  <SCORE.INTRA.REPUL.0>
0

>  <SCORE.INTRA.SOLV>
0

>  <SCORE.INTRA.SOLV.lig_0>
-48.3454

>  <SCORE.INTRA.VDW>
0

>  <SCORE.INTRA.VDW.0>
0

>  <SCORE.INTRA.norm>
0

>  <SCORE.RESTR>
0

>  <SCORE.RESTR.CAVITY>
0

>  <SCORE.RESTR.norm>
0

>  <SCORE.SYSTEM>
0

>  <SCORE.SYSTEM.CONST>
0

>  <SCORE.SYSTEM.DIHEDRAL>
0

>  <SCORE.SYSTEM.SOLV>
0

>  <SCORE.SYSTEM.norm>
0

>  <SCORE.heavy>
11

>  <SCORE.norm>
-0.646759

>  <RMSD>
11.361

$$$$
ligand
 OpenBabel02271912153D
libRbt.so/2013.1/901 2013/11/27
 11 12  0  0  0  0  0  0  0  0999 V2000
  -12.1744   -1.6840    3.6335 N   0  0  0  0  0  0  0  0  0  0  0  0
  -12.3022   -1.8437    2.3065 C   0  0  0  0  0  0  0  0  0  0  0  0
  -12.9335   -0.9196    1.5878 N   0  0  0  0  0  0  0  0  0  0  0  0
  -11.8073   -2.9335    1.6994 N   0  0  0  0  0  0  0  0  0  0  0  0
  -11.1788   -3.8847    2.4058 C   0  0  0  0  0  0  0  0  0  0  0  0
  -11.0330   -3.7443    3.7801 C   0  0  0  0  0  0  0  0  0  0  0  0
  -11.5521   -2.6050    4.3861 C   0  0  0  0  0  0  0  0  0  0  0  0
  -11.4264   -2.4256    5.6976 N   0  0  0  0  0  0  0  0  0  0  0  0
  -10.3951   -4.8220    4.2270 N   0  0  0  0  0  0  0  0  0  0  0  0
  -10.1478   -5.6108    3.1836 C   0  0  0  0  0  0  0  0  0  0  0  0
  -10.6214   -5.0459    2.0749 N   0  0  0  0  0  0  0  0  0  0  0  0
  1  7  2  0  0  0  0
  1  2  1  0  0  0  0
  2  3  1  0  0  0  0
  2  4  2  0  0  0  0
  4  5  1  0  0  0  0
  5  6  2  0  0  0  0
  5 11  1  0  0  0  0
  6  7  1  0  0  0  0
  6  9  1  0  0  0  0
  7  8  1  0  0  0  0
  9 10  1  0  0  0  0
 10 11  2  0  0  0  0
M  END
>  <CHROM.1>
-11.42760584,-3.20763514,3.17799241,-3.10051112,1.05868106,-1.86904592

>  <Name>
ligand

>  <RI>
0

>  <Rbt.Current_Directory>
/home/itssahil/PROJECTS/Mol_Feturizer/Test_systems_manuscript/rnas/2b57

>  <Rbt.Executable>
rbdock ($Id: //depot/dev/client3/rdock/2013.1/src/exe/rbdock.cxx#4 $)

>  <Rbt.Library>
libRbt.so (2013.1, Build901 2013/11/27)

>  <Rbt.Parameter_File>
/export/apps/rDock/src/rDock_2013.1_src/data/scripts/dock_solv.prm

>  <Rbt.Receptor>
prm/blind_docking_20.prm

>  <SCORE>
-7.12086

>  <SCORE.INTER>
-7.12086

>  <SCORE.INTER.CONST>
1

>  <SCORE.INTER.POLAR>
0

>  <SCORE.INTER.ROT>
0

>  <SCORE.INTER.SOLV>
1.57913

>  <SCORE.INTER.VDW>
-8.87362

>  <SCORE.INTER.norm>
-0.647351

>  <SCORE.INTRA>
0

>  <SCORE.INTRA.DIHEDRAL>
0

>  <SCORE.INTRA.DIHEDRAL.0>
0

>  <SCORE.INTRA.POLAR>
0

>  <SCORE.INTRA.POLAR.0>
0

>  <SCORE.INTRA.REPUL>
0

>  <SCORE.INTRA.REPUL.0>
0

>  <SCORE.INTRA.SOLV>
0

>  <SCORE.INTRA.SOLV.lig_0>
-48.3454

>  <SCORE.INTRA.VDW>
0

>  <SCORE.INTRA.VDW.0>
0

>  <SCORE.INTRA.norm>
0

>  <SCORE.RESTR>
0

>  <SCORE.RESTR.CAVITY>
0

>  <SCORE.RESTR.norm>
0

>  <SCORE.SYSTEM>
0

>  <SCORE.SYSTEM.CONST>
0

>  <SCORE.SYSTEM.DIHEDRAL>
0

>  <SCORE.SYSTEM.SOLV>
0

>  <SCORE.SYSTEM.norm>
0

>  <SCORE.heavy>
11

>  <SCORE.norm>
-0.647351

>  <RMSD>
11.366

$$$$
ligand
 OpenBabel02271912153D
libRbt.so/2013.1/901 2013/11/27
 11 12  0  0  0  0  0  0  0  0999 V2000
  -12.2511   -1.6889    3.6770 N   0  0  0  0  0  0  0  0  0  0  0  0
  -12.3449   -1.8261    2.3447 C   0  0  0  0  0  0  0  0  0  0  0  0
  -12.9781   -0.9013    1.6285 N   0  0  0  0  0  0  0  0  0  0  0  0
  -11.8140   -2.8941    1.7294 N   0  0  0  0  0  0  0  0  0  0  0  0
  -11.1827   -3.8458    2.4328 C   0  0  0  0  0  0  0  0  0  0  0  0
  -11.0716   -3.7285    3.8125 C   0  0  0  0  0  0  0  0  0  0  0  0
  -11.6277   -2.6114    4.4270 C   0  0  0  0  0  0  0  0  0  0  0  0
  -11.5360   -2.4543    5.7442 N   0  0  0  0  0  0  0  0  0  0  0  0
  -10.4224   -4.8015    4.2543 N   0  0  0  0  0  0  0  0  0  0  0  0
  -10.1350   -5.5653    3.2027 C   0  0  0  0  0  0  0  0  0  0  0  0
  -10.5942   -4.9892    2.0938 N   0  0  0  0  0  0  0  0  0  0  0  0
  1  7  2  0  0  0  0
  1  2  1  0  0  0  0
  2  3  1  0  0  0  0
  2  4  2  0  0  0  0
  4  5  1  0  0  0  0
  5  6  2  0  0  0  0
  5 11  1  0  0  0  0
  6  7  1  0  0  0  0
  6  9  1  0  0  0  0
  7  8  1  0  0  0  0
  9 10  1  0  0  0  0
 10 11  2  0  0  0  0
M  END
>  <CHROM.1>
-11.46304662,-3.18849093,3.21124012,3.12666998,1.04530755,-1.80176757

>  <Name>
ligand

>  <RI>
0

>  <Rbt.Current_Directory>
/home/itssahil/PROJECTS/Mol_Feturizer/Test_systems_manuscript/rnas/2b57

>  <Rbt.Executable>
rbdock ($Id: //depot/dev/client3/rdock/2013.1/src/exe/rbdock.cxx#4 $)

>  <Rbt.Library>
libRbt.so (2013.1, Build901 2013/11/27)

>  <Rbt.Parameter_File>
/export/apps/rDock/src/rDock_2013.1_src/data/scripts/dock_solv.prm

>  <Rbt.Receptor>
prm/blind_docking_20.prm

>  <SCORE>
-7.11116

>  <SCORE.INTER>
-7.11116

>  <SCORE.INTER.CONST>
1

>  <SCORE.INTER.POLAR>
0

>  <SCORE.INTER.ROT>
0

>  <SCORE.INTER.SOLV>
1.33776

>  <SCORE.INTER.VDW>
-8.78669

>  <SCORE.INTER.norm>
-0.646469

>  <SCORE.INTRA>
0

>  <SCORE.INTRA.DIHEDRAL>
0

>  <SCORE.INTRA.DIHEDRAL.0>
0

>  <SCORE.INTRA.POLAR>
0

>  <SCORE.INTRA.POLAR.0>
0

>  <SCORE.INTRA.REPUL>
0

>  <SCORE.INTRA.REPUL.0>
0

>  <SCORE.INTRA.SOLV>
0

>  <SCORE.INTRA.SOLV.lig_0>
-48.3454

>  <SCORE.INTRA.VDW>
0

>  <SCORE.INTRA.VDW.0>
0

>  <SCORE.INTRA.norm>
0

>  <SCORE.RESTR>
0

>  <SCORE.RESTR.CAVITY>
0

>  <SCORE.RESTR.norm>
0

>  <SCORE.SYSTEM>
0

>  <SCORE.SYSTEM.CONST>
0

>  <SCORE.SYSTEM.DIHEDRAL>
0

>  <SCORE.SYSTEM.SOLV>
0

>  <SCORE.SYSTEM.norm>
0

>  <SCORE.heavy>
11

>  <SCORE.norm>
-0.646469

>  <RMSD>
11.369

$$$$
ligand
 OpenBabel02271912153D
libRbt.so/2013.1/901 2013/11/27
 11 12  0  0  0  0  0  0  0  0999 V2000
  -12.2941   -1.6825    3.6517 N   0  0  0  0  0  0  0  0  0  0  0  0
  -12.3763   -1.8276    2.3194 C   0  0  0  0  0  0  0  0  0  0  0  0
  -13.0102   -0.9113    1.5931 N   0  0  0  0  0  0  0  0  0  0  0  0
  -11.8330   -2.8952    1.7143 N   0  0  0  0  0  0  0  0  0  0  0  0
  -11.2007   -3.8386    2.4280 C   0  0  0  0  0  0  0  0  0  0  0  0
  -11.1015   -3.7129    3.8078 C   0  0  0  0  0  0  0  0  0  0  0  0
  -11.6703   -2.5964    4.4117 C   0  0  0  0  0  0  0  0  0  0  0  0
  -11.5903   -2.4315    5.7287 N   0  0  0  0  0  0  0  0  0  0  0  0
  -10.4483   -4.7789    4.2607 N   0  0  0  0  0  0  0  0  0  0  0  0
  -10.1472   -5.5464    3.2157 C   0  0  0  0  0  0  0  0  0  0  0  0
  -10.6015   -4.9796    2.1000 N   0  0  0  0  0  0  0  0  0  0  0  0
  1  7  2  0  0  0  0
  1  2  1  0  0  0  0
  2  3  1  0  0  0  0
  2  4  2  0  0  0  0
  4  5  1  0  0  0  0
  5  6  2  0  0  0  0
  5 11  1  0  0  0  0
  6  7  1  0  0  0  0
  6  9  1  0  0  0  0
  7  8  1  0  0  0  0
  9 10  1  0  0  0  0
 10 11  2  0  0  0  0
M  END
>  <CHROM.1>
-11.49188582,-3.17901089,3.20050023,3.10808362,1.04023308,-1.79121209

>  <Name>
ligand

>  <RI>
0

>  <Rbt.Current_Directory>
/home/itssahil/PROJECTS/Mol_Feturizer/Test_systems_manuscript/rnas/2b57

>  <Rbt.Executable>
rbdock ($Id: //depot/dev/client3/rdock/2013.1/src/exe/rbdock.cxx#4 $)

>  <Rbt.Library>
libRbt.so (2013.1, Build901 2013/11/27)

>  <Rbt.Parameter_File>
/export/apps/rDock/src/rDock_2013.1_src/data/scripts/dock_solv.prm

>  <Rbt.Receptor>
prm/blind_docking_20.prm

>  <SCORE>
-7.12858

>  <SCORE.INTER>
-7.12858

>  <SCORE.INTER.CONST>
1

>  <SCORE.INTER.POLAR>
0

>  <SCORE.INTER.ROT>
0

>  <SCORE.INTER.SOLV>
1.27652

>  <SCORE.INTER.VDW>
-8.77789

>  <SCORE.INTER.norm>
-0.648052

>  <SCORE.INTRA>
0

>  <SCORE.INTRA.DIHEDRAL>
0

>  <SCORE.INTRA.DIHEDRAL.0>
0

>  <SCORE.INTRA.POLAR>
0

>  <SCORE.INTRA.POLAR.0>
0

>  <SCORE.INTRA.REPUL>
0

>  <SCORE.INTRA.REPUL.0>
0

>  <SCORE.INTRA.SOLV>
0

>  <SCORE.INTRA.SOLV.lig_0>
-48.3454

>  <SCORE.INTRA.VDW>
0

>  <SCORE.INTRA.VDW.0>
0

>  <SCORE.INTRA.norm>
0

>  <SCORE.RESTR>
0

>  <SCORE.RESTR.CAVITY>
0

>  <SCORE.RESTR.norm>
0

>  <SCORE.SYSTEM>
0

>  <SCORE.SYSTEM.CONST>
0

>  <SCORE.SYSTEM.DIHEDRAL>
0

>  <SCORE.SYSTEM.SOLV>
0

>  <SCORE.SYSTEM.norm>
0

>  <SCORE.heavy>
11

>  <SCORE.norm>
-0.648052

>  <RMSD>
11.382

$$$$
ligand
 OpenBabel02271912153D
libRbt.so/2013.1/901 2013/11/27
 11 12  0  0  0  0  0  0  0  0999 V2000
  -12.2919   -1.6831    3.6500 N   0  0  0  0  0  0  0  0  0  0  0  0
  -12.3765   -1.8269    2.3178 C   0  0  0  0  0  0  0  0  0  0  0  0
  -13.0097   -0.9087    1.5933 N   0  0  0  0  0  0  0  0  0  0  0  0
  -11.8363   -2.8951    1.7109 N   0  0  0  0  0  0  0  0  0  0  0  0
  -11.2049   -3.8403    2.4228 C   0  0  0  0  0  0  0  0  0  0  0  0
  -11.1032   -3.7161    3.8026 C   0  0  0  0  0  0  0  0  0  0  0  0
  -11.6688   -2.5989    4.4083 C   0  0  0  0  0  0  0  0  0  0  0  0
  -11.5864   -2.4353    5.7253 N   0  0  0  0  0  0  0  0  0  0  0  0
  -10.4516   -4.7838    4.2536 N   0  0  0  0  0  0  0  0  0  0  0  0
  -10.1536   -5.5510    3.2074 C   0  0  0  0  0  0  0  0  0  0  0  0
  -10.6085   -4.9824    2.0929 N   0  0  0  0  0  0  0  0  0  0  0  0
  1  7  2  0  0  0  0
  1  2  1  0  0  0  0
  2  3  1  0  0  0  0
  2  4  2  0  0  0  0
  4  5  1  0  0  0  0
  5  6  2  0  0  0  0
  5 11  1  0  0  0  0
  6  7  1  0  0  0  0
  6  9  1  0  0  0  0
  7  8  1  0  0  0  0
  9 10  1  0  0  0  0
 10 11  2  0  0  0  0
M  END
>  <CHROM.1>
-11.49347821,-3.18086184,3.19631639,3.11197060,1.04189250,-1.79370252

>  <Name>
ligand

>  <RI>
0

>  <Rbt.Current_Directory>
/home/itssahil/PROJECTS/Mol_Feturizer/Test_systems_manuscript/rnas/2b57

>  <Rbt.Executable>
rbdock ($Id: //depot/dev/client3/rdock/2013.1/src/exe/rbdock.cxx#4 $)

>  <Rbt.Library>
libRbt.so (2013.1, Build901 2013/11/27)

>  <Rbt.Parameter_File>
/export/apps/rDock/src/rDock_2013.1_src/data/scripts/dock_solv.prm

>  <Rbt.Receptor>
prm/blind_docking_20.prm

>  <SCORE>
-7.1303

>  <SCORE.INTER>
-7.1303

>  <SCORE.INTER.CONST>
1

>  <SCORE.INTER.POLAR>
0

>  <SCORE.INTER.ROT>
0

>  <SCORE.INTER.SOLV>
1.28602

>  <SCORE.INTER.VDW>
-8.78221

>  <SCORE.INTER.norm>
-0.648209

>  <SCORE.INTRA>
0

>  <SCORE.INTRA.DIHEDRAL>
0

>  <SCORE.INTRA.DIHEDRAL.0>
0

>  <SCORE.INTRA.POLAR>
0

>  <SCORE.INTRA.POLAR.0>
0

>  <SCORE.INTRA.REPUL>
0

>  <SCORE.INTRA.REPUL.0>
0

>  <SCORE.INTRA.SOLV>
0

>  <SCORE.INTRA.SOLV.lig_0>
-48.3454

>  <SCORE.INTRA.VDW>
0

>  <SCORE.INTRA.VDW.0>
0

>  <SCORE.INTRA.norm>
0

>  <SCORE.RESTR>
0

>  <SCORE.RESTR.CAVITY>
0

>  <SCORE.RESTR.norm>
0

>  <SCORE.SYSTEM>
0

>  <SCORE.SYSTEM.CONST>
0

>  <SCORE.SYSTEM.DIHEDRAL>
0

>  <SCORE.SYSTEM.SOLV>
0

>  <SCORE.SYSTEM.norm>
0

>  <SCORE.heavy>
11

>  <SCORE.norm>
-0.648209

>  <RMSD>
11.382

$$$$
ligand
 OpenBabel02271912153D
libRbt.so/2013.1/901 2013/11/27
 11 12  0  0  0  0  0  0  0  0999 V2000
  -12.3064   -1.6810    3.6043 N   0  0  0  0  0  0  0  0  0  0  0  0
  -12.3871   -1.8416    2.2737 C   0  0  0  0  0  0  0  0  0  0  0  0
  -13.0186   -0.9329    1.5359 N   0  0  0  0  0  0  0  0  0  0  0  0
  -11.8448   -2.9172    1.6819 N   0  0  0  0  0  0  0  0  0  0  0  0
  -11.2151   -3.8531    2.4074 C   0  0  0  0  0  0  0  0  0  0  0  0
  -11.1174   -3.7115    3.7858 C   0  0  0  0  0  0  0  0  0  0  0  0
  -11.6851   -2.5870    4.3758 C   0  0  0  0  0  0  0  0  0  0  0  0
  -11.6065   -2.4067    5.6909 N   0  0  0  0  0  0  0  0  0  0  0  0
  -10.4666   -4.7731    4.2521 N   0  0  0  0  0  0  0  0  0  0  0  0
  -10.1654   -5.5534    3.2165 C   0  0  0  0  0  0  0  0  0  0  0  0
  -10.6174   -4.9990    2.0936 N   0  0  0  0  0  0  0  0  0  0  0  0
  1  7  2  0  0  0  0
  1  2  1  0  0  0  0
  2  3  1  0  0  0  0
  2  4  2  0  0  0  0
  4  5  1  0  0  0  0
  5  6  2  0  0  0  0
  5 11  1  0  0  0  0
  6  7  1  0  0  0  0
  6  9  1  0  0  0  0
  7  8  1  0  0  0  0
  9 10  1  0  0  0  0
 10 11  2  0  0  0  0
M  END
>  <CHROM.1>
-11.50613139,-3.18407270,3.17174681,3.10632263,1.04215699,-1.80142712

>  <Name>
ligand

>  <RI>
0

>  <Rbt.Current_Directory>
/home/itssahil/PROJECTS/Mol_Feturizer/Test_systems_manuscript/rnas/2b57

>  <Rbt.Executable>
rbdock ($Id: //depot/dev/client3/rdock/2013.1/src/exe/rbdock.cxx#4 $)

>  <Rbt.Library>
libRbt.so (2013.1, Build901 2013/11/27)

>  <Rbt.Parameter_File>
/export/apps/rDock/src/rDock_2013.1_src/data/scripts/dock_solv.prm

>  <Rbt.Receptor>
prm/blind_docking_20.prm

>  <SCORE>
-7.12729

>  <SCORE.INTER>
-7.12729

>  <SCORE.INTER.CONST>
1

>  <SCORE.INTER.POLAR>
0

>  <SCORE.INTER.ROT>
0

>  <SCORE.INTER.SOLV>
1.30868

>  <SCORE.INTER.VDW>
-8.78775

>  <SCORE.INTER.norm>
-0.647935

>  <SCORE.INTRA>
0

>  <SCORE.INTRA.DIHEDRAL>
0

>  <SCORE.INTRA.DIHEDRAL.0>
0

>  <SCORE.INTRA.POLAR>
0

>  <SCORE.INTRA.POLAR.0>
0

>  <SCORE.INTRA.REPUL>
0

>  <SCORE.INTRA.REPUL.0>
0

>  <SCORE.INTRA.SOLV>
0

>  <SCORE.INTRA.SOLV.lig_0>
-48.3454

>  <SCORE.INTRA.VDW>
0

>  <SCORE.INTRA.VDW.0>
0

>  <SCORE.INTRA.norm>
0

>  <SCORE.RESTR>
0

>  <SCORE.RESTR.CAVITY>
0

>  <SCORE.RESTR.norm>
0

>  <SCORE.SYSTEM>
0

>  <SCORE.SYSTEM.CONST>
0

>  <SCORE.SYSTEM.DIHEDRAL>
0

>  <SCORE.SYSTEM.SOLV>
0

>  <SCORE.SYSTEM.norm>
0

>  <SCORE.heavy>
11

>  <SCORE.norm>
-0.647935

>  <RMSD>
11.390

$$$$
ligand
 OpenBabel02271912153D
libRbt.so/2013.1/901 2013/11/27
 11 12  0  0  0  0  0  0  0  0999 V2000
  -12.3213   -1.7043    3.6229 N   0  0  0  0  0  0  0  0  0  0  0  0
  -12.3548   -1.8255    2.2862 C   0  0  0  0  0  0  0  0  0  0  0  0
  -12.9737   -0.9030    1.5547 N   0  0  0  0  0  0  0  0  0  0  0  0
  -11.7779   -2.8754    1.6813 N   0  0  0  0  0  0  0  0  0  0  0  0
  -11.1598   -3.8247    2.3994 C   0  0  0  0  0  0  0  0  0  0  0  0
  -11.1107   -3.7237    3.7840 C   0  0  0  0  0  0  0  0  0  0  0  0
  -11.7136   -2.6252    4.3877 C   0  0  0  0  0  0  0  0  0  0  0  0
  -11.6819   -2.4839    5.7095 N   0  0  0  0  0  0  0  0  0  0  0  0
  -10.4612   -4.7905    4.2402 N   0  0  0  0  0  0  0  0  0  0  0  0
  -10.1143   -5.5350    3.1926 C   0  0  0  0  0  0  0  0  0  0  0  0
  -10.5359   -4.9526    2.0721 N   0  0  0  0  0  0  0  0  0  0  0  0
  1  7  2  0  0  0  0
  1  2  1  0  0  0  0
  2  3  1  0  0  0  0
  2  4  2  0  0  0  0
  4  5  1  0  0  0  0
  5  6  2  0  0  0  0
  5 11  1  0  0  0  0
  6  7  1  0  0  0  0
  6  9  1  0  0  0  0
  7  8  1  0  0  0  0
  9 10  1  0  0  0  0
 10 11  2  0  0  0  0
M  END
>  <CHROM.1>
-11.48583793,-3.18300866,3.17311394,3.03572637,1.03511012,-1.71041825

>  <Name>
ligand

>  <RI>
0

>  <Rbt.Current_Directory>
/home/itssahil/PROJECTS/Mol_Feturizer/Test_systems_manuscript/rnas/2b57

>  <Rbt.Executable>
rbdock ($Id: //depot/dev/client3/rdock/2013.1/src/exe/rbdock.cxx#4 $)

>  <Rbt.Library>
libRbt.so (2013.1, Build901 2013/11/27)

>  <Rbt.Parameter_File>
/export/apps/rDock/src/rDock_2013.1_src/data/scripts/dock_solv.prm

>  <Rbt.Receptor>
prm/blind_docking_20.prm

>  <SCORE>
-7.12993

>  <SCORE.INTER>
-7.12993

>  <SCORE.INTER.CONST>
1

>  <SCORE.INTER.POLAR>
0

>  <SCORE.INTER.ROT>
0

>  <SCORE.INTER.SOLV>
1.23489

>  <SCORE.INTER.VDW>
-8.76492

>  <SCORE.INTER.norm>
-0.648176

>  <SCORE.INTRA>
0

>  <SCORE.INTRA.DIHEDRAL>
0

>  <SCORE.INTRA.DIHEDRAL.0>
0

>  <SCORE.INTRA.POLAR>
0

>  <SCORE.INTRA.POLAR.0>
0

>  <SCORE.INTRA.REPUL>
0

>  <SCORE.INTRA.REPUL.0>
0

>  <SCORE.INTRA.SOLV>
0

>  <SCORE.INTRA.SOLV.lig_0>
-48.3454

>  <SCORE.INTRA.VDW>
0

>  <SCORE.INTRA.VDW.0>
0

>  <SCORE.INTRA.norm>
0

>  <SCORE.RESTR>
0

>  <SCORE.RESTR.CAVITY>
0

>  <SCORE.RESTR.norm>
0

>  <SCORE.SYSTEM>
0

>  <SCORE.SYSTEM.CONST>
0

>  <SCORE.SYSTEM.DIHEDRAL>
0

>  <SCORE.SYSTEM.SOLV>
0

>  <SCORE.SYSTEM.norm>
0

>  <SCORE.heavy>
11

>  <SCORE.norm>
-0.648176

>  <RMSD>
11.391

$$$$
ligand
 OpenBabel02271912153D
libRbt.so/2013.1/901 2013/11/27
 11 12  0  0  0  0  0  0  0  0999 V2000
  -12.3160   -1.6787    3.6268 N   0  0  0  0  0  0  0  0  0  0  0  0
  -12.3920   -1.8319    2.2951 C   0  0  0  0  0  0  0  0  0  0  0  0
  -13.0256   -0.9218    1.5607 N   0  0  0  0  0  0  0  0  0  0  0  0
  -11.8429   -2.9014    1.6986 N   0  0  0  0  0  0  0  0  0  0  0  0
  -11.2108   -3.8385    2.4205 C   0  0  0  0  0  0  0  0  0  0  0  0
  -11.1178   -3.7044    3.8000 C   0  0  0  0  0  0  0  0  0  0  0  0
  -11.6926   -2.5861    4.3948 C   0  0  0  0  0  0  0  0  0  0  0  0
  -11.6187   -2.4132    5.7112 N   0  0  0  0  0  0  0  0  0  0  0  0
  -10.4633   -4.7657    4.2620 N   0  0  0  0  0  0  0  0  0  0  0  0
  -10.1554   -5.5385    3.2227 C   0  0  0  0  0  0  0  0  0  0  0  0
  -10.6067   -4.9797    2.1018 N   0  0  0  0  0  0  0  0  0  0  0  0
  1  7  2  0  0  0  0
  1  2  1  0  0  0  0
  2  3  1  0  0  0  0
  2  4  2  0  0  0  0
  4  5  1  0  0  0  0
  5  6  2  0  0  0  0
  5 11  1  0  0  0  0
  6  7  1  0  0  0  0
  6  9  1  0  0  0  0
  7  8  1  0  0  0  0
  9 10  1  0  0  0  0
 10 11  2  0  0  0  0
M  END
>  <CHROM.1>
-11.50724851,-3.17532122,3.18786452,3.09858248,1.03816744,-1.78892226

>  <Name>
ligand

>  <RI>
0

>  <Rbt.Current_Directory>
/home/itssahil/PROJECTS/Mol_Feturizer/Test_systems_manuscript/rnas/2b57

>  <Rbt.Executable>
rbdock ($Id: //depot/dev/client3/rdock/2013.1/src/exe/rbdock.cxx#4 $)

>  <Rbt.Library>
libRbt.so (2013.1, Build901 2013/11/27)

>  <Rbt.Parameter_File>
/export/apps/rDock/src/rDock_2013.1_src/data/scripts/dock_solv.prm

>  <Rbt.Receptor>
prm/blind_docking_20.prm

>  <SCORE>
-7.1303

>  <SCORE.INTER>
-7.1303

>  <SCORE.INTER.CONST>
1

>  <SCORE.INTER.POLAR>
0

>  <SCORE.INTER.ROT>
0

>  <SCORE.INTER.SOLV>
1.26385

>  <SCORE.INTER.VDW>
-8.77482

>  <SCORE.INTER.norm>
-0.648209

>  <SCORE.INTRA>
0

>  <SCORE.INTRA.DIHEDRAL>
0

>  <SCORE.INTRA.DIHEDRAL.0>
0

>  <SCORE.INTRA.POLAR>
0

>  <SCORE.INTRA.POLAR.0>
0

>  <SCORE.INTRA.REPUL>
0

>  <SCORE.INTRA.REPUL.0>
0

>  <SCORE.INTRA.SOLV>
0

>  <SCORE.INTRA.SOLV.lig_0>
-48.3454

>  <SCORE.INTRA.VDW>
0

>  <SCORE.INTRA.VDW.0>
0

>  <SCORE.INTRA.norm>
0

>  <SCORE.RESTR>
0

>  <SCORE.RESTR.CAVITY>
0

>  <SCORE.RESTR.norm>
0

>  <SCORE.SYSTEM>
0

>  <SCORE.SYSTEM.CONST>
0

>  <SCORE.SYSTEM.DIHEDRAL>
0

>  <SCORE.SYSTEM.SOLV>
0

>  <SCORE.SYSTEM.norm>
0

>  <SCORE.heavy>
11

>  <SCORE.norm>
-0.648209

>  <RMSD>
11.391

$$$$
ligand
 OpenBabel02271912153D
libRbt.so/2013.1/901 2013/11/27
 11 12  0  0  0  0  0  0  0  0999 V2000
  -12.6723   -2.0012    2.1503 N   0  0  0  0  0  0  0  0  0  0  0  0
  -12.4432   -1.7306    3.4453 C   0  0  0  0  0  0  0  0  0  0  0  0
  -12.9480   -0.6266    3.9887 N   0  0  0  0  0  0  0  0  0  0  0  0
  -11.7002   -2.5597    4.1948 N   0  0  0  0  0  0  0  0  0  0  0  0
  -11.1699   -3.6718    3.6648 C   0  0  0  0  0  0  0  0  0  0  0  0
  -11.3914   -3.9754    2.3274 C   0  0  0  0  0  0  0  0  0  0  0  0
  -12.1668   -3.1021    1.5719 C   0  0  0  0  0  0  0  0  0  0  0  0
  -12.4119   -3.3589    0.2905 N   0  0  0  0  0  0  0  0  0  0  0  0
  -10.7483   -5.1086    2.0625 N   0  0  0  0  0  0  0  0  0  0  0  0
  -10.1457   -5.5060    3.1809 C   0  0  0  0  0  0  0  0  0  0  0  0
  -10.3989   -4.6370    4.1573 N   0  0  0  0  0  0  0  0  0  0  0  0
  1  7  2  0  0  0  0
  1  2  1  0  0  0  0
  2  3  1  0  0  0  0
  2  4  2  0  0  0  0
  4  5  1  0  0  0  0
  5  6  2  0  0  0  0
  5 11  1  0  0  0  0
  6  7  1  0  0  0  0
  6  9  1  0  0  0  0
  7  8  1  0  0  0  0
  9 10  1  0  0  0  0
 10 11  2  0  0  0  0
M  END
>  <CHROM.1>
-11.66744874,-3.27727776,2.82014022,2.67306746,-0.96016104,1.10820719

>  <Name>
ligand

>  <RI>
0

>  <Rbt.Current_Directory>
/home/itssahil/PROJECTS/Mol_Feturizer/Test_systems_manuscript/rnas/2b57

>  <Rbt.Executable>
rbdock ($Id: //depot/dev/client3/rdock/2013.1/src/exe/rbdock.cxx#4 $)

>  <Rbt.Library>
libRbt.so (2013.1, Build901 2013/11/27)

>  <Rbt.Parameter_File>
/export/apps/rDock/src/rDock_2013.1_src/data/scripts/dock_solv.prm

>  <Rbt.Receptor>
prm/blind_docking_20.prm

>  <SCORE>
-6.81622

>  <SCORE.INTER>
-6.81622

>  <SCORE.INTER.CONST>
1

>  <SCORE.INTER.POLAR>
0

>  <SCORE.INTER.ROT>
0

>  <SCORE.INTER.SOLV>
2.204

>  <SCORE.INTER.VDW>
-8.87882

>  <SCORE.INTER.norm>
-0.619657

>  <SCORE.INTRA>
0

>  <SCORE.INTRA.DIHEDRAL>
0

>  <SCORE.INTRA.DIHEDRAL.0>
0

>  <SCORE.INTRA.POLAR>
0

>  <SCORE.INTRA.POLAR.0>
0

>  <SCORE.INTRA.REPUL>
0

>  <SCORE.INTRA.REPUL.0>
0

>  <SCORE.INTRA.SOLV>
0

>  <SCORE.INTRA.SOLV.lig_0>
-48.3454

>  <SCORE.INTRA.VDW>
0

>  <SCORE.INTRA.VDW.0>
0

>  <SCORE.INTRA.norm>
0

>  <SCORE.RESTR>
0

>  <SCORE.RESTR.CAVITY>
0

>  <SCORE.RESTR.norm>
0

>  <SCORE.SYSTEM>
0

>  <SCORE.SYSTEM.CONST>
0

>  <SCORE.SYSTEM.DIHEDRAL>
0

>  <SCORE.SYSTEM.SOLV>
0

>  <SCORE.SYSTEM.norm>
0

>  <SCORE.heavy>
11

>  <SCORE.norm>
-0.619657

>  <RMSD>
11.432

$$$$
ligand
 OpenBabel02271912153D
libRbt.so/2013.1/901 2013/11/27
 11 12  0  0  0  0  0  0  0  0999 V2000
  -12.5845   -2.0744    1.9444 N   0  0  0  0  0  0  0  0  0  0  0  0
  -12.3935   -1.7273    3.2272 C   0  0  0  0  0  0  0  0  0  0  0  0
  -12.9017   -0.5868    3.6855 N   0  0  0  0  0  0  0  0  0  0  0  0
  -11.6849   -2.5163    4.0497 N   0  0  0  0  0  0  0  0  0  0  0  0
  -11.1517   -3.6643    3.6060 C   0  0  0  0  0  0  0  0  0  0  0  0
  -11.3342   -4.0471    2.2832 C   0  0  0  0  0  0  0  0  0  0  0  0
  -12.0744   -3.2139    1.4510 C   0  0  0  0  0  0  0  0  0  0  0  0
  -12.2817   -3.5463    0.1803 N   0  0  0  0  0  0  0  0  0  0  0  0
  -10.6970   -5.2010    2.1090 N   0  0  0  0  0  0  0  0  0  0  0  0
  -10.1352   -5.5352    3.2686 C   0  0  0  0  0  0  0  0  0  0  0  0
  -10.4087   -4.6054    4.1814 N   0  0  0  0  0  0  0  0  0  0  0  0
  1  7  2  0  0  0  0
  1  2  1  0  0  0  0
  2  3  1  0  0  0  0
  2  4  2  0  0  0  0
  4  5  1  0  0  0  0
  5  6  2  0  0  0  0
  5 11  1  0  0  0  0
  6  7  1  0  0  0  0
  6  9  1  0  0  0  0
  7  8  1  0  0  0  0
  9 10  1  0  0  0  0
 10 11  2  0  0  0  0
M  END
>  <CHROM.1>
-11.61721992,-3.31724647,2.72317698,2.71471646,-0.98496539,1.08137044

>  <Name>
ligand

>  <RI>
0

>  <Rbt.Current_Directory>
/home/itssahil/PROJECTS/Mol_Feturizer/Test_systems_manuscript/rnas/2b57

>  <Rbt.Executable>
rbdock ($Id: //depot/dev/client3/rdock/2013.1/src/exe/rbdock.cxx#4 $)

>  <Rbt.Library>
libRbt.so (2013.1, Build901 2013/11/27)

>  <Rbt.Parameter_File>
/export/apps/rDock/src/rDock_2013.1_src/data/scripts/dock_solv.prm

>  <Rbt.Receptor>
prm/blind_docking_20.prm

>  <SCORE>
-6.86262

>  <SCORE.INTER>
-6.86262

>  <SCORE.INTER.CONST>
1

>  <SCORE.INTER.POLAR>
0

>  <SCORE.INTER.ROT>
0

>  <SCORE.INTER.SOLV>
2.6057

>  <SCORE.INTER.VDW>
-9.04365

>  <SCORE.INTER.norm>
-0.623874

>  <SCORE.INTRA>
0

>  <SCORE.INTRA.DIHEDRAL>
0

>  <SCORE.INTRA.DIHEDRAL.0>
0

>  <SCORE.INTRA.POLAR>
0

>  <SCORE.INTRA.POLAR.0>
0

>  <SCORE.INTRA.REPUL>
0

>  <SCORE.INTRA.REPUL.0>
0

>  <SCORE.INTRA.SOLV>
0

>  <SCORE.INTRA.SOLV.lig_0>
-48.3454

>  <SCORE.INTRA.VDW>
0

>  <SCORE.INTRA.VDW.0>
0

>  <SCORE.INTRA.norm>
0

>  <SCORE.RESTR>
0

>  <SCORE.RESTR.CAVITY>
0

>  <SCORE.RESTR.norm>
0

>  <SCORE.SYSTEM>
0

>  <SCORE.SYSTEM.CONST>
0

>  <SCORE.SYSTEM.DIHEDRAL>
0

>  <SCORE.SYSTEM.SOLV>
0

>  <SCORE.SYSTEM.norm>
0

>  <SCORE.heavy>
11

>  <SCORE.norm>
-0.623874

>  <RMSD>
11.465

$$$$
ligand
 OpenBabel02271912153D
libRbt.so/2013.1/901 2013/11/27
 11 12  0  0  0  0  0  0  0  0999 V2000
  -12.5140   -2.0852    1.8921 N   0  0  0  0  0  0  0  0  0  0  0  0
  -12.3051   -1.7176    3.1665 C   0  0  0  0  0  0  0  0  0  0  0  0
  -12.7831   -0.5568    3.6058 N   0  0  0  0  0  0  0  0  0  0  0  0
  -11.6089   -2.5069    3.9991 N   0  0  0  0  0  0  0  0  0  0  0  0
  -11.1060   -3.6755    3.5744 C   0  0  0  0  0  0  0  0  0  0  0  0
  -11.3074   -4.0796    2.2607 C   0  0  0  0  0  0  0  0  0  0  0  0
  -12.0344   -3.2457    1.4176 C   0  0  0  0  0  0  0  0  0  0  0  0
  -12.2592   -3.5979    0.1552 N   0  0  0  0  0  0  0  0  0  0  0  0
  -10.6987   -5.2514    2.1046 N   0  0  0  0  0  0  0  0  0  0  0  0
  -10.1360   -5.5759    3.2665 C   0  0  0  0  0  0  0  0  0  0  0  0
  -10.3807   -4.6223    4.1628 N   0  0  0  0  0  0  0  0  0  0  0  0
  1  7  2  0  0  0  0
  1  2  1  0  0  0  0
  2  3  1  0  0  0  0
  2  4  2  0  0  0  0
  4  5  1  0  0  0  0
  5  6  2  0  0  0  0
  5 11  1  0  0  0  0
  6  7  1  0  0  0  0
  6  9  1  0  0  0  0
  7  8  1  0  0  0  0
  9 10  1  0  0  0  0
 10 11  2  0  0  0  0
M  END
>  <CHROM.1>
-11.57004046,-3.33490539,2.68822480,2.68183700,-1.00169294,1.03422109

>  <Name>
ligand

>  <RI>
0

>  <Rbt.Current_Directory>
/home/itssahil/PROJECTS/Mol_Feturizer/Test_systems_manuscript/rnas/2b57

>  <Rbt.Executable>
rbdock ($Id: //depot/dev/client3/rdock/2013.1/src/exe/rbdock.cxx#4 $)

>  <Rbt.Library>
libRbt.so (2013.1, Build901 2013/11/27)

>  <Rbt.Parameter_File>
/export/apps/rDock/src/rDock_2013.1_src/data/scripts/dock_solv.prm

>  <Rbt.Receptor>
prm/blind_docking_20.prm

>  <SCORE>
-6.85154

>  <SCORE.INTER>
-6.85154

>  <SCORE.INTER.CONST>
1

>  <SCORE.INTER.POLAR>
0

>  <SCORE.INTER.ROT>
0

>  <SCORE.INTER.SOLV>
2.86392

>  <SCORE.INTER.VDW>
-9.12234

>  <SCORE.INTER.norm>
-0.622867

>  <SCORE.INTRA>
0

>  <SCORE.INTRA.DIHEDRAL>
0

>  <SCORE.INTRA.DIHEDRAL.0>
0

>  <SCORE.INTRA.POLAR>
0

>  <SCORE.INTRA.POLAR.0>
0

>  <SCORE.INTRA.REPUL>
0

>  <SCORE.INTRA.REPUL.0>
0

>  <SCORE.INTRA.SOLV>
0

>  <SCORE.INTRA.SOLV.lig_0>
-48.3454

>  <SCORE.INTRA.VDW>
0

>  <SCORE.INTRA.VDW.0>
0

>  <SCORE.INTRA.norm>
0

>  <SCORE.RESTR>
0

>  <SCORE.RESTR.CAVITY>
0

>  <SCORE.RESTR.norm>
0

>  <SCORE.SYSTEM>
0

>  <SCORE.SYSTEM.CONST>
0

>  <SCORE.SYSTEM.DIHEDRAL>
0

>  <SCORE.SYSTEM.SOLV>
0

>  <SCORE.SYSTEM.norm>
0

>  <SCORE.heavy>
11

>  <SCORE.norm>
-0.622867

>  <RMSD>
11.470

$$$$
ligand
 OpenBabel02271912153D
libRbt.so/2013.1/901 2013/11/27
 11 12  0  0  0  0  0  0  0  0999 V2000
  -12.5934   -2.0605    1.9392 N   0  0  0  0  0  0  0  0  0  0  0  0
  -12.3935   -1.7248    3.2237 C   0  0  0  0  0  0  0  0  0  0  0  0
  -12.8946   -0.5862    3.6944 N   0  0  0  0  0  0  0  0  0  0  0  0
  -11.6830   -2.5233    4.0353 N   0  0  0  0  0  0  0  0  0  0  0  0
  -11.1568   -3.6695    3.5789 C   0  0  0  0  0  0  0  0  0  0  0  0
  -11.3486   -4.0406    2.2541 C   0  0  0  0  0  0  0  0  0  0  0  0
  -12.0906   -3.1977    1.4332 C   0  0  0  0  0  0  0  0  0  0  0  0
  -12.3067   -3.5188    0.1611 N   0  0  0  0  0  0  0  0  0  0  0  0
  -10.7168   -5.1954    2.0665 N   0  0  0  0  0  0  0  0  0  0  0  0
  -10.1495   -5.5413    3.2199 C   0  0  0  0  0  0  0  0  0  0  0  0
  -10.4140   -4.6181    4.1420 N   0  0  0  0  0  0  0  0  0  0  0  0
  1  7  2  0  0  0  0
  1  2  1  0  0  0  0
  2  3  1  0  0  0  0
  2  4  2  0  0  0  0
  4  5  1  0  0  0  0
  5  6  2  0  0  0  0
  5 11  1  0  0  0  0
  6  7  1  0  0  0  0
  6  9  1  0  0  0  0
  7  8  1  0  0  0  0
  9 10  1  0  0  0  0
 10 11  2  0  0  0  0
M  END
>  <CHROM.1>
-11.62627503,-3.31338785,2.70180046,2.70201217,-0.98548653,1.07910584

>  <Name>
ligand

>  <RI>
0

>  <Rbt.Current_Directory>
/home/itssahil/PROJECTS/Mol_Feturizer/Test_systems_manuscript/rnas/2b57

>  <Rbt.Executable>
rbdock ($Id: //depot/dev/client3/rdock/2013.1/src/exe/rbdock.cxx#4 $)

>  <Rbt.Library>
libRbt.so (2013.1, Build901 2013/11/27)

>  <Rbt.Parameter_File>
/export/apps/rDock/src/rDock_2013.1_src/data/scripts/dock_solv.prm

>  <Rbt.Receptor>
prm/blind_docking_20.prm

>  <SCORE>
-6.86109

>  <SCORE.INTER>
-6.86109

>  <SCORE.INTER.CONST>
1

>  <SCORE.INTER.POLAR>
0

>  <SCORE.INTER.ROT>
0

>  <SCORE.INTER.SOLV>
2.53907

>  <SCORE.INTER.VDW>
-9.02042

>  <SCORE.INTER.norm>
-0.623736

>  <SCORE.INTRA>
0

>  <SCORE.INTRA.DIHEDRAL>
0

>  <SCORE.INTRA.DIHEDRAL.0>
0

>  <SCORE.INTRA.POLAR>
0

>  <SCORE.INTRA.POLAR.0>
0

>  <SCORE.INTRA.REPUL>
0

>  <SCORE.INTRA.REPUL.0>
0

>  <SCORE.INTRA.SOLV>
0

>  <SCORE.INTRA.SOLV.lig_0>
-48.3454

>  <SCORE.INTRA.VDW>
0

>  <SCORE.INTRA.VDW.0>
0

>  <SCORE.INTRA.norm>
0

>  <SCORE.RESTR>
0

>  <SCORE.RESTR.CAVITY>
0

>  <SCORE.RESTR.norm>
0

>  <SCORE.SYSTEM>
0

>  <SCORE.SYSTEM.CONST>
0

>  <SCORE.SYSTEM.DIHEDRAL>
0

>  <SCORE.SYSTEM.SOLV>
0

>  <SCORE.SYSTEM.norm>
0

>  <SCORE.heavy>
11

>  <SCORE.norm>
-0.623736

>  <RMSD>
11.474

$$$$
ligand
 OpenBabel02271912153D
libRbt.so/2013.1/901 2013/11/27
 11 12  0  0  0  0  0  0  0  0999 V2000
  -12.5194   -2.0293    1.9623 N   0  0  0  0  0  0  0  0  0  0  0  0
  -12.2968   -1.6768    3.2386 C   0  0  0  0  0  0  0  0  0  0  0  0
  -12.7709   -0.5218    3.6970 N   0  0  0  0  0  0  0  0  0  0  0  0
  -11.5907   -2.4753    4.0540 N   0  0  0  0  0  0  0  0  0  0  0  0
  -11.0915   -3.6382    3.6097 C   0  0  0  0  0  0  0  0  0  0  0  0
  -11.3072   -4.0268    2.2936 C   0  0  0  0  0  0  0  0  0  0  0  0
  -12.0441   -3.1835    1.4686 C   0  0  0  0  0  0  0  0  0  0  0  0
  -12.2825   -3.5209    0.2047 N   0  0  0  0  0  0  0  0  0  0  0  0
  -10.6991   -5.1960    2.1169 N   0  0  0  0  0  0  0  0  0  0  0  0
  -10.1234   -5.5338    3.2685 C   0  0  0  0  0  0  0  0  0  0  0  0
  -10.3590   -4.5912    4.1787 N   0  0  0  0  0  0  0  0  0  0  0  0
  1  7  2  0  0  0  0
  1  2  1  0  0  0  0
  2  3  1  0  0  0  0
  2  4  2  0  0  0  0
  4  5  1  0  0  0  0
  5  6  2  0  0  0  0
  5 11  1  0  0  0  0
  6  7  1  0  0  0  0
  6  9  1  0  0  0  0
  7  8  1  0  0  0  0
  9 10  1  0  0  0  0
 10 11  2  0  0  0  0
M  END
>  <CHROM.1>
-11.56565419,-3.28748375,2.73291512,2.66520534,-0.99524156,1.03220198

>  <Name>
ligand

>  <RI>
0

>  <Rbt.Current_Directory>
/home/itssahil/PROJECTS/Mol_Feturizer/Test_systems_manuscript/rnas/2b57

>  <Rbt.Executable>
rbdock ($Id: //depot/dev/client3/rdock/2013.1/src/exe/rbdock.cxx#4 $)

>  <Rbt.Library>
libRbt.so (2013.1, Build901 2013/11/27)

>  <Rbt.Parameter_File>
/export/apps/rDock/src/rDock_2013.1_src/data/scripts/dock_solv.prm

>  <Rbt.Receptor>
prm/blind_docking_20.prm

>  <SCORE>
-6.91747

>  <SCORE.INTER>
-6.91747

>  <SCORE.INTER.CONST>
1

>  <SCORE.INTER.POLAR>
0

>  <SCORE.INTER.ROT>
0

>  <SCORE.INTER.SOLV>
2.87274

>  <SCORE.INTER.VDW>
-9.16923

>  <SCORE.INTER.norm>
-0.628861

>  <SCORE.INTRA>
0

>  <SCORE.INTRA.DIHEDRAL>
0

>  <SCORE.INTRA.DIHEDRAL.0>
0

>  <SCORE.INTRA.POLAR>
0

>  <SCORE.INTRA.POLAR.0>
0

>  <SCORE.INTRA.REPUL>
0

>  <SCORE.INTRA.REPUL.0>
0

>  <SCORE.INTRA.SOLV>
0

>  <SCORE.INTRA.SOLV.lig_0>
-48.3454

>  <SCORE.INTRA.VDW>
0

>  <SCORE.INTRA.VDW.0>
0

>  <SCORE.INTRA.norm>
0

>  <SCORE.RESTR>
0

>  <SCORE.RESTR.CAVITY>
0

>  <SCORE.RESTR.norm>
0

>  <SCORE.SYSTEM>
0

>  <SCORE.SYSTEM.CONST>
0

>  <SCORE.SYSTEM.DIHEDRAL>
0

>  <SCORE.SYSTEM.SOLV>
0

>  <SCORE.SYSTEM.norm>
0

>  <SCORE.heavy>
11

>  <SCORE.norm>
-0.628861

>  <RMSD>
11.485

$$$$
ligand
 OpenBabel02271912153D
libRbt.so/2013.1/901 2013/11/27
 11 12  0  0  0  0  0  0  0  0999 V2000
  -17.6395  -23.8948    8.3038 N   0  0  0  0  0  0  0  0  0  0  0  0
  -17.2962  -23.5188    7.0615 C   0  0  0  0  0  0  0  0  0  0  0  0
  -16.4005  -24.2280    6.3806 N   0  0  0  0  0  0  0  0  0  0  0  0
  -17.8414  -22.4267    6.5037 N   0  0  0  0  0  0  0  0  0  0  0  0
  -18.7366  -21.6886    7.1766 C   0  0  0  0  0  0  0  0  0  0  0  0
  -19.1093  -22.0553    8.4635 C   0  0  0  0  0  0  0  0  0  0  0  0
  -18.5323  -23.1925    9.0191 C   0  0  0  0  0  0  0  0  0  0  0  0
  -18.8676  -23.5852   10.2445 N   0  0  0  0  0  0  0  0  0  0  0  0
  -19.9862  -21.1552    8.8980 N   0  0  0  0  0  0  0  0  0  0  0  0
  -20.1616  -20.2576    7.9308 C   0  0  0  0  0  0  0  0  0  0  0  0
  -19.4052  -20.5771    6.8828 N   0  0  0  0  0  0  0  0  0  0  0  0
  1  7  2  0  0  0  0
  1  2  1  0  0  0  0
  2  3  1  0  0  0  0
  2  4  2  0  0  0  0
  4  5  1  0  0  0  0
  5  6  2  0  0  0  0
  5 11  1  0  0  0  0
  6  7  1  0  0  0  0
  6  9  1  0  0  0  0
  7  8  1  0  0  0  0
  9 10  1  0  0  0  0
 10 11  2  0  0  0  0
M  END
>  <CHROM.1>
-18.52781138,-22.43529351,7.89449298,0.23443317,-0.83540790,2.16727308

>  <Name>
ligand

>  <RI>
0

>  <Rbt.Current_Directory>
/home/itssahil/PROJECTS/Mol_Feturizer/Test_systems_manuscript/rnas/2b57

>  <Rbt.Executable>
rbdock ($Id: //depot/dev/client3/rdock/2013.1/src/exe/rbdock.cxx#4 $)

>  <Rbt.Library>
libRbt.so (2013.1, Build901 2013/11/27)

>  <Rbt.Parameter_File>
/export/apps/rDock/src/rDock_2013.1_src/data/scripts/dock_solv.prm

>  <Rbt.Receptor>
prm/blind_docking_40.prm

>  <SCORE>
-6.49205

>  <SCORE.INTER>
-6.49205

>  <SCORE.INTER.CONST>
1

>  <SCORE.INTER.POLAR>
0

>  <SCORE.INTER.ROT>
0

>  <SCORE.INTER.SOLV>
3.03442

>  <SCORE.INTER.VDW>
-8.9395

>  <SCORE.INTER.norm>
-0.590186

>  <SCORE.INTRA>
0

>  <SCORE.INTRA.DIHEDRAL>
0

>  <SCORE.INTRA.DIHEDRAL.0>
0

>  <SCORE.INTRA.POLAR>
0

>  <SCORE.INTRA.POLAR.0>
0

>  <SCORE.INTRA.REPUL>
0

>  <SCORE.INTRA.REPUL.0>
0

>  <SCORE.INTRA.SOLV>
0

>  <SCORE.INTRA.SOLV.lig_0>
-48.3454

>  <SCORE.INTRA.VDW>
0

>  <SCORE.INTRA.VDW.0>
0

>  <SCORE.INTRA.norm>
0

>  <SCORE.RESTR>
0

>  <SCORE.RESTR.CAVITY>
0

>  <SCORE.RESTR.norm>
0

>  <SCORE.SYSTEM>
0

>  <SCORE.SYSTEM.CONST>
0

>  <SCORE.SYSTEM.DIHEDRAL>
0

>  <SCORE.SYSTEM.SOLV>
0

>  <SCORE.SYSTEM.norm>
0

>  <SCORE.heavy>
11

>  <SCORE.norm>
-0.590186

>  <RMSD>
12.039

$$$$
ligand
 OpenBabel02271912153D
libRbt.so/2013.1/901 2013/11/27
 11 12  0  0  0  0  0  0  0  0999 V2000
  -17.6251  -23.8952    8.3217 N   0  0  0  0  0  0  0  0  0  0  0  0
  -17.3146  -23.4843    7.0817 C   0  0  0  0  0  0  0  0  0  0  0  0
  -16.4203  -24.1606    6.3664 N   0  0  0  0  0  0  0  0  0  0  0  0
  -17.8914  -22.3902    6.5608 N   0  0  0  0  0  0  0  0  0  0  0  0
  -18.7860  -21.6848    7.2687 C   0  0  0  0  0  0  0  0  0  0  0  0
  -19.1251  -22.0881    8.5541 C   0  0  0  0  0  0  0  0  0  0  0  0
  -18.5158  -23.2265    9.0712 C   0  0  0  0  0  0  0  0  0  0  0  0
  -18.8182  -23.6535   10.2936 N   0  0  0  0  0  0  0  0  0  0  0  0
  -20.0092  -21.2149    9.0272 N   0  0  0  0  0  0  0  0  0  0  0  0
  -20.2212  -20.2988    8.0849 C   0  0  0  0  0  0  0  0  0  0  0  0
  -19.4810  -20.5798    7.0146 N   0  0  0  0  0  0  0  0  0  0  0  0
  1  7  2  0  0  0  0
  1  2  1  0  0  0  0
  2  3  1  0  0  0  0
  2  4  2  0  0  0  0
  4  5  1  0  0  0  0
  5  6  2  0  0  0  0
  5 11  1  0  0  0  0
  6  7  1  0  0  0  0
  6  9  1  0  0  0  0
  7  8  1  0  0  0  0
  9 10  1  0  0  0  0
 10 11  2  0  0  0  0
M  END
>  <CHROM.1>
-18.54855222,-22.44375522,7.96463973,0.19355805,-0.83134454,2.16017662

>  <Name>
ligand

>  <RI>
0

>  <Rbt.Current_Directory>
/home/itssahil/PROJECTS/Mol_Feturizer/Test_systems_manuscript/rnas/2b57

>  <Rbt.Executable>
rbdock ($Id: //depot/dev/client3/rdock/2013.1/src/exe/rbdock.cxx#4 $)

>  <Rbt.Library>
libRbt.so (2013.1, Build901 2013/11/27)

>  <Rbt.Parameter_File>
/export/apps/rDock/src/rDock_2013.1_src/data/scripts/dock_solv.prm

>  <Rbt.Receptor>
prm/blind_docking_100.prm

>  <SCORE>
-6.49325

>  <SCORE.INTER>
-6.49325

>  <SCORE.INTER.CONST>
1

>  <SCORE.INTER.POLAR>
0

>  <SCORE.INTER.ROT>
0

>  <SCORE.INTER.SOLV>
3.07572

>  <SCORE.INTER.VDW>
-8.95408

>  <SCORE.INTER.norm>
-0.590296

>  <SCORE.INTRA>
0

>  <SCORE.INTRA.DIHEDRAL>
0

>  <SCORE.INTRA.DIHEDRAL.0>
0

>  <SCORE.INTRA.POLAR>
0

>  <SCORE.INTRA.POLAR.0>
0

>  <SCORE.INTRA.REPUL>
0

>  <SCORE.INTRA.REPUL.0>
0

>  <SCORE.INTRA.SOLV>
0

>  <SCORE.INTRA.SOLV.lig_0>
-48.3454

>  <SCORE.INTRA.VDW>
0

>  <SCORE.INTRA.VDW.0>
0

>  <SCORE.INTRA.norm>
0

>  <SCORE.RESTR>
0

>  <SCORE.RESTR.CAVITY>
0

>  <SCORE.RESTR.norm>
0

>  <SCORE.SYSTEM>
0

>  <SCORE.SYSTEM.CONST>
0

>  <SCORE.SYSTEM.DIHEDRAL>
0

>  <SCORE.SYSTEM.SOLV>
0

>  <SCORE.SYSTEM.norm>
0

>  <SCORE.heavy>
11

>  <SCORE.norm>
-0.590296

>  <RMSD>
12.070

$$$$
ligand
 OpenBabel02271912153D
libRbt.so/2013.1/901 2013/11/27
 11 12  0  0  0  0  0  0  0  0999 V2000
  -17.9810  -23.7960    8.8720 N   0  0  0  0  0  0  0  0  0  0  0  0
  -17.5428  -23.5548    7.6260 C   0  0  0  0  0  0  0  0  0  0  0  0
  -16.6301  -24.3538    7.0807 N   0  0  0  0  0  0  0  0  0  0  0  0
  -18.0103  -22.5076    6.9288 N   0  0  0  0  0  0  0  0  0  0  0  0
  -18.9209  -21.6807    7.4635 C   0  0  0  0  0  0  0  0  0  0  0  0
  -19.3911  -21.9075    8.7508 C   0  0  0  0  0  0  0  0  0  0  0  0
  -18.8934  -23.0006    9.4524 C   0  0  0  0  0  0  0  0  0  0  0  0
  -19.3230  -23.2602   10.6838 N   0  0  0  0  0  0  0  0  0  0  0  0
  -20.2618  -20.9434    9.0344 N   0  0  0  0  0  0  0  0  0  0  0  0
  -20.3404  -20.1410    7.9752 C   0  0  0  0  0  0  0  0  0  0  0  0
  -19.5282  -20.5846    7.0180 N   0  0  0  0  0  0  0  0  0  0  0  0
  1  7  2  0  0  0  0
  1  2  1  0  0  0  0
  2  3  1  0  0  0  0
  2  4  2  0  0  0  0
  4  5  1  0  0  0  0
  5  6  2  0  0  0  0
  5 11  1  0  0  0  0
  6  7  1  0  0  0  0
  6  9  1  0  0  0  0
  7  8  1  0  0  0  0
  9 10  1  0  0  0  0
 10 11  2  0  0  0  0
M  END
>  <CHROM.1>
-18.78716932,-22.35866124,8.26294395,0.34520558,-0.82486643,2.15106371

>  <Name>
ligand

>  <RI>
0

>  <Rbt.Current_Directory>
/home/itssahil/PROJECTS/Mol_Feturizer/Test_systems_manuscript/rnas/2b57

>  <Rbt.Executable>
rbdock ($Id: //depot/dev/client3/rdock/2013.1/src/exe/rbdock.cxx#4 $)

>  <Rbt.Library>
libRbt.so (2013.1, Build901 2013/11/27)

>  <Rbt.Parameter_File>
/export/apps/rDock/src/rDock_2013.1_src/data/scripts/dock_solv.prm

>  <Rbt.Receptor>
prm/blind_docking_60.prm

>  <SCORE>
-6.44812

>  <SCORE.INTER>
-6.44812

>  <SCORE.INTER.CONST>
1

>  <SCORE.INTER.POLAR>
0

>  <SCORE.INTER.ROT>
0

>  <SCORE.INTER.SOLV>
2.48503

>  <SCORE.INTER.VDW>
-8.72709

>  <SCORE.INTER.norm>
-0.586192

>  <SCORE.INTRA>
0

>  <SCORE.INTRA.DIHEDRAL>
0

>  <SCORE.INTRA.DIHEDRAL.0>
0

>  <SCORE.INTRA.POLAR>
0

>  <SCORE.INTRA.POLAR.0>
0

>  <SCORE.INTRA.REPUL>
0

>  <SCORE.INTRA.REPUL.0>
0

>  <SCORE.INTRA.SOLV>
0

>  <SCORE.INTRA.SOLV.lig_0>
-48.3454

>  <SCORE.INTRA.VDW>
0

>  <SCORE.INTRA.VDW.0>
0

>  <SCORE.INTRA.norm>
0

>  <SCORE.RESTR>
0

>  <SCORE.RESTR.CAVITY>
0

>  <SCORE.RESTR.norm>
0

>  <SCORE.SYSTEM>
0

>  <SCORE.SYSTEM.CONST>
0

>  <SCORE.SYSTEM.DIHEDRAL>
0

>  <SCORE.SYSTEM.SOLV>
0

>  <SCORE.SYSTEM.norm>
0

>  <SCORE.heavy>
11

>  <SCORE.norm>
-0.586192

>  <RMSD>
12.099

$$$$
ligand
 OpenBabel02271912153D
libRbt.so/2013.1/901 2013/11/27
 11 12  0  0  0  0  0  0  0  0999 V2000
  -17.9753  -23.7972    8.8841 N   0  0  0  0  0  0  0  0  0  0  0  0
  -17.5360  -23.5561    7.6385 C   0  0  0  0  0  0  0  0  0  0  0  0
  -16.6191  -24.3522    7.0959 N   0  0  0  0  0  0  0  0  0  0  0  0
  -18.0067  -22.5120    6.9389 N   0  0  0  0  0  0  0  0  0  0  0  0
  -18.9216  -21.6881    7.4708 C   0  0  0  0  0  0  0  0  0  0  0  0
  -19.3929  -21.9147    8.7577 C   0  0  0  0  0  0  0  0  0  0  0  0
  -18.8919  -23.0047    9.4618 C   0  0  0  0  0  0  0  0  0  0  0  0
  -19.3225  -23.2642   10.6928 N   0  0  0  0  0  0  0  0  0  0  0  0
  -20.2682  -20.9539    9.0383 N   0  0  0  0  0  0  0  0  0  0  0  0
  -20.3483  -20.1535    7.9777 C   0  0  0  0  0  0  0  0  0  0  0  0
  -19.5327  -20.5952    7.0226 N   0  0  0  0  0  0  0  0  0  0  0  0
  1  7  2  0  0  0  0
  1  2  1  0  0  0  0
  2  3  1  0  0  0  0
  2  4  2  0  0  0  0
  4  5  1  0  0  0  0
  5  6  2  0  0  0  0
  5 11  1  0  0  0  0
  6  7  1  0  0  0  0
  6  9  1  0  0  0  0
  7  8  1  0  0  0  0
  9 10  1  0  0  0  0
 10 11  2  0  0  0  0
M  END
>  <CHROM.1>
-18.78636368,-22.36419192,8.27147765,0.34389581,-0.82050291,2.14856656

>  <Name>
ligand

>  <RI>
0

>  <Rbt.Current_Directory>
/home/itssahil/PROJECTS/Mol_Feturizer/Test_systems_manuscript/rnas/2b57

>  <Rbt.Executable>
rbdock ($Id: //depot/dev/client3/rdock/2013.1/src/exe/rbdock.cxx#4 $)

>  <Rbt.Library>
libRbt.so (2013.1, Build901 2013/11/27)

>  <Rbt.Parameter_File>
/export/apps/rDock/src/rDock_2013.1_src/data/scripts/dock_solv.prm

>  <Rbt.Receptor>
prm/blind_docking_40.prm

>  <SCORE>
-6.45416

>  <SCORE.INTER>
-6.45416

>  <SCORE.INTER.CONST>
1

>  <SCORE.INTER.POLAR>
0

>  <SCORE.INTER.ROT>
0

>  <SCORE.INTER.SOLV>
2.47877

>  <SCORE.INTER.VDW>
-8.72903

>  <SCORE.INTER.norm>
-0.586742

>  <SCORE.INTRA>
0

>  <SCORE.INTRA.DIHEDRAL>
0

>  <SCORE.INTRA.DIHEDRAL.0>
0

>  <SCORE.INTRA.POLAR>
0

>  <SCORE.INTRA.POLAR.0>
0

>  <SCORE.INTRA.REPUL>
0

>  <SCORE.INTRA.REPUL.0>
0

>  <SCORE.INTRA.SOLV>
0

>  <SCORE.INTRA.SOLV.lig_0>
-48.3454

>  <SCORE.INTRA.VDW>
0

>  <SCORE.INTRA.VDW.0>
0

>  <SCORE.INTRA.norm>
0

>  <SCORE.RESTR>
0

>  <SCORE.RESTR.CAVITY>
0

>  <SCORE.RESTR.norm>
0

>  <SCORE.SYSTEM>
0

>  <SCORE.SYSTEM.CONST>
0

>  <SCORE.SYSTEM.DIHEDRAL>
0

>  <SCORE.SYSTEM.SOLV>
0

>  <SCORE.SYSTEM.norm>
0

>  <SCORE.heavy>
11

>  <SCORE.norm>
-0.586742

>  <RMSD>
12.103

$$$$
ligand
 OpenBabel02271912153D
libRbt.so/2013.1/901 2013/11/27
 11 12  0  0  0  0  0  0  0  0999 V2000
  -18.4990  -23.6635    9.6037 N   0  0  0  0  0  0  0  0  0  0  0  0
  -17.8286  -23.6889    8.4407 C   0  0  0  0  0  0  0  0  0  0  0  0
  -16.9277  -24.6418    8.2183 N   0  0  0  0  0  0  0  0  0  0  0  0
  -18.0519  -22.7545    7.5036 N   0  0  0  0  0  0  0  0  0  0  0  0
  -18.9458  -21.7764    7.7113 C   0  0  0  0  0  0  0  0  0  0  0  0
  -19.6531  -21.7268    8.9059 C   0  0  0  0  0  0  0  0  0  0  0  0
  -19.4059  -22.7078    9.8606 C   0  0  0  0  0  0  0  0  0  0  0  0
  -20.0674  -22.7038   11.0142 N   0  0  0  0  0  0  0  0  0  0  0  0
  -20.4497  -20.6634    8.8555 N   0  0  0  0  0  0  0  0  0  0  0  0
  -20.2564  -20.0650    7.6822 C   0  0  0  0  0  0  0  0  0  0  0  0
  -19.3442  -20.7373    6.9833 N   0  0  0  0  0  0  0  0  0  0  0  0
  1  7  2  0  0  0  0
  1  2  1  0  0  0  0
  2  3  1  0  0  0  0
  2  4  2  0  0  0  0
  4  5  1  0  0  0  0
  5  6  2  0  0  0  0
  5 11  1  0  0  0  0
  6  7  1  0  0  0  0
  6  9  1  0  0  0  0
  7  8  1  0  0  0  0
  9 10  1  0  0  0  0
 10 11  2  0  0  0  0
M  END
>  <CHROM.1>
-19.02666279,-22.30466288,8.62295634,0.64203756,-0.79869965,2.18975001

>  <Name>
ligand

>  <RI>
0

>  <Rbt.Current_Directory>
/home/itssahil/PROJECTS/Mol_Feturizer/Test_systems_manuscript/rnas/2b57

>  <Rbt.Executable>
rbdock ($Id: //depot/dev/client3/rdock/2013.1/src/exe/rbdock.cxx#4 $)

>  <Rbt.Library>
libRbt.so (2013.1, Build901 2013/11/27)

>  <Rbt.Parameter_File>
/export/apps/rDock/src/rDock_2013.1_src/data/scripts/dock_solv.prm

>  <Rbt.Receptor>
prm/blind_docking_80.prm

>  <SCORE>
-6.30675

>  <SCORE.INTER>
-6.30675

>  <SCORE.INTER.CONST>
1

>  <SCORE.INTER.POLAR>
0

>  <SCORE.INTER.ROT>
0

>  <SCORE.INTER.SOLV>
3.11489

>  <SCORE.INTER.VDW>
-8.8428

>  <SCORE.INTER.norm>
-0.573341

>  <SCORE.INTRA>
0

>  <SCORE.INTRA.DIHEDRAL>
0

>  <SCORE.INTRA.DIHEDRAL.0>
0

>  <SCORE.INTRA.POLAR>
0

>  <SCORE.INTRA.POLAR.0>
0

>  <SCORE.INTRA.REPUL>
0

>  <SCORE.INTRA.REPUL.0>
0

>  <SCORE.INTRA.SOLV>
0

>  <SCORE.INTRA.SOLV.lig_0>
-48.3454

>  <SCORE.INTRA.VDW>
0

>  <SCORE.INTRA.VDW.0>
0

>  <SCORE.INTRA.norm>
0

>  <SCORE.RESTR>
0

>  <SCORE.RESTR.CAVITY>
0

>  <SCORE.RESTR.norm>
0

>  <SCORE.SYSTEM>
0

>  <SCORE.SYSTEM.CONST>
0

>  <SCORE.SYSTEM.DIHEDRAL>
0

>  <SCORE.SYSTEM.SOLV>
0

>  <SCORE.SYSTEM.norm>
0

>  <SCORE.heavy>
11

>  <SCORE.norm>
-0.573341

>  <RMSD>
12.130

$$$$
ligand
 OpenBabel02271912153D
libRbt.so/2013.1/901 2013/11/27
 11 12  0  0  0  0  0  0  0  0999 V2000
  -18.4950  -22.9657    8.5309 N   0  0  0  0  0  0  0  0  0  0  0  0
  -18.1602  -22.5428    7.3013 C   0  0  0  0  0  0  0  0  0  0  0  0
  -17.1231  -23.0906    6.6742 N   0  0  0  0  0  0  0  0  0  0  0  0
  -18.8569  -21.5643    6.7028 N   0  0  0  0  0  0  0  0  0  0  0  0
  -19.8981  -20.9882    7.3216 C   0  0  0  0  0  0  0  0  0  0  0  0
  -20.2655  -21.4067    8.5942 C   0  0  0  0  0  0  0  0  0  0  0  0
  -19.5297  -22.4242    9.1927 C   0  0  0  0  0  0  0  0  0  0  0  0
  -19.8528  -22.8621   10.4059 N   0  0  0  0  0  0  0  0  0  0  0  0
  -21.3047  -20.6691    8.9735 N   0  0  0  0  0  0  0  0  0  0  0  0
  -21.5838  -19.8205    7.9866 C   0  0  0  0  0  0  0  0  0  0  0  0
  -20.7326  -20.0104    6.9807 N   0  0  0  0  0  0  0  0  0  0  0  0
  1  7  2  0  0  0  0
  1  2  1  0  0  0  0
  2  3  1  0  0  0  0
  2  4  2  0  0  0  0
  4  5  1  0  0  0  0
  5  6  2  0  0  0  0
  5 11  1  0  0  0  0
  6  7  1  0  0  0  0
  6  9  1  0  0  0  0
  7  8  1  0  0  0  0
  9 10  1  0  0  0  0
 10 11  2  0  0  0  0
M  END
>  <CHROM.1>
-19.59975601,-21.68369661,8.05909792,0.16384585,-0.66279308,2.10923547

>  <Name>
ligand

>  <RI>
0

>  <Rbt.Current_Directory>
/home/itssahil/PROJECTS/Mol_Feturizer/Test_systems_manuscript/rnas/2b57

>  <Rbt.Executable>
rbdock ($Id: //depot/dev/client3/rdock/2013.1/src/exe/rbdock.cxx#4 $)

>  <Rbt.Library>
libRbt.so (2013.1, Build901 2013/11/27)

>  <Rbt.Parameter_File>
/export/apps/rDock/src/rDock_2013.1_src/data/scripts/dock_solv.prm

>  <Rbt.Receptor>
prm/blind_docking_40.prm

>  <SCORE>
-6.16907

>  <SCORE.INTER>
-6.16907

>  <SCORE.INTER.CONST>
1

>  <SCORE.INTER.POLAR>
0

>  <SCORE.INTER.ROT>
0

>  <SCORE.INTER.SOLV>
7.8072

>  <SCORE.INTER.VDW>
-10.3151

>  <SCORE.INTER.norm>
-0.560825

>  <SCORE.INTRA>
0

>  <SCORE.INTRA.DIHEDRAL>
0

>  <SCORE.INTRA.DIHEDRAL.0>
0

>  <SCORE.INTRA.POLAR>
0

>  <SCORE.INTRA.POLAR.0>
0

>  <SCORE.INTRA.REPUL>
0

>  <SCORE.INTRA.REPUL.0>
0

>  <SCORE.INTRA.SOLV>
0

>  <SCORE.INTRA.SOLV.lig_0>
-48.3454

>  <SCORE.INTRA.VDW>
0

>  <SCORE.INTRA.VDW.0>
0

>  <SCORE.INTRA.norm>
0

>  <SCORE.RESTR>
0

>  <SCORE.RESTR.CAVITY>
0

>  <SCORE.RESTR.norm>
0

>  <SCORE.SYSTEM>
0

>  <SCORE.SYSTEM.CONST>
0

>  <SCORE.SYSTEM.DIHEDRAL>
0

>  <SCORE.SYSTEM.SOLV>
0

>  <SCORE.SYSTEM.norm>
0

>  <SCORE.heavy>
11

>  <SCORE.norm>
-0.560825

>  <RMSD>
12.165

$$$$
ligand
 OpenBabel02271912153D
libRbt.so/2013.1/901 2013/11/27
 11 12  0  0  0  0  0  0  0  0999 V2000
  -18.6455  -23.6619   10.1957 N   0  0  0  0  0  0  0  0  0  0  0  0
  -19.4273  -22.9499   11.0231 C   0  0  0  0  0  0  0  0  0  0  0  0
  -19.6271  -23.3713   12.2687 N   0  0  0  0  0  0  0  0  0  0  0  0
  -20.0180  -21.8211   10.6011 N   0  0  0  0  0  0  0  0  0  0  0  0
  -19.8416  -21.3842    9.3454 C   0  0  0  0  0  0  0  0  0  0  0  0
  -19.0377  -22.1020    8.4688 C   0  0  0  0  0  0  0  0  0  0  0  0
  -18.4344  -23.2673    8.9301 C   0  0  0  0  0  0  0  0  0  0  0  0
  -17.6493  -23.9799    8.1277 N   0  0  0  0  0  0  0  0  0  0  0  0
  -19.0478  -21.4634    7.3026 N   0  0  0  0  0  0  0  0  0  0  0  0
  -19.8232  -20.3893    7.4330 C   0  0  0  0  0  0  0  0  0  0  0  0
  -20.3075  -20.3363    8.6720 N   0  0  0  0  0  0  0  0  0  0  0  0
  1  7  2  0  0  0  0
  1  2  1  0  0  0  0
  2  3  1  0  0  0  0
  2  4  2  0  0  0  0
  4  5  1  0  0  0  0
  5  6  2  0  0  0  0
  5 11  1  0  0  0  0
  6  7  1  0  0  0  0
  6  9  1  0  0  0  0
  7  8  1  0  0  0  0
  9 10  1  0  0  0  0
 10 11  2  0  0  0  0
M  END
>  <CHROM.1>
-19.25628424,-22.26374092,9.32463869,-1.44699599,0.91508991,-1.06345322

>  <Name>
ligand

>  <RI>
0

>  <Rbt.Current_Directory>
/home/itssahil/PROJECTS/Mol_Feturizer/Test_systems_manuscript/rnas/2b57

>  <Rbt.Executable>
rbdock ($Id: //depot/dev/client3/rdock/2013.1/src/exe/rbdock.cxx#4 $)

>  <Rbt.Library>
libRbt.so (2013.1, Build901 2013/11/27)

>  <Rbt.Parameter_File>
/export/apps/rDock/src/rDock_2013.1_src/data/scripts/dock_solv.prm

>  <Rbt.Receptor>
prm/blind_docking_100.prm

>  <SCORE>
-6.40319

>  <SCORE.INTER>
-6.40319

>  <SCORE.INTER.CONST>
1

>  <SCORE.INTER.POLAR>
0

>  <SCORE.INTER.ROT>
0

>  <SCORE.INTER.SOLV>
3.77963

>  <SCORE.INTER.VDW>
-9.12867

>  <SCORE.INTER.norm>
-0.582108

>  <SCORE.INTRA>
0

>  <SCORE.INTRA.DIHEDRAL>
0

>  <SCORE.INTRA.DIHEDRAL.0>
0

>  <SCORE.INTRA.POLAR>
0

>  <SCORE.INTRA.POLAR.0>
0

>  <SCORE.INTRA.REPUL>
0

>  <SCORE.INTRA.REPUL.0>
0

>  <SCORE.INTRA.SOLV>
0

>  <SCORE.INTRA.SOLV.lig_0>
-48.3454

>  <SCORE.INTRA.VDW>
0

>  <SCORE.INTRA.VDW.0>
0

>  <SCORE.INTRA.norm>
0

>  <SCORE.RESTR>
0

>  <SCORE.RESTR.CAVITY>
0

>  <SCORE.RESTR.norm>
0

>  <SCORE.SYSTEM>
0

>  <SCORE.SYSTEM.CONST>
0

>  <SCORE.SYSTEM.DIHEDRAL>
0

>  <SCORE.SYSTEM.SOLV>
0

>  <SCORE.SYSTEM.norm>
0

>  <SCORE.heavy>
11

>  <SCORE.norm>
-0.582108

>  <RMSD>
12.262

$$$$
ligand
 OpenBabel02271912153D
libRbt.so/2013.1/901 2013/11/27
 11 12  0  0  0  0  0  0  0  0999 V2000
  -18.6726  -23.6639   10.2039 N   0  0  0  0  0  0  0  0  0  0  0  0
  -19.4612  -22.9460   11.0196 C   0  0  0  0  0  0  0  0  0  0  0  0
  -19.6801  -23.3642   12.2631 N   0  0  0  0  0  0  0  0  0  0  0  0
  -20.0397  -21.8146   10.5880 N   0  0  0  0  0  0  0  0  0  0  0  0
  -19.8441  -21.3808    9.3340 C   0  0  0  0  0  0  0  0  0  0  0  0
  -19.0328  -22.1047    8.4695 C   0  0  0  0  0  0  0  0  0  0  0  0
  -18.4423  -23.2726    8.9406 C   0  0  0  0  0  0  0  0  0  0  0  0
  -17.6508  -23.9911    8.1499 N   0  0  0  0  0  0  0  0  0  0  0  0
  -19.0235  -21.4680    7.3022 N   0  0  0  0  0  0  0  0  0  0  0  0
  -19.7945  -20.3893    7.4205 C   0  0  0  0  0  0  0  0  0  0  0  0
  -20.2950  -20.3314    8.6528 N   0  0  0  0  0  0  0  0  0  0  0  0
  1  7  2  0  0  0  0
  1  2  1  0  0  0  0
  2  3  1  0  0  0  0
  2  4  2  0  0  0  0
  4  5  1  0  0  0  0
  5  6  2  0  0  0  0
  5 11  1  0  0  0  0
  6  7  1  0  0  0  0
  6  9  1  0  0  0  0
  7  8  1  0  0  0  0
  9 10  1  0  0  0  0
 10 11  2  0  0  0  0
M  END
>  <CHROM.1>
-19.26362799,-22.26375113,9.32252061,-1.47065836,0.91350664,-1.04635662

>  <Name>
ligand

>  <RI>
0

>  <Rbt.Current_Directory>
/home/itssahil/PROJECTS/Mol_Feturizer/Test_systems_manuscript/rnas/2b57

>  <Rbt.Executable>
rbdock ($Id: //depot/dev/client3/rdock/2013.1/src/exe/rbdock.cxx#4 $)

>  <Rbt.Library>
libRbt.so (2013.1, Build901 2013/11/27)

>  <Rbt.Parameter_File>
/export/apps/rDock/src/rDock_2013.1_src/data/scripts/dock_solv.prm

>  <Rbt.Receptor>
prm/blind_docking_40.prm

>  <SCORE>
-6.39734

>  <SCORE.INTER>
-6.39734

>  <SCORE.INTER.CONST>
1

>  <SCORE.INTER.POLAR>
0

>  <SCORE.INTER.ROT>
0

>  <SCORE.INTER.SOLV>
3.71107

>  <SCORE.INTER.VDW>
-9.10191

>  <SCORE.INTER.norm>
-0.581576

>  <SCORE.INTRA>
0

>  <SCORE.INTRA.DIHEDRAL>
0

>  <SCORE.INTRA.DIHEDRAL.0>
0

>  <SCORE.INTRA.POLAR>
0

>  <SCORE.INTRA.POLAR.0>
0

>  <SCORE.INTRA.REPUL>
0

>  <SCORE.INTRA.REPUL.0>
0

>  <SCORE.INTRA.SOLV>
0

>  <SCORE.INTRA.SOLV.lig_0>
-48.3454

>  <SCORE.INTRA.VDW>
0

>  <SCORE.INTRA.VDW.0>
0

>  <SCORE.INTRA.norm>
0

>  <SCORE.RESTR>
0

>  <SCORE.RESTR.CAVITY>
0

>  <SCORE.RESTR.norm>
0

>  <SCORE.SYSTEM>
0

>  <SCORE.SYSTEM.CONST>
0

>  <SCORE.SYSTEM.DIHEDRAL>
0

>  <SCORE.SYSTEM.SOLV>
0

>  <SCORE.SYSTEM.norm>
0

>  <SCORE.heavy>
11

>  <SCORE.norm>
-0.581576

>  <RMSD>
12.266

$$$$
ligand
 OpenBabel02271912153D
libRbt.so/2013.1/901 2013/11/27
 11 12  0  0  0  0  0  0  0  0999 V2000
  -18.6572  -23.6592   10.1946 N   0  0  0  0  0  0  0  0  0  0  0  0
  -19.4350  -22.9432   11.0223 C   0  0  0  0  0  0  0  0  0  0  0  0
  -19.6326  -23.3611   12.2695 N   0  0  0  0  0  0  0  0  0  0  0  0
  -20.0239  -21.8139   10.5993 N   0  0  0  0  0  0  0  0  0  0  0  0
  -19.8498  -21.3805    9.3420 C   0  0  0  0  0  0  0  0  0  0  0  0
  -19.0501  -22.1023    8.4651 C   0  0  0  0  0  0  0  0  0  0  0  0
  -18.4484  -23.2680    8.9276 C   0  0  0  0  0  0  0  0  0  0  0  0
  -17.6673  -23.9846    8.1247 N   0  0  0  0  0  0  0  0  0  0  0  0
  -19.0616  -21.4665    7.2974 N   0  0  0  0  0  0  0  0  0  0  0  0
  -19.8340  -20.3901    7.4273 C   0  0  0  0  0  0  0  0  0  0  0  0
  -20.3149  -20.3330    8.6674 N   0  0  0  0  0  0  0  0  0  0  0  0
  1  7  2  0  0  0  0
  1  2  1  0  0  0  0
  2  3  1  0  0  0  0
  2  4  2  0  0  0  0
  4  5  1  0  0  0  0
  5  6  2  0  0  0  0
  5 11  1  0  0  0  0
  6  7  1  0  0  0  0
  6  9  1  0  0  0  0
  7  8  1  0  0  0  0
  9 10  1  0  0  0  0
 10 11  2  0  0  0  0
M  END
>  <CHROM.1>
-19.26675823,-22.26151904,9.32184182,-1.44519949,0.91858806,-1.06724861

>  <Name>
ligand

>  <RI>
0

>  <Rbt.Current_Directory>
/home/itssahil/PROJECTS/Mol_Feturizer/Test_systems_manuscript/rnas/2b57

>  <Rbt.Executable>
rbdock ($Id: //depot/dev/client3/rdock/2013.1/src/exe/rbdock.cxx#4 $)

>  <Rbt.Library>
libRbt.so (2013.1, Build901 2013/11/27)

>  <Rbt.Parameter_File>
/export/apps/rDock/src/rDock_2013.1_src/data/scripts/dock_solv.prm

>  <Rbt.Receptor>
prm/blind_docking_60.prm

>  <SCORE>
-6.40369

>  <SCORE.INTER>
-6.40369

>  <SCORE.INTER.CONST>
1

>  <SCORE.INTER.POLAR>
0

>  <SCORE.INTER.ROT>
0

>  <SCORE.INTER.SOLV>
3.77719

>  <SCORE.INTER.VDW>
-9.12819

>  <SCORE.INTER.norm>
-0.582154

>  <SCORE.INTRA>
0

>  <SCORE.INTRA.DIHEDRAL>
0

>  <SCORE.INTRA.DIHEDRAL.0>
0

>  <SCORE.INTRA.POLAR>
0

>  <SCORE.INTRA.POLAR.0>
0

>  <SCORE.INTRA.REPUL>
0

>  <SCORE.INTRA.REPUL.0>
0

>  <SCORE.INTRA.SOLV>
0

>  <SCORE.INTRA.SOLV.lig_0>
-48.3454

>  <SCORE.INTRA.VDW>
0

>  <SCORE.INTRA.VDW.0>
0

>  <SCORE.INTRA.norm>
0

>  <SCORE.RESTR>
0

>  <SCORE.RESTR.CAVITY>
0

>  <SCORE.RESTR.norm>
0

>  <SCORE.SYSTEM>
0

>  <SCORE.SYSTEM.CONST>
0

>  <SCORE.SYSTEM.DIHEDRAL>
0

>  <SCORE.SYSTEM.SOLV>
0

>  <SCORE.SYSTEM.norm>
0

>  <SCORE.heavy>
11

>  <SCORE.norm>
-0.582154

>  <RMSD>
12.267

$$$$
ligand
 OpenBabel02271912153D
libRbt.so/2013.1/901 2013/11/27
 11 12  0  0  0  0  0  0  0  0999 V2000
  -18.6800  -23.6800   10.2449 N   0  0  0  0  0  0  0  0  0  0  0  0
  -19.4744  -22.9634   11.0562 C   0  0  0  0  0  0  0  0  0  0  0  0
  -19.6979  -23.3809   12.2991 N   0  0  0  0  0  0  0  0  0  0  0  0
  -20.0539  -21.8340   10.6208 N   0  0  0  0  0  0  0  0  0  0  0  0
  -19.8537  -21.4009    9.3673 C   0  0  0  0  0  0  0  0  0  0  0  0
  -19.0364  -22.1234    8.5072 C   0  0  0  0  0  0  0  0  0  0  0  0
  -18.4450  -23.2893    8.9823 C   0  0  0  0  0  0  0  0  0  0  0  0
  -17.6478  -24.0064    8.1960 N   0  0  0  0  0  0  0  0  0  0  0  0
  -19.0234  -21.4879    7.3394 N   0  0  0  0  0  0  0  0  0  0  0  0
  -19.7978  -20.4111    7.4530 C   0  0  0  0  0  0  0  0  0  0  0  0
  -20.3042  -20.3534    8.6830 N   0  0  0  0  0  0  0  0  0  0  0  0
  1  7  2  0  0  0  0
  1  2  1  0  0  0  0
  2  3  1  0  0  0  0
  2  4  2  0  0  0  0
  4  5  1  0  0  0  0
  5  6  2  0  0  0  0
  5 11  1  0  0  0  0
  6  7  1  0  0  0  0
  6  9  1  0  0  0  0
  7  8  1  0  0  0  0
  9 10  1  0  0  0  0
 10 11  2  0  0  0  0
M  END
>  <CHROM.1>
-19.27076406,-22.28228251,9.35938493,-1.47500266,0.90882317,-1.04391348

>  <Name>
ligand

>  <RI>
0

>  <Rbt.Current_Directory>
/home/itssahil/PROJECTS/Mol_Feturizer/Test_systems_manuscript/rnas/2b57

>  <Rbt.Executable>
rbdock ($Id: //depot/dev/client3/rdock/2013.1/src/exe/rbdock.cxx#4 $)

>  <Rbt.Library>
libRbt.so (2013.1, Build901 2013/11/27)

>  <Rbt.Parameter_File>
/export/apps/rDock/src/rDock_2013.1_src/data/scripts/dock_solv.prm

>  <Rbt.Receptor>
prm/blind_docking_100.prm

>  <SCORE>
-6.39094

>  <SCORE.INTER>
-6.39094

>  <SCORE.INTER.CONST>
1

>  <SCORE.INTER.POLAR>
0

>  <SCORE.INTER.ROT>
0

>  <SCORE.INTER.SOLV>
3.60807

>  <SCORE.INTER.VDW>
-9.06332

>  <SCORE.INTER.norm>
-0.580994

>  <SCORE.INTRA>
0

>  <SCORE.INTRA.DIHEDRAL>
0

>  <SCORE.INTRA.DIHEDRAL.0>
0

>  <SCORE.INTRA.POLAR>
0

>  <SCORE.INTRA.POLAR.0>
0

>  <SCORE.INTRA.REPUL>
0

>  <SCORE.INTRA.REPUL.0>
0

>  <SCORE.INTRA.SOLV>
0

>  <SCORE.INTRA.SOLV.lig_0>
-48.3454

>  <SCORE.INTRA.VDW>
0

>  <SCORE.INTRA.VDW.0>
0

>  <SCORE.INTRA.norm>
0

>  <SCORE.RESTR>
0

>  <SCORE.RESTR.CAVITY>
0

>  <SCORE.RESTR.norm>
0

>  <SCORE.SYSTEM>
0

>  <SCORE.SYSTEM.CONST>
0

>  <SCORE.SYSTEM.DIHEDRAL>
0

>  <SCORE.SYSTEM.SOLV>
0

>  <SCORE.SYSTEM.norm>
0

>  <SCORE.heavy>
11

>  <SCORE.norm>
-0.580994

>  <RMSD>
12.289

$$$$
ligand
 OpenBabel02271912153D
libRbt.so/2013.1/901 2013/11/27
 11 12  0  0  0  0  0  0  0  0999 V2000
  -18.6877  -23.6934   10.2439 N   0  0  0  0  0  0  0  0  0  0  0  0
  -19.4902  -22.9805   11.0504 C   0  0  0  0  0  0  0  0  0  0  0  0
  -19.7278  -23.4048   12.2884 N   0  0  0  0  0  0  0  0  0  0  0  0
  -20.0638  -21.8480   10.6151 N   0  0  0  0  0  0  0  0  0  0  0  0
  -19.8493  -21.4082    9.3663 C   0  0  0  0  0  0  0  0  0  0  0  0
  -19.0234  -22.1267    8.5112 C   0  0  0  0  0  0  0  0  0  0  0  0
  -18.4384  -23.2959    8.9862 C   0  0  0  0  0  0  0  0  0  0  0  0
  -17.6334  -24.0094    8.2046 N   0  0  0  0  0  0  0  0  0  0  0  0
  -18.9970  -21.4846    7.3471 N   0  0  0  0  0  0  0  0  0  0  0  0
  -19.7715  -20.4077    7.4583 C   0  0  0  0  0  0  0  0  0  0  0  0
  -20.2913  -20.3563    8.6829 N   0  0  0  0  0  0  0  0  0  0  0  0
  1  7  2  0  0  0  0
  1  2  1  0  0  0  0
  2  3  1  0  0  0  0
  2  4  2  0  0  0  0
  4  5  1  0  0  0  0
  5  6  2  0  0  0  0
  5 11  1  0  0  0  0
  6  7  1  0  0  0  0
  6  9  1  0  0  0  0
  7  8  1  0  0  0  0
  9 10  1  0  0  0  0
 10 11  2  0  0  0  0
M  END
>  <CHROM.1>
-19.26726837,-22.29010019,9.35979565,-1.49117091,0.90412750,-1.02556449

>  <Name>
ligand

>  <RI>
0

>  <Rbt.Current_Directory>
/home/itssahil/PROJECTS/Mol_Feturizer/Test_systems_manuscript/rnas/2b57

>  <Rbt.Executable>
rbdock ($Id: //depot/dev/client3/rdock/2013.1/src/exe/rbdock.cxx#4 $)

>  <Rbt.Library>
libRbt.so (2013.1, Build901 2013/11/27)

>  <Rbt.Parameter_File>
/export/apps/rDock/src/rDock_2013.1_src/data/scripts/dock_solv.prm

>  <Rbt.Receptor>
prm/blind_docking_100.prm

>  <SCORE>
-6.39326

>  <SCORE.INTER>
-6.39326

>  <SCORE.INTER.CONST>
1

>  <SCORE.INTER.POLAR>
0

>  <SCORE.INTER.ROT>
0

>  <SCORE.INTER.SOLV>
3.48051

>  <SCORE.INTER.VDW>
-9.02234

>  <SCORE.INTER.norm>
-0.581205

>  <SCORE.INTRA>
0

>  <SCORE.INTRA.DIHEDRAL>
0

>  <SCORE.INTRA.DIHEDRAL.0>
0

>  <SCORE.INTRA.POLAR>
0

>  <SCORE.INTRA.POLAR.0>
0

>  <SCORE.INTRA.REPUL>
0

>  <SCORE.INTRA.REPUL.0>
0

>  <SCORE.INTRA.SOLV>
0

>  <SCORE.INTRA.SOLV.lig_0>
-48.3454

>  <SCORE.INTRA.VDW>
0

>  <SCORE.INTRA.VDW.0>
0

>  <SCORE.INTRA.norm>
0

>  <SCORE.RESTR>
0

>  <SCORE.RESTR.CAVITY>
0

>  <SCORE.RESTR.norm>
0

>  <SCORE.SYSTEM>
0

>  <SCORE.SYSTEM.CONST>
0

>  <SCORE.SYSTEM.DIHEDRAL>
0

>  <SCORE.SYSTEM.SOLV>
0

>  <SCORE.SYSTEM.norm>
0

>  <SCORE.heavy>
11

>  <SCORE.norm>
-0.581205

>  <RMSD>
12.292

$$$$
ligand
 OpenBabel02271912153D
libRbt.so/2013.1/901 2013/11/27
 11 12  0  0  0  0  0  0  0  0999 V2000
  -21.3770  -22.6349   10.6995 N   0  0  0  0  0  0  0  0  0  0  0  0
  -20.0572  -22.4011   10.7784 C   0  0  0  0  0  0  0  0  0  0  0  0
  -19.3352  -23.0020   11.7200 N   0  0  0  0  0  0  0  0  0  0  0  0
  -19.4610  -21.5578    9.9214 N   0  0  0  0  0  0  0  0  0  0  0  0
  -20.1714  -20.9304    8.9724 C   0  0  0  0  0  0  0  0  0  0  0  0
  -21.5384  -21.1543    8.8689 C   0  0  0  0  0  0  0  0  0  0  0  0
  -22.1331  -22.0345    9.7668 C   0  0  0  0  0  0  0  0  0  0  0  0
  -23.4371  -22.2853    9.6975 N   0  0  0  0  0  0  0  0  0  0  0  0
  -21.9919  -20.4056    7.8679 N   0  0  0  0  0  0  0  0  0  0  0  0
  -20.9594  -19.7366    7.3596 C   0  0  0  0  0  0  0  0  0  0  0  0
  -19.8512  -20.0520    8.0266 N   0  0  0  0  0  0  0  0  0  0  0  0
  1  7  2  0  0  0  0
  1  2  1  0  0  0  0
  2  3  1  0  0  0  0
  2  4  2  0  0  0  0
  4  5  1  0  0  0  0
  5  6  2  0  0  0  0
  5 11  1  0  0  0  0
  6  7  1  0  0  0  0
  6  9  1  0  0  0  0
  7  8  1  0  0  0  0
  9 10  1  0  0  0  0
 10 11  2  0  0  0  0
M  END
>  <CHROM.1>
-20.93516198,-21.48752344,9.44448529,1.34321652,0.17614400,2.26691390

>  <Name>
ligand

>  <RI>
0

>  <Rbt.Current_Directory>
/home/itssahil/PROJECTS/Mol_Feturizer/Test_systems_manuscript/rnas/2b57

>  <Rbt.Executable>
rbdock ($Id: //depot/dev/client3/rdock/2013.1/src/exe/rbdock.cxx#4 $)

>  <Rbt.Library>
libRbt.so (2013.1, Build901 2013/11/27)

>  <Rbt.Parameter_File>
/export/apps/rDock/src/rDock_2013.1_src/data/scripts/dock_solv.prm

>  <Rbt.Receptor>
prm/blind_docking_60.prm

>  <SCORE>
-6.67003

>  <SCORE.INTER>
-6.67003

>  <SCORE.INTER.CONST>
1

>  <SCORE.INTER.POLAR>
0

>  <SCORE.INTER.ROT>
0

>  <SCORE.INTER.SOLV>
7.78455

>  <SCORE.INTER.VDW>
-10.6415

>  <SCORE.INTER.norm>
-0.606366

>  <SCORE.INTRA>
0

>  <SCORE.INTRA.DIHEDRAL>
0

>  <SCORE.INTRA.DIHEDRAL.0>
0

>  <SCORE.INTRA.POLAR>
0

>  <SCORE.INTRA.POLAR.0>
0

>  <SCORE.INTRA.REPUL>
0

>  <SCORE.INTRA.REPUL.0>
0

>  <SCORE.INTRA.SOLV>
0

>  <SCORE.INTRA.SOLV.lig_0>
-48.3454

>  <SCORE.INTRA.VDW>
0

>  <SCORE.INTRA.VDW.0>
0

>  <SCORE.INTRA.norm>
0

>  <SCORE.RESTR>
0

>  <SCORE.RESTR.CAVITY>
0

>  <SCORE.RESTR.norm>
0

>  <SCORE.SYSTEM>
0

>  <SCORE.SYSTEM.CONST>
0

>  <SCORE.SYSTEM.DIHEDRAL>
0

>  <SCORE.SYSTEM.SOLV>
0

>  <SCORE.SYSTEM.norm>
0

>  <SCORE.heavy>
11

>  <SCORE.norm>
-0.606366

>  <RMSD>
12.791

$$$$
ligand
 OpenBabel02271912153D
libRbt.so/2013.1/901 2013/11/27
 11 12  0  0  0  0  0  0  0  0999 V2000
  -21.3925  -22.6166   10.6610 N   0  0  0  0  0  0  0  0  0  0  0  0
  -20.0761  -22.3640   10.7389 C   0  0  0  0  0  0  0  0  0  0  0  0
  -19.3447  -22.9548   11.6797 N   0  0  0  0  0  0  0  0  0  0  0  0
  -19.4927  -21.5118    9.8818 N   0  0  0  0  0  0  0  0  0  0  0  0
  -20.2128  -20.8943    8.9337 C   0  0  0  0  0  0  0  0  0  0  0  0
  -21.5766  -21.1377    8.8312 C   0  0  0  0  0  0  0  0  0  0  0  0
  -22.1579  -22.0268    9.7292 C   0  0  0  0  0  0  0  0  0  0  0  0
  -23.4582  -22.2962    9.6608 N   0  0  0  0  0  0  0  0  0  0  0  0
  -22.0415  -20.3953    7.8309 N   0  0  0  0  0  0  0  0  0  0  0  0
  -21.0192  -19.7113    7.3220 C   0  0  0  0  0  0  0  0  0  0  0  0
  -19.9061  -20.0110    7.9880 N   0  0  0  0  0  0  0  0  0  0  0  0
  1  7  2  0  0  0  0
  1  2  1  0  0  0  0
  2  3  1  0  0  0  0
  2  4  2  0  0  0  0
  4  5  1  0  0  0  0
  5  6  2  0  0  0  0
  5 11  1  0  0  0  0
  6  7  1  0  0  0  0
  6  9  1  0  0  0  0
  7  8  1  0  0  0  0
  9 10  1  0  0  0  0
 10 11  2  0  0  0  0
M  END
>  <CHROM.1>
-20.96814035,-21.46253018,9.40613084,1.33321763,0.18661911,2.26912568

>  <Name>
ligand

>  <RI>
0

>  <Rbt.Current_Directory>
/home/itssahil/PROJECTS/Mol_Feturizer/Test_systems_manuscript/rnas/2b57

>  <Rbt.Executable>
rbdock ($Id: //depot/dev/client3/rdock/2013.1/src/exe/rbdock.cxx#4 $)

>  <Rbt.Library>
libRbt.so (2013.1, Build901 2013/11/27)

>  <Rbt.Parameter_File>
/export/apps/rDock/src/rDock_2013.1_src/data/scripts/dock_solv.prm

>  <Rbt.Receptor>
prm/blind_docking_60.prm

>  <SCORE>
-6.67949

>  <SCORE.INTER>
-6.67949

>  <SCORE.INTER.CONST>
1

>  <SCORE.INTER.POLAR>
0

>  <SCORE.INTER.ROT>
0

>  <SCORE.INTER.SOLV>
7.86521

>  <SCORE.INTER.VDW>
-10.6747

>  <SCORE.INTER.norm>
-0.607226

>  <SCORE.INTRA>
0

>  <SCORE.INTRA.DIHEDRAL>
0

>  <SCORE.INTRA.DIHEDRAL.0>
0

>  <SCORE.INTRA.POLAR>
0

>  <SCORE.INTRA.POLAR.0>
0

>  <SCORE.INTRA.REPUL>
0

>  <SCORE.INTRA.REPUL.0>
0

>  <SCORE.INTRA.SOLV>
0

>  <SCORE.INTRA.SOLV.lig_0>
-48.3454

>  <SCORE.INTRA.VDW>
0

>  <SCORE.INTRA.VDW.0>
0

>  <SCORE.INTRA.norm>
0

>  <SCORE.RESTR>
0

>  <SCORE.RESTR.CAVITY>
0

>  <SCORE.RESTR.norm>
0

>  <SCORE.SYSTEM>
0

>  <SCORE.SYSTEM.CONST>
0

>  <SCORE.SYSTEM.DIHEDRAL>
0

>  <SCORE.SYSTEM.SOLV>
0

>  <SCORE.SYSTEM.norm>
0

>  <SCORE.heavy>
11

>  <SCORE.norm>
-0.607226

>  <RMSD>
12.797

$$$$
ligand
 OpenBabel02271912153D
libRbt.so/2013.1/901 2013/11/27
 11 12  0  0  0  0  0  0  0  0999 V2000
  -21.3148  -22.7184   10.6351 N   0  0  0  0  0  0  0  0  0  0  0  0
  -19.9960  -22.4711   10.6813 C   0  0  0  0  0  0  0  0  0  0  0  0
  -19.2388  -23.0916   11.5817 N   0  0  0  0  0  0  0  0  0  0  0  0
  -19.4357  -21.5948    9.8332 N   0  0  0  0  0  0  0  0  0  0  0  0
  -20.1818  -20.9474    8.9259 C   0  0  0  0  0  0  0  0  0  0  0  0
  -21.5487  -21.1847    8.8568 C   0  0  0  0  0  0  0  0  0  0  0  0
  -22.1058  -22.0991    9.7446 C   0  0  0  0  0  0  0  0  0  0  0  0
  -23.4084  -22.3636    9.7069 N   0  0  0  0  0  0  0  0  0  0  0  0
  -22.0409  -20.4114    7.8935 N   0  0  0  0  0  0  0  0  0  0  0  0
  -21.0321  -19.7146    7.3752 C   0  0  0  0  0  0  0  0  0  0  0  0
  -19.9005  -20.0367    7.9984 N   0  0  0  0  0  0  0  0  0  0  0  0
  1  7  2  0  0  0  0
  1  2  1  0  0  0  0
  2  3  1  0  0  0  0
  2  4  2  0  0  0  0
  4  5  1  0  0  0  0
  5  6  2  0  0  0  0
  5 11  1  0  0  0  0
  6  7  1  0  0  0  0
  6  9  1  0  0  0  0
  7  8  1  0  0  0  0
  9 10  1  0  0  0  0
 10 11  2  0  0  0  0
M  END
>  <CHROM.1>
-20.92446150,-21.52796004,9.40333774,1.31213856,0.16513979,2.30290271

>  <Name>
ligand

>  <RI>
0

>  <Rbt.Current_Directory>
/home/itssahil/PROJECTS/Mol_Feturizer/Test_systems_manuscript/rnas/2b57

>  <Rbt.Executable>
rbdock ($Id: //depot/dev/client3/rdock/2013.1/src/exe/rbdock.cxx#4 $)

>  <Rbt.Library>
libRbt.so (2013.1, Build901 2013/11/27)

>  <Rbt.Parameter_File>
/export/apps/rDock/src/rDock_2013.1_src/data/scripts/dock_solv.prm

>  <Rbt.Receptor>
prm/blind_docking_60.prm

>  <SCORE>
-6.67121

>  <SCORE.INTER>
-6.67121

>  <SCORE.INTER.CONST>
1

>  <SCORE.INTER.POLAR>
0

>  <SCORE.INTER.ROT>
0

>  <SCORE.INTER.SOLV>
7.08977

>  <SCORE.INTER.VDW>
-10.4107

>  <SCORE.INTER.norm>
-0.606474

>  <SCORE.INTRA>
0

>  <SCORE.INTRA.DIHEDRAL>
0

>  <SCORE.INTRA.DIHEDRAL.0>
0

>  <SCORE.INTRA.POLAR>
0

>  <SCORE.INTRA.POLAR.0>
0

>  <SCORE.INTRA.REPUL>
0

>  <SCORE.INTRA.REPUL.0>
0

>  <SCORE.INTRA.SOLV>
0

>  <SCORE.INTRA.SOLV.lig_0>
-48.3454

>  <SCORE.INTRA.VDW>
0

>  <SCORE.INTRA.VDW.0>
0

>  <SCORE.INTRA.norm>
0

>  <SCORE.RESTR>
0

>  <SCORE.RESTR.CAVITY>
0

>  <SCORE.RESTR.norm>
0

>  <SCORE.SYSTEM>
0

>  <SCORE.SYSTEM.CONST>
0

>  <SCORE.SYSTEM.DIHEDRAL>
0

>  <SCORE.SYSTEM.SOLV>
0

>  <SCORE.SYSTEM.norm>
0

>  <SCORE.heavy>
11

>  <SCORE.norm>
-0.606474

>  <RMSD>
12.812

$$$$
ligand
 OpenBabel02271912153D
libRbt.so/2013.1/901 2013/11/27
 11 12  0  0  0  0  0  0  0  0999 V2000
  -21.2249  -22.7912   10.6956 N   0  0  0  0  0  0  0  0  0  0  0  0
  -19.9019  -22.5624   10.6971 C   0  0  0  0  0  0  0  0  0  0  0  0
  -19.1216  -23.2043   11.5621 N   0  0  0  0  0  0  0  0  0  0  0  0
  -19.3602  -21.6833    9.8398 N   0  0  0  0  0  0  0  0  0  0  0  0
  -20.1293  -21.0146    8.9679 C   0  0  0  0  0  0  0  0  0  0  0  0
  -21.5010  -21.2324    8.9453 C   0  0  0  0  0  0  0  0  0  0  0  0
  -22.0386  -22.1502    9.8418 C   0  0  0  0  0  0  0  0  0  0  0  0
  -23.3453  -22.3964    9.8481 N   0  0  0  0  0  0  0  0  0  0  0  0
  -22.0166  -20.4407    8.0098 N   0  0  0  0  0  0  0  0  0  0  0  0
  -21.0174  -19.7512    7.4637 C   0  0  0  0  0  0  0  0  0  0  0  0
  -19.8688  -20.0964    8.0418 N   0  0  0  0  0  0  0  0  0  0  0  0
  1  7  2  0  0  0  0
  1  2  1  0  0  0  0
  2  3  1  0  0  0  0
  2  4  2  0  0  0  0
  4  5  1  0  0  0  0
  5  6  2  0  0  0  0
  5 11  1  0  0  0  0
  6  7  1  0  0  0  0
  6  9  1  0  0  0  0
  7  8  1  0  0  0  0
  9 10  1  0  0  0  0
 10 11  2  0  0  0  0
M  END
>  <CHROM.1>
-20.86238157,-21.59094967,9.46487696,1.29462207,0.13061283,2.31767200

>  <Name>
ligand

>  <RI>
0

>  <Rbt.Current_Directory>
/home/itssahil/PROJECTS/Mol_Feturizer/Test_systems_manuscript/rnas/2b57

>  <Rbt.Executable>
rbdock ($Id: //depot/dev/client3/rdock/2013.1/src/exe/rbdock.cxx#4 $)

>  <Rbt.Library>
libRbt.so (2013.1, Build901 2013/11/27)

>  <Rbt.Parameter_File>
/export/apps/rDock/src/rDock_2013.1_src/data/scripts/dock_solv.prm

>  <Rbt.Receptor>
prm/blind_docking_80.prm

>  <SCORE>
-6.66504

>  <SCORE.INTER>
-6.66504

>  <SCORE.INTER.CONST>
1

>  <SCORE.INTER.POLAR>
0

>  <SCORE.INTER.ROT>
0

>  <SCORE.INTER.SOLV>
6.71183

>  <SCORE.INTER.VDW>
-10.2806

>  <SCORE.INTER.norm>
-0.605912

>  <SCORE.INTRA>
0

>  <SCORE.INTRA.DIHEDRAL>
0

>  <SCORE.INTRA.DIHEDRAL.0>
0

>  <SCORE.INTRA.POLAR>
0

>  <SCORE.INTRA.POLAR.0>
0

>  <SCORE.INTRA.REPUL>
0

>  <SCORE.INTRA.REPUL.0>
0

>  <SCORE.INTRA.SOLV>
0

>  <SCORE.INTRA.SOLV.lig_0>
-48.3454

>  <SCORE.INTRA.VDW>
0

>  <SCORE.INTRA.VDW.0>
0

>  <SCORE.INTRA.norm>
0

>  <SCORE.RESTR>
0

>  <SCORE.RESTR.CAVITY>
0

>  <SCORE.RESTR.norm>
0

>  <SCORE.SYSTEM>
0

>  <SCORE.SYSTEM.CONST>
0

>  <SCORE.SYSTEM.DIHEDRAL>
0

>  <SCORE.SYSTEM.SOLV>
0

>  <SCORE.SYSTEM.norm>
0

>  <SCORE.heavy>
11

>  <SCORE.norm>
-0.605912

>  <RMSD>
12.818

$$$$
ligand
 OpenBabel02271912153D
libRbt.so/2013.1/901 2013/11/27
 11 12  0  0  0  0  0  0  0  0999 V2000
  -21.0611  -22.9095   10.3214 N   0  0  0  0  0  0  0  0  0  0  0  0
  -22.3835  -22.7020   10.2177 C   0  0  0  0  0  0  0  0  0  0  0  0
  -23.2269  -23.4517   10.9217 N   0  0  0  0  0  0  0  0  0  0  0  0
  -22.8632  -21.7508    9.4015 N   0  0  0  0  0  0  0  0  0  0  0  0
  -22.0322  -20.9919    8.6718 C   0  0  0  0  0  0  0  0  0  0  0  0
  -20.6595  -21.1859    8.7603 C   0  0  0  0  0  0  0  0  0  0  0  0
  -20.1864  -22.1760    9.6150 C   0  0  0  0  0  0  0  0  0  0  0  0
  -18.8797  -22.3892    9.7376 N   0  0  0  0  0  0  0  0  0  0  0  0
  -20.0791  -20.3222    7.9325 N   0  0  0  0  0  0  0  0  0  0  0  0
  -21.0400  -19.6126    7.3450 C   0  0  0  0  0  0  0  0  0  0  0  0
  -22.2282  -20.0151    7.7909 N   0  0  0  0  0  0  0  0  0  0  0  0
  1  7  2  0  0  0  0
  1  2  1  0  0  0  0
  2  3  1  0  0  0  0
  2  4  2  0  0  0  0
  4  5  1  0  0  0  0
  5  6  2  0  0  0  0
  5 11  1  0  0  0  0
  6  7  1  0  0  0  0
  6  9  1  0  0  0  0
  7  8  1  0  0  0  0
  9 10  1  0  0  0  0
 10 11  2  0  0  0  0
M  END
>  <CHROM.1>
-21.33577360,-21.60939220,9.17215831,-1.89915087,0.04291975,-0.73236552

>  <Name>
ligand

>  <RI>
0

>  <Rbt.Current_Directory>
/home/itssahil/PROJECTS/Mol_Feturizer/Test_systems_manuscript/rnas/2b57

>  <Rbt.Executable>
rbdock ($Id: //depot/dev/client3/rdock/2013.1/src/exe/rbdock.cxx#4 $)

>  <Rbt.Library>
libRbt.so (2013.1, Build901 2013/11/27)

>  <Rbt.Parameter_File>
/export/apps/rDock/src/rDock_2013.1_src/data/scripts/dock_solv.prm

>  <Rbt.Receptor>
prm/blind_docking_100.prm

>  <SCORE>
-5.69182

>  <SCORE.INTER>
-5.69182

>  <SCORE.INTER.CONST>
1

>  <SCORE.INTER.POLAR>
0

>  <SCORE.INTER.ROT>
0

>  <SCORE.INTER.SOLV>
5.83723

>  <SCORE.INTER.VDW>
-9.34029

>  <SCORE.INTER.norm>
-0.517438

>  <SCORE.INTRA>
0

>  <SCORE.INTRA.DIHEDRAL>
0

>  <SCORE.INTRA.DIHEDRAL.0>
0

>  <SCORE.INTRA.POLAR>
0

>  <SCORE.INTRA.POLAR.0>
0

>  <SCORE.INTRA.REPUL>
0

>  <SCORE.INTRA.REPUL.0>
0

>  <SCORE.INTRA.SOLV>
0

>  <SCORE.INTRA.SOLV.lig_0>
-48.3454

>  <SCORE.INTRA.VDW>
0

>  <SCORE.INTRA.VDW.0>
0

>  <SCORE.INTRA.norm>
0

>  <SCORE.RESTR>
0

>  <SCORE.RESTR.CAVITY>
0

>  <SCORE.RESTR.norm>
0

>  <SCORE.SYSTEM>
0

>  <SCORE.SYSTEM.CONST>
0

>  <SCORE.SYSTEM.DIHEDRAL>
0

>  <SCORE.SYSTEM.SOLV>
0

>  <SCORE.SYSTEM.norm>
0

>  <SCORE.heavy>
11

>  <SCORE.norm>
-0.517438

>  <RMSD>
13.206

$$$$
ligand
 OpenBabel02271912153D
libRbt.so/2013.1/901 2013/11/27
 11 12  0  0  0  0  0  0  0  0999 V2000
  -26.5281  -13.4531    8.6447 N   0  0  0  0  0  0  0  0  0  0  0  0
  -26.6238  -12.4373    9.5174 C   0  0  0  0  0  0  0  0  0  0  0  0
  -26.9350  -11.2196    9.0820 N   0  0  0  0  0  0  0  0  0  0  0  0
  -26.3980  -12.6373   10.8251 N   0  0  0  0  0  0  0  0  0  0  0  0
  -26.0697  -13.8537   11.2850 C   0  0  0  0  0  0  0  0  0  0  0  0
  -25.9638  -14.9221   10.4034 C   0  0  0  0  0  0  0  0  0  0  0  0
  -26.2050  -14.6903    9.0533 C   0  0  0  0  0  0  0  0  0  0  0  0
  -26.1241  -15.6864    8.1761 N   0  0  0  0  0  0  0  0  0  0  0  0
  -25.6164  -15.9924   11.1117 N   0  0  0  0  0  0  0  0  0  0  0  0
  -25.5063  -15.6200   12.3850 C   0  0  0  0  0  0  0  0  0  0  0  0
  -25.7811  -14.3221   12.4957 N   0  0  0  0  0  0  0  0  0  0  0  0
  1  7  2  0  0  0  0
  1  2  1  0  0  0  0
  2  3  1  0  0  0  0
  2  4  2  0  0  0  0
  4  5  1  0  0  0  0
  5  6  2  0  0  0  0
  5 11  1  0  0  0  0
  6  7  1  0  0  0  0
  6  9  1  0  0  0  0
  7  8  1  0  0  0  0
  9 10  1  0  0  0  0
 10 11  2  0  0  0  0
M  END
>  <CHROM.1>
-26.16513586,-14.06000574,10.25299952,-3.02993573,-1.31627744,0.97313516

>  <Name>
ligand

>  <RI>
0

>  <Rbt.Current_Directory>
/home/itssahil/PROJECTS/Mol_Feturizer/Test_systems_manuscript/rnas/2b57

>  <Rbt.Executable>
rbdock ($Id: //depot/dev/client3/rdock/2013.1/src/exe/rbdock.cxx#4 $)

>  <Rbt.Library>
libRbt.so (2013.1, Build901 2013/11/27)

>  <Rbt.Parameter_File>
/export/apps/rDock/src/rDock_2013.1_src/data/scripts/dock_solv.prm

>  <Rbt.Receptor>
prm/blind_docking_40.prm

>  <SCORE>
-6.41937

>  <SCORE.INTER>
-6.41937

>  <SCORE.INTER.CONST>
1

>  <SCORE.INTER.POLAR>
0

>  <SCORE.INTER.ROT>
0

>  <SCORE.INTER.SOLV>
2.8594

>  <SCORE.INTER.VDW>
-8.83272

>  <SCORE.INTER.norm>
-0.583579

>  <SCORE.INTRA>
0

>  <SCORE.INTRA.DIHEDRAL>
0

>  <SCORE.INTRA.DIHEDRAL.0>
0

>  <SCORE.INTRA.POLAR>
0

>  <SCORE.INTRA.POLAR.0>
0

>  <SCORE.INTRA.REPUL>
0

>  <SCORE.INTRA.REPUL.0>
0

>  <SCORE.INTRA.SOLV>
0

>  <SCORE.INTRA.SOLV.lig_0>
-48.3454

>  <SCORE.INTRA.VDW>
0

>  <SCORE.INTRA.VDW.0>
0

>  <SCORE.INTRA.norm>
0

>  <SCORE.RESTR>
0

>  <SCORE.RESTR.CAVITY>
0

>  <SCORE.RESTR.norm>
0

>  <SCORE.SYSTEM>
0

>  <SCORE.SYSTEM.CONST>
0

>  <SCORE.SYSTEM.DIHEDRAL>
0

>  <SCORE.SYSTEM.SOLV>
0

>  <SCORE.SYSTEM.norm>
0

>  <SCORE.heavy>
11

>  <SCORE.norm>
-0.583579

>  <RMSD>
15.323

$$$$
ligand
 OpenBabel02271912153D
libRbt.so/2013.1/901 2013/11/27
 11 12  0  0  0  0  0  0  0  0999 V2000
  -26.6080  -13.5333    8.6582 N   0  0  0  0  0  0  0  0  0  0  0  0
  -26.6545  -12.4881    9.4996 C   0  0  0  0  0  0  0  0  0  0  0  0
  -26.9493  -11.2777    9.0337 N   0  0  0  0  0  0  0  0  0  0  0  0
  -26.3958  -12.6518   10.8063 N   0  0  0  0  0  0  0  0  0  0  0  0
  -26.0832  -13.8606   11.2962 C   0  0  0  0  0  0  0  0  0  0  0  0
  -26.0280  -14.9588   10.4473 C   0  0  0  0  0  0  0  0  0  0  0  0
  -26.3026  -14.7644    9.0977 C   0  0  0  0  0  0  0  0  0  0  0  0
  -26.2705  -15.7897    8.2515 N   0  0  0  0  0  0  0  0  0  0  0  0
  -25.6856  -16.0141   11.1801 N   0  0  0  0  0  0  0  0  0  0  0  0
  -25.5300  -15.6041   12.4370 C   0  0  0  0  0  0  0  0  0  0  0  0
  -25.7707  -14.2969   12.5130 N   0  0  0  0  0  0  0  0  0  0  0  0
  1  7  2  0  0  0  0
  1  2  1  0  0  0  0
  2  3  1  0  0  0  0
  2  4  2  0  0  0  0
  4  5  1  0  0  0  0
  5  6  2  0  0  0  0
  5 11  1  0  0  0  0
  6  7  1  0  0  0  0
  6  9  1  0  0  0  0
  7  8  1  0  0  0  0
  9 10  1  0  0  0  0
 10 11  2  0  0  0  0
M  END
>  <CHROM.1>
-26.21317630,-14.09726718,10.27459607,3.10482723,-1.31683998,0.79716878

>  <Name>
ligand

>  <RI>
0

>  <Rbt.Current_Directory>
/home/itssahil/PROJECTS/Mol_Feturizer/Test_systems_manuscript/rnas/2b57

>  <Rbt.Executable>
rbdock ($Id: //depot/dev/client3/rdock/2013.1/src/exe/rbdock.cxx#4 $)

>  <Rbt.Library>
libRbt.so (2013.1, Build901 2013/11/27)

>  <Rbt.Parameter_File>
/export/apps/rDock/src/rDock_2013.1_src/data/scripts/dock_solv.prm

>  <Rbt.Receptor>
prm/blind_docking_60.prm

>  <SCORE>
-6.43369

>  <SCORE.INTER>
-6.43369

>  <SCORE.INTER.CONST>
1

>  <SCORE.INTER.POLAR>
0

>  <SCORE.INTER.ROT>
0

>  <SCORE.INTER.SOLV>
2.32035

>  <SCORE.INTER.VDW>
-8.66257

>  <SCORE.INTER.norm>
-0.584881

>  <SCORE.INTRA>
0

>  <SCORE.INTRA.DIHEDRAL>
0

>  <SCORE.INTRA.DIHEDRAL.0>
0

>  <SCORE.INTRA.POLAR>
0

>  <SCORE.INTRA.POLAR.0>
0

>  <SCORE.INTRA.REPUL>
0

>  <SCORE.INTRA.REPUL.0>
0

>  <SCORE.INTRA.SOLV>
0

>  <SCORE.INTRA.SOLV.lig_0>
-48.3454

>  <SCORE.INTRA.VDW>
0

>  <SCORE.INTRA.VDW.0>
0

>  <SCORE.INTRA.norm>
0

>  <SCORE.RESTR>
0

>  <SCORE.RESTR.CAVITY>
0

>  <SCORE.RESTR.norm>
0

>  <SCORE.SYSTEM>
0

>  <SCORE.SYSTEM.CONST>
0

>  <SCORE.SYSTEM.DIHEDRAL>
0

>  <SCORE.SYSTEM.SOLV>
0

>  <SCORE.SYSTEM.norm>
0

>  <SCORE.heavy>
11

>  <SCORE.norm>
-0.584881

>  <RMSD>
15.378

$$$$
ligand
 OpenBabel02271912153D
libRbt.so/2013.1/901 2013/11/27
 11 12  0  0  0  0  0  0  0  0999 V2000
  -26.6033  -13.4742    8.5200 N   0  0  0  0  0  0  0  0  0  0  0  0
  -26.7521  -12.2493    9.0493 C   0  0  0  0  0  0  0  0  0  0  0  0
  -27.0661  -11.2237    8.2628 N   0  0  0  0  0  0  0  0  0  0  0  0
  -26.5767  -12.0481   10.3645 N   0  0  0  0  0  0  0  0  0  0  0  0
  -26.2467  -13.0649   11.1746 C   0  0  0  0  0  0  0  0  0  0  0  0
  -26.0864  -14.3422   10.6528 C   0  0  0  0  0  0  0  0  0  0  0  0
  -26.2760  -14.5261    9.2871 C   0  0  0  0  0  0  0  0  0  0  0  0
  -26.1421  -15.7339    8.7473 N   0  0  0  0  0  0  0  0  0  0  0  0
  -25.7500  -15.1456   11.6575 N   0  0  0  0  0  0  0  0  0  0  0  0
  -25.6986  -14.4112   12.7665 C   0  0  0  0  0  0  0  0  0  0  0  0
  -25.9999  -13.1467   12.4788 N   0  0  0  0  0  0  0  0  0  0  0  0
  1  7  2  0  0  0  0
  1  2  1  0  0  0  0
  2  3  1  0  0  0  0
  2  4  2  0  0  0  0
  4  5  1  0  0  0  0
  5  6  2  0  0  0  0
  5 11  1  0  0  0  0
  6  7  1  0  0  0  0
  6  9  1  0  0  0  0
  7  8  1  0  0  0  0
  9 10  1  0  0  0  0
 10 11  2  0  0  0  0
M  END
>  <CHROM.1>
-26.29617688,-13.56903122,10.24725907,-2.85257462,-1.32138015,0.84484637

>  <Name>
ligand

>  <RI>
0

>  <Rbt.Current_Directory>
/home/itssahil/PROJECTS/Mol_Feturizer/Test_systems_manuscript/rnas/2b57

>  <Rbt.Executable>
rbdock ($Id: //depot/dev/client3/rdock/2013.1/src/exe/rbdock.cxx#4 $)

>  <Rbt.Library>
libRbt.so (2013.1, Build901 2013/11/27)

>  <Rbt.Parameter_File>
/export/apps/rDock/src/rDock_2013.1_src/data/scripts/dock_solv.prm

>  <Rbt.Receptor>
prm/blind_docking_40.prm

>  <SCORE>
-6.1364

>  <SCORE.INTER>
-6.1364

>  <SCORE.INTER.CONST>
1

>  <SCORE.INTER.POLAR>
0

>  <SCORE.INTER.ROT>
0

>  <SCORE.INTER.SOLV>
2.39089

>  <SCORE.INTER.VDW>
-8.4879

>  <SCORE.INTER.norm>
-0.557855

>  <SCORE.INTRA>
0

>  <SCORE.INTRA.DIHEDRAL>
0

>  <SCORE.INTRA.DIHEDRAL.0>
0

>  <SCORE.INTRA.POLAR>
0

>  <SCORE.INTRA.POLAR.0>
0

>  <SCORE.INTRA.REPUL>
0

>  <SCORE.INTRA.REPUL.0>
0

>  <SCORE.INTRA.SOLV>
0

>  <SCORE.INTRA.SOLV.lig_0>
-48.3454

>  <SCORE.INTRA.VDW>
0

>  <SCORE.INTRA.VDW.0>
0

>  <SCORE.INTRA.norm>
0

>  <SCORE.RESTR>
0

>  <SCORE.RESTR.CAVITY>
0

>  <SCORE.RESTR.norm>
0

>  <SCORE.SYSTEM>
0

>  <SCORE.SYSTEM.CONST>
0

>  <SCORE.SYSTEM.DIHEDRAL>
0

>  <SCORE.SYSTEM.SOLV>
0

>  <SCORE.SYSTEM.norm>
0

>  <SCORE.heavy>
11

>  <SCORE.norm>
-0.557855

>  <RMSD>
15.475

$$$$
ligand
 OpenBabel02271912153D
libRbt.so/2013.1/901 2013/11/27
 11 12  0  0  0  0  0  0  0  0999 V2000
  -22.1341  -23.7162   11.1262 N   0  0  0  0  0  0  0  0  0  0  0  0
  -22.0265  -24.4404   12.2516 C   0  0  0  0  0  0  0  0  0  0  0  0
  -22.3514  -23.8961   13.4209 N   0  0  0  0  0  0  0  0  0  0  0  0
  -21.5836  -25.7065   12.2088 N   0  0  0  0  0  0  0  0  0  0  0  0
  -21.2374  -26.2717   11.0427 C   0  0  0  0  0  0  0  0  0  0  0  0
  -21.3391  -25.5445    9.8635 C   0  0  0  0  0  0  0  0  0  0  0  0
  -21.8031  -24.2351    9.9332 C   0  0  0  0  0  0  0  0  0  0  0  0
  -21.9252  -23.5062    8.8278 N   0  0  0  0  0  0  0  0  0  0  0  0
  -20.9235  -26.3283    8.8730 N   0  0  0  0  0  0  0  0  0  0  0  0
  -20.5734  -27.4995    9.3999 C   0  0  0  0  0  0  0  0  0  0  0  0
  -20.7625  -27.4705   10.7175 N   0  0  0  0  0  0  0  0  0  0  0  0
  1  7  2  0  0  0  0
  1  2  1  0  0  0  0
  2  3  1  0  0  0  0
  2  4  2  0  0  0  0
  4  5  1  0  0  0  0
  5  6  2  0  0  0  0
  5 11  1  0  0  0  0
  6  7  1  0  0  0  0
  6  9  1  0  0  0  0
  7  8  1  0  0  0  0
  9 10  1  0  0  0  0
 10 11  2  0  0  0  0
M  END
>  <CHROM.1>
-21.52275320,-25.30995932,10.71058116,2.74001673,-1.21238205,1.91548593

>  <Name>
ligand

>  <RI>
0

>  <Rbt.Current_Directory>
/home/itssahil/PROJECTS/Mol_Feturizer/Test_systems_manuscript/rnas/2b57

>  <Rbt.Executable>
rbdock ($Id: //depot/dev/client3/rdock/2013.1/src/exe/rbdock.cxx#4 $)

>  <Rbt.Library>
libRbt.so (2013.1, Build901 2013/11/27)

>  <Rbt.Parameter_File>
/export/apps/rDock/src/rDock_2013.1_src/data/scripts/dock_solv.prm

>  <Rbt.Receptor>
prm/blind_docking_60.prm

>  <SCORE>
-5.53

>  <SCORE.INTER>
-5.53

>  <SCORE.INTER.CONST>
1

>  <SCORE.INTER.POLAR>
0

>  <SCORE.INTER.ROT>
0

>  <SCORE.INTER.SOLV>
2.52262

>  <SCORE.INTER.VDW>
-8.12754

>  <SCORE.INTER.norm>
-0.502727

>  <SCORE.INTRA>
0

>  <SCORE.INTRA.DIHEDRAL>
0

>  <SCORE.INTRA.DIHEDRAL.0>
0

>  <SCORE.INTRA.POLAR>
0

>  <SCORE.INTRA.POLAR.0>
0

>  <SCORE.INTRA.REPUL>
0

>  <SCORE.INTRA.REPUL.0>
0

>  <SCORE.INTRA.SOLV>
0

>  <SCORE.INTRA.SOLV.lig_0>
-48.3454

>  <SCORE.INTRA.VDW>
0

>  <SCORE.INTRA.VDW.0>
0

>  <SCORE.INTRA.norm>
0

>  <SCORE.RESTR>
0

>  <SCORE.RESTR.CAVITY>
0

>  <SCORE.RESTR.norm>
0

>  <SCORE.SYSTEM>
0

>  <SCORE.SYSTEM.CONST>
0

>  <SCORE.SYSTEM.DIHEDRAL>
0

>  <SCORE.SYSTEM.SOLV>
0

>  <SCORE.SYSTEM.norm>
0

>  <SCORE.heavy>
11

>  <SCORE.norm>
-0.502727

>  <RMSD>
16.086

$$$$
ligand
 OpenBabel02271912153D
libRbt.so/2013.1/901 2013/11/27
 11 12  0  0  0  0  0  0  0  0999 V2000
  -22.3610  -23.7094   11.1043 N   0  0  0  0  0  0  0  0  0  0  0  0
  -22.3439  -24.4241   12.2408 C   0  0  0  0  0  0  0  0  0  0  0  0
  -22.7904  -23.8805   13.3696 N   0  0  0  0  0  0  0  0  0  0  0  0
  -21.8702  -25.6797   12.2504 N   0  0  0  0  0  0  0  0  0  0  0  0
  -21.4023  -26.2436   11.1270 C   0  0  0  0  0  0  0  0  0  0  0  0
  -21.4085  -25.5262    9.9375 C   0  0  0  0  0  0  0  0  0  0  0  0
  -21.9067  -24.2276    9.9523 C   0  0  0  0  0  0  0  0  0  0  0  0
  -21.9402  -23.5085    8.8343 N   0  0  0  0  0  0  0  0  0  0  0  0
  -20.8831  -26.3059    8.9973 N   0  0  0  0  0  0  0  0  0  0  0  0
  -20.5579  -27.4654    9.5645 C   0  0  0  0  0  0  0  0  0  0  0  0
  -20.8715  -27.4329   10.8580 N   0  0  0  0  0  0  0  0  0  0  0  0
  1  7  2  0  0  0  0
  1  2  1  0  0  0  0
  2  3  1  0  0  0  0
  2  4  2  0  0  0  0
  4  5  1  0  0  0  0
  5  6  2  0  0  0  0
  5 11  1  0  0  0  0
  6  7  1  0  0  0  0
  6  9  1  0  0  0  0
  7  8  1  0  0  0  0
  9 10  1  0  0  0  0
 10 11  2  0  0  0  0
M  END
>  <CHROM.1>
-21.67678164,-25.29089598,10.76149976,2.94122852,-1.15118187,2.09469574

>  <Name>
ligand

>  <RI>
0

>  <Rbt.Current_Directory>
/home/itssahil/PROJECTS/Mol_Feturizer/Test_systems_manuscript/rnas/2b57

>  <Rbt.Executable>
rbdock ($Id: //depot/dev/client3/rdock/2013.1/src/exe/rbdock.cxx#4 $)

>  <Rbt.Library>
libRbt.so (2013.1, Build901 2013/11/27)

>  <Rbt.Parameter_File>
/export/apps/rDock/src/rDock_2013.1_src/data/scripts/dock_solv.prm

>  <Rbt.Receptor>
prm/blind_docking_100.prm

>  <SCORE>
-5.57087

>  <SCORE.INTER>
-5.57087

>  <SCORE.INTER.CONST>
1

>  <SCORE.INTER.POLAR>
0

>  <SCORE.INTER.ROT>
0

>  <SCORE.INTER.SOLV>
2.79772

>  <SCORE.INTER.VDW>
-8.24649

>  <SCORE.INTER.norm>
-0.506443

>  <SCORE.INTRA>
0

>  <SCORE.INTRA.DIHEDRAL>
0

>  <SCORE.INTRA.DIHEDRAL.0>
0

>  <SCORE.INTRA.POLAR>
0

>  <SCORE.INTRA.POLAR.0>
0

>  <SCORE.INTRA.REPUL>
0

>  <SCORE.INTRA.REPUL.0>
0

>  <SCORE.INTRA.SOLV>
0

>  <SCORE.INTRA.SOLV.lig_0>
-48.3454

>  <SCORE.INTRA.VDW>
0

>  <SCORE.INTRA.VDW.0>
0

>  <SCORE.INTRA.norm>
0

>  <SCORE.RESTR>
0

>  <SCORE.RESTR.CAVITY>
0

>  <SCORE.RESTR.norm>
0

>  <SCORE.SYSTEM>
0

>  <SCORE.SYSTEM.CONST>
0

>  <SCORE.SYSTEM.DIHEDRAL>
0

>  <SCORE.SYSTEM.SOLV>
0

>  <SCORE.SYSTEM.norm>
0

>  <SCORE.heavy>
11

>  <SCORE.norm>
-0.506443

>  <RMSD>
16.183

$$$$
ligand
 OpenBabel02271912153D
libRbt.so/2013.1/901 2013/11/27
 11 12  0  0  0  0  0  0  0  0999 V2000
  -26.3901  -11.8160    5.8331 N   0  0  0  0  0  0  0  0  0  0  0  0
  -27.1938  -12.8571    5.5630 C   0  0  0  0  0  0  0  0  0  0  0  0
  -27.2695  -13.8724    6.4188 N   0  0  0  0  0  0  0  0  0  0  0  0
  -27.9143  -12.8874    4.4312 N   0  0  0  0  0  0  0  0  0  0  0  0
  -27.8436  -11.8810    3.5474 C   0  0  0  0  0  0  0  0  0  0  0  0
  -27.0198  -10.7920    3.8023 C   0  0  0  0  0  0  0  0  0  0  0  0
  -26.2848  -10.7823    4.9832 C   0  0  0  0  0  0  0  0  0  0  0  0
  -25.4911   -9.7552    5.2716 N   0  0  0  0  0  0  0  0  0  0  0  0
  -27.1265   -9.9594    2.7711 N   0  0  0  0  0  0  0  0  0  0  0  0
  -27.9790  -10.4961    1.9009 C   0  0  0  0  0  0  0  0  0  0  0  0
  -28.4178  -11.6632    2.3678 N   0  0  0  0  0  0  0  0  0  0  0  0
  1  7  2  0  0  0  0
  1  2  1  0  0  0  0
  2  3  1  0  0  0  0
  2  4  2  0  0  0  0
  4  5  1  0  0  0  0
  5  6  2  0  0  0  0
  5 11  1  0  0  0  0
  6  7  1  0  0  0  0
  6  9  1  0  0  0  0
  7  8  1  0  0  0  0
  9 10  1  0  0  0  0
 10 11  2  0  0  0  0
M  END
>  <CHROM.1>
-27.16934928,-11.53505792,4.28376449,-1.31167205,-0.85980944,-0.78274833

>  <Name>
ligand

>  <RI>
0

>  <Rbt.Current_Directory>
/home/itssahil/PROJECTS/Mol_Feturizer/Test_systems_manuscript/rnas/2b57

>  <Rbt.Executable>
rbdock ($Id: //depot/dev/client3/rdock/2013.1/src/exe/rbdock.cxx#4 $)

>  <Rbt.Library>
libRbt.so (2013.1, Build901 2013/11/27)

>  <Rbt.Parameter_File>
/export/apps/rDock/src/rDock_2013.1_src/data/scripts/dock_solv.prm

>  <Rbt.Receptor>
prm/blind_docking_100.prm

>  <SCORE>
-4.96865

>  <SCORE.INTER>
-4.96865

>  <SCORE.INTER.CONST>
1

>  <SCORE.INTER.POLAR>
0

>  <SCORE.INTER.ROT>
0

>  <SCORE.INTER.SOLV>
5.94722

>  <SCORE.INTER.VDW>
-8.89484

>  <SCORE.INTER.norm>
-0.451695

>  <SCORE.INTRA>
0

>  <SCORE.INTRA.DIHEDRAL>
0

>  <SCORE.INTRA.DIHEDRAL.0>
0

>  <SCORE.INTRA.POLAR>
0

>  <SCORE.INTRA.POLAR.0>
0

>  <SCORE.INTRA.REPUL>
0

>  <SCORE.INTRA.REPUL.0>
0

>  <SCORE.INTRA.SOLV>
0

>  <SCORE.INTRA.SOLV.lig_0>
-48.3454

>  <SCORE.INTRA.VDW>
0

>  <SCORE.INTRA.VDW.0>
0

>  <SCORE.INTRA.norm>
0

>  <SCORE.RESTR>
0

>  <SCORE.RESTR.CAVITY>
0

>  <SCORE.RESTR.norm>
0

>  <SCORE.SYSTEM>
0

>  <SCORE.SYSTEM.CONST>
0

>  <SCORE.SYSTEM.DIHEDRAL>
0

>  <SCORE.SYSTEM.SOLV>
0

>  <SCORE.SYSTEM.norm>
0

>  <SCORE.heavy>
11

>  <SCORE.norm>
-0.451695

>  <RMSD>
16.187

$$$$
ligand
 OpenBabel02271912153D
libRbt.so/2013.1/901 2013/11/27
 11 12  0  0  0  0  0  0  0  0999 V2000
  -22.5022  -23.7363   10.1938 N   0  0  0  0  0  0  0  0  0  0  0  0
  -22.3107  -23.9711    8.8858 C   0  0  0  0  0  0  0  0  0  0  0  0
  -22.7259  -23.0823    7.9876 N   0  0  0  0  0  0  0  0  0  0  0  0
  -21.7129  -25.1003    8.4754 N   0  0  0  0  0  0  0  0  0  0  0  0
  -21.2981  -26.0168    9.3625 C   0  0  0  0  0  0  0  0  0  0  0  0
  -21.4840  -25.7988   10.7217 C   0  0  0  0  0  0  0  0  0  0  0  0
  -22.1038  -24.6199   11.1226 C   0  0  0  0  0  0  0  0  0  0  0  0
  -22.2931  -24.3663   12.4141 N   0  0  0  0  0  0  0  0  0  0  0  0
  -21.0010  -26.8567   11.3664 N   0  0  0  0  0  0  0  0  0  0  0  0
  -20.5304  -27.7077   10.4574 C   0  0  0  0  0  0  0  0  0  0  0  0
  -20.7080  -27.2022    9.2386 N   0  0  0  0  0  0  0  0  0  0  0  0
  1  7  2  0  0  0  0
  1  2  1  0  0  0  0
  2  3  1  0  0  0  0
  2  4  2  0  0  0  0
  4  5  1  0  0  0  0
  5  6  2  0  0  0  0
  5 11  1  0  0  0  0
  6  7  1  0  0  0  0
  6  9  1  0  0  0  0
  7  8  1  0  0  0  0
  9 10  1  0  0  0  0
 10 11  2  0  0  0  0
M  END
>  <CHROM.1>
-21.70781399,-25.29303304,10.01435111,2.66620893,1.10325949,-1.46742763

>  <Name>
ligand

>  <RI>
0

>  <Rbt.Current_Directory>
/home/itssahil/PROJECTS/Mol_Feturizer/Test_systems_manuscript/rnas/2b57

>  <Rbt.Executable>
rbdock ($Id: //depot/dev/client3/rdock/2013.1/src/exe/rbdock.cxx#4 $)

>  <Rbt.Library>
libRbt.so (2013.1, Build901 2013/11/27)

>  <Rbt.Parameter_File>
/export/apps/rDock/src/rDock_2013.1_src/data/scripts/dock_solv.prm

>  <Rbt.Receptor>
prm/blind_docking_40.prm

>  <SCORE>
-6.53082

>  <SCORE.INTER>
-6.53082

>  <SCORE.INTER.CONST>
1

>  <SCORE.INTER.POLAR>
0

>  <SCORE.INTER.ROT>
0

>  <SCORE.INTER.SOLV>
4.16007

>  <SCORE.INTER.VDW>
-9.34057

>  <SCORE.INTER.norm>
-0.593711

>  <SCORE.INTRA>
0

>  <SCORE.INTRA.DIHEDRAL>
0

>  <SCORE.INTRA.DIHEDRAL.0>
0

>  <SCORE.INTRA.POLAR>
0

>  <SCORE.INTRA.POLAR.0>
0

>  <SCORE.INTRA.REPUL>
0

>  <SCORE.INTRA.REPUL.0>
0

>  <SCORE.INTRA.SOLV>
0

>  <SCORE.INTRA.SOLV.lig_0>
-48.3454

>  <SCORE.INTRA.VDW>
0

>  <SCORE.INTRA.VDW.0>
0

>  <SCORE.INTRA.norm>
0

>  <SCORE.RESTR>
0

>  <SCORE.RESTR.CAVITY>
0

>  <SCORE.RESTR.norm>
0

>  <SCORE.SYSTEM>
0

>  <SCORE.SYSTEM.CONST>
0

>  <SCORE.SYSTEM.DIHEDRAL>
0

>  <SCORE.SYSTEM.SOLV>
0

>  <SCORE.SYSTEM.norm>
0

>  <SCORE.heavy>
11

>  <SCORE.norm>
-0.593711

>  <RMSD>
16.272

$$$$
ligand
 OpenBabel02271912153D
libRbt.so/2013.1/901 2013/11/27
 11 12  0  0  0  0  0  0  0  0999 V2000
  -22.5385  -23.7483   10.0657 N   0  0  0  0  0  0  0  0  0  0  0  0
  -22.3406  -24.0554    8.7738 C   0  0  0  0  0  0  0  0  0  0  0  0
  -22.7681  -23.2270    7.8250 N   0  0  0  0  0  0  0  0  0  0  0  0
  -21.7239  -25.1967    8.4302 N   0  0  0  0  0  0  0  0  0  0  0  0
  -21.2964  -26.0535    9.3695 C   0  0  0  0  0  0  0  0  0  0  0  0
  -21.4886  -25.7600   10.7136 C   0  0  0  0  0  0  0  0  0  0  0  0
  -22.1280  -24.5700   11.0446 C   0  0  0  0  0  0  0  0  0  0  0  0
  -22.3240  -24.2450   12.3191 N   0  0  0  0  0  0  0  0  0  0  0  0
  -20.9900  -26.7709   11.4191 N   0  0  0  0  0  0  0  0  0  0  0  0
  -20.5039  -27.6654   10.5615 C   0  0  0  0  0  0  0  0  0  0  0  0
  -20.6871  -27.2343    9.3152 N   0  0  0  0  0  0  0  0  0  0  0  0
  1  7  2  0  0  0  0
  1  2  1  0  0  0  0
  2  3  1  0  0  0  0
  2  4  2  0  0  0  0
  4  5  1  0  0  0  0
  5  6  2  0  0  0  0
  5 11  1  0  0  0  0
  6  7  1  0  0  0  0
  6  9  1  0  0  0  0
  7  8  1  0  0  0  0
  9 10  1  0  0  0  0
 10 11  2  0  0  0  0
M  END
>  <CHROM.1>
-21.71893958,-25.29979574,9.97776947,2.66532549,1.08711549,-1.52468537

>  <Name>
ligand

>  <RI>
0

>  <Rbt.Current_Directory>
/home/itssahil/PROJECTS/Mol_Feturizer/Test_systems_manuscript/rnas/2b57

>  <Rbt.Executable>
rbdock ($Id: //depot/dev/client3/rdock/2013.1/src/exe/rbdock.cxx#4 $)

>  <Rbt.Library>
libRbt.so (2013.1, Build901 2013/11/27)

>  <Rbt.Parameter_File>
/export/apps/rDock/src/rDock_2013.1_src/data/scripts/dock_solv.prm

>  <Rbt.Receptor>
prm/blind_docking_60.prm

>  <SCORE>
-6.56061

>  <SCORE.INTER>
-6.56061

>  <SCORE.INTER.CONST>
1

>  <SCORE.INTER.POLAR>
0

>  <SCORE.INTER.ROT>
0

>  <SCORE.INTER.SOLV>
4.72283

>  <SCORE.INTER.VDW>
-9.54801

>  <SCORE.INTER.norm>
-0.596419

>  <SCORE.INTRA>
0

>  <SCORE.INTRA.DIHEDRAL>
0

>  <SCORE.INTRA.DIHEDRAL.0>
0

>  <SCORE.INTRA.POLAR>
0

>  <SCORE.INTRA.POLAR.0>
0

>  <SCORE.INTRA.REPUL>
0

>  <SCORE.INTRA.REPUL.0>
0

>  <SCORE.INTRA.SOLV>
0

>  <SCORE.INTRA.SOLV.lig_0>
-48.3454

>  <SCORE.INTRA.VDW>
0

>  <SCORE.INTRA.VDW.0>
0

>  <SCORE.INTRA.norm>
0

>  <SCORE.RESTR>
0

>  <SCORE.RESTR.CAVITY>
0

>  <SCORE.RESTR.norm>
0

>  <SCORE.SYSTEM>
0

>  <SCORE.SYSTEM.CONST>
0

>  <SCORE.SYSTEM.DIHEDRAL>
0

>  <SCORE.SYSTEM.SOLV>
0

>  <SCORE.SYSTEM.norm>
0

>  <SCORE.heavy>
11

>  <SCORE.norm>
-0.596419

>  <RMSD>
16.282

$$$$
ligand
 OpenBabel02271912153D
libRbt.so/2013.1/901 2013/11/27
 11 12  0  0  0  0  0  0  0  0999 V2000
  -22.5624  -23.7475   10.0941 N   0  0  0  0  0  0  0  0  0  0  0  0
  -22.3897  -24.0439    8.7961 C   0  0  0  0  0  0  0  0  0  0  0  0
  -22.8435  -23.2122    7.8626 N   0  0  0  0  0  0  0  0  0  0  0  0
  -21.7719  -25.1781    8.4313 N   0  0  0  0  0  0  0  0  0  0  0  0
  -21.3181  -26.0382    9.3550 C   0  0  0  0  0  0  0  0  0  0  0  0
  -21.4839  -25.7557   10.7050 C   0  0  0  0  0  0  0  0  0  0  0  0
  -22.1250  -24.5729   11.0582 C   0  0  0  0  0  0  0  0  0  0  0  0
  -22.2964  -24.2585   12.3388 N   0  0  0  0  0  0  0  0  0  0  0  0
  -20.9630  -26.7677   11.3924 N   0  0  0  0  0  0  0  0  0  0  0  0
  -20.4885  -27.6524   10.5183 C   0  0  0  0  0  0  0  0  0  0  0  0
  -20.7013  -27.2139    9.2794 N   0  0  0  0  0  0  0  0  0  0  0  0
  1  7  2  0  0  0  0
  1  2  1  0  0  0  0
  2  3  1  0  0  0  0
  2  4  2  0  0  0  0
  4  5  1  0  0  0  0
  5  6  2  0  0  0  0
  5 11  1  0  0  0  0
  6  7  1  0  0  0  0
  6  9  1  0  0  0  0
  7  8  1  0  0  0  0
  9 10  1  0  0  0  0
 10 11  2  0  0  0  0
M  END
>  <CHROM.1>
-21.73332277,-25.29206400,9.97759863,2.71111529,1.08017909,-1.55798962

>  <Name>
ligand

>  <RI>
0

>  <Rbt.Current_Directory>
/home/itssahil/PROJECTS/Mol_Feturizer/Test_systems_manuscript/rnas/2b57

>  <Rbt.Executable>
rbdock ($Id: //depot/dev/client3/rdock/2013.1/src/exe/rbdock.cxx#4 $)

>  <Rbt.Library>
libRbt.so (2013.1, Build901 2013/11/27)

>  <Rbt.Parameter_File>
/export/apps/rDock/src/rDock_2013.1_src/data/scripts/dock_solv.prm

>  <Rbt.Receptor>
prm/blind_docking_40.prm

>  <SCORE>
-6.57381

>  <SCORE.INTER>
-6.57381

>  <SCORE.INTER.CONST>
1

>  <SCORE.INTER.POLAR>
0

>  <SCORE.INTER.ROT>
0

>  <SCORE.INTER.SOLV>
4.64441

>  <SCORE.INTER.VDW>
-9.53068

>  <SCORE.INTER.norm>
-0.597619

>  <SCORE.INTRA>
0

>  <SCORE.INTRA.DIHEDRAL>
0

>  <SCORE.INTRA.DIHEDRAL.0>
0

>  <SCORE.INTRA.POLAR>
0

>  <SCORE.INTRA.POLAR.0>
0

>  <SCORE.INTRA.REPUL>
0

>  <SCORE.INTRA.REPUL.0>
0

>  <SCORE.INTRA.SOLV>
0

>  <SCORE.INTRA.SOLV.lig_0>
-48.3454

>  <SCORE.INTRA.VDW>
0

>  <SCORE.INTRA.VDW.0>
0

>  <SCORE.INTRA.norm>
0

>  <SCORE.RESTR>
0

>  <SCORE.RESTR.CAVITY>
0

>  <SCORE.RESTR.norm>
0

>  <SCORE.SYSTEM>
0

>  <SCORE.SYSTEM.CONST>
0

>  <SCORE.SYSTEM.DIHEDRAL>
0

>  <SCORE.SYSTEM.SOLV>
0

>  <SCORE.SYSTEM.norm>
0

>  <SCORE.heavy>
11

>  <SCORE.norm>
-0.597619

>  <RMSD>
16.283

$$$$
ligand
 OpenBabel02271912153D
libRbt.so/2013.1/901 2013/11/27
 11 12  0  0  0  0  0  0  0  0999 V2000
  -28.4847  -13.7683    4.1526 N   0  0  0  0  0  0  0  0  0  0  0  0
  -27.6813  -13.9826    5.2069 C   0  0  0  0  0  0  0  0  0  0  0  0
  -27.8180  -15.0926    5.9266 N   0  0  0  0  0  0  0  0  0  0  0  0
  -26.7474  -13.0810    5.5477 N   0  0  0  0  0  0  0  0  0  0  0  0
  -26.6004  -11.9483    4.8446 C   0  0  0  0  0  0  0  0  0  0  0  0
  -27.4186  -11.7019    3.7494 C   0  0  0  0  0  0  0  0  0  0  0  0
  -28.3773  -12.6523    3.4144 C   0  0  0  0  0  0  0  0  0  0  0  0
  -29.1752  -12.4613    2.3680 N   0  0  0  0  0  0  0  0  0  0  0  0
  -27.0743  -10.5182    3.2511 N   0  0  0  0  0  0  0  0  0  0  0  0
  -26.0829  -10.0351    3.9966 C   0  0  0  0  0  0  0  0  0  0  0  0
  -25.7909  -10.9001    4.9656 N   0  0  0  0  0  0  0  0  0  0  0  0
  1  7  2  0  0  0  0
  1  2  1  0  0  0  0
  2  3  1  0  0  0  0
  2  4  2  0  0  0  0
  4  5  1  0  0  0  0
  5  6  2  0  0  0  0
  5 11  1  0  0  0  0
  6  7  1  0  0  0  0
  6  9  1  0  0  0  0
  7  8  1  0  0  0  0
  9 10  1  0  0  0  0
 10 11  2  0  0  0  0
M  END
>  <CHROM.1>
-27.39714418,-12.39815992,4.31600082,2.05807655,0.72635648,2.48860354

>  <Name>
ligand

>  <RI>
0

>  <Rbt.Current_Directory>
/home/itssahil/PROJECTS/Mol_Feturizer/Test_systems_manuscript/rnas/2b57

>  <Rbt.Executable>
rbdock ($Id: //depot/dev/client3/rdock/2013.1/src/exe/rbdock.cxx#4 $)

>  <Rbt.Library>
libRbt.so (2013.1, Build901 2013/11/27)

>  <Rbt.Parameter_File>
/export/apps/rDock/src/rDock_2013.1_src/data/scripts/dock_solv.prm

>  <Rbt.Receptor>
prm/blind_docking_80.prm

>  <SCORE>
-5.22163

>  <SCORE.INTER>
-5.22163

>  <SCORE.INTER.CONST>
1

>  <SCORE.INTER.POLAR>
0

>  <SCORE.INTER.ROT>
0

>  <SCORE.INTER.SOLV>
9.24114

>  <SCORE.INTER.VDW>
-10.1615

>  <SCORE.INTER.norm>
-0.474694

>  <SCORE.INTRA>
0

>  <SCORE.INTRA.DIHEDRAL>
0

>  <SCORE.INTRA.DIHEDRAL.0>
0

>  <SCORE.INTRA.POLAR>
0

>  <SCORE.INTRA.POLAR.0>
0

>  <SCORE.INTRA.REPUL>
0

>  <SCORE.INTRA.REPUL.0>
0

>  <SCORE.INTRA.SOLV>
0

>  <SCORE.INTRA.SOLV.lig_0>
-48.3454

>  <SCORE.INTRA.VDW>
0

>  <SCORE.INTRA.VDW.0>
0

>  <SCORE.INTRA.norm>
0

>  <SCORE.RESTR>
0

>  <SCORE.RESTR.CAVITY>
0

>  <SCORE.RESTR.norm>
0

>  <SCORE.SYSTEM>
0

>  <SCORE.SYSTEM.CONST>
0

>  <SCORE.SYSTEM.DIHEDRAL>
0

>  <SCORE.SYSTEM.SOLV>
0

>  <SCORE.SYSTEM.norm>
0

>  <SCORE.heavy>
11

>  <SCORE.norm>
-0.474694

>  <RMSD>
16.407

$$$$
ligand
 OpenBabel02271912153D
libRbt.so/2013.1/901 2013/11/27
 11 12  0  0  0  0  0  0  0  0999 V2000
  -20.0304  -24.4344   11.4994 N   0  0  0  0  0  0  0  0  0  0  0  0
  -20.5723  -25.3006   10.6283 C   0  0  0  0  0  0  0  0  0  0  0  0
  -20.0206  -25.4633    9.4291 N   0  0  0  0  0  0  0  0  0  0  0  0
  -21.6727  -25.9968   10.9530 N   0  0  0  0  0  0  0  0  0  0  0  0
  -22.2538  -25.8390   12.1515 C   0  0  0  0  0  0  0  0  0  0  0  0
  -21.7137  -24.9492   13.0714 C   0  0  0  0  0  0  0  0  0  0  0  0
  -20.5715  -24.2411   12.7126 C   0  0  0  0  0  0  0  0  0  0  0  0
  -20.0158  -23.3862   13.5661 N   0  0  0  0  0  0  0  0  0  0  0  0
  -22.4840  -24.9770   14.1548 N   0  0  0  0  0  0  0  0  0  0  0  0
  -23.4686  -25.8448   13.9324 C   0  0  0  0  0  0  0  0  0  0  0  0
  -23.3333  -26.3715   12.7172 N   0  0  0  0  0  0  0  0  0  0  0  0
  1  7  2  0  0  0  0
  1  2  1  0  0  0  0
  2  3  1  0  0  0  0
  2  4  2  0  0  0  0
  4  5  1  0  0  0  0
  5  6  2  0  0  0  0
  5 11  1  0  0  0  0
  6  7  1  0  0  0  0
  6  9  1  0  0  0  0
  7  8  1  0  0  0  0
  9 10  1  0  0  0  0
 10 11  2  0  0  0  0
M  END
>  <CHROM.1>
-21.44972297,-25.15907924,12.23912905,-0.67589316,0.60297325,1.10185453

>  <Name>
ligand

>  <RI>
0

>  <Rbt.Current_Directory>
/home/itssahil/PROJECTS/Mol_Feturizer/Test_systems_manuscript/rnas/2b57

>  <Rbt.Executable>
rbdock ($Id: //depot/dev/client3/rdock/2013.1/src/exe/rbdock.cxx#4 $)

>  <Rbt.Library>
libRbt.so (2013.1, Build901 2013/11/27)

>  <Rbt.Parameter_File>
/export/apps/rDock/src/rDock_2013.1_src/data/scripts/dock_solv.prm

>  <Rbt.Receptor>
prm/blind_docking_80.prm

>  <SCORE>
-4.60919

>  <SCORE.INTER>
-4.60919

>  <SCORE.INTER.CONST>
1

>  <SCORE.INTER.POLAR>
0

>  <SCORE.INTER.ROT>
0

>  <SCORE.INTER.SOLV>
3.14407

>  <SCORE.INTER.VDW>
-7.72081

>  <SCORE.INTER.norm>
-0.419017

>  <SCORE.INTRA>
0

>  <SCORE.INTRA.DIHEDRAL>
0

>  <SCORE.INTRA.DIHEDRAL.0>
0

>  <SCORE.INTRA.POLAR>
0

>  <SCORE.INTRA.POLAR.0>
0

>  <SCORE.INTRA.REPUL>
0

>  <SCORE.INTRA.REPUL.0>
0

>  <SCORE.INTRA.SOLV>
0

>  <SCORE.INTRA.SOLV.lig_0>
-48.3454

>  <SCORE.INTRA.VDW>
0

>  <SCORE.INTRA.VDW.0>
0

>  <SCORE.INTRA.norm>
0

>  <SCORE.RESTR>
0

>  <SCORE.RESTR.CAVITY>
0

>  <SCORE.RESTR.norm>
0

>  <SCORE.SYSTEM>
0

>  <SCORE.SYSTEM.CONST>
0

>  <SCORE.SYSTEM.DIHEDRAL>
0

>  <SCORE.SYSTEM.SOLV>
0

>  <SCORE.SYSTEM.norm>
0

>  <SCORE.heavy>
11

>  <SCORE.norm>
-0.419017

>  <RMSD>
16.550

$$$$
ligand
 OpenBabel02271912153D
libRbt.so/2013.1/901 2013/11/27
 11 12  0  0  0  0  0  0  0  0999 V2000
  -26.6543  -11.1671    4.2500 N   0  0  0  0  0  0  0  0  0  0  0  0
  -27.2812  -11.6290    5.3438 C   0  0  0  0  0  0  0  0  0  0  0  0
  -27.3656  -12.9399    5.5525 N   0  0  0  0  0  0  0  0  0  0  0  0
  -27.8330  -10.7795    6.2241 N   0  0  0  0  0  0  0  0  0  0  0  0
  -27.7719   -9.4542    6.0273 C   0  0  0  0  0  0  0  0  0  0  0  0
  -27.1292   -8.9498    4.9038 C   0  0  0  0  0  0  0  0  0  0  0  0
  -26.5629   -9.8500    4.0073 C   0  0  0  0  0  0  0  0  0  0  0  0
  -25.9300   -9.4102    2.9237 N   0  0  0  0  0  0  0  0  0  0  0  0
  -27.2277   -7.6245    4.9477 N   0  0  0  0  0  0  0  0  0  0  0  0
  -27.9026   -7.3026    6.0490 C   0  0  0  0  0  0  0  0  0  0  0  0
  -28.2351   -8.4102    6.7085 N   0  0  0  0  0  0  0  0  0  0  0  0
  1  7  2  0  0  0  0
  1  2  1  0  0  0  0
  2  3  1  0  0  0  0
  2  4  2  0  0  0  0
  4  5  1  0  0  0  0
  5  6  2  0  0  0  0
  5 11  1  0  0  0  0
  6  7  1  0  0  0  0
  6  9  1  0  0  0  0
  7  8  1  0  0  0  0
  9 10  1  0  0  0  0
 10 11  2  0  0  0  0
M  END
>  <CHROM.1>
-27.25844440,-9.79763985,5.16993439,-1.31840577,1.03183606,-0.07192873

>  <Name>
ligand

>  <RI>
0

>  <Rbt.Current_Directory>
/home/itssahil/PROJECTS/Mol_Feturizer/Test_systems_manuscript/rnas/2b57

>  <Rbt.Executable>
rbdock ($Id: //depot/dev/client3/rdock/2013.1/src/exe/rbdock.cxx#4 $)

>  <Rbt.Library>
libRbt.so (2013.1, Build901 2013/11/27)

>  <Rbt.Parameter_File>
/export/apps/rDock/src/rDock_2013.1_src/data/scripts/dock_solv.prm

>  <Rbt.Receptor>
prm/blind_docking_100.prm

>  <SCORE>
-6.1735

>  <SCORE.INTER>
-6.1735

>  <SCORE.INTER.CONST>
1

>  <SCORE.INTER.POLAR>
0

>  <SCORE.INTER.ROT>
0

>  <SCORE.INTER.SOLV>
2.78489

>  <SCORE.INTER.VDW>
-8.64396

>  <SCORE.INTER.norm>
-0.561227

>  <SCORE.INTRA>
0

>  <SCORE.INTRA.DIHEDRAL>
0

>  <SCORE.INTRA.DIHEDRAL.0>
0

>  <SCORE.INTRA.POLAR>
0

>  <SCORE.INTRA.POLAR.0>
0

>  <SCORE.INTRA.REPUL>
0

>  <SCORE.INTRA.REPUL.0>
0

>  <SCORE.INTRA.SOLV>
0

>  <SCORE.INTRA.SOLV.lig_0>
-48.3454

>  <SCORE.INTRA.VDW>
0

>  <SCORE.INTRA.VDW.0>
0

>  <SCORE.INTRA.norm>
0

>  <SCORE.RESTR>
0

>  <SCORE.RESTR.CAVITY>
0

>  <SCORE.RESTR.norm>
0

>  <SCORE.SYSTEM>
0

>  <SCORE.SYSTEM.CONST>
0

>  <SCORE.SYSTEM.DIHEDRAL>
0

>  <SCORE.SYSTEM.SOLV>
0

>  <SCORE.SYSTEM.norm>
0

>  <SCORE.heavy>
11

>  <SCORE.norm>
-0.561227

>  <RMSD>
16.567

$$$$
ligand
 OpenBabel02271912153D
libRbt.so/2013.1/901 2013/11/27
 11 12  0  0  0  0  0  0  0  0999 V2000
  -26.6713  -11.1751    4.2982 N   0  0  0  0  0  0  0  0  0  0  0  0
  -27.2902  -11.6263    5.4011 C   0  0  0  0  0  0  0  0  0  0  0  0
  -27.3743  -12.9350    5.6226 N   0  0  0  0  0  0  0  0  0  0  0  0
  -27.8343  -10.7681    6.2777 N   0  0  0  0  0  0  0  0  0  0  0  0
  -27.7734   -9.4447    6.0682 C   0  0  0  0  0  0  0  0  0  0  0  0
  -27.1390   -8.9514    4.9351 C   0  0  0  0  0  0  0  0  0  0  0  0
  -26.5806   -9.8605    4.0426 C   0  0  0  0  0  0  0  0  0  0  0  0
  -25.9556   -9.4314    2.9502 N   0  0  0  0  0  0  0  0  0  0  0  0
  -27.2358   -7.6257    4.9675 N   0  0  0  0  0  0  0  0  0  0  0  0
  -27.9019   -7.2928    6.0709 C   0  0  0  0  0  0  0  0  0  0  0  0
  -28.2304   -8.3940    6.7433 N   0  0  0  0  0  0  0  0  0  0  0  0
  1  7  2  0  0  0  0
  1  2  1  0  0  0  0
  2  3  1  0  0  0  0
  2  4  2  0  0  0  0
  4  5  1  0  0  0  0
  5  6  2  0  0  0  0
  5 11  1  0  0  0  0
  6  7  1  0  0  0  0
  6  9  1  0  0  0  0
  7  8  1  0  0  0  0
  9 10  1  0  0  0  0
 10 11  2  0  0  0  0
M  END
>  <CHROM.1>
-27.26699751,-9.79657922,5.21007232,-1.31924660,1.03962766,-0.08047002

>  <Name>
ligand

>  <RI>
0

>  <Rbt.Current_Directory>
/home/itssahil/PROJECTS/Mol_Feturizer/Test_systems_manuscript/rnas/2b57

>  <Rbt.Executable>
rbdock ($Id: //depot/dev/client3/rdock/2013.1/src/exe/rbdock.cxx#4 $)

>  <Rbt.Library>
libRbt.so (2013.1, Build901 2013/11/27)

>  <Rbt.Parameter_File>
/export/apps/rDock/src/rDock_2013.1_src/data/scripts/dock_solv.prm

>  <Rbt.Receptor>
prm/blind_docking_80.prm

>  <SCORE>
-6.17235

>  <SCORE.INTER>
-6.17235

>  <SCORE.INTER.CONST>
1

>  <SCORE.INTER.POLAR>
0

>  <SCORE.INTER.ROT>
0

>  <SCORE.INTER.SOLV>
2.67786

>  <SCORE.INTER.VDW>
-8.60752

>  <SCORE.INTER.norm>
-0.561123

>  <SCORE.INTRA>
0

>  <SCORE.INTRA.DIHEDRAL>
0

>  <SCORE.INTRA.DIHEDRAL.0>
0

>  <SCORE.INTRA.POLAR>
0

>  <SCORE.INTRA.POLAR.0>
0

>  <SCORE.INTRA.REPUL>
0

>  <SCORE.INTRA.REPUL.0>
0

>  <SCORE.INTRA.SOLV>
0

>  <SCORE.INTRA.SOLV.lig_0>
-48.3454

>  <SCORE.INTRA.VDW>
0

>  <SCORE.INTRA.VDW.0>
0

>  <SCORE.INTRA.norm>
0

>  <SCORE.RESTR>
0

>  <SCORE.RESTR.CAVITY>
0

>  <SCORE.RESTR.norm>
0

>  <SCORE.SYSTEM>
0

>  <SCORE.SYSTEM.CONST>
0

>  <SCORE.SYSTEM.DIHEDRAL>
0

>  <SCORE.SYSTEM.SOLV>
0

>  <SCORE.SYSTEM.norm>
0

>  <SCORE.heavy>
11

>  <SCORE.norm>
-0.561123

>  <RMSD>
16.568

$$$$
ligand
 OpenBabel02271912153D
libRbt.so/2013.1/901 2013/11/27
 11 12  0  0  0  0  0  0  0  0999 V2000
  -26.6649  -11.1714    4.2579 N   0  0  0  0  0  0  0  0  0  0  0  0
  -27.2906  -11.6306    5.3535 C   0  0  0  0  0  0  0  0  0  0  0  0
  -27.3616  -12.9404    5.5735 N   0  0  0  0  0  0  0  0  0  0  0  0
  -27.8548  -10.7795    6.2244 N   0  0  0  0  0  0  0  0  0  0  0  0
  -27.8074   -9.4554    6.0162 C   0  0  0  0  0  0  0  0  0  0  0  0
  -27.1663   -8.9538    4.8905 C   0  0  0  0  0  0  0  0  0  0  0  0
  -26.5870   -9.8556    4.0040 C   0  0  0  0  0  0  0  0  0  0  0  0
  -25.9550   -9.4184    2.9188 N   0  0  0  0  0  0  0  0  0  0  0  0
  -27.2793   -7.6293    4.9225 N   0  0  0  0  0  0  0  0  0  0  0  0
  -27.9616   -7.3051    6.0185 C   0  0  0  0  0  0  0  0  0  0  0  0
  -28.2844   -8.4106    6.6866 N   0  0  0  0  0  0  0  0  0  0  0  0
  1  7  2  0  0  0  0
  1  2  1  0  0  0  0
  2  3  1  0  0  0  0
  2  4  2  0  0  0  0
  4  5  1  0  0  0  0
  5  6  2  0  0  0  0
  5 11  1  0  0  0  0
  6  7  1  0  0  0  0
  6  9  1  0  0  0  0
  7  8  1  0  0  0  0
  9 10  1  0  0  0  0
 10 11  2  0  0  0  0
M  END
>  <CHROM.1>
-27.28719831,-9.80062460,5.16366149,-1.29791021,1.02739526,-0.09825754

>  <Name>
ligand

>  <RI>
0

>  <Rbt.Current_Directory>
/home/itssahil/PROJECTS/Mol_Feturizer/Test_systems_manuscript/rnas/2b57

>  <Rbt.Executable>
rbdock ($Id: //depot/dev/client3/rdock/2013.1/src/exe/rbdock.cxx#4 $)

>  <Rbt.Library>
libRbt.so (2013.1, Build901 2013/11/27)

>  <Rbt.Parameter_File>
/export/apps/rDock/src/rDock_2013.1_src/data/scripts/dock_solv.prm

>  <Rbt.Receptor>
prm/blind_docking_80.prm

>  <SCORE>
-6.21276

>  <SCORE.INTER>
-6.21276

>  <SCORE.INTER.CONST>
1

>  <SCORE.INTER.POLAR>
0

>  <SCORE.INTER.ROT>
0

>  <SCORE.INTER.SOLV>
2.86007

>  <SCORE.INTER.VDW>
-8.69519

>  <SCORE.INTER.norm>
-0.564796

>  <SCORE.INTRA>
0

>  <SCORE.INTRA.DIHEDRAL>
0

>  <SCORE.INTRA.DIHEDRAL.0>
0

>  <SCORE.INTRA.POLAR>
0

>  <SCORE.INTRA.POLAR.0>
0

>  <SCORE.INTRA.REPUL>
0

>  <SCORE.INTRA.REPUL.0>
0

>  <SCORE.INTRA.SOLV>
0

>  <SCORE.INTRA.SOLV.lig_0>
-48.3454

>  <SCORE.INTRA.VDW>
0

>  <SCORE.INTRA.VDW.0>
0

>  <SCORE.INTRA.norm>
0

>  <SCORE.RESTR>
0

>  <SCORE.RESTR.CAVITY>
0

>  <SCORE.RESTR.norm>
0

>  <SCORE.SYSTEM>
0

>  <SCORE.SYSTEM.CONST>
0

>  <SCORE.SYSTEM.DIHEDRAL>
0

>  <SCORE.SYSTEM.SOLV>
0

>  <SCORE.SYSTEM.norm>
0

>  <SCORE.heavy>
11

>  <SCORE.norm>
-0.564796

>  <RMSD>
16.594

$$$$
ligand
 OpenBabel02271912153D
libRbt.so/2013.1/901 2013/11/27
 11 12  0  0  0  0  0  0  0  0999 V2000
  -26.6645  -11.1719    4.2693 N   0  0  0  0  0  0  0  0  0  0  0  0
  -27.2926  -11.6294    5.3642 C   0  0  0  0  0  0  0  0  0  0  0  0
  -27.3636  -12.9388    5.5862 N   0  0  0  0  0  0  0  0  0  0  0  0
  -27.8591  -10.7770    6.2323 N   0  0  0  0  0  0  0  0  0  0  0  0
  -27.8116   -9.4532    6.0219 C   0  0  0  0  0  0  0  0  0  0  0  0
  -27.1681   -8.9534    4.8969 C   0  0  0  0  0  0  0  0  0  0  0  0
  -26.5864   -9.8564    4.0132 C   0  0  0  0  0  0  0  0  0  0  0  0
  -25.9521   -9.4209    2.9288 N   0  0  0  0  0  0  0  0  0  0  0  0
  -27.2816   -7.6289    4.9264 N   0  0  0  0  0  0  0  0  0  0  0  0
  -27.9666   -7.3030    6.0203 C   0  0  0  0  0  0  0  0  0  0  0  0
  -28.2906   -8.4074    6.6895 N   0  0  0  0  0  0  0  0  0  0  0  0
  1  7  2  0  0  0  0
  1  2  1  0  0  0  0
  2  3  1  0  0  0  0
  2  4  2  0  0  0  0
  4  5  1  0  0  0  0
  5  6  2  0  0  0  0
  5 11  1  0  0  0  0
  6  7  1  0  0  0  0
  6  9  1  0  0  0  0
  7  8  1  0  0  0  0
  9 10  1  0  0  0  0
 10 11  2  0  0  0  0
M  END
>  <CHROM.1>
-27.28934204,-9.79976173,5.17122143,-1.29770994,1.02504458,-0.10013317

>  <Name>
ligand

>  <RI>
0

>  <Rbt.Current_Directory>
/home/itssahil/PROJECTS/Mol_Feturizer/Test_systems_manuscript/rnas/2b57

>  <Rbt.Executable>
rbdock ($Id: //depot/dev/client3/rdock/2013.1/src/exe/rbdock.cxx#4 $)

>  <Rbt.Library>
libRbt.so (2013.1, Build901 2013/11/27)

>  <Rbt.Parameter_File>
/export/apps/rDock/src/rDock_2013.1_src/data/scripts/dock_solv.prm

>  <Rbt.Receptor>
prm/blind_docking_60.prm

>  <SCORE>
-6.23534

>  <SCORE.INTER>
-6.23534

>  <SCORE.INTER.CONST>
1

>  <SCORE.INTER.POLAR>
0

>  <SCORE.INTER.ROT>
0

>  <SCORE.INTER.SOLV>
2.82842

>  <SCORE.INTER.VDW>
-8.6997

>  <SCORE.INTER.norm>
-0.566849

>  <SCORE.INTRA>
0

>  <SCORE.INTRA.DIHEDRAL>
0

>  <SCORE.INTRA.DIHEDRAL.0>
0

>  <SCORE.INTRA.POLAR>
0

>  <SCORE.INTRA.POLAR.0>
0

>  <SCORE.INTRA.REPUL>
0

>  <SCORE.INTRA.REPUL.0>
0

>  <SCORE.INTRA.SOLV>
0

>  <SCORE.INTRA.SOLV.lig_0>
-48.3454

>  <SCORE.INTRA.VDW>
0

>  <SCORE.INTRA.VDW.0>
0

>  <SCORE.INTRA.norm>
0

>  <SCORE.RESTR>
0

>  <SCORE.RESTR.CAVITY>
0

>  <SCORE.RESTR.norm>
0

>  <SCORE.SYSTEM>
0

>  <SCORE.SYSTEM.CONST>
0

>  <SCORE.SYSTEM.DIHEDRAL>
0

>  <SCORE.SYSTEM.SOLV>
0

>  <SCORE.SYSTEM.norm>
0

>  <SCORE.heavy>
11

>  <SCORE.norm>
-0.566849

>  <RMSD>
16.595

$$$$
ligand
 OpenBabel02271912153D
libRbt.so/2013.1/901 2013/11/27
 11 12  0  0  0  0  0  0  0  0999 V2000
  -26.6711  -11.1722    4.2592 N   0  0  0  0  0  0  0  0  0  0  0  0
  -27.3090  -11.6308    5.3480 C   0  0  0  0  0  0  0  0  0  0  0  0
  -27.3883  -12.9407    5.5643 N   0  0  0  0  0  0  0  0  0  0  0  0
  -27.8768  -10.7789    6.2158 N   0  0  0  0  0  0  0  0  0  0  0  0
  -27.8211   -9.4546    6.0111 C   0  0  0  0  0  0  0  0  0  0  0  0
  -27.1674   -8.9536    4.8924 C   0  0  0  0  0  0  0  0  0  0  0  0
  -26.5845   -9.8562    4.0090 C   0  0  0  0  0  0  0  0  0  0  0  0
  -25.9407   -9.4197    2.9306 N   0  0  0  0  0  0  0  0  0  0  0  0
  -27.2742   -7.6287    4.9264 N   0  0  0  0  0  0  0  0  0  0  0  0
  -27.9648   -7.3037    6.0170 C   0  0  0  0  0  0  0  0  0  0  0  0
  -28.2990   -8.4090    6.6796 N   0  0  0  0  0  0  0  0  0  0  0  0
  1  7  2  0  0  0  0
  1  2  1  0  0  0  0
  2  3  1  0  0  0  0
  2  4  2  0  0  0  0
  4  5  1  0  0  0  0
  5  6  2  0  0  0  0
  5 11  1  0  0  0  0
  6  7  1  0  0  0  0
  6  9  1  0  0  0  0
  7  8  1  0  0  0  0
  9 10  1  0  0  0  0
 10 11  2  0  0  0  0
M  END
>  <CHROM.1>
-27.29489657,-9.80046926,5.16247358,-1.30885624,1.01885287,-0.08661551

>  <Name>
ligand

>  <RI>
0

>  <Rbt.Current_Directory>
/home/itssahil/PROJECTS/Mol_Feturizer/Test_systems_manuscript/rnas/2b57

>  <Rbt.Executable>
rbdock ($Id: //depot/dev/client3/rdock/2013.1/src/exe/rbdock.cxx#4 $)

>  <Rbt.Library>
libRbt.so (2013.1, Build901 2013/11/27)

>  <Rbt.Parameter_File>
/export/apps/rDock/src/rDock_2013.1_src/data/scripts/dock_solv.prm

>  <Rbt.Receptor>
prm/blind_docking_100.prm

>  <SCORE>
-6.21119

>  <SCORE.INTER>
-6.21119

>  <SCORE.INTER.CONST>
1

>  <SCORE.INTER.POLAR>
0

>  <SCORE.INTER.ROT>
0

>  <SCORE.INTER.SOLV>
2.82371

>  <SCORE.INTER.VDW>
-8.68203

>  <SCORE.INTER.norm>
-0.564654

>  <SCORE.INTRA>
0

>  <SCORE.INTRA.DIHEDRAL>
0

>  <SCORE.INTRA.DIHEDRAL.0>
0

>  <SCORE.INTRA.POLAR>
0

>  <SCORE.INTRA.POLAR.0>
0

>  <SCORE.INTRA.REPUL>
0

>  <SCORE.INTRA.REPUL.0>
0

>  <SCORE.INTRA.SOLV>
0

>  <SCORE.INTRA.SOLV.lig_0>
-48.3454

>  <SCORE.INTRA.VDW>
0

>  <SCORE.INTRA.VDW.0>
0

>  <SCORE.INTRA.norm>
0

>  <SCORE.RESTR>
0

>  <SCORE.RESTR.CAVITY>
0

>  <SCORE.RESTR.norm>
0

>  <SCORE.SYSTEM>
0

>  <SCORE.SYSTEM.CONST>
0

>  <SCORE.SYSTEM.DIHEDRAL>
0

>  <SCORE.SYSTEM.SOLV>
0

>  <SCORE.SYSTEM.norm>
0

>  <SCORE.heavy>
11

>  <SCORE.norm>
-0.564654

>  <RMSD>
16.601

$$$$
ligand
 OpenBabel02271912153D
libRbt.so/2013.1/901 2013/11/27
 11 12  0  0  0  0  0  0  0  0999 V2000
  -26.6982  -11.1488    4.3947 N   0  0  0  0  0  0  0  0  0  0  0  0
  -27.3330  -11.5861    5.4940 C   0  0  0  0  0  0  0  0  0  0  0  0
  -27.4203  -12.8920    5.7308 N   0  0  0  0  0  0  0  0  0  0  0  0
  -27.8899  -10.7171    6.3518 N   0  0  0  0  0  0  0  0  0  0  0  0
  -27.8260   -9.3964    6.1264 C   0  0  0  0  0  0  0  0  0  0  0  0
  -27.1752   -8.9173    4.9966 C   0  0  0  0  0  0  0  0  0  0  0  0
  -26.6038   -9.8375    4.1239 C   0  0  0  0  0  0  0  0  0  0  0  0
  -25.9630   -9.4221    3.0353 N   0  0  0  0  0  0  0  0  0  0  0  0
  -27.2725   -7.5913    5.0108 N   0  0  0  0  0  0  0  0  0  0  0  0
  -27.9546   -7.2447    6.1001 C   0  0  0  0  0  0  0  0  0  0  0  0
  -28.2928   -8.3374    6.7815 N   0  0  0  0  0  0  0  0  0  0  0  0
  1  7  2  0  0  0  0
  1  2  1  0  0  0  0
  2  3  1  0  0  0  0
  2  4  2  0  0  0  0
  4  5  1  0  0  0  0
  5  6  2  0  0  0  0
  5 11  1  0  0  0  0
  6  7  1  0  0  0  0
  6  9  1  0  0  0  0
  7  8  1  0  0  0  0
  9 10  1  0  0  0  0
 10 11  2  0  0  0  0
M  END
>  <CHROM.1>
-27.30710898,-9.75900725,5.28030658,-1.32140894,1.02511626,-0.09124537

>  <Name>
ligand

>  <RI>
0

>  <Rbt.Current_Directory>
/home/itssahil/PROJECTS/Mol_Feturizer/Test_systems_manuscript/rnas/2b57

>  <Rbt.Executable>
rbdock ($Id: //depot/dev/client3/rdock/2013.1/src/exe/rbdock.cxx#4 $)

>  <Rbt.Library>
libRbt.so (2013.1, Build901 2013/11/27)

>  <Rbt.Parameter_File>
/export/apps/rDock/src/rDock_2013.1_src/data/scripts/dock_solv.prm

>  <Rbt.Receptor>
prm/blind_docking_60.prm

>  <SCORE>
-6.18446

>  <SCORE.INTER>
-6.18446

>  <SCORE.INTER.CONST>
1

>  <SCORE.INTER.POLAR>
0

>  <SCORE.INTER.ROT>
0

>  <SCORE.INTER.SOLV>
2.2876

>  <SCORE.INTER.VDW>
-8.48551

>  <SCORE.INTER.norm>
-0.562224

>  <SCORE.INTRA>
0

>  <SCORE.INTRA.DIHEDRAL>
0

>  <SCORE.INTRA.DIHEDRAL.0>
0

>  <SCORE.INTRA.POLAR>
0

>  <SCORE.INTRA.POLAR.0>
0

>  <SCORE.INTRA.REPUL>
0

>  <SCORE.INTRA.REPUL.0>
0

>  <SCORE.INTRA.SOLV>
0

>  <SCORE.INTRA.SOLV.lig_0>
-48.3454

>  <SCORE.INTRA.VDW>
0

>  <SCORE.INTRA.VDW.0>
0

>  <SCORE.INTRA.norm>
0

>  <SCORE.RESTR>
0

>  <SCORE.RESTR.CAVITY>
0

>  <SCORE.RESTR.norm>
0

>  <SCORE.SYSTEM>
0

>  <SCORE.SYSTEM.CONST>
0

>  <SCORE.SYSTEM.DIHEDRAL>
0

>  <SCORE.SYSTEM.SOLV>
0

>  <SCORE.SYSTEM.norm>
0

>  <SCORE.heavy>
11

>  <SCORE.norm>
-0.562224

>  <RMSD>
16.602

$$$$
ligand
 OpenBabel02271912153D
libRbt.so/2013.1/901 2013/11/27
 11 12  0  0  0  0  0  0  0  0999 V2000
  -26.1458  -10.9940    5.1411 N   0  0  0  0  0  0  0  0  0  0  0  0
  -25.8800  -10.1138    4.1627 C   0  0  0  0  0  0  0  0  0  0  0  0
  -24.9009   -9.2274    4.3198 N   0  0  0  0  0  0  0  0  0  0  0  0
  -26.6006  -10.1135    3.0305 N   0  0  0  0  0  0  0  0  0  0  0  0
  -27.6013  -10.9893    2.8557 C   0  0  0  0  0  0  0  0  0  0  0  0
  -27.8974  -11.9106    3.8523 C   0  0  0  0  0  0  0  0  0  0  0  0
  -27.1348  -11.8930    5.0154 C   0  0  0  0  0  0  0  0  0  0  0  0
  -27.3776  -12.7634    5.9908 N   0  0  0  0  0  0  0  0  0  0  0  0
  -28.9281  -12.6377    3.4316 N   0  0  0  0  0  0  0  0  0  0  0  0
  -29.2709  -12.1974    2.2231 C   0  0  0  0  0  0  0  0  0  0  0  0
  -28.4679  -11.1965    1.8684 N   0  0  0  0  0  0  0  0  0  0  0  0
  1  7  2  0  0  0  0
  1  2  1  0  0  0  0
  2  3  1  0  0  0  0
  2  4  2  0  0  0  0
  4  5  1  0  0  0  0
  5  6  2  0  0  0  0
  5 11  1  0  0  0  0
  6  7  1  0  0  0  0
  6  9  1  0  0  0  0
  7  8  1  0  0  0  0
  9 10  1  0  0  0  0
 10 11  2  0  0  0  0
M  END
>  <CHROM.1>
-27.27299459,-11.26603362,3.82122997,0.09622505,0.69317718,2.13967228

>  <Name>
ligand

>  <RI>
0

>  <Rbt.Current_Directory>
/home/itssahil/PROJECTS/Mol_Feturizer/Test_systems_manuscript/rnas/2b57

>  <Rbt.Executable>
rbdock ($Id: //depot/dev/client3/rdock/2013.1/src/exe/rbdock.cxx#4 $)

>  <Rbt.Library>
libRbt.so (2013.1, Build901 2013/11/27)

>  <Rbt.Parameter_File>
/export/apps/rDock/src/rDock_2013.1_src/data/scripts/dock_solv.prm

>  <Rbt.Receptor>
prm/blind_docking_60.prm

>  <SCORE>
-6.83073

>  <SCORE.INTER>
-6.83073

>  <SCORE.INTER.CONST>
1

>  <SCORE.INTER.POLAR>
0

>  <SCORE.INTER.ROT>
0

>  <SCORE.INTER.SOLV>
4.71441

>  <SCORE.INTER.VDW>
-9.72529

>  <SCORE.INTER.norm>
-0.620976

>  <SCORE.INTRA>
0

>  <SCORE.INTRA.DIHEDRAL>
0

>  <SCORE.INTRA.DIHEDRAL.0>
0

>  <SCORE.INTRA.POLAR>
0

>  <SCORE.INTRA.POLAR.0>
0

>  <SCORE.INTRA.REPUL>
0

>  <SCORE.INTRA.REPUL.0>
0

>  <SCORE.INTRA.SOLV>
0

>  <SCORE.INTRA.SOLV.lig_0>
-48.3454

>  <SCORE.INTRA.VDW>
0

>  <SCORE.INTRA.VDW.0>
0

>  <SCORE.INTRA.norm>
0

>  <SCORE.RESTR>
0

>  <SCORE.RESTR.CAVITY>
0

>  <SCORE.RESTR.norm>
0

>  <SCORE.SYSTEM>
0

>  <SCORE.SYSTEM.CONST>
0

>  <SCORE.SYSTEM.DIHEDRAL>
0

>  <SCORE.SYSTEM.SOLV>
0

>  <SCORE.SYSTEM.norm>
0

>  <SCORE.heavy>
11

>  <SCORE.norm>
-0.620976

>  <RMSD>
16.617

$$$$
ligand
 OpenBabel02271912153D
libRbt.so/2013.1/901 2013/11/27
 11 12  0  0  0  0  0  0  0  0999 V2000
  -26.2170  -10.9382    5.2750 N   0  0  0  0  0  0  0  0  0  0  0  0
  -25.9730  -10.1034    4.2521 C   0  0  0  0  0  0  0  0  0  0  0  0
  -25.0272   -9.1755    4.3681 N   0  0  0  0  0  0  0  0  0  0  0  0
  -26.6824  -10.1901    3.1162 N   0  0  0  0  0  0  0  0  0  0  0  0
  -27.6500  -11.1092    2.9817 C   0  0  0  0  0  0  0  0  0  0  0  0
  -27.9229  -11.9851    4.0247 C   0  0  0  0  0  0  0  0  0  0  0  0
  -27.1725  -11.8773    5.1909 C   0  0  0  0  0  0  0  0  0  0  0  0
  -27.3939  -12.7017    6.2105 N   0  0  0  0  0  0  0  0  0  0  0  0
  -28.9234  -12.7702    3.6365 N   0  0  0  0  0  0  0  0  0  0  0  0
  -29.2700  -12.4085    2.4032 C   0  0  0  0  0  0  0  0  0  0  0  0
  -28.4993  -11.4003    2.0006 N   0  0  0  0  0  0  0  0  0  0  0  0
  1  7  2  0  0  0  0
  1  2  1  0  0  0  0
  2  3  1  0  0  0  0
  2  4  2  0  0  0  0
  4  5  1  0  0  0  0
  5  6  2  0  0  0  0
  5 11  1  0  0  0  0
  6  7  1  0  0  0  0
  6  9  1  0  0  0  0
  7  8  1  0  0  0  0
  9 10  1  0  0  0  0
 10 11  2  0  0  0  0
M  END
>  <CHROM.1>
-27.32133835,-11.32131445,3.96334937,0.08160656,0.72788115,2.09481782

>  <Name>
ligand

>  <RI>
0

>  <Rbt.Current_Directory>
/home/itssahil/PROJECTS/Mol_Feturizer/Test_systems_manuscript/rnas/2b57

>  <Rbt.Executable>
rbdock ($Id: //depot/dev/client3/rdock/2013.1/src/exe/rbdock.cxx#4 $)

>  <Rbt.Library>
libRbt.so (2013.1, Build901 2013/11/27)

>  <Rbt.Parameter_File>
/export/apps/rDock/src/rDock_2013.1_src/data/scripts/dock_solv.prm

>  <Rbt.Receptor>
prm/blind_docking_100.prm

>  <SCORE>
-6.50286

>  <SCORE.INTER>
-6.50301

>  <SCORE.INTER.CONST>
1

>  <SCORE.INTER.POLAR>
0

>  <SCORE.INTER.ROT>
0

>  <SCORE.INTER.SOLV>
4.19335

>  <SCORE.INTER.VDW>
-9.33313

>  <SCORE.INTER.norm>
-0.591183

>  <SCORE.INTRA>
0

>  <SCORE.INTRA.DIHEDRAL>
0

>  <SCORE.INTRA.DIHEDRAL.0>
0

>  <SCORE.INTRA.POLAR>
0

>  <SCORE.INTRA.POLAR.0>
0

>  <SCORE.INTRA.REPUL>
0

>  <SCORE.INTRA.REPUL.0>
0

>  <SCORE.INTRA.SOLV>
0

>  <SCORE.INTRA.SOLV.lig_0>
-48.3454

>  <SCORE.INTRA.VDW>
0

>  <SCORE.INTRA.VDW.0>
0

>  <SCORE.INTRA.norm>
0

>  <SCORE.RESTR>
0.000152992

>  <SCORE.RESTR.CAVITY>
0.000152992

>  <SCORE.RESTR.norm>
1.39084e-05

>  <SCORE.SYSTEM>
0

>  <SCORE.SYSTEM.CONST>
0

>  <SCORE.SYSTEM.DIHEDRAL>
0

>  <SCORE.SYSTEM.SOLV>
0

>  <SCORE.SYSTEM.norm>
0

>  <SCORE.heavy>
11

>  <SCORE.norm>
-0.591169

>  <RMSD>
16.623

$$$$
ligand
 OpenBabel02271912153D
libRbt.so/2013.1/901 2013/11/27
 11 12  0  0  0  0  0  0  0  0999 V2000
  -26.6229  -12.0793    5.3195 N   0  0  0  0  0  0  0  0  0  0  0  0
  -27.3838  -13.1855    5.3321 C   0  0  0  0  0  0  0  0  0  0  0  0
  -27.2467  -14.0703    6.3156 N   0  0  0  0  0  0  0  0  0  0  0  0
  -28.2751  -13.4120    4.3546 N   0  0  0  0  0  0  0  0  0  0  0  0
  -28.4210  -12.5404    3.3457 C   0  0  0  0  0  0  0  0  0  0  0  0
  -27.6463  -11.3880    3.3085 C   0  0  0  0  0  0  0  0  0  0  0  0
  -26.7314  -11.1742    4.3341 C   0  0  0  0  0  0  0  0  0  0  0  0
  -25.9763  -10.0796    4.3430 N   0  0  0  0  0  0  0  0  0  0  0  0
  -27.9785  -10.7178    2.2092 N   0  0  0  0  0  0  0  0  0  0  0  0
  -28.9211  -11.4136    1.5772 C   0  0  0  0  0  0  0  0  0  0  0  0
  -29.1938  -12.5213    2.2635 N   0  0  0  0  0  0  0  0  0  0  0  0
  1  7  2  0  0  0  0
  1  2  1  0  0  0  0
  2  3  1  0  0  0  0
  2  4  2  0  0  0  0
  4  5  1  0  0  0  0
  5  6  2  0  0  0  0
  5 11  1  0  0  0  0
  6  7  1  0  0  0  0
  6  9  1  0  0  0  0
  7  8  1  0  0  0  0
  9 10  1  0  0  0  0
 10 11  2  0  0  0  0
M  END
>  <CHROM.1>
-27.66218491,-12.06070037,3.90307119,-1.07708263,-0.77962834,-0.75053048

>  <Name>
ligand

>  <RI>
0

>  <Rbt.Current_Directory>
/home/itssahil/PROJECTS/Mol_Feturizer/Test_systems_manuscript/rnas/2b57

>  <Rbt.Executable>
rbdock ($Id: //depot/dev/client3/rdock/2013.1/src/exe/rbdock.cxx#4 $)

>  <Rbt.Library>
libRbt.so (2013.1, Build901 2013/11/27)

>  <Rbt.Parameter_File>
/export/apps/rDock/src/rDock_2013.1_src/data/scripts/dock_solv.prm

>  <Rbt.Receptor>
prm/blind_docking_80.prm

>  <SCORE>
-7.34773

>  <SCORE.INTER>
-7.34773

>  <SCORE.INTER.CONST>
1

>  <SCORE.INTER.POLAR>
0

>  <SCORE.INTER.ROT>
0

>  <SCORE.INTER.SOLV>
5.51321

>  <SCORE.INTER.VDW>
-10.3362

>  <SCORE.INTER.norm>
-0.667975

>  <SCORE.INTRA>
0

>  <SCORE.INTRA.DIHEDRAL>
0

>  <SCORE.INTRA.DIHEDRAL.0>
0

>  <SCORE.INTRA.POLAR>
0

>  <SCORE.INTRA.POLAR.0>
0

>  <SCORE.INTRA.REPUL>
0

>  <SCORE.INTRA.REPUL.0>
0

>  <SCORE.INTRA.SOLV>
0

>  <SCORE.INTRA.SOLV.lig_0>
-48.3454

>  <SCORE.INTRA.VDW>
0

>  <SCORE.INTRA.VDW.0>
0

>  <SCORE.INTRA.norm>
0

>  <SCORE.RESTR>
0

>  <SCORE.RESTR.CAVITY>
0

>  <SCORE.RESTR.norm>
0

>  <SCORE.SYSTEM>
0

>  <SCORE.SYSTEM.CONST>
0

>  <SCORE.SYSTEM.DIHEDRAL>
0

>  <SCORE.SYSTEM.SOLV>
0

>  <SCORE.SYSTEM.norm>
0

>  <SCORE.heavy>
11

>  <SCORE.norm>
-0.667975

>  <RMSD>
16.707

$$$$
ligand
 OpenBabel02271912153D
libRbt.so/2013.1/901 2013/11/27
 11 12  0  0  0  0  0  0  0  0999 V2000
  -26.6672  -12.1112    5.3911 N   0  0  0  0  0  0  0  0  0  0  0  0
  -27.4367  -13.2114    5.3799 C   0  0  0  0  0  0  0  0  0  0  0  0
  -27.3250  -14.1055    6.3582 N   0  0  0  0  0  0  0  0  0  0  0  0
  -28.3114  -13.4224    4.3841 N   0  0  0  0  0  0  0  0  0  0  0  0
  -28.4316  -12.5412    3.3802 C   0  0  0  0  0  0  0  0  0  0  0  0
  -27.6473  -11.3947    3.3674 C   0  0  0  0  0  0  0  0  0  0  0  0
  -26.7500  -11.1969    4.4116 C   0  0  0  0  0  0  0  0  0  0  0  0
  -25.9868  -10.1086    4.4441 N   0  0  0  0  0  0  0  0  0  0  0  0
  -27.9537  -10.7126    2.2679 N   0  0  0  0  0  0  0  0  0  0  0  0
  -28.8896  -11.3955    1.6124 C   0  0  0  0  0  0  0  0  0  0  0  0
  -29.1838  -12.5068    2.2840 N   0  0  0  0  0  0  0  0  0  0  0  0
  1  7  2  0  0  0  0
  1  2  1  0  0  0  0
  2  3  1  0  0  0  0
  2  4  2  0  0  0  0
  4  5  1  0  0  0  0
  5  6  2  0  0  0  0
  5 11  1  0  0  0  0
  6  7  1  0  0  0  0
  6  9  1  0  0  0  0
  7  8  1  0  0  0  0
  9 10  1  0  0  0  0
 10 11  2  0  0  0  0
M  END
>  <CHROM.1>
-27.67955037,-12.07231271,3.95569027,-1.10326865,-0.78780923,-0.76047701

>  <Name>
ligand

>  <RI>
0

>  <Rbt.Current_Directory>
/home/itssahil/PROJECTS/Mol_Feturizer/Test_systems_manuscript/rnas/2b57

>  <Rbt.Executable>
rbdock ($Id: //depot/dev/client3/rdock/2013.1/src/exe/rbdock.cxx#4 $)

>  <Rbt.Library>
libRbt.so (2013.1, Build901 2013/11/27)

>  <Rbt.Parameter_File>
/export/apps/rDock/src/rDock_2013.1_src/data/scripts/dock_solv.prm

>  <Rbt.Receptor>
prm/blind_docking_80.prm

>  <SCORE>
-7.34987

>  <SCORE.INTER>
-7.34987

>  <SCORE.INTER.CONST>
1

>  <SCORE.INTER.POLAR>
0

>  <SCORE.INTER.ROT>
0

>  <SCORE.INTER.SOLV>
5.15693

>  <SCORE.INTER.VDW>
-10.2189

>  <SCORE.INTER.norm>
-0.66817

>  <SCORE.INTRA>
0

>  <SCORE.INTRA.DIHEDRAL>
0

>  <SCORE.INTRA.DIHEDRAL.0>
0

>  <SCORE.INTRA.POLAR>
0

>  <SCORE.INTRA.POLAR.0>
0

>  <SCORE.INTRA.REPUL>
0

>  <SCORE.INTRA.REPUL.0>
0

>  <SCORE.INTRA.SOLV>
0

>  <SCORE.INTRA.SOLV.lig_0>
-48.3454

>  <SCORE.INTRA.VDW>
0

>  <SCORE.INTRA.VDW.0>
0

>  <SCORE.INTRA.norm>
0

>  <SCORE.RESTR>
0

>  <SCORE.RESTR.CAVITY>
0

>  <SCORE.RESTR.norm>
0

>  <SCORE.SYSTEM>
0

>  <SCORE.SYSTEM.CONST>
0

>  <SCORE.SYSTEM.DIHEDRAL>
0

>  <SCORE.SYSTEM.SOLV>
0

>  <SCORE.SYSTEM.norm>
0

>  <SCORE.heavy>
11

>  <SCORE.norm>
-0.66817

>  <RMSD>
16.709

$$$$
ligand
 OpenBabel02271912153D
libRbt.so/2013.1/901 2013/11/27
 11 12  0  0  0  0  0  0  0  0999 V2000
  -26.6479  -12.0889    5.3516 N   0  0  0  0  0  0  0  0  0  0  0  0
  -27.4073  -13.1962    5.3478 C   0  0  0  0  0  0  0  0  0  0  0  0
  -27.2787  -14.0886    6.3256 N   0  0  0  0  0  0  0  0  0  0  0  0
  -28.2886  -13.4161    4.3599 N   0  0  0  0  0  0  0  0  0  0  0  0
  -28.4258  -12.5366    3.3565 C   0  0  0  0  0  0  0  0  0  0  0  0
  -27.6524  -11.3829    3.3362 C   0  0  0  0  0  0  0  0  0  0  0  0
  -26.7479  -11.1761    4.3725 C   0  0  0  0  0  0  0  0  0  0  0  0
  -25.9945  -10.0807    4.3975 N   0  0  0  0  0  0  0  0  0  0  0  0
  -27.9747  -10.7044    2.2390 N   0  0  0  0  0  0  0  0  0  0  0  0
  -28.9099  -11.3965    1.5922 C   0  0  0  0  0  0  0  0  0  0  0  0
  -29.1879  -12.5100    2.2670 N   0  0  0  0  0  0  0  0  0  0  0  0
  1  7  2  0  0  0  0
  1  2  1  0  0  0  0
  2  3  1  0  0  0  0
  2  4  2  0  0  0  0
  4  5  1  0  0  0  0
  5  6  2  0  0  0  0
  5 11  1  0  0  0  0
  6  7  1  0  0  0  0
  6  9  1  0  0  0  0
  7  8  1  0  0  0  0
  9 10  1  0  0  0  0
 10 11  2  0  0  0  0
M  END
>  <CHROM.1>
-27.67317778,-12.06041141,3.92517277,-1.08517490,-0.78778650,-0.74827193

>  <Name>
ligand

>  <RI>
0

>  <Rbt.Current_Directory>
/home/itssahil/PROJECTS/Mol_Feturizer/Test_systems_manuscript/rnas/2b57

>  <Rbt.Executable>
rbdock ($Id: //depot/dev/client3/rdock/2013.1/src/exe/rbdock.cxx#4 $)

>  <Rbt.Library>
libRbt.so (2013.1, Build901 2013/11/27)

>  <Rbt.Parameter_File>
/export/apps/rDock/src/rDock_2013.1_src/data/scripts/dock_solv.prm

>  <Rbt.Receptor>
prm/blind_docking_60.prm

>  <SCORE>
-7.33967

>  <SCORE.INTER>
-7.33978

>  <SCORE.INTER.CONST>
1

>  <SCORE.INTER.POLAR>
0

>  <SCORE.INTER.ROT>
0

>  <SCORE.INTER.SOLV>
5.25907

>  <SCORE.INTER.VDW>
-10.2462

>  <SCORE.INTER.norm>
-0.667253

>  <SCORE.INTRA>
0

>  <SCORE.INTRA.DIHEDRAL>
0

>  <SCORE.INTRA.DIHEDRAL.0>
0

>  <SCORE.INTRA.POLAR>
0

>  <SCORE.INTRA.POLAR.0>
0

>  <SCORE.INTRA.REPUL>
0

>  <SCORE.INTRA.REPUL.0>
0

>  <SCORE.INTRA.SOLV>
0

>  <SCORE.INTRA.SOLV.lig_0>
-48.3454

>  <SCORE.INTRA.VDW>
0

>  <SCORE.INTRA.VDW.0>
0

>  <SCORE.INTRA.norm>
0

>  <SCORE.RESTR>
0.000107318

>  <SCORE.RESTR.CAVITY>
0.000107318

>  <SCORE.RESTR.norm>
9.75616e-06

>  <SCORE.SYSTEM>
0

>  <SCORE.SYSTEM.CONST>
0

>  <SCORE.SYSTEM.DIHEDRAL>
0

>  <SCORE.SYSTEM.SOLV>
0

>  <SCORE.SYSTEM.norm>
0

>  <SCORE.heavy>
11

>  <SCORE.norm>
-0.667243

>  <RMSD>
16.711

$$$$
ligand
 OpenBabel02271912153D
libRbt.so/2013.1/901 2013/11/27
 11 12  0  0  0  0  0  0  0  0999 V2000
  -28.7248  -12.8732    3.3597 N   0  0  0  0  0  0  0  0  0  0  0  0
  -28.9011  -12.1249    2.2590 C   0  0  0  0  0  0  0  0  0  0  0  0
  -29.8279  -12.4677    1.3688 N   0  0  0  0  0  0  0  0  0  0  0  0
  -28.1428  -11.0388    2.0433 N   0  0  0  0  0  0  0  0  0  0  0  0
  -27.1931  -10.6817    2.9205 C   0  0  0  0  0  0  0  0  0  0  0  0
  -26.9898  -11.4385    4.0675 C   0  0  0  0  0  0  0  0  0  0  0  0
  -27.7899  -12.5582    4.2701 C   0  0  0  0  0  0  0  0  0  0  0  0
  -27.6358  -13.3054    5.3591 N   0  0  0  0  0  0  0  0  0  0  0  0
  -25.9924  -10.8782    4.7451 N   0  0  0  0  0  0  0  0  0  0  0  0
  -25.5810   -9.8143    4.0589 C   0  0  0  0  0  0  0  0  0  0  0  0
  -26.3073   -9.6902    2.9501 N   0  0  0  0  0  0  0  0  0  0  0  0
  1  7  2  0  0  0  0
  1  2  1  0  0  0  0
  2  3  1  0  0  0  0
  2  4  2  0  0  0  0
  4  5  1  0  0  0  0
  5  6  2  0  0  0  0
  5 11  1  0  0  0  0
  6  7  1  0  0  0  0
  6  9  1  0  0  0  0
  7  8  1  0  0  0  0
  9 10  1  0  0  0  0
 10 11  2  0  0  0  0
M  END
>  <CHROM.1>
-27.57142672,-11.54828185,3.39222860,-3.12945596,-0.72518688,-0.86098803

>  <Name>
ligand

>  <RI>
0

>  <Rbt.Current_Directory>
/home/itssahil/PROJECTS/Mol_Feturizer/Test_systems_manuscript/rnas/2b57

>  <Rbt.Executable>
rbdock ($Id: //depot/dev/client3/rdock/2013.1/src/exe/rbdock.cxx#4 $)

>  <Rbt.Library>
libRbt.so (2013.1, Build901 2013/11/27)

>  <Rbt.Parameter_File>
/export/apps/rDock/src/rDock_2013.1_src/data/scripts/dock_solv.prm

>  <Rbt.Receptor>
prm/blind_docking_60.prm

>  <SCORE>
-5.5644

>  <SCORE.INTER>
-5.5644

>  <SCORE.INTER.CONST>
1

>  <SCORE.INTER.POLAR>
0

>  <SCORE.INTER.ROT>
0

>  <SCORE.INTER.SOLV>
9.0103

>  <SCORE.INTER.VDW>
-10.313

>  <SCORE.INTER.norm>
-0.505855

>  <SCORE.INTRA>
0

>  <SCORE.INTRA.DIHEDRAL>
0

>  <SCORE.INTRA.DIHEDRAL.0>
0

>  <SCORE.INTRA.POLAR>
0

>  <SCORE.INTRA.POLAR.0>
0

>  <SCORE.INTRA.REPUL>
0

>  <SCORE.INTRA.REPUL.0>
0

>  <SCORE.INTRA.SOLV>
0

>  <SCORE.INTRA.SOLV.lig_0>
-48.3454

>  <SCORE.INTRA.VDW>
0

>  <SCORE.INTRA.VDW.0>
0

>  <SCORE.INTRA.norm>
0

>  <SCORE.RESTR>
0

>  <SCORE.RESTR.CAVITY>
0

>  <SCORE.RESTR.norm>
0

>  <SCORE.SYSTEM>
0

>  <SCORE.SYSTEM.CONST>
0

>  <SCORE.SYSTEM.DIHEDRAL>
0

>  <SCORE.SYSTEM.SOLV>
0

>  <SCORE.SYSTEM.norm>
0

>  <SCORE.heavy>
11

>  <SCORE.norm>
-0.505855

>  <RMSD>
17.021

$$$$
ligand
 OpenBabel02271912153D
libRbt.so/2013.1/901 2013/11/27
 11 12  0  0  0  0  0  0  0  0999 V2000
  -26.8092   -9.5741    3.3187 N   0  0  0  0  0  0  0  0  0  0  0  0
  -27.0815   -8.3066    2.9692 C   0  0  0  0  0  0  0  0  0  0  0  0
  -26.8943   -7.9133    1.7125 N   0  0  0  0  0  0  0  0  0  0  0  0
  -27.5317   -7.4292    3.8795 N   0  0  0  0  0  0  0  0  0  0  0  0
  -27.7151   -7.7999    5.1554 C   0  0  0  0  0  0  0  0  0  0  0  0
  -27.4410   -9.1052    5.5437 C   0  0  0  0  0  0  0  0  0  0  0  0
  -26.9779   -9.9967    4.5816 C   0  0  0  0  0  0  0  0  0  0  0  0
  -26.7122  -11.2581    4.9077 N   0  0  0  0  0  0  0  0  0  0  0  0
  -27.6920   -9.1963    6.8462 N   0  0  0  0  0  0  0  0  0  0  0  0
  -28.1062   -8.0028    7.2657 C   0  0  0  0  0  0  0  0  0  0  0  0
  -28.1225   -7.1511    6.2425 N   0  0  0  0  0  0  0  0  0  0  0  0
  1  7  2  0  0  0  0
  1  2  1  0  0  0  0
  2  3  1  0  0  0  0
  2  4  2  0  0  0  0
  4  5  1  0  0  0  0
  5  6  2  0  0  0  0
  5 11  1  0  0  0  0
  6  7  1  0  0  0  0
  6  9  1  0  0  0  0
  7  8  1  0  0  0  0
  9 10  1  0  0  0  0
 10 11  2  0  0  0  0
M  END
>  <CHROM.1>
-27.36478212,-8.70724615,4.74232602,-0.80629567,-1.23283770,2.25592319

>  <Name>
ligand

>  <RI>
0

>  <Rbt.Current_Directory>
/home/itssahil/PROJECTS/Mol_Feturizer/Test_systems_manuscript/rnas/2b57

>  <Rbt.Executable>
rbdock ($Id: //depot/dev/client3/rdock/2013.1/src/exe/rbdock.cxx#4 $)

>  <Rbt.Library>
libRbt.so (2013.1, Build901 2013/11/27)

>  <Rbt.Parameter_File>
/export/apps/rDock/src/rDock_2013.1_src/data/scripts/dock_solv.prm

>  <Rbt.Receptor>
prm/blind_docking_100.prm

>  <SCORE>
-5.85096

>  <SCORE.INTER>
-5.85104

>  <SCORE.INTER.CONST>
1

>  <SCORE.INTER.POLAR>
0

>  <SCORE.INTER.ROT>
0

>  <SCORE.INTER.SOLV>
6.77348

>  <SCORE.INTER.VDW>
-9.75852

>  <SCORE.INTER.norm>
-0.531913

>  <SCORE.INTRA>
0

>  <SCORE.INTRA.DIHEDRAL>
0

>  <SCORE.INTRA.DIHEDRAL.0>
0

>  <SCORE.INTRA.POLAR>
0

>  <SCORE.INTRA.POLAR.0>
0

>  <SCORE.INTRA.REPUL>
0

>  <SCORE.INTRA.REPUL.0>
0

>  <SCORE.INTRA.SOLV>
0

>  <SCORE.INTRA.SOLV.lig_0>
-48.3454

>  <SCORE.INTRA.VDW>
0

>  <SCORE.INTRA.VDW.0>
0

>  <SCORE.INTRA.norm>
0

>  <SCORE.RESTR>
7.59379e-05

>  <SCORE.RESTR.CAVITY>
7.59379e-05

>  <SCORE.RESTR.norm>
6.90344e-06

>  <SCORE.SYSTEM>
0

>  <SCORE.SYSTEM.CONST>
0

>  <SCORE.SYSTEM.DIHEDRAL>
0

>  <SCORE.SYSTEM.SOLV>
0

>  <SCORE.SYSTEM.norm>
0

>  <SCORE.heavy>
11

>  <SCORE.norm>
-0.531906

>  <RMSD>
17.222

$$$$
ligand
 OpenBabel02271912153D
libRbt.so/2013.1/901 2013/11/27
 11 12  0  0  0  0  0  0  0  0999 V2000
  -24.6064  -22.5818   10.9388 N   0  0  0  0  0  0  0  0  0  0  0  0
  -24.0215  -23.3961   10.0458 C   0  0  0  0  0  0  0  0  0  0  0  0
  -24.0002  -23.0590    8.7593 N   0  0  0  0  0  0  0  0  0  0  0  0
  -23.4665  -24.5533   10.4383 N   0  0  0  0  0  0  0  0  0  0  0  0
  -23.4879  -24.9200   11.7282 C   0  0  0  0  0  0  0  0  0  0  0  0
  -24.0868  -24.0960   12.6727 C   0  0  0  0  0  0  0  0  0  0  0  0
  -24.6529  -22.9008   12.2419 C   0  0  0  0  0  0  0  0  0  0  0  0
  -25.2280  -22.0776   13.1136 N   0  0  0  0  0  0  0  0  0  0  0  0
  -23.9813  -24.6982   13.8535 N   0  0  0  0  0  0  0  0  0  0  0  0
  -23.3448  -25.8523   13.6667 C   0  0  0  0  0  0  0  0  0  0  0  0
  -23.0425  -25.9917   12.3776 N   0  0  0  0  0  0  0  0  0  0  0  0
  1  7  2  0  0  0  0
  1  2  1  0  0  0  0
  2  3  1  0  0  0  0
  2  4  2  0  0  0  0
  4  5  1  0  0  0  0
  5  6  2  0  0  0  0
  5 11  1  0  0  0  0
  6  7  1  0  0  0  0
  6  9  1  0  0  0  0
  7  8  1  0  0  0  0
  9 10  1  0  0  0  0
 10 11  2  0  0  0  0
M  END
>  <CHROM.1>
-23.99773827,-23.99618750,11.78475120,1.87756995,1.06493945,-1.26397799

>  <Name>
ligand

>  <RI>
0

>  <Rbt.Current_Directory>
/home/itssahil/PROJECTS/Mol_Feturizer/Test_systems_manuscript/rnas/2b57

>  <Rbt.Executable>
rbdock ($Id: //depot/dev/client3/rdock/2013.1/src/exe/rbdock.cxx#4 $)

>  <Rbt.Library>
libRbt.so (2013.1, Build901 2013/11/27)

>  <Rbt.Parameter_File>
/export/apps/rDock/src/rDock_2013.1_src/data/scripts/dock_solv.prm

>  <Rbt.Receptor>
prm/blind_docking_40.prm

>  <SCORE>
-5.52078

>  <SCORE.INTER>
-5.52078

>  <SCORE.INTER.CONST>
1

>  <SCORE.INTER.POLAR>
0

>  <SCORE.INTER.ROT>
0

>  <SCORE.INTER.SOLV>
5.04775

>  <SCORE.INTER.VDW>
-8.96311

>  <SCORE.INTER.norm>
-0.501889

>  <SCORE.INTRA>
0

>  <SCORE.INTRA.DIHEDRAL>
0

>  <SCORE.INTRA.DIHEDRAL.0>
0

>  <SCORE.INTRA.POLAR>
0

>  <SCORE.INTRA.POLAR.0>
0

>  <SCORE.INTRA.REPUL>
0

>  <SCORE.INTRA.REPUL.0>
0

>  <SCORE.INTRA.SOLV>
0

>  <SCORE.INTRA.SOLV.lig_0>
-48.3454

>  <SCORE.INTRA.VDW>
0

>  <SCORE.INTRA.VDW.0>
0

>  <SCORE.INTRA.norm>
0

>  <SCORE.RESTR>
0

>  <SCORE.RESTR.CAVITY>
0

>  <SCORE.RESTR.norm>
0

>  <SCORE.SYSTEM>
0

>  <SCORE.SYSTEM.CONST>
0

>  <SCORE.SYSTEM.DIHEDRAL>
0

>  <SCORE.SYSTEM.SOLV>
0

>  <SCORE.SYSTEM.norm>
0

>  <SCORE.heavy>
11

>  <SCORE.norm>
-0.501889

>  <RMSD>
17.295

$$$$
ligand
 OpenBabel02271912153D
libRbt.so/2013.1/901 2013/11/27
 11 12  0  0  0  0  0  0  0  0999 V2000
  -28.0092  -15.9233    4.2475 N   0  0  0  0  0  0  0  0  0  0  0  0
  -27.7350  -15.1217    5.2892 C   0  0  0  0  0  0  0  0  0  0  0  0
  -27.3371  -15.6507    6.4428 N   0  0  0  0  0  0  0  0  0  0  0  0
  -27.8688  -13.7908    5.1800 N   0  0  0  0  0  0  0  0  0  0  0  0
  -28.2815  -13.2362    4.0307 C   0  0  0  0  0  0  0  0  0  0  0  0
  -28.5719  -14.0427    2.9376 C   0  0  0  0  0  0  0  0  0  0  0  0
  -28.4232  -15.4189    3.0744 C   0  0  0  0  0  0  0  0  0  0  0  0
  -28.6810  -16.2272    2.0506 N   0  0  0  0  0  0  0  0  0  0  0  0
  -28.9673  -13.2478    1.9477 N   0  0  0  0  0  0  0  0  0  0  0  0
  -28.9300  -11.9938    2.3926 C   0  0  0  0  0  0  0  0  0  0  0  0
  -28.5136  -11.9811    3.6571 N   0  0  0  0  0  0  0  0  0  0  0  0
  1  7  2  0  0  0  0
  1  2  1  0  0  0  0
  2  3  1  0  0  0  0
  2  4  2  0  0  0  0
  4  5  1  0  0  0  0
  5  6  2  0  0  0  0
  5 11  1  0  0  0  0
  6  7  1  0  0  0  0
  6  9  1  0  0  0  0
  7  8  1  0  0  0  0
  9 10  1  0  0  0  0
 10 11  2  0  0  0  0
M  END
>  <CHROM.1>
-28.29569572,-14.25863902,3.76422715,0.53303607,1.25150534,-2.89440957

>  <Name>
ligand

>  <RI>
0

>  <Rbt.Current_Directory>
/home/itssahil/PROJECTS/Mol_Feturizer/Test_systems_manuscript/rnas/2b57

>  <Rbt.Executable>
rbdock ($Id: //depot/dev/client3/rdock/2013.1/src/exe/rbdock.cxx#4 $)

>  <Rbt.Library>
libRbt.so (2013.1, Build901 2013/11/27)

>  <Rbt.Parameter_File>
/export/apps/rDock/src/rDock_2013.1_src/data/scripts/dock_solv.prm

>  <Rbt.Receptor>
prm/blind_docking_100.prm

>  <SCORE>
-5.02423

>  <SCORE.INTER>
-5.02423

>  <SCORE.INTER.CONST>
1

>  <SCORE.INTER.POLAR>
0

>  <SCORE.INTER.ROT>
0

>  <SCORE.INTER.SOLV>
5.56787

>  <SCORE.INTER.VDW>
-8.80544

>  <SCORE.INTER.norm>
-0.456748

>  <SCORE.INTRA>
0

>  <SCORE.INTRA.DIHEDRAL>
0

>  <SCORE.INTRA.DIHEDRAL.0>
0

>  <SCORE.INTRA.POLAR>
0

>  <SCORE.INTRA.POLAR.0>
0

>  <SCORE.INTRA.REPUL>
0

>  <SCORE.INTRA.REPUL.0>
0

>  <SCORE.INTRA.SOLV>
0

>  <SCORE.INTRA.SOLV.lig_0>
-48.3454

>  <SCORE.INTRA.VDW>
0

>  <SCORE.INTRA.VDW.0>
0

>  <SCORE.INTRA.norm>
0

>  <SCORE.RESTR>
0

>  <SCORE.RESTR.CAVITY>
0

>  <SCORE.RESTR.norm>
0

>  <SCORE.SYSTEM>
0

>  <SCORE.SYSTEM.CONST>
0

>  <SCORE.SYSTEM.DIHEDRAL>
0

>  <SCORE.SYSTEM.SOLV>
0

>  <SCORE.SYSTEM.norm>
0

>  <SCORE.heavy>
11

>  <SCORE.norm>
-0.456748

>  <RMSD>
17.463

$$$$
ligand
 OpenBabel02271912153D
libRbt.so/2013.1/901 2013/11/27
 11 12  0  0  0  0  0  0  0  0999 V2000
  -28.0061  -13.6164   11.3327 N   0  0  0  0  0  0  0  0  0  0  0  0
  -27.7805  -12.3015   11.4838 C   0  0  0  0  0  0  0  0  0  0  0  0
  -27.3923  -11.5738   10.4404 N   0  0  0  0  0  0  0  0  0  0  0  0
  -27.9333  -11.7160   12.6817 N   0  0  0  0  0  0  0  0  0  0  0  0
  -28.3110  -12.4325   13.7508 C   0  0  0  0  0  0  0  0  0  0  0  0
  -28.5508  -13.7947   13.6220 C   0  0  0  0  0  0  0  0  0  0  0  0
  -28.3881  -14.3782   12.3699 C   0  0  0  0  0  0  0  0  0  0  0  0
  -28.6163  -15.6771   12.1996 N   0  0  0  0  0  0  0  0  0  0  0  0
  -28.8915  -14.2562   14.8216 N   0  0  0  0  0  0  0  0  0  0  0  0
  -28.8684  -13.2332   15.6731 C   0  0  0  0  0  0  0  0  0  0  0  0
  -28.5168  -12.1231   15.0277 N   0  0  0  0  0  0  0  0  0  0  0  0
  1  7  2  0  0  0  0
  1  2  1  0  0  0  0
  2  3  1  0  0  0  0
  2  4  2  0  0  0  0
  4  5  1  0  0  0  0
  5  6  2  0  0  0  0
  5 11  1  0  0  0  0
  6  7  1  0  0  0  0
  6  9  1  0  0  0  0
  7  8  1  0  0  0  0
  9 10  1  0  0  0  0
 10 11  2  0  0  0  0
M  END
>  <CHROM.1>
-28.29011272,-13.18859658,13.01287155,0.48693682,-1.28265829,-2.39855369

>  <Name>
ligand

>  <RI>
0

>  <Rbt.Current_Directory>
/home/itssahil/PROJECTS/Mol_Feturizer/Test_systems_manuscript/rnas/2b57

>  <Rbt.Executable>
rbdock ($Id: //depot/dev/client3/rdock/2013.1/src/exe/rbdock.cxx#4 $)

>  <Rbt.Library>
libRbt.so (2013.1, Build901 2013/11/27)

>  <Rbt.Parameter_File>
/export/apps/rDock/src/rDock_2013.1_src/data/scripts/dock_solv.prm

>  <Rbt.Receptor>
prm/blind_docking_40.prm

>  <SCORE>
-4.98871

>  <SCORE.INTER>
-4.98871

>  <SCORE.INTER.CONST>
1

>  <SCORE.INTER.POLAR>
0

>  <SCORE.INTER.ROT>
0

>  <SCORE.INTER.SOLV>
4.23173

>  <SCORE.INTER.VDW>
-8.33638

>  <SCORE.INTER.norm>
-0.453519

>  <SCORE.INTRA>
0

>  <SCORE.INTRA.DIHEDRAL>
0

>  <SCORE.INTRA.DIHEDRAL.0>
0

>  <SCORE.INTRA.POLAR>
0

>  <SCORE.INTRA.POLAR.0>
0

>  <SCORE.INTRA.REPUL>
0

>  <SCORE.INTRA.REPUL.0>
0

>  <SCORE.INTRA.SOLV>
0

>  <SCORE.INTRA.SOLV.lig_0>
-48.3454

>  <SCORE.INTRA.VDW>
0

>  <SCORE.INTRA.VDW.0>
0

>  <SCORE.INTRA.norm>
0

>  <SCORE.RESTR>
0

>  <SCORE.RESTR.CAVITY>
0

>  <SCORE.RESTR.norm>
0

>  <SCORE.SYSTEM>
0

>  <SCORE.SYSTEM.CONST>
0

>  <SCORE.SYSTEM.DIHEDRAL>
0

>  <SCORE.SYSTEM.SOLV>
0

>  <SCORE.SYSTEM.norm>
0

>  <SCORE.heavy>
11

>  <SCORE.norm>
-0.453519

>  <RMSD>
18.021

$$$$
ligand
 OpenBabel02271912153D
libRbt.so/2013.1/901 2013/11/27
 11 12  0  0  0  0  0  0  0  0999 V2000
  -28.1858  -13.6887   11.3968 N   0  0  0  0  0  0  0  0  0  0  0  0
  -27.9004  -12.3810   11.5026 C   0  0  0  0  0  0  0  0  0  0  0  0
  -27.5367  -11.6950   10.4227 N   0  0  0  0  0  0  0  0  0  0  0  0
  -27.9687  -11.7614   12.6910 N   0  0  0  0  0  0  0  0  0  0  0  0
  -28.3201  -12.4361   13.7957 C   0  0  0  0  0  0  0  0  0  0  0  0
  -28.6204  -13.7899   13.7142 C   0  0  0  0  0  0  0  0  0  0  0  0
  -28.5449  -14.4092   12.4711 C   0  0  0  0  0  0  0  0  0  0  0  0
  -28.8332  -15.7013   12.3460 N   0  0  0  0  0  0  0  0  0  0  0  0
  -28.9180  -14.2083   14.9408 N   0  0  0  0  0  0  0  0  0  0  0  0
  -28.8109  -13.1672   15.7634 C   0  0  0  0  0  0  0  0  0  0  0  0
  -28.4484  -12.0882   15.0729 N   0  0  0  0  0  0  0  0  0  0  0  0
  1  7  2  0  0  0  0
  1  2  1  0  0  0  0
  2  3  1  0  0  0  0
  2  4  2  0  0  0  0
  4  5  1  0  0  0  0
  5  6  2  0  0  0  0
  5 11  1  0  0  0  0
  6  7  1  0  0  0  0
  6  9  1  0  0  0  0
  7  8  1  0  0  0  0
  9 10  1  0  0  0  0
 10 11  2  0  0  0  0
M  END
>  <CHROM.1>
-28.36689954,-13.20973138,13.07746008,0.71574630,-1.28589981,-2.20383178

>  <Name>
ligand

>  <RI>
0

>  <Rbt.Current_Directory>
/home/itssahil/PROJECTS/Mol_Feturizer/Test_systems_manuscript/rnas/2b57

>  <Rbt.Executable>
rbdock ($Id: //depot/dev/client3/rdock/2013.1/src/exe/rbdock.cxx#4 $)

>  <Rbt.Library>
libRbt.so (2013.1, Build901 2013/11/27)

>  <Rbt.Parameter_File>
/export/apps/rDock/src/rDock_2013.1_src/data/scripts/dock_solv.prm

>  <Rbt.Receptor>
prm/blind_docking_80.prm

>  <SCORE>
-4.95796

>  <SCORE.INTER>
-4.95796

>  <SCORE.INTER.CONST>
1

>  <SCORE.INTER.POLAR>
0

>  <SCORE.INTER.ROT>
0

>  <SCORE.INTER.SOLV>
4.67259

>  <SCORE.INTER.VDW>
-8.46283

>  <SCORE.INTER.norm>
-0.450723

>  <SCORE.INTRA>
0

>  <SCORE.INTRA.DIHEDRAL>
0

>  <SCORE.INTRA.DIHEDRAL.0>
0

>  <SCORE.INTRA.POLAR>
0

>  <SCORE.INTRA.POLAR.0>
0

>  <SCORE.INTRA.REPUL>
0

>  <SCORE.INTRA.REPUL.0>
0

>  <SCORE.INTRA.SOLV>
0

>  <SCORE.INTRA.SOLV.lig_0>
-48.3454

>  <SCORE.INTRA.VDW>
0

>  <SCORE.INTRA.VDW.0>
0

>  <SCORE.INTRA.norm>
0

>  <SCORE.RESTR>
0

>  <SCORE.RESTR.CAVITY>
0

>  <SCORE.RESTR.norm>
0

>  <SCORE.SYSTEM>
0

>  <SCORE.SYSTEM.CONST>
0

>  <SCORE.SYSTEM.DIHEDRAL>
0

>  <SCORE.SYSTEM.SOLV>
0

>  <SCORE.SYSTEM.norm>
0

>  <SCORE.heavy>
11

>  <SCORE.norm>
-0.450723

>  <RMSD>
18.110

$$$$
ligand
 OpenBabel02271912153D
libRbt.so/2013.1/901 2013/11/27
 11 12  0  0  0  0  0  0  0  0999 V2000
  -29.3933  -12.4909   10.0932 N   0  0  0  0  0  0  0  0  0  0  0  0
  -30.7260  -12.6536   10.1034 C   0  0  0  0  0  0  0  0  0  0  0  0
  -31.3328  -13.0642   11.2135 N   0  0  0  0  0  0  0  0  0  0  0  0
  -31.4512  -12.4153    8.9995 N   0  0  0  0  0  0  0  0  0  0  0  0
  -30.8593  -12.0135    7.8650 C   0  0  0  0  0  0  0  0  0  0  0  0
  -29.4819  -11.8376    7.8272 C   0  0  0  0  0  0  0  0  0  0  0  0
  -28.7523  -12.0883    8.9846 C   0  0  0  0  0  0  0  0  0  0  0  0
  -27.4329  -11.9234    8.9955 N   0  0  0  0  0  0  0  0  0  0  0  0
  -29.1610  -11.4553    6.5947 N   0  0  0  0  0  0  0  0  0  0  0  0
  -30.2839  -11.3921    5.8826 C   0  0  0  0  0  0  0  0  0  0  0  0
  -31.3184  -11.7298    6.6496 N   0  0  0  0  0  0  0  0  0  0  0  0
  1  7  2  0  0  0  0
  1  2  1  0  0  0  0
  2  3  1  0  0  0  0
  2  4  2  0  0  0  0
  4  5  1  0  0  0  0
  5  6  2  0  0  0  0
  5 11  1  0  0  0  0
  6  7  1  0  0  0  0
  6  9  1  0  0  0  0
  7  8  1  0  0  0  0
  9 10  1  0  0  0  0
 10 11  2  0  0  0  0
M  END
>  <CHROM.1>
-30.01733235,-12.10364732,8.49713659,-1.69080859,-0.11822520,-1.28938198

>  <Name>
ligand

>  <RI>
0

>  <Rbt.Current_Directory>
/home/itssahil/PROJECTS/Mol_Feturizer/Test_systems_manuscript/rnas/2b57

>  <Rbt.Executable>
rbdock ($Id: //depot/dev/client3/rdock/2013.1/src/exe/rbdock.cxx#4 $)

>  <Rbt.Library>
libRbt.so (2013.1, Build901 2013/11/27)

>  <Rbt.Parameter_File>
/export/apps/rDock/src/rDock_2013.1_src/data/scripts/dock_solv.prm

>  <Rbt.Receptor>
prm/blind_docking_100.prm

>  <SCORE>
-5.793

>  <SCORE.INTER>
-5.793

>  <SCORE.INTER.CONST>
1

>  <SCORE.INTER.POLAR>
0

>  <SCORE.INTER.ROT>
0

>  <SCORE.INTER.SOLV>
2.35859

>  <SCORE.INTER.VDW>
-8.2482

>  <SCORE.INTER.norm>
-0.526637

>  <SCORE.INTRA>
0

>  <SCORE.INTRA.DIHEDRAL>
0

>  <SCORE.INTRA.DIHEDRAL.0>
0

>  <SCORE.INTRA.POLAR>
0

>  <SCORE.INTRA.POLAR.0>
0

>  <SCORE.INTRA.REPUL>
0

>  <SCORE.INTRA.REPUL.0>
0

>  <SCORE.INTRA.SOLV>
0

>  <SCORE.INTRA.SOLV.lig_0>
-48.3454

>  <SCORE.INTRA.VDW>
0

>  <SCORE.INTRA.VDW.0>
0

>  <SCORE.INTRA.norm>
0

>  <SCORE.RESTR>
0

>  <SCORE.RESTR.CAVITY>
0

>  <SCORE.RESTR.norm>
0

>  <SCORE.SYSTEM>
0

>  <SCORE.SYSTEM.CONST>
0

>  <SCORE.SYSTEM.DIHEDRAL>
0

>  <SCORE.SYSTEM.SOLV>
0

>  <SCORE.SYSTEM.norm>
0

>  <SCORE.heavy>
11

>  <SCORE.norm>
-0.526637

>  <RMSD>
18.621

$$$$
ligand
 OpenBabel02271912153D
libRbt.so/2013.1/901 2013/11/27
 11 12  0  0  0  0  0  0  0  0999 V2000
  -28.6953  -15.2191   11.5388 N   0  0  0  0  0  0  0  0  0  0  0  0
  -28.8459  -16.4150   12.1303 C   0  0  0  0  0  0  0  0  0  0  0  0
  -28.7059  -17.5278   11.4154 N   0  0  0  0  0  0  0  0  0  0  0  0
  -29.1468  -16.4978   13.4356 N   0  0  0  0  0  0  0  0  0  0  0  0
  -29.3060  -15.3889   14.1731 C   0  0  0  0  0  0  0  0  0  0  0  0
  -29.1559  -14.1390   13.5859 C   0  0  0  0  0  0  0  0  0  0  0  0
  -28.8415  -14.0791   12.2322 C   0  0  0  0  0  0  0  0  0  0  0  0
  -28.6793  -12.9037   11.6320 N   0  0  0  0  0  0  0  0  0  0  0  0
  -29.3796  -13.2257   14.5260 N   0  0  0  0  0  0  0  0  0  0  0  0
  -29.6594  -13.8670   15.6584 C   0  0  0  0  0  0  0  0  0  0  0  0
  -29.6156  -15.1811   15.4497 N   0  0  0  0  0  0  0  0  0  0  0  0
  1  7  2  0  0  0  0
  1  2  1  0  0  0  0
  2  3  1  0  0  0  0
  2  4  2  0  0  0  0
  4  5  1  0  0  0  0
  5  6  2  0  0  0  0
  5 11  1  0  0  0  0
  6  7  1  0  0  0  0
  6  9  1  0  0  0  0
  7  8  1  0  0  0  0
  9 10  1  0  0  0  0
 10 11  2  0  0  0  0
M  END
>  <CHROM.1>
-29.08902606,-14.96136775,13.23146889,-0.68690161,1.33835152,0.05553029

>  <Name>
ligand

>  <RI>
0

>  <Rbt.Current_Directory>
/home/itssahil/PROJECTS/Mol_Feturizer/Test_systems_manuscript/rnas/2b57

>  <Rbt.Executable>
rbdock ($Id: //depot/dev/client3/rdock/2013.1/src/exe/rbdock.cxx#4 $)

>  <Rbt.Library>
libRbt.so (2013.1, Build901 2013/11/27)

>  <Rbt.Parameter_File>
/export/apps/rDock/src/rDock_2013.1_src/data/scripts/dock_solv.prm

>  <Rbt.Receptor>
prm/blind_docking_40.prm

>  <SCORE>
-5.08625

>  <SCORE.INTER>
-5.08625

>  <SCORE.INTER.CONST>
1

>  <SCORE.INTER.POLAR>
0

>  <SCORE.INTER.ROT>
0

>  <SCORE.INTER.SOLV>
1.81915

>  <SCORE.INTER.VDW>
-7.59722

>  <SCORE.INTER.norm>
-0.462386

>  <SCORE.INTRA>
0

>  <SCORE.INTRA.DIHEDRAL>
0

>  <SCORE.INTRA.DIHEDRAL.0>
0

>  <SCORE.INTRA.POLAR>
0

>  <SCORE.INTRA.POLAR.0>
0

>  <SCORE.INTRA.REPUL>
0

>  <SCORE.INTRA.REPUL.0>
0

>  <SCORE.INTRA.SOLV>
0

>  <SCORE.INTRA.SOLV.lig_0>
-48.3454

>  <SCORE.INTRA.VDW>
0

>  <SCORE.INTRA.VDW.0>
0

>  <SCORE.INTRA.norm>
0

>  <SCORE.RESTR>
0

>  <SCORE.RESTR.CAVITY>
0

>  <SCORE.RESTR.norm>
0

>  <SCORE.SYSTEM>
0

>  <SCORE.SYSTEM.CONST>
0

>  <SCORE.SYSTEM.DIHEDRAL>
0

>  <SCORE.SYSTEM.SOLV>
0

>  <SCORE.SYSTEM.norm>
0

>  <SCORE.heavy>
11

>  <SCORE.norm>
-0.462386

>  <RMSD>
18.749

$$$$
ligand
 OpenBabel02271912153D
libRbt.so/2013.1/901 2013/11/27
 11 12  0  0  0  0  0  0  0  0999 V2000
  -31.6189  -13.2857   12.4131 N   0  0  0  0  0  0  0  0  0  0  0  0
  -32.9011  -12.8894   12.3737 C   0  0  0  0  0  0  0  0  0  0  0  0
  -33.4649  -12.3683   13.4598 N   0  0  0  0  0  0  0  0  0  0  0  0
  -33.6229  -13.0239   11.2503 N   0  0  0  0  0  0  0  0  0  0  0  0
  -33.0792  -13.5591   10.1472 C   0  0  0  0  0  0  0  0  0  0  0  0
  -31.7546  -13.9774   10.1609 C   0  0  0  0  0  0  0  0  0  0  0  0
  -31.0264  -13.8253   11.3361 C   0  0  0  0  0  0  0  0  0  0  0  0
  -29.7527  -14.2034   11.3905 N   0  0  0  0  0  0  0  0  0  0  0  0
  -31.4798  -14.4755    8.9590 N   0  0  0  0  0  0  0  0  0  0  0  0
  -32.5803  -14.3781    8.2165 C   0  0  0  0  0  0  0  0  0  0  0  0
  -33.5546  -13.8217    8.9332 N   0  0  0  0  0  0  0  0  0  0  0  0
  1  7  2  0  0  0  0
  1  2  1  0  0  0  0
  2  3  1  0  0  0  0
  2  4  2  0  0  0  0
  4  5  1  0  0  0  0
  5  6  2  0  0  0  0
  5 11  1  0  0  0  0
  6  7  1  0  0  0  0
  6  9  1  0  0  0  0
  7  8  1  0  0  0  0
  9 10  1  0  0  0  0
 10 11  2  0  0  0  0
M  END
>  <CHROM.1>
-32.25702684,-13.61148027,10.80894195,-1.66696886,0.29070252,-1.88990710

>  <Name>
ligand

>  <RI>
0

>  <Rbt.Current_Directory>
/home/itssahil/PROJECTS/Mol_Feturizer/Test_systems_manuscript/rnas/2b57

>  <Rbt.Executable>
rbdock ($Id: //depot/dev/client3/rdock/2013.1/src/exe/rbdock.cxx#4 $)

>  <Rbt.Library>
libRbt.so (2013.1, Build901 2013/11/27)

>  <Rbt.Parameter_File>
/export/apps/rDock/src/rDock_2013.1_src/data/scripts/dock_solv.prm

>  <Rbt.Receptor>
prm/blind_docking_40.prm

>  <SCORE>
-5.51339

>  <SCORE.INTER>
-5.51339

>  <SCORE.INTER.CONST>
1

>  <SCORE.INTER.POLAR>
0

>  <SCORE.INTER.ROT>
0

>  <SCORE.INTER.SOLV>
3.4809

>  <SCORE.INTER.VDW>
-8.43589

>  <SCORE.INTER.norm>
-0.501217

>  <SCORE.INTRA>
0

>  <SCORE.INTRA.DIHEDRAL>
0

>  <SCORE.INTRA.DIHEDRAL.0>
0

>  <SCORE.INTRA.POLAR>
0

>  <SCORE.INTRA.POLAR.0>
0

>  <SCORE.INTRA.REPUL>
0

>  <SCORE.INTRA.REPUL.0>
0

>  <SCORE.INTRA.SOLV>
0

>  <SCORE.INTRA.SOLV.lig_0>
-48.3454

>  <SCORE.INTRA.VDW>
0

>  <SCORE.INTRA.VDW.0>
0

>  <SCORE.INTRA.norm>
0

>  <SCORE.RESTR>
0

>  <SCORE.RESTR.CAVITY>
0

>  <SCORE.RESTR.norm>
0

>  <SCORE.SYSTEM>
0

>  <SCORE.SYSTEM.CONST>
0

>  <SCORE.SYSTEM.DIHEDRAL>
0

>  <SCORE.SYSTEM.SOLV>
0

>  <SCORE.SYSTEM.norm>
0

>  <SCORE.heavy>
11

>  <SCORE.norm>
-0.501217

>  <RMSD>
21.057

$$$$
ligand
 OpenBabel02271912153D
libRbt.so/2013.1/901 2013/11/27
 11 12  0  0  0  0  0  0  0  0999 V2000
  -31.5271  -20.3069    1.6153 N   0  0  0  0  0  0  0  0  0  0  0  0
  -30.8552  -19.1922    1.2856 C   0  0  0  0  0  0  0  0  0  0  0  0
  -31.4366  -18.0044    1.4273 N   0  0  0  0  0  0  0  0  0  0  0  0
  -29.6047  -19.2662    0.8042 N   0  0  0  0  0  0  0  0  0  0  0  0
  -29.0034  -20.4538    0.6402 C   0  0  0  0  0  0  0  0  0  0  0  0
  -29.6761  -21.6226    0.9733 C   0  0  0  0  0  0  0  0  0  0  0  0
  -30.9702  -21.5200    1.4728 C   0  0  0  0  0  0  0  0  0  0  0  0
  -31.6471  -22.6127    1.8134 N   0  0  0  0  0  0  0  0  0  0  0  0
  -28.8663  -22.6417    0.7016 N   0  0  0  0  0  0  0  0  0  0  0  0
  -27.7314  -22.1422    0.2175 C   0  0  0  0  0  0  0  0  0  0  0  0
  -27.8092  -20.8137    0.1785 N   0  0  0  0  0  0  0  0  0  0  0  0
  1  7  2  0  0  0  0
  1  2  1  0  0  0  0
  2  3  1  0  0  0  0
  2  4  2  0  0  0  0
  4  5  1  0  0  0  0
  5  6  2  0  0  0  0
  5 11  1  0  0  0  0
  6  7  1  0  0  0  0
  6  9  1  0  0  0  0
  7  8  1  0  0  0  0
  9 10  1  0  0  0  0
 10 11  2  0  0  0  0
M  END
>  <CHROM.1>
-29.93959705,-20.76538873,1.01829402,2.41418558,0.37630902,-0.06173825

>  <Name>
ligand

>  <RI>
0

>  <Rbt.Current_Directory>
/home/itssahil/PROJECTS/Mol_Feturizer/Test_systems_manuscript/rnas/2b57

>  <Rbt.Executable>
rbdock ($Id: //depot/dev/client3/rdock/2013.1/src/exe/rbdock.cxx#4 $)

>  <Rbt.Library>
libRbt.so (2013.1, Build901 2013/11/27)

>  <Rbt.Parameter_File>
/export/apps/rDock/src/rDock_2013.1_src/data/scripts/dock_solv.prm

>  <Rbt.Receptor>
prm/blind_docking_40.prm

>  <SCORE>
-7.08806

>  <SCORE.INTER>
-7.08806

>  <SCORE.INTER.CONST>
1

>  <SCORE.INTER.POLAR>
0

>  <SCORE.INTER.ROT>
0

>  <SCORE.INTER.SOLV>
1.85832

>  <SCORE.INTER.VDW>
-8.94481

>  <SCORE.INTER.norm>
-0.644369

>  <SCORE.INTRA>
0

>  <SCORE.INTRA.DIHEDRAL>
0

>  <SCORE.INTRA.DIHEDRAL.0>
0

>  <SCORE.INTRA.POLAR>
0

>  <SCORE.INTRA.POLAR.0>
0

>  <SCORE.INTRA.REPUL>
0

>  <SCORE.INTRA.REPUL.0>
0

>  <SCORE.INTRA.SOLV>
0

>  <SCORE.INTRA.SOLV.lig_0>
-48.3454

>  <SCORE.INTRA.VDW>
0

>  <SCORE.INTRA.VDW.0>
0

>  <SCORE.INTRA.norm>
0

>  <SCORE.RESTR>
0

>  <SCORE.RESTR.CAVITY>
0

>  <SCORE.RESTR.norm>
0

>  <SCORE.SYSTEM>
0

>  <SCORE.SYSTEM.CONST>
0

>  <SCORE.SYSTEM.DIHEDRAL>
0

>  <SCORE.SYSTEM.SOLV>
0

>  <SCORE.SYSTEM.norm>
0

>  <SCORE.heavy>
11

>  <SCORE.norm>
-0.644369

>  <RMSD>
21.210

$$$$
ligand
 OpenBabel02271912153D
libRbt.so/2013.1/901 2013/11/27
 11 12  0  0  0  0  0  0  0  0999 V2000
  -31.4829  -21.9277    2.0563 N   0  0  0  0  0  0  0  0  0  0  0  0
  -31.0969  -23.1921    1.8220 C   0  0  0  0  0  0  0  0  0  0  0  0
  -31.8631  -24.2019    2.2248 N   0  0  0  0  0  0  0  0  0  0  0  0
  -29.9387  -23.4469    1.1937 N   0  0  0  0  0  0  0  0  0  0  0  0
  -29.1436  -22.4448    0.7906 C   0  0  0  0  0  0  0  0  0  0  0  0
  -29.5192  -21.1274    1.0205 C   0  0  0  0  0  0  0  0  0  0  0  0
  -30.7251  -20.8886    1.6713 C   0  0  0  0  0  0  0  0  0  0  0  0
  -31.1279  -19.6428    1.9032 N   0  0  0  0  0  0  0  0  0  0  0  0
  -28.5560  -20.3469    0.5397 N   0  0  0  0  0  0  0  0  0  0  0  0
  -27.6118  -21.1335    0.0282 C   0  0  0  0  0  0  0  0  0  0  0  0
  -27.9639  -22.4087    0.1777 N   0  0  0  0  0  0  0  0  0  0  0  0
  1  7  2  0  0  0  0
  1  2  1  0  0  0  0
  2  3  1  0  0  0  0
  2  4  2  0  0  0  0
  4  5  1  0  0  0  0
  5  6  2  0  0  0  0
  5 11  1  0  0  0  0
  6  7  1  0  0  0  0
  6  9  1  0  0  0  0
  7  8  1  0  0  0  0
  9 10  1  0  0  0  0
 10 11  2  0  0  0  0
M  END
>  <CHROM.1>
-29.93199073,-21.89641741,1.23139815,2.64716961,-0.48737259,-3.12253170

>  <Name>
ligand

>  <RI>
0

>  <Rbt.Current_Directory>
/home/itssahil/PROJECTS/Mol_Feturizer/Test_systems_manuscript/rnas/2b57

>  <Rbt.Executable>
rbdock ($Id: //depot/dev/client3/rdock/2013.1/src/exe/rbdock.cxx#4 $)

>  <Rbt.Library>
libRbt.so (2013.1, Build901 2013/11/27)

>  <Rbt.Parameter_File>
/export/apps/rDock/src/rDock_2013.1_src/data/scripts/dock_solv.prm

>  <Rbt.Receptor>
prm/blind_docking_60.prm

>  <SCORE>
-6.87482

>  <SCORE.INTER>
-6.87482

>  <SCORE.INTER.CONST>
1

>  <SCORE.INTER.POLAR>
0

>  <SCORE.INTER.ROT>
0

>  <SCORE.INTER.SOLV>
4.62003

>  <SCORE.INTER.VDW>
-9.72322

>  <SCORE.INTER.norm>
-0.624984

>  <SCORE.INTRA>
0

>  <SCORE.INTRA.DIHEDRAL>
0

>  <SCORE.INTRA.DIHEDRAL.0>
0

>  <SCORE.INTRA.POLAR>
0

>  <SCORE.INTRA.POLAR.0>
0

>  <SCORE.INTRA.REPUL>
0

>  <SCORE.INTRA.REPUL.0>
0

>  <SCORE.INTRA.SOLV>
0

>  <SCORE.INTRA.SOLV.lig_0>
-48.3454

>  <SCORE.INTRA.VDW>
0

>  <SCORE.INTRA.VDW.0>
0

>  <SCORE.INTRA.norm>
0

>  <SCORE.RESTR>
0

>  <SCORE.RESTR.CAVITY>
0

>  <SCORE.RESTR.norm>
0

>  <SCORE.SYSTEM>
0

>  <SCORE.SYSTEM.CONST>
0

>  <SCORE.SYSTEM.DIHEDRAL>
0

>  <SCORE.SYSTEM.SOLV>
0

>  <SCORE.SYSTEM.norm>
0

>  <SCORE.heavy>
11

>  <SCORE.norm>
-0.624984

>  <RMSD>
21.418

$$$$
ligand
 OpenBabel02271912153D
libRbt.so/2013.1/901 2013/11/27
 11 12  0  0  0  0  0  0  0  0999 V2000
  -31.5474  -21.8069    2.0930 N   0  0  0  0  0  0  0  0  0  0  0  0
  -31.2131  -23.0884    1.8719 C   0  0  0  0  0  0  0  0  0  0  0  0
  -32.0205  -24.0620    2.2832 N   0  0  0  0  0  0  0  0  0  0  0  0
  -30.0654  -23.3965    1.2482 N   0  0  0  0  0  0  0  0  0  0  0  0
  -29.2294  -22.4318    0.8367 C   0  0  0  0  0  0  0  0  0  0  0  0
  -29.5511  -21.0979    1.0530 C   0  0  0  0  0  0  0  0  0  0  0  0
  -30.7472  -20.8036    1.6991 C   0  0  0  0  0  0  0  0  0  0  0  0
  -31.0989  -19.5401    1.9180 N   0  0  0  0  0  0  0  0  0  0  0  0
  -28.5562  -20.3623    0.5662 N   0  0  0  0  0  0  0  0  0  0  0  0
  -27.6441  -21.1919    0.0642 C   0  0  0  0  0  0  0  0  0  0  0  0
  -28.0484  -22.4501    0.2256 N   0  0  0  0  0  0  0  0  0  0  0  0
  1  7  2  0  0  0  0
  1  2  1  0  0  0  0
  2  3  1  0  0  0  0
  2  4  2  0  0  0  0
  4  5  1  0  0  0  0
  5  6  2  0  0  0  0
  5 11  1  0  0  0  0
  6  7  1  0  0  0  0
  6  9  1  0  0  0  0
  7  8  1  0  0  0  0
  9 10  1  0  0  0  0
 10 11  2  0  0  0  0
M  END
>  <CHROM.1>
-29.99530904,-21.84728635,1.27063861,2.69337891,-0.48473769,-3.11083286

>  <Name>
ligand

>  <RI>
0

>  <Rbt.Current_Directory>
/home/itssahil/PROJECTS/Mol_Feturizer/Test_systems_manuscript/rnas/2b57

>  <Rbt.Executable>
rbdock ($Id: //depot/dev/client3/rdock/2013.1/src/exe/rbdock.cxx#4 $)

>  <Rbt.Library>
libRbt.so (2013.1, Build901 2013/11/27)

>  <Rbt.Parameter_File>
/export/apps/rDock/src/rDock_2013.1_src/data/scripts/dock_solv.prm

>  <Rbt.Receptor>
prm/blind_docking_100.prm

>  <SCORE>
-6.8826

>  <SCORE.INTER>
-6.8826

>  <SCORE.INTER.CONST>
1

>  <SCORE.INTER.POLAR>
0

>  <SCORE.INTER.ROT>
0

>  <SCORE.INTER.SOLV>
3.88886

>  <SCORE.INTER.VDW>
-9.48469

>  <SCORE.INTER.norm>
-0.625691

>  <SCORE.INTRA>
0

>  <SCORE.INTRA.DIHEDRAL>
0

>  <SCORE.INTRA.DIHEDRAL.0>
0

>  <SCORE.INTRA.POLAR>
0

>  <SCORE.INTRA.POLAR.0>
0

>  <SCORE.INTRA.REPUL>
0

>  <SCORE.INTRA.REPUL.0>
0

>  <SCORE.INTRA.SOLV>
0

>  <SCORE.INTRA.SOLV.lig_0>
-48.3454

>  <SCORE.INTRA.VDW>
0

>  <SCORE.INTRA.VDW.0>
0

>  <SCORE.INTRA.norm>
0

>  <SCORE.RESTR>
0

>  <SCORE.RESTR.CAVITY>
0

>  <SCORE.RESTR.norm>
0

>  <SCORE.SYSTEM>
0

>  <SCORE.SYSTEM.CONST>
0

>  <SCORE.SYSTEM.DIHEDRAL>
0

>  <SCORE.SYSTEM.SOLV>
0

>  <SCORE.SYSTEM.norm>
0

>  <SCORE.heavy>
11

>  <SCORE.norm>
-0.625691

>  <RMSD>
21.440

$$$$
ligand
 OpenBabel02271912153D
libRbt.so/2013.1/901 2013/11/27
 11 12  0  0  0  0  0  0  0  0999 V2000
  -32.3512  -12.6518   10.4562 N   0  0  0  0  0  0  0  0  0  0  0  0
  -32.9607  -13.1342   11.5510 C   0  0  0  0  0  0  0  0  0  0  0  0
  -33.1515  -12.3434   12.6032 N   0  0  0  0  0  0  0  0  0  0  0  0
  -33.3703  -14.4114   11.5973 N   0  0  0  0  0  0  0  0  0  0  0  0
  -33.1764  -15.2309   10.5534 C   0  0  0  0  0  0  0  0  0  0  0  0
  -32.5483  -14.7572    9.4084 C   0  0  0  0  0  0  0  0  0  0  0  0
  -32.1351  -13.4293    9.3834 C   0  0  0  0  0  0  0  0  0  0  0  0
  -31.5386  -12.9320    8.3041 N   0  0  0  0  0  0  0  0  0  0  0  0
  -32.4724  -15.7671    8.5468 N   0  0  0  0  0  0  0  0  0  0  0  0
  -33.0268  -16.8334    9.1193 C   0  0  0  0  0  0  0  0  0  0  0  0
  -33.4564  -16.5130   10.3380 N   0  0  0  0  0  0  0  0  0  0  0  0
  1  7  2  0  0  0  0
  1  2  1  0  0  0  0
  2  3  1  0  0  0  0
  2  4  2  0  0  0  0
  4  5  1  0  0  0  0
  5  6  2  0  0  0  0
  5 11  1  0  0  0  0
  6  7  1  0  0  0  0
  6  9  1  0  0  0  0
  7  8  1  0  0  0  0
  9 10  1  0  0  0  0
 10 11  2  0  0  0  0
M  END
>  <CHROM.1>
-32.74259277,-14.34230113,10.18070234,-1.55220124,-1.09500418,-2.52476576

>  <Name>
ligand

>  <RI>
0

>  <Rbt.Current_Directory>
/home/itssahil/PROJECTS/Mol_Feturizer/Test_systems_manuscript/rnas/2b57

>  <Rbt.Executable>
rbdock ($Id: //depot/dev/client3/rdock/2013.1/src/exe/rbdock.cxx#4 $)

>  <Rbt.Library>
libRbt.so (2013.1, Build901 2013/11/27)

>  <Rbt.Parameter_File>
/export/apps/rDock/src/rDock_2013.1_src/data/scripts/dock_solv.prm

>  <Rbt.Receptor>
prm/blind_docking_100.prm

>  <SCORE>
-5.94409

>  <SCORE.INTER>
-5.94409

>  <SCORE.INTER.CONST>
1

>  <SCORE.INTER.POLAR>
0

>  <SCORE.INTER.ROT>
0

>  <SCORE.INTER.SOLV>
9.02189

>  <SCORE.INTER.VDW>
-10.57

>  <SCORE.INTER.norm>
-0.540372

>  <SCORE.INTRA>
0

>  <SCORE.INTRA.DIHEDRAL>
0

>  <SCORE.INTRA.DIHEDRAL.0>
0

>  <SCORE.INTRA.POLAR>
0

>  <SCORE.INTRA.POLAR.0>
0

>  <SCORE.INTRA.REPUL>
0

>  <SCORE.INTRA.REPUL.0>
0

>  <SCORE.INTRA.SOLV>
0

>  <SCORE.INTRA.SOLV.lig_0>
-48.3454

>  <SCORE.INTRA.VDW>
0

>  <SCORE.INTRA.VDW.0>
0

>  <SCORE.INTRA.norm>
0

>  <SCORE.RESTR>
0

>  <SCORE.RESTR.CAVITY>
0

>  <SCORE.RESTR.norm>
0

>  <SCORE.SYSTEM>
0

>  <SCORE.SYSTEM.CONST>
0

>  <SCORE.SYSTEM.DIHEDRAL>
0

>  <SCORE.SYSTEM.SOLV>
0

>  <SCORE.SYSTEM.norm>
0

>  <SCORE.heavy>
11

>  <SCORE.norm>
-0.540372

>  <RMSD>
21.489

$$$$
ligand
 OpenBabel02271912153D
libRbt.so/2013.1/901 2013/11/27
 11 12  0  0  0  0  0  0  0  0999 V2000
  -31.7355  -21.9323    1.7435 N   0  0  0  0  0  0  0  0  0  0  0  0
  -31.2523  -23.1829    1.6715 C   0  0  0  0  0  0  0  0  0  0  0  0
  -32.0034  -24.2052    2.0713 N   0  0  0  0  0  0  0  0  0  0  0  0
  -30.0132  -23.4103    1.2089 N   0  0  0  0  0  0  0  0  0  0  0  0
  -29.2330  -22.3937    0.8128 C   0  0  0  0  0  0  0  0  0  0  0  0
  -29.7084  -21.0901    0.8770 C   0  0  0  0  0  0  0  0  0  0  0  0
  -30.9967  -20.8801    1.3576 C   0  0  0  0  0  0  0  0  0  0  0  0
  -31.4951  -19.6493    1.4270 N   0  0  0  0  0  0  0  0  0  0  0  0
  -28.7395  -20.2891    0.4438 N   0  0  0  0  0  0  0  0  0  0  0  0
  -27.6964  -21.0499    0.1198 C   0  0  0  0  0  0  0  0  0  0  0  0
  -27.9910  -22.3292    0.3417 N   0  0  0  0  0  0  0  0  0  0  0  0
  1  7  2  0  0  0  0
  1  2  1  0  0  0  0
  2  3  1  0  0  0  0
  2  4  2  0  0  0  0
  4  5  1  0  0  0  0
  5  6  2  0  0  0  0
  5 11  1  0  0  0  0
  6  7  1  0  0  0  0
  6  9  1  0  0  0  0
  7  8  1  0  0  0  0
  9 10  1  0  0  0  0
 10 11  2  0  0  0  0
M  END
>  <CHROM.1>
-30.09945764,-21.86507268,1.10670324,2.58367536,-0.36461227,3.04714309

>  <Name>
ligand

>  <RI>
0

>  <Rbt.Current_Directory>
/home/itssahil/PROJECTS/Mol_Feturizer/Test_systems_manuscript/rnas/2b57

>  <Rbt.Executable>
rbdock ($Id: //depot/dev/client3/rdock/2013.1/src/exe/rbdock.cxx#4 $)

>  <Rbt.Library>
libRbt.so (2013.1, Build901 2013/11/27)

>  <Rbt.Parameter_File>
/export/apps/rDock/src/rDock_2013.1_src/data/scripts/dock_solv.prm

>  <Rbt.Receptor>
prm/blind_docking_80.prm

>  <SCORE>
-7.12977

>  <SCORE.INTER>
-7.12977

>  <SCORE.INTER.CONST>
1

>  <SCORE.INTER.POLAR>
0

>  <SCORE.INTER.ROT>
0

>  <SCORE.INTER.SOLV>
4.1438

>  <SCORE.INTER.VDW>
-9.73445

>  <SCORE.INTER.norm>
-0.648161

>  <SCORE.INTRA>
0

>  <SCORE.INTRA.DIHEDRAL>
0

>  <SCORE.INTRA.DIHEDRAL.0>
0

>  <SCORE.INTRA.POLAR>
0

>  <SCORE.INTRA.POLAR.0>
0

>  <SCORE.INTRA.REPUL>
0

>  <SCORE.INTRA.REPUL.0>
0

>  <SCORE.INTRA.SOLV>
0

>  <SCORE.INTRA.SOLV.lig_0>
-48.3454

>  <SCORE.INTRA.VDW>
0

>  <SCORE.INTRA.VDW.0>
0

>  <SCORE.INTRA.norm>
0

>  <SCORE.RESTR>
0

>  <SCORE.RESTR.CAVITY>
0

>  <SCORE.RESTR.norm>
0

>  <SCORE.SYSTEM>
0

>  <SCORE.SYSTEM.CONST>
0

>  <SCORE.SYSTEM.DIHEDRAL>
0

>  <SCORE.SYSTEM.SOLV>
0

>  <SCORE.SYSTEM.norm>
0

>  <SCORE.heavy>
11

>  <SCORE.norm>
-0.648161

>  <RMSD>
21.592

$$$$
ligand
 OpenBabel02271912153D
libRbt.so/2013.1/901 2013/11/27
 11 12  0  0  0  0  0  0  0  0999 V2000
  -31.7513  -21.8951    1.8050 N   0  0  0  0  0  0  0  0  0  0  0  0
  -31.2859  -23.1525    1.7341 C   0  0  0  0  0  0  0  0  0  0  0  0
  -32.0442  -24.1620    2.1524 N   0  0  0  0  0  0  0  0  0  0  0  0
  -30.0572  -23.3995    1.2541 N   0  0  0  0  0  0  0  0  0  0  0  0
  -29.2699  -22.3961    0.8391 C   0  0  0  0  0  0  0  0  0  0  0  0
  -29.7269  -21.0858    0.9017 C   0  0  0  0  0  0  0  0  0  0  0  0
  -31.0047  -20.8554    1.4006 C   0  0  0  0  0  0  0  0  0  0  0  0
  -31.4856  -19.6176    1.4693 N   0  0  0  0  0  0  0  0  0  0  0  0
  -28.7544  -20.3007    0.4481 N   0  0  0  0  0  0  0  0  0  0  0  0
  -27.7265  -21.0775    0.1133 C   0  0  0  0  0  0  0  0  0  0  0  0
  -28.0346  -22.3512    0.3484 N   0  0  0  0  0  0  0  0  0  0  0  0
  1  7  2  0  0  0  0
  1  2  1  0  0  0  0
  2  3  1  0  0  0  0
  2  4  2  0  0  0  0
  4  5  1  0  0  0  0
  5  6  2  0  0  0  0
  5 11  1  0  0  0  0
  6  7  1  0  0  0  0
  6  9  1  0  0  0  0
  7  8  1  0  0  0  0
  9 10  1  0  0  0  0
 10 11  2  0  0  0  0
M  END
>  <CHROM.1>
-30.12460063,-21.85397332,1.14267932,2.59631883,-0.38127741,3.04503142

>  <Name>
ligand

>  <RI>
0

>  <Rbt.Current_Directory>
/home/itssahil/PROJECTS/Mol_Feturizer/Test_systems_manuscript/rnas/2b57

>  <Rbt.Executable>
rbdock ($Id: //depot/dev/client3/rdock/2013.1/src/exe/rbdock.cxx#4 $)

>  <Rbt.Library>
libRbt.so (2013.1, Build901 2013/11/27)

>  <Rbt.Parameter_File>
/export/apps/rDock/src/rDock_2013.1_src/data/scripts/dock_solv.prm

>  <Rbt.Receptor>
prm/blind_docking_80.prm

>  <SCORE>
-7.14117

>  <SCORE.INTER>
-7.14117

>  <SCORE.INTER.CONST>
1

>  <SCORE.INTER.POLAR>
0

>  <SCORE.INTER.ROT>
0

>  <SCORE.INTER.SOLV>
3.89123

>  <SCORE.INTER.VDW>
-9.65786

>  <SCORE.INTER.norm>
-0.649197

>  <SCORE.INTRA>
0

>  <SCORE.INTRA.DIHEDRAL>
0

>  <SCORE.INTRA.DIHEDRAL.0>
0

>  <SCORE.INTRA.POLAR>
0

>  <SCORE.INTRA.POLAR.0>
0

>  <SCORE.INTRA.REPUL>
0

>  <SCORE.INTRA.REPUL.0>
0

>  <SCORE.INTRA.SOLV>
0

>  <SCORE.INTRA.SOLV.lig_0>
-48.3454

>  <SCORE.INTRA.VDW>
0

>  <SCORE.INTRA.VDW.0>
0

>  <SCORE.INTRA.norm>
0

>  <SCORE.RESTR>
0

>  <SCORE.RESTR.CAVITY>
0

>  <SCORE.RESTR.norm>
0

>  <SCORE.SYSTEM>
0

>  <SCORE.SYSTEM.CONST>
0

>  <SCORE.SYSTEM.DIHEDRAL>
0

>  <SCORE.SYSTEM.SOLV>
0

>  <SCORE.SYSTEM.norm>
0

>  <SCORE.heavy>
11

>  <SCORE.norm>
-0.649197

>  <RMSD>
21.596

$$$$
ligand
 OpenBabel02271912153D
libRbt.so/2013.1/901 2013/11/27
 11 12  0  0  0  0  0  0  0  0999 V2000
  -31.7612  -21.9411    1.7268 N   0  0  0  0  0  0  0  0  0  0  0  0
  -31.2684  -23.1884    1.6635 C   0  0  0  0  0  0  0  0  0  0  0  0
  -32.0146  -24.2144    2.0629 N   0  0  0  0  0  0  0  0  0  0  0  0
  -30.0246  -23.4088    1.2101 N   0  0  0  0  0  0  0  0  0  0  0  0
  -29.2492  -22.3883    0.8147 C   0  0  0  0  0  0  0  0  0  0  0  0
  -29.7345  -21.0879    0.8699 C   0  0  0  0  0  0  0  0  0  0  0  0
  -31.0274  -20.8852    1.3411 C   0  0  0  0  0  0  0  0  0  0  0  0
  -31.5353  -19.6578    1.4017 N   0  0  0  0  0  0  0  0  0  0  0  0
  -28.7687  -20.2817    0.4395 N   0  0  0  0  0  0  0  0  0  0  0  0
  -27.7179  -21.0364    0.1258 C   0  0  0  0  0  0  0  0  0  0  0  0
  -28.0047  -22.3167    0.3515 N   0  0  0  0  0  0  0  0  0  0  0  0
  1  7  2  0  0  0  0
  1  2  1  0  0  0  0
  2  3  1  0  0  0  0
  2  4  2  0  0  0  0
  4  5  1  0  0  0  0
  5  6  2  0  0  0  0
  5 11  1  0  0  0  0
  6  7  1  0  0  0  0
  6  9  1  0  0  0  0
  7  8  1  0  0  0  0
  9 10  1  0  0  0  0
 10 11  2  0  0  0  0
M  END
>  <CHROM.1>
-30.12143940,-21.86469827,1.10051013,2.57660612,-0.35733456,3.04022156

>  <Name>
ligand

>  <RI>
0

>  <Rbt.Current_Directory>
/home/itssahil/PROJECTS/Mol_Feturizer/Test_systems_manuscript/rnas/2b57

>  <Rbt.Executable>
rbdock ($Id: //depot/dev/client3/rdock/2013.1/src/exe/rbdock.cxx#4 $)

>  <Rbt.Library>
libRbt.so (2013.1, Build901 2013/11/27)

>  <Rbt.Parameter_File>
/export/apps/rDock/src/rDock_2013.1_src/data/scripts/dock_solv.prm

>  <Rbt.Receptor>
prm/blind_docking_80.prm

>  <SCORE>
-7.13336

>  <SCORE.INTER>
-7.13336

>  <SCORE.INTER.CONST>
1

>  <SCORE.INTER.POLAR>
0

>  <SCORE.INTER.ROT>
0

>  <SCORE.INTER.SOLV>
4.14785

>  <SCORE.INTER.VDW>
-9.73819

>  <SCORE.INTER.norm>
-0.648488

>  <SCORE.INTRA>
0

>  <SCORE.INTRA.DIHEDRAL>
0

>  <SCORE.INTRA.DIHEDRAL.0>
0

>  <SCORE.INTRA.POLAR>
0

>  <SCORE.INTRA.POLAR.0>
0

>  <SCORE.INTRA.REPUL>
0

>  <SCORE.INTRA.REPUL.0>
0

>  <SCORE.INTRA.SOLV>
0

>  <SCORE.INTRA.SOLV.lig_0>
-48.3454

>  <SCORE.INTRA.VDW>
0

>  <SCORE.INTRA.VDW.0>
0

>  <SCORE.INTRA.norm>
0

>  <SCORE.RESTR>
0

>  <SCORE.RESTR.CAVITY>
0

>  <SCORE.RESTR.norm>
0

>  <SCORE.SYSTEM>
0

>  <SCORE.SYSTEM.CONST>
0

>  <SCORE.SYSTEM.DIHEDRAL>
0

>  <SCORE.SYSTEM.SOLV>
0

>  <SCORE.SYSTEM.norm>
0

>  <SCORE.heavy>
11

>  <SCORE.norm>
-0.648488

>  <RMSD>
21.613

$$$$
ligand
 OpenBabel02271912153D
libRbt.so/2013.1/901 2013/11/27
 11 12  0  0  0  0  0  0  0  0999 V2000
  -31.7552  -21.9789    1.6245 N   0  0  0  0  0  0  0  0  0  0  0  0
  -31.2524  -23.2204    1.5311 C   0  0  0  0  0  0  0  0  0  0  0  0
  -31.9991  -24.2634    1.8825 N   0  0  0  0  0  0  0  0  0  0  0  0
  -29.9984  -23.4180    1.0957 N   0  0  0  0  0  0  0  0  0  0  0  0
  -29.2227  -22.3803    0.7487 C   0  0  0  0  0  0  0  0  0  0  0  0
  -29.7182  -21.0855    0.8359 C   0  0  0  0  0  0  0  0  0  0  0  0
  -31.0215  -20.9064    1.2875 C   0  0  0  0  0  0  0  0  0  0  0  0
  -31.5392  -19.6849    1.3773 N   0  0  0  0  0  0  0  0  0  0  0  0
  -28.7498  -20.2597    0.4508 N   0  0  0  0  0  0  0  0  0  0  0  0
  -27.6877  -20.9970    0.1341 C   0  0  0  0  0  0  0  0  0  0  0  0
  -27.9698  -22.2858    0.3128 N   0  0  0  0  0  0  0  0  0  0  0  0
  1  7  2  0  0  0  0
  1  2  1  0  0  0  0
  2  3  1  0  0  0  0
  2  4  2  0  0  0  0
  4  5  1  0  0  0  0
  5  6  2  0  0  0  0
  5 11  1  0  0  0  0
  6  7  1  0  0  0  0
  6  9  1  0  0  0  0
  7  8  1  0  0  0  0
  9 10  1  0  0  0  0
 10 11  2  0  0  0  0
M  END
>  <CHROM.1>
-30.10405011,-21.87181025,1.03373251,2.57123221,-0.33703991,3.07051465

>  <Name>
ligand

>  <RI>
0

>  <Rbt.Current_Directory>
/home/itssahil/PROJECTS/Mol_Feturizer/Test_systems_manuscript/rnas/2b57

>  <Rbt.Executable>
rbdock ($Id: //depot/dev/client3/rdock/2013.1/src/exe/rbdock.cxx#4 $)

>  <Rbt.Library>
libRbt.so (2013.1, Build901 2013/11/27)

>  <Rbt.Parameter_File>
/export/apps/rDock/src/rDock_2013.1_src/data/scripts/dock_solv.prm

>  <Rbt.Receptor>
prm/blind_docking_80.prm

>  <SCORE>
-7.14523

>  <SCORE.INTER>
-7.14523

>  <SCORE.INTER.CONST>
1

>  <SCORE.INTER.POLAR>
0

>  <SCORE.INTER.ROT>
0

>  <SCORE.INTER.SOLV>
4.54065

>  <SCORE.INTER.VDW>
-9.87704

>  <SCORE.INTER.norm>
-0.649567

>  <SCORE.INTRA>
0

>  <SCORE.INTRA.DIHEDRAL>
0

>  <SCORE.INTRA.DIHEDRAL.0>
0

>  <SCORE.INTRA.POLAR>
0

>  <SCORE.INTRA.POLAR.0>
0

>  <SCORE.INTRA.REPUL>
0

>  <SCORE.INTRA.REPUL.0>
0

>  <SCORE.INTRA.SOLV>
0

>  <SCORE.INTRA.SOLV.lig_0>
-48.3454

>  <SCORE.INTRA.VDW>
0

>  <SCORE.INTRA.VDW.0>
0

>  <SCORE.INTRA.norm>
0

>  <SCORE.RESTR>
0

>  <SCORE.RESTR.CAVITY>
0

>  <SCORE.RESTR.norm>
0

>  <SCORE.SYSTEM>
0

>  <SCORE.SYSTEM.CONST>
0

>  <SCORE.SYSTEM.DIHEDRAL>
0

>  <SCORE.SYSTEM.SOLV>
0

>  <SCORE.SYSTEM.norm>
0

>  <SCORE.heavy>
11

>  <SCORE.norm>
-0.649567

>  <RMSD>
21.625

$$$$
ligand
 OpenBabel02271912153D
libRbt.so/2013.1/901 2013/11/27
 11 12  0  0  0  0  0  0  0  0999 V2000
  -31.7683  -21.9579    1.6467 N   0  0  0  0  0  0  0  0  0  0  0  0
  -31.2675  -23.2018    1.5795 C   0  0  0  0  0  0  0  0  0  0  0  0
  -32.0151  -24.2359    1.9546 N   0  0  0  0  0  0  0  0  0  0  0  0
  -30.0145  -23.4106    1.1466 N   0  0  0  0  0  0  0  0  0  0  0  0
  -29.2378  -22.3819    0.7759 C   0  0  0  0  0  0  0  0  0  0  0  0
  -29.7313  -21.0848    0.8357 C   0  0  0  0  0  0  0  0  0  0  0  0
  -31.0337  -20.8940    1.2854 C   0  0  0  0  0  0  0  0  0  0  0  0
  -31.5495  -19.6701    1.3495 N   0  0  0  0  0  0  0  0  0  0  0  0
  -28.7624  -20.2689    0.4314 N   0  0  0  0  0  0  0  0  0  0  0  0
  -27.7019  -21.0145    0.1291 C   0  0  0  0  0  0  0  0  0  0  0  0
  -27.9855  -22.2987    0.3362 N   0  0  0  0  0  0  0  0  0  0  0  0
  1  7  2  0  0  0  0
  1  2  1  0  0  0  0
  2  3  1  0  0  0  0
  2  4  2  0  0  0  0
  4  5  1  0  0  0  0
  5  6  2  0  0  0  0
  5 11  1  0  0  0  0
  6  7  1  0  0  0  0
  6  9  1  0  0  0  0
  7  8  1  0  0  0  0
  9 10  1  0  0  0  0
 10 11  2  0  0  0  0
M  END
>  <CHROM.1>
-30.11798879,-21.86602862,1.05118800,2.57261239,-0.33870250,3.04926698

>  <Name>
ligand

>  <RI>
0

>  <Rbt.Current_Directory>
/home/itssahil/PROJECTS/Mol_Feturizer/Test_systems_manuscript/rnas/2b57

>  <Rbt.Executable>
rbdock ($Id: //depot/dev/client3/rdock/2013.1/src/exe/rbdock.cxx#4 $)

>  <Rbt.Library>
libRbt.so (2013.1, Build901 2013/11/27)

>  <Rbt.Parameter_File>
/export/apps/rDock/src/rDock_2013.1_src/data/scripts/dock_solv.prm

>  <Rbt.Receptor>
prm/blind_docking_80.prm

>  <SCORE>
-7.12933

>  <SCORE.INTER>
-7.12933

>  <SCORE.INTER.CONST>
1

>  <SCORE.INTER.POLAR>
0

>  <SCORE.INTER.ROT>
0

>  <SCORE.INTER.SOLV>
4.321

>  <SCORE.INTER.VDW>
-9.79322

>  <SCORE.INTER.norm>
-0.648121

>  <SCORE.INTRA>
0

>  <SCORE.INTRA.DIHEDRAL>
0

>  <SCORE.INTRA.DIHEDRAL.0>
0

>  <SCORE.INTRA.POLAR>
0

>  <SCORE.INTRA.POLAR.0>
0

>  <SCORE.INTRA.REPUL>
0

>  <SCORE.INTRA.REPUL.0>
0

>  <SCORE.INTRA.SOLV>
0

>  <SCORE.INTRA.SOLV.lig_0>
-48.3454

>  <SCORE.INTRA.VDW>
0

>  <SCORE.INTRA.VDW.0>
0

>  <SCORE.INTRA.norm>
0

>  <SCORE.RESTR>
0

>  <SCORE.RESTR.CAVITY>
0

>  <SCORE.RESTR.norm>
0

>  <SCORE.SYSTEM>
0

>  <SCORE.SYSTEM.CONST>
0

>  <SCORE.SYSTEM.DIHEDRAL>
0

>  <SCORE.SYSTEM.SOLV>
0

>  <SCORE.SYSTEM.norm>
0

>  <SCORE.heavy>
11

>  <SCORE.norm>
-0.648121

>  <RMSD>
21.628

$$$$
ligand
 OpenBabel02271912153D
libRbt.so/2013.1/901 2013/11/27
 11 12  0  0  0  0  0  0  0  0999 V2000
  -32.3984  -15.4799    8.5972 N   0  0  0  0  0  0  0  0  0  0  0  0
  -32.7857  -16.4470    9.4442 C   0  0  0  0  0  0  0  0  0  0  0  0
  -32.6751  -17.7228    9.0850 N   0  0  0  0  0  0  0  0  0  0  0  0
  -33.2937  -16.1375   10.6472 N   0  0  0  0  0  0  0  0  0  0  0  0
  -33.4271  -14.8576   11.0254 C   0  0  0  0  0  0  0  0  0  0  0  0
  -33.0343  -13.8376   10.1682 C   0  0  0  0  0  0  0  0  0  0  0  0
  -32.5084  -14.1835    8.9278 C   0  0  0  0  0  0  0  0  0  0  0  0
  -32.1109  -13.2394    8.0800 N   0  0  0  0  0  0  0  0  0  0  0  0
  -33.2866  -12.6832   10.7777 N   0  0  0  0  0  0  0  0  0  0  0  0
  -33.8160  -12.9582   11.9677 C   0  0  0  0  0  0  0  0  0  0  0  0
  -33.9032  -14.2775   12.1233 N   0  0  0  0  0  0  0  0  0  0  0  0
  1  7  2  0  0  0  0
  1  2  1  0  0  0  0
  2  3  1  0  0  0  0
  2  4  2  0  0  0  0
  4  5  1  0  0  0  0
  5  6  2  0  0  0  0
  5 11  1  0  0  0  0
  6  7  1  0  0  0  0
  6  9  1  0  0  0  0
  7  8  1  0  0  0  0
  9 10  1  0  0  0  0
 10 11  2  0  0  0  0
M  END
>  <CHROM.1>
-33.01535124,-14.72892689,10.06078231,-0.97794183,1.15905990,0.05513273

>  <Name>
ligand

>  <RI>
0

>  <Rbt.Current_Directory>
/home/itssahil/PROJECTS/Mol_Feturizer/Test_systems_manuscript/rnas/2b57

>  <Rbt.Executable>
rbdock ($Id: //depot/dev/client3/rdock/2013.1/src/exe/rbdock.cxx#4 $)

>  <Rbt.Library>
libRbt.so (2013.1, Build901 2013/11/27)

>  <Rbt.Parameter_File>
/export/apps/rDock/src/rDock_2013.1_src/data/scripts/dock_solv.prm

>  <Rbt.Receptor>
prm/blind_docking_60.prm

>  <SCORE>
-6.42916

>  <SCORE.INTER>
-6.42916

>  <SCORE.INTER.CONST>
1

>  <SCORE.INTER.POLAR>
0

>  <SCORE.INTER.ROT>
0

>  <SCORE.INTER.SOLV>
11.4757

>  <SCORE.INTER.VDW>
-11.7113

>  <SCORE.INTER.norm>
-0.584469

>  <SCORE.INTRA>
0

>  <SCORE.INTRA.DIHEDRAL>
0

>  <SCORE.INTRA.DIHEDRAL.0>
0

>  <SCORE.INTRA.POLAR>
0

>  <SCORE.INTRA.POLAR.0>
0

>  <SCORE.INTRA.REPUL>
0

>  <SCORE.INTRA.REPUL.0>
0

>  <SCORE.INTRA.SOLV>
0

>  <SCORE.INTRA.SOLV.lig_0>
-48.3454

>  <SCORE.INTRA.VDW>
0

>  <SCORE.INTRA.VDW.0>
0

>  <SCORE.INTRA.norm>
0

>  <SCORE.RESTR>
0

>  <SCORE.RESTR.CAVITY>
0

>  <SCORE.RESTR.norm>
0

>  <SCORE.SYSTEM>
0

>  <SCORE.SYSTEM.CONST>
0

>  <SCORE.SYSTEM.DIHEDRAL>
0

>  <SCORE.SYSTEM.SOLV>
0

>  <SCORE.SYSTEM.norm>
0

>  <SCORE.heavy>
11

>  <SCORE.norm>
-0.584469

>  <RMSD>
21.884

$$$$
ligand
 OpenBabel02271912153D
libRbt.so/2013.1/901 2013/11/27
 11 12  0  0  0  0  0  0  0  0999 V2000
  -31.4298  -13.4759   11.6233 N   0  0  0  0  0  0  0  0  0  0  0  0
  -32.3614  -14.1846   10.9656 C   0  0  0  0  0  0  0  0  0  0  0  0
  -32.0723  -14.7169    9.7816 N   0  0  0  0  0  0  0  0  0  0  0  0
  -33.5862  -14.3524   11.4880 N   0  0  0  0  0  0  0  0  0  0  0  0
  -33.9043  -13.8135   12.6742 C   0  0  0  0  0  0  0  0  0  0  0  0
  -32.9592  -13.0755   13.3755 C   0  0  0  0  0  0  0  0  0  0  0  0
  -31.6960  -12.9177   12.8148 C   0  0  0  0  0  0  0  0  0  0  0  0
  -30.7582  -12.2270   13.4562 N   0  0  0  0  0  0  0  0  0  0  0  0
  -33.5346  -12.6501   14.4961 N   0  0  0  0  0  0  0  0  0  0  0  0
  -34.7883  -13.0975   14.5054 C   0  0  0  0  0  0  0  0  0  0  0  0
  -35.0179  -13.8051   13.4012 N   0  0  0  0  0  0  0  0  0  0  0  0
  1  7  2  0  0  0  0
  1  2  1  0  0  0  0
  2  3  1  0  0  0  0
  2  4  2  0  0  0  0
  4  5  1  0  0  0  0
  5  6  2  0  0  0  0
  5 11  1  0  0  0  0
  6  7  1  0  0  0  0
  6  9  1  0  0  0  0
  7  8  1  0  0  0  0
  9 10  1  0  0  0  0
 10 11  2  0  0  0  0
M  END
>  <CHROM.1>
-32.90347684,-13.48783407,12.57973920,-0.97846080,0.30876165,1.06590829

>  <Name>
ligand

>  <RI>
0

>  <Rbt.Current_Directory>
/home/itssahil/PROJECTS/Mol_Feturizer/Test_systems_manuscript/rnas/2b57

>  <Rbt.Executable>
rbdock ($Id: //depot/dev/client3/rdock/2013.1/src/exe/rbdock.cxx#4 $)

>  <Rbt.Library>
libRbt.so (2013.1, Build901 2013/11/27)

>  <Rbt.Parameter_File>
/export/apps/rDock/src/rDock_2013.1_src/data/scripts/dock_solv.prm

>  <Rbt.Receptor>
prm/blind_docking_100.prm

>  <SCORE>
-7.39331

>  <SCORE.INTER>
-7.39331

>  <SCORE.INTER.CONST>
1

>  <SCORE.INTER.POLAR>
0

>  <SCORE.INTER.ROT>
0

>  <SCORE.INTER.SOLV>
2.95773

>  <SCORE.INTER.VDW>
-9.51479

>  <SCORE.INTER.norm>
-0.672119

>  <SCORE.INTRA>
0

>  <SCORE.INTRA.DIHEDRAL>
0

>  <SCORE.INTRA.DIHEDRAL.0>
0

>  <SCORE.INTRA.POLAR>
0

>  <SCORE.INTRA.POLAR.0>
0

>  <SCORE.INTRA.REPUL>
0

>  <SCORE.INTRA.REPUL.0>
0

>  <SCORE.INTRA.SOLV>
0

>  <SCORE.INTRA.SOLV.lig_0>
-48.3454

>  <SCORE.INTRA.VDW>
0

>  <SCORE.INTRA.VDW.0>
0

>  <SCORE.INTRA.norm>
0

>  <SCORE.RESTR>
0

>  <SCORE.RESTR.CAVITY>
0

>  <SCORE.RESTR.norm>
0

>  <SCORE.SYSTEM>
0

>  <SCORE.SYSTEM.CONST>
0

>  <SCORE.SYSTEM.DIHEDRAL>
0

>  <SCORE.SYSTEM.SOLV>
0

>  <SCORE.SYSTEM.norm>
0

>  <SCORE.heavy>
11

>  <SCORE.norm>
-0.672119

>  <RMSD>
22.196

$$$$
ligand
 OpenBabel02271912153D
libRbt.so/2013.1/901 2013/11/27
 11 12  0  0  0  0  0  0  0  0999 V2000
  -31.4569  -13.5631   11.5655 N   0  0  0  0  0  0  0  0  0  0  0  0
  -32.4127  -14.2560   10.9260 C   0  0  0  0  0  0  0  0  0  0  0  0
  -32.1537  -14.7976    9.7392 N   0  0  0  0  0  0  0  0  0  0  0  0
  -33.6316  -14.3985   11.4692 N   0  0  0  0  0  0  0  0  0  0  0  0
  -33.9195  -13.8496   12.6586 C   0  0  0  0  0  0  0  0  0  0  0  0
  -32.9489  -13.1276   13.3414 C   0  0  0  0  0  0  0  0  0  0  0  0
  -31.6925  -12.9960   12.7592 C   0  0  0  0  0  0  0  0  0  0  0  0
  -30.7310  -12.3214   13.3825 N   0  0  0  0  0  0  0  0  0  0  0  0
  -33.4973  -12.6876   14.4699 N   0  0  0  0  0  0  0  0  0  0  0  0
  -34.7590  -13.1108   14.5017 C   0  0  0  0  0  0  0  0  0  0  0  0
  -35.0205  -13.8175   13.4040 N   0  0  0  0  0  0  0  0  0  0  0  0
  1  7  2  0  0  0  0
  1  2  1  0  0  0  0
  2  3  1  0  0  0  0
  2  4  2  0  0  0  0
  4  5  1  0  0  0  0
  5  6  2  0  0  0  0
  5 11  1  0  0  0  0
  6  7  1  0  0  0  0
  6  9  1  0  0  0  0
  7  8  1  0  0  0  0
  9 10  1  0  0  0  0
 10 11  2  0  0  0  0
M  END
>  <CHROM.1>
-32.91439880,-13.54358775,12.54636272,-1.00344831,0.29998683,1.06995003

>  <Name>
ligand

>  <RI>
0

>  <Rbt.Current_Directory>
/home/itssahil/PROJECTS/Mol_Feturizer/Test_systems_manuscript/rnas/2b57

>  <Rbt.Executable>
rbdock ($Id: //depot/dev/client3/rdock/2013.1/src/exe/rbdock.cxx#4 $)

>  <Rbt.Library>
libRbt.so (2013.1, Build901 2013/11/27)

>  <Rbt.Parameter_File>
/export/apps/rDock/src/rDock_2013.1_src/data/scripts/dock_solv.prm

>  <Rbt.Receptor>
prm/blind_docking_100.prm

>  <SCORE>
-7.3884

>  <SCORE.INTER>
-7.3884

>  <SCORE.INTER.CONST>
1

>  <SCORE.INTER.POLAR>
0

>  <SCORE.INTER.ROT>
0

>  <SCORE.INTER.SOLV>
3.21156

>  <SCORE.INTER.VDW>
-9.59612

>  <SCORE.INTER.norm>
-0.671673

>  <SCORE.INTRA>
0

>  <SCORE.INTRA.DIHEDRAL>
0

>  <SCORE.INTRA.DIHEDRAL.0>
0

>  <SCORE.INTRA.POLAR>
0

>  <SCORE.INTRA.POLAR.0>
0

>  <SCORE.INTRA.REPUL>
0

>  <SCORE.INTRA.REPUL.0>
0

>  <SCORE.INTRA.SOLV>
0

>  <SCORE.INTRA.SOLV.lig_0>
-48.3454

>  <SCORE.INTRA.VDW>
0

>  <SCORE.INTRA.VDW.0>
0

>  <SCORE.INTRA.norm>
0

>  <SCORE.RESTR>
0

>  <SCORE.RESTR.CAVITY>
0

>  <SCORE.RESTR.norm>
0

>  <SCORE.SYSTEM>
0

>  <SCORE.SYSTEM.CONST>
0

>  <SCORE.SYSTEM.DIHEDRAL>
0

>  <SCORE.SYSTEM.SOLV>
0

>  <SCORE.SYSTEM.norm>
0

>  <SCORE.heavy>
11

>  <SCORE.norm>
-0.671673

>  <RMSD>
22.202

$$$$
ligand
 OpenBabel02271912153D
libRbt.so/2013.1/901 2013/11/27
 11 12  0  0  0  0  0  0  0  0999 V2000
  -31.4716  -13.5866   11.5235 N   0  0  0  0  0  0  0  0  0  0  0  0
  -32.4404  -14.2708   10.8942 C   0  0  0  0  0  0  0  0  0  0  0  0
  -32.1968  -14.8206    9.7079 N   0  0  0  0  0  0  0  0  0  0  0  0
  -33.6568  -14.3964   11.4471 N   0  0  0  0  0  0  0  0  0  0  0  0
  -33.9292  -13.8390   12.6362 C   0  0  0  0  0  0  0  0  0  0  0  0
  -32.9448  -13.1257   13.3085 C   0  0  0  0  0  0  0  0  0  0  0  0
  -31.6914  -13.0116   12.7164 C   0  0  0  0  0  0  0  0  0  0  0  0
  -30.7172  -12.3459   13.3295 N   0  0  0  0  0  0  0  0  0  0  0  0
  -33.4795  -12.6743   14.4392 N   0  0  0  0  0  0  0  0  0  0  0  0
  -34.7459  -13.0822   14.4822 C   0  0  0  0  0  0  0  0  0  0  0  0
  -35.0240  -13.7904   13.3897 N   0  0  0  0  0  0  0  0  0  0  0  0
  1  7  2  0  0  0  0
  1  2  1  0  0  0  0
  2  3  1  0  0  0  0
  2  4  2  0  0  0  0
  4  5  1  0  0  0  0
  5  6  2  0  0  0  0
  5 11  1  0  0  0  0
  6  7  1  0  0  0  0
  6  9  1  0  0  0  0
  7  8  1  0  0  0  0
  9 10  1  0  0  0  0
 10 11  2  0  0  0  0
M  END
>  <CHROM.1>
-32.92130062,-13.54547775,12.51507902,-1.01633224,0.29309747,1.06935602

>  <Name>
ligand

>  <RI>
0

>  <Rbt.Current_Directory>
/home/itssahil/PROJECTS/Mol_Feturizer/Test_systems_manuscript/rnas/2b57

>  <Rbt.Executable>
rbdock ($Id: //depot/dev/client3/rdock/2013.1/src/exe/rbdock.cxx#4 $)

>  <Rbt.Library>
libRbt.so (2013.1, Build901 2013/11/27)

>  <Rbt.Parameter_File>
/export/apps/rDock/src/rDock_2013.1_src/data/scripts/dock_solv.prm

>  <Rbt.Receptor>
prm/blind_docking_100.prm

>  <SCORE>
-7.40607

>  <SCORE.INTER>
-7.40607

>  <SCORE.INTER.CONST>
1

>  <SCORE.INTER.POLAR>
0

>  <SCORE.INTER.ROT>
0

>  <SCORE.INTER.SOLV>
3.24116

>  <SCORE.INTER.VDW>
-9.61777

>  <SCORE.INTER.norm>
-0.67328

>  <SCORE.INTRA>
0

>  <SCORE.INTRA.DIHEDRAL>
0

>  <SCORE.INTRA.DIHEDRAL.0>
0

>  <SCORE.INTRA.POLAR>
0

>  <SCORE.INTRA.POLAR.0>
0

>  <SCORE.INTRA.REPUL>
0

>  <SCORE.INTRA.REPUL.0>
0

>  <SCORE.INTRA.SOLV>
0

>  <SCORE.INTRA.SOLV.lig_0>
-48.3454

>  <SCORE.INTRA.VDW>
0

>  <SCORE.INTRA.VDW.0>
0

>  <SCORE.INTRA.norm>
0

>  <SCORE.RESTR>
0

>  <SCORE.RESTR.CAVITY>
0

>  <SCORE.RESTR.norm>
0

>  <SCORE.SYSTEM>
0

>  <SCORE.SYSTEM.CONST>
0

>  <SCORE.SYSTEM.DIHEDRAL>
0

>  <SCORE.SYSTEM.SOLV>
0

>  <SCORE.SYSTEM.norm>
0

>  <SCORE.heavy>
11

>  <SCORE.norm>
-0.67328

>  <RMSD>
22.202

$$$$
ligand
 OpenBabel02271912153D
libRbt.so/2013.1/901 2013/11/27
 11 12  0  0  0  0  0  0  0  0999 V2000
  -31.3978  -13.4632   11.7237 N   0  0  0  0  0  0  0  0  0  0  0  0
  -32.3141  -14.1580   11.0307 C   0  0  0  0  0  0  0  0  0  0  0  0
  -31.9935  -14.6793    9.8499 N   0  0  0  0  0  0  0  0  0  0  0  0
  -33.5551  -14.3227   11.5144 N   0  0  0  0  0  0  0  0  0  0  0  0
  -33.9048  -13.7945   12.6966 C   0  0  0  0  0  0  0  0  0  0  0  0
  -32.9760  -13.0711   13.4339 C   0  0  0  0  0  0  0  0  0  0  0  0
  -31.6957  -12.9163   12.9129 C   0  0  0  0  0  0  0  0  0  0  0  0
  -30.7726  -12.2395   13.5898 N   0  0  0  0  0  0  0  0  0  0  0  0
  -33.5818  -12.6539   14.5416 N   0  0  0  0  0  0  0  0  0  0  0  0
  -34.8383  -13.0923   14.5085 C   0  0  0  0  0  0  0  0  0  0  0  0
  -35.0396  -13.7861   13.3901 N   0  0  0  0  0  0  0  0  0  0  0  0
  1  7  2  0  0  0  0
  1  2  1  0  0  0  0
  2  3  1  0  0  0  0
  2  4  2  0  0  0  0
  4  5  1  0  0  0  0
  5  6  2  0  0  0  0
  5 11  1  0  0  0  0
  6  7  1  0  0  0  0
  6  9  1  0  0  0  0
  7  8  1  0  0  0  0
  9 10  1  0  0  0  0
 10 11  2  0  0  0  0
M  END
>  <CHROM.1>
-32.89942945,-13.47507286,12.63563712,-0.95464961,0.28819336,1.06999640

>  <Name>
ligand

>  <RI>
0

>  <Rbt.Current_Directory>
/home/itssahil/PROJECTS/Mol_Feturizer/Test_systems_manuscript/rnas/2b57

>  <Rbt.Executable>
rbdock ($Id: //depot/dev/client3/rdock/2013.1/src/exe/rbdock.cxx#4 $)

>  <Rbt.Library>
libRbt.so (2013.1, Build901 2013/11/27)

>  <Rbt.Parameter_File>
/export/apps/rDock/src/rDock_2013.1_src/data/scripts/dock_solv.prm

>  <Rbt.Receptor>
prm/blind_docking_80.prm

>  <SCORE>
-7.40752

>  <SCORE.INTER>
-7.40752

>  <SCORE.INTER.CONST>
1

>  <SCORE.INTER.POLAR>
0

>  <SCORE.INTER.ROT>
0

>  <SCORE.INTER.SOLV>
2.89077

>  <SCORE.INTER.VDW>
-9.50194

>  <SCORE.INTER.norm>
-0.673411

>  <SCORE.INTRA>
0

>  <SCORE.INTRA.DIHEDRAL>
0

>  <SCORE.INTRA.DIHEDRAL.0>
0

>  <SCORE.INTRA.POLAR>
0

>  <SCORE.INTRA.POLAR.0>
0

>  <SCORE.INTRA.REPUL>
0

>  <SCORE.INTRA.REPUL.0>
0

>  <SCORE.INTRA.SOLV>
0

>  <SCORE.INTRA.SOLV.lig_0>
-48.3454

>  <SCORE.INTRA.VDW>
0

>  <SCORE.INTRA.VDW.0>
0

>  <SCORE.INTRA.norm>
0

>  <SCORE.RESTR>
0

>  <SCORE.RESTR.CAVITY>
0

>  <SCORE.RESTR.norm>
0

>  <SCORE.SYSTEM>
0

>  <SCORE.SYSTEM.CONST>
0

>  <SCORE.SYSTEM.DIHEDRAL>
0

>  <SCORE.SYSTEM.SOLV>
0

>  <SCORE.SYSTEM.norm>
0

>  <SCORE.heavy>
11

>  <SCORE.norm>
-0.673411

>  <RMSD>
22.204

$$$$
ligand
 OpenBabel02271912153D
libRbt.so/2013.1/901 2013/11/27
 11 12  0  0  0  0  0  0  0  0999 V2000
  -31.4009  -13.4592   11.7343 N   0  0  0  0  0  0  0  0  0  0  0  0
  -32.3212  -14.1319   11.0249 C   0  0  0  0  0  0  0  0  0  0  0  0
  -32.0020  -14.6310    9.8341 N   0  0  0  0  0  0  0  0  0  0  0  0
  -33.5645  -14.2968   11.5024 N   0  0  0  0  0  0  0  0  0  0  0  0
  -33.9128  -13.7907   12.6947 C   0  0  0  0  0  0  0  0  0  0  0  0
  -32.9799  -13.0903   13.4489 C   0  0  0  0  0  0  0  0  0  0  0  0
  -31.6972  -12.9349   12.9340 C   0  0  0  0  0  0  0  0  0  0  0  0
  -30.7704  -12.2798   13.6269 N   0  0  0  0  0  0  0  0  0  0  0  0
  -33.5849  -12.6916   14.5639 N   0  0  0  0  0  0  0  0  0  0  0  0
  -34.8447  -13.1192   14.5189 C   0  0  0  0  0  0  0  0  0  0  0  0
  -35.0490  -13.7877   13.3858 N   0  0  0  0  0  0  0  0  0  0  0  0
  1  7  2  0  0  0  0
  1  2  1  0  0  0  0
  2  3  1  0  0  0  0
  2  4  2  0  0  0  0
  4  5  1  0  0  0  0
  5  6  2  0  0  0  0
  5 11  1  0  0  0  0
  6  7  1  0  0  0  0
  6  9  1  0  0  0  0
  7  8  1  0  0  0  0
  9 10  1  0  0  0  0
 10 11  2  0  0  0  0
M  END
>  <CHROM.1>
-32.90471705,-13.47812084,12.64254529,-0.95652446,0.28013570,1.09147045

>  <Name>
ligand

>  <RI>
0

>  <Rbt.Current_Directory>
/home/itssahil/PROJECTS/Mol_Feturizer/Test_systems_manuscript/rnas/2b57

>  <Rbt.Executable>
rbdock ($Id: //depot/dev/client3/rdock/2013.1/src/exe/rbdock.cxx#4 $)

>  <Rbt.Library>
libRbt.so (2013.1, Build901 2013/11/27)

>  <Rbt.Parameter_File>
/export/apps/rDock/src/rDock_2013.1_src/data/scripts/dock_solv.prm

>  <Rbt.Receptor>
prm/blind_docking_80.prm

>  <SCORE>
-7.42708

>  <SCORE.INTER>
-7.42708

>  <SCORE.INTER.CONST>
1

>  <SCORE.INTER.POLAR>
0

>  <SCORE.INTER.ROT>
0

>  <SCORE.INTER.SOLV>
3.02252

>  <SCORE.INTER.VDW>
-9.55889

>  <SCORE.INTER.norm>
-0.675189

>  <SCORE.INTRA>
0

>  <SCORE.INTRA.DIHEDRAL>
0

>  <SCORE.INTRA.DIHEDRAL.0>
0

>  <SCORE.INTRA.POLAR>
0

>  <SCORE.INTRA.POLAR.0>
0

>  <SCORE.INTRA.REPUL>
0

>  <SCORE.INTRA.REPUL.0>
0

>  <SCORE.INTRA.SOLV>
0

>  <SCORE.INTRA.SOLV.lig_0>
-48.3454

>  <SCORE.INTRA.VDW>
0

>  <SCORE.INTRA.VDW.0>
0

>  <SCORE.INTRA.norm>
0

>  <SCORE.RESTR>
0

>  <SCORE.RESTR.CAVITY>
0

>  <SCORE.RESTR.norm>
0

>  <SCORE.SYSTEM>
0

>  <SCORE.SYSTEM.CONST>
0

>  <SCORE.SYSTEM.DIHEDRAL>
0

>  <SCORE.SYSTEM.SOLV>
0

>  <SCORE.SYSTEM.norm>
0

>  <SCORE.heavy>
11

>  <SCORE.norm>
-0.675189

>  <RMSD>
22.212

$$$$
ligand
 OpenBabel02271912153D
libRbt.so/2013.1/901 2013/11/27
 11 12  0  0  0  0  0  0  0  0999 V2000
  -31.3954  -13.4050   11.7480 N   0  0  0  0  0  0  0  0  0  0  0  0
  -32.2994  -14.0836   11.0234 C   0  0  0  0  0  0  0  0  0  0  0  0
  -31.9619  -14.5670    9.8312 N   0  0  0  0  0  0  0  0  0  0  0  0
  -33.5449  -14.2701   11.4872 N   0  0  0  0  0  0  0  0  0  0  0  0
  -33.9115  -13.7801   12.6807 C   0  0  0  0  0  0  0  0  0  0  0  0
  -32.9958  -13.0741   13.4505 C   0  0  0  0  0  0  0  0  0  0  0  0
  -31.7104  -12.8962   12.9496 C   0  0  0  0  0  0  0  0  0  0  0  0
  -30.7994  -12.2350   13.6575 N   0  0  0  0  0  0  0  0  0  0  0  0
  -33.6169  -12.6943   14.5632 N   0  0  0  0  0  0  0  0  0  0  0  0
  -34.8702  -13.1388   14.5020 C   0  0  0  0  0  0  0  0  0  0  0  0
  -35.0542  -13.7993   13.3608 N   0  0  0  0  0  0  0  0  0  0  0  0
  1  7  2  0  0  0  0
  1  2  1  0  0  0  0
  2  3  1  0  0  0  0
  2  4  2  0  0  0  0
  4  5  1  0  0  0  0
  5  6  2  0  0  0  0
  5 11  1  0  0  0  0
  6  7  1  0  0  0  0
  6  9  1  0  0  0  0
  7  8  1  0  0  0  0
  9 10  1  0  0  0  0
 10 11  2  0  0  0  0
M  END
>  <CHROM.1>
-32.90745870,-13.45321240,12.64133118,-0.94098688,0.28795580,1.09650413

>  <Name>
ligand

>  <RI>
0

>  <Rbt.Current_Directory>
/home/itssahil/PROJECTS/Mol_Feturizer/Test_systems_manuscript/rnas/2b57

>  <Rbt.Executable>
rbdock ($Id: //depot/dev/client3/rdock/2013.1/src/exe/rbdock.cxx#4 $)

>  <Rbt.Library>
libRbt.so (2013.1, Build901 2013/11/27)

>  <Rbt.Parameter_File>
/export/apps/rDock/src/rDock_2013.1_src/data/scripts/dock_solv.prm

>  <Rbt.Receptor>
prm/blind_docking_80.prm

>  <SCORE>
-7.40593

>  <SCORE.INTER>
-7.40593

>  <SCORE.INTER.CONST>
1

>  <SCORE.INTER.POLAR>
0

>  <SCORE.INTER.ROT>
0

>  <SCORE.INTER.SOLV>
2.89457

>  <SCORE.INTER.VDW>
-9.50215

>  <SCORE.INTER.norm>
-0.673267

>  <SCORE.INTRA>
0

>  <SCORE.INTRA.DIHEDRAL>
0

>  <SCORE.INTRA.DIHEDRAL.0>
0

>  <SCORE.INTRA.POLAR>
0

>  <SCORE.INTRA.POLAR.0>
0

>  <SCORE.INTRA.REPUL>
0

>  <SCORE.INTRA.REPUL.0>
0

>  <SCORE.INTRA.SOLV>
0

>  <SCORE.INTRA.SOLV.lig_0>
-48.3454

>  <SCORE.INTRA.VDW>
0

>  <SCORE.INTRA.VDW.0>
0

>  <SCORE.INTRA.norm>
0

>  <SCORE.RESTR>
0

>  <SCORE.RESTR.CAVITY>
0

>  <SCORE.RESTR.norm>
0

>  <SCORE.SYSTEM>
0

>  <SCORE.SYSTEM.CONST>
0

>  <SCORE.SYSTEM.DIHEDRAL>
0

>  <SCORE.SYSTEM.SOLV>
0

>  <SCORE.SYSTEM.norm>
0

>  <SCORE.heavy>
11

>  <SCORE.norm>
-0.673267

>  <RMSD>
22.214

$$$$
ligand
 OpenBabel02271912153D
libRbt.so/2013.1/901 2013/11/27
 11 12  0  0  0  0  0  0  0  0999 V2000
  -31.5096  -13.6061   11.5106 N   0  0  0  0  0  0  0  0  0  0  0  0
  -32.4901  -14.3002   10.9109 C   0  0  0  0  0  0  0  0  0  0  0  0
  -32.2701  -14.8663    9.7277 N   0  0  0  0  0  0  0  0  0  0  0  0
  -33.6947  -14.4193   11.4903 N   0  0  0  0  0  0  0  0  0  0  0  0
  -33.9435  -13.8456   12.6769 C   0  0  0  0  0  0  0  0  0  0  0  0
  -32.9466  -13.1218   13.3188 C   0  0  0  0  0  0  0  0  0  0  0  0
  -31.7057  -13.0147   12.6995 C   0  0  0  0  0  0  0  0  0  0  0  0
  -30.7201  -12.3393   13.2832 N   0  0  0  0  0  0  0  0  0  0  0  0
  -33.4586  -12.6552   14.4537 N   0  0  0  0  0  0  0  0  0  0  0  0
  -34.7233  -13.0639   14.5284 C   0  0  0  0  0  0  0  0  0  0  0  0
  -35.0227  -13.7876   13.4518 N   0  0  0  0  0  0  0  0  0  0  0  0
  1  7  2  0  0  0  0
  1  2  1  0  0  0  0
  2  3  1  0  0  0  0
  2  4  2  0  0  0  0
  4  5  1  0  0  0  0
  5  6  2  0  0  0  0
  5 11  1  0  0  0  0
  6  7  1  0  0  0  0
  6  9  1  0  0  0  0
  7  8  1  0  0  0  0
  9 10  1  0  0  0  0
 10 11  2  0  0  0  0
M  END
>  <CHROM.1>
-32.93873547,-13.55268069,12.53099646,-1.03444856,0.30412755,1.06064654

>  <Name>
ligand

>  <RI>
0

>  <Rbt.Current_Directory>
/home/itssahil/PROJECTS/Mol_Feturizer/Test_systems_manuscript/rnas/2b57

>  <Rbt.Executable>
rbdock ($Id: //depot/dev/client3/rdock/2013.1/src/exe/rbdock.cxx#4 $)

>  <Rbt.Library>
libRbt.so (2013.1, Build901 2013/11/27)

>  <Rbt.Parameter_File>
/export/apps/rDock/src/rDock_2013.1_src/data/scripts/dock_solv.prm

>  <Rbt.Receptor>
prm/blind_docking_60.prm

>  <SCORE>
-7.39865

>  <SCORE.INTER>
-7.39865

>  <SCORE.INTER.CONST>
1

>  <SCORE.INTER.POLAR>
0

>  <SCORE.INTER.ROT>
0

>  <SCORE.INTER.SOLV>
3.40673

>  <SCORE.INTER.VDW>
-9.66801

>  <SCORE.INTER.norm>
-0.672605

>  <SCORE.INTRA>
0

>  <SCORE.INTRA.DIHEDRAL>
0

>  <SCORE.INTRA.DIHEDRAL.0>
0

>  <SCORE.INTRA.POLAR>
0

>  <SCORE.INTRA.POLAR.0>
0

>  <SCORE.INTRA.REPUL>
0

>  <SCORE.INTRA.REPUL.0>
0

>  <SCORE.INTRA.SOLV>
0

>  <SCORE.INTRA.SOLV.lig_0>
-48.3454

>  <SCORE.INTRA.VDW>
0

>  <SCORE.INTRA.VDW.0>
0

>  <SCORE.INTRA.norm>
0

>  <SCORE.RESTR>
0

>  <SCORE.RESTR.CAVITY>
0

>  <SCORE.RESTR.norm>
0

>  <SCORE.SYSTEM>
0

>  <SCORE.SYSTEM.CONST>
0

>  <SCORE.SYSTEM.DIHEDRAL>
0

>  <SCORE.SYSTEM.SOLV>
0

>  <SCORE.SYSTEM.norm>
0

>  <SCORE.heavy>
11

>  <SCORE.norm>
-0.672605

>  <RMSD>
22.222

$$$$
ligand
 OpenBabel02271912153D
libRbt.so/2013.1/901 2013/11/27
 11 12  0  0  0  0  0  0  0  0999 V2000
  -31.4618  -13.4641   11.6513 N   0  0  0  0  0  0  0  0  0  0  0  0
  -32.3861  -14.1768   10.9876 C   0  0  0  0  0  0  0  0  0  0  0  0
  -32.0907  -14.6985    9.8004 N   0  0  0  0  0  0  0  0  0  0  0  0
  -33.6101  -14.3591   11.5071 N   0  0  0  0  0  0  0  0  0  0  0  0
  -33.9346  -13.8311   12.6965 C   0  0  0  0  0  0  0  0  0  0  0  0
  -32.9971  -13.0894   13.4040 C   0  0  0  0  0  0  0  0  0  0  0  0
  -31.7347  -12.9164   12.8461 C   0  0  0  0  0  0  0  0  0  0  0  0
  -30.8039  -12.2217   13.4936 N   0  0  0  0  0  0  0  0  0  0  0  0
  -33.5778  -12.6768   14.5267 N   0  0  0  0  0  0  0  0  0  0  0  0
  -34.8275  -13.1355   14.5313 C   0  0  0  0  0  0  0  0  0  0  0  0
  -35.0492  -13.8376   13.4221 N   0  0  0  0  0  0  0  0  0  0  0  0
  1  7  2  0  0  0  0
  1  2  1  0  0  0  0
  2  3  1  0  0  0  0
  2  4  2  0  0  0  0
  4  5  1  0  0  0  0
  5  6  2  0  0  0  0
  5 11  1  0  0  0  0
  6  7  1  0  0  0  0
  6  9  1  0  0  0  0
  7  8  1  0  0  0  0
  9 10  1  0  0  0  0
 10 11  2  0  0  0  0
M  END
>  <CHROM.1>
-32.93663518,-13.49583263,12.60563838,-0.97266233,0.31600461,1.07086316

>  <Name>
ligand

>  <RI>
0

>  <Rbt.Current_Directory>
/home/itssahil/PROJECTS/Mol_Feturizer/Test_systems_manuscript/rnas/2b57

>  <Rbt.Executable>
rbdock ($Id: //depot/dev/client3/rdock/2013.1/src/exe/rbdock.cxx#4 $)

>  <Rbt.Library>
libRbt.so (2013.1, Build901 2013/11/27)

>  <Rbt.Parameter_File>
/export/apps/rDock/src/rDock_2013.1_src/data/scripts/dock_solv.prm

>  <Rbt.Receptor>
prm/blind_docking_100.prm

>  <SCORE>
-7.39741

>  <SCORE.INTER>
-7.39741

>  <SCORE.INTER.CONST>
1

>  <SCORE.INTER.POLAR>
0

>  <SCORE.INTER.ROT>
0

>  <SCORE.INTER.SOLV>
3.08574

>  <SCORE.INTER.VDW>
-9.56019

>  <SCORE.INTER.norm>
-0.672492

>  <SCORE.INTRA>
0

>  <SCORE.INTRA.DIHEDRAL>
0

>  <SCORE.INTRA.DIHEDRAL.0>
0

>  <SCORE.INTRA.POLAR>
0

>  <SCORE.INTRA.POLAR.0>
0

>  <SCORE.INTRA.REPUL>
0

>  <SCORE.INTRA.REPUL.0>
0

>  <SCORE.INTRA.SOLV>
0

>  <SCORE.INTRA.SOLV.lig_0>
-48.3454

>  <SCORE.INTRA.VDW>
0

>  <SCORE.INTRA.VDW.0>
0

>  <SCORE.INTRA.norm>
0

>  <SCORE.RESTR>
0

>  <SCORE.RESTR.CAVITY>
0

>  <SCORE.RESTR.norm>
0

>  <SCORE.SYSTEM>
0

>  <SCORE.SYSTEM.CONST>
0

>  <SCORE.SYSTEM.DIHEDRAL>
0

>  <SCORE.SYSTEM.SOLV>
0

>  <SCORE.SYSTEM.norm>
0

>  <SCORE.heavy>
11

>  <SCORE.norm>
-0.672492

>  <RMSD>
22.234

$$$$
ligand
 OpenBabel02271912153D
libRbt.so/2013.1/901 2013/11/27
 11 12  0  0  0  0  0  0  0  0999 V2000
  -31.4967  -13.5615   11.6204 N   0  0  0  0  0  0  0  0  0  0  0  0
  -32.4667  -14.2424   10.9895 C   0  0  0  0  0  0  0  0  0  0  0  0
  -32.2253  -14.7866    9.8001 N   0  0  0  0  0  0  0  0  0  0  0  0
  -33.6822  -14.3704   11.5439 N   0  0  0  0  0  0  0  0  0  0  0  0
  -33.9524  -13.8186   12.7362 C   0  0  0  0  0  0  0  0  0  0  0  0
  -32.9668  -13.1088   13.4102 C   0  0  0  0  0  0  0  0  0  0  0  0
  -31.7143  -12.9922   12.8165 C   0  0  0  0  0  0  0  0  0  0  0  0
  -30.7390  -12.3296   13.4311 N   0  0  0  0  0  0  0  0  0  0  0  0
  -33.4994  -12.6627   14.5439 N   0  0  0  0  0  0  0  0  0  0  0  0
  -34.7658  -13.0706   14.5871 C   0  0  0  0  0  0  0  0  0  0  0  0
  -35.0459  -13.7735   13.4917 N   0  0  0  0  0  0  0  0  0  0  0  0
  1  7  2  0  0  0  0
  1  2  1  0  0  0  0
  2  3  1  0  0  0  0
  2  4  2  0  0  0  0
  4  5  1  0  0  0  0
  5  6  2  0  0  0  0
  5 11  1  0  0  0  0
  6  7  1  0  0  0  0
  6  9  1  0  0  0  0
  7  8  1  0  0  0  0
  9 10  1  0  0  0  0
 10 11  2  0  0  0  0
M  END
>  <CHROM.1>
-32.94468928,-13.52479443,12.61470474,-1.01801621,0.29372138,1.07465109

>  <Name>
ligand

>  <RI>
0

>  <Rbt.Current_Directory>
/home/itssahil/PROJECTS/Mol_Feturizer/Test_systems_manuscript/rnas/2b57

>  <Rbt.Executable>
rbdock ($Id: //depot/dev/client3/rdock/2013.1/src/exe/rbdock.cxx#4 $)

>  <Rbt.Library>
libRbt.so (2013.1, Build901 2013/11/27)

>  <Rbt.Parameter_File>
/export/apps/rDock/src/rDock_2013.1_src/data/scripts/dock_solv.prm

>  <Rbt.Receptor>
prm/blind_docking_60.prm

>  <SCORE>
-7.36849

>  <SCORE.INTER>
-7.36849

>  <SCORE.INTER.CONST>
1

>  <SCORE.INTER.POLAR>
0

>  <SCORE.INTER.ROT>
0

>  <SCORE.INTER.SOLV>
3.46464

>  <SCORE.INTER.VDW>
-9.66721

>  <SCORE.INTER.norm>
-0.669863

>  <SCORE.INTRA>
0

>  <SCORE.INTRA.DIHEDRAL>
0

>  <SCORE.INTRA.DIHEDRAL.0>
0

>  <SCORE.INTRA.POLAR>
0

>  <SCORE.INTRA.POLAR.0>
0

>  <SCORE.INTRA.REPUL>
0

>  <SCORE.INTRA.REPUL.0>
0

>  <SCORE.INTRA.SOLV>
0

>  <SCORE.INTRA.SOLV.lig_0>
-48.3454

>  <SCORE.INTRA.VDW>
0

>  <SCORE.INTRA.VDW.0>
0

>  <SCORE.INTRA.norm>
0

>  <SCORE.RESTR>
0

>  <SCORE.RESTR.CAVITY>
0

>  <SCORE.RESTR.norm>
0

>  <SCORE.SYSTEM>
0

>  <SCORE.SYSTEM.CONST>
0

>  <SCORE.SYSTEM.DIHEDRAL>
0

>  <SCORE.SYSTEM.SOLV>
0

>  <SCORE.SYSTEM.norm>
0

>  <SCORE.heavy>
11

>  <SCORE.norm>
-0.669863

>  <RMSD>
22.246

$$$$
ligand
 OpenBabel02271912153D
libRbt.so/2013.1/901 2013/11/27
 11 12  0  0  0  0  0  0  0  0999 V2000
  -31.4665  -13.5574   11.6631 N   0  0  0  0  0  0  0  0  0  0  0  0
  -32.4186  -14.2163   10.9832 C   0  0  0  0  0  0  0  0  0  0  0  0
  -32.1380  -14.7396    9.7931 N   0  0  0  0  0  0  0  0  0  0  0  0
  -33.6550  -14.3431   11.4896 N   0  0  0  0  0  0  0  0  0  0  0  0
  -33.9643  -13.8120   12.6817 C   0  0  0  0  0  0  0  0  0  0  0  0
  -32.9981  -13.1252   13.4058 C   0  0  0  0  0  0  0  0  0  0  0  0
  -31.7233  -13.0094   12.8613 C   0  0  0  0  0  0  0  0  0  0  0  0
  -30.7655  -12.3686   13.5247 N   0  0  0  0  0  0  0  0  0  0  0  0
  -33.5684  -12.6961   14.5276 N   0  0  0  0  0  0  0  0  0  0  0  0
  -34.8392  -13.0922   14.5158 C   0  0  0  0  0  0  0  0  0  0  0  0
  -35.0848  -13.7708   13.3970 N   0  0  0  0  0  0  0  0  0  0  0  0
  1  7  2  0  0  0  0
  1  2  1  0  0  0  0
  2  3  1  0  0  0  0
  2  4  2  0  0  0  0
  4  5  1  0  0  0  0
  5  6  2  0  0  0  0
  5 11  1  0  0  0  0
  6  7  1  0  0  0  0
  6  9  1  0  0  0  0
  7  8  1  0  0  0  0
  9 10  1  0  0  0  0
 10 11  2  0  0  0  0
M  END
>  <CHROM.1>
-32.95016036,-13.52581792,12.60353380,-0.98856172,0.26783959,1.08615555

>  <Name>
ligand

>  <RI>
0

>  <Rbt.Current_Directory>
/home/itssahil/PROJECTS/Mol_Feturizer/Test_systems_manuscript/rnas/2b57

>  <Rbt.Executable>
rbdock ($Id: //depot/dev/client3/rdock/2013.1/src/exe/rbdock.cxx#4 $)

>  <Rbt.Library>
libRbt.so (2013.1, Build901 2013/11/27)

>  <Rbt.Parameter_File>
/export/apps/rDock/src/rDock_2013.1_src/data/scripts/dock_solv.prm

>  <Rbt.Receptor>
prm/blind_docking_80.prm

>  <SCORE>
-7.40879

>  <SCORE.INTER>
-7.40879

>  <SCORE.INTER.CONST>
1

>  <SCORE.INTER.POLAR>
0

>  <SCORE.INTER.ROT>
0

>  <SCORE.INTER.SOLV>
3.35785

>  <SCORE.INTER.VDW>
-9.65848

>  <SCORE.INTER.norm>
-0.673527

>  <SCORE.INTRA>
0

>  <SCORE.INTRA.DIHEDRAL>
0

>  <SCORE.INTRA.DIHEDRAL.0>
0

>  <SCORE.INTRA.POLAR>
0

>  <SCORE.INTRA.POLAR.0>
0

>  <SCORE.INTRA.REPUL>
0

>  <SCORE.INTRA.REPUL.0>
0

>  <SCORE.INTRA.SOLV>
0

>  <SCORE.INTRA.SOLV.lig_0>
-48.3454

>  <SCORE.INTRA.VDW>
0

>  <SCORE.INTRA.VDW.0>
0

>  <SCORE.INTRA.norm>
0

>  <SCORE.RESTR>
0

>  <SCORE.RESTR.CAVITY>
0

>  <SCORE.RESTR.norm>
0

>  <SCORE.SYSTEM>
0

>  <SCORE.SYSTEM.CONST>
0

>  <SCORE.SYSTEM.DIHEDRAL>
0

>  <SCORE.SYSTEM.SOLV>
0

>  <SCORE.SYSTEM.norm>
0

>  <SCORE.heavy>
11

>  <SCORE.norm>
-0.673527

>  <RMSD>
22.249

$$$$
ligand
 OpenBabel02271912153D
libRbt.so/2013.1/901 2013/11/27
 11 12  0  0  0  0  0  0  0  0999 V2000
  -31.5202  -13.6170   11.5431 N   0  0  0  0  0  0  0  0  0  0  0  0
  -32.4912  -14.3060   10.9225 C   0  0  0  0  0  0  0  0  0  0  0  0
  -32.2476  -14.8766    9.7460 N   0  0  0  0  0  0  0  0  0  0  0  0
  -33.7097  -14.4156   11.4741 N   0  0  0  0  0  0  0  0  0  0  0  0
  -33.9821  -13.8373   12.6532 C   0  0  0  0  0  0  0  0  0  0  0  0
  -32.9955  -13.1185   13.3163 C   0  0  0  0  0  0  0  0  0  0  0  0
  -31.7399  -13.0212   12.7258 C   0  0  0  0  0  0  0  0  0  0  0  0
  -30.7636  -12.3510   13.3305 N   0  0  0  0  0  0  0  0  0  0  0  0
  -33.5305  -12.6456   14.4379 N   0  0  0  0  0  0  0  0  0  0  0  0
  -34.7993  -13.0457   14.4842 C   0  0  0  0  0  0  0  0  0  0  0  0
  -35.0785  -13.7702   13.4028 N   0  0  0  0  0  0  0  0  0  0  0  0
  1  7  2  0  0  0  0
  1  2  1  0  0  0  0
  2  3  1  0  0  0  0
  2  4  2  0  0  0  0
  4  5  1  0  0  0  0
  5  6  2  0  0  0  0
  5 11  1  0  0  0  0
  6  7  1  0  0  0  0
  6  9  1  0  0  0  0
  7  8  1  0  0  0  0
  9 10  1  0  0  0  0
 10 11  2  0  0  0  0
M  END
>  <CHROM.1>
-32.97225015,-13.55144811,12.52994086,-1.01677843,0.28689986,1.05304802

>  <Name>
ligand

>  <RI>
0

>  <Rbt.Current_Directory>
/home/itssahil/PROJECTS/Mol_Feturizer/Test_systems_manuscript/rnas/2b57

>  <Rbt.Executable>
rbdock ($Id: //depot/dev/client3/rdock/2013.1/src/exe/rbdock.cxx#4 $)

>  <Rbt.Library>
libRbt.so (2013.1, Build901 2013/11/27)

>  <Rbt.Parameter_File>
/export/apps/rDock/src/rDock_2013.1_src/data/scripts/dock_solv.prm

>  <Rbt.Receptor>
prm/blind_docking_60.prm

>  <SCORE>
-7.38935

>  <SCORE.INTER>
-7.38935

>  <SCORE.INTER.CONST>
1

>  <SCORE.INTER.POLAR>
0

>  <SCORE.INTER.ROT>
0

>  <SCORE.INTER.SOLV>
3.37517

>  <SCORE.INTER.VDW>
-9.65129

>  <SCORE.INTER.norm>
-0.671759

>  <SCORE.INTRA>
0

>  <SCORE.INTRA.DIHEDRAL>
0

>  <SCORE.INTRA.DIHEDRAL.0>
0

>  <SCORE.INTRA.POLAR>
0

>  <SCORE.INTRA.POLAR.0>
0

>  <SCORE.INTRA.REPUL>
0

>  <SCORE.INTRA.REPUL.0>
0

>  <SCORE.INTRA.SOLV>
0

>  <SCORE.INTRA.SOLV.lig_0>
-48.3454

>  <SCORE.INTRA.VDW>
0

>  <SCORE.INTRA.VDW.0>
0

>  <SCORE.INTRA.norm>
0

>  <SCORE.RESTR>
0

>  <SCORE.RESTR.CAVITY>
0

>  <SCORE.RESTR.norm>
0

>  <SCORE.SYSTEM>
0

>  <SCORE.SYSTEM.CONST>
0

>  <SCORE.SYSTEM.DIHEDRAL>
0

>  <SCORE.SYSTEM.SOLV>
0

>  <SCORE.SYSTEM.norm>
0

>  <SCORE.heavy>
11

>  <SCORE.norm>
-0.671759

>  <RMSD>
22.254

$$$$
ligand
 OpenBabel02271912153D
libRbt.so/2013.1/901 2013/11/27
 11 12  0  0  0  0  0  0  0  0999 V2000
  -32.7374  -12.6361   15.2533 N   0  0  0  0  0  0  0  0  0  0  0  0
  -33.9789  -13.1448   15.3061 C   0  0  0  0  0  0  0  0  0  0  0  0
  -34.6667  -13.0911   16.4432 N   0  0  0  0  0  0  0  0  0  0  0  0
  -34.5288  -13.7167   14.2237 N   0  0  0  0  0  0  0  0  0  0  0  0
  -33.8488  -13.7941   13.0702 C   0  0  0  0  0  0  0  0  0  0  0  0
  -32.5626  -13.2758   12.9884 C   0  0  0  0  0  0  0  0  0  0  0  0
  -32.0152  -12.6857   14.1228 C   0  0  0  0  0  0  0  0  0  0  0  0
  -30.7908  -12.1683   14.0862 N   0  0  0  0  0  0  0  0  0  0  0  0
  -32.1201  -13.4962   11.7540 N   0  0  0  0  0  0  0  0  0  0  0  0
  -33.0818  -14.1263   11.0831 C   0  0  0  0  0  0  0  0  0  0  0  0
  -34.1341  -14.3093   11.8778 N   0  0  0  0  0  0  0  0  0  0  0  0
  1  7  2  0  0  0  0
  1  2  1  0  0  0  0
  2  3  1  0  0  0  0
  2  4  2  0  0  0  0
  4  5  1  0  0  0  0
  5  6  2  0  0  0  0
  5 11  1  0  0  0  0
  6  7  1  0  0  0  0
  6  9  1  0  0  0  0
  7  8  1  0  0  0  0
  9 10  1  0  0  0  0
 10 11  2  0  0  0  0
M  END
>  <CHROM.1>
-33.13566347,-13.30672840,13.67898267,-1.80979346,-0.38690404,-1.88038849

>  <Name>
ligand

>  <RI>
0

>  <Rbt.Current_Directory>
/home/itssahil/PROJECTS/Mol_Feturizer/Test_systems_manuscript/rnas/2b57

>  <Rbt.Executable>
rbdock ($Id: //depot/dev/client3/rdock/2013.1/src/exe/rbdock.cxx#4 $)

>  <Rbt.Library>
libRbt.so (2013.1, Build901 2013/11/27)

>  <Rbt.Parameter_File>
/export/apps/rDock/src/rDock_2013.1_src/data/scripts/dock_solv.prm

>  <Rbt.Receptor>
prm/blind_docking_100.prm

>  <SCORE>
-6.11268

>  <SCORE.INTER>
-6.11268

>  <SCORE.INTER.CONST>
1

>  <SCORE.INTER.POLAR>
0

>  <SCORE.INTER.ROT>
0

>  <SCORE.INTER.SOLV>
5.22524

>  <SCORE.INTER.VDW>
-9.41687

>  <SCORE.INTER.norm>
-0.555699

>  <SCORE.INTRA>
0

>  <SCORE.INTRA.DIHEDRAL>
0

>  <SCORE.INTRA.DIHEDRAL.0>
0

>  <SCORE.INTRA.POLAR>
0

>  <SCORE.INTRA.POLAR.0>
0

>  <SCORE.INTRA.REPUL>
0

>  <SCORE.INTRA.REPUL.0>
0

>  <SCORE.INTRA.SOLV>
0

>  <SCORE.INTRA.SOLV.lig_0>
-48.3454

>  <SCORE.INTRA.VDW>
0

>  <SCORE.INTRA.VDW.0>
0

>  <SCORE.INTRA.norm>
0

>  <SCORE.RESTR>
0

>  <SCORE.RESTR.CAVITY>
0

>  <SCORE.RESTR.norm>
0

>  <SCORE.SYSTEM>
0

>  <SCORE.SYSTEM.CONST>
0

>  <SCORE.SYSTEM.DIHEDRAL>
0

>  <SCORE.SYSTEM.SOLV>
0

>  <SCORE.SYSTEM.norm>
0

>  <SCORE.heavy>
11

>  <SCORE.norm>
-0.555699

>  <RMSD>
22.439

$$$$
ligand
 OpenBabel02271912153D
libRbt.so/2013.1/901 2013/11/27
 11 12  0  0  0  0  0  0  0  0999 V2000
  -32.8681  -12.5834   15.2399 N   0  0  0  0  0  0  0  0  0  0  0  0
  -34.1011  -13.1146   15.2543 C   0  0  0  0  0  0  0  0  0  0  0  0
  -34.8297  -13.0627   16.3659 N   0  0  0  0  0  0  0  0  0  0  0  0
  -34.6018  -13.7073   14.1593 N   0  0  0  0  0  0  0  0  0  0  0  0
  -33.8801  -13.7833   13.0314 C   0  0  0  0  0  0  0  0  0  0  0  0
  -32.6015  -13.2418   12.9894 C   0  0  0  0  0  0  0  0  0  0  0  0
  -32.1055  -12.6305   14.1362 C   0  0  0  0  0  0  0  0  0  0  0  0
  -30.8903  -12.0907   14.1373 N   0  0  0  0  0  0  0  0  0  0  0  0
  -32.1117  -13.4660   11.7738 N   0  0  0  0  0  0  0  0  0  0  0  0
  -33.0372  -14.1206   11.0761 C   0  0  0  0  0  0  0  0  0  0  0  0
  -34.1135  -14.3154   11.8351 N   0  0  0  0  0  0  0  0  0  0  0  0
  1  7  2  0  0  0  0
  1  2  1  0  0  0  0
  2  3  1  0  0  0  0
  2  4  2  0  0  0  0
  4  5  1  0  0  0  0
  5  6  2  0  0  0  0
  5 11  1  0  0  0  0
  6  7  1  0  0  0  0
  6  9  1  0  0  0  0
  7  8  1  0  0  0  0
  9 10  1  0  0  0  0
 10 11  2  0  0  0  0
M  END
>  <CHROM.1>
-33.19803477,-13.27671644,13.65970400,-1.85236160,-0.39326731,-1.90671855

>  <Name>
ligand

>  <RI>
0

>  <Rbt.Current_Directory>
/home/itssahil/PROJECTS/Mol_Feturizer/Test_systems_manuscript/rnas/2b57

>  <Rbt.Executable>
rbdock ($Id: //depot/dev/client3/rdock/2013.1/src/exe/rbdock.cxx#4 $)

>  <Rbt.Library>
libRbt.so (2013.1, Build901 2013/11/27)

>  <Rbt.Parameter_File>
/export/apps/rDock/src/rDock_2013.1_src/data/scripts/dock_solv.prm

>  <Rbt.Receptor>
prm/blind_docking_60.prm

>  <SCORE>
-6.22513

>  <SCORE.INTER>
-6.22513

>  <SCORE.INTER.CONST>
1

>  <SCORE.INTER.POLAR>
0

>  <SCORE.INTER.ROT>
0

>  <SCORE.INTER.SOLV>
5.39609

>  <SCORE.INTER.VDW>
-9.54879

>  <SCORE.INTER.norm>
-0.565921

>  <SCORE.INTRA>
0

>  <SCORE.INTRA.DIHEDRAL>
0

>  <SCORE.INTRA.DIHEDRAL.0>
0

>  <SCORE.INTRA.POLAR>
0

>  <SCORE.INTRA.POLAR.0>
0

>  <SCORE.INTRA.REPUL>
0

>  <SCORE.INTRA.REPUL.0>
0

>  <SCORE.INTRA.SOLV>
0

>  <SCORE.INTRA.SOLV.lig_0>
-48.3454

>  <SCORE.INTRA.VDW>
0

>  <SCORE.INTRA.VDW.0>
0

>  <SCORE.INTRA.norm>
0

>  <SCORE.RESTR>
0

>  <SCORE.RESTR.CAVITY>
0

>  <SCORE.RESTR.norm>
0

>  <SCORE.SYSTEM>
0

>  <SCORE.SYSTEM.CONST>
0

>  <SCORE.SYSTEM.DIHEDRAL>
0

>  <SCORE.SYSTEM.SOLV>
0

>  <SCORE.SYSTEM.norm>
0

>  <SCORE.heavy>
11

>  <SCORE.norm>
-0.565921

>  <RMSD>
22.492

$$$$
ligand
 OpenBabel02271912153D
libRbt.so/2013.1/901 2013/11/27
 11 12  0  0  0  0  0  0  0  0999 V2000
  -32.4870  -12.7563   16.2813 N   0  0  0  0  0  0  0  0  0  0  0  0
  -33.7487  -13.0970   16.5892 C   0  0  0  0  0  0  0  0  0  0  0  0
  -34.1493  -13.0703   17.8572 N   0  0  0  0  0  0  0  0  0  0  0  0
  -34.6073  -13.4746   15.6294 N   0  0  0  0  0  0  0  0  0  0  0  0
  -34.2216  -13.5219   14.3457 C   0  0  0  0  0  0  0  0  0  0  0  0
  -32.9218  -13.1747   13.9998 C   0  0  0  0  0  0  0  0  0  0  0  0
  -32.0512  -12.7843   15.0119 C   0  0  0  0  0  0  0  0  0  0  0  0
  -30.8010  -12.4344   14.7243 N   0  0  0  0  0  0  0  0  0  0  0  0
  -32.8048  -13.3228   12.6836 N   0  0  0  0  0  0  0  0  0  0  0  0
  -33.9771  -13.7454   12.2155 C   0  0  0  0  0  0  0  0  0  0  0  0
  -34.8413  -13.8675   13.2209 N   0  0  0  0  0  0  0  0  0  0  0  0
  1  7  2  0  0  0  0
  1  2  1  0  0  0  0
  2  3  1  0  0  0  0
  2  4  2  0  0  0  0
  4  5  1  0  0  0  0
  5  6  2  0  0  0  0
  5 11  1  0  0  0  0
  6  7  1  0  0  0  0
  6  9  1  0  0  0  0
  7  8  1  0  0  0  0
  9 10  1  0  0  0  0
 10 11  2  0  0  0  0
M  END
>  <CHROM.1>
-33.32443243,-13.20030919,14.80200201,-1.53559185,-0.29427088,-1.69930417

>  <Name>
ligand

>  <RI>
0

>  <Rbt.Current_Directory>
/home/itssahil/PROJECTS/Mol_Feturizer/Test_systems_manuscript/rnas/2b57

>  <Rbt.Executable>
rbdock ($Id: //depot/dev/client3/rdock/2013.1/src/exe/rbdock.cxx#4 $)

>  <Rbt.Library>
libRbt.so (2013.1, Build901 2013/11/27)

>  <Rbt.Parameter_File>
/export/apps/rDock/src/rDock_2013.1_src/data/scripts/dock_solv.prm

>  <Rbt.Receptor>
prm/blind_docking_100.prm

>  <SCORE>
-6.1319

>  <SCORE.INTER>
-6.1319

>  <SCORE.INTER.CONST>
1

>  <SCORE.INTER.POLAR>
0

>  <SCORE.INTER.ROT>
0

>  <SCORE.INTER.SOLV>
4.36337

>  <SCORE.INTER.VDW>
-9.14239

>  <SCORE.INTER.norm>
-0.557445

>  <SCORE.INTRA>
0

>  <SCORE.INTRA.DIHEDRAL>
0

>  <SCORE.INTRA.DIHEDRAL.0>
0

>  <SCORE.INTRA.POLAR>
0

>  <SCORE.INTRA.POLAR.0>
0

>  <SCORE.INTRA.REPUL>
0

>  <SCORE.INTRA.REPUL.0>
0

>  <SCORE.INTRA.SOLV>
0

>  <SCORE.INTRA.SOLV.lig_0>
-48.3454

>  <SCORE.INTRA.VDW>
0

>  <SCORE.INTRA.VDW.0>
0

>  <SCORE.INTRA.norm>
0

>  <SCORE.RESTR>
0

>  <SCORE.RESTR.CAVITY>
0

>  <SCORE.RESTR.norm>
0

>  <SCORE.SYSTEM>
0

>  <SCORE.SYSTEM.CONST>
0

>  <SCORE.SYSTEM.DIHEDRAL>
0

>  <SCORE.SYSTEM.SOLV>
0

>  <SCORE.SYSTEM.norm>
0

>  <SCORE.heavy>
11

>  <SCORE.norm>
-0.557445

>  <RMSD>
22.953

$$$$
ligand
 OpenBabel02271912153D
libRbt.so/2013.1/901 2013/11/27
 11 12  0  0  0  0  0  0  0  0999 V2000
  -32.5689  -12.7108   16.2938 N   0  0  0  0  0  0  0  0  0  0  0  0
  -33.8327  -13.0608   16.5822 C   0  0  0  0  0  0  0  0  0  0  0  0
  -34.2554  -13.0293   17.8429 N   0  0  0  0  0  0  0  0  0  0  0  0
  -34.6712  -13.4524   15.6103 N   0  0  0  0  0  0  0  0  0  0  0  0
  -34.2629  -13.5048   14.3338 C   0  0  0  0  0  0  0  0  0  0  0  0
  -32.9604  -13.1482   14.0081 C   0  0  0  0  0  0  0  0  0  0  0  0
  -32.1110  -12.7433   15.0324 C   0  0  0  0  0  0  0  0  0  0  0  0
  -30.8592  -12.3841   14.7641 N   0  0  0  0  0  0  0  0  0  0  0  0
  -32.8194  -13.3040   12.6951 N   0  0  0  0  0  0  0  0  0  0  0  0
  -33.9796  -13.7402   12.2098 C   0  0  0  0  0  0  0  0  0  0  0  0
  -34.8599  -13.8635   13.2009 N   0  0  0  0  0  0  0  0  0  0  0  0
  1  7  2  0  0  0  0
  1  2  1  0  0  0  0
  2  3  1  0  0  0  0
  2  4  2  0  0  0  0
  4  5  1  0  0  0  0
  5  6  2  0  0  0  0
  5 11  1  0  0  0  0
  6  7  1  0  0  0  0
  6  9  1  0  0  0  0
  7  8  1  0  0  0  0
  9 10  1  0  0  0  0
 10 11  2  0  0  0  0
M  END
>  <CHROM.1>
-33.37664560,-13.17214917,14.80337073,-1.55477334,-0.30082426,-1.71163963

>  <Name>
ligand

>  <RI>
0

>  <Rbt.Current_Directory>
/home/itssahil/PROJECTS/Mol_Feturizer/Test_systems_manuscript/rnas/2b57

>  <Rbt.Executable>
rbdock ($Id: //depot/dev/client3/rdock/2013.1/src/exe/rbdock.cxx#4 $)

>  <Rbt.Library>
libRbt.so (2013.1, Build901 2013/11/27)

>  <Rbt.Parameter_File>
/export/apps/rDock/src/rDock_2013.1_src/data/scripts/dock_solv.prm

>  <Rbt.Receptor>
prm/blind_docking_60.prm

>  <SCORE>
-6.14969

>  <SCORE.INTER>
-6.14969

>  <SCORE.INTER.CONST>
1

>  <SCORE.INTER.POLAR>
0

>  <SCORE.INTER.ROT>
0

>  <SCORE.INTER.SOLV>
4.32161

>  <SCORE.INTER.VDW>
-9.14033

>  <SCORE.INTER.norm>
-0.559063

>  <SCORE.INTRA>
0

>  <SCORE.INTRA.DIHEDRAL>
0

>  <SCORE.INTRA.DIHEDRAL.0>
0

>  <SCORE.INTRA.POLAR>
0

>  <SCORE.INTRA.POLAR.0>
0

>  <SCORE.INTRA.REPUL>
0

>  <SCORE.INTRA.REPUL.0>
0

>  <SCORE.INTRA.SOLV>
0

>  <SCORE.INTRA.SOLV.lig_0>
-48.3454

>  <SCORE.INTRA.VDW>
0

>  <SCORE.INTRA.VDW.0>
0

>  <SCORE.INTRA.norm>
0

>  <SCORE.RESTR>
0

>  <SCORE.RESTR.CAVITY>
0

>  <SCORE.RESTR.norm>
0

>  <SCORE.SYSTEM>
0

>  <SCORE.SYSTEM.CONST>
0

>  <SCORE.SYSTEM.DIHEDRAL>
0

>  <SCORE.SYSTEM.SOLV>
0

>  <SCORE.SYSTEM.norm>
0

>  <SCORE.heavy>
11

>  <SCORE.norm>
-0.559063

>  <RMSD>
23.002

$$$$
ligand
 OpenBabel02271912153D
libRbt.so/2013.1/901 2013/11/27
 11 12  0  0  0  0  0  0  0  0999 V2000
  -33.7924  -11.0682   16.1530 N   0  0  0  0  0  0  0  0  0  0  0  0
  -35.1067  -11.3375   16.2053 C   0  0  0  0  0  0  0  0  0  0  0  0
  -35.8626  -10.7608   17.1353 N   0  0  0  0  0  0  0  0  0  0  0  0
  -35.6635  -12.1922   15.3331 N   0  0  0  0  0  0  0  0  0  0  0  0
  -34.9184  -12.7957   14.3954 C   0  0  0  0  0  0  0  0  0  0  0  0
  -33.5561  -12.5349   14.3194 C   0  0  0  0  0  0  0  0  0  0  0  0
  -33.0026  -11.6436   15.2326 C   0  0  0  0  0  0  0  0  0  0  0  0
  -31.7047  -11.3578   15.1897 N   0  0  0  0  0  0  0  0  0  0  0  0
  -33.0636  -13.2663   13.3241 N   0  0  0  0  0  0  0  0  0  0  0  0
  -34.0678  -13.9601   12.7929 C   0  0  0  0  0  0  0  0  0  0  0  0
  -35.1967  -13.6777   13.4396 N   0  0  0  0  0  0  0  0  0  0  0  0
  1  7  2  0  0  0  0
  1  2  1  0  0  0  0
  2  3  1  0  0  0  0
  2  4  2  0  0  0  0
  4  5  1  0  0  0  0
  5  6  2  0  0  0  0
  5 11  1  0  0  0  0
  6  7  1  0  0  0  0
  6  9  1  0  0  0  0
  7  8  1  0  0  0  0
  9 10  1  0  0  0  0
 10 11  2  0  0  0  0
M  END
>  <CHROM.1>
-34.17905845,-12.22076047,14.88461940,-1.83088427,-0.18422635,-2.26804145

>  <Name>
ligand

>  <RI>
0

>  <Rbt.Current_Directory>
/home/itssahil/PROJECTS/Mol_Feturizer/Test_systems_manuscript/rnas/2b57

>  <Rbt.Executable>
rbdock ($Id: //depot/dev/client3/rdock/2013.1/src/exe/rbdock.cxx#4 $)

>  <Rbt.Library>
libRbt.so (2013.1, Build901 2013/11/27)

>  <Rbt.Parameter_File>
/export/apps/rDock/src/rDock_2013.1_src/data/scripts/dock_solv.prm

>  <Rbt.Receptor>
prm/blind_docking_100.prm

>  <SCORE>
-5.32282

>  <SCORE.INTER>
-5.32282

>  <SCORE.INTER.CONST>
1

>  <SCORE.INTER.POLAR>
0

>  <SCORE.INTER.ROT>
0

>  <SCORE.INTER.SOLV>
3.65255

>  <SCORE.INTER.VDW>
-8.36606

>  <SCORE.INTER.norm>
-0.483892

>  <SCORE.INTRA>
0

>  <SCORE.INTRA.DIHEDRAL>
0

>  <SCORE.INTRA.DIHEDRAL.0>
0

>  <SCORE.INTRA.POLAR>
0

>  <SCORE.INTRA.POLAR.0>
0

>  <SCORE.INTRA.REPUL>
0

>  <SCORE.INTRA.REPUL.0>
0

>  <SCORE.INTRA.SOLV>
0

>  <SCORE.INTRA.SOLV.lig_0>
-48.3454

>  <SCORE.INTRA.VDW>
0

>  <SCORE.INTRA.VDW.0>
0

>  <SCORE.INTRA.norm>
0

>  <SCORE.RESTR>
0

>  <SCORE.RESTR.CAVITY>
0

>  <SCORE.RESTR.norm>
0

>  <SCORE.SYSTEM>
0

>  <SCORE.SYSTEM.CONST>
0

>  <SCORE.SYSTEM.DIHEDRAL>
0

>  <SCORE.SYSTEM.SOLV>
0

>  <SCORE.SYSTEM.norm>
0

>  <SCORE.heavy>
11

>  <SCORE.norm>
-0.483892

>  <RMSD>
23.827

$$$$
ligand
 OpenBabel02271912153D
libRbt.so/2013.1/901 2013/11/27
 11 12  0  0  0  0  0  0  0  0999 V2000
  -34.9888  -10.3552   16.4752 N   0  0  0  0  0  0  0  0  0  0  0  0
  -36.2207  -10.4353   15.9472 C   0  0  0  0  0  0  0  0  0  0  0  0
  -37.1815   -9.6276   16.3870 N   0  0  0  0  0  0  0  0  0  0  0  0
  -36.4943  -11.3310   14.9860 N   0  0  0  0  0  0  0  0  0  0  0  0
  -35.5447  -12.1647   14.5366 C   0  0  0  0  0  0  0  0  0  0  0  0
  -34.2618  -12.1028   15.0658 C   0  0  0  0  0  0  0  0  0  0  0  0
  -34.0020  -11.1646   16.0592 C   0  0  0  0  0  0  0  0  0  0  0  0
  -32.7855  -11.0646   16.5868 N   0  0  0  0  0  0  0  0  0  0  0  0
  -33.5339  -13.0367   14.4608 N   0  0  0  0  0  0  0  0  0  0  0  0
  -34.3194  -13.6631   13.5875 C   0  0  0  0  0  0  0  0  0  0  0  0
  -35.5417  -13.1369   13.6292 N   0  0  0  0  0  0  0  0  0  0  0  0
  1  7  2  0  0  0  0
  1  2  1  0  0  0  0
  2  3  1  0  0  0  0
  2  4  2  0  0  0  0
  4  5  1  0  0  0  0
  5  6  2  0  0  0  0
  5 11  1  0  0  0  0
  6  7  1  0  0  0  0
  6  9  1  0  0  0  0
  7  8  1  0  0  0  0
  9 10  1  0  0  0  0
 10 11  2  0  0  0  0
M  END
>  <CHROM.1>
-34.99679401,-11.62568989,15.26179847,-2.05122770,0.25619765,-2.38209891

>  <Name>
ligand

>  <RI>
0

>  <Rbt.Current_Directory>
/home/itssahil/PROJECTS/Mol_Feturizer/Test_systems_manuscript/rnas/2b57

>  <Rbt.Executable>
rbdock ($Id: //depot/dev/client3/rdock/2013.1/src/exe/rbdock.cxx#4 $)

>  <Rbt.Library>
libRbt.so (2013.1, Build901 2013/11/27)

>  <Rbt.Parameter_File>
/export/apps/rDock/src/rDock_2013.1_src/data/scripts/dock_solv.prm

>  <Rbt.Receptor>
prm/blind_docking_100.prm

>  <SCORE>
-5.8091

>  <SCORE.INTER>
-5.8091

>  <SCORE.INTER.CONST>
1

>  <SCORE.INTER.POLAR>
0

>  <SCORE.INTER.ROT>
0

>  <SCORE.INTER.SOLV>
5.27735

>  <SCORE.INTER.VDW>
-9.23185

>  <SCORE.INTER.norm>
-0.5281

>  <SCORE.INTRA>
0

>  <SCORE.INTRA.DIHEDRAL>
0

>  <SCORE.INTRA.DIHEDRAL.0>
0

>  <SCORE.INTRA.POLAR>
0

>  <SCORE.INTRA.POLAR.0>
0

>  <SCORE.INTRA.REPUL>
0

>  <SCORE.INTRA.REPUL.0>
0

>  <SCORE.INTRA.SOLV>
0

>  <SCORE.INTRA.SOLV.lig_0>
-48.3454

>  <SCORE.INTRA.VDW>
0

>  <SCORE.INTRA.VDW.0>
0

>  <SCORE.INTRA.norm>
0

>  <SCORE.RESTR>
0

>  <SCORE.RESTR.CAVITY>
0

>  <SCORE.RESTR.norm>
0

>  <SCORE.SYSTEM>
0

>  <SCORE.SYSTEM.CONST>
0

>  <SCORE.SYSTEM.DIHEDRAL>
0

>  <SCORE.SYSTEM.SOLV>
0

>  <SCORE.SYSTEM.norm>
0

>  <SCORE.heavy>
11

>  <SCORE.norm>
-0.5281

>  <RMSD>
24.771

$$$$
ligand
 OpenBabel02271912153D
libRbt.so/2013.1/901 2013/11/27
 11 12  0  0  0  0  0  0  0  0999 V2000
  -35.1658  -12.2423   17.9255 N   0  0  0  0  0  0  0  0  0  0  0  0
  -34.3837  -13.3336   17.9204 C   0  0  0  0  0  0  0  0  0  0  0  0
  -33.8770  -13.7884   19.0630 N   0  0  0  0  0  0  0  0  0  0  0  0
  -34.0998  -13.9645   16.7705 N   0  0  0  0  0  0  0  0  0  0  0  0
  -34.5886  -13.5161   15.6048 C   0  0  0  0  0  0  0  0  0  0  0  0
  -35.4002  -12.3890   15.5818 C   0  0  0  0  0  0  0  0  0  0  0  0
  -35.6823  -11.7539   16.7868 C   0  0  0  0  0  0  0  0  0  0  0  0
  -36.4626  -10.6776   16.8119 N   0  0  0  0  0  0  0  0  0  0  0  0
  -35.7289  -12.1583   14.3143 N   0  0  0  0  0  0  0  0  0  0  0  0
  -35.1516  -13.0962   13.5666 C   0  0  0  0  0  0  0  0  0  0  0  0
  -34.4581  -13.9237   14.3456 N   0  0  0  0  0  0  0  0  0  0  0  0
  1  7  2  0  0  0  0
  1  2  1  0  0  0  0
  2  3  1  0  0  0  0
  2  4  2  0  0  0  0
  4  5  1  0  0  0  0
  5  6  2  0  0  0  0
  5 11  1  0  0  0  0
  6  7  1  0  0  0  0
  6  9  1  0  0  0  0
  7  8  1  0  0  0  0
  9 10  1  0  0  0  0
 10 11  2  0  0  0  0
M  END
>  <CHROM.1>
-34.99699598,-12.80299770,16.26908138,1.25024759,-0.93608907,1.37870183

>  <Name>
ligand

>  <RI>
0

>  <Rbt.Current_Directory>
/home/itssahil/PROJECTS/Mol_Feturizer/Test_systems_manuscript/rnas/2b57

>  <Rbt.Executable>
rbdock ($Id: //depot/dev/client3/rdock/2013.1/src/exe/rbdock.cxx#4 $)

>  <Rbt.Library>
libRbt.so (2013.1, Build901 2013/11/27)

>  <Rbt.Parameter_File>
/export/apps/rDock/src/rDock_2013.1_src/data/scripts/dock_solv.prm

>  <Rbt.Receptor>
prm/blind_docking_60.prm

>  <SCORE>
-6.58737

>  <SCORE.INTER>
-6.58737

>  <SCORE.INTER.CONST>
1

>  <SCORE.INTER.POLAR>
0

>  <SCORE.INTER.ROT>
0

>  <SCORE.INTER.SOLV>
4.03125

>  <SCORE.INTER.VDW>
-9.33533

>  <SCORE.INTER.norm>
-0.598852

>  <SCORE.INTRA>
0

>  <SCORE.INTRA.DIHEDRAL>
0

>  <SCORE.INTRA.DIHEDRAL.0>
0

>  <SCORE.INTRA.POLAR>
0

>  <SCORE.INTRA.POLAR.0>
0

>  <SCORE.INTRA.REPUL>
0

>  <SCORE.INTRA.REPUL.0>
0

>  <SCORE.INTRA.SOLV>
0

>  <SCORE.INTRA.SOLV.lig_0>
-48.3454

>  <SCORE.INTRA.VDW>
0

>  <SCORE.INTRA.VDW.0>
0

>  <SCORE.INTRA.norm>
0

>  <SCORE.RESTR>
0

>  <SCORE.RESTR.CAVITY>
0

>  <SCORE.RESTR.norm>
0

>  <SCORE.SYSTEM>
0

>  <SCORE.SYSTEM.CONST>
0

>  <SCORE.SYSTEM.DIHEDRAL>
0

>  <SCORE.SYSTEM.SOLV>
0

>  <SCORE.SYSTEM.norm>
0

>  <SCORE.heavy>
11

>  <SCORE.norm>
-0.598852

>  <RMSD>
24.944

$$$$
ligand
 OpenBabel02271912153D
libRbt.so/2013.1/901 2013/11/27
 11 12  0  0  0  0  0  0  0  0999 V2000
  -35.1730  -12.2375   17.9305 N   0  0  0  0  0  0  0  0  0  0  0  0
  -34.3931  -13.3305   17.9246 C   0  0  0  0  0  0  0  0  0  0  0  0
  -33.8861  -13.7862   19.0666 N   0  0  0  0  0  0  0  0  0  0  0  0
  -34.1118  -13.9620   16.7744 N   0  0  0  0  0  0  0  0  0  0  0  0
  -34.6010  -13.5126   15.6092 C   0  0  0  0  0  0  0  0  0  0  0  0
  -35.4103  -12.3838   15.5871 C   0  0  0  0  0  0  0  0  0  0  0  0
  -35.6897  -11.7482   16.7923 C   0  0  0  0  0  0  0  0  0  0  0  0
  -36.4678  -10.6702   16.8183 N   0  0  0  0  0  0  0  0  0  0  0  0
  -35.7399  -12.1525   14.3199 N   0  0  0  0  0  0  0  0  0  0  0  0
  -35.1654  -13.0917   13.5716 C   0  0  0  0  0  0  0  0  0  0  0  0
  -34.4727  -13.9205   14.3499 N   0  0  0  0  0  0  0  0  0  0  0  0
  1  7  2  0  0  0  0
  1  2  1  0  0  0  0
  2  3  1  0  0  0  0
  2  4  2  0  0  0  0
  4  5  1  0  0  0  0
  5  6  2  0  0  0  0
  5 11  1  0  0  0  0
  6  7  1  0  0  0  0
  6  9  1  0  0  0  0
  7  8  1  0  0  0  0
  9 10  1  0  0  0  0
 10 11  2  0  0  0  0
M  END
>  <CHROM.1>
-35.00718066,-12.79866911,16.27391738,1.24773423,-0.93789327,1.37663032

>  <Name>
ligand

>  <RI>
0

>  <Rbt.Current_Directory>
/home/itssahil/PROJECTS/Mol_Feturizer/Test_systems_manuscript/rnas/2b57

>  <Rbt.Executable>
rbdock ($Id: //depot/dev/client3/rdock/2013.1/src/exe/rbdock.cxx#4 $)

>  <Rbt.Library>
libRbt.so (2013.1, Build901 2013/11/27)

>  <Rbt.Parameter_File>
/export/apps/rDock/src/rDock_2013.1_src/data/scripts/dock_solv.prm

>  <Rbt.Receptor>
prm/blind_docking_100.prm

>  <SCORE>
-6.58722

>  <SCORE.INTER>
-6.58722

>  <SCORE.INTER.CONST>
1

>  <SCORE.INTER.POLAR>
0

>  <SCORE.INTER.ROT>
0

>  <SCORE.INTER.SOLV>
4.02671

>  <SCORE.INTER.VDW>
-9.33372

>  <SCORE.INTER.norm>
-0.598838

>  <SCORE.INTRA>
0

>  <SCORE.INTRA.DIHEDRAL>
0

>  <SCORE.INTRA.DIHEDRAL.0>
0

>  <SCORE.INTRA.POLAR>
0

>  <SCORE.INTRA.POLAR.0>
0

>  <SCORE.INTRA.REPUL>
0

>  <SCORE.INTRA.REPUL.0>
0

>  <SCORE.INTRA.SOLV>
0

>  <SCORE.INTRA.SOLV.lig_0>
-48.3454

>  <SCORE.INTRA.VDW>
0

>  <SCORE.INTRA.VDW.0>
0

>  <SCORE.INTRA.norm>
0

>  <SCORE.RESTR>
0

>  <SCORE.RESTR.CAVITY>
0

>  <SCORE.RESTR.norm>
0

>  <SCORE.SYSTEM>
0

>  <SCORE.SYSTEM.CONST>
0

>  <SCORE.SYSTEM.DIHEDRAL>
0

>  <SCORE.SYSTEM.SOLV>
0

>  <SCORE.SYSTEM.norm>
0

>  <SCORE.heavy>
11

>  <SCORE.norm>
-0.598838

>  <RMSD>
24.955

$$$$
ligand
 OpenBabel02271912153D
libRbt.so/2013.1/901 2013/11/27
 11 12  0  0  0  0  0  0  0  0999 V2000
  -35.1704  -12.2843   17.9815 N   0  0  0  0  0  0  0  0  0  0  0  0
  -34.3641  -13.3576   17.9561 C   0  0  0  0  0  0  0  0  0  0  0  0
  -33.8371  -13.8147   19.0885 N   0  0  0  0  0  0  0  0  0  0  0  0
  -34.0766  -13.9680   16.7960 N   0  0  0  0  0  0  0  0  0  0  0  0
  -34.5859  -13.5166   15.6403 C   0  0  0  0  0  0  0  0  0  0  0  0
  -35.4227  -12.4078   15.6384 C   0  0  0  0  0  0  0  0  0  0  0  0
  -35.7080  -11.7939   16.8535 C   0  0  0  0  0  0  0  0  0  0  0  0
  -36.5119  -10.7357   16.8988 N   0  0  0  0  0  0  0  0  0  0  0  0
  -35.7680  -12.1692   14.3767 N   0  0  0  0  0  0  0  0  0  0  0  0
  -35.1766  -13.0848   13.6125 C   0  0  0  0  0  0  0  0  0  0  0  0
  -34.4577  -13.9059   14.3751 N   0  0  0  0  0  0  0  0  0  0  0  0
  1  7  2  0  0  0  0
  1  2  1  0  0  0  0
  2  3  1  0  0  0  0
  2  4  2  0  0  0  0
  4  5  1  0  0  0  0
  5  6  2  0  0  0  0
  5 11  1  0  0  0  0
  6  7  1  0  0  0  0
  6  9  1  0  0  0  0
  7  8  1  0  0  0  0
  9 10  1  0  0  0  0
 10 11  2  0  0  0  0
M  END
>  <CHROM.1>
-35.00411965,-12.82095570,16.31689426,1.24267174,-0.91237158,1.38486892

>  <Name>
ligand

>  <RI>
0

>  <Rbt.Current_Directory>
/home/itssahil/PROJECTS/Mol_Feturizer/Test_systems_manuscript/rnas/2b57

>  <Rbt.Executable>
rbdock ($Id: //depot/dev/client3/rdock/2013.1/src/exe/rbdock.cxx#4 $)

>  <Rbt.Library>
libRbt.so (2013.1, Build901 2013/11/27)

>  <Rbt.Parameter_File>
/export/apps/rDock/src/rDock_2013.1_src/data/scripts/dock_solv.prm

>  <Rbt.Receptor>
prm/blind_docking_80.prm

>  <SCORE>
-6.58304

>  <SCORE.INTER>
-6.58304

>  <SCORE.INTER.CONST>
1

>  <SCORE.INTER.POLAR>
0

>  <SCORE.INTER.ROT>
0

>  <SCORE.INTER.SOLV>
3.89971

>  <SCORE.INTER.VDW>
-9.2886

>  <SCORE.INTER.norm>
-0.598459

>  <SCORE.INTRA>
0

>  <SCORE.INTRA.DIHEDRAL>
0

>  <SCORE.INTRA.DIHEDRAL.0>
0

>  <SCORE.INTRA.POLAR>
0

>  <SCORE.INTRA.POLAR.0>
0

>  <SCORE.INTRA.REPUL>
0

>  <SCORE.INTRA.REPUL.0>
0

>  <SCORE.INTRA.SOLV>
0

>  <SCORE.INTRA.SOLV.lig_0>
-48.3454

>  <SCORE.INTRA.VDW>
0

>  <SCORE.INTRA.VDW.0>
0

>  <SCORE.INTRA.norm>
0

>  <SCORE.RESTR>
0

>  <SCORE.RESTR.CAVITY>
0

>  <SCORE.RESTR.norm>
0

>  <SCORE.SYSTEM>
0

>  <SCORE.SYSTEM.CONST>
0

>  <SCORE.SYSTEM.DIHEDRAL>
0

>  <SCORE.SYSTEM.SOLV>
0

>  <SCORE.SYSTEM.norm>
0

>  <SCORE.heavy>
11

>  <SCORE.norm>
-0.598459

>  <RMSD>
24.968

$$$$
ligand
 OpenBabel02271912153D
libRbt.so/2013.1/901 2013/11/27
 11 12  0  0  0  0  0  0  0  0999 V2000
  -35.1841  -12.2886   17.9521 N   0  0  0  0  0  0  0  0  0  0  0  0
  -34.3670  -13.3536   17.9214 C   0  0  0  0  0  0  0  0  0  0  0  0
  -33.8277  -13.8050   19.0503 N   0  0  0  0  0  0  0  0  0  0  0  0
  -34.0808  -13.9611   16.7594 N   0  0  0  0  0  0  0  0  0  0  0  0
  -34.6023  -13.5150   15.6070 C   0  0  0  0  0  0  0  0  0  0  0  0
  -35.4506  -12.4150   15.6106 C   0  0  0  0  0  0  0  0  0  0  0  0
  -35.7342  -11.8040   16.8276 C   0  0  0  0  0  0  0  0  0  0  0  0
  -36.5488  -10.7542   16.8781 N   0  0  0  0  0  0  0  0  0  0  0  0
  -35.8066  -12.1801   14.3512 N   0  0  0  0  0  0  0  0  0  0  0  0
  -35.2109  -13.0896   13.5832 C   0  0  0  0  0  0  0  0  0  0  0  0
  -34.4785  -13.9031   14.3410 N   0  0  0  0  0  0  0  0  0  0  0  0
  1  7  2  0  0  0  0
  1  2  1  0  0  0  0
  2  3  1  0  0  0  0
  2  4  2  0  0  0  0
  4  5  1  0  0  0  0
  5  6  2  0  0  0  0
  5 11  1  0  0  0  0
  6  7  1  0  0  0  0
  6  9  1  0  0  0  0
  7  8  1  0  0  0  0
  9 10  1  0  0  0  0
 10 11  2  0  0  0  0
M  END
>  <CHROM.1>
-35.02327989,-12.82371635,16.28637391,1.23531014,-0.90095150,1.37901019

>  <Name>
ligand

>  <RI>
0

>  <Rbt.Current_Directory>
/home/itssahil/PROJECTS/Mol_Feturizer/Test_systems_manuscript/rnas/2b57

>  <Rbt.Executable>
rbdock ($Id: //depot/dev/client3/rdock/2013.1/src/exe/rbdock.cxx#4 $)

>  <Rbt.Library>
libRbt.so (2013.1, Build901 2013/11/27)

>  <Rbt.Parameter_File>
/export/apps/rDock/src/rDock_2013.1_src/data/scripts/dock_solv.prm

>  <Rbt.Receptor>
prm/blind_docking_60.prm

>  <SCORE>
-6.55144

>  <SCORE.INTER>
-6.55144

>  <SCORE.INTER.CONST>
1

>  <SCORE.INTER.POLAR>
0

>  <SCORE.INTER.ROT>
0

>  <SCORE.INTER.SOLV>
3.94184

>  <SCORE.INTER.VDW>
-9.28158

>  <SCORE.INTER.norm>
-0.595586

>  <SCORE.INTRA>
0

>  <SCORE.INTRA.DIHEDRAL>
0

>  <SCORE.INTRA.DIHEDRAL.0>
0

>  <SCORE.INTRA.POLAR>
0

>  <SCORE.INTRA.POLAR.0>
0

>  <SCORE.INTRA.REPUL>
0

>  <SCORE.INTRA.REPUL.0>
0

>  <SCORE.INTRA.SOLV>
0

>  <SCORE.INTRA.SOLV.lig_0>
-48.3454

>  <SCORE.INTRA.VDW>
0

>  <SCORE.INTRA.VDW.0>
0

>  <SCORE.INTRA.norm>
0

>  <SCORE.RESTR>
0

>  <SCORE.RESTR.CAVITY>
0

>  <SCORE.RESTR.norm>
0

>  <SCORE.SYSTEM>
0

>  <SCORE.SYSTEM.CONST>
0

>  <SCORE.SYSTEM.DIHEDRAL>
0

>  <SCORE.SYSTEM.SOLV>
0

>  <SCORE.SYSTEM.norm>
0

>  <SCORE.heavy>
11

>  <SCORE.norm>
-0.595586

>  <RMSD>
24.976

$$$$
ligand
 OpenBabel02271912153D
libRbt.so/2013.1/901 2013/11/27
 11 12  0  0  0  0  0  0  0  0999 V2000
  -33.8474  -21.2258    8.4522 N   0  0  0  0  0  0  0  0  0  0  0  0
  -34.8955  -22.0649    8.4716 C   0  0  0  0  0  0  0  0  0  0  0  0
  -34.7325  -23.3337    8.1074 N   0  0  0  0  0  0  0  0  0  0  0  0
  -36.1095  -21.6320    8.8455 N   0  0  0  0  0  0  0  0  0  0  0  0
  -36.3001  -20.3537    9.2039 C   0  0  0  0  0  0  0  0  0  0  0  0
  -35.2328  -19.4647    9.1927 C   0  0  0  0  0  0  0  0  0  0  0  0
  -33.9838  -19.9375    8.8038 C   0  0  0  0  0  0  0  0  0  0  0  0
  -32.9328  -19.1232    8.7877 N   0  0  0  0  0  0  0  0  0  0  0  0
  -35.6967  -18.2777    9.5719 N   0  0  0  0  0  0  0  0  0  0  0  0
  -36.9995  -18.4074    9.8125 C   0  0  0  0  0  0  0  0  0  0  0  0
  -37.3710  -19.6665    9.5908 N   0  0  0  0  0  0  0  0  0  0  0  0
  1  7  2  0  0  0  0
  1  2  1  0  0  0  0
  2  3  1  0  0  0  0
  2  4  2  0  0  0  0
  4  5  1  0  0  0  0
  5  6  2  0  0  0  0
  5 11  1  0  0  0  0
  6  7  1  0  0  0  0
  6  9  1  0  0  0  0
  7  8  1  0  0  0  0
  9 10  1  0  0  0  0
 10 11  2  0  0  0  0
M  END
>  <CHROM.1>
-35.26808604,-20.33579784,8.97773180,-1.08447902,0.20318166,0.24325525

>  <Name>
ligand

>  <RI>
0

>  <Rbt.Current_Directory>
/home/itssahil/PROJECTS/Mol_Feturizer/Test_systems_manuscript/rnas/2b57

>  <Rbt.Executable>
rbdock ($Id: //depot/dev/client3/rdock/2013.1/src/exe/rbdock.cxx#4 $)

>  <Rbt.Library>
libRbt.so (2013.1, Build901 2013/11/27)

>  <Rbt.Parameter_File>
/export/apps/rDock/src/rDock_2013.1_src/data/scripts/dock_solv.prm

>  <Rbt.Receptor>
prm/blind_docking_80.prm

>  <SCORE>
-5.01434

>  <SCORE.INTER>
-5.17714

>  <SCORE.INTER.CONST>
1

>  <SCORE.INTER.POLAR>
0

>  <SCORE.INTER.ROT>
0

>  <SCORE.INTER.SOLV>
13.7222

>  <SCORE.INTER.VDW>
-11.6255

>  <SCORE.INTER.norm>
-0.470649

>  <SCORE.INTRA>
0

>  <SCORE.INTRA.DIHEDRAL>
0

>  <SCORE.INTRA.DIHEDRAL.0>
0

>  <SCORE.INTRA.POLAR>
0

>  <SCORE.INTRA.POLAR.0>
0

>  <SCORE.INTRA.REPUL>
0

>  <SCORE.INTRA.REPUL.0>
0

>  <SCORE.INTRA.SOLV>
0

>  <SCORE.INTRA.SOLV.lig_0>
-48.3454

>  <SCORE.INTRA.VDW>
0

>  <SCORE.INTRA.VDW.0>
0

>  <SCORE.INTRA.norm>
0

>  <SCORE.RESTR>
0.162803

>  <SCORE.RESTR.CAVITY>
0.162803

>  <SCORE.RESTR.norm>
0.0148003

>  <SCORE.SYSTEM>
0

>  <SCORE.SYSTEM.CONST>
0

>  <SCORE.SYSTEM.DIHEDRAL>
0

>  <SCORE.SYSTEM.SOLV>
0

>  <SCORE.SYSTEM.norm>
0

>  <SCORE.heavy>
11

>  <SCORE.norm>
-0.455849

>  <RMSD>
25.008

$$$$
ligand
 OpenBabel02271912153D
libRbt.so/2013.1/901 2013/11/27
 11 12  0  0  0  0  0  0  0  0999 V2000
  -35.8109  -11.2799   17.4353 N   0  0  0  0  0  0  0  0  0  0  0  0
  -36.5548  -10.5748   16.5680 C   0  0  0  0  0  0  0  0  0  0  0  0
  -37.2943   -9.5595   17.0053 N   0  0  0  0  0  0  0  0  0  0  0  0
  -36.5669  -10.8918   15.2640 N   0  0  0  0  0  0  0  0  0  0  0  0
  -35.8396  -11.9200   14.8026 C   0  0  0  0  0  0  0  0  0  0  0  0
  -35.0613  -12.6660   15.6785 C   0  0  0  0  0  0  0  0  0  0  0  0
  -35.0632  -12.3165   17.0249 C   0  0  0  0  0  0  0  0  0  0  0  0
  -34.3253  -12.9976   17.8965 N   0  0  0  0  0  0  0  0  0  0  0  0
  -34.4640  -13.6197   14.9702 N   0  0  0  0  0  0  0  0  0  0  0  0
  -34.8463  -13.4852   13.7022 C   0  0  0  0  0  0  0  0  0  0  0  0
  -35.6815  -12.4540   13.5949 N   0  0  0  0  0  0  0  0  0  0  0  0
  1  7  2  0  0  0  0
  1  2  1  0  0  0  0
  2  3  1  0  0  0  0
  2  4  2  0  0  0  0
  4  5  1  0  0  0  0
  5  6  2  0  0  0  0
  5 11  1  0  0  0  0
  6  7  1  0  0  0  0
  6  9  1  0  0  0  0
  7  8  1  0  0  0  0
  9 10  1  0  0  0  0
 10 11  2  0  0  0  0
M  END
>  <CHROM.1>
-35.59986340,-11.96383474,15.83079200,-2.24359857,0.87810677,-1.83000227

>  <Name>
ligand

>  <RI>
0

>  <Rbt.Current_Directory>
/home/itssahil/PROJECTS/Mol_Feturizer/Test_systems_manuscript/rnas/2b57

>  <Rbt.Executable>
rbdock ($Id: //depot/dev/client3/rdock/2013.1/src/exe/rbdock.cxx#4 $)

>  <Rbt.Library>
libRbt.so (2013.1, Build901 2013/11/27)

>  <Rbt.Parameter_File>
/export/apps/rDock/src/rDock_2013.1_src/data/scripts/dock_solv.prm

>  <Rbt.Receptor>
prm/blind_docking_80.prm

>  <SCORE>
-6.48079

>  <SCORE.INTER>
-6.48079

>  <SCORE.INTER.CONST>
1

>  <SCORE.INTER.POLAR>
0

>  <SCORE.INTER.ROT>
0

>  <SCORE.INTER.SOLV>
3.17926

>  <SCORE.INTER.VDW>
-8.98028

>  <SCORE.INTER.norm>
-0.589163

>  <SCORE.INTRA>
0

>  <SCORE.INTRA.DIHEDRAL>
0

>  <SCORE.INTRA.DIHEDRAL.0>
0

>  <SCORE.INTRA.POLAR>
0

>  <SCORE.INTRA.POLAR.0>
0

>  <SCORE.INTRA.REPUL>
0

>  <SCORE.INTRA.REPUL.0>
0

>  <SCORE.INTRA.SOLV>
0

>  <SCORE.INTRA.SOLV.lig_0>
-48.3454

>  <SCORE.INTRA.VDW>
0

>  <SCORE.INTRA.VDW.0>
0

>  <SCORE.INTRA.norm>
0

>  <SCORE.RESTR>
0

>  <SCORE.RESTR.CAVITY>
0

>  <SCORE.RESTR.norm>
0

>  <SCORE.SYSTEM>
0

>  <SCORE.SYSTEM.CONST>
0

>  <SCORE.SYSTEM.DIHEDRAL>
0

>  <SCORE.SYSTEM.SOLV>
0

>  <SCORE.SYSTEM.norm>
0

>  <SCORE.heavy>
11

>  <SCORE.norm>
-0.589163

>  <RMSD>
25.510

$$$$
ligand
 OpenBabel02271912153D
libRbt.so/2013.1/901 2013/11/27
 11 12  0  0  0  0  0  0  0  0999 V2000
  -35.9926  -11.2998   17.3602 N   0  0  0  0  0  0  0  0  0  0  0  0
  -36.7124  -10.6460   16.4343 C   0  0  0  0  0  0  0  0  0  0  0  0
  -37.5222   -9.6578   16.8040 N   0  0  0  0  0  0  0  0  0  0  0  0
  -36.6299  -10.9877   15.1391 N   0  0  0  0  0  0  0  0  0  0  0  0
  -35.8302  -11.9897   14.7449 C   0  0  0  0  0  0  0  0  0  0  0  0
  -35.0747  -12.6826   15.6824 C   0  0  0  0  0  0  0  0  0  0  0  0
  -35.1753  -12.3083   17.0183 C   0  0  0  0  0  0  0  0  0  0  0  0
  -34.4627  -12.9383   17.9475 N   0  0  0  0  0  0  0  0  0  0  0  0
  -34.3928  -13.6208   15.0323 N   0  0  0  0  0  0  0  0  0  0  0  0
  -34.7019  -13.5279   13.7409 C   0  0  0  0  0  0  0  0  0  0  0  0
  -35.5742  -12.5384   13.5609 N   0  0  0  0  0  0  0  0  0  0  0  0
  1  7  2  0  0  0  0
  1  2  1  0  0  0  0
  2  3  1  0  0  0  0
  2  4  2  0  0  0  0
  4  5  1  0  0  0  0
  5  6  2  0  0  0  0
  5 11  1  0  0  0  0
  6  7  1  0  0  0  0
  6  9  1  0  0  0  0
  7  8  1  0  0  0  0
  9 10  1  0  0  0  0
 10 11  2  0  0  0  0
M  END
>  <CHROM.1>
-35.65256871,-12.00317400,15.78651844,-2.35116987,0.84764616,-1.76840790

>  <Name>
ligand

>  <RI>
0

>  <Rbt.Current_Directory>
/home/itssahil/PROJECTS/Mol_Feturizer/Test_systems_manuscript/rnas/2b57

>  <Rbt.Executable>
rbdock ($Id: //depot/dev/client3/rdock/2013.1/src/exe/rbdock.cxx#4 $)

>  <Rbt.Library>
libRbt.so (2013.1, Build901 2013/11/27)

>  <Rbt.Parameter_File>
/export/apps/rDock/src/rDock_2013.1_src/data/scripts/dock_solv.prm

>  <Rbt.Receptor>
prm/blind_docking_80.prm

>  <SCORE>
-6.54253

>  <SCORE.INTER>
-6.54253

>  <SCORE.INTER.CONST>
1

>  <SCORE.INTER.POLAR>
0

>  <SCORE.INTER.ROT>
0

>  <SCORE.INTER.SOLV>
3.32568

>  <SCORE.INTER.VDW>
-9.07025

>  <SCORE.INTER.norm>
-0.594775

>  <SCORE.INTRA>
0

>  <SCORE.INTRA.DIHEDRAL>
0

>  <SCORE.INTRA.DIHEDRAL.0>
0

>  <SCORE.INTRA.POLAR>
0

>  <SCORE.INTRA.POLAR.0>
0

>  <SCORE.INTRA.REPUL>
0

>  <SCORE.INTRA.REPUL.0>
0

>  <SCORE.INTRA.SOLV>
0

>  <SCORE.INTRA.SOLV.lig_0>
-48.3454

>  <SCORE.INTRA.VDW>
0

>  <SCORE.INTRA.VDW.0>
0

>  <SCORE.INTRA.norm>
0

>  <SCORE.RESTR>
0

>  <SCORE.RESTR.CAVITY>
0

>  <SCORE.RESTR.norm>
0

>  <SCORE.SYSTEM>
0

>  <SCORE.SYSTEM.CONST>
0

>  <SCORE.SYSTEM.DIHEDRAL>
0

>  <SCORE.SYSTEM.SOLV>
0

>  <SCORE.SYSTEM.norm>
0

>  <SCORE.heavy>
11

>  <SCORE.norm>
-0.594775

>  <RMSD>
25.543

$$$$
ligand
 OpenBabel02271912153D
libRbt.so/2013.1/901 2013/11/27
 11 12  0  0  0  0  0  0  0  0999 V2000
  -35.9840  -11.2943   17.3837 N   0  0  0  0  0  0  0  0  0  0  0  0
  -36.6984  -10.6320   16.4598 C   0  0  0  0  0  0  0  0  0  0  0  0
  -37.5003   -9.6384   16.8324 N   0  0  0  0  0  0  0  0  0  0  0  0
  -36.6186  -10.9704   15.1636 N   0  0  0  0  0  0  0  0  0  0  0  0
  -35.8269  -11.9776   14.7665 C   0  0  0  0  0  0  0  0  0  0  0  0
  -35.0771  -12.6794   15.7019 C   0  0  0  0  0  0  0  0  0  0  0  0
  -35.1748  -12.3083   17.0389 C   0  0  0  0  0  0  0  0  0  0  0  0
  -34.4674  -12.9468   17.9663 N   0  0  0  0  0  0  0  0  0  0  0  0
  -34.4027  -13.6212   15.0491 N   0  0  0  0  0  0  0  0  0  0  0  0
  -34.7109  -13.5219   13.7579 C   0  0  0  0  0  0  0  0  0  0  0  0
  -35.5753  -12.5249   13.5808 N   0  0  0  0  0  0  0  0  0  0  0  0
  1  7  2  0  0  0  0
  1  2  1  0  0  0  0
  2  3  1  0  0  0  0
  2  4  2  0  0  0  0
  4  5  1  0  0  0  0
  5  6  2  0  0  0  0
  5 11  1  0  0  0  0
  6  7  1  0  0  0  0
  6  9  1  0  0  0  0
  7  8  1  0  0  0  0
  9 10  1  0  0  0  0
 10 11  2  0  0  0  0
M  END
>  <CHROM.1>
-35.64950528,-11.99568876,15.80803240,-2.34888202,0.85554523,-1.76714353

>  <Name>
ligand

>  <RI>
0

>  <Rbt.Current_Directory>
/home/itssahil/PROJECTS/Mol_Feturizer/Test_systems_manuscript/rnas/2b57

>  <Rbt.Executable>
rbdock ($Id: //depot/dev/client3/rdock/2013.1/src/exe/rbdock.cxx#4 $)

>  <Rbt.Library>
libRbt.so (2013.1, Build901 2013/11/27)

>  <Rbt.Parameter_File>
/export/apps/rDock/src/rDock_2013.1_src/data/scripts/dock_solv.prm

>  <Rbt.Receptor>
prm/blind_docking_100.prm

>  <SCORE>
-6.53525

>  <SCORE.INTER>
-6.53525

>  <SCORE.INTER.CONST>
1

>  <SCORE.INTER.POLAR>
0

>  <SCORE.INTER.ROT>
0

>  <SCORE.INTER.SOLV>
3.31934

>  <SCORE.INTER.VDW>
-9.06328

>  <SCORE.INTER.norm>
-0.594114

>  <SCORE.INTRA>
0

>  <SCORE.INTRA.DIHEDRAL>
0

>  <SCORE.INTRA.DIHEDRAL.0>
0

>  <SCORE.INTRA.POLAR>
0

>  <SCORE.INTRA.POLAR.0>
0

>  <SCORE.INTRA.REPUL>
0

>  <SCORE.INTRA.REPUL.0>
0

>  <SCORE.INTRA.SOLV>
0

>  <SCORE.INTRA.SOLV.lig_0>
-48.3454

>  <SCORE.INTRA.VDW>
0

>  <SCORE.INTRA.VDW.0>
0

>  <SCORE.INTRA.norm>
0

>  <SCORE.RESTR>
0

>  <SCORE.RESTR.CAVITY>
0

>  <SCORE.RESTR.norm>
0

>  <SCORE.SYSTEM>
0

>  <SCORE.SYSTEM.CONST>
0

>  <SCORE.SYSTEM.DIHEDRAL>
0

>  <SCORE.SYSTEM.SOLV>
0

>  <SCORE.SYSTEM.norm>
0

>  <SCORE.heavy>
11

>  <SCORE.norm>
-0.594114

>  <RMSD>
25.547

$$$$
ligand
 OpenBabel02271912153D
libRbt.so/2013.1/901 2013/11/27
 11 12  0  0  0  0  0  0  0  0999 V2000
  -36.0103  -11.2878   17.4020 N   0  0  0  0  0  0  0  0  0  0  0  0
  -36.7401  -10.6194   16.4946 C   0  0  0  0  0  0  0  0  0  0  0  0
  -37.5460   -9.6375   16.8888 N   0  0  0  0  0  0  0  0  0  0  0  0
  -36.6716  -10.9402   15.1933 N   0  0  0  0  0  0  0  0  0  0  0  0
  -35.8761  -11.9355   14.7744 C   0  0  0  0  0  0  0  0  0  0  0  0
  -35.1105  -12.6432   15.6924 C   0  0  0  0  0  0  0  0  0  0  0  0
  -35.1967  -12.2905   17.0352 C   0  0  0  0  0  0  0  0  0  0  0  0
  -34.4741  -12.9352   17.9464 N   0  0  0  0  0  0  0  0  0  0  0  0
  -34.4356  -13.5707   15.0200 N   0  0  0  0  0  0  0  0  0  0  0  0
  -34.7585  -13.4570   13.7337 C   0  0  0  0  0  0  0  0  0  0  0  0
  -35.6329  -12.4650   13.5790 N   0  0  0  0  0  0  0  0  0  0  0  0
  1  7  2  0  0  0  0
  1  2  1  0  0  0  0
  2  3  1  0  0  0  0
  2  4  2  0  0  0  0
  4  5  1  0  0  0  0
  5  6  2  0  0  0  0
  5 11  1  0  0  0  0
  6  7  1  0  0  0  0
  6  9  1  0  0  0  0
  7  8  1  0  0  0  0
  9 10  1  0  0  0  0
 10 11  2  0  0  0  0
M  END
>  <CHROM.1>
-35.68726859,-11.96569756,15.81368393,-2.33526488,0.84537674,-1.76422897

>  <Name>
ligand

>  <RI>
0

>  <Rbt.Current_Directory>
/home/itssahil/PROJECTS/Mol_Feturizer/Test_systems_manuscript/rnas/2b57

>  <Rbt.Executable>
rbdock ($Id: //depot/dev/client3/rdock/2013.1/src/exe/rbdock.cxx#4 $)

>  <Rbt.Library>
libRbt.so (2013.1, Build901 2013/11/27)

>  <Rbt.Parameter_File>
/export/apps/rDock/src/rDock_2013.1_src/data/scripts/dock_solv.prm

>  <Rbt.Receptor>
prm/blind_docking_60.prm

>  <SCORE>
-6.55388

>  <SCORE.INTER>
-6.55388

>  <SCORE.INTER.CONST>
1

>  <SCORE.INTER.POLAR>
0

>  <SCORE.INTER.ROT>
0

>  <SCORE.INTER.SOLV>
3.22099

>  <SCORE.INTER.VDW>
-9.04292

>  <SCORE.INTER.norm>
-0.595808

>  <SCORE.INTRA>
0

>  <SCORE.INTRA.DIHEDRAL>
0

>  <SCORE.INTRA.DIHEDRAL.0>
0

>  <SCORE.INTRA.POLAR>
0

>  <SCORE.INTRA.POLAR.0>
0

>  <SCORE.INTRA.REPUL>
0

>  <SCORE.INTRA.REPUL.0>
0

>  <SCORE.INTRA.SOLV>
0

>  <SCORE.INTRA.SOLV.lig_0>
-48.3454

>  <SCORE.INTRA.VDW>
0

>  <SCORE.INTRA.VDW.0>
0

>  <SCORE.INTRA.norm>
0

>  <SCORE.RESTR>
0

>  <SCORE.RESTR.CAVITY>
0

>  <SCORE.RESTR.norm>
0

>  <SCORE.SYSTEM>
0

>  <SCORE.SYSTEM.CONST>
0

>  <SCORE.SYSTEM.DIHEDRAL>
0

>  <SCORE.SYSTEM.SOLV>
0

>  <SCORE.SYSTEM.norm>
0

>  <SCORE.heavy>
11

>  <SCORE.norm>
-0.595808

>  <RMSD>
25.585

$$$$
ligand
 OpenBabel02271912153D
libRbt.so/2013.1/901 2013/11/27
 11 12  0  0  0  0  0  0  0  0999 V2000
  -35.5150  -22.0978    9.6225 N   0  0  0  0  0  0  0  0  0  0  0  0
  -35.7414  -22.3279    8.3192 C   0  0  0  0  0  0  0  0  0  0  0  0
  -35.5180  -23.5376    7.8136 N   0  0  0  0  0  0  0  0  0  0  0  0
  -36.1817  -21.3446    7.5190 N   0  0  0  0  0  0  0  0  0  0  0  0
  -36.4011  -20.1136    8.0041 C   0  0  0  0  0  0  0  0  0  0  0  0
  -36.1748  -19.8485    9.3488 C   0  0  0  0  0  0  0  0  0  0  0  0
  -35.7210  -20.8844   10.1586 C   0  0  0  0  0  0  0  0  0  0  0  0
  -35.5005  -20.6773   11.4534 N   0  0  0  0  0  0  0  0  0  0  0  0
  -36.4535  -18.5651    9.5561 N   0  0  0  0  0  0  0  0  0  0  0  0
  -36.8388  -18.0393    8.3955 C   0  0  0  0  0  0  0  0  0  0  0  0
  -36.8091  -18.9757    7.4496 N   0  0  0  0  0  0  0  0  0  0  0  0
  1  7  2  0  0  0  0
  1  2  1  0  0  0  0
  2  3  1  0  0  0  0
  2  4  2  0  0  0  0
  4  5  1  0  0  0  0
  5  6  2  0  0  0  0
  5 11  1  0  0  0  0
  6  7  1  0  0  0  0
  6  9  1  0  0  0  0
  7  8  1  0  0  0  0
  9 10  1  0  0  0  0
 10 11  2  0  0  0  0
M  END
>  <CHROM.1>
-36.07095178,-20.60644856,8.87855656,-0.69933545,-1.24276005,0.88253518

>  <Name>
ligand

>  <RI>
0

>  <Rbt.Current_Directory>
/home/itssahil/PROJECTS/Mol_Feturizer/Test_systems_manuscript/rnas/2b57

>  <Rbt.Executable>
rbdock ($Id: //depot/dev/client3/rdock/2013.1/src/exe/rbdock.cxx#4 $)

>  <Rbt.Library>
libRbt.so (2013.1, Build901 2013/11/27)

>  <Rbt.Parameter_File>
/export/apps/rDock/src/rDock_2013.1_src/data/scripts/dock_solv.prm

>  <Rbt.Receptor>
prm/blind_docking_80.prm

>  <SCORE>
-4.4056

>  <SCORE.INTER>
-4.45509

>  <SCORE.INTER.CONST>
1

>  <SCORE.INTER.POLAR>
0

>  <SCORE.INTER.ROT>
0

>  <SCORE.INTER.SOLV>
19.8482

>  <SCORE.INTER.VDW>
-13.1861

>  <SCORE.INTER.norm>
-0.405008

>  <SCORE.INTRA>
0

>  <SCORE.INTRA.DIHEDRAL>
0

>  <SCORE.INTRA.DIHEDRAL.0>
0

>  <SCORE.INTRA.POLAR>
0

>  <SCORE.INTRA.POLAR.0>
0

>  <SCORE.INTRA.REPUL>
0

>  <SCORE.INTRA.REPUL.0>
0

>  <SCORE.INTRA.SOLV>
0

>  <SCORE.INTRA.SOLV.lig_0>
-48.3454

>  <SCORE.INTRA.VDW>
0

>  <SCORE.INTRA.VDW.0>
0

>  <SCORE.INTRA.norm>
0

>  <SCORE.RESTR>
0.0494874

>  <SCORE.RESTR.CAVITY>
0.0494874

>  <SCORE.RESTR.norm>
0.00449886

>  <SCORE.SYSTEM>
0

>  <SCORE.SYSTEM.CONST>
0

>  <SCORE.SYSTEM.DIHEDRAL>
0

>  <SCORE.SYSTEM.SOLV>
0

>  <SCORE.SYSTEM.norm>
0

>  <SCORE.heavy>
11

>  <SCORE.norm>
-0.400509

>  <RMSD>
25.810

$$$$
ligand
 OpenBabel02271912153D
libRbt.so/2013.1/901 2013/11/27
 11 12  0  0  0  0  0  0  0  0999 V2000
  -35.5607  -22.1627    9.5279 N   0  0  0  0  0  0  0  0  0  0  0  0
  -35.8052  -22.3447    8.2203 C   0  0  0  0  0  0  0  0  0  0  0  0
  -35.6101  -23.5407    7.6721 N   0  0  0  0  0  0  0  0  0  0  0  0
  -36.2353  -21.3272    7.4582 N   0  0  0  0  0  0  0  0  0  0  0  0
  -36.4262  -20.1093    7.9865 C   0  0  0  0  0  0  0  0  0  0  0  0
  -36.1807  -19.8937    9.3367 C   0  0  0  0  0  0  0  0  0  0  0  0
  -35.7380  -20.9644   10.1063 C   0  0  0  0  0  0  0  0  0  0  0  0
  -35.5000  -20.8049   11.4048 N   0  0  0  0  0  0  0  0  0  0  0  0
  -36.4329  -18.6129    9.5897 N   0  0  0  0  0  0  0  0  0  0  0  0
  -36.8204  -18.0415    8.4516 C   0  0  0  0  0  0  0  0  0  0  0  0
  -36.8185  -18.9461    7.4748 N   0  0  0  0  0  0  0  0  0  0  0  0
  1  7  2  0  0  0  0
  1  2  1  0  0  0  0
  2  3  1  0  0  0  0
  2  4  2  0  0  0  0
  4  5  1  0  0  0  0
  5  6  2  0  0  0  0
  5 11  1  0  0  0  0
  6  7  1  0  0  0  0
  6  9  1  0  0  0  0
  7  8  1  0  0  0  0
  9 10  1  0  0  0  0
 10 11  2  0  0  0  0
M  END
>  <CHROM.1>
-36.09622581,-20.63721223,8.84030555,-0.76340032,-1.25001999,0.85523789

>  <Name>
ligand

>  <RI>
0

>  <Rbt.Current_Directory>
/home/itssahil/PROJECTS/Mol_Feturizer/Test_systems_manuscript/rnas/2b57

>  <Rbt.Executable>
rbdock ($Id: //depot/dev/client3/rdock/2013.1/src/exe/rbdock.cxx#4 $)

>  <Rbt.Library>
libRbt.so (2013.1, Build901 2013/11/27)

>  <Rbt.Parameter_File>
/export/apps/rDock/src/rDock_2013.1_src/data/scripts/dock_solv.prm

>  <Rbt.Receptor>
prm/blind_docking_60.prm

>  <SCORE>
-4.2946

>  <SCORE.INTER>
-4.37171

>  <SCORE.INTER.CONST>
1

>  <SCORE.INTER.POLAR>
0

>  <SCORE.INTER.ROT>
0

>  <SCORE.INTER.SOLV>
19.6641

>  <SCORE.INTER.VDW>
-13.0692

>  <SCORE.INTER.norm>
-0.397428

>  <SCORE.INTRA>
0

>  <SCORE.INTRA.DIHEDRAL>
0

>  <SCORE.INTRA.DIHEDRAL.0>
0

>  <SCORE.INTRA.POLAR>
0

>  <SCORE.INTRA.POLAR.0>
0

>  <SCORE.INTRA.REPUL>
0

>  <SCORE.INTRA.REPUL.0>
0

>  <SCORE.INTRA.SOLV>
0

>  <SCORE.INTRA.SOLV.lig_0>
-48.3454

>  <SCORE.INTRA.VDW>
0

>  <SCORE.INTRA.VDW.0>
0

>  <SCORE.INTRA.norm>
0

>  <SCORE.RESTR>
0.0771094

>  <SCORE.RESTR.CAVITY>
0.0771094

>  <SCORE.RESTR.norm>
0.00700994

>  <SCORE.SYSTEM>
0

>  <SCORE.SYSTEM.CONST>
0

>  <SCORE.SYSTEM.DIHEDRAL>
0

>  <SCORE.SYSTEM.SOLV>
0

>  <SCORE.SYSTEM.norm>
0

>  <SCORE.heavy>
11

>  <SCORE.norm>
-0.390418

>  <RMSD>
25.846

$$$$
ligand
 OpenBabel02271912153D
libRbt.so/2013.1/901 2013/11/27
 11 12  0  0  0  0  0  0  0  0999 V2000
  -34.3067  -21.2094    8.8150 N   0  0  0  0  0  0  0  0  0  0  0  0
  -35.4184  -20.6104    9.2711 C   0  0  0  0  0  0  0  0  0  0  0  0
  -35.3204  -19.4965    9.9912 N   0  0  0  0  0  0  0  0  0  0  0  0
  -36.6284  -21.1316    9.0156 N   0  0  0  0  0  0  0  0  0  0  0  0
  -36.7507  -22.2613    8.3031 C   0  0  0  0  0  0  0  0  0  0  0  0
  -35.6166  -22.9013    7.8194 C   0  0  0  0  0  0  0  0  0  0  0  0
  -34.3739  -22.3405    8.0952 C   0  0  0  0  0  0  0  0  0  0  0  0
  -33.2630  -22.9148    7.6435 N   0  0  0  0  0  0  0  0  0  0  0  0
  -36.0178  -23.9897    7.1696 N   0  0  0  0  0  0  0  0  0  0  0  0
  -37.3463  -24.0385    7.2381 C   0  0  0  0  0  0  0  0  0  0  0  0
  -37.7965  -22.9908    7.9252 N   0  0  0  0  0  0  0  0  0  0  0  0
  1  7  2  0  0  0  0
  1  2  1  0  0  0  0
  2  3  1  0  0  0  0
  2  4  2  0  0  0  0
  4  5  1  0  0  0  0
  5  6  2  0  0  0  0
  5 11  1  0  0  0  0
  6  7  1  0  0  0  0
  6  9  1  0  0  0  0
  7  8  1  0  0  0  0
  9 10  1  0  0  0  0
 10 11  2  0  0  0  0
M  END
>  <CHROM.1>
-35.69956084,-22.15342191,8.30944581,-1.13879462,-0.06044804,-2.57381471

>  <Name>
ligand

>  <RI>
0

>  <Rbt.Current_Directory>
/home/itssahil/PROJECTS/Mol_Feturizer/Test_systems_manuscript/rnas/2b57

>  <Rbt.Executable>
rbdock ($Id: //depot/dev/client3/rdock/2013.1/src/exe/rbdock.cxx#4 $)

>  <Rbt.Library>
libRbt.so (2013.1, Build901 2013/11/27)

>  <Rbt.Parameter_File>
/export/apps/rDock/src/rDock_2013.1_src/data/scripts/dock_solv.prm

>  <Rbt.Receptor>
prm/blind_docking_80.prm

>  <SCORE>
-2.41281

>  <SCORE.INTER>
-2.41281

>  <SCORE.INTER.CONST>
1

>  <SCORE.INTER.POLAR>
0

>  <SCORE.INTER.ROT>
0

>  <SCORE.INTER.SOLV>
10.7576

>  <SCORE.INTER.VDW>
-8.7944

>  <SCORE.INTER.norm>
-0.219346

>  <SCORE.INTRA>
0

>  <SCORE.INTRA.DIHEDRAL>
0

>  <SCORE.INTRA.DIHEDRAL.0>
0

>  <SCORE.INTRA.POLAR>
0

>  <SCORE.INTRA.POLAR.0>
0

>  <SCORE.INTRA.REPUL>
0

>  <SCORE.INTRA.REPUL.0>
0

>  <SCORE.INTRA.SOLV>
0

>  <SCORE.INTRA.SOLV.lig_0>
-48.3454

>  <SCORE.INTRA.VDW>
0

>  <SCORE.INTRA.VDW.0>
0

>  <SCORE.INTRA.norm>
0

>  <SCORE.RESTR>
0

>  <SCORE.RESTR.CAVITY>
0

>  <SCORE.RESTR.norm>
0

>  <SCORE.SYSTEM>
0

>  <SCORE.SYSTEM.CONST>
0

>  <SCORE.SYSTEM.DIHEDRAL>
0

>  <SCORE.SYSTEM.SOLV>
0

>  <SCORE.SYSTEM.norm>
0

>  <SCORE.heavy>
11

>  <SCORE.norm>
-0.219346

>  <RMSD>
25.963

$$$$
ligand
 OpenBabel02271912153D
libRbt.so/2013.1/901 2013/11/27
 11 12  0  0  0  0  0  0  0  0999 V2000
  -34.6768  -25.0238    6.5841 N   0  0  0  0  0  0  0  0  0  0  0  0
  -35.9604  -25.3119    6.3158 C   0  0  0  0  0  0  0  0  0  0  0  0
  -36.2622  -26.4187    5.6429 N   0  0  0  0  0  0  0  0  0  0  0  0
  -36.9422  -24.4871    6.7119 N   0  0  0  0  0  0  0  0  0  0  0  0
  -36.6607  -23.3587    7.3800 C   0  0  0  0  0  0  0  0  0  0  0  0
  -35.3409  -23.0368    7.6704 C   0  0  0  0  0  0  0  0  0  0  0  0
  -34.3412  -23.9086    7.2517 C   0  0  0  0  0  0  0  0  0  0  0  0
  -33.0653  -23.6441    7.5169 N   0  0  0  0  0  0  0  0  0  0  0  0
  -35.3455  -21.8751    8.3172 N   0  0  0  0  0  0  0  0  0  0  0  0
  -36.6107  -21.4775    8.4317 C   0  0  0  0  0  0  0  0  0  0  0  0
  -37.4136  -22.3753    7.8644 N   0  0  0  0  0  0  0  0  0  0  0  0
  1  7  2  0  0  0  0
  1  2  1  0  0  0  0
  2  3  1  0  0  0  0
  2  4  2  0  0  0  0
  4  5  1  0  0  0  0
  5  6  2  0  0  0  0
  5 11  1  0  0  0  0
  6  7  1  0  0  0  0
  6  9  1  0  0  0  0
  7  8  1  0  0  0  0
  9 10  1  0  0  0  0
 10 11  2  0  0  0  0
M  END
>  <CHROM.1>
-35.68645630,-23.74062320,7.23278785,-1.44236992,-0.07404332,0.51817535

>  <Name>
ligand

>  <RI>
0

>  <Rbt.Current_Directory>
/home/itssahil/PROJECTS/Mol_Feturizer/Test_systems_manuscript/rnas/2b57

>  <Rbt.Executable>
rbdock ($Id: //depot/dev/client3/rdock/2013.1/src/exe/rbdock.cxx#4 $)

>  <Rbt.Library>
libRbt.so (2013.1, Build901 2013/11/27)

>  <Rbt.Parameter_File>
/export/apps/rDock/src/rDock_2013.1_src/data/scripts/dock_solv.prm

>  <Rbt.Receptor>
prm/blind_docking_80.prm

>  <SCORE>
-5.24827

>  <SCORE.INTER>
-5.24827

>  <SCORE.INTER.CONST>
1

>  <SCORE.INTER.POLAR>
0

>  <SCORE.INTER.ROT>
0

>  <SCORE.INTER.SOLV>
6.97821

>  <SCORE.INTER.VDW>
-9.42492

>  <SCORE.INTER.norm>
-0.477116

>  <SCORE.INTRA>
0

>  <SCORE.INTRA.DIHEDRAL>
0

>  <SCORE.INTRA.DIHEDRAL.0>
0

>  <SCORE.INTRA.POLAR>
0

>  <SCORE.INTRA.POLAR.0>
0

>  <SCORE.INTRA.REPUL>
0

>  <SCORE.INTRA.REPUL.0>
0

>  <SCORE.INTRA.SOLV>
0

>  <SCORE.INTRA.SOLV.lig_0>
-48.3454

>  <SCORE.INTRA.VDW>
0

>  <SCORE.INTRA.VDW.0>
0

>  <SCORE.INTRA.norm>
0

>  <SCORE.RESTR>
0

>  <SCORE.RESTR.CAVITY>
0

>  <SCORE.RESTR.norm>
0

>  <SCORE.SYSTEM>
0

>  <SCORE.SYSTEM.CONST>
0

>  <SCORE.SYSTEM.DIHEDRAL>
0

>  <SCORE.SYSTEM.SOLV>
0

>  <SCORE.SYSTEM.norm>
0

>  <SCORE.heavy>
11

>  <SCORE.norm>
-0.477116

>  <RMSD>
26.571

$$$$
ligand
 OpenBabel02271912153D
libRbt.so/2013.1/901 2013/11/27
 11 12  0  0  0  0  0  0  0  0999 V2000
  -35.5189  -10.4305   16.6263 N   0  0  0  0  0  0  0  0  0  0  0  0
  -35.7840  -11.1145   15.5017 C   0  0  0  0  0  0  0  0  0  0  0  0
  -35.0546  -12.1823   15.1908 N   0  0  0  0  0  0  0  0  0  0  0  0
  -36.7725  -10.7241   14.6823 N   0  0  0  0  0  0  0  0  0  0  0  0
  -37.5123   -9.6425   14.9688 C   0  0  0  0  0  0  0  0  0  0  0  0
  -37.2590   -8.9168   16.1258 C   0  0  0  0  0  0  0  0  0  0  0  0
  -36.2309   -9.3426   16.9604 C   0  0  0  0  0  0  0  0  0  0  0  0
  -35.9605   -8.6831   18.0829 N   0  0  0  0  0  0  0  0  0  0  0  0
  -38.1160   -7.9007   16.1565 N   0  0  0  0  0  0  0  0  0  0  0  0
  -38.8783   -7.9778   15.0680 C   0  0  0  0  0  0  0  0  0  0  0  0
  -38.5160   -9.0343   14.3434 N   0  0  0  0  0  0  0  0  0  0  0  0
  1  7  2  0  0  0  0
  1  2  1  0  0  0  0
  2  3  1  0  0  0  0
  2  4  2  0  0  0  0
  4  5  1  0  0  0  0
  5  6  2  0  0  0  0
  5 11  1  0  0  0  0
  6  7  1  0  0  0  0
  6  9  1  0  0  0  0
  7  8  1  0  0  0  0
  9 10  1  0  0  0  0
 10 11  2  0  0  0  0
M  END
>  <CHROM.1>
-36.85500654,-9.64788076,15.79614266,-0.42017725,-0.70590018,0.85676234

>  <Name>
ligand

>  <RI>
0

>  <Rbt.Current_Directory>
/home/itssahil/PROJECTS/Mol_Feturizer/Test_systems_manuscript/rnas/2b57

>  <Rbt.Executable>
rbdock ($Id: //depot/dev/client3/rdock/2013.1/src/exe/rbdock.cxx#4 $)

>  <Rbt.Library>
libRbt.so (2013.1, Build901 2013/11/27)

>  <Rbt.Parameter_File>
/export/apps/rDock/src/rDock_2013.1_src/data/scripts/dock_solv.prm

>  <Rbt.Receptor>
prm/blind_docking_100.prm

>  <SCORE>
-4.71656

>  <SCORE.INTER>
-4.71656

>  <SCORE.INTER.CONST>
1

>  <SCORE.INTER.POLAR>
0

>  <SCORE.INTER.ROT>
0

>  <SCORE.INTER.SOLV>
10.5295

>  <SCORE.INTER.VDW>
-10.2542

>  <SCORE.INTER.norm>
-0.428779

>  <SCORE.INTRA>
0

>  <SCORE.INTRA.DIHEDRAL>
0

>  <SCORE.INTRA.DIHEDRAL.0>
0

>  <SCORE.INTRA.POLAR>
0

>  <SCORE.INTRA.POLAR.0>
0

>  <SCORE.INTRA.REPUL>
0

>  <SCORE.INTRA.REPUL.0>
0

>  <SCORE.INTRA.SOLV>
0

>  <SCORE.INTRA.SOLV.lig_0>
-48.3454

>  <SCORE.INTRA.VDW>
0

>  <SCORE.INTRA.VDW.0>
0

>  <SCORE.INTRA.norm>
0

>  <SCORE.RESTR>
0

>  <SCORE.RESTR.CAVITY>
0

>  <SCORE.RESTR.norm>
0

>  <SCORE.SYSTEM>
0

>  <SCORE.SYSTEM.CONST>
0

>  <SCORE.SYSTEM.DIHEDRAL>
0

>  <SCORE.SYSTEM.SOLV>
0

>  <SCORE.SYSTEM.norm>
0

>  <SCORE.heavy>
11

>  <SCORE.norm>
-0.428779

>  <RMSD>
26.933

$$$$
ligand
 OpenBabel02271912153D
libRbt.so/2013.1/901 2013/11/27
 11 12  0  0  0  0  0  0  0  0999 V2000
  -38.4759  -25.6218    7.4896 N   0  0  0  0  0  0  0  0  0  0  0  0
  -39.2742  -24.9995    8.3718 C   0  0  0  0  0  0  0  0  0  0  0  0
  -40.3367  -25.6321    8.8617 N   0  0  0  0  0  0  0  0  0  0  0  0
  -39.0154  -23.7401    8.7564 N   0  0  0  0  0  0  0  0  0  0  0  0
  -37.9574  -23.0780    8.2653 C   0  0  0  0  0  0  0  0  0  0  0  0
  -37.1154  -23.6985    7.3511 C   0  0  0  0  0  0  0  0  0  0  0  0
  -37.4029  -25.0049    6.9699 C   0  0  0  0  0  0  0  0  0  0  0  0
  -36.6180  -25.6400    6.1046 N   0  0  0  0  0  0  0  0  0  0  0  0
  -36.1695  -22.8243    7.0210 N   0  0  0  0  0  0  0  0  0  0  0  0
  -36.4009  -21.6998    7.6948 C   0  0  0  0  0  0  0  0  0  0  0  0
  -37.4855  -21.8488    8.4524 N   0  0  0  0  0  0  0  0  0  0  0  0
  1  7  2  0  0  0  0
  1  2  1  0  0  0  0
  2  3  1  0  0  0  0
  2  4  2  0  0  0  0
  4  5  1  0  0  0  0
  5  6  2  0  0  0  0
  5 11  1  0  0  0  0
  6  7  1  0  0  0  0
  6  9  1  0  0  0  0
  7  8  1  0  0  0  0
  9 10  1  0  0  0  0
 10 11  2  0  0  0  0
M  END
>  <CHROM.1>
-37.85569435,-24.00041107,7.75996748,-2.49635532,0.59763709,0.42275050

>  <Name>
ligand

>  <RI>
0

>  <Rbt.Current_Directory>
/home/itssahil/PROJECTS/Mol_Feturizer/Test_systems_manuscript/rnas/2b57

>  <Rbt.Executable>
rbdock ($Id: //depot/dev/client3/rdock/2013.1/src/exe/rbdock.cxx#4 $)

>  <Rbt.Library>
libRbt.so (2013.1, Build901 2013/11/27)

>  <Rbt.Parameter_File>
/export/apps/rDock/src/rDock_2013.1_src/data/scripts/dock_solv.prm

>  <Rbt.Receptor>
prm/blind_docking_100.prm

>  <SCORE>
-4.73159

>  <SCORE.INTER>
-4.73159

>  <SCORE.INTER.CONST>
1

>  <SCORE.INTER.POLAR>
0

>  <SCORE.INTER.ROT>
0

>  <SCORE.INTER.SOLV>
8.59017

>  <SCORE.INTER.VDW>
-9.61778

>  <SCORE.INTER.norm>
-0.430144

>  <SCORE.INTRA>
0

>  <SCORE.INTRA.DIHEDRAL>
0

>  <SCORE.INTRA.DIHEDRAL.0>
0

>  <SCORE.INTRA.POLAR>
0

>  <SCORE.INTRA.POLAR.0>
0

>  <SCORE.INTRA.REPUL>
0

>  <SCORE.INTRA.REPUL.0>
0

>  <SCORE.INTRA.SOLV>
0

>  <SCORE.INTRA.SOLV.lig_0>
-48.3454

>  <SCORE.INTRA.VDW>
0

>  <SCORE.INTRA.VDW.0>
0

>  <SCORE.INTRA.norm>
0

>  <SCORE.RESTR>
0

>  <SCORE.RESTR.CAVITY>
0

>  <SCORE.RESTR.norm>
0

>  <SCORE.SYSTEM>
0

>  <SCORE.SYSTEM.CONST>
0

>  <SCORE.SYSTEM.DIHEDRAL>
0

>  <SCORE.SYSTEM.SOLV>
0

>  <SCORE.SYSTEM.norm>
0

>  <SCORE.heavy>
11

>  <SCORE.norm>
-0.430144

>  <RMSD>
28.584

$$$$
ligand
 OpenBabel02271912153D
libRbt.so/2013.1/901 2013/11/27
 11 12  0  0  0  0  0  0  0  0999 V2000
  -39.0917  -28.3534   10.5734 N   0  0  0  0  0  0  0  0  0  0  0  0
  -39.6057  -27.7541   11.6594 C   0  0  0  0  0  0  0  0  0  0  0  0
  -39.8748  -28.4733   12.7454 N   0  0  0  0  0  0  0  0  0  0  0  0
  -39.8602  -26.4364   11.6557 N   0  0  0  0  0  0  0  0  0  0  0  0
  -39.6093  -25.6938   10.5674 C   0  0  0  0  0  0  0  0  0  0  0  0
  -39.0777  -26.2888    9.4303 C   0  0  0  0  0  0  0  0  0  0  0  0
  -38.8202  -27.6554    9.4594 C   0  0  0  0  0  0  0  0  0  0  0  0
  -38.3025  -28.2639    8.3964 N   0  0  0  0  0  0  0  0  0  0  0  0
  -38.9439  -25.3406    8.5078 N   0  0  0  0  0  0  0  0  0  0  0  0
  -39.3717  -24.1958    9.0354 C   0  0  0  0  0  0  0  0  0  0  0  0
  -39.7766  -24.4047   10.2864 N   0  0  0  0  0  0  0  0  0  0  0  0
  1  7  2  0  0  0  0
  1  2  1  0  0  0  0
  2  3  1  0  0  0  0
  2  4  2  0  0  0  0
  4  5  1  0  0  0  0
  5  6  2  0  0  0  0
  5 11  1  0  0  0  0
  6  7  1  0  0  0  0
  6  9  1  0  0  0  0
  7  8  1  0  0  0  0
  9 10  1  0  0  0  0
 10 11  2  0  0  0  0
M  END
>  <CHROM.1>
-39.30354928,-26.64484980,10.22311919,-1.73462224,1.17439308,-0.50114886

>  <Name>
ligand

>  <RI>
0

>  <Rbt.Current_Directory>
/home/itssahil/PROJECTS/Mol_Feturizer/Test_systems_manuscript/rnas/2b57

>  <Rbt.Executable>
rbdock ($Id: //depot/dev/client3/rdock/2013.1/src/exe/rbdock.cxx#4 $)

>  <Rbt.Library>
libRbt.so (2013.1, Build901 2013/11/27)

>  <Rbt.Parameter_File>
/export/apps/rDock/src/rDock_2013.1_src/data/scripts/dock_solv.prm

>  <Rbt.Receptor>
prm/blind_docking_100.prm

>  <SCORE>
-6.00963

>  <SCORE.INTER>
-6.00963

>  <SCORE.INTER.CONST>
1

>  <SCORE.INTER.POLAR>
0

>  <SCORE.INTER.ROT>
0

>  <SCORE.INTER.SOLV>
9.71412

>  <SCORE.INTER.VDW>
-10.8445

>  <SCORE.INTER.norm>
-0.54633

>  <SCORE.INTRA>
0

>  <SCORE.INTRA.DIHEDRAL>
0

>  <SCORE.INTRA.DIHEDRAL.0>
0

>  <SCORE.INTRA.POLAR>
0

>  <SCORE.INTRA.POLAR.0>
0

>  <SCORE.INTRA.REPUL>
0

>  <SCORE.INTRA.REPUL.0>
0

>  <SCORE.INTRA.SOLV>
0

>  <SCORE.INTRA.SOLV.lig_0>
-48.3454

>  <SCORE.INTRA.VDW>
0

>  <SCORE.INTRA.VDW.0>
0

>  <SCORE.INTRA.norm>
0

>  <SCORE.RESTR>
0

>  <SCORE.RESTR.CAVITY>
0

>  <SCORE.RESTR.norm>
0

>  <SCORE.SYSTEM>
0

>  <SCORE.SYSTEM.CONST>
0

>  <SCORE.SYSTEM.DIHEDRAL>
0

>  <SCORE.SYSTEM.SOLV>
0

>  <SCORE.SYSTEM.norm>
0

>  <SCORE.heavy>
11

>  <SCORE.norm>
-0.54633

>  <RMSD>
31.048

$$$$
ligand
 OpenBabel02271912153D
libRbt.so/2013.1/901 2013/11/27
 11 12  0  0  0  0  0  0  0  0999 V2000
  -39.2784  -26.4837    8.8000 N   0  0  0  0  0  0  0  0  0  0  0  0
  -39.3796  -25.2895    9.4053 C   0  0  0  0  0  0  0  0  0  0  0  0
  -39.3872  -24.1776    8.6754 N   0  0  0  0  0  0  0  0  0  0  0  0
  -39.4630  -25.2067   10.7422 N   0  0  0  0  0  0  0  0  0  0  0  0
  -39.4437  -26.3138   11.4991 C   0  0  0  0  0  0  0  0  0  0  0  0
  -39.3397  -27.5619   10.8983 C   0  0  0  0  0  0  0  0  0  0  0  0
  -39.2572  -27.6220    9.5111 C   0  0  0  0  0  0  0  0  0  0  0  0
  -39.1661  -28.7964    8.8942 N   0  0  0  0  0  0  0  0  0  0  0  0
  -39.3284  -28.4726   11.8671 N   0  0  0  0  0  0  0  0  0  0  0  0
  -39.4207  -27.8314   13.0300 C   0  0  0  0  0  0  0  0  0  0  0  0
  -39.4914  -26.5199   12.8121 N   0  0  0  0  0  0  0  0  0  0  0  0
  1  7  2  0  0  0  0
  1  2  1  0  0  0  0
  2  3  1  0  0  0  0
  2  4  2  0  0  0  0
  4  5  1  0  0  0  0
  5  6  2  0  0  0  0
  5 11  1  0  0  0  0
  6  7  1  0  0  0  0
  6  9  1  0  0  0  0
  7  8  1  0  0  0  0
  9 10  1  0  0  0  0
 10 11  2  0  0  0  0
M  END
>  <CHROM.1>
-39.35899870,-26.74046378,10.53615853,-1.42829368,-1.49551064,2.34426292

>  <Name>
ligand

>  <RI>
0

>  <Rbt.Current_Directory>
/home/itssahil/PROJECTS/Mol_Feturizer/Test_systems_manuscript/rnas/2b57

>  <Rbt.Executable>
rbdock ($Id: //depot/dev/client3/rdock/2013.1/src/exe/rbdock.cxx#4 $)

>  <Rbt.Library>
libRbt.so (2013.1, Build901 2013/11/27)

>  <Rbt.Parameter_File>
/export/apps/rDock/src/rDock_2013.1_src/data/scripts/dock_solv.prm

>  <Rbt.Receptor>
prm/blind_docking_60.prm

>  <SCORE>
-6.83067

>  <SCORE.INTER>
-6.83067

>  <SCORE.INTER.CONST>
1

>  <SCORE.INTER.POLAR>
0

>  <SCORE.INTER.ROT>
0

>  <SCORE.INTER.SOLV>
9.8213

>  <SCORE.INTER.VDW>
-11.4276

>  <SCORE.INTER.norm>
-0.62097

>  <SCORE.INTRA>
0

>  <SCORE.INTRA.DIHEDRAL>
0

>  <SCORE.INTRA.DIHEDRAL.0>
0

>  <SCORE.INTRA.POLAR>
0

>  <SCORE.INTRA.POLAR.0>
0

>  <SCORE.INTRA.REPUL>
0

>  <SCORE.INTRA.REPUL.0>
0

>  <SCORE.INTRA.SOLV>
0

>  <SCORE.INTRA.SOLV.lig_0>
-48.3454

>  <SCORE.INTRA.VDW>
0

>  <SCORE.INTRA.VDW.0>
0

>  <SCORE.INTRA.norm>
0

>  <SCORE.RESTR>
0

>  <SCORE.RESTR.CAVITY>
0

>  <SCORE.RESTR.norm>
0

>  <SCORE.SYSTEM>
0

>  <SCORE.SYSTEM.CONST>
0

>  <SCORE.SYSTEM.DIHEDRAL>
0

>  <SCORE.SYSTEM.SOLV>
0

>  <SCORE.SYSTEM.norm>
0

>  <SCORE.heavy>
11

>  <SCORE.norm>
-0.62097

>  <RMSD>
31.327

$$$$
ligand
 OpenBabel02271912153D
libRbt.so/2013.1/901 2013/11/27
 11 12  0  0  0  0  0  0  0  0999 V2000
  -38.9132  -27.5710    8.6614 N   0  0  0  0  0  0  0  0  0  0  0  0
  -38.9852  -26.2383    8.8081 C   0  0  0  0  0  0  0  0  0  0  0  0
  -38.8478  -25.4488    7.7466 N   0  0  0  0  0  0  0  0  0  0  0  0
  -39.1845  -25.6946   10.0188 N   0  0  0  0  0  0  0  0  0  0  0  0
  -39.3125  -26.4707   11.1051 C   0  0  0  0  0  0  0  0  0  0  0  0
  -39.2418  -27.8525   10.9814 C   0  0  0  0  0  0  0  0  0  0  0  0
  -39.0372  -28.3924    9.7159 C   0  0  0  0  0  0  0  0  0  0  0  0
  -38.9728  -29.7102    9.5505 N   0  0  0  0  0  0  0  0  0  0  0  0
  -39.3833  -28.3710   12.1976 N   0  0  0  0  0  0  0  0  0  0  0  0
  -39.5363  -27.3637   13.0544 C   0  0  0  0  0  0  0  0  0  0  0  0
  -39.4944  -26.2074   12.3959 N   0  0  0  0  0  0  0  0  0  0  0  0
  1  7  2  0  0  0  0
  1  2  1  0  0  0  0
  2  3  1  0  0  0  0
  2  4  2  0  0  0  0
  4  5  1  0  0  0  0
  5  6  2  0  0  0  0
  5 11  1  0  0  0  0
  6  7  1  0  0  0  0
  6  9  1  0  0  0  0
  7  8  1  0  0  0  0
  9 10  1  0  0  0  0
 10 11  2  0  0  0  0
M  END
>  <CHROM.1>
-39.17014797,-27.20734121,10.36098489,-0.51424290,-1.42563397,2.90180569

>  <Name>
ligand

>  <RI>
0

>  <Rbt.Current_Directory>
/home/itssahil/PROJECTS/Mol_Feturizer/Test_systems_manuscript/rnas/2b57

>  <Rbt.Executable>
rbdock ($Id: //depot/dev/client3/rdock/2013.1/src/exe/rbdock.cxx#4 $)

>  <Rbt.Library>
libRbt.so (2013.1, Build901 2013/11/27)

>  <Rbt.Parameter_File>
/export/apps/rDock/src/rDock_2013.1_src/data/scripts/dock_solv.prm

>  <Rbt.Receptor>
prm/blind_docking_80.prm

>  <SCORE>
-5.97398

>  <SCORE.INTER>
-5.97398

>  <SCORE.INTER.CONST>
1

>  <SCORE.INTER.POLAR>
0

>  <SCORE.INTER.ROT>
0

>  <SCORE.INTER.SOLV>
7.43487

>  <SCORE.INTER.VDW>
-10.0609

>  <SCORE.INTER.norm>
-0.543089

>  <SCORE.INTRA>
0

>  <SCORE.INTRA.DIHEDRAL>
0

>  <SCORE.INTRA.DIHEDRAL.0>
0

>  <SCORE.INTRA.POLAR>
0

>  <SCORE.INTRA.POLAR.0>
0

>  <SCORE.INTRA.REPUL>
0

>  <SCORE.INTRA.REPUL.0>
0

>  <SCORE.INTRA.SOLV>
0

>  <SCORE.INTRA.SOLV.lig_0>
-48.3454

>  <SCORE.INTRA.VDW>
0

>  <SCORE.INTRA.VDW.0>
0

>  <SCORE.INTRA.norm>
0

>  <SCORE.RESTR>
0

>  <SCORE.RESTR.CAVITY>
0

>  <SCORE.RESTR.norm>
0

>  <SCORE.SYSTEM>
0

>  <SCORE.SYSTEM.CONST>
0

>  <SCORE.SYSTEM.DIHEDRAL>
0

>  <SCORE.SYSTEM.SOLV>
0

>  <SCORE.SYSTEM.norm>
0

>  <SCORE.heavy>
11

>  <SCORE.norm>
-0.543089

>  <RMSD>
31.366

$$$$
ligand
 OpenBabel02271912153D
libRbt.so/2013.1/901 2013/11/27
 11 12  0  0  0  0  0  0  0  0999 V2000
  -38.8512  -27.6286    8.8306 N   0  0  0  0  0  0  0  0  0  0  0  0
  -38.5919  -28.8301    9.3708 C   0  0  0  0  0  0  0  0  0  0  0  0
  -38.1838  -29.8294    8.5937 N   0  0  0  0  0  0  0  0  0  0  0  0
  -38.7509  -29.0352   10.6875 N   0  0  0  0  0  0  0  0  0  0  0  0
  -39.1742  -28.0460   11.4882 C   0  0  0  0  0  0  0  0  0  0  0  0
  -39.4497  -26.7932   10.9550 C   0  0  0  0  0  0  0  0  0  0  0  0
  -39.2749  -26.6045    9.5881 C   0  0  0  0  0  0  0  0  0  0  0  0
  -39.5177  -25.4188    9.0375 N   0  0  0  0  0  0  0  0  0  0  0  0
  -39.8603  -26.0154   11.9522 N   0  0  0  0  0  0  0  0  0  0  0  0
  -39.8466  -26.7418   13.0676 C   0  0  0  0  0  0  0  0  0  0  0  0
  -39.4302  -27.9758   12.7914 N   0  0  0  0  0  0  0  0  0  0  0  0
  1  7  2  0  0  0  0
  1  2  1  0  0  0  0
  2  3  1  0  0  0  0
  2  4  2  0  0  0  0
  4  5  1  0  0  0  0
  5  6  2  0  0  0  0
  5 11  1  0  0  0  0
  6  7  1  0  0  0  0
  6  9  1  0  0  0  0
  7  8  1  0  0  0  0
  9 10  1  0  0  0  0
 10 11  2  0  0  0  0
M  END
>  <CHROM.1>
-39.16921425,-27.54740174,10.55655325,0.47575153,1.24611942,-1.03280561

>  <Name>
ligand

>  <RI>
0

>  <Rbt.Current_Directory>
/home/itssahil/PROJECTS/Mol_Feturizer/Test_systems_manuscript/rnas/2b57

>  <Rbt.Executable>
rbdock ($Id: //depot/dev/client3/rdock/2013.1/src/exe/rbdock.cxx#4 $)

>  <Rbt.Library>
libRbt.so (2013.1, Build901 2013/11/27)

>  <Rbt.Parameter_File>
/export/apps/rDock/src/rDock_2013.1_src/data/scripts/dock_solv.prm

>  <Rbt.Receptor>
prm/blind_docking_60.prm

>  <SCORE>
-6.70996

>  <SCORE.INTER>
-6.70996

>  <SCORE.INTER.CONST>
1

>  <SCORE.INTER.POLAR>
0

>  <SCORE.INTER.ROT>
0

>  <SCORE.INTER.SOLV>
6.00567

>  <SCORE.INTER.VDW>
-10.0752

>  <SCORE.INTER.norm>
-0.609996

>  <SCORE.INTRA>
0

>  <SCORE.INTRA.DIHEDRAL>
0

>  <SCORE.INTRA.DIHEDRAL.0>
0

>  <SCORE.INTRA.POLAR>
0

>  <SCORE.INTRA.POLAR.0>
0

>  <SCORE.INTRA.REPUL>
0

>  <SCORE.INTRA.REPUL.0>
0

>  <SCORE.INTRA.SOLV>
0

>  <SCORE.INTRA.SOLV.lig_0>
-48.3454

>  <SCORE.INTRA.VDW>
0

>  <SCORE.INTRA.VDW.0>
0

>  <SCORE.INTRA.norm>
0

>  <SCORE.RESTR>
0

>  <SCORE.RESTR.CAVITY>
0

>  <SCORE.RESTR.norm>
0

>  <SCORE.SYSTEM>
0

>  <SCORE.SYSTEM.CONST>
0

>  <SCORE.SYSTEM.DIHEDRAL>
0

>  <SCORE.SYSTEM.SOLV>
0

>  <SCORE.SYSTEM.norm>
0

>  <SCORE.heavy>
11

>  <SCORE.norm>
-0.609996

>  <RMSD>
31.433

$$$$
