ligand
 OpenBabel02271912153D
libRbt.so/2013.1/901 2013/11/27
 26 28  0  0  0  0  0  0  0  0999 V2000
  128.8037   70.9485   -3.1284 N   0  0  0  0  0  0  0  0  0  0  0  0
  128.1872   70.2314   -4.2838 C   0  0  2  0  0  0  0  0  0  0  0  0
  126.7992   70.7419   -4.5444 C   0  0  0  0  0  0  0  0  0  0  0  0
  126.2226   71.4655   -3.7335 O   0  0  0  0  0  0  0  0  0  0  0  0
  128.1369   68.7309   -4.0082 C   0  0  0  0  0  0  0  0  0  0  0  0
  127.4601   68.3812   -2.6864 C   0  0  0  0  0  0  0  0  0  0  0  0
  127.2519   66.6353   -2.5600 S   0  0  0  0  0  0  0  0  0  0  0  0
  128.8838   66.0385   -2.8634 C   0  0  0  0  0  0  0  0  0  0  0  0
  129.7429   66.0784   -1.6009 C   0  0  1  0  0  0  0  0  0  0  0  0
  129.3616   65.0395   -0.6965 O   0  0  0  0  0  0  0  0  0  0  0  0
  131.2057   65.8590   -1.9514 C   0  0  1  0  0  0  0  0  0  0  0  0
  132.0117   66.8652   -1.3309 O   0  0  0  0  0  0  0  0  0  0  0  0
  131.5567   64.4751   -1.4343 C   0  0  1  0  0  0  0  0  0  0  0  0
  132.6970   64.5137   -0.5691 O   0  0  0  0  0  0  0  0  0  0  0  0
  130.3354   63.9892   -0.6627 C   0  0  2  0  0  0  0  0  0  0  0  0
  126.2003   70.4386   -5.5751 O   0  0  0  0  0  0  0  0  0  0  0  0
  131.0108   58.8542   -1.7303 N   0  0  0  0  0  0  0  0  0  0  0  0
  131.8383   59.7205   -1.1118 C   0  0  0  0  0  0  0  0  0  0  0  0
  131.5327   61.0179   -0.9044 N   0  0  0  0  0  0  0  0  0  0  0  0
  130.3470   61.5411   -1.3181 C   0  0  0  0  0  0  0  0  0  0  0  0
  129.3909   60.6529   -2.0024 C   0  0  0  0  0  0  0  0  0  0  0  0
  129.7966   59.2372   -2.1928 C   0  0  0  0  0  0  0  0  0  0  0  0
  128.9751   58.3582   -2.8147 N   0  0  0  0  0  0  0  0  0  0  0  0
  128.3136   61.3985   -2.3020 N   0  0  0  0  0  0  0  0  0  0  0  0
  128.5560   62.6552   -1.8535 C   0  0  0  0  0  0  0  0  0  0  0  0
  129.7661   62.7484   -1.2670 N   0  0  0  0  0  0  0  0  0  0  0  0
  2  1  1  1  0  0  0
  2  3  1  0  0  0  0
  2  5  1  0  0  0  0
  3  4  1  0  0  0  0
  3 16  1  0  0  0  0
  5  6  1  0  0  0  0
  6  7  1  0  0  0  0
  7  8  1  0  0  0  0
  9  8  1  6  0  0  0
  9 10  1  0  0  0  0
  9 11  1  0  0  0  0
 10 15  1  0  0  0  0
 11 12  1  1  0  0  0
 11 13  1  0  0  0  0
 13 14  1  1  0  0  0
 13 15  1  0  0  0  0
 15 26  1  6  0  0  0
 17 18  2  0  0  0  0
 17 22  1  0  0  0  0
 18 19  1  0  0  0  0
 19 20  2  0  0  0  0
 20 21  1  0  0  0  0
 20 26  1  0  0  0  0
 21 22  2  0  0  0  0
 21 24  1  0  0  0  0
 22 23  1  0  0  0  0
 24 25  2  0  0  0  0
 25 26  1  0  0  0  0
M  END
>  <CHROM.1>
-12.19737437,53.33737607,172.27746046,52.82090472,82.92304274,73.94197298
-174.64205298,129.28084183,65.09088885,-2.29789614,-1.91732892,0.49977651
3.07833159

>  <Name>
ligand

>  <RI>
0

>  <Rbt.Current_Directory>
/home/itssahil/PROJECTS/Mol_Feturizer/Test_systems_manuscript/rnas/3npn

>  <Rbt.Executable>
rbdock ($Id: //depot/dev/client3/rdock/2013.1/src/exe/rbdock.cxx#4 $)

>  <Rbt.Library>
libRbt.so (2013.1, Build901 2013/11/27)

>  <Rbt.Parameter_File>
/export/apps/rDock/src/rDock_2013.1_src/data/scripts/dock_solv.prm

>  <Rbt.Receptor>
prm/pocket_docking_2.prm

>  <SCORE>
-28.9786

>  <SCORE.INTER>
-28.8386

>  <SCORE.INTER.CONST>
1

>  <SCORE.INTER.POLAR>
0

>  <SCORE.INTER.ROT>
7

>  <SCORE.INTER.SOLV>
22.8427

>  <SCORE.INTER.VDW>
-35.1066

>  <SCORE.INTER.norm>
-1.10918

>  <SCORE.INTRA>
-0.140072

>  <SCORE.INTRA.DIHEDRAL>
0.200915

>  <SCORE.INTRA.DIHEDRAL.0>
4.37896

>  <SCORE.INTRA.POLAR>
0

>  <SCORE.INTRA.POLAR.0>
0

>  <SCORE.INTRA.REPUL>
0

>  <SCORE.INTRA.REPUL.0>
0

>  <SCORE.INTRA.SOLV>
-0.144045

>  <SCORE.INTRA.SOLV.lig_0>
-50.5538

>  <SCORE.INTRA.VDW>
-0.168507

>  <SCORE.INTRA.VDW.0>
-1.30673

>  <SCORE.INTRA.norm>
-0.00538737

>  <SCORE.RESTR>
0

>  <SCORE.RESTR.CAVITY>
0

>  <SCORE.RESTR.norm>
0

>  <SCORE.SYSTEM>
0

>  <SCORE.SYSTEM.CONST>
0

>  <SCORE.SYSTEM.DIHEDRAL>
0

>  <SCORE.SYSTEM.SOLV>
0

>  <SCORE.SYSTEM.norm>
0

>  <SCORE.heavy>
26

>  <SCORE.norm>
-1.11456

>  <RMSD>
0.666

$$$$
ligand
 OpenBabel02271912153D
libRbt.so/2013.1/901 2013/11/27
 26 28  0  0  0  0  0  0  0  0999 V2000
  128.9935   71.2999   -3.5542 N   0  0  0  0  0  0  0  0  0  0  0  0
  128.1614   70.2043   -4.1343 C   0  0  2  0  0  0  0  0  0  0  0  0
  126.8167   70.7255   -4.5526 C   0  0  0  0  0  0  0  0  0  0  0  0
  126.3345   70.4412   -5.6482 O   0  0  0  0  0  0  0  0  0  0  0  0
  127.9807   69.0822   -3.1154 C   0  0  0  0  0  0  0  0  0  0  0  0
  127.1419   67.9200   -3.6382 C   0  0  0  0  0  0  0  0  0  0  0  0
  127.3211   66.5233   -2.5778 S   0  0  0  0  0  0  0  0  0  0  0  0
  128.9881   66.0324   -2.8800 C   0  0  0  0  0  0  0  0  0  0  0  0
  129.8264   66.0660   -1.6033 C   0  0  1  0  0  0  0  0  0  0  0  0
  129.4193   65.0330   -0.7034 O   0  0  0  0  0  0  0  0  0  0  0  0
  131.2925   65.8307   -1.9289 C   0  0  1  0  0  0  0  0  0  0  0  0
  132.0983   66.8299   -1.2969 O   0  0  0  0  0  0  0  0  0  0  0  0
  131.6204   64.4444   -1.4034 C   0  0  1  0  0  0  0  0  0  0  0  0
  132.7463   64.4730   -0.5192 O   0  0  0  0  0  0  0  0  0  0  0  0
  130.3813   63.9727   -0.6514 C   0  0  2  0  0  0  0  0  0  0  0  0
  126.1677   71.4605   -3.8098 O   0  0  0  0  0  0  0  0  0  0  0  0
  131.0238   58.8302   -1.7031 N   0  0  0  0  0  0  0  0  0  0  0  0
  131.8502   59.6894   -1.0732 C   0  0  0  0  0  0  0  0  0  0  0  0
  131.5538   60.9899   -0.8718 N   0  0  0  0  0  0  0  0  0  0  0  0
  130.3796   61.5239   -1.3039 C   0  0  0  0  0  0  0  0  0  0  0  0
  129.4254   60.6439   -2.0014 C   0  0  0  0  0  0  0  0  0  0  0  0
  129.8204   59.2242   -2.1841 C   0  0  0  0  0  0  0  0  0  0  0  0
  129.0000   58.3523   -2.8173 N   0  0  0  0  0  0  0  0  0  0  0  0
  128.3598   61.3993   -2.3179 N   0  0  0  0  0  0  0  0  0  0  0  0
  128.6074   62.6542   -1.8673 C   0  0  0  0  0  0  0  0  0  0  0  0
  129.8094   62.7367   -1.2628 N   0  0  0  0  0  0  0  0  0  0  0  0
  2  1  1  1  0  0  0
  2  3  1  0  0  0  0
  2  5  1  0  0  0  0
  3  4  1  0  0  0  0
  3 16  1  0  0  0  0
  5  6  1  0  0  0  0
  6  7  1  0  0  0  0
  7  8  1  0  0  0  0
  9  8  1  6  0  0  0
  9 10  1  0  0  0  0
  9 11  1  0  0  0  0
 10 15  1  0  0  0  0
 11 12  1  1  0  0  0
 11 13  1  0  0  0  0
 13 14  1  1  0  0  0
 13 15  1  0  0  0  0
 15 26  1  6  0  0  0
 17 18  2  0  0  0  0
 17 22  1  0  0  0  0
 18 19  1  0  0  0  0
 19 20  2  0  0  0  0
 20 21  1  0  0  0  0
 20 26  1  0  0  0  0
 21 22  2  0  0  0  0
 21 24  1  0  0  0  0
 22 23  1  0  0  0  0
 24 25  2  0  0  0  0
 25 26  1  0  0  0  0
M  END
>  <CHROM.1>
133.53550132,-179.81896018,165.81966668,-69.48337998,120.60270798,69.34277836
-174.76361622,129.31149443,65.07711992,-2.31087631,-1.91706719,0.49921929
3.07074836

>  <Name>
ligand

>  <RI>
0

>  <Rbt.Current_Directory>
/home/itssahil/PROJECTS/Mol_Feturizer/Test_systems_manuscript/rnas/3npn

>  <Rbt.Executable>
rbdock ($Id: //depot/dev/client3/rdock/2013.1/src/exe/rbdock.cxx#4 $)

>  <Rbt.Library>
libRbt.so (2013.1, Build901 2013/11/27)

>  <Rbt.Parameter_File>
/export/apps/rDock/src/rDock_2013.1_src/data/scripts/dock_solv.prm

>  <Rbt.Receptor>
prm/pocket_docking_2.prm

>  <SCORE>
-29.8777

>  <SCORE.INTER>
-29.4928

>  <SCORE.INTER.CONST>
1

>  <SCORE.INTER.POLAR>
0

>  <SCORE.INTER.ROT>
7

>  <SCORE.INTER.SOLV>
23.3908

>  <SCORE.INTER.VDW>
-35.7255

>  <SCORE.INTER.norm>
-1.13434

>  <SCORE.INTRA>
-0.384882

>  <SCORE.INTRA.DIHEDRAL>
1.87856

>  <SCORE.INTRA.DIHEDRAL.0>
4.37896

>  <SCORE.INTRA.POLAR>
0

>  <SCORE.INTRA.POLAR.0>
0

>  <SCORE.INTRA.REPUL>
0

>  <SCORE.INTRA.REPUL.0>
0

>  <SCORE.INTRA.SOLV>
-0.91702

>  <SCORE.INTRA.SOLV.lig_0>
-50.5538

>  <SCORE.INTRA.VDW>
-0.865651

>  <SCORE.INTRA.VDW.0>
-1.30673

>  <SCORE.INTRA.norm>
-0.0148032

>  <SCORE.RESTR>
0

>  <SCORE.RESTR.CAVITY>
0

>  <SCORE.RESTR.norm>
0

>  <SCORE.SYSTEM>
0

>  <SCORE.SYSTEM.CONST>
0

>  <SCORE.SYSTEM.DIHEDRAL>
0

>  <SCORE.SYSTEM.SOLV>
0

>  <SCORE.SYSTEM.norm>
0

>  <SCORE.heavy>
26

>  <SCORE.norm>
-1.14914

>  <RMSD>
0.715

$$$$
ligand
 OpenBabel02271912153D
libRbt.so/2013.1/901 2013/11/27
 26 28  0  0  0  0  0  0  0  0999 V2000
  128.9202   71.3534   -3.5329 N   0  0  0  0  0  0  0  0  0  0  0  0
  128.0839   70.2569   -4.1053 C   0  0  2  0  0  0  0  0  0  0  0  0
  126.7306   70.7742   -4.5002 C   0  0  0  0  0  0  0  0  0  0  0  0
  126.2091   70.4492   -5.5661 O   0  0  0  0  0  0  0  0  0  0  0  0
  127.9239   69.1291   -3.0893 C   0  0  0  0  0  0  0  0  0  0  0  0
  127.1428   67.9351   -3.6293 C   0  0  0  0  0  0  0  0  0  0  0  0
  127.3442   66.5496   -2.5582 S   0  0  0  0  0  0  0  0  0  0  0  0
  129.0068   66.0594   -2.8850 C   0  0  0  0  0  0  0  0  0  0  0  0
  129.8550   66.0594   -1.6144 C   0  0  1  0  0  0  0  0  0  0  0  0
  129.4307   65.0261   -0.7230 O   0  0  0  0  0  0  0  0  0  0  0  0
  131.3128   65.7940   -1.9538 C   0  0  1  0  0  0  0  0  0  0  0  0
  132.1463   66.7671   -1.3170 O   0  0  0  0  0  0  0  0  0  0  0  0
  131.6124   64.3946   -1.4461 C   0  0  1  0  0  0  0  0  0  0  0  0
  132.7452   64.3873   -0.5703 O   0  0  0  0  0  0  0  0  0  0  0  0
  130.3683   63.9433   -0.6899 C   0  0  2  0  0  0  0  0  0  0  0  0
  126.1138   71.5465   -3.7679 O   0  0  0  0  0  0  0  0  0  0  0  0
  130.9166   58.8183   -1.8723 N   0  0  0  0  0  0  0  0  0  0  0  0
  131.7719   59.6538   -1.2492 C   0  0  0  0  0  0  0  0  0  0  0  0
  131.4975   60.9529   -1.0106 N   0  0  0  0  0  0  0  0  0  0  0  0
  130.3173   61.5097   -1.3953 C   0  0  0  0  0  0  0  0  0  0  0  0
  129.3321   60.6564   -2.0826 C   0  0  0  0  0  0  0  0  0  0  0  0
  129.7042   59.2366   -2.3081 C   0  0  0  0  0  0  0  0  0  0  0  0
  128.8547   58.3884   -2.9351 N   0  0  0  0  0  0  0  0  0  0  0  0
  128.2668   61.4307   -2.3503 N   0  0  0  0  0  0  0  0  0  0  0  0
  128.5429   62.6725   -1.8802 C   0  0  0  0  0  0  0  0  0  0  0  0
  129.7634   62.7278   -1.3105 N   0  0  0  0  0  0  0  0  0  0  0  0
  2  1  1  1  0  0  0
  2  3  1  0  0  0  0
  2  5  1  0  0  0  0
  3  4  1  0  0  0  0
  3 16  1  0  0  0  0
  5  6  1  0  0  0  0
  6  7  1  0  0  0  0
  7  8  1  0  0  0  0
  9  8  1  6  0  0  0
  9 10  1  0  0  0  0
  9 11  1  0  0  0  0
 10 15  1  0  0  0  0
 11 12  1  1  0  0  0
 11 13  1  0  0  0  0
 13 14  1  1  0  0  0
 13 15  1  0  0  0  0
 15 26  1  6  0  0  0
 17 18  2  0  0  0  0
 17 22  1  0  0  0  0
 18 19  1  0  0  0  0
 19 20  2  0  0  0  0
 20 21  1  0  0  0  0
 20 26  1  0  0  0  0
 21 22  2  0  0  0  0
 21 24  1  0  0  0  0
 22 23  1  0  0  0  0
 24 25  2  0  0  0  0
 25 26  1  0  0  0  0
M  END
>  <CHROM.1>
136.53515329,-176.86169005,166.15667315,-72.73739599,122.66241517,68.02864999
-176.33905555,129.26973377,65.08134823,-2.34167596,-1.91397907,0.48887336
3.08087039

>  <Name>
ligand

>  <RI>
0

>  <Rbt.Current_Directory>
/home/itssahil/PROJECTS/Mol_Feturizer/Test_systems_manuscript/rnas/3npn

>  <Rbt.Executable>
rbdock ($Id: //depot/dev/client3/rdock/2013.1/src/exe/rbdock.cxx#4 $)

>  <Rbt.Library>
libRbt.so (2013.1, Build901 2013/11/27)

>  <Rbt.Parameter_File>
/export/apps/rDock/src/rDock_2013.1_src/data/scripts/dock_solv.prm

>  <Rbt.Receptor>
prm/pocket_docking_2.prm

>  <SCORE>
-29.8848

>  <SCORE.INTER>
-29.412

>  <SCORE.INTER.CONST>
1

>  <SCORE.INTER.POLAR>
0

>  <SCORE.INTER.ROT>
7

>  <SCORE.INTER.SOLV>
24.387

>  <SCORE.INTER.VDW>
-36.0036

>  <SCORE.INTER.norm>
-1.13123

>  <SCORE.INTRA>
-0.474131

>  <SCORE.INTRA.DIHEDRAL>
1.90438

>  <SCORE.INTRA.DIHEDRAL.0>
4.37896

>  <SCORE.INTRA.POLAR>
0

>  <SCORE.INTRA.POLAR.0>
0

>  <SCORE.INTRA.REPUL>
0

>  <SCORE.INTRA.REPUL.0>
0

>  <SCORE.INTRA.SOLV>
-0.910667

>  <SCORE.INTRA.SOLV.lig_0>
-50.5538

>  <SCORE.INTRA.VDW>
-0.970985

>  <SCORE.INTRA.VDW.0>
-1.30673

>  <SCORE.INTRA.norm>
-0.0182358

>  <SCORE.RESTR>
0.00133137

>  <SCORE.RESTR.CAVITY>
0.00133137

>  <SCORE.RESTR.norm>
5.12064e-05

>  <SCORE.SYSTEM>
0

>  <SCORE.SYSTEM.CONST>
0

>  <SCORE.SYSTEM.DIHEDRAL>
0

>  <SCORE.SYSTEM.SOLV>
0

>  <SCORE.SYSTEM.norm>
0

>  <SCORE.heavy>
26

>  <SCORE.norm>
-1.14941

>  <RMSD>
0.731

$$$$
ligand
 OpenBabel02271912153D
libRbt.so/2013.1/901 2013/11/27
 26 28  0  0  0  0  0  0  0  0999 V2000
  129.0691   71.2314   -3.7613 N   0  0  0  0  0  0  0  0  0  0  0  0
  128.1512   70.1460   -4.2183 C   0  0  2  0  0  0  0  0  0  0  0  0
  126.8043   70.7065   -4.5743 C   0  0  0  0  0  0  0  0  0  0  0  0
  126.1815   71.4191   -3.7882 O   0  0  0  0  0  0  0  0  0  0  0  0
  127.9940   69.0921   -3.1255 C   0  0  0  0  0  0  0  0  0  0  0  0
  127.1129   67.9178   -3.5401 C   0  0  0  0  0  0  0  0  0  0  0  0
  127.3013   66.5901   -2.3960 S   0  0  0  0  0  0  0  0  0  0  0  0
  128.9073   65.9771   -2.7914 C   0  0  0  0  0  0  0  0  0  0  0  0
  129.8285   65.9810   -1.5728 C   0  0  1  0  0  0  0  0  0  0  0  0
  129.4911   64.9171   -0.6802 O   0  0  0  0  0  0  0  0  0  0  0  0
  131.2716   65.7713   -2.0021 C   0  0  1  0  0  0  0  0  0  0  0  0
  132.1092   66.7594   -1.3944 O   0  0  0  0  0  0  0  0  0  0  0  0
  131.6457   64.3733   -1.5425 C   0  0  1  0  0  0  0  0  0  0  0  0
  132.8278   64.3870   -0.7346 O   0  0  0  0  0  0  0  0  0  0  0  0
  130.4636   63.8660   -0.7249 C   0  0  2  0  0  0  0  0  0  0  0  0
  126.2859   70.4564   -5.6615 O   0  0  0  0  0  0  0  0  0  0  0  0
  131.0238   58.7295   -1.8505 N   0  0  0  0  0  0  0  0  0  0  0  0
  131.8754   59.5728   -1.2330 C   0  0  0  0  0  0  0  0  0  0  0  0
  131.5982   60.8740   -1.0094 N   0  0  0  0  0  0  0  0  0  0  0  0
  130.4188   61.4249   -1.4045 C   0  0  0  0  0  0  0  0  0  0  0  0
  129.4374   60.5629   -2.0865 C   0  0  0  0  0  0  0  0  0  0  0  0
  129.8124   59.1413   -2.2954 C   0  0  0  0  0  0  0  0  0  0  0  0
  128.9666   58.2852   -2.9165 N   0  0  0  0  0  0  0  0  0  0  0  0
  128.3721   61.3328   -2.3665 N   0  0  0  0  0  0  0  0  0  0  0  0
  128.6446   62.5799   -1.9085 C   0  0  0  0  0  0  0  0  0  0  0  0
  129.8628   62.6430   -1.3348 N   0  0  0  0  0  0  0  0  0  0  0  0
  2  1  1  1  0  0  0
  2  3  1  0  0  0  0
  2  5  1  0  0  0  0
  3  4  1  0  0  0  0
  3 16  1  0  0  0  0
  5  6  1  0  0  0  0
  6  7  1  0  0  0  0
  7  8  1  0  0  0  0
  9  8  1  6  0  0  0
  9 10  1  0  0  0  0
  9 11  1  0  0  0  0
 10 15  1  0  0  0  0
 11 12  1  1  0  0  0
 11 13  1  0  0  0  0
 13 14  1  1  0  0  0
 13 15  1  0  0  0  0
 15 26  1  6  0  0  0
 17 18  2  0  0  0  0
 17 22  1  0  0  0  0
 18 19  1  0  0  0  0
 19 20  2  0  0  0  0
 20 21  1  0  0  0  0
 20 26  1  0  0  0  0
 21 22  2  0  0  0  0
 21 24  1  0  0  0  0
 22 23  1  0  0  0  0
 24 25  2  0  0  0  0
 25 26  1  0  0  0  0
M  END
>  <CHROM.1>
-52.37726606,-177.64671769,166.31496466,-72.87094045,123.52758911,74.86454901
-171.95374670,129.32309864,65.02086913,-2.35571994,-1.91305306,0.47065647
3.07165640

>  <Name>
ligand

>  <RI>
0

>  <Rbt.Current_Directory>
/home/itssahil/PROJECTS/Mol_Feturizer/Test_systems_manuscript/rnas/3npn

>  <Rbt.Executable>
rbdock ($Id: //depot/dev/client3/rdock/2013.1/src/exe/rbdock.cxx#4 $)

>  <Rbt.Library>
libRbt.so (2013.1, Build901 2013/11/27)

>  <Rbt.Parameter_File>
/export/apps/rDock/src/rDock_2013.1_src/data/scripts/dock_solv.prm

>  <Rbt.Receptor>
prm/pocket_docking_3.prm

>  <SCORE>
-29.9992

>  <SCORE.INTER>
-29.7508

>  <SCORE.INTER.CONST>
1

>  <SCORE.INTER.POLAR>
0

>  <SCORE.INTER.ROT>
7

>  <SCORE.INTER.SOLV>
23.3981

>  <SCORE.INTER.VDW>
-35.8999

>  <SCORE.INTER.norm>
-1.14426

>  <SCORE.INTRA>
-0.248442

>  <SCORE.INTRA.DIHEDRAL>
2.38068

>  <SCORE.INTRA.DIHEDRAL.0>
4.37896

>  <SCORE.INTRA.POLAR>
0

>  <SCORE.INTRA.POLAR.0>
0

>  <SCORE.INTRA.REPUL>
0

>  <SCORE.INTRA.REPUL.0>
0

>  <SCORE.INTRA.SOLV>
-0.949688

>  <SCORE.INTRA.SOLV.lig_0>
-50.5538

>  <SCORE.INTRA.VDW>
-0.963939

>  <SCORE.INTRA.VDW.0>
-1.30673

>  <SCORE.INTRA.norm>
-0.00955548

>  <SCORE.RESTR>
0

>  <SCORE.RESTR.CAVITY>
0

>  <SCORE.RESTR.norm>
0

>  <SCORE.SYSTEM>
0

>  <SCORE.SYSTEM.CONST>
0

>  <SCORE.SYSTEM.DIHEDRAL>
0

>  <SCORE.SYSTEM.SOLV>
0

>  <SCORE.SYSTEM.norm>
0

>  <SCORE.heavy>
26

>  <SCORE.norm>
-1.15382

>  <RMSD>
0.750

$$$$
ligand
 OpenBabel02271912153D
libRbt.so/2013.1/901 2013/11/27
 26 28  0  0  0  0  0  0  0  0999 V2000
  128.8017   70.9709   -3.1207 N   0  0  0  0  0  0  0  0  0  0  0  0
  128.1747   70.2472   -4.2663 C   0  0  2  0  0  0  0  0  0  0  0  0
  126.8005   70.7852   -4.5443 C   0  0  0  0  0  0  0  0  0  0  0  0
  126.2415   71.5462   -3.7557 O   0  0  0  0  0  0  0  0  0  0  0  0
  128.0876   68.7537   -3.9636 C   0  0  0  0  0  0  0  0  0  0  0  0
  127.3687   68.4429   -2.6543 C   0  0  0  0  0  0  0  0  0  0  0  0
  127.0236   66.7174   -2.5517 S   0  0  0  0  0  0  0  0  0  0  0  0
  128.5976   65.9975   -2.8919 C   0  0  0  0  0  0  0  0  0  0  0  0
  129.5270   66.0757   -1.6820 C   0  0  1  0  0  0  0  0  0  0  0  0
  129.2532   65.0149   -0.7643 O   0  0  0  0  0  0  0  0  0  0  0  0
  130.9757   65.9328   -2.1200 C   0  0  1  0  0  0  0  0  0  0  0  0
  131.7650   66.9761   -1.5408 O   0  0  0  0  0  0  0  0  0  0  0  0
  131.4264   64.5664   -1.6347 C   0  0  1  0  0  0  0  0  0  0  0  0
  132.6126   64.6593   -0.8380 O   0  0  0  0  0  0  0  0  0  0  0  0
  130.2792   64.0155   -0.7958 C   0  0  2  0  0  0  0  0  0  0  0  0
  126.1955   70.4677   -5.5672 O   0  0  0  0  0  0  0  0  0  0  0  0
  131.0042   58.8426   -1.6205 N   0  0  0  0  0  0  0  0  0  0  0  0
  131.8021   59.7351   -1.0005 C   0  0  0  0  0  0  0  0  0  0  0  0
  131.4870   61.0393   -0.8605 N   0  0  0  0  0  0  0  0  0  0  0  0
  130.3216   61.5427   -1.3495 C   0  0  0  0  0  0  0  0  0  0  0  0
  129.3982   60.6254   -2.0402 C   0  0  0  0  0  0  0  0  0  0  0  0
  129.8125   59.2039   -2.1537 C   0  0  0  0  0  0  0  0  0  0  0  0
  129.0208   58.2986   -2.7764 N   0  0  0  0  0  0  0  0  0  0  0  0
  128.3358   61.3558   -2.4193 N   0  0  0  0  0  0  0  0  0  0  0  0
  128.5570   62.6303   -2.0119 C   0  0  0  0  0  0  0  0  0  0  0  0
  129.7387   62.7499   -1.3745 N   0  0  0  0  0  0  0  0  0  0  0  0
  2  1  1  1  0  0  0
  2  3  1  0  0  0  0
  2  5  1  0  0  0  0
  3  4  1  0  0  0  0
  3 16  1  0  0  0  0
  5  6  1  0  0  0  0
  6  7  1  0  0  0  0
  7  8  1  0  0  0  0
  9  8  1  6  0  0  0
  9 10  1  0  0  0  0
  9 11  1  0  0  0  0
 10 15  1  0  0  0  0
 11 12  1  1  0  0  0
 11 13  1  0  0  0  0
 13 14  1  1  0  0  0
 13 15  1  0  0  0  0
 15 26  1  6  0  0  0
 17 18  2  0  0  0  0
 17 22  1  0  0  0  0
 18 19  1  0  0  0  0
 19 20  2  0  0  0  0
 20 21  1  0  0  0  0
 20 26  1  0  0  0  0
 21 22  2  0  0  0  0
 21 24  1  0  0  0  0
 22 23  1  0  0  0  0
 24 25  2  0  0  0  0
 25 26  1  0  0  0  0
M  END
>  <CHROM.1>
-11.55502378,54.59463519,168.37466617,51.16096832,77.14352179,81.89298750
-167.44827833,129.20322521,65.11778779,-2.34233541,-1.90875674,0.46912110
3.06998469

>  <Name>
ligand

>  <RI>
0

>  <Rbt.Current_Directory>
/home/itssahil/PROJECTS/Mol_Feturizer/Test_systems_manuscript/rnas/3npn

>  <Rbt.Executable>
rbdock ($Id: //depot/dev/client3/rdock/2013.1/src/exe/rbdock.cxx#4 $)

>  <Rbt.Library>
libRbt.so (2013.1, Build901 2013/11/27)

>  <Rbt.Parameter_File>
/export/apps/rDock/src/rDock_2013.1_src/data/scripts/dock_solv.prm

>  <Rbt.Receptor>
prm/pocket_docking_2.prm

>  <SCORE>
-29.052

>  <SCORE.INTER>
-29.4037

>  <SCORE.INTER.CONST>
1

>  <SCORE.INTER.POLAR>
0

>  <SCORE.INTER.ROT>
7

>  <SCORE.INTER.SOLV>
22.9188

>  <SCORE.INTER.VDW>
-35.5087

>  <SCORE.INTER.norm>
-1.13091

>  <SCORE.INTRA>
0.340385

>  <SCORE.INTRA.DIHEDRAL>
1.02824

>  <SCORE.INTRA.DIHEDRAL.0>
4.37896

>  <SCORE.INTRA.POLAR>
0

>  <SCORE.INTRA.POLAR.0>
0

>  <SCORE.INTRA.REPUL>
0

>  <SCORE.INTRA.REPUL.0>
0

>  <SCORE.INTRA.SOLV>
-0.178306

>  <SCORE.INTRA.SOLV.lig_0>
-50.5538

>  <SCORE.INTRA.VDW>
-0.0845819

>  <SCORE.INTRA.VDW.0>
-1.30673

>  <SCORE.INTRA.norm>
0.0130917

>  <SCORE.RESTR>
0.0113436

>  <SCORE.RESTR.CAVITY>
0.0113436

>  <SCORE.RESTR.norm>
0.000436293

>  <SCORE.SYSTEM>
0

>  <SCORE.SYSTEM.CONST>
0

>  <SCORE.SYSTEM.DIHEDRAL>
0

>  <SCORE.SYSTEM.SOLV>
0

>  <SCORE.SYSTEM.norm>
0

>  <SCORE.heavy>
26

>  <SCORE.norm>
-1.11738

>  <RMSD>
0.780

$$$$
ligand
 OpenBabel02271912153D
libRbt.so/2013.1/901 2013/11/27
 26 28  0  0  0  0  0  0  0  0999 V2000
  128.7009   71.0413   -3.1195 N   0  0  0  0  0  0  0  0  0  0  0  0
  128.1218   70.2845   -4.2689 C   0  0  2  0  0  0  0  0  0  0  0  0
  126.7253   70.7531   -4.5616 C   0  0  0  0  0  0  0  0  0  0  0  0
  126.0961   71.4305   -3.7499 O   0  0  0  0  0  0  0  0  0  0  0  0
  128.1058   68.7893   -3.9627 C   0  0  0  0  0  0  0  0  0  0  0  0
  127.4133   68.4488   -2.6467 C   0  0  0  0  0  0  0  0  0  0  0  0
  127.0520   66.7246   -2.5848 S   0  0  0  0  0  0  0  0  0  0  0  0
  128.6325   65.9979   -2.8768 C   0  0  0  0  0  0  0  0  0  0  0  0
  129.5215   66.0634   -1.6362 C   0  0  1  0  0  0  0  0  0  0  0  0
  129.2070   65.0023   -0.7319 O   0  0  0  0  0  0  0  0  0  0  0  0
  130.9826   65.9080   -2.0258 C   0  0  1  0  0  0  0  0  0  0  0  0
  131.7618   66.9419   -1.4168 O   0  0  0  0  0  0  0  0  0  0  0  0
  131.4038   64.5358   -1.5304 C   0  0  1  0  0  0  0  0  0  0  0  0
  132.5634   64.6149   -0.6940 O   0  0  0  0  0  0  0  0  0  0  0  0
  130.2240   63.9932   -0.7324 C   0  0  2  0  0  0  0  0  0  0  0  0
  126.1723   70.4603   -5.6207 O   0  0  0  0  0  0  0  0  0  0  0  0
  131.0045   58.8521   -1.6936 N   0  0  0  0  0  0  0  0  0  0  0  0
  131.8001   59.7402   -1.0644 C   0  0  0  0  0  0  0  0  0  0  0  0
  131.4700   61.0363   -0.8880 N   0  0  0  0  0  0  0  0  0  0  0  0
  130.2905   61.5354   -1.3466 C   0  0  0  0  0  0  0  0  0  0  0  0
  129.3686   60.6224   -2.0452 C   0  0  0  0  0  0  0  0  0  0  0  0
  129.7999   59.2099   -2.1995 C   0  0  0  0  0  0  0  0  0  0  0  0
  129.0106   58.3091   -2.8318 N   0  0  0  0  0  0  0  0  0  0  0  0
  128.2908   61.3472   -2.3901 N   0  0  0  0  0  0  0  0  0  0  0  0
  128.5014   62.6145   -1.9553 C   0  0  0  0  0  0  0  0  0  0  0  0
  129.6912   62.7347   -1.3333 N   0  0  0  0  0  0  0  0  0  0  0  0
  2  1  1  1  0  0  0
  2  3  1  0  0  0  0
  2  5  1  0  0  0  0
  3  4  1  0  0  0  0
  3 16  1  0  0  0  0
  5  6  1  0  0  0  0
  6  7  1  0  0  0  0
  7  8  1  0  0  0  0
  9  8  1  6  0  0  0
  9 10  1  0  0  0  0
  9 11  1  0  0  0  0
 10 15  1  0  0  0  0
 11 12  1  1  0  0  0
 11 13  1  0  0  0  0
 13 14  1  1  0  0  0
 13 15  1  0  0  0  0
 15 26  1  6  0  0  0
 17 18  2  0  0  0  0
 17 22  1  0  0  0  0
 18 19  1  0  0  0  0
 19 20  2  0  0  0  0
 20 21  1  0  0  0  0
 20 26  1  0  0  0  0
 21 22  2  0  0  0  0
 21 24  1  0  0  0  0
 22 23  1  0  0  0  0
 24 25  2  0  0  0  0
 25 26  1  0  0  0  0
M  END
>  <CHROM.1>
-15.33759565,53.52425793,164.62635773,54.69767745,76.52417696,81.61524752
-170.77562825,129.17860620,65.10986606,-2.32838582,-1.91842082,0.49672822
3.08269746

>  <Name>
ligand

>  <RI>
0

>  <Rbt.Current_Directory>
/home/itssahil/PROJECTS/Mol_Feturizer/Test_systems_manuscript/rnas/3npn

>  <Rbt.Executable>
rbdock ($Id: //depot/dev/client3/rdock/2013.1/src/exe/rbdock.cxx#4 $)

>  <Rbt.Library>
libRbt.so (2013.1, Build901 2013/11/27)

>  <Rbt.Parameter_File>
/export/apps/rDock/src/rDock_2013.1_src/data/scripts/dock_solv.prm

>  <Rbt.Receptor>
prm/pocket_docking_3.prm

>  <SCORE>
-29.1034

>  <SCORE.INTER>
-29.3344

>  <SCORE.INTER.CONST>
1

>  <SCORE.INTER.POLAR>
0

>  <SCORE.INTER.ROT>
7

>  <SCORE.INTER.SOLV>
23.4243

>  <SCORE.INTER.VDW>
-35.631

>  <SCORE.INTER.norm>
-1.12825

>  <SCORE.INTRA>
0.230928

>  <SCORE.INTRA.DIHEDRAL>
1.28007

>  <SCORE.INTRA.DIHEDRAL.0>
4.37896

>  <SCORE.INTRA.POLAR>
0

>  <SCORE.INTRA.POLAR.0>
0

>  <SCORE.INTRA.REPUL>
0

>  <SCORE.INTRA.REPUL.0>
0

>  <SCORE.INTRA.SOLV>
-0.163722

>  <SCORE.INTRA.SOLV.lig_0>
-50.5538

>  <SCORE.INTRA.VDW>
-0.327248

>  <SCORE.INTRA.VDW.0>
-1.30673

>  <SCORE.INTRA.norm>
0.00888185

>  <SCORE.RESTR>
0

>  <SCORE.RESTR.CAVITY>
0

>  <SCORE.RESTR.norm>
0

>  <SCORE.SYSTEM>
0

>  <SCORE.SYSTEM.CONST>
0

>  <SCORE.SYSTEM.DIHEDRAL>
0

>  <SCORE.SYSTEM.SOLV>
0

>  <SCORE.SYSTEM.norm>
0

>  <SCORE.heavy>
26

>  <SCORE.norm>
-1.11936

>  <RMSD>
0.780

$$$$
ligand
 OpenBabel02271912153D
libRbt.so/2013.1/901 2013/11/27
 26 28  0  0  0  0  0  0  0  0999 V2000
  128.8263   70.2529   -3.3848 N   0  0  0  0  0  0  0  0  0  0  0  0
  127.5757   69.5746   -3.8379 C   0  0  2  0  0  0  0  0  0  0  0  0
  126.6465   70.5579   -4.4898 C   0  0  0  0  0  0  0  0  0  0  0  0
  126.2512   70.3944   -5.6433 O   0  0  0  0  0  0  0  0  0  0  0  0
  126.8737   68.9151   -2.6538 C   0  0  0  0  0  0  0  0  0  0  0  0
  127.7066   67.8240   -1.9882 C   0  0  0  0  0  0  0  0  0  0  0  0
  127.7905   66.4079   -3.0345 S   0  0  0  0  0  0  0  0  0  0  0  0
  129.5057   66.0000   -2.9795 C   0  0  0  0  0  0  0  0  0  0  0  0
  130.0367   65.9862   -1.5472 C   0  0  1  0  0  0  0  0  0  0  0  0
  129.3456   65.0132   -0.7608 O   0  0  0  0  0  0  0  0  0  0  0  0
  131.5105   65.6142   -1.5348 C   0  0  1  0  0  0  0  0  0  0  0  0
  132.2428   66.5509   -0.7388 O   0  0  0  0  0  0  0  0  0  0  0  0
  131.5840   64.2158   -0.9477 C   0  0  1  0  0  0  0  0  0  0  0  0
  132.4815   64.1628    0.1668 O   0  0  0  0  0  0  0  0  0  0  0  0
  130.1703   63.8727   -0.4929 C   0  0  2  0  0  0  0  0  0  0  0  0
  126.2653   71.5594   -3.8857 O   0  0  0  0  0  0  0  0  0  0  0  0
  130.9327   58.8376   -1.9177 N   0  0  0  0  0  0  0  0  0  0  0  0
  131.7245   59.6572   -1.1972 C   0  0  0  0  0  0  0  0  0  0  0  0
  131.3998   60.9337   -0.9055 N   0  0  0  0  0  0  0  0  0  0  0  0
  130.2305   61.4823   -1.3324 C   0  0  0  0  0  0  0  0  0  0  0  0
  129.3134   60.6454   -2.1261 C   0  0  0  0  0  0  0  0  0  0  0  0
  129.7381   59.2501   -2.4052 C   0  0  0  0  0  0  0  0  0  0  0  0
  128.9526   58.4182   -3.1299 N   0  0  0  0  0  0  0  0  0  0  0  0
  128.2454   61.4074   -2.4173 N   0  0  0  0  0  0  0  0  0  0  0  0
  128.4575   62.6270   -1.8633 C   0  0  0  0  0  0  0  0  0  0  0  0
  129.6387   62.6798   -1.2160 N   0  0  0  0  0  0  0  0  0  0  0  0
  2  1  1  1  0  0  0
  2  3  1  0  0  0  0
  2  5  1  0  0  0  0
  3  4  1  0  0  0  0
  3 16  1  0  0  0  0
  5  6  1  0  0  0  0
  6  7  1  0  0  0  0
  7  8  1  0  0  0  0
  9  8  1  6  0  0  0
  9 10  1  0  0  0  0
  9 11  1  0  0  0  0
 10 15  1  0  0  0  0
 11 12  1  1  0  0  0
 11 13  1  0  0  0  0
 13 14  1  1  0  0  0
 13 15  1  0  0  0  0
 15 26  1  6  0  0  0
 17 18  2  0  0  0  0
 17 22  1  0  0  0  0
 18 19  1  0  0  0  0
 19 20  2  0  0  0  0
 20 21  1  0  0  0  0
 20 26  1  0  0  0  0
 21 22  2  0  0  0  0
 21 24  1  0  0  0  0
 22 23  1  0  0  0  0
 24 25  2  0  0  0  0
 25 26  1  0  0  0  0
M  END
>  <CHROM.1>
122.60175192,-62.17779304,-71.71866919,133.92411265,47.64771512,60.62622922
171.51098725,129.27591283,64.94097049,-2.21031493,-1.96843206,0.61321443
-3.13347204

>  <Name>
ligand

>  <RI>
0

>  <Rbt.Current_Directory>
/home/itssahil/PROJECTS/Mol_Feturizer/Test_systems_manuscript/rnas/3npn

>  <Rbt.Executable>
rbdock ($Id: //depot/dev/client3/rdock/2013.1/src/exe/rbdock.cxx#4 $)

>  <Rbt.Library>
libRbt.so (2013.1, Build901 2013/11/27)

>  <Rbt.Parameter_File>
/export/apps/rDock/src/rDock_2013.1_src/data/scripts/dock_solv.prm

>  <Rbt.Receptor>
prm/pocket_docking_2.prm

>  <SCORE>
-29.7097

>  <SCORE.INTER>
-29.7648

>  <SCORE.INTER.CONST>
1

>  <SCORE.INTER.POLAR>
0

>  <SCORE.INTER.ROT>
7

>  <SCORE.INTER.SOLV>
21.7356

>  <SCORE.INTER.VDW>
-35.3551

>  <SCORE.INTER.norm>
-1.1448

>  <SCORE.INTRA>
0.0551388

>  <SCORE.INTRA.DIHEDRAL>
1.1367

>  <SCORE.INTRA.DIHEDRAL.0>
4.37896

>  <SCORE.INTRA.POLAR>
0

>  <SCORE.INTRA.POLAR.0>
0

>  <SCORE.INTRA.REPUL>
0

>  <SCORE.INTRA.REPUL.0>
0

>  <SCORE.INTRA.SOLV>
0.692866

>  <SCORE.INTRA.SOLV.lig_0>
-50.5538

>  <SCORE.INTRA.VDW>
-0.859643

>  <SCORE.INTRA.VDW.0>
-1.30673

>  <SCORE.INTRA.norm>
0.00212072

>  <SCORE.RESTR>
0

>  <SCORE.RESTR.CAVITY>
0

>  <SCORE.RESTR.norm>
0

>  <SCORE.SYSTEM>
0

>  <SCORE.SYSTEM.CONST>
0

>  <SCORE.SYSTEM.DIHEDRAL>
0

>  <SCORE.SYSTEM.SOLV>
0

>  <SCORE.SYSTEM.norm>
0

>  <SCORE.heavy>
26

>  <SCORE.norm>
-1.14268

>  <RMSD>
0.838

$$$$
ligand
 OpenBabel02271912153D
libRbt.so/2013.1/901 2013/11/27
 26 28  0  0  0  0  0  0  0  0999 V2000
  128.8530   70.5624   -3.0819 N   0  0  0  0  0  0  0  0  0  0  0  0
  127.5884   70.2336   -3.8043 C   0  0  2  0  0  0  0  0  0  0  0  0
  126.4251   70.9607   -3.1933 C   0  0  0  0  0  0  0  0  0  0  0  0
  125.9568   70.6181   -2.1085 O   0  0  0  0  0  0  0  0  0  0  0  0
  127.3312   68.7297   -3.7614 C   0  0  0  0  0  0  0  0  0  0  0  0
  127.3152   68.1590   -2.3466 C   0  0  0  0  0  0  0  0  0  0  0  0
  127.3012   66.3974   -2.4081 S   0  0  0  0  0  0  0  0  0  0  0  0
  128.9775   66.0211   -2.8074 C   0  0  0  0  0  0  0  0  0  0  0  0
  129.8695   66.0338   -1.5673 C   0  0  1  0  0  0  0  0  0  0  0  0
  129.4989   64.9877   -0.6668 O   0  0  0  0  0  0  0  0  0  0  0  0
  131.3199   65.8015   -1.9586 C   0  0  1  0  0  0  0  0  0  0  0  0
  132.1540   66.7896   -1.3463 O   0  0  0  0  0  0  0  0  0  0  0  0
  131.6670   64.4067   -1.4688 C   0  0  1  0  0  0  0  0  0  0  0  0
  132.8296   64.4201   -0.6331 O   0  0  0  0  0  0  0  0  0  0  0  0
  130.4600   63.9254   -0.6720 C   0  0  2  0  0  0  0  0  0  0  0  0
  125.9049   71.9139   -3.7713 O   0  0  0  0  0  0  0  0  0  0  0  0
  131.0296   58.7887   -1.7917 N   0  0  0  0  0  0  0  0  0  0  0  0
  131.8816   59.6354   -1.1794 C   0  0  0  0  0  0  0  0  0  0  0  0
  131.6018   60.9361   -0.9567 N   0  0  0  0  0  0  0  0  0  0  0  0
  130.4190   61.4831   -1.3474 C   0  0  0  0  0  0  0  0  0  0  0  0
  129.4371   60.6172   -2.0236 C   0  0  0  0  0  0  0  0  0  0  0  0
  129.8151   59.1964   -2.2319 C   0  0  0  0  0  0  0  0  0  0  0  0
  128.9690   58.3369   -2.8479 N   0  0  0  0  0  0  0  0  0  0  0  0
  128.3683   61.3837   -2.3002 N   0  0  0  0  0  0  0  0  0  0  0  0
  128.6394   62.6323   -1.8454 C   0  0  0  0  0  0  0  0  0  0  0  0
  129.8600   62.6997   -1.2773 N   0  0  0  0  0  0  0  0  0  0  0  0
  2  1  1  1  0  0  0
  2  3  1  0  0  0  0
  2  5  1  0  0  0  0
  3  4  1  0  0  0  0
  3 16  1  0  0  0  0
  5  6  1  0  0  0  0
  6  7  1  0  0  0  0
  7  8  1  0  0  0  0
  9  8  1  6  0  0  0
  9 10  1  0  0  0  0
  9 11  1  0  0  0  0
 10 15  1  0  0  0  0
 11 12  1  1  0  0  0
 11 13  1  0  0  0  0
 13 14  1  1  0  0  0
 13 15  1  0  0  0  0
 15 26  1  6  0  0  0
 17 18  2  0  0  0  0
 17 22  1  0  0  0  0
 18 19  1  0  0  0  0
 19 20  2  0  0  0  0
 20 21  1  0  0  0  0
 20 26  1  0  0  0  0
 21 22  2  0  0  0  0
 21 24  1  0  0  0  0
 22 23  1  0  0  0  0
 24 25  2  0  0  0  0
 25 26  1  0  0  0  0
M  END
>  <CHROM.1>
-73.59640843,54.94703178,-169.95253525,76.58420664,82.39459657,65.26630602
-173.93125819,129.24931276,65.04703363,-2.06643511,-1.93088451,0.35160038
3.12707750

>  <Name>
ligand

>  <RI>
0

>  <Rbt.Current_Directory>
/home/itssahil/PROJECTS/Mol_Feturizer/Test_systems_manuscript/rnas/3npn

>  <Rbt.Executable>
rbdock ($Id: //depot/dev/client3/rdock/2013.1/src/exe/rbdock.cxx#4 $)

>  <Rbt.Library>
libRbt.so (2013.1, Build901 2013/11/27)

>  <Rbt.Parameter_File>
/export/apps/rDock/src/rDock_2013.1_src/data/scripts/dock_solv.prm

>  <Rbt.Receptor>
prm/pocket_docking_2.prm

>  <SCORE>
-30.1747

>  <SCORE.INTER>
-29.995

>  <SCORE.INTER.CONST>
1

>  <SCORE.INTER.POLAR>
0

>  <SCORE.INTER.ROT>
7

>  <SCORE.INTER.SOLV>
22.1757

>  <SCORE.INTER.VDW>
-35.6552

>  <SCORE.INTER.norm>
-1.15365

>  <SCORE.INTRA>
-0.196238

>  <SCORE.INTRA.DIHEDRAL>
0.0367602

>  <SCORE.INTRA.DIHEDRAL.0>
4.37896

>  <SCORE.INTRA.POLAR>
0

>  <SCORE.INTRA.POLAR.0>
0

>  <SCORE.INTRA.REPUL>
0

>  <SCORE.INTRA.REPUL.0>
0

>  <SCORE.INTRA.SOLV>
0.0260458

>  <SCORE.INTRA.SOLV.lig_0>
-50.5538

>  <SCORE.INTRA.VDW>
-0.227641

>  <SCORE.INTRA.VDW.0>
-1.30673

>  <SCORE.INTRA.norm>
-0.00754761

>  <SCORE.RESTR>
0.0165536

>  <SCORE.RESTR.CAVITY>
0.0165536

>  <SCORE.RESTR.norm>
0.000636679

>  <SCORE.SYSTEM>
0

>  <SCORE.SYSTEM.CONST>
0

>  <SCORE.SYSTEM.DIHEDRAL>
0

>  <SCORE.SYSTEM.SOLV>
0

>  <SCORE.SYSTEM.norm>
0

>  <SCORE.heavy>
26

>  <SCORE.norm>
-1.16057

>  <RMSD>
0.862

$$$$
ligand
 OpenBabel02271912153D
libRbt.so/2013.1/901 2013/11/27
 26 28  0  0  0  0  0  0  0  0999 V2000
  128.2485   70.5888   -2.3773 N   0  0  0  0  0  0  0  0  0  0  0  0
  127.4620   69.8708   -3.4238 C   0  0  2  0  0  0  0  0  0  0  0  0
  126.6479   70.8397   -4.2323 C   0  0  0  0  0  0  0  0  0  0  0  0
  126.3811   70.6196   -5.4129 O   0  0  0  0  0  0  0  0  0  0  0  0
  126.5386   68.8417   -2.7773 C   0  0  0  0  0  0  0  0  0  0  0  0
  127.2019   67.4848   -2.5620 C   0  0  0  0  0  0  0  0  0  0  0  0
  127.8859   66.9015   -4.0783 S   0  0  0  0  0  0  0  0  0  0  0  0
  128.9174   65.5755   -3.5409 C   0  0  0  0  0  0  0  0  0  0  0  0
  129.5047   65.8431   -2.1563 C   0  0  1  0  0  0  0  0  0  0  0  0
  128.9956   64.9093   -1.2016 O   0  0  0  0  0  0  0  0  0  0  0  0
  131.0161   65.6827   -2.1847 C   0  0  1  0  0  0  0  0  0  0  0  0
  131.6379   66.8168   -1.5728 O   0  0  0  0  0  0  0  0  0  0  0  0
  131.3160   64.4080   -1.4161 C   0  0  1  0  0  0  0  0  0  0  0  0
  132.2578   64.6414   -0.3631 O   0  0  0  0  0  0  0  0  0  0  0  0
  129.9872   63.9440   -0.8310 C   0  0  2  0  0  0  0  0  0  0  0  0
  126.2357   71.8855   -3.7327 O   0  0  0  0  0  0  0  0  0  0  0  0
  131.3809   58.8902   -1.5247 N   0  0  0  0  0  0  0  0  0  0  0  0
  132.0715   59.9041   -0.9653 C   0  0  0  0  0  0  0  0  0  0  0  0
  131.5866   61.1580   -0.8529 N   0  0  0  0  0  0  0  0  0  0  0  0
  130.3466   61.4813   -1.3095 C   0  0  0  0  0  0  0  0  0  0  0  0
  129.5327   60.4233   -1.9336 C   0  0  0  0  0  0  0  0  0  0  0  0
  130.1327   59.0677   -2.0200 C   0  0  0  0  0  0  0  0  0  0  0  0
  129.4500   58.0419   -2.5819 N   0  0  0  0  0  0  0  0  0  0  0  0
  128.3676   60.9894   -2.2916 N   0  0  0  0  0  0  0  0  0  0  0  0
  128.4274   62.2959   -1.9330 C   0  0  0  0  0  0  0  0  0  0  0  0
  129.6039   62.5970   -1.3480 N   0  0  0  0  0  0  0  0  0  0  0  0
  2  1  1  1  0  0  0
  2  3  1  0  0  0  0
  2  5  1  0  0  0  0
  3  4  1  0  0  0  0
  3 16  1  0  0  0  0
  5  6  1  0  0  0  0
  6  7  1  0  0  0  0
  7  8  1  0  0  0  0
  9  8  1  6  0  0  0
  9 10  1  0  0  0  0
  9 11  1  0  0  0  0
 10 15  1  0  0  0  0
 11 12  1  1  0  0  0
 11 13  1  0  0  0  0
 13 14  1  1  0  0  0
 13 15  1  0  0  0  0
 15 26  1  6  0  0  0
 17 18  2  0  0  0  0
 17 22  1  0  0  0  0
 18 19  1  0  0  0  0
 19 20  2  0  0  0  0
 20 21  1  0  0  0  0
 20 26  1  0  0  0  0
 21 22  2  0  0  0  0
 21 24  1  0  0  0  0
 22 23  1  0  0  0  0
 24 25  2  0  0  0  0
 25 26  1  0  0  0  0
M  END
>  <CHROM.1>
149.59610754,-87.50910557,-53.65248358,166.54142319,-32.31077831,114.15921393
173.02383894,129.18702566,65.00297524,-2.35729104,-1.96412405,0.55367081
3.13420516

>  <Name>
ligand

>  <RI>
0

>  <Rbt.Current_Directory>
/home/itssahil/PROJECTS/Mol_Feturizer/Test_systems_manuscript/rnas/3npn

>  <Rbt.Executable>
rbdock ($Id: //depot/dev/client3/rdock/2013.1/src/exe/rbdock.cxx#4 $)

>  <Rbt.Library>
libRbt.so (2013.1, Build901 2013/11/27)

>  <Rbt.Parameter_File>
/export/apps/rDock/src/rDock_2013.1_src/data/scripts/dock_solv.prm

>  <Rbt.Receptor>
prm/pocket_docking_2.prm

>  <SCORE>
-26.705

>  <SCORE.INTER>
-30.7981

>  <SCORE.INTER.CONST>
1

>  <SCORE.INTER.POLAR>
0

>  <SCORE.INTER.ROT>
7

>  <SCORE.INTER.SOLV>
22.1637

>  <SCORE.INTER.VDW>
-36.1866

>  <SCORE.INTER.norm>
-1.18454

>  <SCORE.INTRA>
3.90654

>  <SCORE.INTRA.DIHEDRAL>
7.50163

>  <SCORE.INTRA.DIHEDRAL.0>
4.37896

>  <SCORE.INTRA.POLAR>
0

>  <SCORE.INTRA.POLAR.0>
0

>  <SCORE.INTRA.REPUL>
0

>  <SCORE.INTRA.REPUL.0>
0

>  <SCORE.INTRA.SOLV>
0.108201

>  <SCORE.INTRA.SOLV.lig_0>
-50.5538

>  <SCORE.INTRA.VDW>
0.10162

>  <SCORE.INTRA.VDW.0>
-1.30673

>  <SCORE.INTRA.norm>
0.150251

>  <SCORE.RESTR>
0.186547

>  <SCORE.RESTR.CAVITY>
0.186547

>  <SCORE.RESTR.norm>
0.0071749

>  <SCORE.SYSTEM>
0

>  <SCORE.SYSTEM.CONST>
0

>  <SCORE.SYSTEM.DIHEDRAL>
0

>  <SCORE.SYSTEM.SOLV>
0

>  <SCORE.SYSTEM.norm>
0

>  <SCORE.heavy>
26

>  <SCORE.norm>
-1.02712

>  <RMSD>
1.011

$$$$
ligand
 OpenBabel02271912153D
libRbt.so/2013.1/901 2013/11/27
 26 28  0  0  0  0  0  0  0  0999 V2000
  128.6312   71.0431   -3.8698 N   0  0  0  0  0  0  0  0  0  0  0  0
  127.5250   70.0403   -3.8573 C   0  0  2  0  0  0  0  0  0  0  0  0
  126.3063   70.6045   -3.1853 C   0  0  0  0  0  0  0  0  0  0  0  0
  125.7582   70.0128   -2.2563 O   0  0  0  0  0  0  0  0  0  0  0  0
  127.9689   68.7731   -3.1313 C   0  0  0  0  0  0  0  0  0  0  0  0
  127.0944   67.5617   -3.4397 C   0  0  0  0  0  0  0  0  0  0  0  0
  127.4379   66.2645   -2.2967 S   0  0  0  0  0  0  0  0  0  0  0  0
  129.0919   65.8194   -2.7179 C   0  0  0  0  0  0  0  0  0  0  0  0
  129.9854   65.7341   -1.4818 C   0  0  1  0  0  0  0  0  0  0  0  0
  129.5804   64.6538   -0.6384 O   0  0  0  0  0  0  0  0  0  0  0  0
  131.4265   65.4740   -1.8899 C   0  0  1  0  0  0  0  0  0  0  0  0
  132.2949   66.3983   -1.2275 O   0  0  0  0  0  0  0  0  0  0  0  0
  131.7262   64.0436   -1.4778 C   0  0  1  0  0  0  0  0  0  0  0  0
  132.8897   63.9717   -0.6463 O   0  0  0  0  0  0  0  0  0  0  0  0
  130.5046   63.5611   -0.7044 C   0  0  2  0  0  0  0  0  0  0  0  0
  125.8200   71.6716   -3.5569 O   0  0  0  0  0  0  0  0  0  0  0  0
  130.8358   58.4405   -1.9828 N   0  0  0  0  0  0  0  0  0  0  0  0
  131.7089   59.2178   -1.3109 C   0  0  0  0  0  0  0  0  0  0  0  0
  131.4920   60.5240   -1.0528 N   0  0  0  0  0  0  0  0  0  0  0  0
  130.3563   61.1485   -1.4663 C   0  0  0  0  0  0  0  0  0  0  0  0
  129.3550   60.3615   -2.2073 C   0  0  0  0  0  0  0  0  0  0  0  0
  129.6628   58.9295   -2.4516 C   0  0  0  0  0  0  0  0  0  0  0  0
  128.7950   58.1393   -3.1274 N   0  0  0  0  0  0  0  0  0  0  0  0
  128.3407   61.1950   -2.4948 N   0  0  0  0  0  0  0  0  0  0  0  0
  128.6619   62.4108   -1.9871 C   0  0  0  0  0  0  0  0  0  0  0  0
  129.8620   62.3914   -1.3735 N   0  0  0  0  0  0  0  0  0  0  0  0
  2  1  1  1  0  0  0
  2  3  1  0  0  0  0
  2  5  1  0  0  0  0
  3  4  1  0  0  0  0
  3 16  1  0  0  0  0
  5  6  1  0  0  0  0
  6  7  1  0  0  0  0
  7  8  1  0  0  0  0
  9  8  1  6  0  0  0
  9 10  1  0  0  0  0
  9 11  1  0  0  0  0
 10 15  1  0  0  0  0
 11 12  1  1  0  0  0
 11 13  1  0  0  0  0
 13 14  1  1  0  0  0
 13 15  1  0  0  0  0
 15 26  1  6  0  0  0
 17 18  2  0  0  0  0
 17 22  1  0  0  0  0
 18 19  1  0  0  0  0
 19 20  2  0  0  0  0
 20 21  1  0  0  0  0
 20 26  1  0  0  0  0
 21 22  2  0  0  0  0
 21 24  1  0  0  0  0
 22 23  1  0  0  0  0
 24 25  2  0  0  0  0
 25 26  1  0  0  0  0
M  END
>  <CHROM.1>
-126.55302237,-161.98635101,-166.96527698,-66.79233683,131.44168723,66.49223512
-171.13807371,129.24474118,64.77195667,-2.14687105,-1.92432842,0.36568213
3.13302048

>  <Name>
ligand

>  <RI>
0

>  <Rbt.Current_Directory>
/home/itssahil/PROJECTS/Mol_Feturizer/Test_systems_manuscript/rnas/3npn

>  <Rbt.Executable>
rbdock ($Id: //depot/dev/client3/rdock/2013.1/src/exe/rbdock.cxx#4 $)

>  <Rbt.Library>
libRbt.so (2013.1, Build901 2013/11/27)

>  <Rbt.Parameter_File>
/export/apps/rDock/src/rDock_2013.1_src/data/scripts/dock_solv.prm

>  <Rbt.Receptor>
prm/pocket_docking_5.prm

>  <SCORE>
-28.7941

>  <SCORE.INTER>
-29.6932

>  <SCORE.INTER.CONST>
1

>  <SCORE.INTER.POLAR>
0

>  <SCORE.INTER.ROT>
7

>  <SCORE.INTER.SOLV>
24.2532

>  <SCORE.INTER.VDW>
-36.1465

>  <SCORE.INTER.norm>
-1.14205

>  <SCORE.INTRA>
0.899131

>  <SCORE.INTRA.DIHEDRAL>
2.50856

>  <SCORE.INTRA.DIHEDRAL.0>
4.37896

>  <SCORE.INTRA.POLAR>
0

>  <SCORE.INTRA.POLAR.0>
0

>  <SCORE.INTRA.REPUL>
0

>  <SCORE.INTRA.REPUL.0>
0

>  <SCORE.INTRA.SOLV>
-0.906515

>  <SCORE.INTRA.SOLV.lig_0>
-50.5538

>  <SCORE.INTRA.VDW>
0.09811

>  <SCORE.INTRA.VDW.0>
-1.30673

>  <SCORE.INTRA.norm>
0.034582

>  <SCORE.RESTR>
0

>  <SCORE.RESTR.CAVITY>
0

>  <SCORE.RESTR.norm>
0

>  <SCORE.SYSTEM>
0

>  <SCORE.SYSTEM.CONST>
0

>  <SCORE.SYSTEM.DIHEDRAL>
0

>  <SCORE.SYSTEM.SOLV>
0

>  <SCORE.SYSTEM.norm>
0

>  <SCORE.heavy>
26

>  <SCORE.norm>
-1.10746

>  <RMSD>
1.018

$$$$
ligand
 OpenBabel02271912153D
libRbt.so/2013.1/901 2013/11/27
 26 28  0  0  0  0  0  0  0  0999 V2000
  129.9318   70.2593   -4.2699 N   0  0  0  0  0  0  0  0  0  0  0  0
  128.5215   69.7713   -4.3156 C   0  0  2  0  0  0  0  0  0  0  0  0
  127.5609   70.9089   -4.1196 C   0  0  0  0  0  0  0  0  0  0  0  0
  126.4271   70.8762   -4.5960 O   0  0  0  0  0  0  0  0  0  0  0  0
  128.2922   68.7167   -3.2363 C   0  0  0  0  0  0  0  0  0  0  0  0
  126.9737   67.9657   -3.3950 C   0  0  0  0  0  0  0  0  0  0  0  0
  126.9596   66.5464   -2.3497 S   0  0  0  0  0  0  0  0  0  0  0  0
  128.4539   65.7278   -2.8058 C   0  0  0  0  0  0  0  0  0  0  0  0
  129.5239   65.8624   -1.7238 C   0  0  1  0  0  0  0  0  0  0  0  0
  129.4148   64.8038   -0.7700 O   0  0  0  0  0  0  0  0  0  0  0  0
  130.9108   65.7754   -2.3400 C   0  0  1  0  0  0  0  0  0  0  0  0
  131.7199   66.8595   -1.8740 O   0  0  0  0  0  0  0  0  0  0  0  0
  131.4789   64.4364   -1.9041 C   0  0  1  0  0  0  0  0  0  0  0  0
  132.7506   64.5910   -1.2645 O   0  0  0  0  0  0  0  0  0  0  0  0
  130.4718   63.8487   -0.9224 C   0  0  2  0  0  0  0  0  0  0  0  0
  127.8910   71.9088   -3.4835 O   0  0  0  0  0  0  0  0  0  0  0  0
  131.2431   58.6623   -1.6083 N   0  0  0  0  0  0  0  0  0  0  0  0
  132.0627   59.5910   -1.0761 C   0  0  0  0  0  0  0  0  0  0  0  0
  131.7317   60.8938   -0.9620 N   0  0  0  0  0  0  0  0  0  0  0  0
  130.5264   61.3583   -1.3887 C   0  0  0  0  0  0  0  0  0  0  0  0
  129.5774   60.3999   -1.9821 C   0  0  0  0  0  0  0  0  0  0  0  0
  130.0114   58.9827   -2.0724 C   0  0  0  0  0  0  0  0  0  0  0  0
  129.1980   58.0412   -2.6073 N   0  0  0  0  0  0  0  0  0  0  0  0
  128.4775   61.0971   -2.3145 N   0  0  0  0  0  0  0  0  0  0  0  0
  128.7000   62.3895   -1.9689 C   0  0  0  0  0  0  0  0  0  0  0  0
  129.9191   62.5533   -1.4175 N   0  0  0  0  0  0  0  0  0  0  0  0
  2  1  1  1  0  0  0
  2  3  1  0  0  0  0
  2  5  1  0  0  0  0
  3  4  1  0  0  0  0
  3 16  1  0  0  0  0
  5  6  1  0  0  0  0
  6  7  1  0  0  0  0
  7  8  1  0  0  0  0
  9  8  1  6  0  0  0
  9 10  1  0  0  0  0
  9 11  1  0  0  0  0
 10 15  1  0  0  0  0
 11 12  1  1  0  0  0
 11 13  1  0  0  0  0
 13 14  1  1  0  0  0
 13 15  1  0  0  0  0
 15 26  1  6  0  0  0
 17 18  2  0  0  0  0
 17 22  1  0  0  0  0
 18 19  1  0  0  0  0
 19 20  2  0  0  0  0
 20 21  1  0  0  0  0
 20 26  1  0  0  0  0
 21 22  2  0  0  0  0
 21 24  1  0  0  0  0
 22 23  1  0  0  0  0
 24 25  2  0  0  0  0
 25 26  1  0  0  0  0
M  END
>  <CHROM.1>
152.27357745,-168.22173107,167.20974090,-53.21628766,106.93926585,88.40779977
-163.49981725,129.42923349,64.95634214,-2.34835725,-1.83700044,0.28280873
3.00969695

>  <Name>
ligand

>  <RI>
0

>  <Rbt.Current_Directory>
/home/itssahil/PROJECTS/Mol_Feturizer/Test_systems_manuscript/rnas/3npn

>  <Rbt.Executable>
rbdock ($Id: //depot/dev/client3/rdock/2013.1/src/exe/rbdock.cxx#4 $)

>  <Rbt.Library>
libRbt.so (2013.1, Build901 2013/11/27)

>  <Rbt.Parameter_File>
/export/apps/rDock/src/rDock_2013.1_src/data/scripts/dock_solv.prm

>  <Rbt.Receptor>
prm/pocket_docking_2.prm

>  <SCORE>
-25.0063

>  <SCORE.INTER>
-26.1183

>  <SCORE.INTER.CONST>
1

>  <SCORE.INTER.POLAR>
0

>  <SCORE.INTER.ROT>
7

>  <SCORE.INTER.SOLV>
21.3742

>  <SCORE.INTER.VDW>
-32.8036

>  <SCORE.INTER.norm>
-1.00455

>  <SCORE.INTRA>
0.952653

>  <SCORE.INTRA.DIHEDRAL>
4.06379

>  <SCORE.INTRA.DIHEDRAL.0>
4.37896

>  <SCORE.INTRA.POLAR>
0

>  <SCORE.INTRA.POLAR.0>
0

>  <SCORE.INTRA.REPUL>
0

>  <SCORE.INTRA.REPUL.0>
0

>  <SCORE.INTRA.SOLV>
-0.87967

>  <SCORE.INTRA.SOLV.lig_0>
-50.5538

>  <SCORE.INTRA.VDW>
-0.639408

>  <SCORE.INTRA.VDW.0>
-1.30673

>  <SCORE.INTRA.norm>
0.0366405

>  <SCORE.RESTR>
0.159332

>  <SCORE.RESTR.CAVITY>
0.159332

>  <SCORE.RESTR.norm>
0.00612814

>  <SCORE.SYSTEM>
0

>  <SCORE.SYSTEM.CONST>
0

>  <SCORE.SYSTEM.DIHEDRAL>
0

>  <SCORE.SYSTEM.SOLV>
0

>  <SCORE.SYSTEM.norm>
0

>  <SCORE.heavy>
26

>  <SCORE.norm>
-0.961782

>  <RMSD>
1.046

$$$$
ligand
 OpenBabel02271912153D
libRbt.so/2013.1/901 2013/11/27
 26 28  0  0  0  0  0  0  0  0999 V2000
  128.2324   71.0556   -4.5679 N   0  0  0  0  0  0  0  0  0  0  0  0
  127.1695   70.0660   -4.2212 C   0  0  2  0  0  0  0  0  0  0  0  0
  126.1821   70.6640   -3.2606 C   0  0  0  0  0  0  0  0  0  0  0  0
  125.7066   71.7831   -3.4483 O   0  0  0  0  0  0  0  0  0  0  0  0
  127.7920   68.8169   -3.6031 C   0  0  0  0  0  0  0  0  0  0  0  0
  126.8429   67.6230   -3.5666 C   0  0  0  0  0  0  0  0  0  0  0  0
  127.3111   66.5210   -2.2729 S   0  0  0  0  0  0  0  0  0  0  0  0
  128.9538   66.0743   -2.7345 C   0  0  0  0  0  0  0  0  0  0  0  0
  129.8869   66.0290   -1.5258 C   0  0  1  0  0  0  0  0  0  0  0  0
  129.5293   64.9573   -0.6505 O   0  0  0  0  0  0  0  0  0  0  0  0
  131.3193   65.7883   -1.9742 C   0  0  1  0  0  0  0  0  0  0  0  0
  132.1898   66.7410   -1.3564 O   0  0  0  0  0  0  0  0  0  0  0  0
  131.6593   64.3718   -1.5458 C   0  0  1  0  0  0  0  0  0  0  0  0
  132.8493   64.3373   -0.7503 O   0  0  0  0  0  0  0  0  0  0  0  0
  130.4719   63.8810   -0.7257 C   0  0  2  0  0  0  0  0  0  0  0  0
  125.8322   70.0497   -2.2539 O   0  0  0  0  0  0  0  0  0  0  0  0
  130.9042   58.7702   -2.0125 N   0  0  0  0  0  0  0  0  0  0  0  0
  131.7884   59.5799   -1.3958 C   0  0  0  0  0  0  0  0  0  0  0  0
  131.5420   60.8787   -1.1274 N   0  0  0  0  0  0  0  0  0  0  0  0
  130.3624   61.4619   -1.4730 C   0  0  0  0  0  0  0  0  0  0  0  0
  129.3465   60.6377   -2.1510 C   0  0  0  0  0  0  0  0  0  0  0  0
  129.6888   59.2163   -2.4109 C   0  0  0  0  0  0  0  0  0  0  0  0
  128.8101   58.3939   -3.0318 N   0  0  0  0  0  0  0  0  0  0  0  0
  128.2883   61.4343   -2.3786 N   0  0  0  0  0  0  0  0  0  0  0  0
  128.5968   62.6625   -1.8933 C   0  0  0  0  0  0  0  0  0  0  0  0
  129.8315   62.6872   -1.3529 N   0  0  0  0  0  0  0  0  0  0  0  0
  2  1  1  1  0  0  0
  2  3  1  0  0  0  0
  2  5  1  0  0  0  0
  3  4  1  0  0  0  0
  3 16  1  0  0  0  0
  5  6  1  0  0  0  0
  6  7  1  0  0  0  0
  7  8  1  0  0  0  0
  9  8  1  6  0  0  0
  9 10  1  0  0  0  0
  9 11  1  0  0  0  0
 10 15  1  0  0  0  0
 11 12  1  1  0  0  0
 11 13  1  0  0  0  0
 13 14  1  1  0  0  0
 13 15  1  0  0  0  0
 15 26  1  6  0  0  0
 17 18  2  0  0  0  0
 17 22  1  0  0  0  0
 18 19  1  0  0  0  0
 19 20  2  0  0  0  0
 20 21  1  0  0  0  0
 20 26  1  0  0  0  0
 21 22  2  0  0  0  0
 21 24  1  0  0  0  0
 22 23  1  0  0  0  0
 24 25  2  0  0  0  0
 25 26  1  0  0  0  0
M  END
>  <CHROM.1>
46.95415365,-164.47372671,-154.94743739,-59.90601565,138.74898457,67.39085116
-173.22195267,129.16400356,65.00633328,-2.21420803,-1.94862243,0.35975722
3.11822935

>  <Name>
ligand

>  <RI>
0

>  <Rbt.Current_Directory>
/home/itssahil/PROJECTS/Mol_Feturizer/Test_systems_manuscript/rnas/3npn

>  <Rbt.Executable>
rbdock ($Id: //depot/dev/client3/rdock/2013.1/src/exe/rbdock.cxx#4 $)

>  <Rbt.Library>
libRbt.so (2013.1, Build901 2013/11/27)

>  <Rbt.Parameter_File>
/export/apps/rDock/src/rDock_2013.1_src/data/scripts/dock_solv.prm

>  <Rbt.Receptor>
prm/pocket_docking_3.prm

>  <SCORE>
-27.9622

>  <SCORE.INTER>
-29.6245

>  <SCORE.INTER.CONST>
1

>  <SCORE.INTER.POLAR>
0

>  <SCORE.INTER.ROT>
7

>  <SCORE.INTER.SOLV>
25.3179

>  <SCORE.INTER.VDW>
-36.4556

>  <SCORE.INTER.norm>
-1.1394

>  <SCORE.INTRA>
1.66226

>  <SCORE.INTRA.DIHEDRAL>
3.31521

>  <SCORE.INTRA.DIHEDRAL.0>
4.37896

>  <SCORE.INTRA.POLAR>
0

>  <SCORE.INTRA.POLAR.0>
0

>  <SCORE.INTRA.REPUL>
0

>  <SCORE.INTRA.REPUL.0>
0

>  <SCORE.INTRA.SOLV>
-0.890367

>  <SCORE.INTRA.SOLV.lig_0>
-50.5538

>  <SCORE.INTRA.VDW>
0.449842

>  <SCORE.INTRA.VDW.0>
-1.30673

>  <SCORE.INTRA.norm>
0.0639333

>  <SCORE.RESTR>
0

>  <SCORE.RESTR.CAVITY>
0

>  <SCORE.RESTR.norm>
0

>  <SCORE.SYSTEM>
0

>  <SCORE.SYSTEM.CONST>
0

>  <SCORE.SYSTEM.DIHEDRAL>
0

>  <SCORE.SYSTEM.SOLV>
0

>  <SCORE.SYSTEM.norm>
0

>  <SCORE.heavy>
26

>  <SCORE.norm>
-1.07547

>  <RMSD>
1.056

$$$$
ligand
 OpenBabel02271912153D
libRbt.so/2013.1/901 2013/11/27
 26 28  0  0  0  0  0  0  0  0999 V2000
  127.9991   70.4497   -4.8762 N   0  0  0  0  0  0  0  0  0  0  0  0
  127.2450   69.6691   -3.8509 C   0  0  2  0  0  0  0  0  0  0  0  0
  126.2245   70.5356   -3.1706 C   0  0  0  0  0  0  0  0  0  0  0  0
  125.5670   70.1193   -2.2177 O   0  0  0  0  0  0  0  0  0  0  0  0
  128.2050   69.0971   -2.8112 C   0  0  0  0  0  0  0  0  0  0  0  0
  127.5528   68.0778   -1.8820 C   0  0  0  0  0  0  0  0  0  0  0  0
  127.2867   66.5625   -2.7424 S   0  0  0  0  0  0  0  0  0  0  0  0
  128.9312   65.9717   -2.9825 C   0  0  0  0  0  0  0  0  0  0  0  0
  129.7416   66.0171   -1.6883 C   0  0  1  0  0  0  0  0  0  0  0  0
  129.3218   64.9859   -0.7922 O   0  0  0  0  0  0  0  0  0  0  0  0
  131.2158   65.7898   -1.9810 C   0  0  1  0  0  0  0  0  0  0  0  0
  132.0014   66.7973   -1.3368 O   0  0  0  0  0  0  0  0  0  0  0  0
  131.5412   64.4082   -1.4416 C   0  0  1  0  0  0  0  0  0  0  0  0
  132.6476   64.4484   -0.5335 O   0  0  0  0  0  0  0  0  0  0  0  0
  130.2893   63.9321   -0.7141 C   0  0  2  0  0  0  0  0  0  0  0  0
  126.0146   71.6838   -3.5589 O   0  0  0  0  0  0  0  0  0  0  0  0
  131.0244   58.8091   -1.7997 N   0  0  0  0  0  0  0  0  0  0  0  0
  131.8365   59.6797   -1.1670 C   0  0  0  0  0  0  0  0  0  0  0  0
  131.5166   60.9732   -0.9566 N   0  0  0  0  0  0  0  0  0  0  0  0
  130.3312   61.4877   -1.3818 C   0  0  0  0  0  0  0  0  0  0  0  0
  129.3914   60.5944   -2.0819 C   0  0  0  0  0  0  0  0  0  0  0  0
  129.8123   59.1835   -2.2746 C   0  0  0  0  0  0  0  0  0  0  0  0
  129.0063   58.3003   -2.9108 N   0  0  0  0  0  0  0  0  0  0  0  0
  128.3110   61.3317   -2.3905 N   0  0  0  0  0  0  0  0  0  0  0  0
  128.5365   62.5883   -1.9328 C   0  0  0  0  0  0  0  0  0  0  0  0
  129.7386   62.6894   -1.3314 N   0  0  0  0  0  0  0  0  0  0  0  0
  2  1  1  6  0  0  0
  2  3  1  0  0  0  0
  2  5  1  0  0  0  0
  3  4  1  0  0  0  0
  3 16  1  0  0  0  0
  5  6  1  0  0  0  0
  6  7  1  0  0  0  0
  7  8  1  0  0  0  0
  9  8  1  6  0  0  0
  9 10  1  0  0  0  0
  9 11  1  0  0  0  0
 10 15  1  0  0  0  0
 11 12  1  1  0  0  0
 11 13  1  0  0  0  0
 13 14  1  1  0  0  0
 13 15  1  0  0  0  0
 15 26  1  6  0  0  0
 17 18  2  0  0  0  0
 17 22  1  0  0  0  0
 18 19  1  0  0  0  0
 19 20  2  0  0  0  0
 20 21  1  0  0  0  0
 20 26  1  0  0  0  0
 21 22  2  0  0  0  0
 21 24  1  0  0  0  0
 22 23  1  0  0  0  0
 24 25  2  0  0  0  0
 25 26  1  0  0  0  0
M  END
>  <CHROM.1>
-174.11481046,-169.25333401,73.80384910,68.89270308,48.80172540,73.40301353
-176.46316765,129.16783887,64.99975314,-2.13307177,-1.94545569,0.38153871
3.13096827

>  <Name>
ligand

>  <RI>
0

>  <Rbt.Current_Directory>
/home/itssahil/PROJECTS/Mol_Feturizer/Test_systems_manuscript/rnas/3npn

>  <Rbt.Executable>
rbdock ($Id: //depot/dev/client3/rdock/2013.1/src/exe/rbdock.cxx#4 $)

>  <Rbt.Library>
libRbt.so (2013.1, Build901 2013/11/27)

>  <Rbt.Parameter_File>
/export/apps/rDock/src/rDock_2013.1_src/data/scripts/dock_solv.prm

>  <Rbt.Receptor>
prm/pocket_docking_4.prm

>  <SCORE>
-29.796

>  <SCORE.INTER>
-29.5599

>  <SCORE.INTER.CONST>
1

>  <SCORE.INTER.POLAR>
0

>  <SCORE.INTER.ROT>
7

>  <SCORE.INTER.SOLV>
23.5667

>  <SCORE.INTER.VDW>
-35.8288

>  <SCORE.INTER.norm>
-1.13692

>  <SCORE.INTRA>
-0.236142

>  <SCORE.INTRA.DIHEDRAL>
0.361549

>  <SCORE.INTRA.DIHEDRAL.0>
4.37896

>  <SCORE.INTRA.POLAR>
0

>  <SCORE.INTRA.POLAR.0>
0

>  <SCORE.INTRA.REPUL>
0

>  <SCORE.INTRA.REPUL.0>
0

>  <SCORE.INTRA.SOLV>
-0.647446

>  <SCORE.INTRA.SOLV.lig_0>
-50.5538

>  <SCORE.INTRA.VDW>
-0.0931936

>  <SCORE.INTRA.VDW.0>
-1.30673

>  <SCORE.INTRA.norm>
-0.00908238

>  <SCORE.RESTR>
0

>  <SCORE.RESTR.CAVITY>
0

>  <SCORE.RESTR.norm>
0

>  <SCORE.SYSTEM>
0

>  <SCORE.SYSTEM.CONST>
0

>  <SCORE.SYSTEM.DIHEDRAL>
0

>  <SCORE.SYSTEM.SOLV>
0

>  <SCORE.SYSTEM.norm>
0

>  <SCORE.heavy>
26

>  <SCORE.norm>
-1.146

>  <RMSD>
1.062

$$$$
ligand
 OpenBabel02271912153D
libRbt.so/2013.1/901 2013/11/27
 26 28  0  0  0  0  0  0  0  0999 V2000
  126.0116   70.6333   -2.9468 N   0  0  0  0  0  0  0  0  0  0  0  0
  127.2967   70.1529   -3.5360 C   0  0  2  0  0  0  0  0  0  0  0  0
  127.4879   70.7119   -4.9166 C   0  0  0  0  0  0  0  0  0  0  0  0
  128.4583   71.4167   -5.1911 O   0  0  0  0  0  0  0  0  0  0  0  0
  127.3133   68.6278   -3.5950 C   0  0  0  0  0  0  0  0  0  0  0  0
  127.2909   67.9691   -2.2191 C   0  0  0  0  0  0  0  0  0  0  0  0
  127.3634   66.2161   -2.3895 S   0  0  0  0  0  0  0  0  0  0  0  0
  129.0617   65.9457   -2.7817 C   0  0  0  0  0  0  0  0  0  0  0  0
  129.9342   65.9262   -1.5279 C   0  0  1  0  0  0  0  0  0  0  0  0
  129.5330   64.8733   -0.6488 O   0  0  0  0  0  0  0  0  0  0  0  0
  131.3867   65.6764   -1.9001 C   0  0  1  0  0  0  0  0  0  0  0  0
  132.2266   66.6421   -1.2604 O   0  0  0  0  0  0  0  0  0  0  0  0
  131.7040   64.2693   -1.4255 C   0  0  1  0  0  0  0  0  0  0  0  0
  132.8534   64.2520   -0.5718 O   0  0  0  0  0  0  0  0  0  0  0  0
  130.4773   63.7958   -0.6547 C   0  0  2  0  0  0  0  0  0  0  0  0
  126.6694   70.4851   -5.8064 O   0  0  0  0  0  0  0  0  0  0  0  0
  130.9909   58.6719   -1.8569 N   0  0  0  0  0  0  0  0  0  0  0  0
  131.8475   59.4965   -1.2212 C   0  0  0  0  0  0  0  0  0  0  0  0
  131.5825   60.7969   -0.9790 N   0  0  0  0  0  0  0  0  0  0  0  0
  130.4113   61.3662   -1.3725 C   0  0  0  0  0  0  0  0  0  0  0  0
  129.4252   60.5252   -2.0737 C   0  0  0  0  0  0  0  0  0  0  0  0
  129.7867   59.1033   -2.3025 C   0  0  0  0  0  0  0  0  0  0  0  0
  128.9359   58.2658   -2.9420 N   0  0  0  0  0  0  0  0  0  0  0  0
  128.3696   61.3105   -2.3481 N   0  0  0  0  0  0  0  0  0  0  0  0
  128.6523   62.5474   -1.8691 C   0  0  0  0  0  0  0  0  0  0  0  0
  129.8676   62.5888   -1.2872 N   0  0  0  0  0  0  0  0  0  0  0  0
  2  1  1  6  0  0  0
  2  3  1  0  0  0  0
  2  5  1  0  0  0  0
  3  4  1  0  0  0  0
  3 16  1  0  0  0  0
  5  6  1  0  0  0  0
  6  7  1  0  0  0  0
  7  8  1  0  0  0  0
  9  8  1  6  0  0  0
  9 10  1  0  0  0  0
  9 11  1  0  0  0  0
 10 15  1  0  0  0  0
 11 12  1  1  0  0  0
 11 13  1  0  0  0  0
 13 14  1  1  0  0  0
 13 15  1  0  0  0  0
 15 26  1  6  0  0  0
 17 18  2  0  0  0  0
 17 22  1  0  0  0  0
 18 19  1  0  0  0  0
 19 20  2  0  0  0  0
 20 21  1  0  0  0  0
 20 26  1  0  0  0  0
 21 22  2  0  0  0  0
 21 24  1  0  0  0  0
 22 23  1  0  0  0  0
 24 25  2  0  0  0  0
 25 26  1  0  0  0  0
M  END
>  <CHROM.1>
119.97083562,-64.79658017,-178.22430618,76.04356335,82.27483724,60.73900413
-174.29058824,129.31998904,64.91127818,-2.31501895,1.91742864,-0.47669502
-0.07916758

>  <Name>
ligand

>  <RI>
0

>  <Rbt.Current_Directory>
/home/itssahil/PROJECTS/Mol_Feturizer/Test_systems_manuscript/rnas/3npn

>  <Rbt.Executable>
rbdock ($Id: //depot/dev/client3/rdock/2013.1/src/exe/rbdock.cxx#4 $)

>  <Rbt.Library>
libRbt.so (2013.1, Build901 2013/11/27)

>  <Rbt.Parameter_File>
/export/apps/rDock/src/rDock_2013.1_src/data/scripts/dock_solv.prm

>  <Rbt.Receptor>
prm/pocket_docking_3.prm

>  <SCORE>
-30.3619

>  <SCORE.INTER>
-28.9124

>  <SCORE.INTER.CONST>
1

>  <SCORE.INTER.POLAR>
0

>  <SCORE.INTER.ROT>
7

>  <SCORE.INTER.SOLV>
26.6837

>  <SCORE.INTER.VDW>
-36.4362

>  <SCORE.INTER.norm>
-1.11202

>  <SCORE.INTRA>
-1.44947

>  <SCORE.INTRA.DIHEDRAL>
-0.4808

>  <SCORE.INTRA.DIHEDRAL.0>
4.37896

>  <SCORE.INTRA.POLAR>
0

>  <SCORE.INTRA.POLAR.0>
0

>  <SCORE.INTRA.REPUL>
0

>  <SCORE.INTRA.REPUL.0>
0

>  <SCORE.INTRA.SOLV>
-0.202321

>  <SCORE.INTRA.SOLV.lig_0>
-50.5538

>  <SCORE.INTRA.VDW>
-1.10791

>  <SCORE.INTRA.VDW.0>
-1.30673

>  <SCORE.INTRA.norm>
-0.0557487

>  <SCORE.RESTR>
0

>  <SCORE.RESTR.CAVITY>
0

>  <SCORE.RESTR.norm>
0

>  <SCORE.SYSTEM>
0

>  <SCORE.SYSTEM.CONST>
0

>  <SCORE.SYSTEM.DIHEDRAL>
0

>  <SCORE.SYSTEM.SOLV>
0

>  <SCORE.SYSTEM.norm>
0

>  <SCORE.heavy>
26

>  <SCORE.norm>
-1.16776

>  <RMSD>
1.066

$$$$
ligand
 OpenBabel02271912153D
libRbt.so/2013.1/901 2013/11/27
 26 28  0  0  0  0  0  0  0  0999 V2000
  126.0367   70.8213   -3.0678 N   0  0  0  0  0  0  0  0  0  0  0  0
  127.3351   70.2893   -3.5782 C   0  0  2  0  0  0  0  0  0  0  0  0
  127.6260   70.8284   -4.9493 C   0  0  0  0  0  0  0  0  0  0  0  0
  128.5772   71.5824   -5.1501 O   0  0  0  0  0  0  0  0  0  0  0  0
  127.2991   68.7641   -3.6255 C   0  0  0  0  0  0  0  0  0  0  0  0
  127.2744   68.1166   -2.2443 C   0  0  0  0  0  0  0  0  0  0  0  0
  127.2668   66.3610   -2.4023 S   0  0  0  0  0  0  0  0  0  0  0  0
  128.9465   66.0124   -2.8124 C   0  0  0  0  0  0  0  0  0  0  0  0
  129.8392   66.0006   -1.5728 C   0  0  1  0  0  0  0  0  0  0  0  0
  129.4664   64.9395   -0.6910 O   0  0  0  0  0  0  0  0  0  0  0  0
  131.2888   65.7716   -1.9692 C   0  0  1  0  0  0  0  0  0  0  0  0
  132.1258   66.7465   -1.3398 O   0  0  0  0  0  0  0  0  0  0  0  0
  131.6325   64.3674   -1.5047 C   0  0  1  0  0  0  0  0  0  0  0  0
  132.7957   64.3628   -0.6696 O   0  0  0  0  0  0  0  0  0  0  0  0
  130.4249   63.8749   -0.7159 C   0  0  2  0  0  0  0  0  0  0  0  0
  126.9103   70.5350   -5.9058 O   0  0  0  0  0  0  0  0  0  0  0  0
  130.9559   58.7430   -1.8756 N   0  0  0  0  0  0  0  0  0  0  0  0
  131.8070   59.5742   -1.2413 C   0  0  0  0  0  0  0  0  0  0  0  0
  131.5380   60.8758   -1.0107 N   0  0  0  0  0  0  0  0  0  0  0  0
  130.3680   61.4397   -1.4154 C   0  0  0  0  0  0  0  0  0  0  0  0
  129.3878   60.5914   -2.1159 C   0  0  0  0  0  0  0  0  0  0  0  0
  129.7534   59.1684   -2.3317 C   0  0  0  0  0  0  0  0  0  0  0  0
  128.9080   58.3244   -2.9697 N   0  0  0  0  0  0  0  0  0  0  0  0
  128.3322   61.3724   -2.4025 N   0  0  0  0  0  0  0  0  0  0  0  0
  128.6096   62.6135   -1.9314 C   0  0  0  0  0  0  0  0  0  0  0  0
  129.8213   62.6619   -1.3427 N   0  0  0  0  0  0  0  0  0  0  0  0
  2  1  1  6  0  0  0
  2  3  1  0  0  0  0
  2  5  1  0  0  0  0
  3  4  1  0  0  0  0
  3 16  1  0  0  0  0
  5  6  1  0  0  0  0
  6  7  1  0  0  0  0
  7  8  1  0  0  0  0
  9  8  1  6  0  0  0
  9 10  1  0  0  0  0
  9 11  1  0  0  0  0
 10 15  1  0  0  0  0
 11 12  1  1  0  0  0
 11 13  1  0  0  0  0
 13 14  1  1  0  0  0
 13 15  1  0  0  0  0
 15 26  1  6  0  0  0
 17 18  2  0  0  0  0
 17 22  1  0  0  0  0
 18 19  1  0  0  0  0
 19 20  2  0  0  0  0
 20 21  1  0  0  0  0
 20 26  1  0  0  0  0
 21 22  2  0  0  0  0
 21 24  1  0  0  0  0
 22 23  1  0  0  0  0
 24 25  2  0  0  0  0
 25 26  1  0  0  0  0
M  END
>  <CHROM.1>
114.11285941,-68.94106082,-178.85484603,76.45852943,80.71599883,64.37906243
-172.73751004,129.29427859,65.00941487,-2.36033322,1.89897689,-0.46481966
-0.08834176

>  <Name>
ligand

>  <RI>
0

>  <Rbt.Current_Directory>
/home/itssahil/PROJECTS/Mol_Feturizer/Test_systems_manuscript/rnas/3npn

>  <Rbt.Executable>
rbdock ($Id: //depot/dev/client3/rdock/2013.1/src/exe/rbdock.cxx#4 $)

>  <Rbt.Library>
libRbt.so (2013.1, Build901 2013/11/27)

>  <Rbt.Parameter_File>
/export/apps/rDock/src/rDock_2013.1_src/data/scripts/dock_solv.prm

>  <Rbt.Receptor>
prm/pocket_docking_4.prm

>  <SCORE>
-30.507

>  <SCORE.INTER>
-29.1784

>  <SCORE.INTER.CONST>
1

>  <SCORE.INTER.POLAR>
0

>  <SCORE.INTER.ROT>
7

>  <SCORE.INTER.SOLV>
27.1919

>  <SCORE.INTER.VDW>
-36.7829

>  <SCORE.INTER.norm>
-1.12225

>  <SCORE.INTRA>
-1.32854

>  <SCORE.INTRA.DIHEDRAL>
-0.265915

>  <SCORE.INTRA.DIHEDRAL.0>
4.37896

>  <SCORE.INTRA.POLAR>
0

>  <SCORE.INTRA.POLAR.0>
0

>  <SCORE.INTRA.REPUL>
0

>  <SCORE.INTRA.REPUL.0>
0

>  <SCORE.INTRA.SOLV>
-0.257062

>  <SCORE.INTRA.SOLV.lig_0>
-50.5538

>  <SCORE.INTRA.VDW>
-1.06705

>  <SCORE.INTRA.VDW.0>
-1.30673

>  <SCORE.INTRA.norm>
-0.0510977

>  <SCORE.RESTR>
0

>  <SCORE.RESTR.CAVITY>
0

>  <SCORE.RESTR.norm>
0

>  <SCORE.SYSTEM>
0

>  <SCORE.SYSTEM.CONST>
0

>  <SCORE.SYSTEM.DIHEDRAL>
0

>  <SCORE.SYSTEM.SOLV>
0

>  <SCORE.SYSTEM.norm>
0

>  <SCORE.heavy>
26

>  <SCORE.norm>
-1.17334

>  <RMSD>
1.092

$$$$
ligand
 OpenBabel02271912153D
libRbt.so/2013.1/901 2013/11/27
 26 28  0  0  0  0  0  0  0  0999 V2000
  125.9637   70.7957   -3.1189 N   0  0  0  0  0  0  0  0  0  0  0  0
  127.2874   70.2711   -3.5681 C   0  0  2  0  0  0  0  0  0  0  0  0
  127.6333   70.8025   -4.9294 C   0  0  0  0  0  0  0  0  0  0  0  0
  128.6352   71.4936   -5.1092 O   0  0  0  0  0  0  0  0  0  0  0  0
  127.2661   68.7454   -3.6050 C   0  0  0  0  0  0  0  0  0  0  0  0
  127.2270   68.1074   -2.2197 C   0  0  0  0  0  0  0  0  0  0  0  0
  127.2417   66.3507   -2.3651 S   0  0  0  0  0  0  0  0  0  0  0  0
  128.9193   66.0228   -2.8001 C   0  0  0  0  0  0  0  0  0  0  0  0
  129.8321   66.0334   -1.5752 C   0  0  1  0  0  0  0  0  0  0  0  0
  129.4919   64.9714   -0.6815 O   0  0  0  0  0  0  0  0  0  0  0  0
  131.2788   65.8267   -1.9939 C   0  0  1  0  0  0  0  0  0  0  0  0
  132.1092   66.8193   -1.3838 O   0  0  0  0  0  0  0  0  0  0  0  0
  131.6539   64.4313   -1.5273 C   0  0  1  0  0  0  0  0  0  0  0  0
  132.8304   64.4513   -0.7113 O   0  0  0  0  0  0  0  0  0  0  0  0
  130.4678   63.9231   -0.7161 C   0  0  2  0  0  0  0  0  0  0  0  0
  126.9138   70.5661   -5.8987 O   0  0  0  0  0  0  0  0  0  0  0  0
  131.0472   58.7825   -1.8127 N   0  0  0  0  0  0  0  0  0  0  0  0
  131.8915   59.6301   -1.1910 C   0  0  0  0  0  0  0  0  0  0  0  0
  131.6100   60.9317   -0.9760 N   0  0  0  0  0  0  0  0  0  0  0  0
  130.4335   61.4788   -1.3848 C   0  0  0  0  0  0  0  0  0  0  0  0
  129.4602   60.6121   -2.0722 C   0  0  0  0  0  0  0  0  0  0  0  0
  129.8395   59.1902   -2.2710 C   0  0  0  0  0  0  0  0  0  0  0  0
  129.0010   58.3299   -2.8963 N   0  0  0  0  0  0  0  0  0  0  0  0
  128.3962   61.3789   -2.3659 N   0  0  0  0  0  0  0  0  0  0  0  0
  128.6623   62.6285   -1.9111 C   0  0  0  0  0  0  0  0  0  0  0  0
  129.8749   62.6963   -1.3261 N   0  0  0  0  0  0  0  0  0  0  0  0
  2  1  1  6  0  0  0
  2  3  1  0  0  0  0
  2  5  1  0  0  0  0
  3  4  1  0  0  0  0
  3 16  1  0  0  0  0
  5  6  1  0  0  0  0
  6  7  1  0  0  0  0
  7  8  1  0  0  0  0
  9  8  1  6  0  0  0
  9 10  1  0  0  0  0
  9 11  1  0  0  0  0
 10 15  1  0  0  0  0
 11 12  1  1  0  0  0
 11 13  1  0  0  0  0
 13 14  1  1  0  0  0
 13 15  1  0  0  0  0
 15 26  1  6  0  0  0
 17 18  2  0  0  0  0
 17 22  1  0  0  0  0
 18 19  1  0  0  0  0
 19 20  2  0  0  0  0
 20 21  1  0  0  0  0
 20 26  1  0  0  0  0
 21 22  2  0  0  0  0
 21 24  1  0  0  0  0
 22 23  1  0  0  0  0
 24 25  2  0  0  0  0
 25 26  1  0  0  0  0
M  END
>  <CHROM.1>
118.81859182,-70.59288551,-178.71751622,74.62100460,80.68371652,64.57230618
-171.76489817,129.31560452,65.02835809,-2.34393279,1.90537803,-0.44210202
-0.09555498

>  <Name>
ligand

>  <RI>
0

>  <Rbt.Current_Directory>
/home/itssahil/PROJECTS/Mol_Feturizer/Test_systems_manuscript/rnas/3npn

>  <Rbt.Executable>
rbdock ($Id: //depot/dev/client3/rdock/2013.1/src/exe/rbdock.cxx#4 $)

>  <Rbt.Library>
libRbt.so (2013.1, Build901 2013/11/27)

>  <Rbt.Parameter_File>
/export/apps/rDock/src/rDock_2013.1_src/data/scripts/dock_solv.prm

>  <Rbt.Receptor>
prm/pocket_docking_4.prm

>  <SCORE>
-30.5509

>  <SCORE.INTER>
-29.1767

>  <SCORE.INTER.CONST>
1

>  <SCORE.INTER.POLAR>
0

>  <SCORE.INTER.ROT>
7

>  <SCORE.INTER.SOLV>
26.8158

>  <SCORE.INTER.VDW>
-36.6564

>  <SCORE.INTER.norm>
-1.12218

>  <SCORE.INTRA>
-1.37424

>  <SCORE.INTRA.DIHEDRAL>
-0.212971

>  <SCORE.INTRA.DIHEDRAL.0>
4.37896

>  <SCORE.INTRA.POLAR>
0

>  <SCORE.INTRA.POLAR.0>
0

>  <SCORE.INTRA.REPUL>
0

>  <SCORE.INTRA.REPUL.0>
0

>  <SCORE.INTRA.SOLV>
-0.271335

>  <SCORE.INTRA.SOLV.lig_0>
-50.5538

>  <SCORE.INTRA.VDW>
-1.13209

>  <SCORE.INTRA.VDW.0>
-1.30673

>  <SCORE.INTRA.norm>
-0.0528553

>  <SCORE.RESTR>
0

>  <SCORE.RESTR.CAVITY>
0

>  <SCORE.RESTR.norm>
0

>  <SCORE.SYSTEM>
0

>  <SCORE.SYSTEM.CONST>
0

>  <SCORE.SYSTEM.DIHEDRAL>
0

>  <SCORE.SYSTEM.SOLV>
0

>  <SCORE.SYSTEM.norm>
0

>  <SCORE.heavy>
26

>  <SCORE.norm>
-1.17504

>  <RMSD>
1.093

$$$$
ligand
 OpenBabel02271912153D
libRbt.so/2013.1/901 2013/11/27
 26 28  0  0  0  0  0  0  0  0999 V2000
  127.3434   70.0767   -5.2767 N   0  0  0  0  0  0  0  0  0  0  0  0
  126.8465   69.6068   -3.9495 C   0  0  2  0  0  0  0  0  0  0  0  0
  126.1569   70.7218   -3.2172 C   0  0  0  0  0  0  0  0  0  0  0  0
  126.1269   71.8634   -3.6748 O   0  0  0  0  0  0  0  0  0  0  0  0
  128.0060   69.0819   -3.1070 C   0  0  0  0  0  0  0  0  0  0  0  0
  127.5611   68.1732   -1.9651 C   0  0  0  0  0  0  0  0  0  0  0  0
  127.3079   66.5345   -2.5633 S   0  0  0  0  0  0  0  0  0  0  0  0
  128.9512   66.0096   -2.9309 C   0  0  0  0  0  0  0  0  0  0  0  0
  129.8467   66.0512   -1.6940 C   0  0  1  0  0  0  0  0  0  0  0  0
  129.4800   65.0252   -0.7692 O   0  0  0  0  0  0  0  0  0  0  0  0
  131.2962   65.8117   -2.0843 C   0  0  1  0  0  0  0  0  0  0  0  0
  132.1310   66.8143   -1.4968 O   0  0  0  0  0  0  0  0  0  0  0  0
  131.6464   64.4287   -1.5644 C   0  0  1  0  0  0  0  0  0  0  0  0
  132.8115   64.4621   -0.7326 O   0  0  0  0  0  0  0  0  0  0  0  0
  130.4424   63.9640   -0.7534 C   0  0  2  0  0  0  0  0  0  0  0  0
  125.6121   70.5202   -2.1328 O   0  0  0  0  0  0  0  0  0  0  0  0
  131.0098   58.8014   -1.7482 N   0  0  0  0  0  0  0  0  0  0  0  0
  131.8619   59.6622   -1.1560 C   0  0  0  0  0  0  0  0  0  0  0  0
  131.5827   60.9681   -0.9649 N   0  0  0  0  0  0  0  0  0  0  0  0
  130.4005   61.5061   -1.3695 C   0  0  0  0  0  0  0  0  0  0  0  0
  129.4185   60.6247   -2.0253 C   0  0  0  0  0  0  0  0  0  0  0  0
  129.7959   59.1990   -2.1989 C   0  0  0  0  0  0  0  0  0  0  0  0
  128.9496   58.3254   -2.7944 N   0  0  0  0  0  0  0  0  0  0  0  0
  128.3503   61.3848   -2.3209 N   0  0  0  0  0  0  0  0  0  0  0  0
  128.6219   62.6439   -1.8964 C   0  0  0  0  0  0  0  0  0  0  0  0
  129.8421   62.7244   -1.3292 N   0  0  0  0  0  0  0  0  0  0  0  0
  2  1  1  6  0  0  0
  2  3  1  0  0  0  0
  2  5  1  0  0  0  0
  3  4  1  0  0  0  0
  3 16  1  0  0  0  0
  5  6  1  0  0  0  0
  6  7  1  0  0  0  0
  7  8  1  0  0  0  0
  9  8  1  6  0  0  0
  9 10  1  0  0  0  0
  9 11  1  0  0  0  0
 10 15  1  0  0  0  0
 11 12  1  1  0  0  0
 11 13  1  0  0  0  0
 13 14  1  1  0  0  0
 13 15  1  0  0  0  0
 15 26  1  6  0  0  0
 17 18  2  0  0  0  0
 17 22  1  0  0  0  0
 18 19  1  0  0  0  0
 19 20  2  0  0  0  0
 20 21  1  0  0  0  0
 20 26  1  0  0  0  0
 21 22  2  0  0  0  0
 21 24  1  0  0  0  0
 22 23  1  0  0  0  0
 24 25  2  0  0  0  0
 25 26  1  0  0  0  0
M  END
>  <CHROM.1>
-4.49810199,-160.64466604,82.53257751,69.37481077,59.32478511,70.43956276
-173.68240238,129.17541434,65.03015881,-2.16013382,1.96142985,-0.36990749
-0.02066694

>  <Name>
ligand

>  <RI>
0

>  <Rbt.Current_Directory>
/home/itssahil/PROJECTS/Mol_Feturizer/Test_systems_manuscript/rnas/3npn

>  <Rbt.Executable>
rbdock ($Id: //depot/dev/client3/rdock/2013.1/src/exe/rbdock.cxx#4 $)

>  <Rbt.Library>
libRbt.so (2013.1, Build901 2013/11/27)

>  <Rbt.Parameter_File>
/export/apps/rDock/src/rDock_2013.1_src/data/scripts/dock_solv.prm

>  <Rbt.Receptor>
prm/pocket_docking_2.prm

>  <SCORE>
-29.8631

>  <SCORE.INTER>
-29.6294

>  <SCORE.INTER.CONST>
1

>  <SCORE.INTER.POLAR>
0

>  <SCORE.INTER.ROT>
7

>  <SCORE.INTER.SOLV>
25.2732

>  <SCORE.INTER.VDW>
-36.444

>  <SCORE.INTER.norm>
-1.13959

>  <SCORE.INTRA>
-0.243845

>  <SCORE.INTRA.DIHEDRAL>
1.87965

>  <SCORE.INTRA.DIHEDRAL.0>
4.37896

>  <SCORE.INTRA.POLAR>
0

>  <SCORE.INTRA.POLAR.0>
0

>  <SCORE.INTRA.REPUL>
0

>  <SCORE.INTRA.REPUL.0>
0

>  <SCORE.INTRA.SOLV>
-0.652258

>  <SCORE.INTRA.SOLV.lig_0>
-50.5538

>  <SCORE.INTRA.VDW>
-0.857544

>  <SCORE.INTRA.VDW.0>
-1.30673

>  <SCORE.INTRA.norm>
-0.00937867

>  <SCORE.RESTR>
0.0100703

>  <SCORE.RESTR.CAVITY>
0.0100703

>  <SCORE.RESTR.norm>
0.000387318

>  <SCORE.SYSTEM>
0

>  <SCORE.SYSTEM.CONST>
0

>  <SCORE.SYSTEM.DIHEDRAL>
0

>  <SCORE.SYSTEM.SOLV>
0

>  <SCORE.SYSTEM.norm>
0

>  <SCORE.heavy>
26

>  <SCORE.norm>
-1.14858

>  <RMSD>
1.107

$$$$
ligand
 OpenBabel02271912153D
libRbt.so/2013.1/901 2013/11/27
 26 28  0  0  0  0  0  0  0  0999 V2000
  128.5170   70.7490   -4.1021 N   0  0  0  0  0  0  0  0  0  0  0  0
  127.1438   70.1981   -4.3020 C   0  0  2  0  0  0  0  0  0  0  0  0
  126.2557   70.5569   -3.1454 C   0  0  0  0  0  0  0  0  0  0  0  0
  126.1503   69.8171   -2.1681 O   0  0  0  0  0  0  0  0  0  0  0  0
  127.2002   68.6801   -4.4517 C   0  0  0  0  0  0  0  0  0  0  0  0
  128.0820   68.0018   -3.4077 C   0  0  0  0  0  0  0  0  0  0  0  0
  128.0204   66.2521   -3.6126 S   0  0  0  0  0  0  0  0  0  0  0  0
  129.6899   65.7771   -3.2988 C   0  0  0  0  0  0  0  0  0  0  0  0
  130.0379   65.8853   -1.8153 C   0  0  1  0  0  0  0  0  0  0  0  0
  129.2521   64.9744   -1.0436 O   0  0  0  0  0  0  0  0  0  0  0  0
  131.4979   65.5278   -1.5888 C   0  0  1  0  0  0  0  0  0  0  0  0
  132.1269   66.5327   -0.7877 O   0  0  0  0  0  0  0  0  0  0  0  0
  131.4948   64.1829   -0.8839 C   0  0  1  0  0  0  0  0  0  0  0  0
  132.2459   64.2290    0.3343 O   0  0  0  0  0  0  0  0  0  0  0  0
  130.0346   63.8666   -0.5820 C   0  0  2  0  0  0  0  0  0  0  0  0
  125.6024   71.5992   -3.1533 O   0  0  0  0  0  0  0  0  0  0  0  0
  131.1395   58.8344   -1.7740 N   0  0  0  0  0  0  0  0  0  0  0  0
  131.8617   59.7309   -1.0721 C   0  0  0  0  0  0  0  0  0  0  0  0
  131.4522   60.9955   -0.8422 N   0  0  0  0  0  0  0  0  0  0  0  0
  130.2620   61.4520   -1.3174 C   0  0  0  0  0  0  0  0  0  0  0  0
  129.4177   60.5274   -2.0942 C   0  0  0  0  0  0  0  0  0  0  0  0
  129.9339   59.1511   -2.3044 C   0  0  0  0  0  0  0  0  0  0  0  0
  129.2189   58.2426   -3.0097 N   0  0  0  0  0  0  0  0  0  0  0  0
  128.3122   61.2086   -2.4407 N   0  0  0  0  0  0  0  0  0  0  0  0
  128.4354   62.4609   -1.9348 C   0  0  0  0  0  0  0  0  0  0  0  0
  129.5950   62.6140   -1.2649 N   0  0  0  0  0  0  0  0  0  0  0  0
  2  1  1  1  0  0  0
  2  3  1  0  0  0  0
  2  5  1  0  0  0  0
  3  4  1  0  0  0  0
  3 16  1  0  0  0  0
  5  6  1  0  0  0  0
  6  7  1  0  0  0  0
  7  8  1  0  0  0  0
  9  8  1  6  0  0  0
  9 10  1  0  0  0  0
  9 11  1  0  0  0  0
 10 15  1  0  0  0  0
 11 12  1  1  0  0  0
 11 13  1  0  0  0  0
 13 14  1  1  0  0  0
 13 15  1  0  0  0  0
 15 26  1  6  0  0  0
 17 18  2  0  0  0  0
 17 22  1  0  0  0  0
 18 19  1  0  0  0  0
 19 20  2  0  0  0  0
 20 21  1  0  0  0  0
 20 26  1  0  0  0  0
 21 22  2  0  0  0  0
 21 24  1  0  0  0  0
 22 23  1  0  0  0  0
 24 25  2  0  0  0  0
 25 26  1  0  0  0  0
M  END
>  <CHROM.1>
-90.81972302,46.18756712,177.22521456,141.19649206,72.70049148,63.82350623
164.36747665,129.26467927,64.90183646,-2.21545712,-1.97849845,0.57351055
-3.10429379

>  <Name>
ligand

>  <RI>
0

>  <Rbt.Current_Directory>
/home/itssahil/PROJECTS/Mol_Feturizer/Test_systems_manuscript/rnas/3npn

>  <Rbt.Executable>
rbdock ($Id: //depot/dev/client3/rdock/2013.1/src/exe/rbdock.cxx#4 $)

>  <Rbt.Library>
libRbt.so (2013.1, Build901 2013/11/27)

>  <Rbt.Parameter_File>
/export/apps/rDock/src/rDock_2013.1_src/data/scripts/dock_solv.prm

>  <Rbt.Receptor>
prm/pocket_docking_4.prm

>  <SCORE>
-28.244

>  <SCORE.INTER>
-28.7683

>  <SCORE.INTER.CONST>
1

>  <SCORE.INTER.POLAR>
0

>  <SCORE.INTER.ROT>
7

>  <SCORE.INTER.SOLV>
22.2219

>  <SCORE.INTER.VDW>
-34.8528

>  <SCORE.INTER.norm>
-1.10647

>  <SCORE.INTRA>
0.524265

>  <SCORE.INTRA.DIHEDRAL>
1.10471

>  <SCORE.INTRA.DIHEDRAL.0>
4.37896

>  <SCORE.INTRA.POLAR>
0

>  <SCORE.INTRA.POLAR.0>
0

>  <SCORE.INTRA.REPUL>
0

>  <SCORE.INTRA.REPUL.0>
0

>  <SCORE.INTRA.SOLV>
-0.0223655

>  <SCORE.INTRA.SOLV.lig_0>
-50.5538

>  <SCORE.INTRA.VDW>
-0.016909

>  <SCORE.INTRA.VDW.0>
-1.30673

>  <SCORE.INTRA.norm>
0.020164

>  <SCORE.RESTR>
0

>  <SCORE.RESTR.CAVITY>
0

>  <SCORE.RESTR.norm>
0

>  <SCORE.SYSTEM>
0

>  <SCORE.SYSTEM.CONST>
0

>  <SCORE.SYSTEM.DIHEDRAL>
0

>  <SCORE.SYSTEM.SOLV>
0

>  <SCORE.SYSTEM.norm>
0

>  <SCORE.heavy>
26

>  <SCORE.norm>
-1.08631

>  <RMSD>
1.107

$$$$
ligand
 OpenBabel02271912153D
libRbt.so/2013.1/901 2013/11/27
 26 28  0  0  0  0  0  0  0  0999 V2000
  127.8641   70.7687   -5.2175 N   0  0  0  0  0  0  0  0  0  0  0  0
  126.9438   69.8428   -4.4928 C   0  0  2  0  0  0  0  0  0  0  0  0
  126.2205   70.5675   -3.3943 C   0  0  0  0  0  0  0  0  0  0  0  0
  125.7460   69.9616   -2.4345 O   0  0  0  0  0  0  0  0  0  0  0  0
  127.7275   68.6728   -3.9041 C   0  0  0  0  0  0  0  0  0  0  0  0
  126.8651   67.4448   -3.6286 C   0  0  0  0  0  0  0  0  0  0  0  0
  127.4104   66.6440   -2.1560 S   0  0  0  0  0  0  0  0  0  0  0  0
  129.0513   66.1544   -2.5790 C   0  0  0  0  0  0  0  0  0  0  0  0
  129.9531   66.0808   -1.3481 C   0  0  1  0  0  0  0  0  0  0  0  0
  129.5717   64.9909   -0.5060 O   0  0  0  0  0  0  0  0  0  0  0  0
  131.3962   65.8471   -1.7650 C   0  0  1  0  0  0  0  0  0  0  0  0
  132.2520   66.7842   -1.1043 O   0  0  0  0  0  0  0  0  0  0  0  0
  131.7230   64.4208   -1.3592 C   0  0  1  0  0  0  0  0  0  0  0  0
  132.8922   64.3665   -0.5345 O   0  0  0  0  0  0  0  0  0  0  0  0
  130.5143   63.9147   -0.5808 C   0  0  2  0  0  0  0  0  0  0  0  0
  126.0766   71.7886   -3.4343 O   0  0  0  0  0  0  0  0  0  0  0  0
  130.9376   58.8107   -1.8978 N   0  0  0  0  0  0  0  0  0  0  0  0
  131.8021   59.6018   -1.2311 C   0  0  0  0  0  0  0  0  0  0  0  0
  131.5610   60.9014   -0.9615 N   0  0  0  0  0  0  0  0  0  0  0  0
  130.4076   61.5046   -1.3572 C   0  0  0  0  0  0  0  0  0  0  0  0
  129.4142   60.7015   -2.0916 C   0  0  0  0  0  0  0  0  0  0  0  0
  129.7490   59.2780   -2.3493 C   0  0  0  0  0  0  0  0  0  0  0  0
  128.8899   58.4741   -3.0201 N   0  0  0  0  0  0  0  0  0  0  0  0
  128.3792   61.5153   -2.3614 N   0  0  0  0  0  0  0  0  0  0  0  0
  128.6809   62.7343   -1.8493 C   0  0  0  0  0  0  0  0  0  0  0  0
  129.8884   62.7362   -1.2501 N   0  0  0  0  0  0  0  0  0  0  0  0
  2  1  1  1  0  0  0
  2  3  1  0  0  0  0
  2  5  1  0  0  0  0
  3  4  1  0  0  0  0
  3 16  1  0  0  0  0
  5  6  1  0  0  0  0
  6  7  1  0  0  0  0
  7  8  1  0  0  0  0
  9  8  1  6  0  0  0
  9 10  1  0  0  0  0
  9 11  1  0  0  0  0
 10 15  1  0  0  0  0
 11 12  1  1  0  0  0
 11 13  1  0  0  0  0
 13 14  1  1  0  0  0
 13 15  1  0  0  0  0
 15 26  1  6  0  0  0
 17 18  2  0  0  0  0
 17 22  1  0  0  0  0
 18 19  1  0  0  0  0
 19 20  2  0  0  0  0
 20 21  1  0  0  0  0
 20 26  1  0  0  0  0
 21 22  2  0  0  0  0
 21 24  1  0  0  0  0
 22 23  1  0  0  0  0
 24 25  2  0  0  0  0
 25 26  1  0  0  0  0
M  END
>  <CHROM.1>
-157.45723750,-157.88873439,-143.53485076,-62.86683235,151.62260168,69.19673649
-171.60341519,129.20035858,65.01255025,-2.17636389,1.97835590,-0.45003421
-0.01053631

>  <Name>
ligand

>  <RI>
0

>  <Rbt.Current_Directory>
/home/itssahil/PROJECTS/Mol_Feturizer/Test_systems_manuscript/rnas/3npn

>  <Rbt.Executable>
rbdock ($Id: //depot/dev/client3/rdock/2013.1/src/exe/rbdock.cxx#4 $)

>  <Rbt.Library>
libRbt.so (2013.1, Build901 2013/11/27)

>  <Rbt.Parameter_File>
/export/apps/rDock/src/rDock_2013.1_src/data/scripts/dock_solv.prm

>  <Rbt.Receptor>
prm/pocket_docking_3.prm

>  <SCORE>
-27.0179

>  <SCORE.INTER>
-28.8113

>  <SCORE.INTER.CONST>
1

>  <SCORE.INTER.POLAR>
0

>  <SCORE.INTER.ROT>
7

>  <SCORE.INTER.SOLV>
26.6459

>  <SCORE.INTER.VDW>
-36.3562

>  <SCORE.INTER.norm>
-1.10813

>  <SCORE.INTRA>
1.79337

>  <SCORE.INTRA.DIHEDRAL>
5.09199

>  <SCORE.INTRA.DIHEDRAL.0>
4.37896

>  <SCORE.INTRA.POLAR>
0

>  <SCORE.INTRA.POLAR.0>
0

>  <SCORE.INTRA.REPUL>
0

>  <SCORE.INTRA.REPUL.0>
0

>  <SCORE.INTRA.SOLV>
-0.867175

>  <SCORE.INTRA.SOLV.lig_0>
-50.5538

>  <SCORE.INTRA.VDW>
-0.31904

>  <SCORE.INTRA.VDW.0>
-1.30673

>  <SCORE.INTRA.norm>
0.0689756

>  <SCORE.RESTR>
0

>  <SCORE.RESTR.CAVITY>
0

>  <SCORE.RESTR.norm>
0

>  <SCORE.SYSTEM>
0

>  <SCORE.SYSTEM.CONST>
0

>  <SCORE.SYSTEM.DIHEDRAL>
0

>  <SCORE.SYSTEM.SOLV>
0

>  <SCORE.SYSTEM.norm>
0

>  <SCORE.heavy>
26

>  <SCORE.norm>
-1.03915

>  <RMSD>
1.113

$$$$
ligand
 OpenBabel02271912153D
libRbt.so/2013.1/901 2013/11/27
 26 28  0  0  0  0  0  0  0  0999 V2000
  126.1619   70.8203   -2.3297 N   0  0  0  0  0  0  0  0  0  0  0  0
  127.1643   70.7548   -3.4343 C   0  0  2  0  0  0  0  0  0  0  0  0
  126.6438   69.9257   -4.5732 C   0  0  0  0  0  0  0  0  0  0  0  0
  126.8351   70.2560   -5.7427 O   0  0  0  0  0  0  0  0  0  0  0  0
  128.4738   70.1590   -2.9246 C   0  0  0  0  0  0  0  0  0  0  0  0
  128.2960   68.8114   -2.2319 C   0  0  0  0  0  0  0  0  0  0  0  0
  128.3096   67.5143   -3.4254 S   0  0  0  0  0  0  0  0  0  0  0  0
  128.3731   66.0714   -2.4129 C   0  0  0  0  0  0  0  0  0  0  0  0
  129.5503   66.1160   -1.4403 C   0  0  1  0  0  0  0  0  0  0  0  0
  129.5212   64.9913   -0.5590 O   0  0  0  0  0  0  0  0  0  0  0  0
  130.8651   66.0609   -2.2012 C   0  0  1  0  0  0  0  0  0  0  0  0
  131.7362   67.1000   -1.7445 O   0  0  0  0  0  0  0  0  0  0  0  0
  131.4518   64.6881   -1.9237 C   0  0  1  0  0  0  0  0  0  0  0  0
  132.7847   64.7831   -1.4095 O   0  0  0  0  0  0  0  0  0  0  0  0
  130.5405   64.0398   -0.8881 C   0  0  2  0  0  0  0  0  0  0  0  0
  126.0026   68.8975   -4.3614 O   0  0  0  0  0  0  0  0  0  0  0  0
  131.0253   58.8375   -1.7033 N   0  0  0  0  0  0  0  0  0  0  0  0
  131.8943   59.7060   -1.1480 C   0  0  0  0  0  0  0  0  0  0  0  0
  131.6355   61.0218   -1.0014 N   0  0  0  0  0  0  0  0  0  0  0  0
  130.4582   61.5626   -1.4164 C   0  0  0  0  0  0  0  0  0  0  0  0
  129.4586   60.6731   -2.0335 C   0  0  0  0  0  0  0  0  0  0  0  0
  129.8139   59.2368   -2.1591 C   0  0  0  0  0  0  0  0  0  0  0  0
  128.9505   58.3552   -2.7173 N   0  0  0  0  0  0  0  0  0  0  0  0
  128.3993   61.4380   -2.3484 N   0  0  0  0  0  0  0  0  0  0  0  0
  128.6923   62.7071   -1.9707 C   0  0  0  0  0  0  0  0  0  0  0  0
  129.9178   62.7896   -1.4154 N   0  0  0  0  0  0  0  0  0  0  0  0
  2  1  1  1  0  0  0
  2  3  1  0  0  0  0
  2  5  1  0  0  0  0
  3  4  1  0  0  0  0
  3 16  1  0  0  0  0
  5  6  1  0  0  0  0
  6  7  1  0  0  0  0
  7  8  1  0  0  0  0
  9  8  1  6  0  0  0
  9 10  1  0  0  0  0
  9 11  1  0  0  0  0
 10 15  1  0  0  0  0
 11 12  1  1  0  0  0
 11 13  1  0  0  0  0
 13 14  1  1  0  0  0
 13 15  1  0  0  0  0
 15 26  1  6  0  0  0
 17 18  2  0  0  0  0
 17 22  1  0  0  0  0
 18 19  1  0  0  0  0
 19 20  2  0  0  0  0
 20 21  1  0  0  0  0
 20 26  1  0  0  0  0
 21 22  2  0  0  0  0
 21 24  1  0  0  0  0
 22 23  1  0  0  0  0
 24 25  2  0  0  0  0
 25 26  1  0  0  0  0
M  END
>  <CHROM.1>
140.01853464,53.47403109,85.50320069,170.69866591,-54.63415413,175.36390843
-156.52988838,129.28310067,65.14846994,-2.36276996,1.93567276,-0.49011026
-0.03129099

>  <Name>
ligand

>  <RI>
0

>  <Rbt.Current_Directory>
/home/itssahil/PROJECTS/Mol_Feturizer/Test_systems_manuscript/rnas/3npn

>  <Rbt.Executable>
rbdock ($Id: //depot/dev/client3/rdock/2013.1/src/exe/rbdock.cxx#4 $)

>  <Rbt.Library>
libRbt.so (2013.1, Build901 2013/11/27)

>  <Rbt.Parameter_File>
/export/apps/rDock/src/rDock_2013.1_src/data/scripts/dock_solv.prm

>  <Rbt.Receptor>
prm/pocket_docking_6.prm

>  <SCORE>
-24.8074

>  <SCORE.INTER>
-24.9263

>  <SCORE.INTER.CONST>
1

>  <SCORE.INTER.POLAR>
0

>  <SCORE.INTER.ROT>
7

>  <SCORE.INTER.SOLV>
25.9827

>  <SCORE.INTER.VDW>
-33.5451

>  <SCORE.INTER.norm>
-0.958704

>  <SCORE.INTRA>
0.11889

>  <SCORE.INTRA.DIHEDRAL>
0.863452

>  <SCORE.INTRA.DIHEDRAL.0>
4.37896

>  <SCORE.INTRA.POLAR>
0

>  <SCORE.INTRA.POLAR.0>
0

>  <SCORE.INTRA.REPUL>
0

>  <SCORE.INTRA.REPUL.0>
0

>  <SCORE.INTRA.SOLV>
0.569798

>  <SCORE.INTRA.SOLV.lig_0>
-50.5538

>  <SCORE.INTRA.VDW>
-0.597734

>  <SCORE.INTRA.VDW.0>
-1.30673

>  <SCORE.INTRA.norm>
0.0045727

>  <SCORE.RESTR>
0

>  <SCORE.RESTR.CAVITY>
0

>  <SCORE.RESTR.norm>
0

>  <SCORE.SYSTEM>
0

>  <SCORE.SYSTEM.CONST>
0

>  <SCORE.SYSTEM.DIHEDRAL>
0

>  <SCORE.SYSTEM.SOLV>
0

>  <SCORE.SYSTEM.norm>
0

>  <SCORE.heavy>
26

>  <SCORE.norm>
-0.954131

>  <RMSD>
1.120

$$$$
ligand
 OpenBabel02271912153D
libRbt.so/2013.1/901 2013/11/27
 26 28  0  0  0  0  0  0  0  0999 V2000
  126.6854   69.1434   -2.2230 N   0  0  0  0  0  0  0  0  0  0  0  0
  127.2890   69.2218   -3.5864 C   0  0  2  0  0  0  0  0  0  0  0  0
  126.6698   70.3389   -4.3762 C   0  0  0  0  0  0  0  0  0  0  0  0
  126.1164   71.2851   -3.8176 O   0  0  0  0  0  0  0  0  0  0  0  0
  127.0933   67.9018   -4.3275 C   0  0  0  0  0  0  0  0  0  0  0  0
  127.9803   66.7767   -3.8033 C   0  0  0  0  0  0  0  0  0  0  0  0
  129.6674   67.1096   -4.1908 S   0  0  0  0  0  0  0  0  0  0  0  0
  130.5052   65.7686   -3.4092 C   0  0  0  0  0  0  0  0  0  0  0  0
  130.5847   65.9585   -1.8955 C   0  0  1  0  0  0  0  0  0  0  0  0
  129.5508   65.2224   -1.2383 O   0  0  0  0  0  0  0  0  0  0  0  0
  131.9135   65.4416   -1.3684 C   0  0  1  0  0  0  0  0  0  0  0  0
  132.5174   66.4244   -0.5218 O   0  0  0  0  0  0  0  0  0  0  0  0
  131.5929   64.1727   -0.5983 C   0  0  1  0  0  0  0  0  0  0  0  0
  132.1050   64.2282    0.7377 O   0  0  0  0  0  0  0  0  0  0  0  0
  130.0725   64.0688   -0.5679 C   0  0  2  0  0  0  0  0  0  0  0  0
  126.6931   70.3282   -5.6061 O   0  0  0  0  0  0  0  0  0  0  0  0
  131.0441   59.0116   -1.7699 N   0  0  0  0  0  0  0  0  0  0  0  0
  131.7940   59.8900   -1.0743 C   0  0  0  0  0  0  0  0  0  0  0  0
  131.4175   61.1641   -0.8407 N   0  0  0  0  0  0  0  0  0  0  0  0
  130.2346   61.6496   -1.3054 C   0  0  0  0  0  0  0  0  0  0  0  0
  129.3612   60.7461   -2.0749 C   0  0  0  0  0  0  0  0  0  0  0  0
  129.8420   59.3576   -2.2897 C   0  0  0  0  0  0  0  0  0  0  0  0
  129.0989   58.4670   -2.9888 N   0  0  0  0  0  0  0  0  0  0  0  0
  128.2697   61.4541   -2.4116 N   0  0  0  0  0  0  0  0  0  0  0  0
  128.4277   62.7028   -1.9067 C   0  0  0  0  0  0  0  0  0  0  0  0
  129.5966   62.8274   -1.2470 N   0  0  0  0  0  0  0  0  0  0  0  0
  2  1  1  1  0  0  0
  2  3  1  0  0  0  0
  2  5  1  0  0  0  0
  3  4  1  0  0  0  0
  3 16  1  0  0  0  0
  5  6  1  0  0  0  0
  6  7  1  0  0  0  0
  7  8  1  0  0  0  0
  9  8  1  6  0  0  0
  9 10  1  0  0  0  0
  9 11  1  0  0  0  0
 10 15  1  0  0  0  0
 11 12  1  1  0  0  0
 11 13  1  0  0  0  0
 13 14  1  1  0  0  0
 13 15  1  0  0  0  0
 15 26  1  6  0  0  0
 17 18  2  0  0  0  0
 17 22  1  0  0  0  0
 18 19  1  0  0  0  0
 19 20  2  0  0  0  0
 20 21  1  0  0  0  0
 20 26  1  0  0  0  0
 21 22  2  0  0  0  0
 21 24  1  0  0  0  0
 22 23  1  0  0  0  0
 24 25  2  0  0  0  0
 25 26  1  0  0  0  0
M  END
>  <CHROM.1>
22.51824473,-72.80479144,-68.60747042,176.22568588,-75.75210876,98.00384042
150.63246382,129.46558354,64.89082225,-2.35788179,2.00350939,-0.65084825
-0.01296946

>  <Name>
ligand

>  <RI>
0

>  <Rbt.Current_Directory>
/home/itssahil/PROJECTS/Mol_Feturizer/Test_systems_manuscript/rnas/3npn

>  <Rbt.Executable>
rbdock ($Id: //depot/dev/client3/rdock/2013.1/src/exe/rbdock.cxx#4 $)

>  <Rbt.Library>
libRbt.so (2013.1, Build901 2013/11/27)

>  <Rbt.Parameter_File>
/export/apps/rDock/src/rDock_2013.1_src/data/scripts/dock_solv.prm

>  <Rbt.Receptor>
prm/pocket_docking_6.prm

>  <SCORE>
-24.3725

>  <SCORE.INTER>
-25.5495

>  <SCORE.INTER.CONST>
1

>  <SCORE.INTER.POLAR>
0

>  <SCORE.INTER.ROT>
7

>  <SCORE.INTER.SOLV>
24.1725

>  <SCORE.INTER.VDW>
-33.3572

>  <SCORE.INTER.norm>
-0.982672

>  <SCORE.INTRA>
1.17699

>  <SCORE.INTRA.DIHEDRAL>
3.32643

>  <SCORE.INTRA.DIHEDRAL.0>
4.37896

>  <SCORE.INTRA.POLAR>
0

>  <SCORE.INTRA.POLAR.0>
0

>  <SCORE.INTRA.REPUL>
0

>  <SCORE.INTRA.REPUL.0>
0

>  <SCORE.INTRA.SOLV>
0.184505

>  <SCORE.INTRA.SOLV.lig_0>
-50.5538

>  <SCORE.INTRA.VDW>
-0.578475

>  <SCORE.INTRA.VDW.0>
-1.30673

>  <SCORE.INTRA.norm>
0.045269

>  <SCORE.RESTR>
0

>  <SCORE.RESTR.CAVITY>
0

>  <SCORE.RESTR.norm>
0

>  <SCORE.SYSTEM>
0

>  <SCORE.SYSTEM.CONST>
0

>  <SCORE.SYSTEM.DIHEDRAL>
0

>  <SCORE.SYSTEM.SOLV>
0

>  <SCORE.SYSTEM.norm>
0

>  <SCORE.heavy>
26

>  <SCORE.norm>
-0.937403

>  <RMSD>
1.137

$$$$
ligand
 OpenBabel02271912153D
libRbt.so/2013.1/901 2013/11/27
 26 28  0  0  0  0  0  0  0  0999 V2000
  128.1081   70.0919   -4.6280 N   0  0  0  0  0  0  0  0  0  0  0  0
  126.7727   69.5597   -4.2243 C   0  0  2  0  0  0  0  0  0  0  0  0
  126.1404   70.4456   -3.1897 C   0  0  0  0  0  0  0  0  0  0  0  0
  125.6390   69.9772   -2.1686 O   0  0  0  0  0  0  0  0  0  0  0  0
  126.9137   68.1450   -3.6691 C   0  0  0  0  0  0  0  0  0  0  0  0
  127.8692   68.0531   -2.4833 C   0  0  0  0  0  0  0  0  0  0  0  0
  127.9862   66.3829   -1.9322 S   0  0  0  0  0  0  0  0  0  0  0  0
  129.6473   65.9632   -2.3516 C   0  0  0  0  0  0  0  0  0  0  0  0
  130.5017   65.7297   -1.1070 C   0  0  1  0  0  0  0  0  0  0  0  0
  129.9850   64.6435   -0.3352 O   0  0  0  0  0  0  0  0  0  0  0  0
  131.9235   65.3668   -1.5039 C   0  0  1  0  0  0  0  0  0  0  0  0
  132.8538   66.1719   -0.7735 O   0  0  0  0  0  0  0  0  0  0  0  0
  132.0880   63.8946   -1.1706 C   0  0  1  0  0  0  0  0  0  0  0  0
  133.2216   63.6734   -0.3243 O   0  0  0  0  0  0  0  0  0  0  0  0
  130.8117   63.4789   -0.4484 C   0  0  2  0  0  0  0  0  0  0  0  0
  126.1001   71.6652   -3.3452 O   0  0  0  0  0  0  0  0  0  0  0  0
  130.7307   58.4327   -2.0276 N   0  0  0  0  0  0  0  0  0  0  0  0
  131.6535   59.0912   -1.2977 C   0  0  0  0  0  0  0  0  0  0  0  0
  131.5436   60.3938   -0.9646 N   0  0  0  0  0  0  0  0  0  0  0  0
  130.4735   61.1370   -1.3560 C   0  0  0  0  0  0  0  0  0  0  0  0
  129.4234   60.4840   -2.1573 C   0  0  0  0  0  0  0  0  0  0  0  0
  129.6129   59.0476   -2.4829 C   0  0  0  0  0  0  0  0  0  0  0  0
  128.6943   58.3761   -3.2173 N   0  0  0  0  0  0  0  0  0  0  0  0
  128.4895   61.4171   -2.4087 N   0  0  0  0  0  0  0  0  0  0  0  0
  128.9031   62.5689   -1.8242 C   0  0  0  0  0  0  0  0  0  0  0  0
  130.0850   62.4102   -1.1958 N   0  0  0  0  0  0  0  0  0  0  0  0
  2  1  1  1  0  0  0
  2  3  1  0  0  0  0
  2  5  1  0  0  0  0
  3  4  1  0  0  0  0
  3 16  1  0  0  0  0
  5  6  1  0  0  0  0
  6  7  1  0  0  0  0
  7  8  1  0  0  0  0
  9  8  1  6  0  0  0
  9 10  1  0  0  0  0
  9 11  1  0  0  0  0
 10 15  1  0  0  0  0
 11 12  1  1  0  0  0
 11 13  1  0  0  0  0
 13 14  1  1  0  0  0
 13 15  1  0  0  0  0
 15 26  1  6  0  0  0
 17 18  2  0  0  0  0
 17 22  1  0  0  0  0
 18 19  1  0  0  0  0
 19 20  2  0  0  0  0
 20 21  1  0  0  0  0
 20 26  1  0  0  0  0
 21 22  2  0  0  0  0
 21 24  1  0  0  0  0
 22 23  1  0  0  0  0
 24 25  2  0  0  0  0
 25 26  1  0  0  0  0
M  END
>  <CHROM.1>
-132.61330845,57.26612610,-179.03936442,112.16035964,113.21096648,61.19467622
-171.39338625,129.38976312,64.70961607,-2.00499717,1.98811371,-0.45189691
0.03050438

>  <Name>
ligand

>  <RI>
0

>  <Rbt.Current_Directory>
/home/itssahil/PROJECTS/Mol_Feturizer/Test_systems_manuscript/rnas/3npn

>  <Rbt.Executable>
rbdock ($Id: //depot/dev/client3/rdock/2013.1/src/exe/rbdock.cxx#4 $)

>  <Rbt.Library>
libRbt.so (2013.1, Build901 2013/11/27)

>  <Rbt.Parameter_File>
/export/apps/rDock/src/rDock_2013.1_src/data/scripts/dock_solv.prm

>  <Rbt.Receptor>
prm/pocket_docking_2.prm

>  <SCORE>
-26.7204

>  <SCORE.INTER>
-28.3406

>  <SCORE.INTER.CONST>
1

>  <SCORE.INTER.POLAR>
0

>  <SCORE.INTER.ROT>
7

>  <SCORE.INTER.SOLV>
24.1444

>  <SCORE.INTER.VDW>
-35.2085

>  <SCORE.INTER.norm>
-1.09002

>  <SCORE.INTRA>
1.56951

>  <SCORE.INTRA.DIHEDRAL>
2.93826

>  <SCORE.INTRA.DIHEDRAL.0>
4.37896

>  <SCORE.INTRA.POLAR>
0

>  <SCORE.INTRA.POLAR.0>
0

>  <SCORE.INTRA.REPUL>
0

>  <SCORE.INTRA.REPUL.0>
0

>  <SCORE.INTRA.SOLV>
-0.187068

>  <SCORE.INTRA.SOLV.lig_0>
-50.5538

>  <SCORE.INTRA.VDW>
0.193916

>  <SCORE.INTRA.VDW.0>
-1.30673

>  <SCORE.INTRA.norm>
0.0603658

>  <SCORE.RESTR>
0.0507075

>  <SCORE.RESTR.CAVITY>
0.0507075

>  <SCORE.RESTR.norm>
0.00195029

>  <SCORE.SYSTEM>
0

>  <SCORE.SYSTEM.CONST>
0

>  <SCORE.SYSTEM.DIHEDRAL>
0

>  <SCORE.SYSTEM.SOLV>
0

>  <SCORE.SYSTEM.norm>
0

>  <SCORE.heavy>
26

>  <SCORE.norm>
-1.02771

>  <RMSD>
1.146

$$$$
ligand
 OpenBabel02271912153D
libRbt.so/2013.1/901 2013/11/27
 26 28  0  0  0  0  0  0  0  0999 V2000
  125.5472   71.2823   -2.7629 N   0  0  0  0  0  0  0  0  0  0  0  0
  126.8039   70.5268   -3.0444 C   0  0  2  0  0  0  0  0  0  0  0  0
  127.2260   70.7146   -4.4733 C   0  0  0  0  0  0  0  0  0  0  0  0
  126.5206   70.3264   -5.4035 O   0  0  0  0  0  0  0  0  0  0  0  0
  126.6012   69.0405   -2.7622 C   0  0  0  0  0  0  0  0  0  0  0  0
  127.8947   68.2333   -2.8133 C   0  0  0  0  0  0  0  0  0  0  0  0
  127.5292   66.5089   -2.8036 S   0  0  0  0  0  0  0  0  0  0  0  0
  129.1287   65.7838   -2.9680 C   0  0  0  0  0  0  0  0  0  0  0  0
  129.8944   65.8007   -1.6462 C   0  0  1  0  0  0  0  0  0  0  0  0
  129.4200   64.7731   -0.7736 O   0  0  0  0  0  0  0  0  0  0  0  0
  131.3723   65.5413   -1.8897 C   0  0  1  0  0  0  0  0  0  0  0  0
  132.1580   66.5254   -1.2105 O   0  0  0  0  0  0  0  0  0  0  0  0
  131.6468   64.1485   -1.3506 C   0  0  1  0  0  0  0  0  0  0  0  0
  132.7216   64.1563   -0.4045 O   0  0  0  0  0  0  0  0  0  0  0  0
  130.3596   63.6965   -0.6707 C   0  0  2  0  0  0  0  0  0  0  0  0
  128.2966   71.2548   -4.7474 O   0  0  0  0  0  0  0  0  0  0  0  0
  131.0277   58.5734   -1.7983 N   0  0  0  0  0  0  0  0  0  0  0  0
  131.8391   59.4212   -1.1346 C   0  0  0  0  0  0  0  0  0  0  0  0
  131.5378   60.7180   -0.9171 N   0  0  0  0  0  0  0  0  0  0  0  0
  130.3736   61.2596   -1.3663 C   0  0  0  0  0  0  0  0  0  0  0  0
  129.4359   60.3922   -2.1009 C   0  0  0  0  0  0  0  0  0  0  0  0
  129.8354   58.9759   -2.2997 C   0  0  0  0  0  0  0  0  0  0  0  0
  129.0300   58.1154   -2.9668 N   0  0  0  0  0  0  0  0  0  0  0  0
  128.3776   61.1532   -2.4283 N   0  0  0  0  0  0  0  0  0  0  0  0
  128.6144   62.3999   -1.9500 C   0  0  0  0  0  0  0  0  0  0  0  0
  129.8022   62.4716   -1.3168 N   0  0  0  0  0  0  0  0  0  0  0  0
  2  1  1  6  0  0  0
  2  3  1  0  0  0  0
  2  5  1  0  0  0  0
  3  4  1  0  0  0  0
  3 16  1  0  0  0  0
  5  6  1  0  0  0  0
  6  7  1  0  0  0  0
  7  8  1  0  0  0  0
  9  8  1  6  0  0  0
  9 10  1  0  0  0  0
  9 11  1  0  0  0  0
 10 15  1  0  0  0  0
 11 12  1  1  0  0  0
 11 13  1  0  0  0  0
 13 14  1  1  0  0  0
 13 15  1  0  0  0  0
 15 26  1  6  0  0  0
 17 18  2  0  0  0  0
 17 22  1  0  0  0  0
 18 19  1  0  0  0  0
 19 20  2  0  0  0  0
 20 21  1  0  0  0  0
 20 26  1  0  0  0  0
 21 22  2  0  0  0  0
 21 24  1  0  0  0  0
 22 23  1  0  0  0  0
 24 25  2  0  0  0  0
 25 26  1  0  0  0  0
M  END
>  <CHROM.1>
-62.99343142,-170.90367652,-168.56163070,176.61321837,77.99178163,77.16759834
-177.08010608,129.25554287,64.90778944,-2.27295081,1.94030326,-0.47880505
-0.03068614

>  <Name>
ligand

>  <RI>
0

>  <Rbt.Current_Directory>
/home/itssahil/PROJECTS/Mol_Feturizer/Test_systems_manuscript/rnas/3npn

>  <Rbt.Executable>
rbdock ($Id: //depot/dev/client3/rdock/2013.1/src/exe/rbdock.cxx#4 $)

>  <Rbt.Library>
libRbt.so (2013.1, Build901 2013/11/27)

>  <Rbt.Parameter_File>
/export/apps/rDock/src/rDock_2013.1_src/data/scripts/dock_solv.prm

>  <Rbt.Receptor>
prm/pocket_docking_3.prm

>  <SCORE>
-30.0791

>  <SCORE.INTER>
-28.8223

>  <SCORE.INTER.CONST>
1

>  <SCORE.INTER.POLAR>
0

>  <SCORE.INTER.ROT>
7

>  <SCORE.INTER.SOLV>
29.4746

>  <SCORE.INTER.VDW>
-37.3064

>  <SCORE.INTER.norm>
-1.10855

>  <SCORE.INTRA>
-1.25679

>  <SCORE.INTRA.DIHEDRAL>
0.594938

>  <SCORE.INTRA.DIHEDRAL.0>
4.37896

>  <SCORE.INTRA.POLAR>
0

>  <SCORE.INTRA.POLAR.0>
0

>  <SCORE.INTRA.REPUL>
0

>  <SCORE.INTRA.REPUL.0>
0

>  <SCORE.INTRA.SOLV>
-0.927975

>  <SCORE.INTRA.SOLV.lig_0>
-50.5538

>  <SCORE.INTRA.VDW>
-1.09027

>  <SCORE.INTRA.VDW.0>
-1.30673

>  <SCORE.INTRA.norm>
-0.0483379

>  <SCORE.RESTR>
0

>  <SCORE.RESTR.CAVITY>
0

>  <SCORE.RESTR.norm>
0

>  <SCORE.SYSTEM>
0

>  <SCORE.SYSTEM.CONST>
0

>  <SCORE.SYSTEM.DIHEDRAL>
0

>  <SCORE.SYSTEM.SOLV>
0

>  <SCORE.SYSTEM.norm>
0

>  <SCORE.heavy>
26

>  <SCORE.norm>
-1.15689

>  <RMSD>
1.165

$$$$
ligand
 OpenBabel02271912153D
libRbt.so/2013.1/901 2013/11/27
 26 28  0  0  0  0  0  0  0  0999 V2000
  127.0729   68.7261   -1.8268 N   0  0  0  0  0  0  0  0  0  0  0  0
  127.3130   69.4089   -3.1327 C   0  0  2  0  0  0  0  0  0  0  0  0
  126.5284   70.6868   -3.2142 C   0  0  0  0  0  0  0  0  0  0  0  0
  126.7708   71.5307   -4.0759 O   0  0  0  0  0  0  0  0  0  0  0  0
  126.9194   68.4925   -4.2882 C   0  0  0  0  0  0  0  0  0  0  0  0
  127.8806   67.3249   -4.4885 C   0  0  0  0  0  0  0  0  0  0  0  0
  127.8890   66.2992   -3.0549 S   0  0  0  0  0  0  0  0  0  0  0  0
  129.5193   65.6263   -3.0826 C   0  0  0  0  0  0  0  0  0  0  0  0
  130.1515   65.6220   -1.6920 C   0  0  1  0  0  0  0  0  0  0  0  0
  129.5253   64.6477   -0.8546 O   0  0  0  0  0  0  0  0  0  0  0  0
  131.6250   65.2598   -1.7839 C   0  0  1  0  0  0  0  0  0  0  0  0
  132.4059   66.2047   -1.0458 O   0  0  0  0  0  0  0  0  0  0  0  0
  131.7501   63.8644   -1.1985 C   0  0  1  0  0  0  0  0  0  0  0  0
  132.7254   63.8220   -0.1510 O   0  0  0  0  0  0  0  0  0  0  0  0
  130.3749   63.5138   -0.6424 C   0  0  2  0  0  0  0  0  0  0  0  0
  125.6275   70.9244   -2.4110 O   0  0  0  0  0  0  0  0  0  0  0  0
  130.9900   58.4240   -1.9381 N   0  0  0  0  0  0  0  0  0  0  0  0
  131.8149   59.2439   -1.2562 C   0  0  0  0  0  0  0  0  0  0  0  0
  131.5263   60.5355   -0.9947 N   0  0  0  0  0  0  0  0  0  0  0  0
  130.3621   61.1002   -1.4148 C   0  0  0  0  0  0  0  0  0  0  0  0
  129.4102   60.2639   -2.1669 C   0  0  0  0  0  0  0  0  0  0  0  0
  129.7961   58.8515   -2.4144 C   0  0  0  0  0  0  0  0  0  0  0  0
  128.9772   58.0189   -3.1002 N   0  0  0  0  0  0  0  0  0  0  0  0
  128.3549   61.0431   -2.4593 N   0  0  0  0  0  0  0  0  0  0  0  0
  128.6066   62.2722   -1.9443 C   0  0  0  0  0  0  0  0  0  0  0  0
  129.8012   62.3144   -1.3212 N   0  0  0  0  0  0  0  0  0  0  0  0
  2  1  1  1  0  0  0
  2  3  1  0  0  0  0
  2  5  1  0  0  0  0
  3  4  1  0  0  0  0
  3 16  1  0  0  0  0
  5  6  1  0  0  0  0
  6  7  1  0  0  0  0
  7  8  1  0  0  0  0
  9  8  1  6  0  0  0
  9 10  1  0  0  0  0
  9 11  1  0  0  0  0
 10 15  1  0  0  0  0
 11 12  1  1  0  0  0
 11 13  1  0  0  0  0
 13 14  1  1  0  0  0
 13 15  1  0  0  0  0
 15 26  1  6  0  0  0
 17 18  2  0  0  0  0
 17 22  1  0  0  0  0
 18 19  1  0  0  0  0
 19 20  2  0  0  0  0
 20 21  1  0  0  0  0
 20 26  1  0  0  0  0
 21 22  2  0  0  0  0
 21 24  1  0  0  0  0
 22 23  1  0  0  0  0
 24 25  2  0  0  0  0
 25 26  1  0  0  0  0
M  END
>  <CHROM.1>
165.66785831,-71.65569430,62.16086540,-151.04727949,137.10159505,70.86876567
175.25909715,129.29025969,64.61742469,-2.19271269,1.97573906,-0.50595746
0.04614794

>  <Name>
ligand

>  <RI>
0

>  <Rbt.Current_Directory>
/home/itssahil/PROJECTS/Mol_Feturizer/Test_systems_manuscript/rnas/3npn

>  <Rbt.Executable>
rbdock ($Id: //depot/dev/client3/rdock/2013.1/src/exe/rbdock.cxx#4 $)

>  <Rbt.Library>
libRbt.so (2013.1, Build901 2013/11/27)

>  <Rbt.Parameter_File>
/export/apps/rDock/src/rDock_2013.1_src/data/scripts/dock_solv.prm

>  <Rbt.Receptor>
prm/pocket_docking_5.prm

>  <SCORE>
-27.4154

>  <SCORE.INTER>
-28.6864

>  <SCORE.INTER.CONST>
1

>  <SCORE.INTER.POLAR>
0

>  <SCORE.INTER.ROT>
7

>  <SCORE.INTER.SOLV>
25.3723

>  <SCORE.INTER.VDW>
-35.8484

>  <SCORE.INTER.norm>
-1.10332

>  <SCORE.INTRA>
1.271

>  <SCORE.INTRA.DIHEDRAL>
2.34881

>  <SCORE.INTRA.DIHEDRAL.0>
4.37896

>  <SCORE.INTRA.POLAR>
0

>  <SCORE.INTRA.POLAR.0>
0

>  <SCORE.INTRA.REPUL>
0

>  <SCORE.INTRA.REPUL.0>
0

>  <SCORE.INTRA.SOLV>
1.65515

>  <SCORE.INTRA.SOLV.lig_0>
-50.5538

>  <SCORE.INTRA.VDW>
-0.730985

>  <SCORE.INTRA.VDW.0>
-1.30673

>  <SCORE.INTRA.norm>
0.0488845

>  <SCORE.RESTR>
0

>  <SCORE.RESTR.CAVITY>
0

>  <SCORE.RESTR.norm>
0

>  <SCORE.SYSTEM>
0

>  <SCORE.SYSTEM.CONST>
0

>  <SCORE.SYSTEM.DIHEDRAL>
0

>  <SCORE.SYSTEM.SOLV>
0

>  <SCORE.SYSTEM.norm>
0

>  <SCORE.heavy>
26

>  <SCORE.norm>
-1.05444

>  <RMSD>
1.168

$$$$
ligand
 OpenBabel02271912153D
libRbt.so/2013.1/901 2013/11/27
 26 28  0  0  0  0  0  0  0  0999 V2000
  127.5664   69.7354   -4.9294 N   0  0  0  0  0  0  0  0  0  0  0  0
  126.5011   69.5953   -3.8927 C   0  0  2  0  0  0  0  0  0  0  0  0
  126.2350   70.9140   -3.2253 C   0  0  0  0  0  0  0  0  0  0  0  0
  126.5508   71.9756   -3.7609 O   0  0  0  0  0  0  0  0  0  0  0  0
  126.9161   68.5662   -2.8446 C   0  0  0  0  0  0  0  0  0  0  0  0
  127.1246   67.1683   -3.4189 C   0  0  0  0  0  0  0  0  0  0  0  0
  127.7259   66.0855   -2.1647 S   0  0  0  0  0  0  0  0  0  0  0  0
  129.4530   66.0229   -2.5173 C   0  0  0  0  0  0  0  0  0  0  0  0
  130.2834   65.8687   -1.2443 C   0  0  1  0  0  0  0  0  0  0  0  0
  129.7794   64.8021   -0.4376 O   0  0  0  0  0  0  0  0  0  0  0  0
  131.7241   65.5311   -1.5924 C   0  0  1  0  0  0  0  0  0  0  0  0
  132.6133   66.3941   -0.8770 O   0  0  0  0  0  0  0  0  0  0  0  0
  131.9224   64.0801   -1.1911 C   0  0  1  0  0  0  0  0  0  0  0  0
  133.0411   63.9292   -0.3102 O   0  0  0  0  0  0  0  0  0  0  0  0
  130.6414   63.6586   -0.4807 C   0  0  2  0  0  0  0  0  0  0  0  0
  125.7015   70.9626   -2.1179 O   0  0  0  0  0  0  0  0  0  0  0  0
  130.8636   58.6165   -2.0593 N   0  0  0  0  0  0  0  0  0  0  0  0
  131.7662   59.3426   -1.3696 C   0  0  0  0  0  0  0  0  0  0  0  0
  131.5753   60.6344   -1.0309 N   0  0  0  0  0  0  0  0  0  0  0  0
  130.4375   61.2960   -1.3749 C   0  0  0  0  0  0  0  0  0  0  0  0
  129.4046   60.5657   -2.1305 C   0  0  0  0  0  0  0  0  0  0  0  0
  129.6850   59.1464   -2.4653 C   0  0  0  0  0  0  0  0  0  0  0  0
  128.7874   58.4075   -3.1599 N   0  0  0  0  0  0  0  0  0  0  0  0
  128.3946   61.4271   -2.3405 N   0  0  0  0  0  0  0  0  0  0  0  0
  128.7472   62.6075   -1.7734 C   0  0  0  0  0  0  0  0  0  0  0  0
  129.9637   62.5376   -1.1969 N   0  0  0  0  0  0  0  0  0  0  0  0
  2  1  1  6  0  0  0
  2  3  1  0  0  0  0
  2  5  1  0  0  0  0
  3  4  1  0  0  0  0
  3 16  1  0  0  0  0
  5  6  1  0  0  0  0
  6  7  1  0  0  0  0
  7  8  1  0  0  0  0
  9  8  1  6  0  0  0
  9 10  1  0  0  0  0
  9 11  1  0  0  0  0
 10 15  1  0  0  0  0
 11 12  1  1  0  0  0
 11 13  1  0  0  0  0
 13 14  1  1  0  0  0
 13 15  1  0  0  0  0
 15 26  1  6  0  0  0
 17 18  2  0  0  0  0
 17 22  1  0  0  0  0
 18 19  1  0  0  0  0
 19 20  2  0  0  0  0
 20 21  1  0  0  0  0
 20 26  1  0  0  0  0
 21 22  2  0  0  0  0
 21 24  1  0  0  0  0
 22 23  1  0  0  0  0
 24 25  2  0  0  0  0
 25 26  1  0  0  0  0
M  END
>  <CHROM.1>
20.49923350,-61.56483695,175.41491966,-100.58378172,147.00634801,49.67956607
-176.61071810,129.27566135,64.81988255,-2.06835613,1.99200107,-0.46536201
0.03548021

>  <Name>
ligand

>  <RI>
0

>  <Rbt.Current_Directory>
/home/itssahil/PROJECTS/Mol_Feturizer/Test_systems_manuscript/rnas/3npn

>  <Rbt.Executable>
rbdock ($Id: //depot/dev/client3/rdock/2013.1/src/exe/rbdock.cxx#4 $)

>  <Rbt.Library>
libRbt.so (2013.1, Build901 2013/11/27)

>  <Rbt.Parameter_File>
/export/apps/rDock/src/rDock_2013.1_src/data/scripts/dock_solv.prm

>  <Rbt.Receptor>
prm/pocket_docking_2.prm

>  <SCORE>
-30.0098

>  <SCORE.INTER>
-30.3385

>  <SCORE.INTER.CONST>
1

>  <SCORE.INTER.POLAR>
0

>  <SCORE.INTER.ROT>
7

>  <SCORE.INTER.SOLV>
25.3743

>  <SCORE.INTER.VDW>
-36.9504

>  <SCORE.INTER.norm>
-1.16687

>  <SCORE.INTRA>
0.328697

>  <SCORE.INTRA.DIHEDRAL>
1.97845

>  <SCORE.INTRA.DIHEDRAL.0>
4.37896

>  <SCORE.INTRA.POLAR>
0

>  <SCORE.INTRA.POLAR.0>
0

>  <SCORE.INTRA.REPUL>
0

>  <SCORE.INTRA.REPUL.0>
0

>  <SCORE.INTRA.SOLV>
-0.146106

>  <SCORE.INTRA.SOLV.lig_0>
-50.5538

>  <SCORE.INTRA.VDW>
-0.587473

>  <SCORE.INTRA.VDW.0>
-1.30673

>  <SCORE.INTRA.norm>
0.0126422

>  <SCORE.RESTR>
0

>  <SCORE.RESTR.CAVITY>
0

>  <SCORE.RESTR.norm>
0

>  <SCORE.SYSTEM>
0

>  <SCORE.SYSTEM.CONST>
0

>  <SCORE.SYSTEM.DIHEDRAL>
0

>  <SCORE.SYSTEM.SOLV>
0

>  <SCORE.SYSTEM.norm>
0

>  <SCORE.heavy>
26

>  <SCORE.norm>
-1.15422

>  <RMSD>
1.173

$$$$
ligand
 OpenBabel02271912153D
libRbt.so/2013.1/901 2013/11/27
 26 28  0  0  0  0  0  0  0  0999 V2000
  127.3570   69.6670   -5.2563 N   0  0  0  0  0  0  0  0  0  0  0  0
  126.5071   69.6157   -4.0298 C   0  0  2  0  0  0  0  0  0  0  0  0
  126.4127   70.9728   -3.3939 C   0  0  0  0  0  0  0  0  0  0  0  0
  125.5565   71.2224   -2.5463 O   0  0  0  0  0  0  0  0  0  0  0  0
  127.0854   68.6204   -3.0275 C   0  0  0  0  0  0  0  0  0  0  0  0
  127.0323   67.1746   -3.5116 C   0  0  0  0  0  0  0  0  0  0  0  0
  127.6244   66.0950   -2.2502 S   0  0  0  0  0  0  0  0  0  0  0  0
  129.3399   65.9660   -2.6395 C   0  0  0  0  0  0  0  0  0  0  0  0
  130.1988   65.8721   -1.3796 C   0  0  1  0  0  0  0  0  0  0  0  0
  129.7440   64.8127   -0.5351 O   0  0  0  0  0  0  0  0  0  0  0  0
  131.6426   65.5700   -1.7471 C   0  0  1  0  0  0  0  0  0  0  0  0
  132.5175   66.4792   -1.0726 O   0  0  0  0  0  0  0  0  0  0  0  0
  131.8940   64.1372   -1.3115 C   0  0  1  0  0  0  0  0  0  0  0  0
  133.0334   64.0450   -0.4493 O   0  0  0  0  0  0  0  0  0  0  0  0
  130.6406   63.6957   -0.5650 C   0  0  2  0  0  0  0  0  0  0  0  0
  127.1867   71.8734   -3.7148 O   0  0  0  0  0  0  0  0  0  0  0  0
  130.9175   58.5770   -1.8639 N   0  0  0  0  0  0  0  0  0  0  0  0
  131.7995   59.3427   -1.1904 C   0  0  0  0  0  0  0  0  0  0  0  0
  131.5964   60.6500   -0.9268 N   0  0  0  0  0  0  0  0  0  0  0  0
  130.4666   61.2878   -1.3360 C   0  0  0  0  0  0  0  0  0  0  0  0
  129.4560   60.5139   -2.0784 C   0  0  0  0  0  0  0  0  0  0  0  0
  129.7488   59.0798   -2.3289 C   0  0  0  0  0  0  0  0  0  0  0  0
  128.8719   58.3012   -3.0063 N   0  0  0  0  0  0  0  0  0  0  0  0
  128.4498   61.3588   -2.3611 N   0  0  0  0  0  0  0  0  0  0  0  0
  128.7843   62.5693   -1.8491 C   0  0  0  0  0  0  0  0  0  0  0  0
  129.9851   62.5353   -1.2376 N   0  0  0  0  0  0  0  0  0  0  0  0
  2  1  1  6  0  0  0
  2  3  1  0  0  0  0
  2  5  1  0  0  0  0
  3  4  1  0  0  0  0
  3 16  1  0  0  0  0
  5  6  1  0  0  0  0
  6  7  1  0  0  0  0
  7  8  1  0  0  0  0
  9  8  1  6  0  0  0
  9 10  1  0  0  0  0
  9 11  1  0  0  0  0
 10 15  1  0  0  0  0
 11 12  1  1  0  0  0
 11 13  1  0  0  0  0
 13 14  1  1  0  0  0
 13 15  1  0  0  0  0
 15 26  1  6  0  0  0
 17 18  2  0  0  0  0
 17 22  1  0  0  0  0
 18 19  1  0  0  0  0
 19 20  2  0  0  0  0
 20 21  1  0  0  0  0
 20 26  1  0  0  0  0
 21 22  2  0  0  0  0
 21 24  1  0  0  0  0
 22 23  1  0  0  0  0
 24 25  2  0  0  0  0
 25 26  1  0  0  0  0
M  END
>  <CHROM.1>
164.83782642,-66.35333738,-176.39132724,-92.03124523,144.35477790,53.54958660
-173.15832825,129.28764965,64.82856800,-2.13954899,1.97624455,-0.45466094
0.00154614

>  <Name>
ligand

>  <RI>
0

>  <Rbt.Current_Directory>
/home/itssahil/PROJECTS/Mol_Feturizer/Test_systems_manuscript/rnas/3npn

>  <Rbt.Executable>
rbdock ($Id: //depot/dev/client3/rdock/2013.1/src/exe/rbdock.cxx#4 $)

>  <Rbt.Library>
libRbt.so (2013.1, Build901 2013/11/27)

>  <Rbt.Parameter_File>
/export/apps/rDock/src/rDock_2013.1_src/data/scripts/dock_solv.prm

>  <Rbt.Receptor>
prm/pocket_docking_6.prm

>  <SCORE>
-30.3231

>  <SCORE.INTER>
-29.8223

>  <SCORE.INTER.CONST>
1

>  <SCORE.INTER.POLAR>
0

>  <SCORE.INTER.ROT>
7

>  <SCORE.INTER.SOLV>
25.9489

>  <SCORE.INTER.VDW>
-36.7978

>  <SCORE.INTER.norm>
-1.14701

>  <SCORE.INTRA>
-0.501281

>  <SCORE.INTRA.DIHEDRAL>
1.53617

>  <SCORE.INTRA.DIHEDRAL.0>
4.37896

>  <SCORE.INTRA.POLAR>
0

>  <SCORE.INTRA.POLAR.0>
0

>  <SCORE.INTRA.REPUL>
0

>  <SCORE.INTRA.REPUL.0>
0

>  <SCORE.INTRA.SOLV>
-0.217438

>  <SCORE.INTRA.SOLV.lig_0>
-50.5538

>  <SCORE.INTRA.VDW>
-1.16065

>  <SCORE.INTRA.VDW.0>
-1.30673

>  <SCORE.INTRA.norm>
-0.0192801

>  <SCORE.RESTR>
0.000512032

>  <SCORE.RESTR.CAVITY>
0.000512032

>  <SCORE.RESTR.norm>
1.96936e-05

>  <SCORE.SYSTEM>
0

>  <SCORE.SYSTEM.CONST>
0

>  <SCORE.SYSTEM.DIHEDRAL>
0

>  <SCORE.SYSTEM.SOLV>
0

>  <SCORE.SYSTEM.norm>
0

>  <SCORE.heavy>
26

>  <SCORE.norm>
-1.16627

>  <RMSD>
1.175

$$$$
ligand
 OpenBabel02271912153D
libRbt.so/2013.1/901 2013/11/27
 26 28  0  0  0  0  0  0  0  0999 V2000
  128.5739   69.7856   -3.2503 N   0  0  0  0  0  0  0  0  0  0  0  0
  127.3521   69.3533   -3.9918 C   0  0  2  0  0  0  0  0  0  0  0  0
  126.6752   70.5321   -4.6301 C   0  0  0  0  0  0  0  0  0  0  0  0
  126.4128   71.5449   -3.9828 O   0  0  0  0  0  0  0  0  0  0  0  0
  126.3790   68.6554   -3.0453 C   0  0  0  0  0  0  0  0  0  0  0  0
  126.8174   67.2463   -2.6584 C   0  0  0  0  0  0  0  0  0  0  0  0
  128.2684   67.3198   -1.6602 S   0  0  0  0  0  0  0  0  0  0  0  0
  128.7498   65.6254   -1.5699 C   0  0  0  0  0  0  0  0  0  0  0  0
  130.0211   65.4433   -0.7427 C   0  0  1  0  0  0  0  0  0  0  0  0
  130.0148   64.1787   -0.0770 O   0  0  0  0  0  0  0  0  0  0  0  0
  131.2453   65.4746   -1.6434 C   0  0  1  0  0  0  0  0  0  0  0  0
  132.2197   66.3764   -1.1100 O   0  0  0  0  0  0  0  0  0  0  0  0
  131.7733   64.0515   -1.6811 C   0  0  1  0  0  0  0  0  0  0  0  0
  133.1553   63.9964   -1.3104 O   0  0  0  0  0  0  0  0  0  0  0  0
  130.9356   63.2626   -0.6815 C   0  0  2  0  0  0  0  0  0  0  0  0
  126.3571   70.5078   -5.8181 O   0  0  0  0  0  0  0  0  0  0  0  0
  130.8173   58.1423   -1.9980 N   0  0  0  0  0  0  0  0  0  0  0  0
  131.7617   58.8382   -1.3335 C   0  0  0  0  0  0  0  0  0  0  0  0
  131.6591   60.1560   -1.0638 N   0  0  0  0  0  0  0  0  0  0  0  0
  130.5745   60.8770   -1.4570 C   0  0  0  0  0  0  0  0  0  0  0  0
  129.5005   60.1827   -2.1889 C   0  0  0  0  0  0  0  0  0  0  0  0
  129.6834   58.7318   -2.4470 C   0  0  0  0  0  0  0  0  0  0  0  0
  128.7430   58.0226   -3.1155 N   0  0  0  0  0  0  0  0  0  0  0  0
  128.5562   61.1006   -2.4566 N   0  0  0  0  0  0  0  0  0  0  0  0
  128.9855   62.2812   -1.9455 C   0  0  0  0  0  0  0  0  0  0  0  0
  130.1879   62.1563   -1.3491 N   0  0  0  0  0  0  0  0  0  0  0  0
  2  1  1  1  0  0  0
  2  3  1  0  0  0  0
  2  5  1  0  0  0  0
  3  4  1  0  0  0  0
  3 16  1  0  0  0  0
  5  6  1  0  0  0  0
  6  7  1  0  0  0  0
  7  8  1  0  0  0  0
  9  8  1  6  0  0  0
  9 10  1  0  0  0  0
  9 11  1  0  0  0  0
 10 15  1  0  0  0  0
 11 12  1  1  0  0  0
 11 13  1  0  0  0  0
 13 14  1  1  0  0  0
 13 15  1  0  0  0  0
 15 26  1  6  0  0  0
 17 18  2  0  0  0  0
 17 22  1  0  0  0  0
 18 19  1  0  0  0  0
 19 20  2  0  0  0  0
 20 21  1  0  0  0  0
 20 26  1  0  0  0  0
 21 22  2  0  0  0  0
 21 24  1  0  0  0  0
 22 23  1  0  0  0  0
 24 25  2  0  0  0  0
 25 26  1  0  0  0  0
M  END
>  <CHROM.1>
-50.57779810,-74.45651878,67.64513711,-170.57297188,179.57945849,148.62185648
-146.15456842,129.37392288,64.66246627,-2.18294197,-1.95899222,0.54378102
-3.13153827

>  <Name>
ligand

>  <RI>
0

>  <Rbt.Current_Directory>
/home/itssahil/PROJECTS/Mol_Feturizer/Test_systems_manuscript/rnas/3npn

>  <Rbt.Executable>
rbdock ($Id: //depot/dev/client3/rdock/2013.1/src/exe/rbdock.cxx#4 $)

>  <Rbt.Library>
libRbt.so (2013.1, Build901 2013/11/27)

>  <Rbt.Parameter_File>
/export/apps/rDock/src/rDock_2013.1_src/data/scripts/dock_solv.prm

>  <Rbt.Receptor>
prm/pocket_docking_4.prm

>  <SCORE>
-29.1408

>  <SCORE.INTER>
-29.7391

>  <SCORE.INTER.CONST>
1

>  <SCORE.INTER.POLAR>
0

>  <SCORE.INTER.ROT>
7

>  <SCORE.INTER.SOLV>
23.1929

>  <SCORE.INTER.VDW>
-35.8237

>  <SCORE.INTER.norm>
-1.14381

>  <SCORE.INTRA>
0.598245

>  <SCORE.INTRA.DIHEDRAL>
2.27417

>  <SCORE.INTRA.DIHEDRAL.0>
4.37896

>  <SCORE.INTRA.POLAR>
0

>  <SCORE.INTRA.POLAR.0>
0

>  <SCORE.INTRA.REPUL>
0

>  <SCORE.INTRA.REPUL.0>
0

>  <SCORE.INTRA.SOLV>
1.09313

>  <SCORE.INTRA.SOLV.lig_0>
-50.5538

>  <SCORE.INTRA.VDW>
-1.08541

>  <SCORE.INTRA.VDW.0>
-1.30673

>  <SCORE.INTRA.norm>
0.0230094

>  <SCORE.RESTR>
0

>  <SCORE.RESTR.CAVITY>
0

>  <SCORE.RESTR.norm>
0

>  <SCORE.SYSTEM>
0

>  <SCORE.SYSTEM.CONST>
0

>  <SCORE.SYSTEM.DIHEDRAL>
0

>  <SCORE.SYSTEM.SOLV>
0

>  <SCORE.SYSTEM.norm>
0

>  <SCORE.heavy>
26

>  <SCORE.norm>
-1.1208

>  <RMSD>
1.178

$$$$
ligand
 OpenBabel02271912153D
libRbt.so/2013.1/901 2013/11/27
 26 28  0  0  0  0  0  0  0  0999 V2000
  125.4670   71.3101   -2.8104 N   0  0  0  0  0  0  0  0  0  0  0  0
  126.7841   70.6116   -2.7290 C   0  0  2  0  0  0  0  0  0  0  0  0
  127.7067   71.0932   -3.8116 C   0  0  0  0  0  0  0  0  0  0  0  0
  127.3560   71.1044   -4.9909 O   0  0  0  0  0  0  0  0  0  0  0  0
  126.5907   69.1028   -2.8557 C   0  0  0  0  0  0  0  0  0  0  0  0
  127.8630   68.3053   -2.5863 C   0  0  0  0  0  0  0  0  0  0  0  0
  127.6166   66.6143   -3.0189 S   0  0  0  0  0  0  0  0  0  0  0  0
  129.2667   65.9928   -3.0643 C   0  0  0  0  0  0  0  0  0  0  0  0
  129.9246   66.0377   -1.6863 C   0  0  1  0  0  0  0  0  0  0  0  0
  129.3504   65.0572   -0.8194 O   0  0  0  0  0  0  0  0  0  0  0  0
  131.4084   65.7279   -1.8001 C   0  0  1  0  0  0  0  0  0  0  0  0
  132.1677   66.7143   -1.0946 O   0  0  0  0  0  0  0  0  0  0  0  0
  131.5957   64.3492   -1.1920 C   0  0  1  0  0  0  0  0  0  0  0  0
  132.5913   64.3622   -0.1629 O   0  0  0  0  0  0  0  0  0  0  0  0
  130.2450   63.9593   -0.6030 C   0  0  2  0  0  0  0  0  0  0  0  0
  128.8433   71.4801   -3.5439 O   0  0  0  0  0  0  0  0  0  0  0  0
  131.0285   58.8756   -1.8301 N   0  0  0  0  0  0  0  0  0  0  0  0
  131.8361   59.7384   -1.1812 C   0  0  0  0  0  0  0  0  0  0  0  0
  131.5034   61.0221   -0.9339 N   0  0  0  0  0  0  0  0  0  0  0  0
  130.3088   61.5341   -1.3357 C   0  0  0  0  0  0  0  0  0  0  0  0
  129.3733   60.6489   -2.0517 C   0  0  0  0  0  0  0  0  0  0  0  0
  129.8084   59.2485   -2.2852 C   0  0  0  0  0  0  0  0  0  0  0  0
  129.0071   58.3732   -2.9380 N   0  0  0  0  0  0  0  0  0  0  0  0
  128.2821   61.3816   -2.3319 N   0  0  0  0  0  0  0  0  0  0  0  0
  128.4973   62.6281   -1.8428 C   0  0  0  0  0  0  0  0  0  0  0  0
  129.7032   62.7271   -1.2486 N   0  0  0  0  0  0  0  0  0  0  0  0
  2  1  1  6  0  0  0
  2  3  1  0  0  0  0
  2  5  1  0  0  0  0
  3  4  1  0  0  0  0
  3 16  1  0  0  0  0
  5  6  1  0  0  0  0
  6  7  1  0  0  0  0
  7  8  1  0  0  0  0
  9  8  1  6  0  0  0
  9 10  1  0  0  0  0
  9 11  1  0  0  0  0
 10 15  1  0  0  0  0
 11 12  1  1  0  0  0
 11 13  1  0  0  0  0
 13 14  1  1  0  0  0
 13 15  1  0  0  0  0
 15 26  1  6  0  0  0
 17 18  2  0  0  0  0
 17 22  1  0  0  0  0
 18 19  1  0  0  0  0
 19 20  2  0  0  0  0
 20 21  1  0  0  0  0
 20 26  1  0  0  0  0
 21 22  2  0  0  0  0
 21 24  1  0  0  0  0
 22 23  1  0  0  0  0
 24 25  2  0  0  0  0
 25 26  1  0  0  0  0
M  END
>  <CHROM.1>
-52.15316362,-171.87268016,-170.44836798,165.01013783,64.65293232,71.17750543
174.97161872,129.30750574,65.14166618,-2.15749412,1.89925504,-0.44533991
-0.02791220

>  <Name>
ligand

>  <RI>
0

>  <Rbt.Current_Directory>
/home/itssahil/PROJECTS/Mol_Feturizer/Test_systems_manuscript/rnas/3npn

>  <Rbt.Executable>
rbdock ($Id: //depot/dev/client3/rdock/2013.1/src/exe/rbdock.cxx#4 $)

>  <Rbt.Library>
libRbt.so (2013.1, Build901 2013/11/27)

>  <Rbt.Parameter_File>
/export/apps/rDock/src/rDock_2013.1_src/data/scripts/dock_solv.prm

>  <Rbt.Receptor>
prm/pocket_docking_2.prm

>  <SCORE>
-29.0236

>  <SCORE.INTER>
-27.3691

>  <SCORE.INTER.CONST>
1

>  <SCORE.INTER.POLAR>
0

>  <SCORE.INTER.ROT>
7

>  <SCORE.INTER.SOLV>
29.5541

>  <SCORE.INTER.VDW>
-36.3641

>  <SCORE.INTER.norm>
-1.05266

>  <SCORE.INTRA>
-1.66989

>  <SCORE.INTRA.DIHEDRAL>
-0.314166

>  <SCORE.INTRA.DIHEDRAL.0>
4.37896

>  <SCORE.INTRA.POLAR>
0

>  <SCORE.INTRA.POLAR.0>
0

>  <SCORE.INTRA.REPUL>
0

>  <SCORE.INTRA.REPUL.0>
0

>  <SCORE.INTRA.SOLV>
-0.874852

>  <SCORE.INTRA.SOLV.lig_0>
-50.5538

>  <SCORE.INTRA.VDW>
-1.07538

>  <SCORE.INTRA.VDW.0>
-1.30673

>  <SCORE.INTRA.norm>
-0.0642267

>  <SCORE.RESTR>
0.0154175

>  <SCORE.RESTR.CAVITY>
0.0154175

>  <SCORE.RESTR.norm>
0.00059298

>  <SCORE.SYSTEM>
0

>  <SCORE.SYSTEM.CONST>
0

>  <SCORE.SYSTEM.DIHEDRAL>
0

>  <SCORE.SYSTEM.SOLV>
0

>  <SCORE.SYSTEM.norm>
0

>  <SCORE.heavy>
26

>  <SCORE.norm>
-1.11629

>  <RMSD>
1.184

$$$$
ligand
 OpenBabel02271912153D
libRbt.so/2013.1/901 2013/11/27
 26 28  0  0  0  0  0  0  0  0999 V2000
  128.8750   70.2015   -3.6782 N   0  0  0  0  0  0  0  0  0  0  0  0
  127.5433   70.4369   -4.3109 C   0  0  2  0  0  0  0  0  0  0  0  0
  126.5511   70.9199   -3.2924 C   0  0  0  0  0  0  0  0  0  0  0  0
  125.7575   71.8233   -3.5527 O   0  0  0  0  0  0  0  0  0  0  0  0
  127.0301   69.1521   -4.9556 C   0  0  0  0  0  0  0  0  0  0  0  0
  127.0163   67.9609   -4.0024 C   0  0  0  0  0  0  0  0  0  0  0  0
  128.5454   67.0899   -4.1051 S   0  0  0  0  0  0  0  0  0  0  0  0
  128.3461   65.8335   -2.8832 C   0  0  0  0  0  0  0  0  0  0  0  0
  129.3571   65.9851   -1.7481 C   0  0  1  0  0  0  0  0  0  0  0  0
  129.2046   64.9345   -0.7912 O   0  0  0  0  0  0  0  0  0  0  0  0
  130.7748   65.9014   -2.2901 C   0  0  1  0  0  0  0  0  0  0  0  0
  131.5519   66.9950   -1.7927 O   0  0  0  0  0  0  0  0  0  0  0  0
  131.3274   64.5702   -1.8124 C   0  0  1  0  0  0  0  0  0  0  0  0
  132.5629   64.7389   -1.1086 O   0  0  0  0  0  0  0  0  0  0  0  0
  130.2739   63.9850   -0.8791 C   0  0  2  0  0  0  0  0  0  0  0  0
  126.5156   70.4276   -2.1656 O   0  0  0  0  0  0  0  0  0  0  0  0
  131.1796   58.8283   -1.6221 N   0  0  0  0  0  0  0  0  0  0  0  0
  131.9741   59.7716   -1.0775 C   0  0  0  0  0  0  0  0  0  0  0  0
  131.6094   61.0641   -0.9493 N   0  0  0  0  0  0  0  0  0  0  0  0
  130.3934   61.5022   -1.3735 C   0  0  0  0  0  0  0  0  0  0  0  0
  129.4705   60.5266   -1.9799 C   0  0  0  0  0  0  0  0  0  0  0  0
  129.9410   59.1221   -2.0852 C   0  0  0  0  0  0  0  0  0  0  0  0
  129.1532   58.1662   -2.6326 N   0  0  0  0  0  0  0  0  0  0  0  0
  128.3537   61.1990   -2.3068 N   0  0  0  0  0  0  0  0  0  0  0  0
  128.5422   62.4927   -1.9461 C   0  0  0  0  0  0  0  0  0  0  0  0
  129.7556   62.6815   -1.3901 N   0  0  0  0  0  0  0  0  0  0  0  0
  2  1  1  1  0  0  0
  2  3  1  0  0  0  0
  2  5  1  0  0  0  0
  3  4  1  0  0  0  0
  3 16  1  0  0  0  0
  5  6  1  0  0  0  0
  6  7  1  0  0  0  0
  7  8  1  0  0  0  0
  9  8  1  6  0  0  0
  9 10  1  0  0  0  0
  9 11  1  0  0  0  0
 10 15  1  0  0  0  0
 11 12  1  1  0  0  0
 11 13  1  0  0  0  0
 13 14  1  1  0  0  0
 13 15  1  0  0  0  0
 15 26  1  6  0  0  0
 17 18  2  0  0  0  0
 17 22  1  0  0  0  0
 18 19  1  0  0  0  0
 19 20  2  0  0  0  0
 20 21  1  0  0  0  0
 20 26  1  0  0  0  0
 21 22  2  0  0  0  0
 21 24  1  0  0  0  0
 22 23  1  0  0  0  0
 24 25  2  0  0  0  0
 25 26  1  0  0  0  0
M  END
>  <CHROM.1>
138.35491553,53.11263809,-90.89762249,177.09054009,-116.34701357,-178.22689786
-166.80515304,129.23833473,65.10497309,-2.42283645,-1.92113875,0.44525553
3.09441705

>  <Name>
ligand

>  <RI>
0

>  <Rbt.Current_Directory>
/home/itssahil/PROJECTS/Mol_Feturizer/Test_systems_manuscript/rnas/3npn

>  <Rbt.Executable>
rbdock ($Id: //depot/dev/client3/rdock/2013.1/src/exe/rbdock.cxx#4 $)

>  <Rbt.Library>
libRbt.so (2013.1, Build901 2013/11/27)

>  <Rbt.Parameter_File>
/export/apps/rDock/src/rDock_2013.1_src/data/scripts/dock_solv.prm

>  <Rbt.Receptor>
prm/pocket_docking_2.prm

>  <SCORE>
-26.9232

>  <SCORE.INTER>
-28.541

>  <SCORE.INTER.CONST>
1

>  <SCORE.INTER.POLAR>
0

>  <SCORE.INTER.ROT>
7

>  <SCORE.INTER.SOLV>
20.4177

>  <SCORE.INTER.VDW>
-34.0999

>  <SCORE.INTER.norm>
-1.09773

>  <SCORE.INTRA>
1.6126

>  <SCORE.INTRA.DIHEDRAL>
3.79289

>  <SCORE.INTRA.DIHEDRAL.0>
4.37896

>  <SCORE.INTRA.POLAR>
0

>  <SCORE.INTRA.POLAR.0>
0

>  <SCORE.INTRA.REPUL>
0

>  <SCORE.INTRA.REPUL.0>
0

>  <SCORE.INTRA.SOLV>
1.21216

>  <SCORE.INTRA.SOLV.lig_0>
-50.5538

>  <SCORE.INTRA.VDW>
-0.889927

>  <SCORE.INTRA.VDW.0>
-1.30673

>  <SCORE.INTRA.norm>
0.062023

>  <SCORE.RESTR>
0.0051091

>  <SCORE.RESTR.CAVITY>
0.0051091

>  <SCORE.RESTR.norm>
0.000196504

>  <SCORE.SYSTEM>
0

>  <SCORE.SYSTEM.CONST>
0

>  <SCORE.SYSTEM.DIHEDRAL>
0

>  <SCORE.SYSTEM.SOLV>
0

>  <SCORE.SYSTEM.norm>
0

>  <SCORE.heavy>
26

>  <SCORE.norm>
-1.03551

>  <RMSD>
1.196

$$$$
ligand
 OpenBabel02271912153D
libRbt.so/2013.1/901 2013/11/27
 26 28  0  0  0  0  0  0  0  0999 V2000
  128.3825   69.9109   -2.2900 N   0  0  0  0  0  0  0  0  0  0  0  0
  127.2967   69.8343   -3.3120 C   0  0  2  0  0  0  0  0  0  0  0  0
  126.6279   71.1689   -3.4752 C   0  0  0  0  0  0  0  0  0  0  0  0
  125.5397   71.4057   -2.9523 O   0  0  0  0  0  0  0  0  0  0  0  0
  126.2610   68.7896   -2.9051 C   0  0  0  0  0  0  0  0  0  0  0  0
  126.8556   67.4018   -2.6862 C   0  0  0  0  0  0  0  0  0  0  0  0
  127.9088   66.9784   -4.0347 S   0  0  0  0  0  0  0  0  0  0  0  0
  128.7170   65.5275   -3.4404 C   0  0  0  0  0  0  0  0  0  0  0  0
  129.3657   65.7614   -2.0773 C   0  0  1  0  0  0  0  0  0  0  0  0
  128.9331   64.7771   -1.1356 O   0  0  0  0  0  0  0  0  0  0  0  0
  130.8777   65.6492   -2.1867 C   0  0  1  0  0  0  0  0  0  0  0  0
  131.4965   66.7784   -1.5628 O   0  0  0  0  0  0  0  0  0  0  0  0
  131.2532   64.3566   -1.4841 C   0  0  1  0  0  0  0  0  0  0  0  0
  132.2401   64.5797   -0.4708 O   0  0  0  0  0  0  0  0  0  0  0  0
  129.9700   63.8300   -0.8523 C   0  0  2  0  0  0  0  0  0  0  0  0
  127.1508   72.0569   -4.1470 O   0  0  0  0  0  0  0  0  0  0  0  0
  131.4038   58.8016   -1.6419 N   0  0  0  0  0  0  0  0  0  0  0  0
  132.0825   59.8077   -1.0545 C   0  0  0  0  0  0  0  0  0  0  0  0
  131.5882   61.0556   -0.9196 N   0  0  0  0  0  0  0  0  0  0  0  0
  130.3502   61.3806   -1.3804 C   0  0  0  0  0  0  0  0  0  0  0  0
  129.5491   60.3310   -2.0345 C   0  0  0  0  0  0  0  0  0  0  0  0
  130.1589   58.9816   -2.1446 C   0  0  0  0  0  0  0  0  0  0  0  0
  129.4882   57.9637   -2.7346 N   0  0  0  0  0  0  0  0  0  0  0  0
  128.3834   60.8970   -2.3909 N   0  0  0  0  0  0  0  0  0  0  0  0
  128.4312   62.1959   -2.0037 C   0  0  0  0  0  0  0  0  0  0  0  0
  129.6004   62.4920   -1.4017 N   0  0  0  0  0  0  0  0  0  0  0  0
  2  1  1  1  0  0  0
  2  3  1  0  0  0  0
  2  5  1  0  0  0  0
  3  4  1  0  0  0  0
  3 16  1  0  0  0  0
  5  6  1  0  0  0  0
  6  7  1  0  0  0  0
  7  8  1  0  0  0  0
  9  8  1  6  0  0  0
  9 10  1  0  0  0  0
  9 11  1  0  0  0  0
 10 15  1  0  0  0  0
 11 12  1  1  0  0  0
 11 13  1  0  0  0  0
 13 14  1  1  0  0  0
 13 15  1  0  0  0  0
 15 26  1  6  0  0  0
 17 18  2  0  0  0  0
 17 22  1  0  0  0  0
 18 19  1  0  0  0  0
 19 20  2  0  0  0  0
 20 21  1  0  0  0  0
 20 26  1  0  0  0  0
 21 22  2  0  0  0  0
 21 24  1  0  0  0  0
 22 23  1  0  0  0  0
 24 25  2  0  0  0  0
 25 26  1  0  0  0  0
M  END
>  <CHROM.1>
-101.49912419,-56.75749874,-47.72771389,169.30233575,-53.14178984,126.66899172
176.79591557,129.14285771,64.97522415,-2.27529916,-1.94361677,0.45625939
-3.13510665

>  <Name>
ligand

>  <RI>
0

>  <Rbt.Current_Directory>
/home/itssahil/PROJECTS/Mol_Feturizer/Test_systems_manuscript/rnas/3npn

>  <Rbt.Executable>
rbdock ($Id: //depot/dev/client3/rdock/2013.1/src/exe/rbdock.cxx#4 $)

>  <Rbt.Library>
libRbt.so (2013.1, Build901 2013/11/27)

>  <Rbt.Parameter_File>
/export/apps/rDock/src/rDock_2013.1_src/data/scripts/dock_solv.prm

>  <Rbt.Receptor>
prm/pocket_docking_3.prm

>  <SCORE>
-28.727

>  <SCORE.INTER>
-31.842

>  <SCORE.INTER.CONST>
1

>  <SCORE.INTER.POLAR>
0

>  <SCORE.INTER.ROT>
7

>  <SCORE.INTER.SOLV>
20.8903

>  <SCORE.INTER.VDW>
-36.4581

>  <SCORE.INTER.norm>
-1.22469

>  <SCORE.INTRA>
3.11499

>  <SCORE.INTRA.DIHEDRAL>
4.24971

>  <SCORE.INTRA.DIHEDRAL.0>
4.37896

>  <SCORE.INTRA.POLAR>
0

>  <SCORE.INTRA.POLAR.0>
0

>  <SCORE.INTRA.REPUL>
0

>  <SCORE.INTRA.REPUL.0>
0

>  <SCORE.INTRA.SOLV>
1.13743

>  <SCORE.INTRA.SOLV.lig_0>
-50.5538

>  <SCORE.INTRA.VDW>
0.421422

>  <SCORE.INTRA.VDW.0>
-1.30673

>  <SCORE.INTRA.norm>
0.119807

>  <SCORE.RESTR>
0

>  <SCORE.RESTR.CAVITY>
0

>  <SCORE.RESTR.norm>
0

>  <SCORE.SYSTEM>
0

>  <SCORE.SYSTEM.CONST>
0

>  <SCORE.SYSTEM.DIHEDRAL>
0

>  <SCORE.SYSTEM.SOLV>
0

>  <SCORE.SYSTEM.norm>
0

>  <SCORE.heavy>
26

>  <SCORE.norm>
-1.10488

>  <RMSD>
1.198

$$$$
ligand
 OpenBabel02271912153D
libRbt.so/2013.1/901 2013/11/27
 26 28  0  0  0  0  0  0  0  0999 V2000
  125.5953   71.4180   -3.0102 N   0  0  0  0  0  0  0  0  0  0  0  0
  126.8196   70.6014   -3.2627 C   0  0  2  0  0  0  0  0  0  0  0  0
  127.2453   70.7154   -4.6982 C   0  0  0  0  0  0  0  0  0  0  0  0
  128.3300   71.2083   -5.0051 O   0  0  0  0  0  0  0  0  0  0  0  0
  126.5573   69.1369   -2.9217 C   0  0  0  0  0  0  0  0  0  0  0  0
  127.8177   68.2775   -2.9365 C   0  0  0  0  0  0  0  0  0  0  0  0
  127.3903   66.5784   -2.7427 S   0  0  0  0  0  0  0  0  0  0  0  0
  128.9426   65.7715   -2.9667 C   0  0  0  0  0  0  0  0  0  0  0  0
  129.7821   65.7990   -1.6908 C   0  0  1  0  0  0  0  0  0  0  0  0
  129.3814   64.7565   -0.7990 O   0  0  0  0  0  0  0  0  0  0  0  0
  131.2491   65.5741   -2.0198 C   0  0  1  0  0  0  0  0  0  0  0  0
  132.0504   66.5722   -1.3805 O   0  0  0  0  0  0  0  0  0  0  0  0
  131.5848   64.1852   -1.5061 C   0  0  1  0  0  0  0  0  0  0  0  0
  132.7116   64.2124   -0.6229 O   0  0  0  0  0  0  0  0  0  0  0  0
  130.3491   63.7009   -0.7567 C   0  0  2  0  0  0  0  0  0  0  0  0
  126.5113   70.3258   -5.6052 O   0  0  0  0  0  0  0  0  0  0  0  0
  130.9890   58.5554   -1.7953 N   0  0  0  0  0  0  0  0  0  0  0  0
  131.8077   59.4115   -1.1514 C   0  0  0  0  0  0  0  0  0  0  0  0
  131.5131   60.7133   -0.9556 N   0  0  0  0  0  0  0  0  0  0  0  0
  130.3488   61.2518   -1.4083 C   0  0  0  0  0  0  0  0  0  0  0  0
  129.4034   60.3754   -2.1221 C   0  0  0  0  0  0  0  0  0  0  0  0
  129.7957   58.9541   -2.2975 C   0  0  0  0  0  0  0  0  0  0  0  0
  128.9830   58.0852   -2.9447 N   0  0  0  0  0  0  0  0  0  0  0  0
  128.3466   61.1350   -2.4575 N   0  0  0  0  0  0  0  0  0  0  0  0
  128.5914   62.3891   -2.0031 C   0  0  0  0  0  0  0  0  0  0  0  0
  129.7829   62.4669   -1.3776 N   0  0  0  0  0  0  0  0  0  0  0  0
  2  1  1  6  0  0  0
  2  3  1  0  0  0  0
  2  5  1  0  0  0  0
  3  4  1  0  0  0  0
  3 16  1  0  0  0  0
  5  6  1  0  0  0  0
  6  7  1  0  0  0  0
  7  8  1  0  0  0  0
  9  8  1  6  0  0  0
  9 10  1  0  0  0  0
  9 11  1  0  0  0  0
 10 15  1  0  0  0  0
 11 12  1  1  0  0  0
 11 13  1  0  0  0  0
 13 14  1  1  0  0  0
 13 15  1  0  0  0  0
 15 26  1  6  0  0  0
 17 18  2  0  0  0  0
 17 22  1  0  0  0  0
 18 19  1  0  0  0  0
 19 20  2  0  0  0  0
 20 21  1  0  0  0  0
 20 26  1  0  0  0  0
 21 22  2  0  0  0  0
 21 24  1  0  0  0  0
 22 23  1  0  0  0  0
 24 25  2  0  0  0  0
 25 26  1  0  0  0  0
M  END
>  <CHROM.1>
116.98989247,-170.66892996,-172.59450860,173.97995420,81.27943854,81.85931375
-173.47500064,129.20801358,64.92540320,-2.36194183,1.93182466,-0.46503906
-0.05224617

>  <Name>
ligand

>  <RI>
0

>  <Rbt.Current_Directory>
/home/itssahil/PROJECTS/Mol_Feturizer/Test_systems_manuscript/rnas/3npn

>  <Rbt.Executable>
rbdock ($Id: //depot/dev/client3/rdock/2013.1/src/exe/rbdock.cxx#4 $)

>  <Rbt.Library>
libRbt.so (2013.1, Build901 2013/11/27)

>  <Rbt.Parameter_File>
/export/apps/rDock/src/rDock_2013.1_src/data/scripts/dock_solv.prm

>  <Rbt.Receptor>
prm/pocket_docking_3.prm

>  <SCORE>
-30.157

>  <SCORE.INTER>
-29.1433

>  <SCORE.INTER.CONST>
1

>  <SCORE.INTER.POLAR>
0

>  <SCORE.INTER.ROT>
7

>  <SCORE.INTER.SOLV>
29.9501

>  <SCORE.INTER.VDW>
-37.6789

>  <SCORE.INTER.norm>
-1.1209

>  <SCORE.INTRA>
-1.01366

>  <SCORE.INTRA.DIHEDRAL>
1.10123

>  <SCORE.INTRA.DIHEDRAL.0>
4.37896

>  <SCORE.INTRA.POLAR>
0

>  <SCORE.INTRA.POLAR.0>
0

>  <SCORE.INTRA.REPUL>
0

>  <SCORE.INTRA.REPUL.0>
0

>  <SCORE.INTRA.SOLV>
-0.945931

>  <SCORE.INTRA.SOLV.lig_0>
-50.5538

>  <SCORE.INTRA.VDW>
-1.09131

>  <SCORE.INTRA.VDW.0>
-1.30673

>  <SCORE.INTRA.norm>
-0.0389869

>  <SCORE.RESTR>
0

>  <SCORE.RESTR.CAVITY>
0

>  <SCORE.RESTR.norm>
0

>  <SCORE.SYSTEM>
0

>  <SCORE.SYSTEM.CONST>
0

>  <SCORE.SYSTEM.DIHEDRAL>
0

>  <SCORE.SYSTEM.SOLV>
0

>  <SCORE.SYSTEM.norm>
0

>  <SCORE.heavy>
26

>  <SCORE.norm>
-1.15988

>  <RMSD>
1.209

$$$$
ligand
 OpenBabel02271912153D
libRbt.so/2013.1/901 2013/11/27
 26 28  0  0  0  0  0  0  0  0999 V2000
  128.5603   70.2268   -3.0129 N   0  0  0  0  0  0  0  0  0  0  0  0
  127.4465   69.5544   -3.7455 C   0  0  2  0  0  0  0  0  0  0  0  0
  126.6098   70.5631   -4.4786 C   0  0  0  0  0  0  0  0  0  0  0  0
  126.3232   70.4130   -5.6656 O   0  0  0  0  0  0  0  0  0  0  0  0
  126.5690   68.7733   -2.7710 C   0  0  0  0  0  0  0  0  0  0  0  0
  127.3144   67.6554   -2.0485 C   0  0  0  0  0  0  0  0  0  0  0  0
  127.9458   66.4983   -3.2188 S   0  0  0  0  0  0  0  0  0  0  0  0
  128.2845   65.0905   -2.2115 C   0  0  0  0  0  0  0  0  0  0  0  0
  129.4954   65.3208   -1.3090 C   0  0  1  0  0  0  0  0  0  0  0  0
  129.7021   64.2016   -0.4445 O   0  0  0  0  0  0  0  0  0  0  0  0
  130.7535   65.4844   -2.1463 C   0  0  1  0  0  0  0  0  0  0  0  0
  131.4706   66.6489   -1.7257 O   0  0  0  0  0  0  0  0  0  0  0  0
  131.5705   64.2239   -1.9244 C   0  0  1  0  0  0  0  0  0  0  0  0
  132.8990   64.5316   -1.4877 O   0  0  0  0  0  0  0  0  0  0  0  0
  130.8404   63.4304   -0.8471 C   0  0  2  0  0  0  0  0  0  0  0  0
  126.1982   71.5727   -3.9088 O   0  0  0  0  0  0  0  0  0  0  0  0
  131.9830   58.3027   -1.4513 N   0  0  0  0  0  0  0  0  0  0  0  0
  132.7140   59.2867   -0.8899 C   0  0  0  0  0  0  0  0  0  0  0  0
  132.2928   60.5653   -0.8026 N   0  0  0  0  0  0  0  0  0  0  0  0
  131.0807   60.9464   -1.2886 C   0  0  0  0  0  0  0  0  0  0  0  0
  130.2256   59.9239   -1.9167 C   0  0  0  0  0  0  0  0  0  0  0  0
  130.7559   58.5381   -1.9745 C   0  0  0  0  0  0  0  0  0  0  0  0
  130.0322   57.5417   -2.5380 N   0  0  0  0  0  0  0  0  0  0  0  0
  129.0989   60.5448   -2.3056 N   0  0  0  0  0  0  0  0  0  0  0  0
  129.2194   61.8510   -1.9614 C   0  0  0  0  0  0  0  0  0  0  0  0
  130.3980   62.0984   -1.3558 N   0  0  0  0  0  0  0  0  0  0  0  0
  2  1  1  1  0  0  0
  2  3  1  0  0  0  0
  2  5  1  0  0  0  0
  3  4  1  0  0  0  0
  3 16  1  0  0  0  0
  5  6  1  0  0  0  0
  6  7  1  0  0  0  0
  7  8  1  0  0  0  0
  9  8  1  6  0  0  0
  9 10  1  0  0  0  0
  9 11  1  0  0  0  0
 10 15  1  0  0  0  0
 11 12  1  1  0  0  0
 11 13  1  0  0  0  0
 13 14  1  1  0  0  0
 13 15  1  0  0  0  0
 15 26  1  6  0  0  0
 17 18  2  0  0  0  0
 17 22  1  0  0  0  0
 18 19  1  0  0  0  0
 19 20  2  0  0  0  0
 20 21  1  0  0  0  0
 20 26  1  0  0  0  0
 21 22  2  0  0  0  0
 21 24  1  0  0  0  0
 22 23  1  0  0  0  0
 24 25  2  0  0  0  0
 25 26  1  0  0  0  0
M  END
>  <CHROM.1>
130.46459492,-62.02569622,-60.16386829,-162.60722679,-71.62717623,176.44651824
-149.52498950,129.49795556,64.62560438,-2.27585444,-1.99726380,0.45959869
3.12024252

>  <Name>
ligand

>  <RI>
0

>  <Rbt.Current_Directory>
/home/itssahil/PROJECTS/Mol_Feturizer/Test_systems_manuscript/rnas/3npn

>  <Rbt.Executable>
rbdock ($Id: //depot/dev/client3/rdock/2013.1/src/exe/rbdock.cxx#4 $)

>  <Rbt.Library>
libRbt.so (2013.1, Build901 2013/11/27)

>  <Rbt.Parameter_File>
/export/apps/rDock/src/rDock_2013.1_src/data/scripts/dock_solv.prm

>  <Rbt.Receptor>
prm/pocket_docking_3.prm

>  <SCORE>
-29.9282

>  <SCORE.INTER>
-28.7735

>  <SCORE.INTER.CONST>
1

>  <SCORE.INTER.POLAR>
0

>  <SCORE.INTER.ROT>
7

>  <SCORE.INTER.SOLV>
17.6244

>  <SCORE.INTER.VDW>
-33.3238

>  <SCORE.INTER.norm>
-1.10667

>  <SCORE.INTRA>
-1.15475

>  <SCORE.INTRA.DIHEDRAL>
-0.954088

>  <SCORE.INTRA.DIHEDRAL.0>
4.37896

>  <SCORE.INTRA.POLAR>
0

>  <SCORE.INTRA.POLAR.0>
0

>  <SCORE.INTRA.REPUL>
0

>  <SCORE.INTRA.REPUL.0>
0

>  <SCORE.INTRA.SOLV>
0.578318

>  <SCORE.INTRA.SOLV.lig_0>
-50.5538

>  <SCORE.INTRA.VDW>
-0.966865

>  <SCORE.INTRA.VDW.0>
-1.30673

>  <SCORE.INTRA.norm>
-0.0444135

>  <SCORE.RESTR>
0

>  <SCORE.RESTR.CAVITY>
0

>  <SCORE.RESTR.norm>
0

>  <SCORE.SYSTEM>
0

>  <SCORE.SYSTEM.CONST>
0

>  <SCORE.SYSTEM.DIHEDRAL>
0

>  <SCORE.SYSTEM.SOLV>
0

>  <SCORE.SYSTEM.norm>
0

>  <SCORE.heavy>
26

>  <SCORE.norm>
-1.15109

>  <RMSD>
1.209

$$$$
ligand
 OpenBabel02271912153D
libRbt.so/2013.1/901 2013/11/27
 26 28  0  0  0  0  0  0  0  0999 V2000
  128.0353   69.9296   -4.6546 N   0  0  0  0  0  0  0  0  0  0  0  0
  126.7163   69.7236   -3.9860 C   0  0  2  0  0  0  0  0  0  0  0  0
  126.2617   70.9859   -3.3114 C   0  0  0  0  0  0  0  0  0  0  0  0
  125.5941   70.9528   -2.2784 O   0  0  0  0  0  0  0  0  0  0  0  0
  126.8154   68.6008   -2.9567 C   0  0  0  0  0  0  0  0  0  0  0  0
  127.2210   67.2602   -3.5614 C   0  0  0  0  0  0  0  0  0  0  0  0
  127.6390   66.1237   -2.2804 S   0  0  0  0  0  0  0  0  0  0  0  0
  129.2820   65.6527   -2.7160 C   0  0  0  0  0  0  0  0  0  0  0  0
  130.1856   65.5564   -1.4881 C   0  0  1  0  0  0  0  0  0  0  0  0
  129.7640   64.4926   -0.6319 O   0  0  0  0  0  0  0  0  0  0  0  0
  131.6161   65.2595   -1.9081 C   0  0  1  0  0  0  0  0  0  0  0  0
  132.5123   66.1685   -1.2618 O   0  0  0  0  0  0  0  0  0  0  0  0
  131.8865   63.8258   -1.4872 C   0  0  1  0  0  0  0  0  0  0  0  0
  133.0563   63.7334   -0.6667 O   0  0  0  0  0  0  0  0  0  0  0  0
  130.6618   63.3781   -0.6980 C   0  0  2  0  0  0  0  0  0  0  0  0
  126.5392   72.0871   -3.7840 O   0  0  0  0  0  0  0  0  0  0  0  0
  130.8668   58.2441   -1.9488 N   0  0  0  0  0  0  0  0  0  0  0  0
  131.7652   59.0066   -1.2934 C   0  0  0  0  0  0  0  0  0  0  0  0
  131.5796   60.3186   -1.0406 N   0  0  0  0  0  0  0  0  0  0  0  0
  130.4521   60.9648   -1.4428 C   0  0  0  0  0  0  0  0  0  0  0  0
  129.4243   60.1949   -2.1655 C   0  0  0  0  0  0  0  0  0  0  0  0
  129.6983   58.7553   -2.4050 C   0  0  0  0  0  0  0  0  0  0  0  0
  128.8048   57.9798   -3.0642 N   0  0  0  0  0  0  0  0  0  0  0  0
  128.4242   61.0482   -2.4447 N   0  0  0  0  0  0  0  0  0  0  0  0
  128.7781   62.2599   -1.9489 C   0  0  0  0  0  0  0  0  0  0  0  0
  129.9856   62.2185   -1.3512 N   0  0  0  0  0  0  0  0  0  0  0  0
  2  1  1  1  0  0  0
  2  3  1  0  0  0  0
  2  5  1  0  0  0  0
  3  4  1  0  0  0  0
  3 16  1  0  0  0  0
  5  6  1  0  0  0  0
  6  7  1  0  0  0  0
  7  8  1  0  0  0  0
  9  8  1  6  0  0  0
  9 10  1  0  0  0  0
  9 11  1  0  0  0  0
 10 15  1  0  0  0  0
 11 12  1  1  0  0  0
 11 13  1  0  0  0  0
 13 14  1  1  0  0  0
 13 15  1  0  0  0  0
 15 26  1  6  0  0  0
 17 18  2  0  0  0  0
 17 22  1  0  0  0  0
 18 19  1  0  0  0  0
 19 20  2  0  0  0  0
 20 21  1  0  0  0  0
 20 26  1  0  0  0  0
 21 22  2  0  0  0  0
 21 24  1  0  0  0  0
 22 23  1  0  0  0  0
 24 25  2  0  0  0  0
 25 26  1  0  0  0  0
M  END
>  <CHROM.1>
-147.68363692,-60.18327730,168.08771170,-123.53337402,139.09332223,65.91301353
-171.39394407,129.27577782,64.63785830,-2.18269105,-1.95329280,0.39025394
3.13681263

>  <Name>
ligand

>  <RI>
0

>  <Rbt.Current_Directory>
/home/itssahil/PROJECTS/Mol_Feturizer/Test_systems_manuscript/rnas/3npn

>  <Rbt.Executable>
rbdock ($Id: //depot/dev/client3/rdock/2013.1/src/exe/rbdock.cxx#4 $)

>  <Rbt.Library>
libRbt.so (2013.1, Build901 2013/11/27)

>  <Rbt.Parameter_File>
/export/apps/rDock/src/rDock_2013.1_src/data/scripts/dock_solv.prm

>  <Rbt.Receptor>
prm/pocket_docking_3.prm

>  <SCORE>
-30.0289

>  <SCORE.INTER>
-31.1202

>  <SCORE.INTER.CONST>
1

>  <SCORE.INTER.POLAR>
0

>  <SCORE.INTER.ROT>
7

>  <SCORE.INTER.SOLV>
24.2463

>  <SCORE.INTER.VDW>
-37.0956

>  <SCORE.INTER.norm>
-1.19693

>  <SCORE.INTRA>
1.09124

>  <SCORE.INTRA.DIHEDRAL>
3.13936

>  <SCORE.INTRA.DIHEDRAL.0>
4.37896

>  <SCORE.INTRA.POLAR>
0

>  <SCORE.INTRA.POLAR.0>
0

>  <SCORE.INTRA.REPUL>
0

>  <SCORE.INTRA.REPUL.0>
0

>  <SCORE.INTRA.SOLV>
-0.152957

>  <SCORE.INTRA.SOLV.lig_0>
-50.5538

>  <SCORE.INTRA.VDW>
-0.401959

>  <SCORE.INTRA.VDW.0>
-1.30673

>  <SCORE.INTRA.norm>
0.0419709

>  <SCORE.RESTR>
0

>  <SCORE.RESTR.CAVITY>
0

>  <SCORE.RESTR.norm>
0

>  <SCORE.SYSTEM>
0

>  <SCORE.SYSTEM.CONST>
0

>  <SCORE.SYSTEM.DIHEDRAL>
0

>  <SCORE.SYSTEM.SOLV>
0

>  <SCORE.SYSTEM.norm>
0

>  <SCORE.heavy>
26

>  <SCORE.norm>
-1.15496

>  <RMSD>
1.211

$$$$
ligand
 OpenBabel02271912153D
libRbt.so/2013.1/901 2013/11/27
 26 28  0  0  0  0  0  0  0  0999 V2000
  128.2568   69.6866   -2.2846 N   0  0  0  0  0  0  0  0  0  0  0  0
  127.0192   69.5945   -3.1148 C   0  0  2  0  0  0  0  0  0  0  0  0
  126.1971   70.8440   -2.9802 C   0  0  0  0  0  0  0  0  0  0  0  0
  126.1050   71.6501   -3.9051 O   0  0  0  0  0  0  0  0  0  0  0  0
  126.1875   68.3869   -2.6909 C   0  0  0  0  0  0  0  0  0  0  0  0
  127.0009   67.1010   -2.5805 C   0  0  0  0  0  0  0  0  0  0  0  0
  127.9459   66.8584   -4.0486 S   0  0  0  0  0  0  0  0  0  0  0  0
  129.0774   65.5951   -3.5639 C   0  0  0  0  0  0  0  0  0  0  0  0
  129.6115   65.8277   -2.1516 C   0  0  1  0  0  0  0  0  0  0  0  0
  129.0372   64.8950   -1.2336 O   0  0  0  0  0  0  0  0  0  0  0  0
  131.1179   65.6268   -2.1179 C   0  0  1  0  0  0  0  0  0  0  0  0
  131.7426   66.7351   -1.4633 O   0  0  0  0  0  0  0  0  0  0  0  0
  131.3506   64.3340   -1.3563 C   0  0  1  0  0  0  0  0  0  0  0  0
  132.2521   64.5273   -0.2607 O   0  0  0  0  0  0  0  0  0  0  0  0
  129.9861   63.8982   -0.8354 C   0  0  2  0  0  0  0  0  0  0  0  0
  125.6022   71.0962   -1.9335 O   0  0  0  0  0  0  0  0  0  0  0  0
  131.3207   58.8452   -1.6416 N   0  0  0  0  0  0  0  0  0  0  0  0
  132.0195   59.8361   -1.0521 C   0  0  0  0  0  0  0  0  0  0  0  0
  131.5498   61.0930   -0.9129 N   0  0  0  0  0  0  0  0  0  0  0  0
  130.3178   61.4435   -1.3712 C   0  0  0  0  0  0  0  0  0  0  0  0
  129.4957   60.4116   -2.0274 C   0  0  0  0  0  0  0  0  0  0  0  0
  130.0790   59.0509   -2.1423 C   0  0  0  0  0  0  0  0  0  0  0  0
  129.3879   58.0480   -2.7345 N   0  0  0  0  0  0  0  0  0  0  0  0
  128.3409   61.0013   -2.3807 N   0  0  0  0  0  0  0  0  0  0  0  0
  128.4144   62.2979   -1.9897 C   0  0  0  0  0  0  0  0  0  0  0  0
  129.5898   62.5693   -1.3883 N   0  0  0  0  0  0  0  0  0  0  0  0
  2  1  1  1  0  0  0
  2  3  1  0  0  0  0
  2  5  1  0  0  0  0
  3  4  1  0  0  0  0
  3 16  1  0  0  0  0
  5  6  1  0  0  0  0
  6  7  1  0  0  0  0
  7  8  1  0  0  0  0
  9  8  1  6  0  0  0
  9 10  1  0  0  0  0
  9 11  1  0  0  0  0
 10 15  1  0  0  0  0
 11 12  1  1  0  0  0
 11 13  1  0  0  0  0
 13 14  1  1  0  0  0
 13 15  1  0  0  0  0
 15 26  1  6  0  0  0
 17 18  2  0  0  0  0
 17 22  1  0  0  0  0
 18 19  1  0  0  0  0
 19 20  2  0  0  0  0
 20 21  1  0  0  0  0
 20 26  1  0  0  0  0
 21 22  2  0  0  0  0
 21 24  1  0  0  0  0
 22 23  1  0  0  0  0
 24 25  2  0  0  0  0
 25 26  1  0  0  0  0
M  END
>  <CHROM.1>
108.71296520,-48.79983231,-50.40567374,166.46201988,-41.27147283,107.09414522
170.79970435,129.11028011,64.91156736,-2.17640298,-1.97895283,0.43837727
-3.09899256

>  <Name>
ligand

>  <RI>
0

>  <Rbt.Current_Directory>
/home/itssahil/PROJECTS/Mol_Feturizer/Test_systems_manuscript/rnas/3npn

>  <Rbt.Executable>
rbdock ($Id: //depot/dev/client3/rdock/2013.1/src/exe/rbdock.cxx#4 $)

>  <Rbt.Library>
libRbt.so (2013.1, Build901 2013/11/27)

>  <Rbt.Parameter_File>
/export/apps/rDock/src/rDock_2013.1_src/data/scripts/dock_solv.prm

>  <Rbt.Receptor>
prm/pocket_docking_3.prm

>  <SCORE>
-28.8848

>  <SCORE.INTER>
-32.197

>  <SCORE.INTER.CONST>
1

>  <SCORE.INTER.POLAR>
0

>  <SCORE.INTER.ROT>
7

>  <SCORE.INTER.SOLV>
20.9378

>  <SCORE.INTER.VDW>
-36.7106

>  <SCORE.INTER.norm>
-1.23834

>  <SCORE.INTRA>
3.31217

>  <SCORE.INTRA.DIHEDRAL>
4.59634

>  <SCORE.INTRA.DIHEDRAL.0>
4.37896

>  <SCORE.INTRA.POLAR>
0

>  <SCORE.INTRA.POLAR.0>
0

>  <SCORE.INTRA.REPUL>
0

>  <SCORE.INTRA.REPUL.0>
0

>  <SCORE.INTRA.SOLV>
1.53249

>  <SCORE.INTRA.SOLV.lig_0>
-50.5538

>  <SCORE.INTRA.VDW>
0.247751

>  <SCORE.INTRA.VDW.0>
-1.30673

>  <SCORE.INTRA.norm>
0.127391

>  <SCORE.RESTR>
0

>  <SCORE.RESTR.CAVITY>
0

>  <SCORE.RESTR.norm>
0

>  <SCORE.SYSTEM>
0

>  <SCORE.SYSTEM.CONST>
0

>  <SCORE.SYSTEM.DIHEDRAL>
0

>  <SCORE.SYSTEM.SOLV>
0

>  <SCORE.SYSTEM.norm>
0

>  <SCORE.heavy>
26

>  <SCORE.norm>
-1.11095

>  <RMSD>
1.219

$$$$
ligand
 OpenBabel02271912153D
libRbt.so/2013.1/901 2013/11/27
 26 28  0  0  0  0  0  0  0  0999 V2000
  128.7813   71.1704   -3.6423 N   0  0  0  0  0  0  0  0  0  0  0  0
  127.6799   70.1808   -3.4500 C   0  0  2  0  0  0  0  0  0  0  0  0
  126.3934   70.8789   -3.1142 C   0  0  0  0  0  0  0  0  0  0  0  0
  125.9993   71.8416   -3.7711 O   0  0  0  0  0  0  0  0  0  0  0  0
  128.0374   69.2026   -2.3342 C   0  0  0  0  0  0  0  0  0  0  0  0
  127.1166   67.9876   -2.2770 C   0  0  0  0  0  0  0  0  0  0  0  0
  127.6492   66.7733   -3.4385 S   0  0  0  0  0  0  0  0  0  0  0  0
  128.0268   65.3986   -2.3998 C   0  0  0  0  0  0  0  0  0  0  0  0
  129.2592   65.6650   -1.5372 C   0  0  1  0  0  0  0  0  0  0  0  0
  129.4786   64.5890   -0.6225 O   0  0  0  0  0  0  0  0  0  0  0  0
  130.4990   65.7774   -2.4095 C   0  0  1  0  0  0  0  0  0  0  0  0
  131.2326   66.9562   -2.0641 O   0  0  0  0  0  0  0  0  0  0  0  0
  131.3131   64.5236   -2.1429 C   0  0  1  0  0  0  0  0  0  0  0  0
  132.6530   64.8432   -1.7520 O   0  0  0  0  0  0  0  0  0  0  0  0
  130.6027   63.7904   -1.0111 C   0  0  2  0  0  0  0  0  0  0  0  0
  125.7060   70.5084   -2.1637 O   0  0  0  0  0  0  0  0  0  0  0  0
  131.6736   58.6213   -1.3247 N   0  0  0  0  0  0  0  0  0  0  0  0
  132.4195   59.6255   -0.8218 C   0  0  0  0  0  0  0  0  0  0  0  0
  132.0160   60.9127   -0.8065 N   0  0  0  0  0  0  0  0  0  0  0  0
  130.8079   61.2823   -1.3110 C   0  0  0  0  0  0  0  0  0  0  0  0
  129.9372   60.2375   -1.8781 C   0  0  0  0  0  0  0  0  0  0  0  0
  130.4483   58.8435   -1.8579 C   0  0  0  0  0  0  0  0  0  0  0  0
  129.7095   57.8267   -2.3624 N   0  0  0  0  0  0  0  0  0  0  0  0
  128.8179   60.8507   -2.2993 N   0  0  0  0  0  0  0  0  0  0  0  0
  128.9571   62.1727   -2.0304 C   0  0  0  0  0  0  0  0  0  0  0  0
  130.1407   62.4378   -1.4423 N   0  0  0  0  0  0  0  0  0  0  0  0
  2  1  1  1  0  0  0
  2  3  1  0  0  0  0
  2  5  1  0  0  0  0
  3  4  1  0  0  0  0
  3 16  1  0  0  0  0
  5  6  1  0  0  0  0
  6  7  1  0  0  0  0
  7  8  1  0  0  0  0
  9  8  1  6  0  0  0
  9 10  1  0  0  0  0
  9 11  1  0  0  0  0
 10 15  1  0  0  0  0
 11 12  1  1  0  0  0
 11 13  1  0  0  0  0
 13 14  1  1  0  0  0
 13 15  1  0  0  0  0
 15 26  1  6  0  0  0
 17 18  2  0  0  0  0
 17 22  1  0  0  0  0
 18 19  1  0  0  0  0
 19 20  2  0  0  0  0
 20 21  1  0  0  0  0
 20 26  1  0  0  0  0
 21 22  2  0  0  0  0
 21 24  1  0  0  0  0
 22 23  1  0  0  0  0
 24 25  2  0  0  0  0
 25 26  1  0  0  0  0
M  END
>  <CHROM.1>
48.12476791,-167.43977060,83.02034847,118.67686541,-68.86869115,174.96051909
-148.24807685,129.32111782,64.97079657,-2.15952315,-1.93051636,0.23496282
3.07787286

>  <Name>
ligand

>  <RI>
0

>  <Rbt.Current_Directory>
/home/itssahil/PROJECTS/Mol_Feturizer/Test_systems_manuscript/rnas/3npn

>  <Rbt.Executable>
rbdock ($Id: //depot/dev/client3/rdock/2013.1/src/exe/rbdock.cxx#4 $)

>  <Rbt.Library>
libRbt.so (2013.1, Build901 2013/11/27)

>  <Rbt.Parameter_File>
/export/apps/rDock/src/rDock_2013.1_src/data/scripts/dock_solv.prm

>  <Rbt.Receptor>
prm/pocket_docking_3.prm

>  <SCORE>
-26.3782

>  <SCORE.INTER>
-27.7542

>  <SCORE.INTER.CONST>
1

>  <SCORE.INTER.POLAR>
0

>  <SCORE.INTER.ROT>
7

>  <SCORE.INTER.SOLV>
20.3027

>  <SCORE.INTER.VDW>
-33.5371

>  <SCORE.INTER.norm>
-1.06747

>  <SCORE.INTRA>
1.3761

>  <SCORE.INTRA.DIHEDRAL>
3.291

>  <SCORE.INTRA.DIHEDRAL.0>
4.37896

>  <SCORE.INTRA.POLAR>
0

>  <SCORE.INTRA.POLAR.0>
0

>  <SCORE.INTRA.REPUL>
0

>  <SCORE.INTRA.REPUL.0>
0

>  <SCORE.INTRA.SOLV>
-0.593917

>  <SCORE.INTRA.SOLV.lig_0>
-50.5538

>  <SCORE.INTRA.VDW>
0.0275565

>  <SCORE.INTRA.VDW.0>
-1.30673

>  <SCORE.INTRA.norm>
0.0529268

>  <SCORE.RESTR>
0

>  <SCORE.RESTR.CAVITY>
0

>  <SCORE.RESTR.norm>
0

>  <SCORE.SYSTEM>
0

>  <SCORE.SYSTEM.CONST>
0

>  <SCORE.SYSTEM.DIHEDRAL>
0

>  <SCORE.SYSTEM.SOLV>
0

>  <SCORE.SYSTEM.norm>
0

>  <SCORE.heavy>
26

>  <SCORE.norm>
-1.01454

>  <RMSD>
1.223

$$$$
ligand
 OpenBabel02271912153D
libRbt.so/2013.1/901 2013/11/27
 26 28  0  0  0  0  0  0  0  0999 V2000
  126.0162   68.0859   -3.8097 N   0  0  0  0  0  0  0  0  0  0  0  0
  126.5412   69.2581   -3.0483 C   0  0  2  0  0  0  0  0  0  0  0  0
  126.5785   70.4813   -3.9188 C   0  0  0  0  0  0  0  0  0  0  0  0
  126.3170   71.5950   -3.4662 O   0  0  0  0  0  0  0  0  0  0  0  0
  127.9431   68.9616   -2.5226 C   0  0  0  0  0  0  0  0  0  0  0  0
  127.9817   67.8161   -1.5157 C   0  0  0  0  0  0  0  0  0  0  0  0
  127.6701   66.2855   -2.3326 S   0  0  0  0  0  0  0  0  0  0  0  0
  129.2982   65.7213   -2.7094 C   0  0  0  0  0  0  0  0  0  0  0  0
  130.1606   65.6076   -1.4536 C   0  0  1  0  0  0  0  0  0  0  0  0
  129.6952   64.5484   -0.6146 O   0  0  0  0  0  0  0  0  0  0  0  0
  131.5989   65.2892   -1.8288 C   0  0  1  0  0  0  0  0  0  0  0  0
  132.4882   66.1822   -1.1515 O   0  0  0  0  0  0  0  0  0  0  0  0
  131.8332   63.8503   -1.4040 C   0  0  1  0  0  0  0  0  0  0  0  0
  132.9747   63.7373   -0.5469 O   0  0  0  0  0  0  0  0  0  0  0  0
  130.5771   63.4200   -0.6556 C   0  0  2  0  0  0  0  0  0  0  0  0
  126.8630   70.3957   -5.1125 O   0  0  0  0  0  0  0  0  0  0  0  0
  130.8141   58.3254   -2.0532 N   0  0  0  0  0  0  0  0  0  0  0  0
  131.7130   59.0775   -1.3868 C   0  0  0  0  0  0  0  0  0  0  0  0
  131.5185   60.3801   -1.0949 N   0  0  0  0  0  0  0  0  0  0  0  0
  130.3806   61.0267   -1.4658 C   0  0  0  0  0  0  0  0  0  0  0  0
  129.3515   60.2679   -2.1983 C   0  0  0  0  0  0  0  0  0  0  0  0
  129.6357   58.8382   -2.4815 C   0  0  0  0  0  0  0  0  0  0  0  0
  128.7418   58.0732   -3.1522 N   0  0  0  0  0  0  0  0  0  0  0  0
  128.3405   61.1192   -2.4419 N   0  0  0  0  0  0  0  0  0  0  0  0
  128.6891   62.3198   -1.9161 C   0  0  0  0  0  0  0  0  0  0  0  0
  129.9038   62.2729   -1.3336 N   0  0  0  0  0  0  0  0  0  0  0  0
  2  1  1  6  0  0  0
  2  3  1  0  0  0  0
  2  5  1  0  0  0  0
  3  4  1  0  0  0  0
  3 16  1  0  0  0  0
  5  6  1  0  0  0  0
  6  7  1  0  0  0  0
  7  8  1  0  0  0  0
  9  8  1  6  0  0  0
  9 10  1  0  0  0  0
  9 11  1  0  0  0  0
 10 15  1  0  0  0  0
 11 12  1  1  0  0  0
 11 13  1  0  0  0  0
 13 14  1  1  0  0  0
 13 15  1  0  0  0  0
 15 26  1  6  0  0  0
 17 18  2  0  0  0  0
 17 22  1  0  0  0  0
 18 19  1  0  0  0  0
 19 20  2  0  0  0  0
 20 21  1  0  0  0  0
 20 26  1  0  0  0  0
 21 22  2  0  0  0  0
 21 24  1  0  0  0  0
 22 23  1  0  0  0  0
 24 25  2  0  0  0  0
 25 26  1  0  0  0  0
M  END
>  <CHROM.1>
143.20408544,-63.73048647,70.44943757,93.09367768,56.95902667,68.42316487
-174.60860553,129.28534455,64.57557636,-2.15265604,1.96231744,-0.46902553
0.01718825

>  <Name>
ligand

>  <RI>
0

>  <Rbt.Current_Directory>
/home/itssahil/PROJECTS/Mol_Feturizer/Test_systems_manuscript/rnas/3npn

>  <Rbt.Executable>
rbdock ($Id: //depot/dev/client3/rdock/2013.1/src/exe/rbdock.cxx#4 $)

>  <Rbt.Library>
libRbt.so (2013.1, Build901 2013/11/27)

>  <Rbt.Parameter_File>
/export/apps/rDock/src/rDock_2013.1_src/data/scripts/dock_solv.prm

>  <Rbt.Receptor>
prm/pocket_docking_8.prm

>  <SCORE>
-28.1242

>  <SCORE.INTER>
-28.3085

>  <SCORE.INTER.CONST>
1

>  <SCORE.INTER.POLAR>
0

>  <SCORE.INTER.ROT>
7

>  <SCORE.INTER.SOLV>
27.6243

>  <SCORE.INTER.VDW>
-36.3471

>  <SCORE.INTER.norm>
-1.08879

>  <SCORE.INTRA>
0.184318

>  <SCORE.INTRA.DIHEDRAL>
0.427594

>  <SCORE.INTRA.DIHEDRAL.0>
4.37896

>  <SCORE.INTRA.POLAR>
0

>  <SCORE.INTRA.POLAR.0>
0

>  <SCORE.INTRA.REPUL>
0

>  <SCORE.INTRA.REPUL.0>
0

>  <SCORE.INTRA.SOLV>
1.57393

>  <SCORE.INTRA.SOLV.lig_0>
-50.5538

>  <SCORE.INTRA.VDW>
-0.816442

>  <SCORE.INTRA.VDW.0>
-1.30673

>  <SCORE.INTRA.norm>
0.00708914

>  <SCORE.RESTR>
0

>  <SCORE.RESTR.CAVITY>
0

>  <SCORE.RESTR.norm>
0

>  <SCORE.SYSTEM>
0

>  <SCORE.SYSTEM.CONST>
0

>  <SCORE.SYSTEM.DIHEDRAL>
0

>  <SCORE.SYSTEM.SOLV>
0

>  <SCORE.SYSTEM.norm>
0

>  <SCORE.heavy>
26

>  <SCORE.norm>
-1.0817

>  <RMSD>
1.232

$$$$
ligand
 OpenBabel02271912153D
libRbt.so/2013.1/901 2013/11/27
 26 28  0  0  0  0  0  0  0  0999 V2000
  127.4817   69.7147   -5.0789 N   0  0  0  0  0  0  0  0  0  0  0  0
  126.4887   69.5761   -3.9725 C   0  0  2  0  0  0  0  0  0  0  0  0
  126.2566   70.8988   -3.3004 C   0  0  0  0  0  0  0  0  0  0  0  0
  126.6593   71.9482   -3.8005 O   0  0  0  0  0  0  0  0  0  0  0  0
  126.9806   68.5598   -2.9454 C   0  0  0  0  0  0  0  0  0  0  0  0
  127.1476   67.1551   -3.5166 C   0  0  0  0  0  0  0  0  0  0  0  0
  127.6536   66.0442   -2.2449 S   0  0  0  0  0  0  0  0  0  0  0  0
  129.3517   65.7716   -2.6365 C   0  0  0  0  0  0  0  0  0  0  0  0
  130.2088   65.6518   -1.3776 C   0  0  1  0  0  0  0  0  0  0  0  0
  129.7449   64.5833   -0.5496 O   0  0  0  0  0  0  0  0  0  0  0  0
  131.6504   65.3438   -1.7486 C   0  0  1  0  0  0  0  0  0  0  0  0
  132.5320   66.2357   -1.0597 O   0  0  0  0  0  0  0  0  0  0  0  0
  131.8901   63.9027   -1.3347 C   0  0  1  0  0  0  0  0  0  0  0  0
  133.0281   63.7883   -0.4732 O   0  0  0  0  0  0  0  0  0  0  0  0
  130.6327   63.4598   -0.5959 C   0  0  2  0  0  0  0  0  0  0  0  0
  125.6644   70.9624   -2.2241 O   0  0  0  0  0  0  0  0  0  0  0  0
  130.8499   58.3487   -1.9352 N   0  0  0  0  0  0  0  0  0  0  0  0
  131.7347   59.0954   -1.2442 C   0  0  0  0  0  0  0  0  0  0  0  0
  131.5477   60.4033   -0.9720 N   0  0  0  0  0  0  0  0  0  0  0  0
  130.4326   61.0613   -1.3897 C   0  0  0  0  0  0  0  0  0  0  0  0
  129.4202   60.3089   -2.1513 C   0  0  0  0  0  0  0  0  0  0  0  0
  129.6948   58.8728   -2.4104 C   0  0  0  0  0  0  0  0  0  0  0  0
  128.8150   58.1131   -3.1053 N   0  0  0  0  0  0  0  0  0  0  0  0
  128.4303   61.1711   -2.4392 N   0  0  0  0  0  0  0  0  0  0  0  0
  128.7762   62.3721   -1.9127 C   0  0  0  0  0  0  0  0  0  0  0  0
  129.9685   62.3150   -1.2865 N   0  0  0  0  0  0  0  0  0  0  0  0
  2  1  1  6  0  0  0
  2  3  1  0  0  0  0
  2  5  1  0  0  0  0
  3  4  1  0  0  0  0
  3 16  1  0  0  0  0
  5  6  1  0  0  0  0
  6  7  1  0  0  0  0
  7  8  1  0  0  0  0
  9  8  1  6  0  0  0
  9 10  1  0  0  0  0
  9 11  1  0  0  0  0
 10 15  1  0  0  0  0
 11 12  1  1  0  0  0
 11 13  1  0  0  0  0
 13 14  1  1  0  0  0
 13 15  1  0  0  0  0
 15 26  1  6  0  0  0
 17 18  2  0  0  0  0
 17 22  1  0  0  0  0
 18 19  1  0  0  0  0
 19 20  2  0  0  0  0
 20 21  1  0  0  0  0
 20 26  1  0  0  0  0
 21 22  2  0  0  0  0
 21 24  1  0  0  0  0
 22 23  1  0  0  0  0
 24 25  2  0  0  0  0
 25 26  1  0  0  0  0
M  END
>  <CHROM.1>
12.48865660,-62.18642426,-177.70474436,-106.30755484,143.11044817,58.33252665
-172.28663745,129.25865091,64.66658124,-2.14056798,1.97635023,-0.45088086
0.01651650

>  <Name>
ligand

>  <RI>
0

>  <Rbt.Current_Directory>
/home/itssahil/PROJECTS/Mol_Feturizer/Test_systems_manuscript/rnas/3npn

>  <Rbt.Executable>
rbdock ($Id: //depot/dev/client3/rdock/2013.1/src/exe/rbdock.cxx#4 $)

>  <Rbt.Library>
libRbt.so (2013.1, Build901 2013/11/27)

>  <Rbt.Parameter_File>
/export/apps/rDock/src/rDock_2013.1_src/data/scripts/dock_solv.prm

>  <Rbt.Receptor>
prm/pocket_docking_4.prm

>  <SCORE>
-30.7055

>  <SCORE.INTER>
-30.8678

>  <SCORE.INTER.CONST>
1

>  <SCORE.INTER.POLAR>
0

>  <SCORE.INTER.ROT>
7

>  <SCORE.INTER.SOLV>
25.9368

>  <SCORE.INTER.VDW>
-37.4908

>  <SCORE.INTER.norm>
-1.18722

>  <SCORE.INTRA>
0.162327

>  <SCORE.INTRA.DIHEDRAL>
2.07445

>  <SCORE.INTRA.DIHEDRAL.0>
4.37896

>  <SCORE.INTRA.POLAR>
0

>  <SCORE.INTRA.POLAR.0>
0

>  <SCORE.INTRA.REPUL>
0

>  <SCORE.INTRA.REPUL.0>
0

>  <SCORE.INTRA.SOLV>
-0.207858

>  <SCORE.INTRA.SOLV.lig_0>
-50.5538

>  <SCORE.INTRA.VDW>
-0.770971

>  <SCORE.INTRA.VDW.0>
-1.30673

>  <SCORE.INTRA.norm>
0.00624336

>  <SCORE.RESTR>
0

>  <SCORE.RESTR.CAVITY>
0

>  <SCORE.RESTR.norm>
0

>  <SCORE.SYSTEM>
0

>  <SCORE.SYSTEM.CONST>
0

>  <SCORE.SYSTEM.DIHEDRAL>
0

>  <SCORE.SYSTEM.SOLV>
0

>  <SCORE.SYSTEM.norm>
0

>  <SCORE.heavy>
26

>  <SCORE.norm>
-1.18098

>  <RMSD>
1.240

$$$$
ligand
 OpenBabel02271912153D
libRbt.so/2013.1/901 2013/11/27
 26 28  0  0  0  0  0  0  0  0999 V2000
  128.5595   71.1920   -2.7170 N   0  0  0  0  0  0  0  0  0  0  0  0
  127.7067   70.1832   -3.4129 C   0  0  2  0  0  0  0  0  0  0  0  0
  126.6853   70.8613   -4.2802 C   0  0  0  0  0  0  0  0  0  0  0  0
  126.5008   70.5082   -5.4442 O   0  0  0  0  0  0  0  0  0  0  0  0
  127.0016   69.2935   -2.3926 C   0  0  0  0  0  0  0  0  0  0  0  0
  126.2897   68.0995   -3.0211 C   0  0  0  0  0  0  0  0  0  0  0  0
  127.4693   67.0079   -3.7451 S   0  0  0  0  0  0  0  0  0  0  0  0
  127.7495   65.8435   -2.4501 C   0  0  0  0  0  0  0  0  0  0  0  0
  129.0477   66.1357   -1.6998 C   0  0  1  0  0  0  0  0  0  0  0  0
  129.3348   65.0964   -0.7618 O   0  0  0  0  0  0  0  0  0  0  0  0
  130.2146   66.2033   -2.6717 C   0  0  1  0  0  0  0  0  0  0  0  0
  130.9782   67.3898   -2.4345 O   0  0  0  0  0  0  0  0  0  0  0  0
  131.0421   64.9554   -2.4191 C   0  0  1  0  0  0  0  0  0  0  0  0
  132.4102   65.2808   -2.1493 O   0  0  0  0  0  0  0  0  0  0  0  0
  130.4211   64.2743   -1.2052 C   0  0  2  0  0  0  0  0  0  0  0  0
  126.0135   71.7966   -3.8475 O   0  0  0  0  0  0  0  0  0  0  0  0
  131.4325   59.0862   -1.3638 N   0  0  0  0  0  0  0  0  0  0  0  0
  132.2190   60.1042   -0.9599 C   0  0  0  0  0  0  0  0  0  0  0  0
  131.8262   61.3946   -0.9734 N   0  0  0  0  0  0  0  0  0  0  0  0
  130.5878   61.7535   -1.4071 C   0  0  0  0  0  0  0  0  0  0  0  0
  129.6720   60.6935   -1.8643 C   0  0  0  0  0  0  0  0  0  0  0  0
  130.1740   59.2968   -1.8185 C   0  0  0  0  0  0  0  0  0  0  0  0
  129.3945   58.2662   -2.2238 N   0  0  0  0  0  0  0  0  0  0  0  0
  128.5298   61.2986   -2.2323 N   0  0  0  0  0  0  0  0  0  0  0  0
  128.6966   62.6297   -2.0328 C   0  0  0  0  0  0  0  0  0  0  0  0
  129.9207   62.9087   -1.5421 N   0  0  0  0  0  0  0  0  0  0  0  0
  2  1  1  1  0  0  0
  2  3  1  0  0  0  0
  2  5  1  0  0  0  0
  3  4  1  0  0  0  0
  3 16  1  0  0  0  0
  5  6  1  0  0  0  0
  6  7  1  0  0  0  0
  7  8  1  0  0  0  0
  9  8  1  6  0  0  0
  9 10  1  0  0  0  0
  9 11  1  0  0  0  0
 10 15  1  0  0  0  0
 11 12  1  1  0  0  0
 11 13  1  0  0  0  0
 13 14  1  1  0  0  0
 13 15  1  0  0  0  0
 15 26  1  6  0  0  0
 17 18  2  0  0  0  0
 17 22  1  0  0  0  0
 18 19  1  0  0  0  0
 19 20  2  0  0  0  0
 20 21  1  0  0  0  0
 20 26  1  0  0  0  0
 21 22  2  0  0  0  0
 21 24  1  0  0  0  0
 22 23  1  0  0  0  0
 24 25  2  0  0  0  0
 25 26  1  0  0  0  0
M  END
>  <CHROM.1>
132.22720153,-170.75209040,65.48004876,94.19188754,-100.77048591,-173.24769133
-147.70050965,129.11617503,65.29521228,-2.44148582,-1.93327395,0.33753616
3.04887986

>  <Name>
ligand

>  <RI>
0

>  <Rbt.Current_Directory>
/home/itssahil/PROJECTS/Mol_Feturizer/Test_systems_manuscript/rnas/3npn

>  <Rbt.Executable>
rbdock ($Id: //depot/dev/client3/rdock/2013.1/src/exe/rbdock.cxx#4 $)

>  <Rbt.Library>
libRbt.so (2013.1, Build901 2013/11/27)

>  <Rbt.Parameter_File>
/export/apps/rDock/src/rDock_2013.1_src/data/scripts/dock_solv.prm

>  <Rbt.Receptor>
prm/pocket_docking_3.prm

>  <SCORE>
-29.8028

>  <SCORE.INTER>
-29.4482

>  <SCORE.INTER.CONST>
1

>  <SCORE.INTER.POLAR>
0

>  <SCORE.INTER.ROT>
7

>  <SCORE.INTER.SOLV>
23.2667

>  <SCORE.INTER.VDW>
-35.6544

>  <SCORE.INTER.norm>
-1.13262

>  <SCORE.INTRA>
-0.354526

>  <SCORE.INTRA.DIHEDRAL>
2.21452

>  <SCORE.INTRA.DIHEDRAL.0>
4.37896

>  <SCORE.INTRA.POLAR>
0

>  <SCORE.INTRA.POLAR.0>
0

>  <SCORE.INTRA.REPUL>
0

>  <SCORE.INTRA.REPUL.0>
0

>  <SCORE.INTRA.SOLV>
-0.533763

>  <SCORE.INTRA.SOLV.lig_0>
-50.5538

>  <SCORE.INTRA.VDW>
-1.1949

>  <SCORE.INTRA.VDW.0>
-1.30673

>  <SCORE.INTRA.norm>
-0.0136356

>  <SCORE.RESTR>
0

>  <SCORE.RESTR.CAVITY>
0

>  <SCORE.RESTR.norm>
0

>  <SCORE.SYSTEM>
0

>  <SCORE.SYSTEM.CONST>
0

>  <SCORE.SYSTEM.DIHEDRAL>
0

>  <SCORE.SYSTEM.SOLV>
0

>  <SCORE.SYSTEM.norm>
0

>  <SCORE.heavy>
26

>  <SCORE.norm>
-1.14626

>  <RMSD>
1.241

$$$$
ligand
 OpenBabel02271912153D
libRbt.so/2013.1/901 2013/11/27
 26 28  0  0  0  0  0  0  0  0999 V2000
  125.8428   70.7976   -2.3740 N   0  0  0  0  0  0  0  0  0  0  0  0
  126.9089   69.8442   -2.8027 C   0  0  2  0  0  0  0  0  0  0  0  0
  127.9430   70.5457   -3.6356 C   0  0  0  0  0  0  0  0  0  0  0  0
  127.6275   71.4200   -4.4417 O   0  0  0  0  0  0  0  0  0  0  0  0
  126.3001   68.6961   -3.6034 C   0  0  0  0  0  0  0  0  0  0  0  0
  127.2898   67.5732   -3.8986 C   0  0  0  0  0  0  0  0  0  0  0  0
  127.6404   66.6760   -2.4223 S   0  0  0  0  0  0  0  0  0  0  0  0
  129.2850   66.1067   -2.7091 C   0  0  0  0  0  0  0  0  0  0  0  0
  130.0868   66.0215   -1.4116 C   0  0  1  0  0  0  0  0  0  0  0  0
  129.5831   64.9795   -0.5731 O   0  0  0  0  0  0  0  0  0  0  0  0
  131.5416   65.6979   -1.7111 C   0  0  1  0  0  0  0  0  0  0  0  0
  132.3969   66.6070   -1.0116 O   0  0  0  0  0  0  0  0  0  0  0  0
  131.7568   64.2690   -1.2449 C   0  0  1  0  0  0  0  0  0  0  0  0
  132.8563   64.1765   -0.3323 O   0  0  0  0  0  0  0  0  0  0  0  0
  130.4669   63.8523   -0.5479 C   0  0  2  0  0  0  0  0  0  0  0  0
  129.1339   70.2538   -3.5376 O   0  0  0  0  0  0  0  0  0  0  0  0
  130.8221   58.7552   -1.9108 N   0  0  0  0  0  0  0  0  0  0  0  0
  131.6942   59.5269   -1.2312 C   0  0  0  0  0  0  0  0  0  0  0  0
  131.4708   60.8273   -0.9508 N   0  0  0  0  0  0  0  0  0  0  0  0
  130.3291   61.4515   -1.3479 C   0  0  0  0  0  0  0  0  0  0  0  0
  129.3284   60.6704   -2.0961 C   0  0  0  0  0  0  0  0  0  0  0  0
  129.6436   59.2445   -2.3653 C   0  0  0  0  0  0  0  0  0  0  0  0
  128.7768   58.4600   -3.0490 N   0  0  0  0  0  0  0  0  0  0  0  0
  128.3075   61.5021   -2.3646 N   0  0  0  0  0  0  0  0  0  0  0  0
  128.6242   62.7116   -1.8390 C   0  0  0  0  0  0  0  0  0  0  0  0
  129.8277   62.6897   -1.2324 N   0  0  0  0  0  0  0  0  0  0  0  0
  2  1  1  6  0  0  0
  2  3  1  0  0  0  0
  2  5  1  0  0  0  0
  3  4  1  0  0  0  0
  3 16  1  0  0  0  0
  5  6  1  0  0  0  0
  6  7  1  0  0  0  0
  7  8  1  0  0  0  0
  9  8  1  6  0  0  0
  9 10  1  0  0  0  0
  9 11  1  0  0  0  0
 10 15  1  0  0  0  0
 11 12  1  1  0  0  0
 11 13  1  0  0  0  0
 13 14  1  1  0  0  0
 13 15  1  0  0  0  0
 15 26  1  6  0  0  0
 17 18  2  0  0  0  0
 17 22  1  0  0  0  0
 18 19  1  0  0  0  0
 19 20  2  0  0  0  0
 20 21  1  0  0  0  0
 20 26  1  0  0  0  0
 21 22  2  0  0  0  0
 21 24  1  0  0  0  0
 22 23  1  0  0  0  0
 24 25  2  0  0  0  0
 25 26  1  0  0  0  0
M  END
>  <CHROM.1>
-37.85379723,-171.34712803,71.68046737,-150.72701731,147.44329504,68.43680615
-176.66470841,129.36387757,64.97105286,-2.12194287,1.89807335,-0.43668631
-0.02878520

>  <Name>
ligand

>  <RI>
0

>  <Rbt.Current_Directory>
/home/itssahil/PROJECTS/Mol_Feturizer/Test_systems_manuscript/rnas/3npn

>  <Rbt.Executable>
rbdock ($Id: //depot/dev/client3/rdock/2013.1/src/exe/rbdock.cxx#4 $)

>  <Rbt.Library>
libRbt.so (2013.1, Build901 2013/11/27)

>  <Rbt.Parameter_File>
/export/apps/rDock/src/rDock_2013.1_src/data/scripts/dock_solv.prm

>  <Rbt.Receptor>
prm/pocket_docking_8.prm

>  <SCORE>
-27.363

>  <SCORE.INTER>
-26.4612

>  <SCORE.INTER.CONST>
1

>  <SCORE.INTER.POLAR>
0

>  <SCORE.INTER.ROT>
7

>  <SCORE.INTER.SOLV>
28.959

>  <SCORE.INTER.VDW>
-35.5605

>  <SCORE.INTER.norm>
-1.01774

>  <SCORE.INTRA>
-0.901753

>  <SCORE.INTRA.DIHEDRAL>
1.81932

>  <SCORE.INTRA.DIHEDRAL.0>
4.37896

>  <SCORE.INTRA.POLAR>
0

>  <SCORE.INTRA.POLAR.0>
0

>  <SCORE.INTRA.REPUL>
0

>  <SCORE.INTRA.REPUL.0>
0

>  <SCORE.INTRA.SOLV>
-0.751943

>  <SCORE.INTRA.SOLV.lig_0>
-50.5538

>  <SCORE.INTRA.VDW>
-1.43544

>  <SCORE.INTRA.VDW.0>
-1.30673

>  <SCORE.INTRA.norm>
-0.0346828

>  <SCORE.RESTR>
0

>  <SCORE.RESTR.CAVITY>
0

>  <SCORE.RESTR.norm>
0

>  <SCORE.SYSTEM>
0

>  <SCORE.SYSTEM.CONST>
0

>  <SCORE.SYSTEM.DIHEDRAL>
0

>  <SCORE.SYSTEM.SOLV>
0

>  <SCORE.SYSTEM.norm>
0

>  <SCORE.heavy>
26

>  <SCORE.norm>
-1.05242

>  <RMSD>
1.242

$$$$
ligand
 OpenBabel02271912153D
libRbt.so/2013.1/901 2013/11/27
 26 28  0  0  0  0  0  0  0  0999 V2000
  125.7953   69.8052   -2.4477 N   0  0  0  0  0  0  0  0  0  0  0  0
  127.1424   69.8343   -3.0911 C   0  0  2  0  0  0  0  0  0  0  0  0
  127.1709   70.8293   -4.2154 C   0  0  0  0  0  0  0  0  0  0  0  0
  126.6162   70.5960   -5.2885 O   0  0  0  0  0  0  0  0  0  0  0  0
  127.5034   68.4502   -3.6237 C   0  0  0  0  0  0  0  0  0  0  0  0
  128.9982   68.2671   -3.8678 C   0  0  0  0  0  0  0  0  0  0  0  0
  129.3011   66.6894   -4.5932 S   0  0  0  0  0  0  0  0  0  0  0  0
  128.7159   65.5842   -3.3493 C   0  0  0  0  0  0  0  0  0  0  0  0
  129.4385   65.7970   -2.0203 C   0  0  1  0  0  0  0  0  0  0  0  0
  129.0490   64.8050   -1.0681 O   0  0  0  0  0  0  0  0  0  0  0  0
  130.9416   65.6750   -2.2120 C   0  0  1  0  0  0  0  0  0  0  0  0
  131.6019   66.7921   -1.6092 O   0  0  0  0  0  0  0  0  0  0  0  0
  131.3437   64.3714   -1.5453 C   0  0  1  0  0  0  0  0  0  0  0  0
  132.3851   64.5750   -0.5839 O   0  0  0  0  0  0  0  0  0  0  0  0
  130.0919   63.8468   -0.8517 C   0  0  2  0  0  0  0  0  0  0  0  0
  127.7610   71.9016   -4.0920 O   0  0  0  0  0  0  0  0  0  0  0  0
  131.3840   58.7798   -1.6394 N   0  0  0  0  0  0  0  0  0  0  0  0
  132.0934   59.7684   -1.0587 C   0  0  0  0  0  0  0  0  0  0  0  0
  131.6340   61.0295   -0.9233 N   0  0  0  0  0  0  0  0  0  0  0  0
  130.4022   61.3870   -1.3769 C   0  0  0  0  0  0  0  0  0  0  0  0
  129.5688   60.3582   -2.0236 C   0  0  0  0  0  0  0  0  0  0  0  0
  130.1412   58.9925   -2.1346 C   0  0  0  0  0  0  0  0  0  0  0  0
  129.4393   57.9919   -2.7181 N   0  0  0  0  0  0  0  0  0  0  0  0
  128.4166   60.9548   -2.3737 N   0  0  0  0  0  0  0  0  0  0  0  0
  128.5020   62.2527   -1.9897 C   0  0  0  0  0  0  0  0  0  0  0  0
  129.6827   62.5182   -1.3958 N   0  0  0  0  0  0  0  0  0  0  0  0
  2  1  1  6  0  0  0
  2  3  1  0  0  0  0
  2  5  1  0  0  0  0
  3  4  1  0  0  0  0
  3 16  1  0  0  0  0
  5  6  1  0  0  0  0
  6  7  1  0  0  0  0
  7  8  1  0  0  0  0
  9  8  1  6  0  0  0
  9 10  1  0  0  0  0
  9 11  1  0  0  0  0
 10 15  1  0  0  0  0
 11 12  1  1  0  0  0
 11 13  1  0  0  0  0
 13 14  1  1  0  0  0
 13 15  1  0  0  0  0
 15 26  1  6  0  0  0
 17 18  2  0  0  0  0
 17 22  1  0  0  0  0
 18 19  1  0  0  0  0
 19 20  2  0  0  0  0
 20 21  1  0  0  0  0
 20 26  1  0  0  0  0
 21 22  2  0  0  0  0
 21 24  1  0  0  0  0
 22 23  1  0  0  0  0
 24 25  2  0  0  0  0
 25 26  1  0  0  0  0
M  END
>  <CHROM.1>
-74.21413992,-160.79011975,-175.74410780,-61.67392767,-58.05887050,-174.05989522
179.82105467,129.41114350,64.92554989,-2.51214773,1.90817715,-0.52080574
-0.05961337

>  <Name>
ligand

>  <RI>
0

>  <Rbt.Current_Directory>
/home/itssahil/PROJECTS/Mol_Feturizer/Test_systems_manuscript/rnas/3npn

>  <Rbt.Executable>
rbdock ($Id: //depot/dev/client3/rdock/2013.1/src/exe/rbdock.cxx#4 $)

>  <Rbt.Library>
libRbt.so (2013.1, Build901 2013/11/27)

>  <Rbt.Parameter_File>
/export/apps/rDock/src/rDock_2013.1_src/data/scripts/dock_solv.prm

>  <Rbt.Receptor>
prm/pocket_docking_3.prm

>  <SCORE>
-26.6202

>  <SCORE.INTER>
-26.0889

>  <SCORE.INTER.CONST>
1

>  <SCORE.INTER.POLAR>
0

>  <SCORE.INTER.ROT>
7

>  <SCORE.INTER.SOLV>
24.4731

>  <SCORE.INTER.VDW>
-33.817

>  <SCORE.INTER.norm>
-1.00342

>  <SCORE.INTRA>
-0.53132

>  <SCORE.INTRA.DIHEDRAL>
-0.156432

>  <SCORE.INTRA.DIHEDRAL.0>
4.37896

>  <SCORE.INTRA.POLAR>
0

>  <SCORE.INTRA.POLAR.0>
0

>  <SCORE.INTRA.REPUL>
0

>  <SCORE.INTRA.REPUL.0>
0

>  <SCORE.INTRA.SOLV>
-0.630628

>  <SCORE.INTRA.SOLV.lig_0>
-50.5538

>  <SCORE.INTRA.VDW>
-0.13779

>  <SCORE.INTRA.VDW.0>
-1.30673

>  <SCORE.INTRA.norm>
-0.0204354

>  <SCORE.RESTR>
0

>  <SCORE.RESTR.CAVITY>
0

>  <SCORE.RESTR.norm>
0

>  <SCORE.SYSTEM>
0

>  <SCORE.SYSTEM.CONST>
0

>  <SCORE.SYSTEM.DIHEDRAL>
0

>  <SCORE.SYSTEM.SOLV>
0

>  <SCORE.SYSTEM.norm>
0

>  <SCORE.heavy>
26

>  <SCORE.norm>
-1.02385

>  <RMSD>
1.250

$$$$
ligand
 OpenBabel02271912153D
libRbt.so/2013.1/901 2013/11/27
 26 28  0  0  0  0  0  0  0  0999 V2000
  128.0945   70.3492   -4.5532 N   0  0  0  0  0  0  0  0  0  0  0  0
  127.1074   69.8170   -3.5674 C   0  0  2  0  0  0  0  0  0  0  0  0
  126.1702   70.9012   -3.1186 C   0  0  0  0  0  0  0  0  0  0  0  0
  126.0281   71.9333   -3.7728 O   0  0  0  0  0  0  0  0  0  0  0  0
  127.8316   69.2336   -2.3571 C   0  0  0  0  0  0  0  0  0  0  0  0
  128.7511   68.0675   -2.7067 C   0  0  0  0  0  0  0  0  0  0  0  0
  127.7966   66.6142   -2.9969 S   0  0  0  0  0  0  0  0  0  0  0  0
  129.0266   65.3499   -2.9991 C   0  0  0  0  0  0  0  0  0  0  0  0
  129.8371   65.3491   -1.7042 C   0  0  1  0  0  0  0  0  0  0  0  0
  129.4127   64.2909   -0.8425 O   0  0  0  0  0  0  0  0  0  0  0  0
  131.3104   65.1250   -2.0045 C   0  0  1  0  0  0  0  0  0  0  0  0
  132.1005   66.1072   -1.3277 O   0  0  0  0  0  0  0  0  0  0  0  0
  131.6296   63.7250   -1.5108 C   0  0  1  0  0  0  0  0  0  0  0  0
  132.7362   63.7304   -0.6021 O   0  0  0  0  0  0  0  0  0  0  0  0
  130.3755   63.2309   -0.7992 C   0  0  2  0  0  0  0  0  0  0  0  0
  125.5275   70.7856   -2.0761 O   0  0  0  0  0  0  0  0  0  0  0  0
  131.1208   58.1655   -2.1221 N   0  0  0  0  0  0  0  0  0  0  0  0
  131.9414   59.0144   -1.4711 C   0  0  0  0  0  0  0  0  0  0  0  0
  131.6174   60.2950   -1.1977 N   0  0  0  0  0  0  0  0  0  0  0  0
  130.4189   60.8179   -1.5729 C   0  0  0  0  0  0  0  0  0  0  0  0
  129.4694   59.9482   -2.2892 C   0  0  0  0  0  0  0  0  0  0  0  0
  129.8954   58.5503   -2.5525 C   0  0  0  0  0  0  0  0  0  0  0  0
  129.0811   57.6890   -3.2076 N   0  0  0  0  0  0  0  0  0  0  0  0
  128.3769   60.6894   -2.5407 N   0  0  0  0  0  0  0  0  0  0  0  0
  128.6042   61.9269   -2.0344 C   0  0  0  0  0  0  0  0  0  0  0  0
  129.8193   62.0116   -1.4569 N   0  0  0  0  0  0  0  0  0  0  0  0
  2  1  1  6  0  0  0
  2  3  1  0  0  0  0
  2  5  1  0  0  0  0
  3  4  1  0  0  0  0
  3 16  1  0  0  0  0
  5  6  1  0  0  0  0
  6  7  1  0  0  0  0
  7  8  1  0  0  0  0
  9  8  1  6  0  0  0
  9 10  1  0  0  0  0
  9 11  1  0  0  0  0
 10 15  1  0  0  0  0
 11 12  1  1  0  0  0
 11 13  1  0  0  0  0
 13 14  1  1  0  0  0
 13 15  1  0  0  0  0
 15 26  1  6  0  0  0
 17 18  2  0  0  0  0
 17 22  1  0  0  0  0
 18 19  1  0  0  0  0
 19 20  2  0  0  0  0
 20 21  1  0  0  0  0
 20 26  1  0  0  0  0
 21 22  2  0  0  0  0
 21 24  1  0  0  0  0
 22 23  1  0  0  0  0
 24 25  2  0  0  0  0
 25 26  1  0  0  0  0
M  END
>  <CHROM.1>
18.92732567,-61.23465212,-76.07027898,-167.23208685,56.18516029,102.77273561
-178.06476338,129.29536670,64.62762746,-2.23723207,-1.92861709,0.40971272
-3.11428616

>  <Name>
ligand

>  <RI>
0

>  <Rbt.Current_Directory>
/home/itssahil/PROJECTS/Mol_Feturizer/Test_systems_manuscript/rnas/3npn

>  <Rbt.Executable>
rbdock ($Id: //depot/dev/client3/rdock/2013.1/src/exe/rbdock.cxx#4 $)

>  <Rbt.Library>
libRbt.so (2013.1, Build901 2013/11/27)

>  <Rbt.Parameter_File>
/export/apps/rDock/src/rDock_2013.1_src/data/scripts/dock_solv.prm

>  <Rbt.Receptor>
prm/pocket_docking_4.prm

>  <SCORE>
-25.7653

>  <SCORE.INTER>
-27.4118

>  <SCORE.INTER.CONST>
1

>  <SCORE.INTER.POLAR>
0

>  <SCORE.INTER.ROT>
7

>  <SCORE.INTER.SOLV>
22.7191

>  <SCORE.INTER.VDW>
-34.1142

>  <SCORE.INTER.norm>
-1.0543

>  <SCORE.INTRA>
1.64651

>  <SCORE.INTRA.DIHEDRAL>
3.7824

>  <SCORE.INTRA.DIHEDRAL.0>
4.37896

>  <SCORE.INTRA.POLAR>
0

>  <SCORE.INTRA.POLAR.0>
0

>  <SCORE.INTRA.REPUL>
0

>  <SCORE.INTRA.REPUL.0>
0

>  <SCORE.INTRA.SOLV>
0.301174

>  <SCORE.INTRA.SOLV.lig_0>
-50.5538

>  <SCORE.INTRA.VDW>
-0.395278

>  <SCORE.INTRA.VDW.0>
-1.30673

>  <SCORE.INTRA.norm>
0.0633272

>  <SCORE.RESTR>
0

>  <SCORE.RESTR.CAVITY>
0

>  <SCORE.RESTR.norm>
0

>  <SCORE.SYSTEM>
0

>  <SCORE.SYSTEM.CONST>
0

>  <SCORE.SYSTEM.DIHEDRAL>
0

>  <SCORE.SYSTEM.SOLV>
0

>  <SCORE.SYSTEM.norm>
0

>  <SCORE.heavy>
26

>  <SCORE.norm>
-0.990973

>  <RMSD>
1.259

$$$$
ligand
 OpenBabel02271912153D
libRbt.so/2013.1/901 2013/11/27
 26 28  0  0  0  0  0  0  0  0999 V2000
  127.6763   69.6968   -2.5078 N   0  0  0  0  0  0  0  0  0  0  0  0
  127.8411   69.5851   -3.9876 C   0  0  2  0  0  0  0  0  0  0  0  0
  127.2497   70.7805   -4.6779 C   0  0  0  0  0  0  0  0  0  0  0  0
  127.2622   70.8804   -5.9041 O   0  0  0  0  0  0  0  0  0  0  0  0
  127.1685   68.3142   -4.4996 C   0  0  0  0  0  0  0  0  0  0  0  0
  127.8571   67.0354   -4.0328 C   0  0  0  0  0  0  0  0  0  0  0  0
  127.4840   66.7354   -2.3363 S   0  0  0  0  0  0  0  0  0  0  0  0
  128.2427   65.1681   -2.0551 C   0  0  0  0  0  0  0  0  0  0  0  0
  129.5012   65.2960   -1.1988 C   0  0  1  0  0  0  0  0  0  0  0  0
  129.6967   64.1216   -0.4082 O   0  0  0  0  0  0  0  0  0  0  0  0
  130.7270   65.4553   -2.0836 C   0  0  1  0  0  0  0  0  0  0  0  0
  131.5124   66.5632   -1.6331 O   0  0  0  0  0  0  0  0  0  0  0  0
  131.4969   64.1514   -1.9702 C   0  0  1  0  0  0  0  0  0  0  0  0
  132.8556   64.3785   -1.5797 O   0  0  0  0  0  0  0  0  0  0  0  0
  130.7811   63.3283   -0.9056 C   0  0  2  0  0  0  0  0  0  0  0  0
  126.7457   71.6963   -4.0294 O   0  0  0  0  0  0  0  0  0  0  0  0
  131.6027   58.1656   -1.7024 N   0  0  0  0  0  0  0  0  0  0  0  0
  132.3911   59.0796   -1.1018 C   0  0  0  0  0  0  0  0  0  0  0  0
  132.0506   60.3779   -0.9668 N   0  0  0  0  0  0  0  0  0  0  0  0
  130.8673   60.8527   -1.4411 C   0  0  0  0  0  0  0  0  0  0  0  0
  129.9529   59.9106   -2.1101 C   0  0  0  0  0  0  0  0  0  0  0  0
  130.3954   58.4974   -2.2194 C   0  0  0  0  0  0  0  0  0  0  0  0
  129.6135   57.5707   -2.8226 N   0  0  0  0  0  0  0  0  0  0  0  0
  128.8694   60.6155   -2.4779 N   0  0  0  0  0  0  0  0  0  0  0  0
  129.0698   61.8976   -2.0838 C   0  0  0  0  0  0  0  0  0  0  0  0
  130.2585   62.0471   -1.4661 N   0  0  0  0  0  0  0  0  0  0  0  0
  2  1  1  1  0  0  0
  2  3  1  0  0  0  0
  2  5  1  0  0  0  0
  3  4  1  0  0  0  0
  3 16  1  0  0  0  0
  5  6  1  0  0  0  0
  6  7  1  0  0  0  0
  7  8  1  0  0  0  0
  9  8  1  6  0  0  0
  9 10  1  0  0  0  0
  9 11  1  0  0  0  0
 10 15  1  0  0  0  0
 11 12  1  1  0  0  0
 11 13  1  0  0  0  0
 13 14  1  1  0  0  0
 13 15  1  0  0  0  0
 15 26  1  6  0  0  0
 17 18  2  0  0  0  0
 17 22  1  0  0  0  0
 18 19  1  0  0  0  0
 19 20  2  0  0  0  0
 20 21  1  0  0  0  0
 20 26  1  0  0  0  0
 21 22  2  0  0  0  0
 21 24  1  0  0  0  0
 22 23  1  0  0  0  0
 24 25  2  0  0  0  0
 25 26  1  0  0  0  0
M  END
>  <CHROM.1>
-178.99415920,-67.61823696,75.00253162,175.09795857,107.43073652,149.19294355
-146.29254098,129.46370440,64.58020105,-2.40693067,-1.94995271,0.53599089
3.11676492

>  <Name>
ligand

>  <RI>
0

>  <Rbt.Current_Directory>
/home/itssahil/PROJECTS/Mol_Feturizer/Test_systems_manuscript/rnas/3npn

>  <Rbt.Executable>
rbdock ($Id: //depot/dev/client3/rdock/2013.1/src/exe/rbdock.cxx#4 $)

>  <Rbt.Library>
libRbt.so (2013.1, Build901 2013/11/27)

>  <Rbt.Parameter_File>
/export/apps/rDock/src/rDock_2013.1_src/data/scripts/dock_solv.prm

>  <Rbt.Receptor>
prm/pocket_docking_4.prm

>  <SCORE>
-26.1168

>  <SCORE.INTER>
-27.711

>  <SCORE.INTER.CONST>
1

>  <SCORE.INTER.POLAR>
0

>  <SCORE.INTER.ROT>
7

>  <SCORE.INTER.SOLV>
20.7036

>  <SCORE.INTER.VDW>
-33.6418

>  <SCORE.INTER.norm>
-1.06581

>  <SCORE.INTRA>
1.59181

>  <SCORE.INTRA.DIHEDRAL>
4.26446

>  <SCORE.INTRA.DIHEDRAL.0>
4.37896

>  <SCORE.INTRA.POLAR>
0

>  <SCORE.INTRA.POLAR.0>
0

>  <SCORE.INTRA.REPUL>
0

>  <SCORE.INTRA.REPUL.0>
0

>  <SCORE.INTRA.SOLV>
1.12559

>  <SCORE.INTRA.SOLV.lig_0>
-50.5538

>  <SCORE.INTRA.VDW>
-1.10322

>  <SCORE.INTRA.VDW.0>
-1.30673

>  <SCORE.INTRA.norm>
0.0612234

>  <SCORE.RESTR>
0.00235688

>  <SCORE.RESTR.CAVITY>
0.00235688

>  <SCORE.RESTR.norm>
9.06493e-05

>  <SCORE.SYSTEM>
0

>  <SCORE.SYSTEM.CONST>
0

>  <SCORE.SYSTEM.DIHEDRAL>
0

>  <SCORE.SYSTEM.SOLV>
0

>  <SCORE.SYSTEM.norm>
0

>  <SCORE.heavy>
26

>  <SCORE.norm>
-1.00449

>  <RMSD>
1.261

$$$$
ligand
 OpenBabel02271912153D
libRbt.so/2013.1/901 2013/11/27
 26 28  0  0  0  0  0  0  0  0999 V2000
  127.3221   69.6716   -5.3023 N   0  0  0  0  0  0  0  0  0  0  0  0
  126.5038   69.6192   -4.0545 C   0  0  2  0  0  0  0  0  0  0  0  0
  126.4224   70.9765   -3.4173 C   0  0  0  0  0  0  0  0  0  0  0  0
  127.2093   71.8723   -3.7207 O   0  0  0  0  0  0  0  0  0  0  0  0
  127.1099   68.6259   -3.0667 C   0  0  0  0  0  0  0  0  0  0  0  0
  127.0713   67.1827   -3.5598 C   0  0  0  0  0  0  0  0  0  0  0  0
  127.5716   66.0917   -2.2688 S   0  0  0  0  0  0  0  0  0  0  0  0
  129.2592   65.7772   -2.6741 C   0  0  0  0  0  0  0  0  0  0  0  0
  130.1275   65.6593   -1.4228 C   0  0  1  0  0  0  0  0  0  0  0  0
  129.6766   64.5863   -0.5934 O   0  0  0  0  0  0  0  0  0  0  0  0
  131.5676   65.3604   -1.8066 C   0  0  1  0  0  0  0  0  0  0  0  0
  132.4499   66.2556   -1.1230 O   0  0  0  0  0  0  0  0  0  0  0  0
  131.8189   63.9197   -1.3980 C   0  0  1  0  0  0  0  0  0  0  0  0
  132.9647   63.8097   -0.5464 O   0  0  0  0  0  0  0  0  0  0  0  0
  130.5702   63.4680   -0.6497 C   0  0  2  0  0  0  0  0  0  0  0  0
  125.5692   71.2218   -2.5658 O   0  0  0  0  0  0  0  0  0  0  0  0
  130.8358   58.3787   -2.0615 N   0  0  0  0  0  0  0  0  0  0  0  0
  131.7264   59.1314   -1.3846 C   0  0  0  0  0  0  0  0  0  0  0  0
  131.5252   60.4324   -1.0903 N   0  0  0  0  0  0  0  0  0  0  0  0
  130.3886   61.0768   -1.4693 C   0  0  0  0  0  0  0  0  0  0  0  0
  129.3686   60.3171   -2.2135 C   0  0  0  0  0  0  0  0  0  0  0  0
  129.6598   58.8893   -2.4987 C   0  0  0  0  0  0  0  0  0  0  0  0
  128.7743   58.1237   -3.1800 N   0  0  0  0  0  0  0  0  0  0  0  0
  128.3572   61.1661   -2.4635 N   0  0  0  0  0  0  0  0  0  0  0  0
  128.6972   62.3660   -1.9307 C   0  0  0  0  0  0  0  0  0  0  0  0
  129.9067   62.3210   -1.3374 N   0  0  0  0  0  0  0  0  0  0  0  0
  2  1  1  6  0  0  0
  2  3  1  0  0  0  0
  2  5  1  0  0  0  0
  3  4  1  0  0  0  0
  3 16  1  0  0  0  0
  5  6  1  0  0  0  0
  6  7  1  0  0  0  0
  7  8  1  0  0  0  0
  9  8  1  6  0  0  0
  9 10  1  0  0  0  0
  9 11  1  0  0  0  0
 10 15  1  0  0  0  0
 11 12  1  1  0  0  0
 11 13  1  0  0  0  0
 13 14  1  1  0  0  0
 13 15  1  0  0  0  0
 15 26  1  6  0  0  0
 17 18  2  0  0  0  0
 17 22  1  0  0  0  0
 18 19  1  0  0  0  0
 19 20  2  0  0  0  0
 20 21  1  0  0  0  0
 20 26  1  0  0  0  0
 21 22  2  0  0  0  0
 21 24  1  0  0  0  0
 22 23  1  0  0  0  0
 24 25  2  0  0  0  0
 25 26  1  0  0  0  0
M  END
>  <CHROM.1>
-16.97950953,-65.27787342,-171.80548850,-99.13769880,143.53425160,60.19152426
-173.65940343,129.23508397,64.69301928,-2.21870921,1.96272749,-0.45992509
0.01257990

>  <Name>
ligand

>  <RI>
0

>  <Rbt.Current_Directory>
/home/itssahil/PROJECTS/Mol_Feturizer/Test_systems_manuscript/rnas/3npn

>  <Rbt.Executable>
rbdock ($Id: //depot/dev/client3/rdock/2013.1/src/exe/rbdock.cxx#4 $)

>  <Rbt.Library>
libRbt.so (2013.1, Build901 2013/11/27)

>  <Rbt.Parameter_File>
/export/apps/rDock/src/rDock_2013.1_src/data/scripts/dock_solv.prm

>  <Rbt.Receptor>
prm/pocket_docking_4.prm

>  <SCORE>
-30.5354

>  <SCORE.INTER>
-30.2268

>  <SCORE.INTER.CONST>
1

>  <SCORE.INTER.POLAR>
0

>  <SCORE.INTER.ROT>
7

>  <SCORE.INTER.SOLV>
27.149

>  <SCORE.INTER.VDW>
-37.4676

>  <SCORE.INTER.norm>
-1.16257

>  <SCORE.INTRA>
-0.308534

>  <SCORE.INTRA.DIHEDRAL>
1.98372

>  <SCORE.INTRA.DIHEDRAL.0>
4.37896

>  <SCORE.INTRA.POLAR>
0

>  <SCORE.INTRA.POLAR.0>
0

>  <SCORE.INTRA.REPUL>
0

>  <SCORE.INTRA.REPUL.0>
0

>  <SCORE.INTRA.SOLV>
-0.239749

>  <SCORE.INTRA.SOLV.lig_0>
-50.5538

>  <SCORE.INTRA.VDW>
-1.18052

>  <SCORE.INTRA.VDW.0>
-1.30673

>  <SCORE.INTRA.norm>
-0.0118667

>  <SCORE.RESTR>
0

>  <SCORE.RESTR.CAVITY>
0

>  <SCORE.RESTR.norm>
0

>  <SCORE.SYSTEM>
0

>  <SCORE.SYSTEM.CONST>
0

>  <SCORE.SYSTEM.DIHEDRAL>
0

>  <SCORE.SYSTEM.SOLV>
0

>  <SCORE.SYSTEM.norm>
0

>  <SCORE.heavy>
26

>  <SCORE.norm>
-1.17444

>  <RMSD>
1.263

$$$$
ligand
 OpenBabel02271912153D
libRbt.so/2013.1/901 2013/11/27
 26 28  0  0  0  0  0  0  0  0999 V2000
  125.7247   69.0041   -2.3814 N   0  0  0  0  0  0  0  0  0  0  0  0
  126.9233   69.8328   -2.7069 C   0  0  2  0  0  0  0  0  0  0  0  0
  126.6258   70.7721   -3.8402 C   0  0  0  0  0  0  0  0  0  0  0  0
  126.2777   70.3519   -4.9429 O   0  0  0  0  0  0  0  0  0  0  0  0
  128.0999   68.9356   -3.0816 C   0  0  0  0  0  0  0  0  0  0  0  0
  127.7818   67.9620   -4.2123 C   0  0  0  0  0  0  0  0  0  0  0  0
  129.1342   66.8574   -4.4540 S   0  0  0  0  0  0  0  0  0  0  0  0
  128.7588   65.5509   -3.3300 C   0  0  0  0  0  0  0  0  0  0  0  0
  129.4327   65.7611   -1.9753 C   0  0  1  0  0  0  0  0  0  0  0  0
  129.0137   64.7635   -1.0416 O   0  0  0  0  0  0  0  0  0  0  0  0
  130.9421   65.6459   -2.1137 C   0  0  1  0  0  0  0  0  0  0  0  0
  131.5759   66.7631   -1.4833 O   0  0  0  0  0  0  0  0  0  0  0  0
  131.3257   64.3411   -1.4383 C   0  0  1  0  0  0  0  0  0  0  0  0
  132.3313   64.5450   -0.4395 O   0  0  0  0  0  0  0  0  0  0  0  0
  130.0522   63.8087   -0.7919 C   0  0  2  0  0  0  0  0  0  0  0  0
  126.7335   71.9887   -3.6940 O   0  0  0  0  0  0  0  0  0  0  0  0
  131.4163   58.7642   -1.6025 N   0  0  0  0  0  0  0  0  0  0  0  0
  132.1037   59.7552   -0.9998 C   0  0  0  0  0  0  0  0  0  0  0  0
  131.6275   61.0097   -0.8613 N   0  0  0  0  0  0  0  0  0  0  0  0
  130.4001   61.3576   -1.3339 C   0  0  0  0  0  0  0  0  0  0  0  0
  129.5905   60.3255   -2.0051 C   0  0  0  0  0  0  0  0  0  0  0  0
  130.1803   58.9675   -2.1182 C   0  0  0  0  0  0  0  0  0  0  0  0
  129.5007   57.9646   -2.7236 N   0  0  0  0  0  0  0  0  0  0  0  0
  128.4380   60.9124   -2.3707 N   0  0  0  0  0  0  0  0  0  0  0  0
  128.5016   62.2075   -1.9733 C   0  0  0  0  0  0  0  0  0  0  0  0
  129.6681   62.4807   -1.3555 N   0  0  0  0  0  0  0  0  0  0  0  0
  2  1  1  6  0  0  0
  2  3  1  0  0  0  0
  2  5  1  0  0  0  0
  3  4  1  0  0  0  0
  3 16  1  0  0  0  0
  5  6  1  0  0  0  0
  6  7  1  0  0  0  0
  7  8  1  0  0  0  0
  9  8  1  6  0  0  0
  9 10  1  0  0  0  0
  9 11  1  0  0  0  0
 10 15  1  0  0  0  0
 11 12  1  1  0  0  0
 11 13  1  0  0  0  0
 13 14  1  1  0  0  0
 13 15  1  0  0  0  0
 15 26  1  6  0  0  0
 17 18  2  0  0  0  0
 17 22  1  0  0  0  0
 18 19  1  0  0  0  0
 19 20  2  0  0  0  0
 20 21  1  0  0  0  0
 20 26  1  0  0  0  0
 21 22  2  0  0  0  0
 21 24  1  0  0  0  0
 22 23  1  0  0  0  0
 24 25  2  0  0  0  0
 25 26  1  0  0  0  0
M  END
>  <CHROM.1>
-59.64683343,54.74216631,-173.88909644,88.24539954,-93.26638054,174.40455904
178.69495296,129.28802139,64.88802870,-2.39922614,1.95812928,-0.52712871
-0.01183302

>  <Name>
ligand

>  <RI>
0

>  <Rbt.Current_Directory>
/home/itssahil/PROJECTS/Mol_Feturizer/Test_systems_manuscript/rnas/3npn

>  <Rbt.Executable>
rbdock ($Id: //depot/dev/client3/rdock/2013.1/src/exe/rbdock.cxx#4 $)

>  <Rbt.Library>
libRbt.so (2013.1, Build901 2013/11/27)

>  <Rbt.Parameter_File>
/export/apps/rDock/src/rDock_2013.1_src/data/scripts/dock_solv.prm

>  <Rbt.Receptor>
prm/pocket_docking_5.prm

>  <SCORE>
-27.1892

>  <SCORE.INTER>
-27.0935

>  <SCORE.INTER.CONST>
1

>  <SCORE.INTER.POLAR>
0

>  <SCORE.INTER.ROT>
7

>  <SCORE.INTER.SOLV>
24.2186

>  <SCORE.INTER.VDW>
-34.4018

>  <SCORE.INTER.norm>
-1.04206

>  <SCORE.INTRA>
-0.0957313

>  <SCORE.INTRA.DIHEDRAL>
1.13505

>  <SCORE.INTRA.DIHEDRAL.0>
4.37896

>  <SCORE.INTRA.POLAR>
0

>  <SCORE.INTRA.POLAR.0>
0

>  <SCORE.INTRA.REPUL>
0

>  <SCORE.INTRA.REPUL.0>
0

>  <SCORE.INTRA.SOLV>
0.00332556

>  <SCORE.INTRA.SOLV.lig_0>
-50.5538

>  <SCORE.INTRA.VDW>
-0.66492

>  <SCORE.INTRA.VDW.0>
-1.30673

>  <SCORE.INTRA.norm>
-0.00368197

>  <SCORE.RESTR>
0

>  <SCORE.RESTR.CAVITY>
0

>  <SCORE.RESTR.norm>
0

>  <SCORE.SYSTEM>
0

>  <SCORE.SYSTEM.CONST>
0

>  <SCORE.SYSTEM.DIHEDRAL>
0

>  <SCORE.SYSTEM.SOLV>
0

>  <SCORE.SYSTEM.norm>
0

>  <SCORE.heavy>
26

>  <SCORE.norm>
-1.04574

>  <RMSD>
1.268

$$$$
ligand
 OpenBabel02271912153D
libRbt.so/2013.1/901 2013/11/27
 26 28  0  0  0  0  0  0  0  0999 V2000
  125.9263   67.9849   -3.6085 N   0  0  0  0  0  0  0  0  0  0  0  0
  126.5064   69.1842   -2.9343 C   0  0  2  0  0  0  0  0  0  0  0  0
  126.4731   70.3742   -3.8498 C   0  0  0  0  0  0  0  0  0  0  0  0
  126.6946   70.2591   -5.0545 O   0  0  0  0  0  0  0  0  0  0  0  0
  127.9456   68.9064   -2.5087 C   0  0  0  0  0  0  0  0  0  0  0  0
  128.0734   67.7409   -1.5327 C   0  0  0  0  0  0  0  0  0  0  0  0
  127.8025   66.2168   -2.3759 S   0  0  0  0  0  0  0  0  0  0  0  0
  129.4470   65.6766   -2.7153 C   0  0  0  0  0  0  0  0  0  0  0  0
  130.2712   65.5402   -1.4363 C   0  0  1  0  0  0  0  0  0  0  0  0
  129.7561   64.4925   -0.6119 O   0  0  0  0  0  0  0  0  0  0  0  0
  131.7107   65.1856   -1.7722 C   0  0  1  0  0  0  0  0  0  0  0  0
  132.6034   66.0553   -1.0693 O   0  0  0  0  0  0  0  0  0  0  0  0
  131.8967   63.7410   -1.3431 C   0  0  1  0  0  0  0  0  0  0  0  0
  133.0108   63.5984   -0.4550 O   0  0  0  0  0  0  0  0  0  0  0  0
  130.6098   63.3421   -0.6302 C   0  0  2  0  0  0  0  0  0  0  0  0
  126.2323   71.4983   -3.4121 O   0  0  0  0  0  0  0  0  0  0  0  0
  130.7617   58.2472   -2.0381 N   0  0  0  0  0  0  0  0  0  0  0  0
  131.6614   58.9762   -1.3476 C   0  0  0  0  0  0  0  0  0  0  0  0
  131.4904   60.2822   -1.0563 N   0  0  0  0  0  0  0  0  0  0  0  0
  130.3773   60.9563   -1.4527 C   0  0  0  0  0  0  0  0  0  0  0  0
  129.3490   60.2238   -2.2125 C   0  0  0  0  0  0  0  0  0  0  0  0
  129.6065   58.7886   -2.4933 C   0  0  0  0  0  0  0  0  0  0  0  0
  128.7115   58.0466   -3.1880 N   0  0  0  0  0  0  0  0  0  0  0  0
  128.3644   61.0993   -2.4779 N   0  0  0  0  0  0  0  0  0  0  0  0
  128.7280   62.2899   -1.9398 C   0  0  0  0  0  0  0  0  0  0  0  0
  129.9267   62.2130   -1.3281 N   0  0  0  0  0  0  0  0  0  0  0  0
  2  1  1  6  0  0  0
  2  3  1  0  0  0  0
  2  5  1  0  0  0  0
  3  4  1  0  0  0  0
  3 16  1  0  0  0  0
  5  6  1  0  0  0  0
  6  7  1  0  0  0  0
  7  8  1  0  0  0  0
  9  8  1  6  0  0  0
  9 10  1  0  0  0  0
  9 11  1  0  0  0  0
 10 15  1  0  0  0  0
 11 12  1  1  0  0  0
 11 13  1  0  0  0  0
 13 14  1  1  0  0  0
 13 15  1  0  0  0  0
 15 26  1  6  0  0  0
 17 18  2  0  0  0  0
 17 22  1  0  0  0  0
 18 19  1  0  0  0  0
 19 20  2  0  0  0  0
 20 21  1  0  0  0  0
 20 26  1  0  0  0  0
 21 22  2  0  0  0  0
 21 24  1  0  0  0  0
 22 23  1  0  0  0  0
 24 25  2  0  0  0  0
 25 26  1  0  0  0  0
M  END
>  <CHROM.1>
-38.01235005,-60.09725481,72.71485901,97.25899216,57.70473260,66.02284919
-174.85088314,129.30319741,64.49732237,-2.12552125,1.97151333,-0.47000905
0.02490330

>  <Name>
ligand

>  <RI>
0

>  <Rbt.Current_Directory>
/home/itssahil/PROJECTS/Mol_Feturizer/Test_systems_manuscript/rnas/3npn

>  <Rbt.Executable>
rbdock ($Id: //depot/dev/client3/rdock/2013.1/src/exe/rbdock.cxx#4 $)

>  <Rbt.Library>
libRbt.so (2013.1, Build901 2013/11/27)

>  <Rbt.Parameter_File>
/export/apps/rDock/src/rDock_2013.1_src/data/scripts/dock_solv.prm

>  <Rbt.Receptor>
prm/pocket_docking_7.prm

>  <SCORE>
-28.0609

>  <SCORE.INTER>
-28.3188

>  <SCORE.INTER.CONST>
1

>  <SCORE.INTER.POLAR>
0

>  <SCORE.INTER.ROT>
7

>  <SCORE.INTER.SOLV>
27.9164

>  <SCORE.INTER.VDW>
-36.4513

>  <SCORE.INTER.norm>
-1.08919

>  <SCORE.INTRA>
0.257955

>  <SCORE.INTRA.DIHEDRAL>
0.638254

>  <SCORE.INTRA.DIHEDRAL.0>
4.37896

>  <SCORE.INTRA.POLAR>
0

>  <SCORE.INTRA.POLAR.0>
0

>  <SCORE.INTRA.REPUL>
0

>  <SCORE.INTRA.REPUL.0>
0

>  <SCORE.INTRA.SOLV>
1.52566

>  <SCORE.INTRA.SOLV.lig_0>
-50.5538

>  <SCORE.INTRA.VDW>
-0.824

>  <SCORE.INTRA.VDW.0>
-1.30673

>  <SCORE.INTRA.norm>
0.00992134

>  <SCORE.RESTR>
0

>  <SCORE.RESTR.CAVITY>
0

>  <SCORE.RESTR.norm>
0

>  <SCORE.SYSTEM>
0

>  <SCORE.SYSTEM.CONST>
0

>  <SCORE.SYSTEM.DIHEDRAL>
0

>  <SCORE.SYSTEM.SOLV>
0

>  <SCORE.SYSTEM.norm>
0

>  <SCORE.heavy>
26

>  <SCORE.norm>
-1.07926

>  <RMSD>
1.270

$$$$
ligand
 OpenBabel02271912153D
libRbt.so/2013.1/901 2013/11/27
 26 28  0  0  0  0  0  0  0  0999 V2000
  126.5981   70.7185   -4.8954 N   0  0  0  0  0  0  0  0  0  0  0  0
  126.8851   70.1801   -3.5326 C   0  0  2  0  0  0  0  0  0  0  0  0
  128.1891   70.7159   -3.0154 C   0  0  0  0  0  0  0  0  0  0  0  0
  128.2625   71.2665   -1.9176 O   0  0  0  0  0  0  0  0  0  0  0  0
  126.9366   68.6550   -3.5673 C   0  0  0  0  0  0  0  0  0  0  0  0
  127.1974   68.0275   -2.2014 C   0  0  0  0  0  0  0  0  0  0  0  0
  127.3131   66.2753   -2.3559 S   0  0  0  0  0  0  0  0  0  0  0  0
  129.0008   66.0483   -2.8156 C   0  0  0  0  0  0  0  0  0  0  0  0
  129.9238   66.0620   -1.5983 C   0  0  1  0  0  0  0  0  0  0  0  0
  129.5747   65.0178   -0.6870 O   0  0  0  0  0  0  0  0  0  0  0  0
  131.3636   65.8271   -2.0257 C   0  0  1  0  0  0  0  0  0  0  0  0
  132.2141   66.8152   -1.4363 O   0  0  0  0  0  0  0  0  0  0  0  0
  131.7212   64.4327   -1.5425 C   0  0  1  0  0  0  0  0  0  0  0  0
  132.9045   64.4459   -0.7364 O   0  0  0  0  0  0  0  0  0  0  0  0
  130.5341   63.9542   -0.7147 C   0  0  2  0  0  0  0  0  0  0  0  0
  129.2169   70.6251   -3.6852 O   0  0  0  0  0  0  0  0  0  0  0  0
  131.0186   58.7869   -1.7285 N   0  0  0  0  0  0  0  0  0  0  0  0
  131.8799   59.6294   -1.1235 C   0  0  0  0  0  0  0  0  0  0  0  0
  131.6223   60.9392   -0.9290 N   0  0  0  0  0  0  0  0  0  0  0  0
  130.4542   61.5004   -1.3431 C   0  0  0  0  0  0  0  0  0  0  0  0
  129.4633   60.6399   -2.0130 C   0  0  0  0  0  0  0  0  0  0  0  0
  129.8167   59.2084   -2.1896 C   0  0  0  0  0  0  0  0  0  0  0  0
  128.9610   58.3530   -2.7980 N   0  0  0  0  0  0  0  0  0  0  0  0
  128.4121   61.4205   -2.3159 N   0  0  0  0  0  0  0  0  0  0  0  0
  128.7019   62.6725   -1.8825 C   0  0  0  0  0  0  0  0  0  0  0  0
  129.9175   62.7283   -1.3026 N   0  0  0  0  0  0  0  0  0  0  0  0
  2  1  1  6  0  0  0
  2  3  1  0  0  0  0
  2  5  1  0  0  0  0
  3  4  1  0  0  0  0
  3 16  1  0  0  0  0
  5  6  1  0  0  0  0
  6  7  1  0  0  0  0
  7  8  1  0  0  0  0
  9  8  1  6  0  0  0
  9 10  1  0  0  0  0
  9 11  1  0  0  0  0
 10 15  1  0  0  0  0
 11 12  1  1  0  0  0
 11 13  1  0  0  0  0
 13 14  1  1  0  0  0
 13 15  1  0  0  0  0
 15 26  1  6  0  0  0
 17 18  2  0  0  0  0
 17 22  1  0  0  0  0
 18 19  1  0  0  0  0
 19 20  2  0  0  0  0
 20 21  1  0  0  0  0
 20 26  1  0  0  0  0
 21 22  2  0  0  0  0
 21 24  1  0  0  0  0
 22 23  1  0  0  0  0
 24 25  2  0  0  0  0
 25 26  1  0  0  0  0
M  END
>  <CHROM.1>
127.00690202,-178.78735304,-177.39658436,84.39034738,82.53529991,59.84841597
-171.42735808,129.44404583,65.01182961,-2.10074928,1.86019627,-0.39135640
-0.04247188

>  <Name>
ligand

>  <RI>
0

>  <Rbt.Current_Directory>
/home/itssahil/PROJECTS/Mol_Feturizer/Test_systems_manuscript/rnas/3npn

>  <Rbt.Executable>
rbdock ($Id: //depot/dev/client3/rdock/2013.1/src/exe/rbdock.cxx#4 $)

>  <Rbt.Library>
libRbt.so (2013.1, Build901 2013/11/27)

>  <Rbt.Parameter_File>
/export/apps/rDock/src/rDock_2013.1_src/data/scripts/dock_solv.prm

>  <Rbt.Receptor>
prm/pocket_docking_2.prm

>  <SCORE>
-28.1207

>  <SCORE.INTER>
-26.5273

>  <SCORE.INTER.CONST>
1

>  <SCORE.INTER.POLAR>
0

>  <SCORE.INTER.ROT>
7

>  <SCORE.INTER.SOLV>
25.9103

>  <SCORE.INTER.VDW>
-34.5883

>  <SCORE.INTER.norm>
-1.02028

>  <SCORE.INTRA>
-1.59996

>  <SCORE.INTRA.DIHEDRAL>
-0.0830196

>  <SCORE.INTRA.DIHEDRAL.0>
4.37896

>  <SCORE.INTRA.POLAR>
0

>  <SCORE.INTRA.POLAR.0>
0

>  <SCORE.INTRA.REPUL>
0

>  <SCORE.INTRA.REPUL.0>
0

>  <SCORE.INTRA.SOLV>
-0.869214

>  <SCORE.INTRA.SOLV.lig_0>
-50.5538

>  <SCORE.INTRA.VDW>
-1.12384

>  <SCORE.INTRA.VDW.0>
-1.30673

>  <SCORE.INTRA.norm>
-0.0615368

>  <SCORE.RESTR>
0.0065513

>  <SCORE.RESTR.CAVITY>
0.0065513

>  <SCORE.RESTR.norm>
0.000251973

>  <SCORE.SYSTEM>
0

>  <SCORE.SYSTEM.CONST>
0

>  <SCORE.SYSTEM.DIHEDRAL>
0

>  <SCORE.SYSTEM.SOLV>
0

>  <SCORE.SYSTEM.norm>
0

>  <SCORE.heavy>
26

>  <SCORE.norm>
-1.08156

>  <RMSD>
1.271

$$$$
ligand
 OpenBabel02271912153D
libRbt.so/2013.1/901 2013/11/27
 26 28  0  0  0  0  0  0  0  0999 V2000
  125.9848   70.1603   -2.6390 N   0  0  0  0  0  0  0  0  0  0  0  0
  127.1421   70.6171   -3.4644 C   0  0  2  0  0  0  0  0  0  0  0  0
  127.0515   70.0616   -4.8567 C   0  0  0  0  0  0  0  0  0  0  0  0
  127.2671   70.7677   -5.8409 O   0  0  0  0  0  0  0  0  0  0  0  0
  128.4551   70.1770   -2.8226 C   0  0  0  0  0  0  0  0  0  0  0  0
  128.7207   68.6804   -2.9540 C   0  0  0  0  0  0  0  0  0  0  0  0
  127.5109   67.7724   -2.0489 S   0  0  0  0  0  0  0  0  0  0  0  0
  128.2299   66.1638   -1.9679 C   0  0  0  0  0  0  0  0  0  0  0  0
  129.5327   66.1677   -1.1703 C   0  0  1  0  0  0  0  0  0  0  0  0
  129.6424   64.9856   -0.3746 O   0  0  0  0  0  0  0  0  0  0  0  0
  130.7267   66.1925   -2.1109 C   0  0  1  0  0  0  0  0  0  0  0  0
  131.6417   67.2168   -1.7098 O   0  0  0  0  0  0  0  0  0  0  0  0
  131.3627   64.8170   -2.0157 C   0  0  1  0  0  0  0  0  0  0  0  0
  132.7541   64.9055   -1.6891 O   0  0  0  0  0  0  0  0  0  0  0  0
  130.6155   64.0806   -0.9100 C   0  0  2  0  0  0  0  0  0  0  0  0
  126.7484   68.8845   -5.0461 O   0  0  0  0  0  0  0  0  0  0  0  0
  130.9995   58.9240   -2.0172 N   0  0  0  0  0  0  0  0  0  0  0  0
  131.9229   59.7666   -1.5119 C   0  0  0  0  0  0  0  0  0  0  0  0
  131.6842   61.0734   -1.2773 N   0  0  0  0  0  0  0  0  0  0  0  0
  130.4726   61.6313   -1.5448 C   0  0  0  0  0  0  0  0  0  0  0  0
  129.4130   60.7705   -2.0992 C   0  0  0  0  0  0  0  0  0  0  0  0
  129.7494   59.3425   -2.3285 C   0  0  0  0  0  0  0  0  0  0  0  0
  128.8313   58.4870   -2.8378 N   0  0  0  0  0  0  0  0  0  0  0  0
  128.3296   61.5476   -2.2684 N   0  0  0  0  0  0  0  0  0  0  0  0
  128.6632   62.7979   -1.8622 C   0  0  0  0  0  0  0  0  0  0  0  0
  129.9389   62.8559   -1.4305 N   0  0  0  0  0  0  0  0  0  0  0  0
  2  1  1  1  0  0  0
  2  3  1  0  0  0  0
  2  5  1  0  0  0  0
  3  4  1  0  0  0  0
  3 16  1  0  0  0  0
  5  6  1  0  0  0  0
  6  7  1  0  0  0  0
  7  8  1  0  0  0  0
  9  8  1  6  0  0  0
  9 10  1  0  0  0  0
  9 11  1  0  0  0  0
 10 15  1  0  0  0  0
 11 12  1  1  0  0  0
 11 13  1  0  0  0  0
 13 14  1  1  0  0  0
 13 15  1  0  0  0  0
 15 26  1  6  0  0  0
 17 18  2  0  0  0  0
 17 22  1  0  0  0  0
 18 19  1  0  0  0  0
 19 20  2  0  0  0  0
 20 21  1  0  0  0  0
 20 26  1  0  0  0  0
 21 22  2  0  0  0  0
 21 24  1  0  0  0  0
 22 23  1  0  0  0  0
 24 25  2  0  0  0  0
 25 26  1  0  0  0  0
M  END
>  <CHROM.1>
135.51120488,72.79457611,-65.23830143,-165.44001051,64.03692553,141.52828631
-153.71645024,129.26601195,65.21832484,-2.34469615,1.91934482,-0.47925408
-0.03073149

>  <Name>
ligand

>  <RI>
0

>  <Rbt.Current_Directory>
/home/itssahil/PROJECTS/Mol_Feturizer/Test_systems_manuscript/rnas/3npn

>  <Rbt.Executable>
rbdock ($Id: //depot/dev/client3/rdock/2013.1/src/exe/rbdock.cxx#4 $)

>  <Rbt.Library>
libRbt.so (2013.1, Build901 2013/11/27)

>  <Rbt.Parameter_File>
/export/apps/rDock/src/rDock_2013.1_src/data/scripts/dock_solv.prm

>  <Rbt.Receptor>
prm/pocket_docking_3.prm

>  <SCORE>
-24.3303

>  <SCORE.INTER>
-26.2139

>  <SCORE.INTER.CONST>
1

>  <SCORE.INTER.POLAR>
0

>  <SCORE.INTER.ROT>
7

>  <SCORE.INTER.SOLV>
26.2684

>  <SCORE.INTER.VDW>
-34.4987

>  <SCORE.INTER.norm>
-1.00823

>  <SCORE.INTRA>
1.88353

>  <SCORE.INTRA.DIHEDRAL>
3.14963

>  <SCORE.INTRA.DIHEDRAL.0>
4.37896

>  <SCORE.INTRA.POLAR>
0

>  <SCORE.INTRA.POLAR.0>
0

>  <SCORE.INTRA.REPUL>
0

>  <SCORE.INTRA.REPUL.0>
0

>  <SCORE.INTRA.SOLV>
1.30985

>  <SCORE.INTRA.SOLV.lig_0>
-50.5538

>  <SCORE.INTRA.VDW>
-0.346207

>  <SCORE.INTRA.VDW.0>
-1.30673

>  <SCORE.INTRA.norm>
0.0724436

>  <SCORE.RESTR>
0

>  <SCORE.RESTR.CAVITY>
0

>  <SCORE.RESTR.norm>
0

>  <SCORE.SYSTEM>
0

>  <SCORE.SYSTEM.CONST>
0

>  <SCORE.SYSTEM.DIHEDRAL>
0

>  <SCORE.SYSTEM.SOLV>
0

>  <SCORE.SYSTEM.norm>
0

>  <SCORE.heavy>
26

>  <SCORE.norm>
-0.935781

>  <RMSD>
1.271

$$$$
ligand
 OpenBabel02271912153D
libRbt.so/2013.1/901 2013/11/27
 26 28  0  0  0  0  0  0  0  0999 V2000
  127.6202   70.9102   -4.9508 N   0  0  0  0  0  0  0  0  0  0  0  0
  126.5061   70.3874   -4.1052 C   0  0  2  0  0  0  0  0  0  0  0  0
  126.6247   70.8984   -2.6981 C   0  0  0  0  0  0  0  0  0  0  0  0
  127.7210   71.1558   -2.2027 O   0  0  0  0  0  0  0  0  0  0  0  0
  126.5199   68.8612   -4.0979 C   0  0  0  0  0  0  0  0  0  0  0  0
  127.8019   68.2707   -3.5190 C   0  0  0  0  0  0  0  0  0  0  0  0
  127.6299   66.5266   -3.3302 S   0  0  0  0  0  0  0  0  0  0  0  0
  129.3081   65.9874   -3.2649 C   0  0  0  0  0  0  0  0  0  0  0  0
  129.8768   66.0833   -1.8504 C   0  0  1  0  0  0  0  0  0  0  0  0
  129.2483   65.1336   -0.9869 O   0  0  0  0  0  0  0  0  0  0  0  0
  131.3648   65.7726   -1.8582 C   0  0  1  0  0  0  0  0  0  0  0  0
  132.0778   66.7853   -1.1418 O   0  0  0  0  0  0  0  0  0  0  0  0
  131.5126   64.4171   -1.1900 C   0  0  1  0  0  0  0  0  0  0  0  0
  132.4405   64.4692   -0.1008 O   0  0  0  0  0  0  0  0  0  0  0  0
  130.1270   64.0460   -0.6746 C   0  0  2  0  0  0  0  0  0  0  0  0
  125.6239   71.0627   -2.0018 O   0  0  0  0  0  0  0  0  0  0  0  0
  131.0139   58.9381   -1.7173 N   0  0  0  0  0  0  0  0  0  0  0  0
  131.7826   59.8275   -1.0572 C   0  0  0  0  0  0  0  0  0  0  0  0
  131.4268   61.1142   -0.8626 N   0  0  0  0  0  0  0  0  0  0  0  0
  130.2472   61.6017   -1.3333 C   0  0  0  0  0  0  0  0  0  0  0  0
  129.3541   60.6866   -2.0655 C   0  0  0  0  0  0  0  0  0  0  0  0
  129.8125   59.2848   -2.2383 C   0  0  0  0  0  0  0  0  0  0  0  0
  129.0505   58.3829   -2.9016 N   0  0  0  0  0  0  0  0  0  0  0  0
  128.2701   61.3994   -2.4164 N   0  0  0  0  0  0  0  0  0  0  0  0
  128.4508   62.6615   -1.9542 C   0  0  0  0  0  0  0  0  0  0  0  0
  129.6271   62.7902   -1.3085 N   0  0  0  0  0  0  0  0  0  0  0  0
  2  1  1  6  0  0  0
  2  3  1  0  0  0  0
  2  5  1  0  0  0  0
  3  4  1  0  0  0  0
  3 16  1  0  0  0  0
  5  6  1  0  0  0  0
  6  7  1  0  0  0  0
  7  8  1  0  0  0  0
  9  8  1  6  0  0  0
  9 10  1  0  0  0  0
  9 11  1  0  0  0  0
 10 15  1  0  0  0  0
 11 12  1  1  0  0  0
 11 13  1  0  0  0  0
 13 14  1  1  0  0  0
 13 15  1  0  0  0  0
 15 26  1  6  0  0  0
 17 18  2  0  0  0  0
 17 22  1  0  0  0  0
 18 19  1  0  0  0  0
 19 20  2  0  0  0  0
 20 21  1  0  0  0  0
 20 26  1  0  0  0  0
 21 22  2  0  0  0  0
 21 24  1  0  0  0  0
 22 23  1  0  0  0  0
 24 25  2  0  0  0  0
 25 26  1  0  0  0  0
M  END
>  <CHROM.1>
-29.96700605,61.28862400,171.61226456,159.30725424,85.06115393,68.13908287
173.74793907,129.18419138,65.11605405,-2.19249076,1.95525977,-0.52473041
0.03168594

>  <Name>
ligand

>  <RI>
0

>  <Rbt.Current_Directory>
/home/itssahil/PROJECTS/Mol_Feturizer/Test_systems_manuscript/rnas/3npn

>  <Rbt.Executable>
rbdock ($Id: //depot/dev/client3/rdock/2013.1/src/exe/rbdock.cxx#4 $)

>  <Rbt.Library>
libRbt.so (2013.1, Build901 2013/11/27)

>  <Rbt.Parameter_File>
/export/apps/rDock/src/rDock_2013.1_src/data/scripts/dock_solv.prm

>  <Rbt.Receptor>
prm/pocket_docking_2.prm

>  <SCORE>
-29.4529

>  <SCORE.INTER>
-28.6367

>  <SCORE.INTER.CONST>
1

>  <SCORE.INTER.POLAR>
0

>  <SCORE.INTER.ROT>
7

>  <SCORE.INTER.SOLV>
25.0697

>  <SCORE.INTER.VDW>
-35.7144

>  <SCORE.INTER.norm>
-1.10141

>  <SCORE.INTRA>
-0.863387

>  <SCORE.INTRA.DIHEDRAL>
0.289003

>  <SCORE.INTRA.DIHEDRAL.0>
4.37896

>  <SCORE.INTRA.POLAR>
0

>  <SCORE.INTRA.POLAR.0>
0

>  <SCORE.INTRA.REPUL>
0

>  <SCORE.INTRA.REPUL.0>
0

>  <SCORE.INTRA.SOLV>
-0.199201

>  <SCORE.INTRA.SOLV.lig_0>
-50.5538

>  <SCORE.INTRA.VDW>
-0.908288

>  <SCORE.INTRA.VDW.0>
-1.30673

>  <SCORE.INTRA.norm>
-0.0332072

>  <SCORE.RESTR>
0.0471566

>  <SCORE.RESTR.CAVITY>
0.0471566

>  <SCORE.RESTR.norm>
0.00181372

>  <SCORE.SYSTEM>
0

>  <SCORE.SYSTEM.CONST>
0

>  <SCORE.SYSTEM.DIHEDRAL>
0

>  <SCORE.SYSTEM.SOLV>
0

>  <SCORE.SYSTEM.norm>
0

>  <SCORE.heavy>
26

>  <SCORE.norm>
-1.1328

>  <RMSD>
1.273

$$$$
ligand
 OpenBabel02271912153D
libRbt.so/2013.1/901 2013/11/27
 26 28  0  0  0  0  0  0  0  0999 V2000
  129.4669   70.3974   -3.2713 N   0  0  0  0  0  0  0  0  0  0  0  0
  128.4857   69.7923   -4.2203 C   0  0  2  0  0  0  0  0  0  0  0  0
  127.5862   70.8479   -4.7963 C   0  0  0  0  0  0  0  0  0  0  0  0
  127.3413   71.8839   -4.1796 O   0  0  0  0  0  0  0  0  0  0  0  0
  127.6445   68.7363   -3.5084 C   0  0  0  0  0  0  0  0  0  0  0  0
  128.4444   67.5058   -3.0920 C   0  0  0  0  0  0  0  0  0  0  0  0
  127.3852   66.3372   -2.3047 S   0  0  0  0  0  0  0  0  0  0  0  0
  128.4075   64.9025   -2.2153 C   0  0  0  0  0  0  0  0  0  0  0  0
  129.5668   65.0958   -1.2395 C   0  0  1  0  0  0  0  0  0  0  0  0
  129.7140   63.9517   -0.3958 O   0  0  0  0  0  0  0  0  0  0  0  0
  130.8721   65.2689   -1.9992 C   0  0  1  0  0  0  0  0  0  0  0  0
  131.5743   66.4141   -1.5067 O   0  0  0  0  0  0  0  0  0  0  0  0
  131.6639   63.9944   -1.7660 C   0  0  1  0  0  0  0  0  0  0  0  0
  132.9680   64.2764   -1.2462 O   0  0  0  0  0  0  0  0  0  0  0  0
  130.8665   63.1798   -0.7541 C   0  0  2  0  0  0  0  0  0  0  0  0
  127.0630   70.6955   -5.8992 O   0  0  0  0  0  0  0  0  0  0  0  0
  132.0747   58.0990   -1.5845 N   0  0  0  0  0  0  0  0  0  0  0  0
  132.7919   59.0658   -0.9772 C   0  0  0  0  0  0  0  0  0  0  0  0
  132.3546   60.3338   -0.8339 N   0  0  0  0  0  0  0  0  0  0  0  0
  131.1390   60.7214   -1.3060 C   0  0  0  0  0  0  0  0  0  0  0  0
  130.2984   59.7176   -1.9820 C   0  0  0  0  0  0  0  0  0  0  0  0
  130.8461   58.3425   -2.1003 C   0  0  0  0  0  0  0  0  0  0  0  0
  130.1363   57.3636   -2.7104 N   0  0  0  0  0  0  0  0  0  0  0  0
  129.1650   60.3414   -2.3461 N   0  0  0  0  0  0  0  0  0  0  0  0
  129.2682   61.6322   -1.9432 C   0  0  0  0  0  0  0  0  0  0  0  0
  130.4421   61.8667   -1.3235 N   0  0  0  0  0  0  0  0  0  0  0  0
  2  1  1  1  0  0  0
  2  3  1  0  0  0  0
  2  5  1  0  0  0  0
  3  4  1  0  0  0  0
  3 16  1  0  0  0  0
  5  6  1  0  0  0  0
  6  7  1  0  0  0  0
  7  8  1  0  0  0  0
  9  8  1  6  0  0  0
  9 10  1  0  0  0  0
  9 11  1  0  0  0  0
 10 15  1  0  0  0  0
 11 12  1  1  0  0  0
 11 13  1  0  0  0  0
 13 14  1  1  0  0  0
 13 15  1  0  0  0  0
 15 26  1  6  0  0  0
 17 18  2  0  0  0  0
 17 22  1  0  0  0  0
 18 19  1  0  0  0  0
 19 20  2  0  0  0  0
 20 21  1  0  0  0  0
 20 26  1  0  0  0  0
 21 22  2  0  0  0  0
 21 24  1  0  0  0  0
 22 23  1  0  0  0  0
 24 25  2  0  0  0  0
 25 26  1  0  0  0  0
M  END
>  <CHROM.1>
-27.12531377,-67.59028047,-179.07863726,168.83541589,68.44979362,134.57299181
-153.02748073,129.76191877,64.51016379,-2.30606671,-1.91070093,0.47254047
3.07036112

>  <Name>
ligand

>  <RI>
0

>  <Rbt.Current_Directory>
/home/itssahil/PROJECTS/Mol_Feturizer/Test_systems_manuscript/rnas/3npn

>  <Rbt.Executable>
rbdock ($Id: //depot/dev/client3/rdock/2013.1/src/exe/rbdock.cxx#4 $)

>  <Rbt.Library>
libRbt.so (2013.1, Build901 2013/11/27)

>  <Rbt.Parameter_File>
/export/apps/rDock/src/rDock_2013.1_src/data/scripts/dock_solv.prm

>  <Rbt.Receptor>
prm/pocket_docking_3.prm

>  <SCORE>
-25.8062

>  <SCORE.INTER>
-26.1143

>  <SCORE.INTER.CONST>
1

>  <SCORE.INTER.POLAR>
0

>  <SCORE.INTER.ROT>
7

>  <SCORE.INTER.SOLV>
17.0123

>  <SCORE.INTER.VDW>
-31.347

>  <SCORE.INTER.norm>
-1.0044

>  <SCORE.INTRA>
0.308097

>  <SCORE.INTRA.DIHEDRAL>
3.36011

>  <SCORE.INTRA.DIHEDRAL.0>
4.37896

>  <SCORE.INTRA.POLAR>
0

>  <SCORE.INTRA.POLAR.0>
0

>  <SCORE.INTRA.REPUL>
0

>  <SCORE.INTRA.REPUL.0>
0

>  <SCORE.INTRA.SOLV>
-0.208723

>  <SCORE.INTRA.SOLV.lig_0>
-50.5538

>  <SCORE.INTRA.VDW>
-1.2676

>  <SCORE.INTRA.VDW.0>
-1.30673

>  <SCORE.INTRA.norm>
0.0118499

>  <SCORE.RESTR>
0

>  <SCORE.RESTR.CAVITY>
0

>  <SCORE.RESTR.norm>
0

>  <SCORE.SYSTEM>
0

>  <SCORE.SYSTEM.CONST>
0

>  <SCORE.SYSTEM.DIHEDRAL>
0

>  <SCORE.SYSTEM.SOLV>
0

>  <SCORE.SYSTEM.norm>
0

>  <SCORE.heavy>
26

>  <SCORE.norm>
-0.992547

>  <RMSD>
1.276

$$$$
ligand
 OpenBabel02271912153D
libRbt.so/2013.1/901 2013/11/27
 26 28  0  0  0  0  0  0  0  0999 V2000
  125.7000   69.8490   -2.0981 N   0  0  0  0  0  0  0  0  0  0  0  0
  126.7833   69.7636   -3.1221 C   0  0  2  0  0  0  0  0  0  0  0  0
  126.6823   70.9022   -4.0960 C   0  0  0  0  0  0  0  0  0  0  0  0
  126.0697   71.9311   -3.8137 O   0  0  0  0  0  0  0  0  0  0  0  0
  126.6962   68.4382   -3.8741 C   0  0  0  0  0  0  0  0  0  0  0  0
  126.7938   67.2184   -2.9630 C   0  0  0  0  0  0  0  0  0  0  0  0
  128.2414   67.3280   -1.9631 S   0  0  0  0  0  0  0  0  0  0  0  0
  128.6411   65.6317   -1.6916 C   0  0  0  0  0  0  0  0  0  0  0  0
  129.9298   65.4776   -0.8859 C   0  0  1  0  0  0  0  0  0  0  0  0
  129.9455   64.2292   -0.1905 O   0  0  0  0  0  0  0  0  0  0  0  0
  131.1356   65.4953   -1.8115 C   0  0  1  0  0  0  0  0  0  0  0  0
  132.1142   66.4158   -1.3192 O   0  0  0  0  0  0  0  0  0  0  0  0
  131.6726   64.0751   -1.8259 C   0  0  1  0  0  0  0  0  0  0  0  0
  133.0620   64.0378   -1.4819 O   0  0  0  0  0  0  0  0  0  0  0  0
  130.8604   63.3049   -0.7914 C   0  0  2  0  0  0  0  0  0  0  0  0
  127.2040   70.8277   -5.2075 O   0  0  0  0  0  0  0  0  0  0  0  0
  130.8812   58.2291   -2.2747 N   0  0  0  0  0  0  0  0  0  0  0  0
  131.8516   58.9578   -1.6872 C   0  0  0  0  0  0  0  0  0  0  0  0
  131.7068   60.2585   -1.3602 N   0  0  0  0  0  0  0  0  0  0  0  0
  130.5491   60.9273   -1.6117 C   0  0  0  0  0  0  0  0  0  0  0  0
  129.4428   60.1948   -2.2526 C   0  0  0  0  0  0  0  0  0  0  0  0
  129.6757   58.7655   -2.5812 C   0  0  0  0  0  0  0  0  0  0  0  0
  128.7097   58.0240   -3.1736 N   0  0  0  0  0  0  0  0  0  0  0  0
  128.4270   61.0644   -2.3867 N   0  0  0  0  0  0  0  0  0  0  0  0
  128.8434   62.2516   -1.8803 C   0  0  0  0  0  0  0  0  0  0  0  0
  130.1072   62.1782   -1.4174 N   0  0  0  0  0  0  0  0  0  0  0  0
  2  1  1  1  0  0  0
  2  3  1  0  0  0  0
  2  5  1  0  0  0  0
  3  4  1  0  0  0  0
  3 16  1  0  0  0  0
  5  6  1  0  0  0  0
  6  7  1  0  0  0  0
  7  8  1  0  0  0  0
  9  8  1  6  0  0  0
  9 10  1  0  0  0  0
  9 11  1  0  0  0  0
 10 15  1  0  0  0  0
 11 12  1  1  0  0  0
 11 13  1  0  0  0  0
 13 14  1  1  0  0  0
 13 15  1  0  0  0  0
 15 26  1  6  0  0  0
 17 18  2  0  0  0  0
 17 22  1  0  0  0  0
 18 19  1  0  0  0  0
 19 20  2  0  0  0  0
 20 21  1  0  0  0  0
 20 26  1  0  0  0  0
 21 22  2  0  0  0  0
 21 24  1  0  0  0  0
 22 23  1  0  0  0  0
 24 25  2  0  0  0  0
 25 26  1  0  0  0  0
M  END
>  <CHROM.1>
20.48700262,-58.14564456,-53.29164074,-150.91892648,177.21469831,154.85765800
-152.70033672,129.23926250,64.73510893,-2.21692746,1.95986195,-0.43143940
0.02092566

>  <Name>
ligand

>  <RI>
0

>  <Rbt.Current_Directory>
/home/itssahil/PROJECTS/Mol_Feturizer/Test_systems_manuscript/rnas/3npn

>  <Rbt.Executable>
rbdock ($Id: //depot/dev/client3/rdock/2013.1/src/exe/rbdock.cxx#4 $)

>  <Rbt.Library>
libRbt.so (2013.1, Build901 2013/11/27)

>  <Rbt.Parameter_File>
/export/apps/rDock/src/rDock_2013.1_src/data/scripts/dock_solv.prm

>  <Rbt.Receptor>
prm/pocket_docking_5.prm

>  <SCORE>
-27.0887

>  <SCORE.INTER>
-28.0431

>  <SCORE.INTER.CONST>
1

>  <SCORE.INTER.POLAR>
0

>  <SCORE.INTER.ROT>
7

>  <SCORE.INTER.SOLV>
30.1263

>  <SCORE.INTER.VDW>
-37.0042

>  <SCORE.INTER.norm>
-1.07858

>  <SCORE.INTRA>
0.954451

>  <SCORE.INTRA.DIHEDRAL>
1.61053

>  <SCORE.INTRA.DIHEDRAL.0>
4.37896

>  <SCORE.INTRA.POLAR>
0

>  <SCORE.INTRA.POLAR.0>
0

>  <SCORE.INTRA.REPUL>
0

>  <SCORE.INTRA.REPUL.0>
0

>  <SCORE.INTRA.SOLV>
0.638695

>  <SCORE.INTRA.SOLV.lig_0>
-50.5538

>  <SCORE.INTRA.VDW>
-0.170161

>  <SCORE.INTRA.VDW.0>
-1.30673

>  <SCORE.INTRA.norm>
0.0367096

>  <SCORE.RESTR>
0

>  <SCORE.RESTR.CAVITY>
0

>  <SCORE.RESTR.norm>
0

>  <SCORE.SYSTEM>
0

>  <SCORE.SYSTEM.CONST>
0

>  <SCORE.SYSTEM.DIHEDRAL>
0

>  <SCORE.SYSTEM.SOLV>
0

>  <SCORE.SYSTEM.norm>
0

>  <SCORE.heavy>
26

>  <SCORE.norm>
-1.04187

>  <RMSD>
1.300

$$$$
ligand
 OpenBabel02271912153D
libRbt.so/2013.1/901 2013/11/27
 26 28  0  0  0  0  0  0  0  0999 V2000
  126.0542   71.7666   -3.5208 N   0  0  0  0  0  0  0  0  0  0  0  0
  126.9134   70.5521   -3.6468 C   0  0  2  0  0  0  0  0  0  0  0  0
  126.7964   69.9610   -5.0223 C   0  0  0  0  0  0  0  0  0  0  0  0
  126.1730   70.5364   -5.9134 O   0  0  0  0  0  0  0  0  0  0  0  0
  126.5110   69.5101   -2.6065 C   0  0  0  0  0  0  0  0  0  0  0  0
  127.5884   68.4599   -2.3543 C   0  0  0  0  0  0  0  0  0  0  0  0
  127.0498   66.8900   -2.9480 S   0  0  0  0  0  0  0  0  0  0  0  0
  128.5653   65.9974   -3.0813 C   0  0  0  0  0  0  0  0  0  0  0  0
  129.4107   66.1289   -1.8157 C   0  0  1  0  0  0  0  0  0  0  0  0
  129.0859   65.0978   -0.8809 O   0  0  0  0  0  0  0  0  0  0  0  0
  130.8867   65.9877   -2.1506 C   0  0  1  0  0  0  0  0  0  0  0  0
  131.6256   67.0600   -1.5577 O   0  0  0  0  0  0  0  0  0  0  0  0
  131.3167   64.6446   -1.5877 C   0  0  1  0  0  0  0  0  0  0  0  0
  132.4458   64.7794   -0.7175 O   0  0  0  0  0  0  0  0  0  0  0  0
  130.1210   64.1100   -0.8081 C   0  0  2  0  0  0  0  0  0  0  0  0
  127.3155   68.8779   -5.2881 O   0  0  0  0  0  0  0  0  0  0  0  0
  131.1277   59.0027   -1.7389 N   0  0  0  0  0  0  0  0  0  0  0  0
  131.8985   59.9378   -1.1479 C   0  0  0  0  0  0  0  0  0  0  0  0
  131.5093   61.2177   -0.9744 N   0  0  0  0  0  0  0  0  0  0  0  0
  130.2909   61.6509   -1.3969 C   0  0  0  0  0  0  0  0  0  0  0  0
  129.3930   60.6838   -2.0524 C   0  0  0  0  0  0  0  0  0  0  0  0
  129.8898   59.2929   -2.2061 C   0  0  0  0  0  0  0  0  0  0  0  0
  129.1259   58.3455   -2.8003 N   0  0  0  0  0  0  0  0  0  0  0  0
  128.2685   61.3489   -2.3673 N   0  0  0  0  0  0  0  0  0  0  0  0
  128.4294   62.6307   -1.9543 C   0  0  0  0  0  0  0  0  0  0  0  0
  129.6324   62.8187   -1.3759 N   0  0  0  0  0  0  0  0  0  0  0  0
  2  1  1  6  0  0  0
  2  3  1  0  0  0  0
  2  5  1  0  0  0  0
  3  4  1  0  0  0  0
  3 16  1  0  0  0  0
  5  6  1  0  0  0  0
  6  7  1  0  0  0  0
  7  8  1  0  0  0  0
  9  8  1  6  0  0  0
  9 10  1  0  0  0  0
  9 11  1  0  0  0  0
 10 15  1  0  0  0  0
 11 12  1  1  0  0  0
 11 13  1  0  0  0  0
 13 14  1  1  0  0  0
 13 15  1  0  0  0  0
 15 26  1  6  0  0  0
 17 18  2  0  0  0  0
 17 22  1  0  0  0  0
 18 19  1  0  0  0  0
 19 20  2  0  0  0  0
 20 21  1  0  0  0  0
 20 26  1  0  0  0  0
 21 22  2  0  0  0  0
 21 24  1  0  0  0  0
 22 23  1  0  0  0  0
 24 25  2  0  0  0  0
 25 26  1  0  0  0  0
M  END
>  <CHROM.1>
7.09104635,-161.17415541,-112.02686228,161.30230601,48.32238006,89.32000017
-175.34228956,129.01856958,65.11783530,-2.42931958,-2.00204257,0.56193859
3.13305268

>  <Name>
ligand

>  <RI>
0

>  <Rbt.Current_Directory>
/home/itssahil/PROJECTS/Mol_Feturizer/Test_systems_manuscript/rnas/3npn

>  <Rbt.Executable>
rbdock ($Id: //depot/dev/client3/rdock/2013.1/src/exe/rbdock.cxx#4 $)

>  <Rbt.Library>
libRbt.so (2013.1, Build901 2013/11/27)

>  <Rbt.Parameter_File>
/export/apps/rDock/src/rDock_2013.1_src/data/scripts/dock_solv.prm

>  <Rbt.Receptor>
prm/pocket_docking_2.prm

>  <SCORE>
-25.3707

>  <SCORE.INTER>
-28.4552

>  <SCORE.INTER.CONST>
1

>  <SCORE.INTER.POLAR>
0

>  <SCORE.INTER.ROT>
7

>  <SCORE.INTER.SOLV>
29.1554

>  <SCORE.INTER.VDW>
-36.9552

>  <SCORE.INTER.norm>
-1.09443

>  <SCORE.INTRA>
3.06228

>  <SCORE.INTRA.DIHEDRAL>
8.16478

>  <SCORE.INTRA.DIHEDRAL.0>
4.37896

>  <SCORE.INTRA.POLAR>
0

>  <SCORE.INTRA.POLAR.0>
0

>  <SCORE.INTRA.REPUL>
0

>  <SCORE.INTRA.REPUL.0>
0

>  <SCORE.INTRA.SOLV>
-0.737855

>  <SCORE.INTRA.SOLV.lig_0>
-50.5538

>  <SCORE.INTRA.VDW>
-0.651182

>  <SCORE.INTRA.VDW.0>
-1.30673

>  <SCORE.INTRA.norm>
0.11778

>  <SCORE.RESTR>
0.022134

>  <SCORE.RESTR.CAVITY>
0.022134

>  <SCORE.RESTR.norm>
0.000851306

>  <SCORE.SYSTEM>
0

>  <SCORE.SYSTEM.CONST>
0

>  <SCORE.SYSTEM.DIHEDRAL>
0

>  <SCORE.SYSTEM.SOLV>
0

>  <SCORE.SYSTEM.norm>
0

>  <SCORE.heavy>
26

>  <SCORE.norm>
-0.975798

>  <RMSD>
1.301

$$$$
ligand
 OpenBabel02271912153D
libRbt.so/2013.1/901 2013/11/27
 26 28  0  0  0  0  0  0  0  0999 V2000
  125.6702   69.8573   -2.0243 N   0  0  0  0  0  0  0  0  0  0  0  0
  126.7619   69.7612   -3.0384 C   0  0  2  0  0  0  0  0  0  0  0  0
  126.6994   70.9171   -3.9949 C   0  0  0  0  0  0  0  0  0  0  0  0
  127.3678   70.9277   -5.0278 O   0  0  0  0  0  0  0  0  0  0  0  0
  126.6501   68.4503   -3.8123 C   0  0  0  0  0  0  0  0  0  0  0  0
  126.8786   67.2153   -2.9462 C   0  0  0  0  0  0  0  0  0  0  0  0
  128.5270   67.2145   -2.3216 S   0  0  0  0  0  0  0  0  0  0  0  0
  128.6861   65.5790   -1.6805 C   0  0  0  0  0  0  0  0  0  0  0  0
  129.9669   65.4152   -0.8642 C   0  0  1  0  0  0  0  0  0  0  0  0
  129.9705   64.1635   -0.1744 O   0  0  0  0  0  0  0  0  0  0  0  0
  131.1808   65.4312   -1.7791 C   0  0  1  0  0  0  0  0  0  0  0  0
  132.1595   66.3446   -1.2742 O   0  0  0  0  0  0  0  0  0  0  0  0
  131.7112   64.0084   -1.7953 C   0  0  1  0  0  0  0  0  0  0  0  0
  133.0973   63.9628   -1.4393 O   0  0  0  0  0  0  0  0  0  0  0  0
  130.8862   63.2375   -0.7714 C   0  0  2  0  0  0  0  0  0  0  0  0
  125.9826   71.8892   -3.7614 O   0  0  0  0  0  0  0  0  0  0  0  0
  130.8638   58.1464   -2.2012 N   0  0  0  0  0  0  0  0  0  0  0  0
  131.8281   58.8645   -1.5911 C   0  0  0  0  0  0  0  0  0  0  0  0
  131.6961   60.1710   -1.2822 N   0  0  0  0  0  0  0  0  0  0  0  0
  130.5588   60.8569   -1.5766 C   0  0  0  0  0  0  0  0  0  0  0  0
  129.4602   60.1368   -2.2443 C   0  0  0  0  0  0  0  0  0  0  0  0
  129.6780   58.7002   -2.5507 C   0  0  0  0  0  0  0  0  0  0  0  0
  128.7180   57.9691   -3.1654 N   0  0  0  0  0  0  0  0  0  0  0  0
  128.4645   61.0223   -2.4190 N   0  0  0  0  0  0  0  0  0  0  0  0
  128.8858   62.2076   -1.9120 C   0  0  0  0  0  0  0  0  0  0  0  0
  130.1332   62.1173   -1.4091 N   0  0  0  0  0  0  0  0  0  0  0  0
  2  1  1  1  0  0  0
  2  3  1  0  0  0  0
  2  5  1  0  0  0  0
  3  4  1  0  0  0  0
  3 16  1  0  0  0  0
  5  6  1  0  0  0  0
  6  7  1  0  0  0  0
  7  8  1  0  0  0  0
  9  8  1  6  0  0  0
  9 10  1  0  0  0  0
  9 11  1  0  0  0  0
 10 15  1  0  0  0  0
 11 12  1  1  0  0  0
 11 13  1  0  0  0  0
 13 14  1  1  0  0  0
 13 15  1  0  0  0  0
 15 26  1  6  0  0  0
 17 18  2  0  0  0  0
 17 22  1  0  0  0  0
 18 19  1  0  0  0  0
 19 20  2  0  0  0  0
 20 21  1  0  0  0  0
 20 26  1  0  0  0  0
 21 22  2  0  0  0  0
 21 24  1  0  0  0  0
 22 23  1  0  0  0  0
 24 25  2  0  0  0  0
 25 26  1  0  0  0  0
M  END
>  <CHROM.1>
-168.48135851,-65.21490530,-63.63393788,-167.81840035,-170.17807807,170.41122477
-150.99160339,129.28150983,64.68606393,-2.20788785,1.95233065,-0.41953472
0.01272844

>  <Name>
ligand

>  <RI>
0

>  <Rbt.Current_Directory>
/home/itssahil/PROJECTS/Mol_Feturizer/Test_systems_manuscript/rnas/3npn

>  <Rbt.Executable>
rbdock ($Id: //depot/dev/client3/rdock/2013.1/src/exe/rbdock.cxx#4 $)

>  <Rbt.Library>
libRbt.so (2013.1, Build901 2013/11/27)

>  <Rbt.Parameter_File>
/export/apps/rDock/src/rDock_2013.1_src/data/scripts/dock_solv.prm

>  <Rbt.Receptor>
prm/pocket_docking_7.prm

>  <SCORE>
-27.8674

>  <SCORE.INTER>
-27.0779

>  <SCORE.INTER.CONST>
1

>  <SCORE.INTER.POLAR>
0

>  <SCORE.INTER.ROT>
7

>  <SCORE.INTER.SOLV>
30.0102

>  <SCORE.INTER.VDW>
-36.322

>  <SCORE.INTER.norm>
-1.04146

>  <SCORE.INTRA>
-0.794407

>  <SCORE.INTRA.DIHEDRAL>
-0.843149

>  <SCORE.INTRA.DIHEDRAL.0>
4.37896

>  <SCORE.INTRA.POLAR>
0

>  <SCORE.INTRA.POLAR.0>
0

>  <SCORE.INTRA.REPUL>
0

>  <SCORE.INTRA.REPUL.0>
0

>  <SCORE.INTRA.SOLV>
0.37976

>  <SCORE.INTRA.SOLV.lig_0>
-50.5538

>  <SCORE.INTRA.VDW>
-0.562713

>  <SCORE.INTRA.VDW.0>
-1.30673

>  <SCORE.INTRA.norm>
-0.0305541

>  <SCORE.RESTR>
0.00497646

>  <SCORE.RESTR.CAVITY>
0.00497646

>  <SCORE.RESTR.norm>
0.000191402

>  <SCORE.SYSTEM>
0

>  <SCORE.SYSTEM.CONST>
0

>  <SCORE.SYSTEM.DIHEDRAL>
0

>  <SCORE.SYSTEM.SOLV>
0

>  <SCORE.SYSTEM.norm>
0

>  <SCORE.heavy>
26

>  <SCORE.norm>
-1.07182

>  <RMSD>
1.317

$$$$
ligand
 OpenBabel02271912153D
libRbt.so/2013.1/901 2013/11/27
 26 28  0  0  0  0  0  0  0  0999 V2000
  128.5290   68.7563   -4.2802 N   0  0  0  0  0  0  0  0  0  0  0  0
  127.0507   68.8978   -4.4357 C   0  0  2  0  0  0  0  0  0  0  0  0
  126.6974   70.2806   -4.9029 C   0  0  0  0  0  0  0  0  0  0  0  0
  126.7467   71.2442   -4.1396 O   0  0  0  0  0  0  0  0  0  0  0  0
  126.3503   68.6112   -3.1102 C   0  0  0  0  0  0  0  0  0  0  0  0
  126.7252   67.2607   -2.5077 C   0  0  0  0  0  0  0  0  0  0  0  0
  128.3367   67.3443   -1.7982 S   0  0  0  0  0  0  0  0  0  0  0  0
  128.6927   65.6480   -1.4711 C   0  0  0  0  0  0  0  0  0  0  0  0
  130.0034   65.4845   -0.7035 C   0  0  1  0  0  0  0  0  0  0  0  0
  130.0539   64.2125   -0.0540 O   0  0  0  0  0  0  0  0  0  0  0  0
  131.1850   65.5530   -1.6573 C   0  0  1  0  0  0  0  0  0  0  0  0
  132.1628   66.4698   -1.1565 O   0  0  0  0  0  0  0  0  0  0  0  0
  131.7413   64.1423   -1.7361 C   0  0  1  0  0  0  0  0  0  0  0  0
  133.1393   64.1134   -1.4279 O   0  0  0  0  0  0  0  0  0  0  0  0
  130.9662   63.3238   -0.7102 C   0  0  2  0  0  0  0  0  0  0  0  0
  126.3391   70.4807   -6.0625 O   0  0  0  0  0  0  0  0  0  0  0  0
  130.9051   58.2211   -2.0967 N   0  0  0  0  0  0  0  0  0  0  0  0
  131.8640   58.9304   -1.4681 C   0  0  0  0  0  0  0  0  0  0  0  0
  131.7435   60.2414   -1.1738 N   0  0  0  0  0  0  0  0  0  0  0  0
  130.6244   60.9412   -1.5033 C   0  0  0  0  0  0  0  0  0  0  0  0
  129.5328   60.2312   -2.1929 C   0  0  0  0  0  0  0  0  0  0  0  0
  129.7371   58.7890   -2.4814 C   0  0  0  0  0  0  0  0  0  0  0  0
  128.7824   58.0665   -3.1145 N   0  0  0  0  0  0  0  0  0  0  0  0
  128.5551   61.1296   -2.4008 N   0  0  0  0  0  0  0  0  0  0  0  0
  128.9807   62.3130   -1.8932 C   0  0  0  0  0  0  0  0  0  0  0  0
  130.2133   62.2091   -1.3575 N   0  0  0  0  0  0  0  0  0  0  0  0
  2  1  1  1  0  0  0
  2  3  1  0  0  0  0
  2  5  1  0  0  0  0
  3  4  1  0  0  0  0
  3 16  1  0  0  0  0
  5  6  1  0  0  0  0
  6  7  1  0  0  0  0
  7  8  1  0  0  0  0
  9  8  1  6  0  0  0
  9 10  1  0  0  0  0
  9 11  1  0  0  0  0
 10 15  1  0  0  0  0
 11 12  1  1  0  0  0
 11 13  1  0  0  0  0
 13 14  1  1  0  0  0
 13 15  1  0  0  0  0
 15 26  1  6  0  0  0
 17 18  2  0  0  0  0
 17 22  1  0  0  0  0
 18 19  1  0  0  0  0
 19 20  2  0  0  0  0
 20 21  1  0  0  0  0
 20 26  1  0  0  0  0
 21 22  2  0  0  0  0
 21 24  1  0  0  0  0
 22 23  1  0  0  0  0
 24 25  2  0  0  0  0
 25 26  1  0  0  0  0
M  END
>  <CHROM.1>
-74.55611237,-54.06454138,75.61622578,-168.97955214,-173.83498067,159.99345031
-146.45027847,129.38721170,64.62811045,-2.28685280,1.98288200,-0.57929140
0.00766229

>  <Name>
ligand

>  <RI>
0

>  <Rbt.Current_Directory>
/home/itssahil/PROJECTS/Mol_Feturizer/Test_systems_manuscript/rnas/3npn

>  <Rbt.Executable>
rbdock ($Id: //depot/dev/client3/rdock/2013.1/src/exe/rbdock.cxx#4 $)

>  <Rbt.Library>
libRbt.so (2013.1, Build901 2013/11/27)

>  <Rbt.Parameter_File>
/export/apps/rDock/src/rDock_2013.1_src/data/scripts/dock_solv.prm

>  <Rbt.Receptor>
prm/pocket_docking_3.prm

>  <SCORE>
-27.5675

>  <SCORE.INTER>
-28.2385

>  <SCORE.INTER.CONST>
1

>  <SCORE.INTER.POLAR>
0

>  <SCORE.INTER.ROT>
7

>  <SCORE.INTER.SOLV>
24.0441

>  <SCORE.INTER.VDW>
-35.1071

>  <SCORE.INTER.norm>
-1.0861

>  <SCORE.INTRA>
0.671

>  <SCORE.INTRA.DIHEDRAL>
0.881279

>  <SCORE.INTRA.DIHEDRAL.0>
4.37896

>  <SCORE.INTRA.POLAR>
0

>  <SCORE.INTRA.POLAR.0>
0

>  <SCORE.INTRA.REPUL>
0

>  <SCORE.INTRA.REPUL.0>
0

>  <SCORE.INTRA.SOLV>
1.53157

>  <SCORE.INTRA.SOLV.lig_0>
-50.5538

>  <SCORE.INTRA.VDW>
-0.535424

>  <SCORE.INTRA.VDW.0>
-1.30673

>  <SCORE.INTRA.norm>
0.0258077

>  <SCORE.RESTR>
0

>  <SCORE.RESTR.CAVITY>
0

>  <SCORE.RESTR.norm>
0

>  <SCORE.SYSTEM>
0

>  <SCORE.SYSTEM.CONST>
0

>  <SCORE.SYSTEM.DIHEDRAL>
0

>  <SCORE.SYSTEM.SOLV>
0

>  <SCORE.SYSTEM.norm>
0

>  <SCORE.heavy>
26

>  <SCORE.norm>
-1.06029

>  <RMSD>
1.321

$$$$
ligand
 OpenBabel02271912153D
libRbt.so/2013.1/901 2013/11/27
 26 28  0  0  0  0  0  0  0  0999 V2000
  127.1746   70.7566   -5.6221 N   0  0  0  0  0  0  0  0  0  0  0  0
  127.0222   69.8872   -4.4179 C   0  0  2  0  0  0  0  0  0  0  0  0
  126.1796   70.5669   -3.3772 C   0  0  0  0  0  0  0  0  0  0  0  0
  125.6994   69.9388   -2.4346 O   0  0  0  0  0  0  0  0  0  0  0  0
  128.3910   69.5543   -3.8301 C   0  0  0  0  0  0  0  0  0  0  0  0
  128.3652   68.3675   -2.8719 C   0  0  0  0  0  0  0  0  0  0  0  0
  128.1400   66.8699   -3.7740 S   0  0  0  0  0  0  0  0  0  0  0  0
  128.1729   65.6527   -2.4978 C   0  0  0  0  0  0  0  0  0  0  0  0
  129.3905   65.8195   -1.5904 C   0  0  1  0  0  0  0  0  0  0  0  0
  129.4963   64.7236   -0.6793 O   0  0  0  0  0  0  0  0  0  0  0  0
  130.6653   65.8448   -2.4181 C   0  0  1  0  0  0  0  0  0  0  0  0
  131.4723   66.9627   -2.0358 O   0  0  0  0  0  0  0  0  0  0  0  0
  131.3734   64.5315   -2.1358 C   0  0  1  0  0  0  0  0  0  0  0  0
  132.7188   64.7467   -1.6955 O   0  0  0  0  0  0  0  0  0  0  0  0
  130.5706   63.8455   -1.0366 C   0  0  2  0  0  0  0  0  0  0  0  0
  125.9407   71.7715   -3.4493 O   0  0  0  0  0  0  0  0  0  0  0  0
  131.3940   58.6578   -1.6479 N   0  0  0  0  0  0  0  0  0  0  0  0
  132.2128   59.6061   -1.1498 C   0  0  0  0  0  0  0  0  0  0  0  0
  131.8674   60.9065   -1.0515 N   0  0  0  0  0  0  0  0  0  0  0  0
  130.6474   61.3481   -1.4602 C   0  0  0  0  0  0  0  0  0  0  0  0
  129.6984   60.3674   -2.0161 C   0  0  0  0  0  0  0  0  0  0  0  0
  130.1487   58.9544   -2.0908 C   0  0  0  0  0  0  0  0  0  0  0  0
  129.3363   57.9934   -2.5915 N   0  0  0  0  0  0  0  0  0  0  0  0
  128.5828   61.0448   -2.3369 N   0  0  0  0  0  0  0  0  0  0  0  0
  128.7958   62.3458   -2.0189 C   0  0  0  0  0  0  0  0  0  0  0  0
  130.0242   62.5347   -1.4969 N   0  0  0  0  0  0  0  0  0  0  0  0
  2  1  1  6  0  0  0
  2  3  1  0  0  0  0
  2  5  1  0  0  0  0
  3  4  1  0  0  0  0
  3 16  1  0  0  0  0
  5  6  1  0  0  0  0
  6  7  1  0  0  0  0
  7  8  1  0  0  0  0
  9  8  1  6  0  0  0
  9 10  1  0  0  0  0
  9 11  1  0  0  0  0
 10 15  1  0  0  0  0
 11 12  1  1  0  0  0
 11 13  1  0  0  0  0
 13 14  1  1  0  0  0
 13 15  1  0  0  0  0
 15 26  1  6  0  0  0
 17 18  2  0  0  0  0
 17 22  1  0  0  0  0
 18 19  1  0  0  0  0
 19 20  2  0  0  0  0
 20 21  1  0  0  0  0
 20 26  1  0  0  0  0
 21 22  2  0  0  0  0
 21 24  1  0  0  0  0
 22 23  1  0  0  0  0
 24 25  2  0  0  0  0
 25 26  1  0  0  0  0
M  END
>  <CHROM.1>
164.83897599,-163.09760836,72.34201039,178.92402150,-50.50240683,-172.19810510
-154.56757266,129.28388235,64.99772888,-2.44524001,1.93985611,-0.33078653
-0.07634135

>  <Name>
ligand

>  <RI>
0

>  <Rbt.Current_Directory>
/home/itssahil/PROJECTS/Mol_Feturizer/Test_systems_manuscript/rnas/3npn

>  <Rbt.Executable>
rbdock ($Id: //depot/dev/client3/rdock/2013.1/src/exe/rbdock.cxx#4 $)

>  <Rbt.Library>
libRbt.so (2013.1, Build901 2013/11/27)

>  <Rbt.Parameter_File>
/export/apps/rDock/src/rDock_2013.1_src/data/scripts/dock_solv.prm

>  <Rbt.Receptor>
prm/pocket_docking_2.prm

>  <SCORE>
-26.7903

>  <SCORE.INTER>
-26.2483

>  <SCORE.INTER.CONST>
1

>  <SCORE.INTER.POLAR>
0

>  <SCORE.INTER.ROT>
7

>  <SCORE.INTER.SOLV>
25.4439

>  <SCORE.INTER.VDW>
-34.2468

>  <SCORE.INTER.norm>
-1.00955

>  <SCORE.INTRA>
-0.560632

>  <SCORE.INTRA.DIHEDRAL>
0.290456

>  <SCORE.INTRA.DIHEDRAL.0>
4.37896

>  <SCORE.INTRA.POLAR>
0

>  <SCORE.INTRA.POLAR.0>
0

>  <SCORE.INTRA.REPUL>
0

>  <SCORE.INTRA.REPUL.0>
0

>  <SCORE.INTRA.SOLV>
-0.367164

>  <SCORE.INTRA.SOLV.lig_0>
-50.5538

>  <SCORE.INTRA.VDW>
-0.522278

>  <SCORE.INTRA.VDW.0>
-1.30673

>  <SCORE.INTRA.norm>
-0.0215628

>  <SCORE.RESTR>
0.018651

>  <SCORE.RESTR.CAVITY>
0.018651

>  <SCORE.RESTR.norm>
0.000717346

>  <SCORE.SYSTEM>
0

>  <SCORE.SYSTEM.CONST>
0

>  <SCORE.SYSTEM.DIHEDRAL>
0

>  <SCORE.SYSTEM.SOLV>
0

>  <SCORE.SYSTEM.norm>
0

>  <SCORE.heavy>
26

>  <SCORE.norm>
-1.0304

>  <RMSD>
1.325

$$$$
ligand
 OpenBabel02271912153D
libRbt.so/2013.1/901 2013/11/27
 26 28  0  0  0  0  0  0  0  0999 V2000
  126.1027   70.4775   -3.0387 N   0  0  0  0  0  0  0  0  0  0  0  0
  127.4318   69.8312   -2.8264 C   0  0  2  0  0  0  0  0  0  0  0  0
  128.5264   70.8593   -2.8245 C   0  0  0  0  0  0  0  0  0  0  0  0
  128.5007   71.8204   -3.5922 O   0  0  0  0  0  0  0  0  0  0  0  0
  127.6993   68.8015   -3.9210 C   0  0  0  0  0  0  0  0  0  0  0  0
  126.9000   67.5136   -3.7481 C   0  0  0  0  0  0  0  0  0  0  0  0
  127.3965   66.6906   -2.2704 S   0  0  0  0  0  0  0  0  0  0  0  0
  129.0491   66.2032   -2.6477 C   0  0  0  0  0  0  0  0  0  0  0  0
  129.9192   66.1411   -1.3936 C   0  0  1  0  0  0  0  0  0  0  0  0
  129.5093   65.0657   -0.5462 O   0  0  0  0  0  0  0  0  0  0  0  0
  131.3706   65.8922   -1.7706 C   0  0  1  0  0  0  0  0  0  0  0  0
  132.2160   66.8330   -1.1018 O   0  0  0  0  0  0  0  0  0  0  0  0
  131.6774   64.4697   -1.3370 C   0  0  1  0  0  0  0  0  0  0  0  0
  132.8252   64.4194   -0.4823 O   0  0  0  0  0  0  0  0  0  0  0  0
  130.4461   63.9824   -0.5822 C   0  0  2  0  0  0  0  0  0  0  0  0
  129.4835   70.7582   -2.0584 O   0  0  0  0  0  0  0  0  0  0  0  0
  130.8736   58.8611   -1.8286 N   0  0  0  0  0  0  0  0  0  0  0  0
  131.7274   59.6564   -1.1531 C   0  0  0  0  0  0  0  0  0  0  0  0
  131.4866   60.9602   -0.9043 N   0  0  0  0  0  0  0  0  0  0  0  0
  130.3448   61.5636   -1.3318 C   0  0  0  0  0  0  0  0  0  0  0  0
  129.3635   60.7561   -2.0776 C   0  0  0  0  0  0  0  0  0  0  0  0
  129.6971   59.3281   -2.3111 C   0  0  0  0  0  0  0  0  0  0  0  0
  128.8488   58.5200   -2.9904 N   0  0  0  0  0  0  0  0  0  0  0  0
  128.3383   61.5711   -2.3793 N   0  0  0  0  0  0  0  0  0  0  0  0
  128.6347   62.7949   -1.8754 C   0  0  0  0  0  0  0  0  0  0  0  0
  129.8292   62.7987   -1.2506 N   0  0  0  0  0  0  0  0  0  0  0  0
  2  1  1  6  0  0  0
  2  3  1  0  0  0  0
  2  5  1  0  0  0  0
  3  4  1  0  0  0  0
  3 16  1  0  0  0  0
  5  6  1  0  0  0  0
  6  7  1  0  0  0  0
  7  8  1  0  0  0  0
  9  8  1  6  0  0  0
  9 10  1  0  0  0  0
  9 11  1  0  0  0  0
 10 15  1  0  0  0  0
 11 12  1  1  0  0  0
 11 13  1  0  0  0  0
 13 14  1  1  0  0  0
 13 15  1  0  0  0  0
 15 26  1  6  0  0  0
 17 18  2  0  0  0  0
 17 22  1  0  0  0  0
 18 19  1  0  0  0  0
 19 20  2  0  0  0  0
 20 21  1  0  0  0  0
 20 26  1  0  0  0  0
 21 22  2  0  0  0  0
 21 24  1  0  0  0  0
 22 23  1  0  0  0  0
 24 25  2  0  0  0  0
 25 26  1  0  0  0  0
M  END
>  <CHROM.1>
-38.23355562,-75.06272876,-64.44490072,-67.26594648,150.31130020,68.51152876
-171.87699025,129.45431805,65.09346959,-2.01829513,1.83139572,-0.43232417
-0.01680222

>  <Name>
ligand

>  <RI>
0

>  <Rbt.Current_Directory>
/home/itssahil/PROJECTS/Mol_Feturizer/Test_systems_manuscript/rnas/3npn

>  <Rbt.Executable>
rbdock ($Id: //depot/dev/client3/rdock/2013.1/src/exe/rbdock.cxx#4 $)

>  <Rbt.Library>
libRbt.so (2013.1, Build901 2013/11/27)

>  <Rbt.Parameter_File>
/export/apps/rDock/src/rDock_2013.1_src/data/scripts/dock_solv.prm

>  <Rbt.Receptor>
prm/pocket_docking_2.prm

>  <SCORE>
-27.101

>  <SCORE.INTER>
-26.2895

>  <SCORE.INTER.CONST>
1

>  <SCORE.INTER.POLAR>
0

>  <SCORE.INTER.ROT>
7

>  <SCORE.INTER.SOLV>
26.0349

>  <SCORE.INTER.VDW>
-34.4713

>  <SCORE.INTER.norm>
-1.01113

>  <SCORE.INTRA>
-0.811531

>  <SCORE.INTRA.DIHEDRAL>
0.744363

>  <SCORE.INTRA.DIHEDRAL.0>
4.37896

>  <SCORE.INTRA.POLAR>
0

>  <SCORE.INTRA.POLAR.0>
0

>  <SCORE.INTRA.REPUL>
0

>  <SCORE.INTRA.REPUL.0>
0

>  <SCORE.INTRA.SOLV>
0.14075

>  <SCORE.INTRA.SOLV.lig_0>
-50.5538

>  <SCORE.INTRA.VDW>
-1.25409

>  <SCORE.INTRA.VDW.0>
-1.30673

>  <SCORE.INTRA.norm>
-0.0312127

>  <SCORE.RESTR>
0

>  <SCORE.RESTR.CAVITY>
0

>  <SCORE.RESTR.norm>
0

>  <SCORE.SYSTEM>
0

>  <SCORE.SYSTEM.CONST>
0

>  <SCORE.SYSTEM.DIHEDRAL>
0

>  <SCORE.SYSTEM.SOLV>
0

>  <SCORE.SYSTEM.norm>
0

>  <SCORE.heavy>
26

>  <SCORE.norm>
-1.04235

>  <RMSD>
1.330

$$$$
ligand
 OpenBabel02271912153D
libRbt.so/2013.1/901 2013/11/27
 26 28  0  0  0  0  0  0  0  0999 V2000
  128.7476   69.4472   -4.1715 N   0  0  0  0  0  0  0  0  0  0  0  0
  127.3077   69.6836   -3.8551 C   0  0  2  0  0  0  0  0  0  0  0  0
  127.0531   71.1423   -3.6052 C   0  0  0  0  0  0  0  0  0  0  0  0
  125.9120   71.5721   -3.4410 O   0  0  0  0  0  0  0  0  0  0  0  0
  126.8970   68.8751   -2.6273 C   0  0  0  0  0  0  0  0  0  0  0  0
  126.5793   67.4166   -2.9423 C   0  0  0  0  0  0  0  0  0  0  0  0
  128.0158   66.6089   -3.5678 S   0  0  0  0  0  0  0  0  0  0  0  0
  128.2681   65.3220   -2.3882 C   0  0  0  0  0  0  0  0  0  0  0  0
  129.4143   65.6494   -1.4327 C   0  0  1  0  0  0  0  0  0  0  0  0
  129.6118   64.5873   -0.4970 O   0  0  0  0  0  0  0  0  0  0  0  0
  130.7124   65.8193   -2.2051 C   0  0  1  0  0  0  0  0  0  0  0  0
  131.3592   67.0329   -1.8100 O   0  0  0  0  0  0  0  0  0  0  0  0
  131.5618   64.6068   -1.8675 C   0  0  1  0  0  0  0  0  0  0  0  0
  132.8498   64.9914   -1.3740 O   0  0  0  0  0  0  0  0  0  0  0  0
  130.8000   63.8428   -0.7909 C   0  0  2  0  0  0  0  0  0  0  0  0
  127.9833   71.9464   -3.5687 O   0  0  0  0  0  0  0  0  0  0  0  0
  132.1994   58.7527   -1.1023 N   0  0  0  0  0  0  0  0  0  0  0  0
  132.8627   59.7960   -0.5644 C   0  0  0  0  0  0  0  0  0  0  0  0
  132.3802   61.0557   -0.5548 N   0  0  0  0  0  0  0  0  0  0  0  0
  131.1708   61.3551   -1.1013 C   0  0  0  0  0  0  0  0  0  0  0  0
  130.3879   60.2643   -1.7082 C   0  0  0  0  0  0  0  0  0  0  0  0
  130.9832   58.9042   -1.6792 C   0  0  0  0  0  0  0  0  0  0  0  0
  130.3278   57.8488   -2.2184 N   0  0  0  0  0  0  0  0  0  0  0  0
  129.2491   60.8115   -2.1665 N   0  0  0  0  0  0  0  0  0  0  0  0
  129.2963   62.1368   -1.8828 C   0  0  0  0  0  0  0  0  0  0  0  0
  130.4388   62.4686   -1.2489 N   0  0  0  0  0  0  0  0  0  0  0  0
  2  1  1  1  0  0  0
  2  3  1  0  0  0  0
  2  5  1  0  0  0  0
  3  4  1  0  0  0  0
  3 16  1  0  0  0  0
  5  6  1  0  0  0  0
  6  7  1  0  0  0  0
  7  8  1  0  0  0  0
  9  8  1  6  0  0  0
  9 10  1  0  0  0  0
  9 11  1  0  0  0  0
 10 15  1  0  0  0  0
 11 12  1  1  0  0  0
 11 13  1  0  0  0  0
 13 14  1  1  0  0  0
 13 15  1  0  0  0  0
 15 26  1  6  0  0  0
 17 18  2  0  0  0  0
 17 22  1  0  0  0  0
 18 19  1  0  0  0  0
 19 20  2  0  0  0  0
 20 21  1  0  0  0  0
 20 26  1  0  0  0  0
 21 22  2  0  0  0  0
 21 24  1  0  0  0  0
 22 23  1  0  0  0  0
 24 25  2  0  0  0  0
 25 26  1  0  0  0  0
M  END
>  <CHROM.1>
173.64384491,-81.21896643,62.57528340,119.82700981,-103.52939376,-179.28825351
-150.88016659,129.59844753,64.93231703,-2.17502834,-1.96592640,0.35600934
3.07379150

>  <Name>
ligand

>  <RI>
0

>  <Rbt.Current_Directory>
/home/itssahil/PROJECTS/Mol_Feturizer/Test_systems_manuscript/rnas/3npn

>  <Rbt.Executable>
rbdock ($Id: //depot/dev/client3/rdock/2013.1/src/exe/rbdock.cxx#4 $)

>  <Rbt.Library>
libRbt.so (2013.1, Build901 2013/11/27)

>  <Rbt.Parameter_File>
/export/apps/rDock/src/rDock_2013.1_src/data/scripts/dock_solv.prm

>  <Rbt.Receptor>
prm/pocket_docking_2.prm

>  <SCORE>
-25.9581

>  <SCORE.INTER>
-27.8031

>  <SCORE.INTER.CONST>
1

>  <SCORE.INTER.POLAR>
0

>  <SCORE.INTER.ROT>
7

>  <SCORE.INTER.SOLV>
15.2961

>  <SCORE.INTER.VDW>
-31.9007

>  <SCORE.INTER.norm>
-1.06935

>  <SCORE.INTRA>
1.83429

>  <SCORE.INTRA.DIHEDRAL>
4.35344

>  <SCORE.INTRA.DIHEDRAL.0>
4.37896

>  <SCORE.INTRA.POLAR>
0

>  <SCORE.INTRA.POLAR.0>
0

>  <SCORE.INTRA.REPUL>
0

>  <SCORE.INTRA.REPUL.0>
0

>  <SCORE.INTRA.SOLV>
1.18489

>  <SCORE.INTRA.SOLV.lig_0>
-50.5538

>  <SCORE.INTRA.VDW>
-0.934878

>  <SCORE.INTRA.VDW.0>
-1.30673

>  <SCORE.INTRA.norm>
0.0705497

>  <SCORE.RESTR>
0.0106589

>  <SCORE.RESTR.CAVITY>
0.0106589

>  <SCORE.RESTR.norm>
0.000409956

>  <SCORE.SYSTEM>
0

>  <SCORE.SYSTEM.CONST>
0

>  <SCORE.SYSTEM.DIHEDRAL>
0

>  <SCORE.SYSTEM.SOLV>
0

>  <SCORE.SYSTEM.norm>
0

>  <SCORE.heavy>
26

>  <SCORE.norm>
-0.99839

>  <RMSD>
1.351

$$$$
ligand
 OpenBabel02271912153D
libRbt.so/2013.1/901 2013/11/27
 26 28  0  0  0  0  0  0  0  0999 V2000
  125.7038   69.9034   -2.0041 N   0  0  0  0  0  0  0  0  0  0  0  0
  126.7911   69.7834   -3.0203 C   0  0  2  0  0  0  0  0  0  0  0  0
  126.8653   71.0226   -3.8653 C   0  0  0  0  0  0  0  0  0  0  0  0
  127.8132   71.2222   -4.6237 O   0  0  0  0  0  0  0  0  0  0  0  0
  126.5483   68.5694   -3.9130 C   0  0  0  0  0  0  0  0  0  0  0  0
  126.8028   67.2402   -3.2087 C   0  0  0  0  0  0  0  0  0  0  0  0
  128.5135   67.0864   -2.8127 S   0  0  0  0  0  0  0  0  0  0  0  0
  128.5738   65.5196   -2.0048 C   0  0  0  0  0  0  0  0  0  0  0  0
  129.7897   65.4045   -1.0871 C   0  0  1  0  0  0  0  0  0  0  0  0
  129.7463   64.1868   -0.3403 O   0  0  0  0  0  0  0  0  0  0  0  0
  131.0695   65.3871   -1.9072 C   0  0  1  0  0  0  0  0  0  0  0  0
  132.0030   66.3311   -1.3735 O   0  0  0  0  0  0  0  0  0  0  0  0
  131.6057   63.9694   -1.8156 C   0  0  1  0  0  0  0  0  0  0  0  0
  132.9610   63.9516   -1.3539 O   0  0  0  0  0  0  0  0  0  0  0  0
  130.7087   63.2410   -0.8216 C   0  0  2  0  0  0  0  0  0  0  0  0
  125.9804   71.8754   -3.8107 O   0  0  0  0  0  0  0  0  0  0  0  0
  130.9105   58.1399   -2.2009 N   0  0  0  0  0  0  0  0  0  0  0  0
  131.8354   58.9011   -1.5821 C   0  0  0  0  0  0  0  0  0  0  0  0
  131.6470   60.2042   -1.2884 N   0  0  0  0  0  0  0  0  0  0  0  0
  130.4887   60.8420   -1.6085 C   0  0  0  0  0  0  0  0  0  0  0  0
  129.4308   60.0729   -2.2871 C   0  0  0  0  0  0  0  0  0  0  0  0
  129.7101   58.6433   -2.5756 C   0  0  0  0  0  0  0  0  0  0  0  0
  128.7900   57.8692   -3.1989 N   0  0  0  0  0  0  0  0  0  0  0  0
  128.4042   60.9168   -2.4871 N   0  0  0  0  0  0  0  0  0  0  0  0
  128.7699   62.1224   -1.9850 C   0  0  0  0  0  0  0  0  0  0  0  0
  130.0112   62.0861   -1.4606 N   0  0  0  0  0  0  0  0  0  0  0  0
  2  1  1  1  0  0  0
  2  3  1  0  0  0  0
  2  5  1  0  0  0  0
  3  4  1  0  0  0  0
  3 16  1  0  0  0  0
  5  6  1  0  0  0  0
  6  7  1  0  0  0  0
  7  8  1  0  0  0  0
  9  8  1  6  0  0  0
  9 10  1  0  0  0  0
  9 11  1  0  0  0  0
 10 15  1  0  0  0  0
 11 12  1  1  0  0  0
 11 13  1  0  0  0  0
 13 14  1  1  0  0  0
 13 15  1  0  0  0  0
 15 26  1  6  0  0  0
 17 18  2  0  0  0  0
 17 22  1  0  0  0  0
 18 19  1  0  0  0  0
 19 20  2  0  0  0  0
 20 21  1  0  0  0  0
 20 26  1  0  0  0  0
 21 22  2  0  0  0  0
 21 24  1  0  0  0  0
 22 23  1  0  0  0  0
 24 25  2  0  0  0  0
 25 26  1  0  0  0  0
M  END
>  <CHROM.1>
168.77828968,-72.43641017,-65.93639289,179.33969558,-156.90098529,174.04596726
-155.43951105,129.24428995,64.67918911,-2.28831663,1.93109668,-0.39681948
-0.00080400

>  <Name>
ligand

>  <RI>
0

>  <Rbt.Current_Directory>
/home/itssahil/PROJECTS/Mol_Feturizer/Test_systems_manuscript/rnas/3npn

>  <Rbt.Executable>
rbdock ($Id: //depot/dev/client3/rdock/2013.1/src/exe/rbdock.cxx#4 $)

>  <Rbt.Library>
libRbt.so (2013.1, Build901 2013/11/27)

>  <Rbt.Parameter_File>
/export/apps/rDock/src/rDock_2013.1_src/data/scripts/dock_solv.prm

>  <Rbt.Receptor>
prm/pocket_docking_5.prm

>  <SCORE>
-27.7312

>  <SCORE.INTER>
-26.9076

>  <SCORE.INTER.CONST>
1

>  <SCORE.INTER.POLAR>
0

>  <SCORE.INTER.ROT>
7

>  <SCORE.INTER.SOLV>
29.9246

>  <SCORE.INTER.VDW>
-36.1799

>  <SCORE.INTER.norm>
-1.03491

>  <SCORE.INTRA>
-0.840174

>  <SCORE.INTRA.DIHEDRAL>
-0.0524154

>  <SCORE.INTRA.DIHEDRAL.0>
4.37896

>  <SCORE.INTRA.POLAR>
0

>  <SCORE.INTRA.POLAR.0>
0

>  <SCORE.INTRA.REPUL>
0

>  <SCORE.INTRA.REPUL.0>
0

>  <SCORE.INTRA.SOLV>
0.213011

>  <SCORE.INTRA.SOLV.lig_0>
-50.5538

>  <SCORE.INTRA.VDW>
-0.920472

>  <SCORE.INTRA.VDW.0>
-1.30673

>  <SCORE.INTRA.norm>
-0.0323144

>  <SCORE.RESTR>
0.0166008

>  <SCORE.RESTR.CAVITY>
0.0166008

>  <SCORE.RESTR.norm>
0.000638494

>  <SCORE.SYSTEM>
0

>  <SCORE.SYSTEM.CONST>
0

>  <SCORE.SYSTEM.DIHEDRAL>
0

>  <SCORE.SYSTEM.SOLV>
0

>  <SCORE.SYSTEM.norm>
0

>  <SCORE.heavy>
26

>  <SCORE.norm>
-1.06658

>  <RMSD>
1.357

$$$$
ligand
 OpenBabel02271912153D
libRbt.so/2013.1/901 2013/11/27
 26 28  0  0  0  0  0  0  0  0999 V2000
  125.6215   67.8430   -2.8543 N   0  0  0  0  0  0  0  0  0  0  0  0
  126.3893   69.0358   -2.3884 C   0  0  2  0  0  0  0  0  0  0  0  0
  126.1399   70.2111   -3.2894 C   0  0  0  0  0  0  0  0  0  0  0  0
  125.7214   71.2790   -2.8444 O   0  0  0  0  0  0  0  0  0  0  0  0
  127.8830   68.7233   -2.3571 C   0  0  0  0  0  0  0  0  0  0  0  0
  128.4174   68.1908   -3.6830 C   0  0  0  0  0  0  0  0  0  0  0  0
  128.0384   66.4764   -3.8401 S   0  0  0  0  0  0  0  0  0  0  0  0
  129.5748   65.7120   -3.4325 C   0  0  0  0  0  0  0  0  0  0  0  0
  129.9036   65.8626   -1.9482 C   0  0  1  0  0  0  0  0  0  0  0  0
  129.1349   64.9477   -1.1644 O   0  0  0  0  0  0  0  0  0  0  0  0
  131.3704   65.5509   -1.6989 C   0  0  1  0  0  0  0  0  0  0  0  0
  131.9629   66.5903   -0.9143 O   0  0  0  0  0  0  0  0  0  0  0  0
  131.3966   64.2224   -0.9640 C   0  0  1  0  0  0  0  0  0  0  0  0
  132.1330   64.3163    0.2604 O   0  0  0  0  0  0  0  0  0  0  0  0
  129.9425   63.8725   -0.6700 C   0  0  2  0  0  0  0  0  0  0  0  0
  126.3399   70.1293   -4.5004 O   0  0  0  0  0  0  0  0  0  0  0  0
  131.2025   58.8506   -1.7455 N   0  0  0  0  0  0  0  0  0  0  0  0
  131.8927   59.7824   -1.0578 C   0  0  0  0  0  0  0  0  0  0  0  0
  131.4449   61.0392   -0.8581 N   0  0  0  0  0  0  0  0  0  0  0  0
  130.2457   61.4505   -1.3516 C   0  0  0  0  0  0  0  0  0  0  0  0
  129.4348   60.4854   -2.1146 C   0  0  0  0  0  0  0  0  0  0  0  0
  129.9925   59.1205   -2.2913 C   0  0  0  0  0  0  0  0  0  0  0  0
  129.3098   58.1767   -2.9822 N   0  0  0  0  0  0  0  0  0  0  0  0
  128.3128   61.1264   -2.4837 N   0  0  0  0  0  0  0  0  0  0  0  0
  128.3955   62.3922   -2.0040 C   0  0  0  0  0  0  0  0  0  0  0  0
  129.5449   62.5933   -1.3291 N   0  0  0  0  0  0  0  0  0  0  0  0
  2  1  1  6  0  0  0
  2  3  1  0  0  0  0
  2  5  1  0  0  0  0
  3  4  1  0  0  0  0
  3 16  1  0  0  0  0
  5  6  1  0  0  0  0
  6  7  1  0  0  0  0
  7  8  1  0  0  0  0
  9  8  1  6  0  0  0
  9 10  1  0  0  0  0
  9 11  1  0  0  0  0
 10 15  1  0  0  0  0
 11 12  1  1  0  0  0
 11 13  1  0  0  0  0
 13 14  1  1  0  0  0
 13 15  1  0  0  0  0
 15 26  1  6  0  0  0
 17 18  2  0  0  0  0
 17 22  1  0  0  0  0
 18 19  1  0  0  0  0
 19 20  2  0  0  0  0
 20 21  1  0  0  0  0
 20 26  1  0  0  0  0
 21 22  2  0  0  0  0
 21 24  1  0  0  0  0
 22 23  1  0  0  0  0
 24 25  2  0  0  0  0
 25 26  1  0  0  0  0
M  END
>  <CHROM.1>
124.09312926,53.93027925,-80.08362405,-101.47129574,70.19421462,77.03271688
164.17347750,129.14795373,64.76671537,-2.18335410,2.02104166,-0.53400761
0.06359442

>  <Name>
ligand

>  <RI>
0

>  <Rbt.Current_Directory>
/home/itssahil/PROJECTS/Mol_Feturizer/Test_systems_manuscript/rnas/3npn

>  <Rbt.Executable>
rbdock ($Id: //depot/dev/client3/rdock/2013.1/src/exe/rbdock.cxx#4 $)

>  <Rbt.Library>
libRbt.so (2013.1, Build901 2013/11/27)

>  <Rbt.Parameter_File>
/export/apps/rDock/src/rDock_2013.1_src/data/scripts/dock_solv.prm

>  <Rbt.Receptor>
prm/pocket_docking_4.prm

>  <SCORE>
-26.7646

>  <SCORE.INTER>
-27.9416

>  <SCORE.INTER.CONST>
1

>  <SCORE.INTER.POLAR>
0

>  <SCORE.INTER.ROT>
7

>  <SCORE.INTER.SOLV>
26.2154

>  <SCORE.INTER.VDW>
-35.6328

>  <SCORE.INTER.norm>
-1.07468

>  <SCORE.INTRA>
1.177

>  <SCORE.INTRA.DIHEDRAL>
2.84509

>  <SCORE.INTRA.DIHEDRAL.0>
4.37896

>  <SCORE.INTRA.POLAR>
0

>  <SCORE.INTRA.POLAR.0>
0

>  <SCORE.INTRA.REPUL>
0

>  <SCORE.INTRA.REPUL.0>
0

>  <SCORE.INTRA.SOLV>
1.35389

>  <SCORE.INTRA.SOLV.lig_0>
-50.5538

>  <SCORE.INTRA.VDW>
-0.922493

>  <SCORE.INTRA.VDW.0>
-1.30673

>  <SCORE.INTRA.norm>
0.0452691

>  <SCORE.RESTR>
0

>  <SCORE.RESTR.CAVITY>
0

>  <SCORE.RESTR.norm>
0

>  <SCORE.SYSTEM>
0

>  <SCORE.SYSTEM.CONST>
0

>  <SCORE.SYSTEM.DIHEDRAL>
0

>  <SCORE.SYSTEM.SOLV>
0

>  <SCORE.SYSTEM.norm>
0

>  <SCORE.heavy>
26

>  <SCORE.norm>
-1.02941

>  <RMSD>
1.358

$$$$
ligand
 OpenBabel02271912153D
libRbt.so/2013.1/901 2013/11/27
 26 28  0  0  0  0  0  0  0  0999 V2000
  125.8118   70.9593   -2.5172 N   0  0  0  0  0  0  0  0  0  0  0  0
  126.7123   69.8132   -2.8408 C   0  0  2  0  0  0  0  0  0  0  0  0
  127.2936   69.9686   -4.2167 C   0  0  0  0  0  0  0  0  0  0  0  0
  126.5712   70.1061   -5.2030 O   0  0  0  0  0  0  0  0  0  0  0  0
  125.9437   68.4972   -2.7560 C   0  0  0  0  0  0  0  0  0  0  0  0
  126.8394   67.2893   -2.4984 C   0  0  0  0  0  0  0  0  0  0  0  0
  127.9231   67.0407   -3.8663 S   0  0  0  0  0  0  0  0  0  0  0  0
  128.8260   65.6070   -3.3757 C   0  0  0  0  0  0  0  0  0  0  0  0
  129.4998   65.8016   -2.0186 C   0  0  1  0  0  0  0  0  0  0  0  0
  129.0521   64.8159   -1.0856 O   0  0  0  0  0  0  0  0  0  0  0  0
  131.0063   65.6482   -2.1510 C   0  0  1  0  0  0  0  0  0  0  0  0
  131.6656   66.7497   -1.5192 O   0  0  0  0  0  0  0  0  0  0  0  0
  131.3542   64.3349   -1.4729 C   0  0  1  0  0  0  0  0  0  0  0  0
  132.3608   64.5144   -0.4705 O   0  0  0  0  0  0  0  0  0  0  0  0
  130.0652   63.8354   -0.8310 C   0  0  2  0  0  0  0  0  0  0  0  0
  128.5112   69.9519   -4.3910 O   0  0  0  0  0  0  0  0  0  0  0  0
  131.3091   58.7599   -1.6406 N   0  0  0  0  0  0  0  0  0  0  0  0
  132.0196   59.7342   -1.0375 C   0  0  0  0  0  0  0  0  0  0  0  0
  131.5733   60.9997   -0.8993 N   0  0  0  0  0  0  0  0  0  0  0  0
  130.3549   61.3767   -1.3727 C   0  0  0  0  0  0  0  0  0  0  0  0
  129.5213   60.3642   -2.0444 C   0  0  0  0  0  0  0  0  0  0  0  0
  130.0787   58.9925   -2.1571 C   0  0  0  0  0  0  0  0  0  0  0  0
  129.3757   58.0061   -2.7629 N   0  0  0  0  0  0  0  0  0  0  0  0
  128.3834   60.9784   -2.4108 N   0  0  0  0  0  0  0  0  0  0  0  0
  128.4776   62.2716   -2.0133 C   0  0  0  0  0  0  0  0  0  0  0  0
  129.6499   62.5170   -1.3948 N   0  0  0  0  0  0  0  0  0  0  0  0
  2  1  1  6  0  0  0
  2  3  1  0  0  0  0
  2  5  1  0  0  0  0
  3  4  1  0  0  0  0
  3 16  1  0  0  0  0
  5  6  1  0  0  0  0
  6  7  1  0  0  0  0
  7  8  1  0  0  0  0
  9  8  1  6  0  0  0
  9 10  1  0  0  0  0
  9 11  1  0  0  0  0
 10 15  1  0  0  0  0
 11 12  1  1  0  0  0
 11 13  1  0  0  0  0
 13 14  1  1  0  0  0
 13 15  1  0  0  0  0
 15 26  1  6  0  0  0
 17 18  2  0  0  0  0
 17 22  1  0  0  0  0
 18 19  1  0  0  0  0
 19 20  2  0  0  0  0
 20 21  1  0  0  0  0
 20 26  1  0  0  0  0
 21 22  2  0  0  0  0
 21 24  1  0  0  0  0
 22 23  1  0  0  0  0
 24 25  2  0  0  0  0
 25 26  1  0  0  0  0
M  END
>  <CHROM.1>
-55.84960593,-156.19390358,-64.86570486,-179.02616555,-55.43556335,121.26387918
178.48689829,129.16582946,64.82494615,-2.36067058,1.96331455,-0.46148780
-0.03018818

>  <Name>
ligand

>  <RI>
0

>  <Rbt.Current_Directory>
/home/itssahil/PROJECTS/Mol_Feturizer/Test_systems_manuscript/rnas/3npn

>  <Rbt.Executable>
rbdock ($Id: //depot/dev/client3/rdock/2013.1/src/exe/rbdock.cxx#4 $)

>  <Rbt.Library>
libRbt.so (2013.1, Build901 2013/11/27)

>  <Rbt.Parameter_File>
/export/apps/rDock/src/rDock_2013.1_src/data/scripts/dock_solv.prm

>  <Rbt.Receptor>
prm/pocket_docking_4.prm

>  <SCORE>
-27.5466

>  <SCORE.INTER>
-29.0228

>  <SCORE.INTER.CONST>
1

>  <SCORE.INTER.POLAR>
0

>  <SCORE.INTER.ROT>
7

>  <SCORE.INTER.SOLV>
27.1178

>  <SCORE.INTER.VDW>
-36.6545

>  <SCORE.INTER.norm>
-1.11626

>  <SCORE.INTRA>
1.47617

>  <SCORE.INTRA.DIHEDRAL>
5.63796

>  <SCORE.INTRA.DIHEDRAL.0>
4.37896

>  <SCORE.INTRA.POLAR>
0

>  <SCORE.INTRA.POLAR.0>
0

>  <SCORE.INTRA.REPUL>
0

>  <SCORE.INTRA.REPUL.0>
0

>  <SCORE.INTRA.SOLV>
-0.657128

>  <SCORE.INTRA.SOLV.lig_0>
-50.5538

>  <SCORE.INTRA.VDW>
-1.01424

>  <SCORE.INTRA.VDW.0>
-1.30673

>  <SCORE.INTRA.norm>
0.0567759

>  <SCORE.RESTR>
0

>  <SCORE.RESTR.CAVITY>
0

>  <SCORE.RESTR.norm>
0

>  <SCORE.SYSTEM>
0

>  <SCORE.SYSTEM.CONST>
0

>  <SCORE.SYSTEM.DIHEDRAL>
0

>  <SCORE.SYSTEM.SOLV>
0

>  <SCORE.SYSTEM.norm>
0

>  <SCORE.heavy>
26

>  <SCORE.norm>
-1.05949

>  <RMSD>
1.363

$$$$
ligand
 OpenBabel02271912153D
libRbt.so/2013.1/901 2013/11/27
 26 28  0  0  0  0  0  0  0  0999 V2000
  129.0891   71.4311   -3.8423 N   0  0  0  0  0  0  0  0  0  0  0  0
  128.0732   70.3395   -3.9176 C   0  0  2  0  0  0  0  0  0  0  0  0
  126.7684   70.8657   -4.4427 C   0  0  0  0  0  0  0  0  0  0  0  0
  126.2925   70.4528   -5.4994 O   0  0  0  0  0  0  0  0  0  0  0  0
  127.8578   69.7223   -2.5384 C   0  0  0  0  0  0  0  0  0  0  0  0
  126.7170   68.7101   -2.5003 C   0  0  0  0  0  0  0  0  0  0  0  0
  127.0753   67.3583   -3.5735 S   0  0  0  0  0  0  0  0  0  0  0  0
  127.5306   66.0869   -2.4388 C   0  0  0  0  0  0  0  0  0  0  0  0
  128.8669   66.3867   -1.7620 C   0  0  1  0  0  0  0  0  0  0  0  0
  129.2020   65.3593   -0.8268 O   0  0  0  0  0  0  0  0  0  0  0  0
  129.9809   66.4395   -2.7949 C   0  0  1  0  0  0  0  0  0  0  0  0
  130.7572   67.6278   -2.6140 O   0  0  0  0  0  0  0  0  0  0  0  0
  130.8194   65.1937   -2.5698 C   0  0  1  0  0  0  0  0  0  0  0  0
  132.2001   65.5203   -2.3769 O   0  0  0  0  0  0  0  0  0  0  0  0
  130.2626   64.5296   -1.3159 C   0  0  2  0  0  0  0  0  0  0  0  0
  126.1475   71.7332   -3.8303 O   0  0  0  0  0  0  0  0  0  0  0  0
  131.2884   59.3474   -1.5547 N   0  0  0  0  0  0  0  0  0  0  0  0
  132.1000   60.3706   -1.2198 C   0  0  0  0  0  0  0  0  0  0  0  0
  131.6997   61.6587   -1.2012 N   0  0  0  0  0  0  0  0  0  0  0  0
  130.4268   62.0096   -1.5288 C   0  0  0  0  0  0  0  0  0  0  0  0
  129.4821   60.9435   -1.9058 C   0  0  0  0  0  0  0  0  0  0  0  0
  129.9946   59.5498   -1.9013 C   0  0  0  0  0  0  0  0  0  0  0  0
  129.1898   58.5140   -2.2382 N   0  0  0  0  0  0  0  0  0  0  0  0
  128.3091   61.5412   -2.1763 N   0  0  0  0  0  0  0  0  0  0  0  0
  128.4841   62.8735   -1.9929 C   0  0  0  0  0  0  0  0  0  0  0  0
  129.7437   63.1606   -1.6080 N   0  0  0  0  0  0  0  0  0  0  0  0
  2  1  1  1  0  0  0
  2  3  1  0  0  0  0
  2  5  1  0  0  0  0
  3  4  1  0  0  0  0
  3 16  1  0  0  0  0
  5  6  1  0  0  0  0
  6  7  1  0  0  0  0
  7  8  1  0  0  0  0
  9  8  1  6  0  0  0
  9 10  1  0  0  0  0
  9 11  1  0  0  0  0
 10 15  1  0  0  0  0
 11 12  1  1  0  0  0
 11 13  1  0  0  0  0
 13 14  1  1  0  0  0
 13 15  1  0  0  0  0
 15 26  1  6  0  0  0
 17 18  2  0  0  0  0
 17 22  1  0  0  0  0
 18 19  1  0  0  0  0
 19 20  2  0  0  0  0
 20 21  1  0  0  0  0
 20 26  1  0  0  0  0
 21 22  2  0  0  0  0
 21 24  1  0  0  0  0
 22 23  1  0  0  0  0
 24 25  2  0  0  0  0
 25 26  1  0  0  0  0
M  END
>  <CHROM.1>
117.46565522,173.27193254,62.06954325,104.40209751,-69.27016063,178.74927478
-149.70283313,129.04248008,65.53600244,-2.54577901,-1.88996814,0.25788281
3.00162005

>  <Name>
ligand

>  <RI>
0

>  <Rbt.Current_Directory>
/home/itssahil/PROJECTS/Mol_Feturizer/Test_systems_manuscript/rnas/3npn

>  <Rbt.Executable>
rbdock ($Id: //depot/dev/client3/rdock/2013.1/src/exe/rbdock.cxx#4 $)

>  <Rbt.Library>
libRbt.so (2013.1, Build901 2013/11/27)

>  <Rbt.Parameter_File>
/export/apps/rDock/src/rDock_2013.1_src/data/scripts/dock_solv.prm

>  <Rbt.Receptor>
prm/pocket_docking_4.prm

>  <SCORE>
-30.6946

>  <SCORE.INTER>
-29.762

>  <SCORE.INTER.CONST>
1

>  <SCORE.INTER.POLAR>
0

>  <SCORE.INTER.ROT>
7

>  <SCORE.INTER.SOLV>
22.4153

>  <SCORE.INTER.VDW>
-35.5798

>  <SCORE.INTER.norm>
-1.14469

>  <SCORE.INTRA>
-0.932572

>  <SCORE.INTRA.DIHEDRAL>
0.657958

>  <SCORE.INTRA.DIHEDRAL.0>
4.37896

>  <SCORE.INTRA.POLAR>
0

>  <SCORE.INTRA.POLAR.0>
0

>  <SCORE.INTRA.REPUL>
0

>  <SCORE.INTRA.REPUL.0>
0

>  <SCORE.INTRA.SOLV>
-0.37581

>  <SCORE.INTRA.SOLV.lig_0>
-50.5538

>  <SCORE.INTRA.VDW>
-1.07365

>  <SCORE.INTRA.VDW.0>
-1.30673

>  <SCORE.INTRA.norm>
-0.0358682

>  <SCORE.RESTR>
0

>  <SCORE.RESTR.CAVITY>
0

>  <SCORE.RESTR.norm>
0

>  <SCORE.SYSTEM>
0

>  <SCORE.SYSTEM.CONST>
0

>  <SCORE.SYSTEM.DIHEDRAL>
0

>  <SCORE.SYSTEM.SOLV>
0

>  <SCORE.SYSTEM.norm>
0

>  <SCORE.heavy>
26

>  <SCORE.norm>
-1.18056

>  <RMSD>
1.365

$$$$
ligand
 OpenBabel02271912153D
libRbt.so/2013.1/901 2013/11/27
 26 28  0  0  0  0  0  0  0  0999 V2000
  129.0549   70.2749   -3.5712 N   0  0  0  0  0  0  0  0  0  0  0  0
  127.9799   69.5918   -4.3504 C   0  0  2  0  0  0  0  0  0  0  0  0
  126.9168   70.5713   -4.7573 C   0  0  0  0  0  0  0  0  0  0  0  0
  126.6095   71.5171   -4.0330 O   0  0  0  0  0  0  0  0  0  0  0  0
  127.3546   68.4740   -3.5201 C   0  0  0  0  0  0  0  0  0  0  0  0
  128.3077   67.3130   -3.2535 C   0  0  0  0  0  0  0  0  0  0  0  0
  127.5233   66.1135   -2.2272 S   0  0  0  0  0  0  0  0  0  0  0  0
  128.6571   64.7638   -2.2911 C   0  0  0  0  0  0  0  0  0  0  0  0
  129.7323   64.8786   -1.2119 C   0  0  1  0  0  0  0  0  0  0  0  0
  129.7533   63.7081   -0.3922 O   0  0  0  0  0  0  0  0  0  0  0  0
  131.1064   65.0101   -1.8485 C   0  0  1  0  0  0  0  0  0  0  0  0
  131.8115   66.1089   -1.2630 O   0  0  0  0  0  0  0  0  0  0  0  0
  131.8175   63.6949   -1.5839 C   0  0  1  0  0  0  0  0  0  0  0  0
  133.0812   63.9031   -0.9435 O   0  0  0  0  0  0  0  0  0  0  0  0
  130.8981   62.8929   -0.6702 C   0  0  2  0  0  0  0  0  0  0  0  0
  126.3191   70.4440   -5.8248 O   0  0  0  0  0  0  0  0  0  0  0  0
  131.9410   57.7791   -1.5222 N   0  0  0  0  0  0  0  0  0  0  0  0
  132.6415   58.6954   -0.8239 C   0  0  0  0  0  0  0  0  0  0  0  0
  132.2523   59.9798   -0.6876 N   0  0  0  0  0  0  0  0  0  0  0  0
  131.1067   60.4373   -1.2612 C   0  0  0  0  0  0  0  0  0  0  0  0
  130.2883   59.4918   -2.0405 C   0  0  0  0  0  0  0  0  0  0  0  0
  130.7798   58.0945   -2.1444 C   0  0  0  0  0  0  0  0  0  0  0  0
  130.0864   57.1658   -2.8451 N   0  0  0  0  0  0  0  0  0  0  0  0
  129.2251   60.1786   -2.4923 N   0  0  0  0  0  0  0  0  0  0  0  0
  129.3497   61.4533   -2.0463 C   0  0  0  0  0  0  0  0  0  0  0  0
  130.4689   61.6156   -1.3128 N   0  0  0  0  0  0  0  0  0  0  0  0
  2  1  1  1  0  0  0
  2  3  1  0  0  0  0
  2  5  1  0  0  0  0
  3  4  1  0  0  0  0
  3 16  1  0  0  0  0
  5  6  1  0  0  0  0
  6  7  1  0  0  0  0
  7  8  1  0  0  0  0
  9  8  1  6  0  0  0
  9 10  1  0  0  0  0
  9 11  1  0  0  0  0
 10 15  1  0  0  0  0
 11 12  1  1  0  0  0
 11 13  1  0  0  0  0
 13 14  1  1  0  0  0
 13 15  1  0  0  0  0
 15 26  1  6  0  0  0
 17 18  2  0  0  0  0
 17 22  1  0  0  0  0
 18 19  1  0  0  0  0
 19 20  2  0  0  0  0
 20 21  1  0  0  0  0
 20 26  1  0  0  0  0
 21 22  2  0  0  0  0
 21 24  1  0  0  0  0
 22 23  1  0  0  0  0
 24 25  2  0  0  0  0
 25 26  1  0  0  0  0
M  END
>  <CHROM.1>
-34.15208581,-67.47062888,177.30139442,170.14629793,87.98771324,123.89393553
-152.62074356,129.67366198,64.25617250,-2.27747919,-1.97735695,0.55164608
3.12546788

>  <Name>
ligand

>  <RI>
0

>  <Rbt.Current_Directory>
/home/itssahil/PROJECTS/Mol_Feturizer/Test_systems_manuscript/rnas/3npn

>  <Rbt.Executable>
rbdock ($Id: //depot/dev/client3/rdock/2013.1/src/exe/rbdock.cxx#4 $)

>  <Rbt.Library>
libRbt.so (2013.1, Build901 2013/11/27)

>  <Rbt.Parameter_File>
/export/apps/rDock/src/rDock_2013.1_src/data/scripts/dock_solv.prm

>  <Rbt.Receptor>
prm/pocket_docking_5.prm

>  <SCORE>
-26.0232

>  <SCORE.INTER>
-27.0288

>  <SCORE.INTER.CONST>
1

>  <SCORE.INTER.POLAR>
0

>  <SCORE.INTER.ROT>
7

>  <SCORE.INTER.SOLV>
17.5803

>  <SCORE.INTER.VDW>
-32.146

>  <SCORE.INTER.norm>
-1.03957

>  <SCORE.INTRA>
1.0056

>  <SCORE.INTRA.DIHEDRAL>
4.97305

>  <SCORE.INTRA.DIHEDRAL.0>
4.37896

>  <SCORE.INTRA.POLAR>
0

>  <SCORE.INTRA.POLAR.0>
0

>  <SCORE.INTRA.REPUL>
0

>  <SCORE.INTRA.REPUL.0>
0

>  <SCORE.INTRA.SOLV>
-0.312836

>  <SCORE.INTRA.SOLV.lig_0>
-50.5538

>  <SCORE.INTRA.VDW>
-1.32451

>  <SCORE.INTRA.VDW.0>
-1.30673

>  <SCORE.INTRA.norm>
0.0386768

>  <SCORE.RESTR>
0

>  <SCORE.RESTR.CAVITY>
0

>  <SCORE.RESTR.norm>
0

>  <SCORE.SYSTEM>
0

>  <SCORE.SYSTEM.CONST>
0

>  <SCORE.SYSTEM.DIHEDRAL>
0

>  <SCORE.SYSTEM.SOLV>
0

>  <SCORE.SYSTEM.norm>
0

>  <SCORE.heavy>
26

>  <SCORE.norm>
-1.00089

>  <RMSD>
1.365

$$$$
ligand
 OpenBabel02271912153D
libRbt.so/2013.1/901 2013/11/27
 26 28  0  0  0  0  0  0  0  0999 V2000
  127.6873   70.1138   -4.9677 N   0  0  0  0  0  0  0  0  0  0  0  0
  126.6269   69.4547   -4.1489 C   0  0  2  0  0  0  0  0  0  0  0  0
  126.5485   70.0766   -2.7842 C   0  0  0  0  0  0  0  0  0  0  0  0
  127.4773   70.7457   -2.3334 O   0  0  0  0  0  0  0  0  0  0  0  0
  126.9145   67.9617   -4.0147 C   0  0  0  0  0  0  0  0  0  0  0  0
  128.3635   67.6555   -3.6489 C   0  0  0  0  0  0  0  0  0  0  0  0
  128.5677   67.7118   -1.8990 S   0  0  0  0  0  0  0  0  0  0  0  0
  128.8238   66.0141   -1.4947 C   0  0  0  0  0  0  0  0  0  0  0  0
  130.1094   65.8125   -0.6946 C   0  0  1  0  0  0  0  0  0  0  0  0
  130.0989   64.5468   -0.0309 O   0  0  0  0  0  0  0  0  0  0  0  0
  131.3147   65.8279   -1.6208 C   0  0  1  0  0  0  0  0  0  0  0  0
  132.3130   66.7146   -1.1066 O   0  0  0  0  0  0  0  0  0  0  0  0
  131.8214   64.3974   -1.6717 C   0  0  1  0  0  0  0  0  0  0  0  0
  133.2099   64.3219   -1.3302 O   0  0  0  0  0  0  0  0  0  0  0  0
  130.9936   63.6187   -0.6560 C   0  0  2  0  0  0  0  0  0  0  0  0
  125.5529   69.9221   -2.0785 O   0  0  0  0  0  0  0  0  0  0  0  0
  130.8216   58.5272   -2.0741 N   0  0  0  0  0  0  0  0  0  0  0  0
  131.7962   59.2119   -1.4422 C   0  0  0  0  0  0  0  0  0  0  0  0
  131.7041   60.5233   -1.1397 N   0  0  0  0  0  0  0  0  0  0  0  0
  130.5999   61.2490   -1.4635 C   0  0  0  0  0  0  0  0  0  0  0  0
  129.4926   60.5669   -2.1562 C   0  0  0  0  0  0  0  0  0  0  0  0
  129.6656   59.1225   -2.4539 C   0  0  0  0  0  0  0  0  0  0  0  0
  128.6950   58.4246   -3.0904 N   0  0  0  0  0  0  0  0  0  0  0  0
  128.5342   61.4873   -2.3574 N   0  0  0  0  0  0  0  0  0  0  0  0
  128.9856   62.6582   -1.8430 C   0  0  0  0  0  0  0  0  0  0  0  0
  130.2163   62.5245   -1.3094 N   0  0  0  0  0  0  0  0  0  0  0  0
  2  1  1  6  0  0  0
  2  3  1  0  0  0  0
  2  5  1  0  0  0  0
  3  4  1  0  0  0  0
  3 16  1  0  0  0  0
  5  6  1  0  0  0  0
  6  7  1  0  0  0  0
  7  8  1  0  0  0  0
  9  8  1  6  0  0  0
  9 10  1  0  0  0  0
  9 11  1  0  0  0  0
 10 15  1  0  0  0  0
 11 12  1  1  0  0  0
 11 13  1  0  0  0  0
 13 14  1  1  0  0  0
 13 15  1  0  0  0  0
 15 26  1  6  0  0  0
 17 18  2  0  0  0  0
 17 22  1  0  0  0  0
 18 19  1  0  0  0  0
 19 20  2  0  0  0  0
 20 21  1  0  0  0  0
 20 26  1  0  0  0  0
 21 22  2  0  0  0  0
 21 24  1  0  0  0  0
 22 23  1  0  0  0  0
 24 25  2  0  0  0  0
 25 26  1  0  0  0  0
M  END
>  <CHROM.1>
-18.59317997,46.60866806,86.16932595,109.94115875,126.05251159,162.09227299
-148.35585644,129.44926577,64.86735892,-2.04872069,1.94778175,-0.45935000
0.04569180

>  <Name>
ligand

>  <RI>
0

>  <Rbt.Current_Directory>
/home/itssahil/PROJECTS/Mol_Feturizer/Test_systems_manuscript/rnas/3npn

>  <Rbt.Executable>
rbdock ($Id: //depot/dev/client3/rdock/2013.1/src/exe/rbdock.cxx#4 $)

>  <Rbt.Library>
libRbt.so (2013.1, Build901 2013/11/27)

>  <Rbt.Parameter_File>
/export/apps/rDock/src/rDock_2013.1_src/data/scripts/dock_solv.prm

>  <Rbt.Receptor>
prm/pocket_docking_2.prm

>  <SCORE>
-22.6503

>  <SCORE.INTER>
-24.8567

>  <SCORE.INTER.CONST>
1

>  <SCORE.INTER.POLAR>
0

>  <SCORE.INTER.ROT>
7

>  <SCORE.INTER.SOLV>
25.1855

>  <SCORE.INTER.VDW>
-33.233

>  <SCORE.INTER.norm>
-0.956027

>  <SCORE.INTRA>
2.2054

>  <SCORE.INTRA.DIHEDRAL>
6.83575

>  <SCORE.INTRA.DIHEDRAL.0>
4.37896

>  <SCORE.INTRA.POLAR>
0

>  <SCORE.INTRA.POLAR.0>
0

>  <SCORE.INTRA.REPUL>
0

>  <SCORE.INTRA.REPUL.0>
0

>  <SCORE.INTRA.SOLV>
0.507579

>  <SCORE.INTRA.SOLV.lig_0>
-50.5538

>  <SCORE.INTRA.VDW>
-1.46627

>  <SCORE.INTRA.VDW.0>
-1.30673

>  <SCORE.INTRA.norm>
0.084823

>  <SCORE.RESTR>
0.00103636

>  <SCORE.RESTR.CAVITY>
0.00103636

>  <SCORE.RESTR.norm>
3.986e-05

>  <SCORE.SYSTEM>
0

>  <SCORE.SYSTEM.CONST>
0

>  <SCORE.SYSTEM.DIHEDRAL>
0

>  <SCORE.SYSTEM.SOLV>
0

>  <SCORE.SYSTEM.norm>
0

>  <SCORE.heavy>
26

>  <SCORE.norm>
-0.871164

>  <RMSD>
1.371

$$$$
ligand
 OpenBabel02271912153D
libRbt.so/2013.1/901 2013/11/27
 26 28  0  0  0  0  0  0  0  0999 V2000
  128.3913   70.2648   -3.9594 N   0  0  0  0  0  0  0  0  0  0  0  0
  126.9494   69.9209   -3.7805 C   0  0  2  0  0  0  0  0  0  0  0  0
  126.2180   71.0422   -3.1001 C   0  0  0  0  0  0  0  0  0  0  0  0
  125.9815   71.0104   -1.8931 O   0  0  0  0  0  0  0  0  0  0  0  0
  126.8092   68.6441   -2.9559 C   0  0  0  0  0  0  0  0  0  0  0  0
  127.7193   67.5151   -3.4297 C   0  0  0  0  0  0  0  0  0  0  0  0
  127.6016   66.1442   -2.3280 S   0  0  0  0  0  0  0  0  0  0  0  0
  129.0883   65.2583   -2.6688 C   0  0  0  0  0  0  0  0  0  0  0  0
  129.9799   65.1558   -1.4325 C   0  0  1  0  0  0  0  0  0  0  0  0
  129.5922   64.0460   -0.6198 O   0  0  0  0  0  0  0  0  0  0  0  0
  131.4265   64.9328   -1.8428 C   0  0  1  0  0  0  0  0  0  0  0  0
  132.2762   65.8544   -1.1529 O   0  0  0  0  0  0  0  0  0  0  0  0
  131.7510   63.4975   -1.4685 C   0  0  1  0  0  0  0  0  0  0  0  0
  132.9134   63.4241   -0.6356 O   0  0  0  0  0  0  0  0  0  0  0  0
  130.5362   62.9723   -0.7124 C   0  0  2  0  0  0  0  0  0  0  0  0
  125.8280   72.0183   -3.7390 O   0  0  0  0  0  0  0  0  0  0  0  0
  130.8875   57.8531   -1.9911 N   0  0  0  0  0  0  0  0  0  0  0  0
  131.7340   58.6214   -1.2763 C   0  0  0  0  0  0  0  0  0  0  0  0
  131.5153   59.9285   -1.0243 N   0  0  0  0  0  0  0  0  0  0  0  0
  130.4053   60.5633   -1.4885 C   0  0  0  0  0  0  0  0  0  0  0  0
  129.4338   59.7864   -2.2784 C   0  0  0  0  0  0  0  0  0  0  0  0
  129.7416   58.3528   -2.5128 C   0  0  0  0  0  0  0  0  0  0  0  0
  128.9004   57.5715   -3.2313 N   0  0  0  0  0  0  0  0  0  0  0  0
  128.4406   60.6287   -2.6104 N   0  0  0  0  0  0  0  0  0  0  0  0
  128.7470   61.8405   -2.0841 C   0  0  0  0  0  0  0  0  0  0  0  0
  129.9168   61.8097   -1.4149 N   0  0  0  0  0  0  0  0  0  0  0  0
  2  1  1  1  0  0  0
  2  3  1  0  0  0  0
  2  5  1  0  0  0  0
  3  4  1  0  0  0  0
  3 16  1  0  0  0  0
  5  6  1  0  0  0  0
  6  7  1  0  0  0  0
  7  8  1  0  0  0  0
  9  8  1  6  0  0  0
  9 10  1  0  0  0  0
  9 11  1  0  0  0  0
 10 15  1  0  0  0  0
 11 12  1  1  0  0  0
 11 13  1  0  0  0  0
 13 14  1  1  0  0  0
 13 15  1  0  0  0  0
 15 26  1  6  0  0  0
 17 18  2  0  0  0  0
 17 22  1  0  0  0  0
 18 19  1  0  0  0  0
 19 20  2  0  0  0  0
 20 21  1  0  0  0  0
 20 26  1  0  0  0  0
 21 22  2  0  0  0  0
 21 24  1  0  0  0  0
 22 23  1  0  0  0  0
 24 25  2  0  0  0  0
 25 26  1  0  0  0  0
M  END
>  <CHROM.1>
-99.07691613,-47.66638379,174.55767776,-159.77183575,118.99958145,84.76958753
-167.90889589,129.24184072,64.42054314,-2.13911380,-1.93655358,0.41687468
-3.11052156

>  <Name>
ligand

>  <RI>
0

>  <Rbt.Current_Directory>
/home/itssahil/PROJECTS/Mol_Feturizer/Test_systems_manuscript/rnas/3npn

>  <Rbt.Executable>
rbdock ($Id: //depot/dev/client3/rdock/2013.1/src/exe/rbdock.cxx#4 $)

>  <Rbt.Library>
libRbt.so (2013.1, Build901 2013/11/27)

>  <Rbt.Parameter_File>
/export/apps/rDock/src/rDock_2013.1_src/data/scripts/dock_solv.prm

>  <Rbt.Receptor>
prm/pocket_docking_5.prm

>  <SCORE>
-27.4526

>  <SCORE.INTER>
-29.2154

>  <SCORE.INTER.CONST>
1

>  <SCORE.INTER.POLAR>
0

>  <SCORE.INTER.ROT>
7

>  <SCORE.INTER.SOLV>
23.2675

>  <SCORE.INTER.VDW>
-35.4995

>  <SCORE.INTER.norm>
-1.12367

>  <SCORE.INTRA>
1.76281

>  <SCORE.INTRA.DIHEDRAL>
3.93606

>  <SCORE.INTRA.DIHEDRAL.0>
4.37896

>  <SCORE.INTRA.POLAR>
0

>  <SCORE.INTRA.POLAR.0>
0

>  <SCORE.INTRA.REPUL>
0

>  <SCORE.INTRA.REPUL.0>
0

>  <SCORE.INTRA.SOLV>
-0.128901

>  <SCORE.INTRA.SOLV.lig_0>
-50.5538

>  <SCORE.INTRA.VDW>
-0.140773

>  <SCORE.INTRA.VDW.0>
-1.30673

>  <SCORE.INTRA.norm>
0.0678002

>  <SCORE.RESTR>
0

>  <SCORE.RESTR.CAVITY>
0

>  <SCORE.RESTR.norm>
0

>  <SCORE.SYSTEM>
0

>  <SCORE.SYSTEM.CONST>
0

>  <SCORE.SYSTEM.DIHEDRAL>
0

>  <SCORE.SYSTEM.SOLV>
0

>  <SCORE.SYSTEM.norm>
0

>  <SCORE.heavy>
26

>  <SCORE.norm>
-1.05587

>  <RMSD>
1.372

$$$$
ligand
 OpenBabel02271912153D
libRbt.so/2013.1/901 2013/11/27
 26 28  0  0  0  0  0  0  0  0999 V2000
  125.6646   71.0055   -2.4055 N   0  0  0  0  0  0  0  0  0  0  0  0
  126.7905   70.0849   -2.7434 C   0  0  2  0  0  0  0  0  0  0  0  0
  128.0248   70.8647   -3.0950 C   0  0  0  0  0  0  0  0  0  0  0  0
  127.9845   71.7954   -3.8987 O   0  0  0  0  0  0  0  0  0  0  0  0
  126.4037   69.1847   -3.9138 C   0  0  0  0  0  0  0  0  0  0  0  0
  127.3924   68.0482   -4.1551 C   0  0  0  0  0  0  0  0  0  0  0  0
  127.2903   66.8729   -2.8453 S   0  0  0  0  0  0  0  0  0  0  0  0
  128.8190   66.0061   -2.9969 C   0  0  0  0  0  0  0  0  0  0  0  0
  129.6315   66.0650   -1.7047 C   0  0  1  0  0  0  0  0  0  0  0  0
  129.2329   65.0255   -0.8086 O   0  0  0  0  0  0  0  0  0  0  0  0
  131.1090   65.8650   -2.0013 C   0  0  1  0  0  0  0  0  0  0  0  0
  131.8776   66.8861   -1.3581 O   0  0  0  0  0  0  0  0  0  0  0  0
  131.4609   64.4891   -1.4640 C   0  0  1  0  0  0  0  0  0  0  0  0
  132.5687   64.5487   -0.5587 O   0  0  0  0  0  0  0  0  0  0  0  0
  130.2198   63.9895   -0.7339 C   0  0  2  0  0  0  0  0  0  0  0  0
  129.1117   70.5829   -2.5925 O   0  0  0  0  0  0  0  0  0  0  0  0
  131.0127   58.8628   -1.7593 N   0  0  0  0  0  0  0  0  0  0  0  0
  131.8059   59.7447   -1.1183 C   0  0  0  0  0  0  0  0  0  0  0  0
  131.4726   61.0376   -0.9258 N   0  0  0  0  0  0  0  0  0  0  0  0
  130.2923   61.5398   -1.3790 C   0  0  0  0  0  0  0  0  0  0  0  0
  129.3731   60.6336   -2.0898 C   0  0  0  0  0  0  0  0  0  0  0  0
  129.8077   59.2242   -2.2616 C   0  0  0  0  0  0  0  0  0  0  0  0
  129.0210   58.3297   -2.9059 N   0  0  0  0  0  0  0  0  0  0  0  0
  128.2938   61.3603   -2.4264 N   0  0  0  0  0  0  0  0  0  0  0  0
  128.5013   62.6224   -1.9754 C   0  0  0  0  0  0  0  0  0  0  0  0
  129.6904   62.7376   -1.3511 N   0  0  0  0  0  0  0  0  0  0  0  0
  2  1  1  6  0  0  0
  2  3  1  0  0  0  0
  2  5  1  0  0  0  0
  3  4  1  0  0  0  0
  3 16  1  0  0  0  0
  5  6  1  0  0  0  0
  6  7  1  0  0  0  0
  7  8  1  0  0  0  0
  9  8  1  6  0  0  0
  9 10  1  0  0  0  0
  9 11  1  0  0  0  0
 10 15  1  0  0  0  0
 11 12  1  1  0  0  0
 11 13  1  0  0  0  0
 13 14  1  1  0  0  0
 13 15  1  0  0  0  0
 15 26  1  6  0  0  0
 17 18  2  0  0  0  0
 17 22  1  0  0  0  0
 18 19  1  0  0  0  0
 19 20  2  0  0  0  0
 20 21  1  0  0  0  0
 20 26  1  0  0  0  0
 21 22  2  0  0  0  0
 21 24  1  0  0  0  0
 22 23  1  0  0  0  0
 24 25  2  0  0  0  0
 25 26  1  0  0  0  0
M  END
>  <CHROM.1>
-48.87222914,-169.39484469,69.85143204,-161.05517790,122.90032735,85.45486202
-174.92257559,129.24724496,65.13451046,-2.17017315,1.88332665,-0.41832992
-0.01565701

>  <Name>
ligand

>  <RI>
0

>  <Rbt.Current_Directory>
/home/itssahil/PROJECTS/Mol_Feturizer/Test_systems_manuscript/rnas/3npn

>  <Rbt.Executable>
rbdock ($Id: //depot/dev/client3/rdock/2013.1/src/exe/rbdock.cxx#4 $)

>  <Rbt.Library>
libRbt.so (2013.1, Build901 2013/11/27)

>  <Rbt.Parameter_File>
/export/apps/rDock/src/rDock_2013.1_src/data/scripts/dock_solv.prm

>  <Rbt.Receptor>
prm/pocket_docking_3.prm

>  <SCORE>
-28.0215

>  <SCORE.INTER>
-28.2165

>  <SCORE.INTER.CONST>
1

>  <SCORE.INTER.POLAR>
0

>  <SCORE.INTER.ROT>
7

>  <SCORE.INTER.SOLV>
29.2175

>  <SCORE.INTER.VDW>
-36.8168

>  <SCORE.INTER.norm>
-1.08525

>  <SCORE.INTRA>
0.194968

>  <SCORE.INTRA.DIHEDRAL>
4.01104

>  <SCORE.INTRA.DIHEDRAL.0>
4.37896

>  <SCORE.INTRA.POLAR>
0

>  <SCORE.INTRA.POLAR.0>
0

>  <SCORE.INTRA.REPUL>
0

>  <SCORE.INTRA.REPUL.0>
0

>  <SCORE.INTRA.SOLV>
-0.773469

>  <SCORE.INTRA.SOLV.lig_0>
-50.5538

>  <SCORE.INTRA.VDW>
-1.42382

>  <SCORE.INTRA.VDW.0>
-1.30673

>  <SCORE.INTRA.norm>
0.00749877

>  <SCORE.RESTR>
0

>  <SCORE.RESTR.CAVITY>
0

>  <SCORE.RESTR.norm>
0

>  <SCORE.SYSTEM>
0

>  <SCORE.SYSTEM.CONST>
0

>  <SCORE.SYSTEM.DIHEDRAL>
0

>  <SCORE.SYSTEM.SOLV>
0

>  <SCORE.SYSTEM.norm>
0

>  <SCORE.heavy>
26

>  <SCORE.norm>
-1.07775

>  <RMSD>
1.381

$$$$
ligand
 OpenBabel02271912153D
libRbt.so/2013.1/901 2013/11/27
 26 28  0  0  0  0  0  0  0  0999 V2000
  125.9232   70.1258   -2.2985 N   0  0  0  0  0  0  0  0  0  0  0  0
  127.2637   70.6345   -2.7151 C   0  0  2  0  0  0  0  0  0  0  0  0
  127.2189   71.1530   -4.1238 C   0  0  0  0  0  0  0  0  0  0  0  0
  126.4348   70.6884   -4.9503 O   0  0  0  0  0  0  0  0  0  0  0  0
  128.3056   69.5240   -2.6118 C   0  0  0  0  0  0  0  0  0  0  0  0
  127.9636   68.2942   -3.4473 C   0  0  0  0  0  0  0  0  0  0  0  0
  126.8180   67.2750   -2.5776 S   0  0  0  0  0  0  0  0  0  0  0  0
  127.7387   65.7889   -2.3428 C   0  0  0  0  0  0  0  0  0  0  0  0
  129.0468   66.0476   -1.5974 C   0  0  1  0  0  0  0  0  0  0  0  0
  129.3335   64.9788   -0.6930 O   0  0  0  0  0  0  0  0  0  0  0  0
  130.2047   66.1330   -2.5787 C   0  0  1  0  0  0  0  0  0  0  0  0
  130.9815   67.3053   -2.3147 O   0  0  0  0  0  0  0  0  0  0  0  0
  131.0231   64.8710   -2.3708 C   0  0  1  0  0  0  0  0  0  0  0  0
  132.3967   65.1762   -2.1055 O   0  0  0  0  0  0  0  0  0  0  0  0
  130.4078   64.1603   -1.1711 C   0  0  2  0  0  0  0  0  0  0  0  0
  127.9758   72.0517   -4.4880 O   0  0  0  0  0  0  0  0  0  0  0  0
  131.3888   58.9772   -1.5426 N   0  0  0  0  0  0  0  0  0  0  0  0
  132.1910   59.9769   -1.1245 C   0  0  0  0  0  0  0  0  0  0  0  0
  131.8044   61.2686   -1.0810 N   0  0  0  0  0  0  0  0  0  0  0  0
  130.5563   61.6477   -1.4673 C   0  0  0  0  0  0  0  0  0  0  0  0
  129.6232   60.6084   -1.9366 C   0  0  0  0  0  0  0  0  0  0  0  0
  130.1193   59.2090   -1.9545 C   0  0  0  0  0  0  0  0  0  0  0  0
  129.3238   58.1966   -2.3747 N   0  0  0  0  0  0  0  0  0  0  0  0
  128.4743   61.2308   -2.2510 N   0  0  0  0  0  0  0  0  0  0  0  0
  128.6531   62.5532   -2.0089 C   0  0  0  0  0  0  0  0  0  0  0  0
  129.8915   62.8097   -1.5426 N   0  0  0  0  0  0  0  0  0  0  0  0
  2  1  1  6  0  0  0
  2  3  1  0  0  0  0
  2  5  1  0  0  0  0
  3  4  1  0  0  0  0
  3 16  1  0  0  0  0
  5  6  1  0  0  0  0
  6  7  1  0  0  0  0
  7  8  1  0  0  0  0
  9  8  1  6  0  0  0
  9 10  1  0  0  0  0
  9 11  1  0  0  0  0
 10 15  1  0  0  0  0
 11 12  1  1  0  0  0
 11 13  1  0  0  0  0
 13 14  1  1  0  0  0
 13 15  1  0  0  0  0
 15 26  1  6  0  0  0
 17 18  2  0  0  0  0
 17 22  1  0  0  0  0
 18 19  1  0  0  0  0
 19 20  2  0  0  0  0
 20 21  1  0  0  0  0
 20 26  1  0  0  0  0
 21 22  2  0  0  0  0
 21 24  1  0  0  0  0
 22 23  1  0  0  0  0
 24 25  2  0  0  0  0
 25 26  1  0  0  0  0
M  END
>  <CHROM.1>
-29.50043001,57.69499570,-81.67037556,-116.96051474,57.14317454,142.36787266
-148.80808569,129.13875164,65.27714620,-2.33388043,1.89083555,-0.18114621
-0.12391451

>  <Name>
ligand

>  <RI>
0

>  <Rbt.Current_Directory>
/home/itssahil/PROJECTS/Mol_Feturizer/Test_systems_manuscript/rnas/3npn

>  <Rbt.Executable>
rbdock ($Id: //depot/dev/client3/rdock/2013.1/src/exe/rbdock.cxx#4 $)

>  <Rbt.Library>
libRbt.so (2013.1, Build901 2013/11/27)

>  <Rbt.Parameter_File>
/export/apps/rDock/src/rDock_2013.1_src/data/scripts/dock_solv.prm

>  <Rbt.Receptor>
prm/pocket_docking_3.prm

>  <SCORE>
-25.8323

>  <SCORE.INTER>
-28.3666

>  <SCORE.INTER.CONST>
1

>  <SCORE.INTER.POLAR>
0

>  <SCORE.INTER.ROT>
7

>  <SCORE.INTER.SOLV>
24.7789

>  <SCORE.INTER.VDW>
-35.4373

>  <SCORE.INTER.norm>
-1.09102

>  <SCORE.INTRA>
2.53426

>  <SCORE.INTRA.DIHEDRAL>
5.94106

>  <SCORE.INTRA.DIHEDRAL.0>
4.37896

>  <SCORE.INTRA.POLAR>
0

>  <SCORE.INTRA.POLAR.0>
0

>  <SCORE.INTRA.REPUL>
0

>  <SCORE.INTRA.REPUL.0>
0

>  <SCORE.INTRA.SOLV>
1.38495

>  <SCORE.INTRA.SOLV.lig_0>
-50.5538

>  <SCORE.INTRA.VDW>
-1.12874

>  <SCORE.INTRA.VDW.0>
-1.30673

>  <SCORE.INTRA.norm>
0.0974715

>  <SCORE.RESTR>
0

>  <SCORE.RESTR.CAVITY>
0

>  <SCORE.RESTR.norm>
0

>  <SCORE.SYSTEM>
0

>  <SCORE.SYSTEM.CONST>
0

>  <SCORE.SYSTEM.DIHEDRAL>
0

>  <SCORE.SYSTEM.SOLV>
0

>  <SCORE.SYSTEM.norm>
0

>  <SCORE.heavy>
26

>  <SCORE.norm>
-0.99355

>  <RMSD>
1.383

$$$$
ligand
 OpenBabel02271912153D
libRbt.so/2013.1/901 2013/11/27
 26 28  0  0  0  0  0  0  0  0999 V2000
  125.8092   70.9962   -2.5124 N   0  0  0  0  0  0  0  0  0  0  0  0
  126.7393   69.8905   -2.8889 C   0  0  2  0  0  0  0  0  0  0  0  0
  127.1886   70.0387   -4.3141 C   0  0  0  0  0  0  0  0  0  0  0  0
  128.3823   70.0249   -4.6117 O   0  0  0  0  0  0  0  0  0  0  0  0
  126.0542   68.5388   -2.7066 C   0  0  0  0  0  0  0  0  0  0  0  0
  126.9963   67.3533   -2.8926 C   0  0  0  0  0  0  0  0  0  0  0  0
  128.2727   67.4022   -1.6778 S   0  0  0  0  0  0  0  0  0  0  0  0
  128.7430   65.7065   -1.5571 C   0  0  0  0  0  0  0  0  0  0  0  0
  130.0470   65.5366   -0.7796 C   0  0  1  0  0  0  0  0  0  0  0  0
  130.0792   64.2712   -0.1161 O   0  0  0  0  0  0  0  0  0  0  0  0
  131.2352   65.5814   -1.7266 C   0  0  1  0  0  0  0  0  0  0  0  0
  132.2202   66.4925   -1.2297 O   0  0  0  0  0  0  0  0  0  0  0  0
  131.7759   64.1638   -1.7867 C   0  0  1  0  0  0  0  0  0  0  0  0
  133.1716   64.1224   -1.4695 O   0  0  0  0  0  0  0  0  0  0  0  0
  130.9854   63.3652   -0.7568 C   0  0  2  0  0  0  0  0  0  0  0  0
  126.3698   70.1881   -5.2198 O   0  0  0  0  0  0  0  0  0  0  0  0
  130.8608   58.2414   -2.0588 N   0  0  0  0  0  0  0  0  0  0  0  0
  131.8218   58.9457   -1.4277 C   0  0  0  0  0  0  0  0  0  0  0  0
  131.7185   60.2632   -1.1572 N   0  0  0  0  0  0  0  0  0  0  0  0
  130.6161   60.9754   -1.5152 C   0  0  0  0  0  0  0  0  0  0  0  0
  129.5233   60.2717   -2.2092 C   0  0  0  0  0  0  0  0  0  0  0  0
  129.7081   58.8216   -2.4706 C   0  0  0  0  0  0  0  0  0  0  0  0
  128.7511   58.1041   -3.1058 N   0  0  0  0  0  0  0  0  0  0  0  0
  128.5637   61.1821   -2.4468 N   0  0  0  0  0  0  0  0  0  0  0  0
  129.0012   62.3669   -1.9527 C   0  0  0  0  0  0  0  0  0  0  0  0
  130.2238   62.2521   -1.3968 N   0  0  0  0  0  0  0  0  0  0  0  0
  2  1  1  6  0  0  0
  2  3  1  0  0  0  0
  2  5  1  0  0  0  0
  3  4  1  0  0  0  0
  3 16  1  0  0  0  0
  5  6  1  0  0  0  0
  6  7  1  0  0  0  0
  7  8  1  0  0  0  0
  9  8  1  6  0  0  0
  9 10  1  0  0  0  0
  9 11  1  0  0  0  0
 10 15  1  0  0  0  0
 11 12  1  1  0  0  0
 11 13  1  0  0  0  0
 13 14  1  1  0  0  0
 13 15  1  0  0  0  0
 15 26  1  6  0  0  0
 17 18  2  0  0  0  0
 17 22  1  0  0  0  0
 18 19  1  0  0  0  0
 19 20  2  0  0  0  0
 20 21  1  0  0  0  0
 20 26  1  0  0  0  0
 21 22  2  0  0  0  0
 21 24  1  0  0  0  0
 22 23  1  0  0  0  0
 24 25  2  0  0  0  0
 25 26  1  0  0  0  0
M  END
>  <CHROM.1>
127.83906647,-172.33712562,62.18424921,154.74245620,167.65274069,150.73829996
-145.78014757,129.36194456,64.70284284,-2.14277341,1.95815726,-0.44583858
0.01665452

>  <Name>
ligand

>  <RI>
0

>  <Rbt.Current_Directory>
/home/itssahil/PROJECTS/Mol_Feturizer/Test_systems_manuscript/rnas/3npn

>  <Rbt.Executable>
rbdock ($Id: //depot/dev/client3/rdock/2013.1/src/exe/rbdock.cxx#4 $)

>  <Rbt.Library>
libRbt.so (2013.1, Build901 2013/11/27)

>  <Rbt.Parameter_File>
/export/apps/rDock/src/rDock_2013.1_src/data/scripts/dock_solv.prm

>  <Rbt.Receptor>
prm/pocket_docking_3.prm

>  <SCORE>
-27.3318

>  <SCORE.INTER>
-26.9348

>  <SCORE.INTER.CONST>
1

>  <SCORE.INTER.POLAR>
0

>  <SCORE.INTER.ROT>
7

>  <SCORE.INTER.SOLV>
30.3547

>  <SCORE.INTER.VDW>
-36.3414

>  <SCORE.INTER.norm>
-1.03595

>  <SCORE.INTRA>
-0.39698

>  <SCORE.INTRA.DIHEDRAL>
2.21638

>  <SCORE.INTRA.DIHEDRAL.0>
4.37896

>  <SCORE.INTRA.POLAR>
0

>  <SCORE.INTRA.POLAR.0>
0

>  <SCORE.INTRA.REPUL>
0

>  <SCORE.INTRA.REPUL.0>
0

>  <SCORE.INTRA.SOLV>
-0.72733

>  <SCORE.INTRA.SOLV.lig_0>
-50.5538

>  <SCORE.INTRA.VDW>
-1.1415

>  <SCORE.INTRA.VDW.0>
-1.30673

>  <SCORE.INTRA.norm>
-0.0152684

>  <SCORE.RESTR>
0

>  <SCORE.RESTR.CAVITY>
0

>  <SCORE.RESTR.norm>
0

>  <SCORE.SYSTEM>
0

>  <SCORE.SYSTEM.CONST>
0

>  <SCORE.SYSTEM.DIHEDRAL>
0

>  <SCORE.SYSTEM.SOLV>
0

>  <SCORE.SYSTEM.norm>
0

>  <SCORE.heavy>
26

>  <SCORE.norm>
-1.05122

>  <RMSD>
1.389

$$$$
ligand
 OpenBabel02271912153D
libRbt.so/2013.1/901 2013/11/27
 26 28  0  0  0  0  0  0  0  0999 V2000
  130.2819   70.1319   -3.6180 N   0  0  0  0  0  0  0  0  0  0  0  0
  128.8788   70.1466   -4.1281 C   0  0  2  0  0  0  0  0  0  0  0  0
  128.3252   71.5425   -4.1152 C   0  0  0  0  0  0  0  0  0  0  0  0
  127.1664   71.7664   -3.7680 O   0  0  0  0  0  0  0  0  0  0  0  0
  127.9969   69.2388   -3.2749 C   0  0  0  0  0  0  0  0  0  0  0  0
  128.4672   67.7877   -3.2508 C   0  0  0  0  0  0  0  0  0  0  0  0
  127.3378   66.8040   -2.3212 S   0  0  0  0  0  0  0  0  0  0  0  0
  128.1785   65.2565   -2.2230 C   0  0  0  0  0  0  0  0  0  0  0  0
  129.4037   65.3368   -1.3141 C   0  0  1  0  0  0  0  0  0  0  0  0
  129.5127   64.1625   -0.5070 O   0  0  0  0  0  0  0  0  0  0  0  0
  130.6721   65.4332   -2.1464 C   0  0  1  0  0  0  0  0  0  0  0  0
  131.4862   66.5095   -1.6709 O   0  0  0  0  0  0  0  0  0  0  0  0
  131.3775   64.0977   -1.9900 C   0  0  1  0  0  0  0  0  0  0  0  0
  132.7271   64.2682   -1.5430 O   0  0  0  0  0  0  0  0  0  0  0  0
  130.5808   63.3173   -0.9511 C   0  0  2  0  0  0  0  0  0  0  0  0
  129.0183   72.4975   -4.4628 O   0  0  0  0  0  0  0  0  0  0  0  0
  131.3859   58.2077   -2.0503 N   0  0  0  0  0  0  0  0  0  0  0  0
  132.2128   59.1051   -1.4769 C   0  0  0  0  0  0  0  0  0  0  0  0
  131.8714   60.3911   -1.2543 N   0  0  0  0  0  0  0  0  0  0  0  0
  130.6472   60.8697   -1.6050 C   0  0  0  0  0  0  0  0  0  0  0  0
  129.6894   59.9456   -2.2372 C   0  0  0  0  0  0  0  0  0  0  0  0
  130.1358   58.5452   -2.4481 C   0  0  0  0  0  0  0  0  0  0  0  0
  129.3153   57.6353   -3.0253 N   0  0  0  0  0  0  0  0  0  0  0  0
  128.5712   60.6507   -2.4798 N   0  0  0  0  0  0  0  0  0  0  0  0
  128.7909   61.9165   -2.0455 C   0  0  0  0  0  0  0  0  0  0  0  0
  130.0261   62.0552   -1.5238 N   0  0  0  0  0  0  0  0  0  0  0  0
  2  1  1  1  0  0  0
  2  3  1  0  0  0  0
  2  5  1  0  0  0  0
  3  4  1  0  0  0  0
  3 16  1  0  0  0  0
  5  6  1  0  0  0  0
  6  7  1  0  0  0  0
  7  8  1  0  0  0  0
  9  8  1  6  0  0  0
  9 10  1  0  0  0  0
  9 11  1  0  0  0  0
 10 15  1  0  0  0  0
 11 12  1  1  0  0  0
 11 13  1  0  0  0  0
 13 14  1  1  0  0  0
 13 15  1  0  0  0  0
 15 26  1  6  0  0  0
 17 18  2  0  0  0  0
 17 22  1  0  0  0  0
 18 19  1  0  0  0  0
 19 20  2  0  0  0  0
 20 21  1  0  0  0  0
 20 26  1  0  0  0  0
 21 22  2  0  0  0  0
 21 24  1  0  0  0  0
 22 23  1  0  0  0  0
 24 25  2  0  0  0  0
 25 26  1  0  0  0  0
M  END
>  <CHROM.1>
-139.42462579,-59.15072880,-176.71328601,-172.05783482,70.14316109,139.20449680
-154.87248193,129.64807286,64.78790175,-2.36624710,-1.76639842,0.23809549
3.03142613

>  <Name>
ligand

>  <RI>
0

>  <Rbt.Current_Directory>
/home/itssahil/PROJECTS/Mol_Feturizer/Test_systems_manuscript/rnas/3npn

>  <Rbt.Executable>
rbdock ($Id: //depot/dev/client3/rdock/2013.1/src/exe/rbdock.cxx#4 $)

>  <Rbt.Library>
libRbt.so (2013.1, Build901 2013/11/27)

>  <Rbt.Parameter_File>
/export/apps/rDock/src/rDock_2013.1_src/data/scripts/dock_solv.prm

>  <Rbt.Receptor>
prm/pocket_docking_5.prm

>  <SCORE>
-25.1995

>  <SCORE.INTER>
-26.1586

>  <SCORE.INTER.CONST>
1

>  <SCORE.INTER.POLAR>
0

>  <SCORE.INTER.ROT>
7

>  <SCORE.INTER.SOLV>
20.2601

>  <SCORE.INTER.VDW>
-32.4591

>  <SCORE.INTER.norm>
-1.0061

>  <SCORE.INTRA>
0.959104

>  <SCORE.INTRA.DIHEDRAL>
2.62502

>  <SCORE.INTRA.DIHEDRAL.0>
4.37896

>  <SCORE.INTRA.POLAR>
0

>  <SCORE.INTRA.POLAR.0>
0

>  <SCORE.INTRA.REPUL>
0

>  <SCORE.INTRA.REPUL.0>
0

>  <SCORE.INTRA.SOLV>
-0.0958402

>  <SCORE.INTRA.SOLV.lig_0>
-50.5538

>  <SCORE.INTRA.VDW>
-0.305486

>  <SCORE.INTRA.VDW.0>
-1.30673

>  <SCORE.INTRA.norm>
0.0368886

>  <SCORE.RESTR>
0

>  <SCORE.RESTR.CAVITY>
0

>  <SCORE.RESTR.norm>
0

>  <SCORE.SYSTEM>
0

>  <SCORE.SYSTEM.CONST>
0

>  <SCORE.SYSTEM.DIHEDRAL>
0

>  <SCORE.SYSTEM.SOLV>
0

>  <SCORE.SYSTEM.norm>
0

>  <SCORE.heavy>
26

>  <SCORE.norm>
-0.969211

>  <RMSD>
1.392

$$$$
ligand
 OpenBabel02271912153D
libRbt.so/2013.1/901 2013/11/27
 26 28  0  0  0  0  0  0  0  0999 V2000
  125.4919   71.3607   -2.8440 N   0  0  0  0  0  0  0  0  0  0  0  0
  126.7943   70.6355   -2.7597 C   0  0  2  0  0  0  0  0  0  0  0  0
  127.7457   71.1317   -3.8104 C   0  0  0  0  0  0  0  0  0  0  0  0
  127.4586   71.0827   -5.0057 O   0  0  0  0  0  0  0  0  0  0  0  0
  126.5759   69.1351   -2.9350 C   0  0  0  0  0  0  0  0  0  0  0  0
  127.8086   68.3013   -2.5993 C   0  0  0  0  0  0  0  0  0  0  0  0
  127.8631   66.8677   -3.6236 S   0  0  0  0  0  0  0  0  0  0  0  0
  128.1022   65.5740   -2.4488 C   0  0  0  0  0  0  0  0  0  0  0  0
  129.3468   65.8102   -1.5950 C   0  0  1  0  0  0  0  0  0  0  0  0
  129.5358   64.7382   -0.6689 O   0  0  0  0  0  0  0  0  0  0  0  0
  130.5853   65.8725   -2.4742 C   0  0  1  0  0  0  0  0  0  0  0  0
  131.3582   67.0309   -2.1457 O   0  0  0  0  0  0  0  0  0  0  0  0
  131.3597   64.5961   -2.1968 C   0  0  1  0  0  0  0  0  0  0  0  0
  132.7111   64.8767   -1.8158 O   0  0  0  0  0  0  0  0  0  0  0  0
  130.6316   63.8992   -1.0534 C   0  0  2  0  0  0  0  0  0  0  0  0
  128.8433   71.5915   -3.4989 O   0  0  0  0  0  0  0  0  0  0  0  0
  131.5968   58.7157   -1.4572 N   0  0  0  0  0  0  0  0  0  0  0  0
  132.3860   59.7039   -0.9899 C   0  0  0  0  0  0  0  0  0  0  0  0
  132.0056   60.9974   -0.9446 N   0  0  0  0  0  0  0  0  0  0  0  0
  130.7779   61.3903   -1.3795 C   0  0  0  0  0  0  0  0  0  0  0  0
  129.8600   60.3640   -1.9043 C   0  0  0  0  0  0  0  0  0  0  0  0
  130.3481   58.9617   -1.9208 C   0  0  0  0  0  0  0  0  0  0  0  0
  129.5657   57.9607   -2.3902 N   0  0  0  0  0  0  0  0  0  0  0  0
  128.7298   60.9984   -2.2596 N   0  0  0  0  0  0  0  0  0  0  0  0
  128.9057   62.3160   -1.9906 C   0  0  0  0  0  0  0  0  0  0  0  0
  130.1241   62.5575   -1.4668 N   0  0  0  0  0  0  0  0  0  0  0  0
  2  1  1  6  0  0  0
  2  3  1  0  0  0  0
  2  5  1  0  0  0  0
  3  4  1  0  0  0  0
  3 16  1  0  0  0  0
  5  6  1  0  0  0  0
  6  7  1  0  0  0  0
  7  8  1  0  0  0  0
  9  8  1  6  0  0  0
  9 10  1  0  0  0  0
  9 11  1  0  0  0  0
 10 15  1  0  0  0  0
 11 12  1  1  0  0  0
 11 13  1  0  0  0  0
 13 14  1  1  0  0  0
 13 15  1  0  0  0  0
 15 26  1  6  0  0  0
 17 18  2  0  0  0  0
 17 22  1  0  0  0  0
 18 19  1  0  0  0  0
 19 20  2  0  0  0  0
 20 21  1  0  0  0  0
 20 26  1  0  0  0  0
 21 22  2  0  0  0  0
 21 24  1  0  0  0  0
 22 23  1  0  0  0  0
 24 25  2  0  0  0  0
 25 26  1  0  0  0  0
M  END
>  <CHROM.1>
-58.15930193,-168.99559028,-147.32852430,-129.50162849,-56.26607347,-178.86055525
-151.43569821,129.39623486,65.10504108,-2.32523397,1.89765452,-0.25305831
-0.09555534

>  <Name>
ligand

>  <RI>
0

>  <Rbt.Current_Directory>
/home/itssahil/PROJECTS/Mol_Feturizer/Test_systems_manuscript/rnas/3npn

>  <Rbt.Executable>
rbdock ($Id: //depot/dev/client3/rdock/2013.1/src/exe/rbdock.cxx#4 $)

>  <Rbt.Library>
libRbt.so (2013.1, Build901 2013/11/27)

>  <Rbt.Parameter_File>
/export/apps/rDock/src/rDock_2013.1_src/data/scripts/dock_solv.prm

>  <Rbt.Receptor>
prm/pocket_docking_2.prm

>  <SCORE>
-25.2448

>  <SCORE.INTER>
-26.1348

>  <SCORE.INTER.CONST>
1

>  <SCORE.INTER.POLAR>
0

>  <SCORE.INTER.ROT>
7

>  <SCORE.INTER.SOLV>
26.9935

>  <SCORE.INTER.VDW>
-34.6877

>  <SCORE.INTER.norm>
-1.00518

>  <SCORE.INTRA>
0.876628

>  <SCORE.INTRA.DIHEDRAL>
4.18077

>  <SCORE.INTRA.DIHEDRAL.0>
4.37896

>  <SCORE.INTRA.POLAR>
0

>  <SCORE.INTRA.POLAR.0>
0

>  <SCORE.INTRA.REPUL>
0

>  <SCORE.INTRA.REPUL.0>
0

>  <SCORE.INTRA.SOLV>
-0.717171

>  <SCORE.INTRA.SOLV.lig_0>
-50.5538

>  <SCORE.INTRA.VDW>
-0.855172

>  <SCORE.INTRA.VDW.0>
-1.30673

>  <SCORE.INTRA.norm>
0.0337165

>  <SCORE.RESTR>
0.0133192

>  <SCORE.RESTR.CAVITY>
0.0133192

>  <SCORE.RESTR.norm>
0.000512279

>  <SCORE.SYSTEM>
0

>  <SCORE.SYSTEM.CONST>
0

>  <SCORE.SYSTEM.DIHEDRAL>
0

>  <SCORE.SYSTEM.SOLV>
0

>  <SCORE.SYSTEM.norm>
0

>  <SCORE.heavy>
26

>  <SCORE.norm>
-0.970954

>  <RMSD>
1.396

$$$$
ligand
 OpenBabel02271912153D
libRbt.so/2013.1/901 2013/11/27
 26 28  0  0  0  0  0  0  0  0999 V2000
  128.0681   70.8613   -4.9822 N   0  0  0  0  0  0  0  0  0  0  0  0
  126.8339   70.4164   -4.2693 C   0  0  2  0  0  0  0  0  0  0  0  0
  126.9002   70.7855   -2.8152 C   0  0  0  0  0  0  0  0  0  0  0  0
  125.8886   70.8068   -2.1153 O   0  0  0  0  0  0  0  0  0  0  0  0
  126.6601   68.9062   -4.4062 C   0  0  0  0  0  0  0  0  0  0  0  0
  127.8089   68.1076   -3.7979 C   0  0  0  0  0  0  0  0  0  0  0  0
  127.4556   67.7334   -2.1119 S   0  0  0  0  0  0  0  0  0  0  0  0
  128.1532   66.1237   -1.9292 C   0  0  0  0  0  0  0  0  0  0  0  0
  129.4816   66.1666   -1.1762 C   0  0  1  0  0  0  0  0  0  0  0  0
  129.6574   64.9844   -0.3926 O   0  0  0  0  0  0  0  0  0  0  0  0
  130.6413   66.2364   -2.1565 C   0  0  1  0  0  0  0  0  0  0  0  0
  131.5350   67.2884   -1.7799 O   0  0  0  0  0  0  0  0  0  0  0  0
  131.3255   64.8824   -2.0921 C   0  0  1  0  0  0  0  0  0  0  0  0
  132.7234   65.0154   -1.8122 O   0  0  0  0  0  0  0  0  0  0  0  0
  130.6412   64.1154   -0.9666 C   0  0  2  0  0  0  0  0  0  0  0  0
  127.9714   71.0862   -2.2904 O   0  0  0  0  0  0  0  0  0  0  0  0
  131.0815   58.9273   -1.8903 N   0  0  0  0  0  0  0  0  0  0  0  0
  131.9827   59.7896   -1.3785 C   0  0  0  0  0  0  0  0  0  0  0  0
  131.7317   61.1023   -1.1956 N   0  0  0  0  0  0  0  0  0  0  0  0
  130.5294   61.6462   -1.5263 C   0  0  0  0  0  0  0  0  0  0  0  0
  129.4938   60.7636   -2.0918 C   0  0  0  0  0  0  0  0  0  0  0  0
  129.8427   59.3303   -2.2617 C   0  0  0  0  0  0  0  0  0  0  0  0
  128.9469   58.4550   -2.7770 N   0  0  0  0  0  0  0  0  0  0  0  0
  128.4153   61.5303   -2.3266 N   0  0  0  0  0  0  0  0  0  0  0  0
  128.7298   62.7944   -1.9491 C   0  0  0  0  0  0  0  0  0  0  0  0
  129.9881   62.8717   -1.4720 N   0  0  0  0  0  0  0  0  0  0  0  0
  2  1  1  6  0  0  0
  2  3  1  0  0  0  0
  2  5  1  0  0  0  0
  3  4  1  0  0  0  0
  3 16  1  0  0  0  0
  5  6  1  0  0  0  0
  6  7  1  0  0  0  0
  7  8  1  0  0  0  0
  9  8  1  6  0  0  0
  9 10  1  0  0  0  0
  9 11  1  0  0  0  0
 10 15  1  0  0  0  0
 11 12  1  1  0  0  0
 11 13  1  0  0  0  0
 13 14  1  1  0  0  0
 13 15  1  0  0  0  0
 15 26  1  6  0  0  0
 17 18  2  0  0  0  0
 17 22  1  0  0  0  0
 18 19  1  0  0  0  0
 19 20  2  0  0  0  0
 20 21  1  0  0  0  0
 20 26  1  0  0  0  0
 21 22  2  0  0  0  0
 21 24  1  0  0  0  0
 22 23  1  0  0  0  0
 24 25  2  0  0  0  0
 25 26  1  0  0  0  0
M  END
>  <CHROM.1>
162.55171963,61.32891950,90.77610956,144.10880391,103.52492087,147.08556847
-148.75795844,129.22813525,65.29556471,-2.21771673,1.90857184,-0.34141318
-0.02134578

>  <Name>
ligand

>  <RI>
0

>  <Rbt.Current_Directory>
/home/itssahil/PROJECTS/Mol_Feturizer/Test_systems_manuscript/rnas/3npn

>  <Rbt.Executable>
rbdock ($Id: //depot/dev/client3/rdock/2013.1/src/exe/rbdock.cxx#4 $)

>  <Rbt.Library>
libRbt.so (2013.1, Build901 2013/11/27)

>  <Rbt.Parameter_File>
/export/apps/rDock/src/rDock_2013.1_src/data/scripts/dock_solv.prm

>  <Rbt.Receptor>
prm/pocket_docking_4.prm

>  <SCORE>
-26.2821

>  <SCORE.INTER>
-28.8049

>  <SCORE.INTER.CONST>
1

>  <SCORE.INTER.POLAR>
0

>  <SCORE.INTER.ROT>
7

>  <SCORE.INTER.SOLV>
25.0072

>  <SCORE.INTER.VDW>
-35.8056

>  <SCORE.INTER.norm>
-1.10788

>  <SCORE.INTRA>
2.52275

>  <SCORE.INTRA.DIHEDRAL>
7.75972

>  <SCORE.INTRA.DIHEDRAL.0>
4.37896

>  <SCORE.INTRA.POLAR>
0

>  <SCORE.INTRA.POLAR.0>
0

>  <SCORE.INTRA.REPUL>
0

>  <SCORE.INTRA.REPUL.0>
0

>  <SCORE.INTRA.SOLV>
0.181815

>  <SCORE.INTRA.SOLV.lig_0>
-50.5538

>  <SCORE.INTRA.VDW>
-1.44802

>  <SCORE.INTRA.VDW.0>
-1.30673

>  <SCORE.INTRA.norm>
0.0970288

>  <SCORE.RESTR>
0

>  <SCORE.RESTR.CAVITY>
0

>  <SCORE.RESTR.norm>
0

>  <SCORE.SYSTEM>
0

>  <SCORE.SYSTEM.CONST>
0

>  <SCORE.SYSTEM.DIHEDRAL>
0

>  <SCORE.SYSTEM.SOLV>
0

>  <SCORE.SYSTEM.norm>
0

>  <SCORE.heavy>
26

>  <SCORE.norm>
-1.01085

>  <RMSD>
1.397

$$$$
ligand
 OpenBabel02271912153D
libRbt.so/2013.1/901 2013/11/27
 26 28  0  0  0  0  0  0  0  0999 V2000
  125.7650   71.2894   -3.1568 N   0  0  0  0  0  0  0  0  0  0  0  0
  126.7085   70.1986   -2.7705 C   0  0  2  0  0  0  0  0  0  0  0  0
  128.1322   70.6432   -2.9456 C   0  0  0  0  0  0  0  0  0  0  0  0
  128.8984   70.7233   -1.9864 O   0  0  0  0  0  0  0  0  0  0  0  0
  126.4532   68.9547   -3.6175 C   0  0  0  0  0  0  0  0  0  0  0  0
  126.7682   67.6519   -2.8889 C   0  0  0  0  0  0  0  0  0  0  0  0
  128.4838   67.5850   -2.4894 S   0  0  0  0  0  0  0  0  0  0  0  0
  128.6226   66.0215   -1.6848 C   0  0  0  0  0  0  0  0  0  0  0  0
  129.9178   65.9131   -0.8821 C   0  0  1  0  0  0  0  0  0  0  0  0
  129.9641   64.6803   -0.1606 O   0  0  0  0  0  0  0  0  0  0  0  0
  131.1189   65.9378   -1.8135 C   0  0  1  0  0  0  0  0  0  0  0  0
  132.0789   66.8899   -1.3453 O   0  0  0  0  0  0  0  0  0  0  0  0
  131.6873   64.5298   -1.8006 C   0  0  1  0  0  0  0  0  0  0  0  0
  133.0786   64.5304   -1.4623 O   0  0  0  0  0  0  0  0  0  0  0  0
  130.8968   63.7639   -0.7462 C   0  0  2  0  0  0  0  0  0  0  0  0
  128.5640   70.9484   -4.0563 O   0  0  0  0  0  0  0  0  0  0  0  0
  130.9350   58.6054   -1.9092 N   0  0  0  0  0  0  0  0  0  0  0  0
  131.8793   59.3596   -1.3116 C   0  0  0  0  0  0  0  0  0  0  0  0
  131.7333   60.6796   -1.0748 N   0  0  0  0  0  0  0  0  0  0  0  0
  130.6015   61.3429   -1.4350 C   0  0  0  0  0  0  0  0  0  0  0  0
  129.5246   60.5828   -2.0936 C   0  0  0  0  0  0  0  0  0  0  0  0
  129.7568   59.1336   -2.3189 C   0  0  0  0  0  0  0  0  0  0  0  0
  128.8170   58.3661   -2.9204 N   0  0  0  0  0  0  0  0  0  0  0  0
  128.5302   61.4524   -2.3410 N   0  0  0  0  0  0  0  0  0  0  0  0
  128.9325   62.6648   -1.8852 C   0  0  0  0  0  0  0  0  0  0  0  0
  130.1661   62.6078   -1.3448 N   0  0  0  0  0  0  0  0  0  0  0  0
  2  1  1  6  0  0  0
  2  3  1  0  0  0  0
  2  5  1  0  0  0  0
  3  4  1  0  0  0  0
  3 16  1  0  0  0  0
  5  6  1  0  0  0  0
  6  7  1  0  0  0  0
  7  8  1  0  0  0  0
  9  8  1  6  0  0  0
  9 10  1  0  0  0  0
  9 11  1  0  0  0  0
 10 15  1  0  0  0  0
 11 12  1  1  0  0  0
 11 13  1  0  0  0  0
 13 14  1  1  0  0  0
 13 15  1  0  0  0  0
 15 26  1  6  0  0  0
 17 18  2  0  0  0  0
 17 22  1  0  0  0  0
 18 19  1  0  0  0  0
 19 20  2  0  0  0  0
 20 21  1  0  0  0  0
 20 26  1  0  0  0  0
 21 22  2  0  0  0  0
 21 24  1  0  0  0  0
 22 23  1  0  0  0  0
 24 25  2  0  0  0  0
 25 26  1  0  0  0  0
M  END
>  <CHROM.1>
117.12678658,-149.31770017,-62.90408814,-179.45701582,-162.97368847,175.74068937
-147.96232899,129.49846322,65.08053892,-2.04015232,1.87235094,-0.35841868
-0.00838902

>  <Name>
ligand

>  <RI>
0

>  <Rbt.Current_Directory>
/home/itssahil/PROJECTS/Mol_Feturizer/Test_systems_manuscript/rnas/3npn

>  <Rbt.Executable>
rbdock ($Id: //depot/dev/client3/rdock/2013.1/src/exe/rbdock.cxx#4 $)

>  <Rbt.Library>
libRbt.so (2013.1, Build901 2013/11/27)

>  <Rbt.Parameter_File>
/export/apps/rDock/src/rDock_2013.1_src/data/scripts/dock_solv.prm

>  <Rbt.Receptor>
prm/pocket_docking_2.prm

>  <SCORE>
-24.6097

>  <SCORE.INTER>
-24.0593

>  <SCORE.INTER.CONST>
1

>  <SCORE.INTER.POLAR>
0

>  <SCORE.INTER.ROT>
7

>  <SCORE.INTER.SOLV>
29.3127

>  <SCORE.INTER.VDW>
-34.0771

>  <SCORE.INTER.norm>
-0.925359

>  <SCORE.INTRA>
-0.58175

>  <SCORE.INTRA.DIHEDRAL>
1.84559

>  <SCORE.INTRA.DIHEDRAL.0>
4.37896

>  <SCORE.INTRA.POLAR>
0

>  <SCORE.INTRA.POLAR.0>
0

>  <SCORE.INTRA.REPUL>
0

>  <SCORE.INTRA.REPUL.0>
0

>  <SCORE.INTRA.SOLV>
-0.637409

>  <SCORE.INTRA.SOLV.lig_0>
-50.5538

>  <SCORE.INTRA.VDW>
-1.18584

>  <SCORE.INTRA.VDW.0>
-1.30673

>  <SCORE.INTRA.norm>
-0.022375

>  <SCORE.RESTR>
0.0314126

>  <SCORE.RESTR.CAVITY>
0.0314126

>  <SCORE.RESTR.norm>
0.00120818

>  <SCORE.SYSTEM>
0

>  <SCORE.SYSTEM.CONST>
0

>  <SCORE.SYSTEM.DIHEDRAL>
0

>  <SCORE.SYSTEM.SOLV>
0

>  <SCORE.SYSTEM.norm>
0

>  <SCORE.heavy>
26

>  <SCORE.norm>
-0.946526

>  <RMSD>
1.400

$$$$
ligand
 OpenBabel02271912153D
libRbt.so/2013.1/901 2013/11/27
 26 28  0  0  0  0  0  0  0  0999 V2000
  128.9751   71.4260   -3.8717 N   0  0  0  0  0  0  0  0  0  0  0  0
  127.9603   70.3324   -3.9314 C   0  0  2  0  0  0  0  0  0  0  0  0
  126.6670   70.8407   -4.5008 C   0  0  0  0  0  0  0  0  0  0  0  0
  126.2592   70.4604   -5.5975 O   0  0  0  0  0  0  0  0  0  0  0  0
  127.7159   69.7618   -2.5370 C   0  0  0  0  0  0  0  0  0  0  0  0
  126.6111   68.7104   -2.4989 C   0  0  0  0  0  0  0  0  0  0  0  0
  127.0329   67.3556   -3.5449 S   0  0  0  0  0  0  0  0  0  0  0  0
  127.4900   66.1103   -2.3824 C   0  0  0  0  0  0  0  0  0  0  0  0
  128.8262   66.4266   -1.7129 C   0  0  1  0  0  0  0  0  0  0  0  0
  129.1846   65.3979   -0.7877 O   0  0  0  0  0  0  0  0  0  0  0  0
  129.9318   66.5047   -2.7533 C   0  0  1  0  0  0  0  0  0  0  0  0
  130.6902   67.7039   -2.5693 O   0  0  0  0  0  0  0  0  0  0  0  0
  130.7916   65.2709   -2.5435 C   0  0  1  0  0  0  0  0  0  0  0  0
  132.1683   65.6182   -2.3580 O   0  0  0  0  0  0  0  0  0  0  0  0
  130.2547   64.5889   -1.2906 C   0  0  2  0  0  0  0  0  0  0  0  0
  125.9874   71.6606   -3.8851 O   0  0  0  0  0  0  0  0  0  0  0  0
  131.3459   59.4198   -1.5216 N   0  0  0  0  0  0  0  0  0  0  0  0
  132.1414   60.4525   -1.1774 C   0  0  0  0  0  0  0  0  0  0  0  0
  131.7253   61.7356   -1.1623 N   0  0  0  0  0  0  0  0  0  0  0  0
  130.4518   62.0712   -1.5033 C   0  0  0  0  0  0  0  0  0  0  0  0
  129.5242   60.9940   -1.8910 C   0  0  0  0  0  0  0  0  0  0  0  0
  130.0536   59.6067   -1.8818 C   0  0  0  0  0  0  0  0  0  0  0  0
  129.2651   58.5614   -2.2280 N   0  0  0  0  0  0  0  0  0  0  0  0
  128.3470   61.5776   -2.1736 N   0  0  0  0  0  0  0  0  0  0  0  0
  128.5038   62.9118   -1.9876 C   0  0  0  0  0  0  0  0  0  0  0  0
  129.7556   63.2139   -1.5890 N   0  0  0  0  0  0  0  0  0  0  0  0
  2  1  1  1  0  0  0
  2  3  1  0  0  0  0
  2  5  1  0  0  0  0
  3  4  1  0  0  0  0
  3 16  1  0  0  0  0
  5  6  1  0  0  0  0
  6  7  1  0  0  0  0
  7  8  1  0  0  0  0
  9  8  1  6  0  0  0
  9 10  1  0  0  0  0
  9 11  1  0  0  0  0
 10 15  1  0  0  0  0
 11 12  1  1  0  0  0
 11 13  1  0  0  0  0
 13 14  1  1  0  0  0
 13 15  1  0  0  0  0
 15 26  1  6  0  0  0
 17 18  2  0  0  0  0
 17 22  1  0  0  0  0
 18 19  1  0  0  0  0
 19 20  2  0  0  0  0
 20 21  1  0  0  0  0
 20 26  1  0  0  0  0
 21 22  2  0  0  0  0
 21 24  1  0  0  0  0
 22 23  1  0  0  0  0
 24 25  2  0  0  0  0
 25 26  1  0  0  0  0
M  END
>  <CHROM.1>
112.36548360,175.57804737,60.22633615,105.30959240,-71.45537227,-179.31147495
-148.58771112,129.01287063,65.57150066,-2.53444855,-1.90687043,0.26937106
3.00311261

>  <Name>
ligand

>  <RI>
0

>  <Rbt.Current_Directory>
/home/itssahil/PROJECTS/Mol_Feturizer/Test_systems_manuscript/rnas/3npn

>  <Rbt.Executable>
rbdock ($Id: //depot/dev/client3/rdock/2013.1/src/exe/rbdock.cxx#4 $)

>  <Rbt.Library>
libRbt.so (2013.1, Build901 2013/11/27)

>  <Rbt.Parameter_File>
/export/apps/rDock/src/rDock_2013.1_src/data/scripts/dock_solv.prm

>  <Rbt.Receptor>
prm/pocket_docking_3.prm

>  <SCORE>
-30.7417

>  <SCORE.INTER>
-29.8631

>  <SCORE.INTER.CONST>
1

>  <SCORE.INTER.POLAR>
0

>  <SCORE.INTER.ROT>
7

>  <SCORE.INTER.SOLV>
22.2671

>  <SCORE.INTER.VDW>
-35.5978

>  <SCORE.INTER.norm>
-1.14858

>  <SCORE.INTRA>
-0.878646

>  <SCORE.INTRA.DIHEDRAL>
0.641135

>  <SCORE.INTRA.DIHEDRAL.0>
4.37896

>  <SCORE.INTRA.POLAR>
0

>  <SCORE.INTRA.POLAR.0>
0

>  <SCORE.INTRA.REPUL>
0

>  <SCORE.INTRA.REPUL.0>
0

>  <SCORE.INTRA.SOLV>
-0.345327

>  <SCORE.INTRA.SOLV.lig_0>
-50.5538

>  <SCORE.INTRA.VDW>
-1.02655

>  <SCORE.INTRA.VDW.0>
-1.30673

>  <SCORE.INTRA.norm>
-0.0337941

>  <SCORE.RESTR>
0

>  <SCORE.RESTR.CAVITY>
0

>  <SCORE.RESTR.norm>
0

>  <SCORE.SYSTEM>
0

>  <SCORE.SYSTEM.CONST>
0

>  <SCORE.SYSTEM.DIHEDRAL>
0

>  <SCORE.SYSTEM.SOLV>
0

>  <SCORE.SYSTEM.norm>
0

>  <SCORE.heavy>
26

>  <SCORE.norm>
-1.18237

>  <RMSD>
1.400

$$$$
ligand
 OpenBabel02271912153D
libRbt.so/2013.1/901 2013/11/27
 26 28  0  0  0  0  0  0  0  0999 V2000
  125.5891   67.8875   -2.7884 N   0  0  0  0  0  0  0  0  0  0  0  0
  126.6890   68.8877   -2.6500 C   0  0  2  0  0  0  0  0  0  0  0  0
  126.1934   70.2679   -2.9734 C   0  0  0  0  0  0  0  0  0  0  0  0
  125.7486   71.0080   -2.0970 O   0  0  0  0  0  0  0  0  0  0  0  0
  127.8478   68.5301   -3.5769 C   0  0  0  0  0  0  0  0  0  0  0  0
  128.4749   67.1746   -3.2660 C   0  0  0  0  0  0  0  0  0  0  0  0
  129.9362   66.9526   -4.2265 S   0  0  0  0  0  0  0  0  0  0  0  0
  130.7300   65.6116   -3.4002 C   0  0  0  0  0  0  0  0  0  0  0  0
  130.7626   65.8210   -1.8874 C   0  0  1  0  0  0  0  0  0  0  0  0
  129.6840   65.1268   -1.2572 O   0  0  0  0  0  0  0  0  0  0  0  0
  132.0554   65.2711   -1.3068 C   0  0  1  0  0  0  0  0  0  0  0  0
  132.6599   66.2471   -0.4528 O   0  0  0  0  0  0  0  0  0  0  0  0
  131.6686   64.0241   -0.5314 C   0  0  1  0  0  0  0  0  0  0  0  0
  132.1354   64.0832    0.8209 O   0  0  0  0  0  0  0  0  0  0  0  0
  130.1456   63.9676   -0.5532 C   0  0  2  0  0  0  0  0  0  0  0  0
  126.2117   70.6883   -4.1293 O   0  0  0  0  0  0  0  0  0  0  0  0
  131.0610   58.9013   -1.7610 N   0  0  0  0  0  0  0  0  0  0  0  0
  131.8219   59.7713   -1.0668 C   0  0  0  0  0  0  0  0  0  0  0  0
  131.4593   61.0492   -0.8314 N   0  0  0  0  0  0  0  0  0  0  0  0
  130.2804   61.5473   -1.2926 C   0  0  0  0  0  0  0  0  0  0  0  0
  129.3956   60.6535   -2.0604 C   0  0  0  0  0  0  0  0  0  0  0  0
  129.8613   59.2602   -2.2773 C   0  0  0  0  0  0  0  0  0  0  0  0
  129.1071   58.3779   -2.9751 N   0  0  0  0  0  0  0  0  0  0  0  0
  128.3106   61.3731   -2.3938 N   0  0  0  0  0  0  0  0  0  0  0  0
  128.4831   62.6198   -1.8886 C   0  0  0  0  0  0  0  0  0  0  0  0
  129.6549   62.7317   -1.2318 N   0  0  0  0  0  0  0  0  0  0  0  0
  2  1  1  6  0  0  0
  2  3  1  0  0  0  0
  2  5  1  0  0  0  0
  3  4  1  0  0  0  0
  3 16  1  0  0  0  0
  5  6  1  0  0  0  0
  6  7  1  0  0  0  0
  7  8  1  0  0  0  0
  9  8  1  6  0  0  0
  9 10  1  0  0  0  0
  9 11  1  0  0  0  0
 10 15  1  0  0  0  0
 11 12  1  1  0  0  0
 11 13  1  0  0  0  0
 13 14  1  1  0  0  0
 13 15  1  0  0  0  0
 15 26  1  6  0  0  0
 17 18  2  0  0  0  0
 17 22  1  0  0  0  0
 18 19  1  0  0  0  0
 19 20  2  0  0  0  0
 20 21  1  0  0  0  0
 20 26  1  0  0  0  0
 21 22  2  0  0  0  0
 21 24  1  0  0  0  0
 22 23  1  0  0  0  0
 24 25  2  0  0  0  0
 25 26  1  0  0  0  0
M  END
>  <CHROM.1>
91.41046507,-61.52204497,-171.94855428,164.10342872,-47.09484927,96.96838992
148.02962176,129.47180358,64.78141765,-2.10445960,1.99350921,-0.45871459
0.01095294

>  <Name>
ligand

>  <RI>
0

>  <Rbt.Current_Directory>
/home/itssahil/PROJECTS/Mol_Feturizer/Test_systems_manuscript/rnas/3npn

>  <Rbt.Executable>
rbdock ($Id: //depot/dev/client3/rdock/2013.1/src/exe/rbdock.cxx#4 $)

>  <Rbt.Library>
libRbt.so (2013.1, Build901 2013/11/27)

>  <Rbt.Parameter_File>
/export/apps/rDock/src/rDock_2013.1_src/data/scripts/dock_solv.prm

>  <Rbt.Receptor>
prm/pocket_docking_3.prm

>  <SCORE>
-22.3777

>  <SCORE.INTER>
-23.7976

>  <SCORE.INTER.CONST>
1

>  <SCORE.INTER.POLAR>
0

>  <SCORE.INTER.ROT>
7

>  <SCORE.INTER.SOLV>
26.7957

>  <SCORE.INTER.VDW>
-33.0636

>  <SCORE.INTER.norm>
-0.915293

>  <SCORE.INTRA>
1.41988

>  <SCORE.INTRA.DIHEDRAL>
2.73311

>  <SCORE.INTRA.DIHEDRAL.0>
4.37896

>  <SCORE.INTRA.POLAR>
0

>  <SCORE.INTRA.POLAR.0>
0

>  <SCORE.INTRA.REPUL>
0

>  <SCORE.INTRA.REPUL.0>
0

>  <SCORE.INTRA.SOLV>
-0.150742

>  <SCORE.INTRA.SOLV.lig_0>
-50.5538

>  <SCORE.INTRA.VDW>
0.128692

>  <SCORE.INTRA.VDW.0>
-1.30673

>  <SCORE.INTRA.norm>
0.0546107

>  <SCORE.RESTR>
0

>  <SCORE.RESTR.CAVITY>
0

>  <SCORE.RESTR.norm>
0

>  <SCORE.SYSTEM>
0

>  <SCORE.SYSTEM.CONST>
0

>  <SCORE.SYSTEM.DIHEDRAL>
0

>  <SCORE.SYSTEM.SOLV>
0

>  <SCORE.SYSTEM.norm>
0

>  <SCORE.heavy>
26

>  <SCORE.norm>
-0.860682

>  <RMSD>
1.400

$$$$
ligand
 OpenBabel02271912153D
libRbt.so/2013.1/901 2013/11/27
 26 28  0  0  0  0  0  0  0  0999 V2000
  126.1542   71.7669   -3.6979 N   0  0  0  0  0  0  0  0  0  0  0  0
  127.0736   70.6319   -3.3885 C   0  0  2  0  0  0  0  0  0  0  0  0
  127.8509   70.2320   -4.6096 C   0  0  0  0  0  0  0  0  0  0  0  0
  127.2948   70.0680   -5.6948 O   0  0  0  0  0  0  0  0  0  0  0  0
  126.2799   69.4346   -2.8727 C   0  0  0  0  0  0  0  0  0  0  0  0
  127.1585   68.3333   -2.2874 C   0  0  0  0  0  0  0  0  0  0  0  0
  127.7399   67.2788   -3.5748 S   0  0  0  0  0  0  0  0  0  0  0  0
  128.1260   65.7957   -2.7015 C   0  0  0  0  0  0  0  0  0  0  0  0
  129.2655   66.0073   -1.7063 C   0  0  1  0  0  0  0  0  0  0  0  0
  129.3119   64.9409   -0.7560 O   0  0  0  0  0  0  0  0  0  0  0  0
  130.6016   66.0262   -2.4310 C   0  0  1  0  0  0  0  0  0  0  0  0
  131.3622   67.1667   -2.0211 O   0  0  0  0  0  0  0  0  0  0  0  0
  131.3008   64.7324   -2.0529 C   0  0  1  0  0  0  0  0  0  0  0  0
  132.6043   64.9802   -1.5146 O   0  0  0  0  0  0  0  0  0  0  0  0
  130.4216   64.0682   -0.9998 C   0  0  2  0  0  0  0  0  0  0  0  0
  129.0658   70.0486   -4.5502 O   0  0  0  0  0  0  0  0  0  0  0  0
  131.4220   58.9028   -1.5304 N   0  0  0  0  0  0  0  0  0  0  0  0
  132.1966   59.8811   -1.0199 C   0  0  0  0  0  0  0  0  0  0  0  0
  131.8085   61.1710   -0.9457 N   0  0  0  0  0  0  0  0  0  0  0  0
  130.5876   61.5702   -1.3935 C   0  0  0  0  0  0  0  0  0  0  0  0
  129.6856   60.5548   -1.9651 C   0  0  0  0  0  0  0  0  0  0  0  0
  130.1813   59.1558   -2.0115 C   0  0  0  0  0  0  0  0  0  0  0  0
  129.4136   58.1649   -2.5242 N   0  0  0  0  0  0  0  0  0  0  0  0
  128.5592   61.1937   -2.3247 N   0  0  0  0  0  0  0  0  0  0  0  0
  128.7228   62.5039   -2.0152 C   0  0  0  0  0  0  0  0  0  0  0  0
  129.9293   62.7363   -1.4608 N   0  0  0  0  0  0  0  0  0  0  0  0
  2  1  1  6  0  0  0
  2  3  1  0  0  0  0
  2  5  1  0  0  0  0
  3  4  1  0  0  0  0
  3 16  1  0  0  0  0
  5  6  1  0  0  0  0
  6  7  1  0  0  0  0
  7  8  1  0  0  0  0
  9  8  1  6  0  0  0
  9 10  1  0  0  0  0
  9 11  1  0  0  0  0
 10 15  1  0  0  0  0
 11 12  1  1  0  0  0
 11 13  1  0  0  0  0
 13 14  1  1  0  0  0
 13 15  1  0  0  0  0
 15 26  1  6  0  0  0
 17 18  2  0  0  0  0
 17 22  1  0  0  0  0
 18 19  1  0  0  0  0
 19 20  2  0  0  0  0
 20 21  1  0  0  0  0
 20 26  1  0  0  0  0
 21 22  2  0  0  0  0
 21 24  1  0  0  0  0
 22 23  1  0  0  0  0
 24 25  2  0  0  0  0
 25 26  1  0  0  0  0
M  END
>  <CHROM.1>
-47.27819479,-169.07376645,-84.38010430,-157.78385675,-64.45734535,163.41922929
-157.86450767,129.30388963,65.14443232,-2.46805556,1.90967391,-0.35625836
-0.11080140

>  <Name>
ligand

>  <RI>
0

>  <Rbt.Current_Directory>
/home/itssahil/PROJECTS/Mol_Feturizer/Test_systems_manuscript/rnas/3npn

>  <Rbt.Executable>
rbdock ($Id: //depot/dev/client3/rdock/2013.1/src/exe/rbdock.cxx#4 $)

>  <Rbt.Library>
libRbt.so (2013.1, Build901 2013/11/27)

>  <Rbt.Parameter_File>
/export/apps/rDock/src/rDock_2013.1_src/data/scripts/dock_solv.prm

>  <Rbt.Receptor>
prm/pocket_docking_2.prm

>  <SCORE>
-27.7617

>  <SCORE.INTER>
-27.0376

>  <SCORE.INTER.CONST>
1

>  <SCORE.INTER.POLAR>
0

>  <SCORE.INTER.ROT>
7

>  <SCORE.INTER.SOLV>
26.937

>  <SCORE.INTER.VDW>
-35.2708

>  <SCORE.INTER.norm>
-1.03991

>  <SCORE.INTRA>
-0.730631

>  <SCORE.INTRA.DIHEDRAL>
2.37705

>  <SCORE.INTRA.DIHEDRAL.0>
4.37896

>  <SCORE.INTRA.POLAR>
0

>  <SCORE.INTRA.POLAR.0>
0

>  <SCORE.INTRA.REPUL>
0

>  <SCORE.INTRA.REPUL.0>
0

>  <SCORE.INTRA.SOLV>
-0.668708

>  <SCORE.INTRA.SOLV.lig_0>
-50.5538

>  <SCORE.INTRA.VDW>
-1.5848

>  <SCORE.INTRA.VDW.0>
-1.30673

>  <SCORE.INTRA.norm>
-0.0281012

>  <SCORE.RESTR>
0.0066156

>  <SCORE.RESTR.CAVITY>
0.0066156

>  <SCORE.RESTR.norm>
0.000254446

>  <SCORE.SYSTEM>
0

>  <SCORE.SYSTEM.CONST>
0

>  <SCORE.SYSTEM.DIHEDRAL>
0

>  <SCORE.SYSTEM.SOLV>
0

>  <SCORE.SYSTEM.norm>
0

>  <SCORE.heavy>
26

>  <SCORE.norm>
-1.06776

>  <RMSD>
1.401

$$$$
ligand
 OpenBabel02271912153D
libRbt.so/2013.1/901 2013/11/27
 26 28  0  0  0  0  0  0  0  0999 V2000
  126.3092   70.6017   -4.9098 N   0  0  0  0  0  0  0  0  0  0  0  0
  126.6100   70.7002   -3.4507 C   0  0  2  0  0  0  0  0  0  0  0  0
  128.0091   71.1995   -3.2310 C   0  0  0  0  0  0  0  0  0  0  0  0
  128.6214   71.7936   -4.1174 O   0  0  0  0  0  0  0  0  0  0  0  0
  126.4426   69.3376   -2.7836 C   0  0  0  0  0  0  0  0  0  0  0  0
  127.2046   68.2207   -3.4901 C   0  0  0  0  0  0  0  0  0  0  0  0
  127.1459   66.7472   -2.5243 S   0  0  0  0  0  0  0  0  0  0  0  0
  128.7107   66.0092   -2.8676 C   0  0  0  0  0  0  0  0  0  0  0  0
  129.6356   66.0566   -1.6527 C   0  0  1  0  0  0  0  0  0  0  0  0
  129.3242   65.0032   -0.7384 O   0  0  0  0  0  0  0  0  0  0  0  0
  131.0815   65.8697   -2.0831 C   0  0  1  0  0  0  0  0  0  0  0  0
  131.8995   66.8872   -1.4978 O   0  0  0  0  0  0  0  0  0  0  0  0
  131.4872   64.4892   -1.5979 C   0  0  1  0  0  0  0  0  0  0  0  0
  132.6713   64.5442   -0.7948 O   0  0  0  0  0  0  0  0  0  0  0  0
  130.3190   63.9726   -0.7663 C   0  0  2  0  0  0  0  0  0  0  0  0
  128.5815   71.0162   -2.1576 O   0  0  0  0  0  0  0  0  0  0  0  0
  130.9790   58.8244   -1.7783 N   0  0  0  0  0  0  0  0  0  0  0  0
  131.8132   59.6971   -1.1781 C   0  0  0  0  0  0  0  0  0  0  0  0
  131.5109   60.9973   -0.9835 N   0  0  0  0  0  0  0  0  0  0  0  0
  130.3219   61.5168   -1.3923 C   0  0  0  0  0  0  0  0  0  0  0  0
  129.3585   60.6216   -2.0567 C   0  0  0  0  0  0  0  0  0  0  0  0
  129.7609   59.2032   -2.2339 C   0  0  0  0  0  0  0  0  0  0  0  0
  128.9327   58.3178   -2.8374 N   0  0  0  0  0  0  0  0  0  0  0  0
  128.2792   61.3647   -2.3551 N   0  0  0  0  0  0  0  0  0  0  0  0
  128.5271   62.6265   -1.9242 C   0  0  0  0  0  0  0  0  0  0  0  0
  129.7427   62.7254   -1.3502 N   0  0  0  0  0  0  0  0  0  0  0  0
  2  1  1  6  0  0  0
  2  3  1  0  0  0  0
  2  5  1  0  0  0  0
  3  4  1  0  0  0  0
  3 16  1  0  0  0  0
  5  6  1  0  0  0  0
  6  7  1  0  0  0  0
  7  8  1  0  0  0  0
  9  8  1  6  0  0  0
  9 10  1  0  0  0  0
  9 11  1  0  0  0  0
 10 15  1  0  0  0  0
 11 12  1  1  0  0  0
 11 13  1  0  0  0  0
 13 14  1  1  0  0  0
 13 15  1  0  0  0  0
 15 26  1  6  0  0  0
 17 18  2  0  0  0  0
 17 22  1  0  0  0  0
 18 19  1  0  0  0  0
 19 20  2  0  0  0  0
 20 21  1  0  0  0  0
 20 26  1  0  0  0  0
 21 22  2  0  0  0  0
 21 24  1  0  0  0  0
 22 23  1  0  0  0  0
 24 25  2  0  0  0  0
 25 26  1  0  0  0  0
M  END
>  <CHROM.1>
19.31198460,51.38736035,171.74445987,-146.61317907,110.01882957,80.72280941
-171.59527080,129.25819962,65.16277069,-2.20015518,1.86467237,-0.40110968
-0.04705386

>  <Name>
ligand

>  <RI>
0

>  <Rbt.Current_Directory>
/home/itssahil/PROJECTS/Mol_Feturizer/Test_systems_manuscript/rnas/3npn

>  <Rbt.Executable>
rbdock ($Id: //depot/dev/client3/rdock/2013.1/src/exe/rbdock.cxx#4 $)

>  <Rbt.Library>
libRbt.so (2013.1, Build901 2013/11/27)

>  <Rbt.Parameter_File>
/export/apps/rDock/src/rDock_2013.1_src/data/scripts/dock_solv.prm

>  <Rbt.Receptor>
prm/pocket_docking_8.prm

>  <SCORE>
-29.1196

>  <SCORE.INTER>
-30.5443

>  <SCORE.INTER.CONST>
1

>  <SCORE.INTER.POLAR>
0

>  <SCORE.INTER.ROT>
7

>  <SCORE.INTER.SOLV>
27.1579

>  <SCORE.INTER.VDW>
-37.6822

>  <SCORE.INTER.norm>
-1.17478

>  <SCORE.INTRA>
1.42466

>  <SCORE.INTRA.DIHEDRAL>
3.92018

>  <SCORE.INTRA.DIHEDRAL.0>
4.37896

>  <SCORE.INTRA.POLAR>
0

>  <SCORE.INTRA.POLAR.0>
0

>  <SCORE.INTRA.REPUL>
0

>  <SCORE.INTRA.REPUL.0>
0

>  <SCORE.INTRA.SOLV>
-0.190795

>  <SCORE.INTRA.SOLV.lig_0>
-50.5538

>  <SCORE.INTRA.VDW>
-0.440032

>  <SCORE.INTRA.VDW.0>
-1.30673

>  <SCORE.INTRA.norm>
0.0547947

>  <SCORE.RESTR>
0

>  <SCORE.RESTR.CAVITY>
0

>  <SCORE.RESTR.norm>
0

>  <SCORE.SYSTEM>
0

>  <SCORE.SYSTEM.CONST>
0

>  <SCORE.SYSTEM.DIHEDRAL>
0

>  <SCORE.SYSTEM.SOLV>
0

>  <SCORE.SYSTEM.norm>
0

>  <SCORE.heavy>
26

>  <SCORE.norm>
-1.11999

>  <RMSD>
1.402

$$$$
ligand
 OpenBabel02271912153D
libRbt.so/2013.1/901 2013/11/27
 26 28  0  0  0  0  0  0  0  0999 V2000
  125.9121   71.5900   -3.5090 N   0  0  0  0  0  0  0  0  0  0  0  0
  126.8105   70.7336   -2.6790 C   0  0  2  0  0  0  0  0  0  0  0  0
  128.2511   71.0641   -2.9447 C   0  0  0  0  0  0  0  0  0  0  0  0
  128.5993   71.6023   -3.9948 O   0  0  0  0  0  0  0  0  0  0  0  0
  126.5602   69.2584   -2.9801 C   0  0  0  0  0  0  0  0  0  0  0  0
  127.3229   68.3146   -2.0553 C   0  0  0  0  0  0  0  0  0  0  0  0
  127.0259   66.6416   -2.5245 S   0  0  0  0  0  0  0  0  0  0  0  0
  128.6446   66.0716   -2.9321 C   0  0  0  0  0  0  0  0  0  0  0  0
  129.5878   66.1467   -1.7328 C   0  0  1  0  0  0  0  0  0  0  0  0
  129.3076   65.0987   -0.8024 O   0  0  0  0  0  0  0  0  0  0  0  0
  131.0294   65.9776   -2.1844 C   0  0  1  0  0  0  0  0  0  0  0  0
  131.8406   67.0140   -1.6233 O   0  0  0  0  0  0  0  0  0  0  0  0
  131.4644   64.6090   -1.6911 C   0  0  1  0  0  0  0  0  0  0  0  0
  132.6602   64.6911   -0.9077 O   0  0  0  0  0  0  0  0  0  0  0  0
  130.3179   64.0834   -0.8352 C   0  0  2  0  0  0  0  0  0  0  0  0
  129.1215   70.7937   -2.1185 O   0  0  0  0  0  0  0  0  0  0  0  0
  131.0408   58.9343   -1.7987 N   0  0  0  0  0  0  0  0  0  0  0  0
  131.8704   59.8263   -1.2208 C   0  0  0  0  0  0  0  0  0  0  0  0
  131.5514   61.1239   -1.0364 N   0  0  0  0  0  0  0  0  0  0  0  0
  130.3488   61.6209   -1.4334 C   0  0  0  0  0  0  0  0  0  0  0  0
  129.3894   60.7037   -2.0734 C   0  0  0  0  0  0  0  0  0  0  0  0
  129.8105   59.2896   -2.2404 C   0  0  0  0  0  0  0  0  0  0  0  0
  128.9871   58.3850   -2.8216 N   0  0  0  0  0  0  0  0  0  0  0  0
  128.2947   61.4272   -2.3641 N   0  0  0  0  0  0  0  0  0  0  0  0
  128.5298   62.6974   -1.9512 C   0  0  0  0  0  0  0  0  0  0  0  0
  129.7521   62.8210   -1.3964 N   0  0  0  0  0  0  0  0  0  0  0  0
  2  1  1  6  0  0  0
  2  3  1  0  0  0  0
  2  5  1  0  0  0  0
  3  4  1  0  0  0  0
  3 16  1  0  0  0  0
  5  6  1  0  0  0  0
  6  7  1  0  0  0  0
  7  8  1  0  0  0  0
  9  8  1  6  0  0  0
  9 10  1  0  0  0  0
  9 11  1  0  0  0  0
 10 15  1  0  0  0  0
 11 12  1  1  0  0  0
 11 13  1  0  0  0  0
 13 14  1  1  0  0  0
 13 15  1  0  0  0  0
 15 26  1  6  0  0  0
 17 18  2  0  0  0  0
 17 22  1  0  0  0  0
 18 19  1  0  0  0  0
 19 20  2  0  0  0  0
 20 21  1  0  0  0  0
 20 26  1  0  0  0  0
 21 22  2  0  0  0  0
 21 24  1  0  0  0  0
 22 23  1  0  0  0  0
 24 25  2  0  0  0  0
 25 26  1  0  0  0  0
M  END
>  <CHROM.1>
-22.69662798,-173.23917266,-177.53918213,119.03173868,61.11917133,75.05411259
-171.50830688,129.28040322,65.23566377,-2.09452132,1.85030516,-0.29415727
-0.03376578

>  <Name>
ligand

>  <RI>
0

>  <Rbt.Current_Directory>
/home/itssahil/PROJECTS/Mol_Feturizer/Test_systems_manuscript/rnas/3npn

>  <Rbt.Executable>
rbdock ($Id: //depot/dev/client3/rdock/2013.1/src/exe/rbdock.cxx#4 $)

>  <Rbt.Library>
libRbt.so (2013.1, Build901 2013/11/27)

>  <Rbt.Parameter_File>
/export/apps/rDock/src/rDock_2013.1_src/data/scripts/dock_solv.prm

>  <Rbt.Receptor>
prm/pocket_docking_4.prm

>  <SCORE>
-28.915

>  <SCORE.INTER>
-28.3272

>  <SCORE.INTER.CONST>
1

>  <SCORE.INTER.POLAR>
0

>  <SCORE.INTER.ROT>
7

>  <SCORE.INTER.SOLV>
29.3149

>  <SCORE.INTER.VDW>
-36.9231

>  <SCORE.INTER.norm>
-1.08951

>  <SCORE.INTRA>
-0.587775

>  <SCORE.INTRA.DIHEDRAL>
1.64619

>  <SCORE.INTRA.DIHEDRAL.0>
4.37896

>  <SCORE.INTRA.POLAR>
0

>  <SCORE.INTRA.POLAR.0>
0

>  <SCORE.INTRA.REPUL>
0

>  <SCORE.INTRA.REPUL.0>
0

>  <SCORE.INTRA.SOLV>
-0.893393

>  <SCORE.INTRA.SOLV.lig_0>
-50.5538

>  <SCORE.INTRA.VDW>
-0.964175

>  <SCORE.INTRA.VDW.0>
-1.30673

>  <SCORE.INTRA.norm>
-0.0226067

>  <SCORE.RESTR>
0

>  <SCORE.RESTR.CAVITY>
0

>  <SCORE.RESTR.norm>
0

>  <SCORE.SYSTEM>
0

>  <SCORE.SYSTEM.CONST>
0

>  <SCORE.SYSTEM.DIHEDRAL>
0

>  <SCORE.SYSTEM.SOLV>
0

>  <SCORE.SYSTEM.norm>
0

>  <SCORE.heavy>
26

>  <SCORE.norm>
-1.11212

>  <RMSD>
1.403

$$$$
ligand
 OpenBabel02271912153D
libRbt.so/2013.1/901 2013/11/27
 26 28  0  0  0  0  0  0  0  0999 V2000
  126.4200   70.7170   -4.7619 N   0  0  0  0  0  0  0  0  0  0  0  0
  127.0567   70.6272   -3.4144 C   0  0  2  0  0  0  0  0  0  0  0  0
  128.5533   70.6659   -3.5322 C   0  0  0  0  0  0  0  0  0  0  0  0
  129.1352   70.1048   -4.4597 O   0  0  0  0  0  0  0  0  0  0  0  0
  126.6320   69.3391   -2.7142 C   0  0  0  0  0  0  0  0  0  0  0  0
  126.9356   68.0823   -3.5239 C   0  0  0  0  0  0  0  0  0  0  0  0
  127.0435   66.6869   -2.4521 S   0  0  0  0  0  0  0  0  0  0  0  0
  128.6191   66.0126   -2.8690 C   0  0  0  0  0  0  0  0  0  0  0  0
  129.5950   66.0924   -1.6965 C   0  0  1  0  0  0  0  0  0  0  0  0
  129.3506   65.0388   -0.7622 O   0  0  0  0  0  0  0  0  0  0  0  0
  131.0248   65.9377   -2.1891 C   0  0  1  0  0  0  0  0  0  0  0  0
  131.8422   66.9797   -1.6474 O   0  0  0  0  0  0  0  0  0  0  0  0
  131.4858   64.5715   -1.7130 C   0  0  1  0  0  0  0  0  0  0  0  0
  132.7024   64.6619   -0.9633 O   0  0  0  0  0  0  0  0  0  0  0  0
  130.3686   64.0328   -0.8270 C   0  0  2  0  0  0  0  0  0  0  0  0
  129.2355   71.2540   -2.6945 O   0  0  0  0  0  0  0  0  0  0  0  0
  131.0672   58.8689   -1.7270 N   0  0  0  0  0  0  0  0  0  0  0  0
  131.8989   59.7629   -1.1552 C   0  0  0  0  0  0  0  0  0  0  0  0
  131.5863   61.0644   -0.9875 N   0  0  0  0  0  0  0  0  0  0  0  0
  130.3886   61.5634   -1.3965 C   0  0  0  0  0  0  0  0  0  0  0  0
  129.4273   60.6442   -2.0307 C   0  0  0  0  0  0  0  0  0  0  0  0
  129.8413   59.2259   -2.1792 C   0  0  0  0  0  0  0  0  0  0  0  0
  129.0157   58.3192   -2.7541 N   0  0  0  0  0  0  0  0  0  0  0  0
  128.3382   61.3704   -2.3355 N   0  0  0  0  0  0  0  0  0  0  0  0
  128.5784   62.6440   -1.9361 C   0  0  0  0  0  0  0  0  0  0  0  0
  129.7985   62.7672   -1.3765 N   0  0  0  0  0  0  0  0  0  0  0  0
  2  1  1  6  0  0  0
  2  3  1  0  0  0  0
  2  5  1  0  0  0  0
  3  4  1  0  0  0  0
  3 16  1  0  0  0  0
  5  6  1  0  0  0  0
  6  7  1  0  0  0  0
  7  8  1  0  0  0  0
  9  8  1  6  0  0  0
  9 10  1  0  0  0  0
  9 11  1  0  0  0  0
 10 15  1  0  0  0  0
 11 12  1  1  0  0  0
 11 13  1  0  0  0  0
 13 14  1  1  0  0  0
 13 15  1  0  0  0  0
 15 26  1  6  0  0  0
 17 18  2  0  0  0  0
 17 22  1  0  0  0  0
 18 19  1  0  0  0  0
 19 20  2  0  0  0  0
 20 21  1  0  0  0  0
 20 26  1  0  0  0  0
 21 22  2  0  0  0  0
 21 24  1  0  0  0  0
 22 23  1  0  0  0  0
 24 25  2  0  0  0  0
 25 26  1  0  0  0  0
M  END
>  <CHROM.1>
-37.56605465,55.99229153,157.03453222,-126.42869181,115.13248544,79.64612366
-169.25383956,129.35296184,65.10609087,-2.25149502,1.84403316,-0.34342393
-0.08492222

>  <Name>
ligand

>  <RI>
0

>  <Rbt.Current_Directory>
/home/itssahil/PROJECTS/Mol_Feturizer/Test_systems_manuscript/rnas/3npn

>  <Rbt.Executable>
rbdock ($Id: //depot/dev/client3/rdock/2013.1/src/exe/rbdock.cxx#4 $)

>  <Rbt.Library>
libRbt.so (2013.1, Build901 2013/11/27)

>  <Rbt.Parameter_File>
/export/apps/rDock/src/rDock_2013.1_src/data/scripts/dock_solv.prm

>  <Rbt.Receptor>
prm/pocket_docking_2.prm

>  <SCORE>
-26.3995

>  <SCORE.INTER>
-28.1824

>  <SCORE.INTER.CONST>
1

>  <SCORE.INTER.POLAR>
0

>  <SCORE.INTER.ROT>
7

>  <SCORE.INTER.SOLV>
25.873

>  <SCORE.INTER.VDW>
-35.6793

>  <SCORE.INTER.norm>
-1.08394

>  <SCORE.INTRA>
1.78287

>  <SCORE.INTRA.DIHEDRAL>
6.07759

>  <SCORE.INTRA.DIHEDRAL.0>
4.37896

>  <SCORE.INTRA.POLAR>
0

>  <SCORE.INTRA.POLAR.0>
0

>  <SCORE.INTRA.REPUL>
0

>  <SCORE.INTRA.REPUL.0>
0

>  <SCORE.INTRA.SOLV>
-0.236838

>  <SCORE.INTRA.SOLV.lig_0>
-50.5538

>  <SCORE.INTRA.VDW>
-1.13751

>  <SCORE.INTRA.VDW.0>
-1.30673

>  <SCORE.INTRA.norm>
0.0685718

>  <SCORE.RESTR>
0

>  <SCORE.RESTR.CAVITY>
0

>  <SCORE.RESTR.norm>
0

>  <SCORE.SYSTEM>
0

>  <SCORE.SYSTEM.CONST>
0

>  <SCORE.SYSTEM.DIHEDRAL>
0

>  <SCORE.SYSTEM.SOLV>
0

>  <SCORE.SYSTEM.norm>
0

>  <SCORE.heavy>
26

>  <SCORE.norm>
-1.01537

>  <RMSD>
1.409

$$$$
ligand
 OpenBabel02271912153D
libRbt.so/2013.1/901 2013/11/27
 26 28  0  0  0  0  0  0  0  0999 V2000
  127.1800   68.9319   -4.8989 N   0  0  0  0  0  0  0  0  0  0  0  0
  126.6514   69.5164   -3.6307 C   0  0  2  0  0  0  0  0  0  0  0  0
  126.5539   71.0111   -3.7368 C   0  0  0  0  0  0  0  0  0  0  0  0
  125.6268   71.6289   -3.2149 O   0  0  0  0  0  0  0  0  0  0  0  0
  127.5575   69.1447   -2.4599 C   0  0  0  0  0  0  0  0  0  0  0  0
  127.4000   67.6957   -2.0096 C   0  0  0  0  0  0  0  0  0  0  0  0
  128.0521   66.6098   -3.2356 S   0  0  0  0  0  0  0  0  0  0  0  0
  128.3325   65.1301   -2.3174 C   0  0  0  0  0  0  0  0  0  0  0  0
  129.5260   65.2692   -1.3740 C   0  0  1  0  0  0  0  0  0  0  0  0
  129.6354   64.1250   -0.5246 O   0  0  0  0  0  0  0  0  0  0  0  0
  130.8179   65.3678   -2.1691 C   0  0  1  0  0  0  0  0  0  0  0  0
  131.5920   66.4781   -1.7051 O   0  0  0  0  0  0  0  0  0  0  0  0
  131.5477   64.0551   -1.9458 C   0  0  1  0  0  0  0  0  0  0  0  0
  132.8781   64.2720   -1.4628 O   0  0  0  0  0  0  0  0  0  0  0  0
  130.7360   63.2910   -0.9064 C   0  0  2  0  0  0  0  0  0  0  0  0
  127.3976   71.6542   -4.3596 O   0  0  0  0  0  0  0  0  0  0  0  0
  131.6356   58.1386   -1.6859 N   0  0  0  0  0  0  0  0  0  0  0  0
  132.4159   59.0693   -1.1005 C   0  0  0  0  0  0  0  0  0  0  0  0
  132.0549   60.3624   -0.9681 N   0  0  0  0  0  0  0  0  0  0  0  0
  130.8577   60.8143   -1.4296 C   0  0  0  0  0  0  0  0  0  0  0  0
  129.9511   59.8530   -2.0817 C   0  0  0  0  0  0  0  0  0  0  0  0
  130.4163   58.4469   -2.1891 C   0  0  0  0  0  0  0  0  0  0  0  0
  129.6427   57.5036   -2.7771 N   0  0  0  0  0  0  0  0  0  0  0  0
  128.8510   60.5372   -2.4393 N   0  0  0  0  0  0  0  0  0  0  0  0
  129.0345   61.8247   -2.0547 C   0  0  0  0  0  0  0  0  0  0  0  0
  130.2283   61.9979   -1.4531 N   0  0  0  0  0  0  0  0  0  0  0  0
  2  1  1  6  0  0  0
  2  3  1  0  0  0  0
  2  5  1  0  0  0  0
  3  4  1  0  0  0  0
  3 16  1  0  0  0  0
  5  6  1  0  0  0  0
  6  7  1  0  0  0  0
  7  8  1  0  0  0  0
  9  8  1  6  0  0  0
  9 10  1  0  0  0  0
  9 11  1  0  0  0  0
 10 15  1  0  0  0  0
 11 12  1  1  0  0  0
 11 13  1  0  0  0  0
 13 14  1  1  0  0  0
 13 15  1  0  0  0  0
 15 26  1  6  0  0  0
 17 18  2  0  0  0  0
 17 22  1  0  0  0  0
 18 19  1  0  0  0  0
 19 20  2  0  0  0  0
 20 21  1  0  0  0  0
 20 26  1  0  0  0  0
 21 22  2  0  0  0  0
 21 24  1  0  0  0  0
 22 23  1  0  0  0  0
 24 25  2  0  0  0  0
 25 26  1  0  0  0  0
M  END
>  <CHROM.1>
143.21690620,-75.08379285,69.70234810,159.69787163,-72.33847891,172.86909934
-152.15761539,129.39563213,64.59750333,-2.29174693,1.96166997,-0.41581703
-0.00791213

>  <Name>
ligand

>  <RI>
0

>  <Rbt.Current_Directory>
/home/itssahil/PROJECTS/Mol_Feturizer/Test_systems_manuscript/rnas/3npn

>  <Rbt.Executable>
rbdock ($Id: //depot/dev/client3/rdock/2013.1/src/exe/rbdock.cxx#4 $)

>  <Rbt.Library>
libRbt.so (2013.1, Build901 2013/11/27)

>  <Rbt.Parameter_File>
/export/apps/rDock/src/rDock_2013.1_src/data/scripts/dock_solv.prm

>  <Rbt.Receptor>
prm/pocket_docking_3.prm

>  <SCORE>
-28.1159

>  <SCORE.INTER>
-27.7719

>  <SCORE.INTER.CONST>
1

>  <SCORE.INTER.POLAR>
0

>  <SCORE.INTER.ROT>
7

>  <SCORE.INTER.SOLV>
21.9525

>  <SCORE.INTER.VDW>
-34.0988

>  <SCORE.INTER.norm>
-1.06815

>  <SCORE.INTRA>
-0.34391

>  <SCORE.INTRA.DIHEDRAL>
0.577825

>  <SCORE.INTRA.DIHEDRAL.0>
4.37896

>  <SCORE.INTRA.POLAR>
0

>  <SCORE.INTRA.POLAR.0>
0

>  <SCORE.INTRA.REPUL>
0

>  <SCORE.INTRA.REPUL.0>
0

>  <SCORE.INTRA.SOLV>
1.06896

>  <SCORE.INTRA.SOLV.lig_0>
-50.5538

>  <SCORE.INTRA.VDW>
-1.1673

>  <SCORE.INTRA.VDW.0>
-1.30673

>  <SCORE.INTRA.norm>
-0.0132273

>  <SCORE.RESTR>
0

>  <SCORE.RESTR.CAVITY>
0

>  <SCORE.RESTR.norm>
0

>  <SCORE.SYSTEM>
0

>  <SCORE.SYSTEM.CONST>
0

>  <SCORE.SYSTEM.DIHEDRAL>
0

>  <SCORE.SYSTEM.SOLV>
0

>  <SCORE.SYSTEM.norm>
0

>  <SCORE.heavy>
26

>  <SCORE.norm>
-1.08138

>  <RMSD>
1.414

$$$$
ligand
 OpenBabel02271912153D
libRbt.so/2013.1/901 2013/11/27
 26 28  0  0  0  0  0  0  0  0999 V2000
  127.1018   70.6702   -5.9055 N   0  0  0  0  0  0  0  0  0  0  0  0
  126.9350   70.4089   -4.4450 C   0  0  2  0  0  0  0  0  0  0  0  0
  127.9756   71.1470   -3.6527 C   0  0  0  0  0  0  0  0  0  0  0  0
  128.9323   71.6890   -4.2045 O   0  0  0  0  0  0  0  0  0  0  0  0
  127.0411   68.9131   -4.1604 C   0  0  0  0  0  0  0  0  0  0  0  0
  126.8083   68.5583   -2.6950 C   0  0  0  0  0  0  0  0  0  0  0  0
  126.8548   66.8088   -2.4844 S   0  0  0  0  0  0  0  0  0  0  0  0
  128.5185   66.4206   -2.9232 C   0  0  0  0  0  0  0  0  0  0  0  0
  129.4618   66.5493   -1.7285 C   0  0  1  0  0  0  0  0  0  0  0  0
  129.2087   65.5191   -0.7708 O   0  0  0  0  0  0  0  0  0  0  0  0
  130.9062   66.4034   -2.1790 C   0  0  1  0  0  0  0  0  0  0  0  0
  131.6931   67.4732   -1.6467 O   0  0  0  0  0  0  0  0  0  0  0  0
  131.3751   65.0588   -1.6518 C   0  0  1  0  0  0  0  0  0  0  0  0
  132.5699   65.1899   -0.8736 O   0  0  0  0  0  0  0  0  0  0  0  0
  130.2431   64.5280   -0.7799 C   0  0  2  0  0  0  0  0  0  0  0  0
  127.9000   71.2182   -2.4270 O   0  0  0  0  0  0  0  0  0  0  0  0
  131.0709   59.3654   -1.5716 N   0  0  0  0  0  0  0  0  0  0  0  0
  131.8773   60.2903   -1.0130 C   0  0  0  0  0  0  0  0  0  0  0  0
  131.5325   61.5870   -0.8734 N   0  0  0  0  0  0  0  0  0  0  0  0
  130.3259   62.0489   -1.2994 C   0  0  0  0  0  0  0  0  0  0  0  0
  129.3909   61.0943   -1.9207 C   0  0  0  0  0  0  0  0  0  0  0  0
  129.8397   59.6837   -2.0381 C   0  0  0  0  0  0  0  0  0  0  0  0
  129.0397   58.7461   -2.5995 N   0  0  0  0  0  0  0  0  0  0  0  0
  128.2868   61.7878   -2.2464 N   0  0  0  0  0  0  0  0  0  0  0  0
  128.4938   63.0746   -1.8713 C   0  0  0  0  0  0  0  0  0  0  0  0
  129.7070   63.2383   -1.3071 N   0  0  0  0  0  0  0  0  0  0  0  0
  2  1  1  6  0  0  0
  2  3  1  0  0  0  0
  2  5  1  0  0  0  0
  3  4  1  0  0  0  0
  3 16  1  0  0  0  0
  5  6  1  0  0  0  0
  6  7  1  0  0  0  0
  7  8  1  0  0  0  0
  9  8  1  6  0  0  0
  9 10  1  0  0  0  0
  9 11  1  0  0  0  0
 10 15  1  0  0  0  0
 11 12  1  1  0  0  0
 11 13  1  0  0  0  0
 13 14  1  1  0  0  0
 13 15  1  0  0  0  0
 15 26  1  6  0  0  0
 17 18  2  0  0  0  0
 17 22  1  0  0  0  0
 18 19  1  0  0  0  0
 19 20  2  0  0  0  0
 20 21  1  0  0  0  0
 20 26  1  0  0  0  0
 21 22  2  0  0  0  0
 21 24  1  0  0  0  0
 22 23  1  0  0  0  0
 24 25  2  0  0  0  0
 25 26  1  0  0  0  0
M  END
>  <CHROM.1>
-10.86550047,-177.00034616,176.60632450,63.85020383,86.66811613,69.39854606
-170.59824270,129.23287659,65.49814895,-2.29336079,1.86583871,-0.42622304
-0.10400954

>  <Name>
ligand

>  <RI>
0

>  <Rbt.Current_Directory>
/home/itssahil/PROJECTS/Mol_Feturizer/Test_systems_manuscript/rnas/3npn

>  <Rbt.Executable>
rbdock ($Id: //depot/dev/client3/rdock/2013.1/src/exe/rbdock.cxx#4 $)

>  <Rbt.Library>
libRbt.so (2013.1, Build901 2013/11/27)

>  <Rbt.Parameter_File>
/export/apps/rDock/src/rDock_2013.1_src/data/scripts/dock_solv.prm

>  <Rbt.Receptor>
prm/pocket_docking_4.prm

>  <SCORE>
-29.1952

>  <SCORE.INTER>
-28.2504

>  <SCORE.INTER.CONST>
1

>  <SCORE.INTER.POLAR>
0

>  <SCORE.INTER.ROT>
7

>  <SCORE.INTER.SOLV>
27.971

>  <SCORE.INTER.VDW>
-36.424

>  <SCORE.INTER.norm>
-1.08655

>  <SCORE.INTRA>
-0.9448

>  <SCORE.INTRA.DIHEDRAL>
-0.317424

>  <SCORE.INTRA.DIHEDRAL.0>
4.37896

>  <SCORE.INTRA.POLAR>
0

>  <SCORE.INTRA.POLAR.0>
0

>  <SCORE.INTRA.REPUL>
0

>  <SCORE.INTRA.REPUL.0>
0

>  <SCORE.INTRA.SOLV>
-0.899374

>  <SCORE.INTRA.SOLV.lig_0>
-50.5538

>  <SCORE.INTRA.VDW>
-0.336402

>  <SCORE.INTRA.VDW.0>
-1.30673

>  <SCORE.INTRA.norm>
-0.0363385

>  <SCORE.RESTR>
0

>  <SCORE.RESTR.CAVITY>
0

>  <SCORE.RESTR.norm>
0

>  <SCORE.SYSTEM>
0

>  <SCORE.SYSTEM.CONST>
0

>  <SCORE.SYSTEM.DIHEDRAL>
0

>  <SCORE.SYSTEM.SOLV>
0

>  <SCORE.SYSTEM.norm>
0

>  <SCORE.heavy>
26

>  <SCORE.norm>
-1.12289

>  <RMSD>
1.415

$$$$
ligand
 OpenBabel02271912153D
libRbt.so/2013.1/901 2013/11/27
 26 28  0  0  0  0  0  0  0  0999 V2000
  126.3701   70.5339   -5.0807 N   0  0  0  0  0  0  0  0  0  0  0  0
  126.5553   70.6936   -3.6078 C   0  0  2  0  0  0  0  0  0  0  0  0
  127.9147   71.2540   -3.3027 C   0  0  0  0  0  0  0  0  0  0  0  0
  128.5483   71.8867   -4.1464 O   0  0  0  0  0  0  0  0  0  0  0  0
  126.3870   69.3489   -2.9054 C   0  0  0  0  0  0  0  0  0  0  0  0
  127.3640   68.2844   -3.3951 C   0  0  0  0  0  0  0  0  0  0  0  0
  127.1016   66.7775   -2.5189 S   0  0  0  0  0  0  0  0  0  0  0  0
  128.5808   65.8800   -2.8615 C   0  0  0  0  0  0  0  0  0  0  0  0
  129.5724   65.9631   -1.7024 C   0  0  1  0  0  0  0  0  0  0  0  0
  129.3600   64.8945   -0.7774 O   0  0  0  0  0  0  0  0  0  0  0  0
  130.9972   65.8393   -2.2174 C   0  0  1  0  0  0  0  0  0  0  0  0
  131.8042   66.8890   -1.6752 O   0  0  0  0  0  0  0  0  0  0  0  0
  131.4888   64.4759   -1.7645 C   0  0  1  0  0  0  0  0  0  0  0  0
  132.7145   64.5788   -1.0315 O   0  0  0  0  0  0  0  0  0  0  0  0
  130.3942   63.9073   -0.8690 C   0  0  2  0  0  0  0  0  0  0  0  0
  128.4325   71.0839   -2.1999 O   0  0  0  0  0  0  0  0  0  0  0  0
  131.1136   58.7375   -1.7173 N   0  0  0  0  0  0  0  0  0  0  0  0
  131.9304   59.6348   -1.1295 C   0  0  0  0  0  0  0  0  0  0  0  0
  131.6141   60.9375   -0.9784 N   0  0  0  0  0  0  0  0  0  0  0  0
  130.4280   61.4344   -1.4220 C   0  0  0  0  0  0  0  0  0  0  0  0
  129.4832   60.5115   -2.0756 C   0  0  0  0  0  0  0  0  0  0  0  0
  129.9002   59.0922   -2.2041 C   0  0  0  0  0  0  0  0  0  0  0  0
  129.0896   58.1821   -2.7948 N   0  0  0  0  0  0  0  0  0  0  0  0
  128.4030   61.2361   -2.4136 N   0  0  0  0  0  0  0  0  0  0  0  0
  128.6332   62.5121   -2.0161 C   0  0  0  0  0  0  0  0  0  0  0  0
  129.8382   62.6385   -1.4252 N   0  0  0  0  0  0  0  0  0  0  0  0
  2  1  1  6  0  0  0
  2  3  1  0  0  0  0
  2  5  1  0  0  0  0
  3  4  1  0  0  0  0
  3 16  1  0  0  0  0
  5  6  1  0  0  0  0
  6  7  1  0  0  0  0
  7  8  1  0  0  0  0
  9  8  1  6  0  0  0
  9 10  1  0  0  0  0
  9 11  1  0  0  0  0
 10 15  1  0  0  0  0
 11 12  1  1  0  0  0
 11 13  1  0  0  0  0
 13 14  1  1  0  0  0
 13 15  1  0  0  0  0
 15 26  1  6  0  0  0
 17 18  2  0  0  0  0
 17 22  1  0  0  0  0
 18 19  1  0  0  0  0
 19 20  2  0  0  0  0
 20 21  1  0  0  0  0
 20 26  1  0  0  0  0
 21 22  2  0  0  0  0
 21 24  1  0  0  0  0
 22 23  1  0  0  0  0
 24 25  2  0  0  0  0
 25 26  1  0  0  0  0
M  END
>  <CHROM.1>
22.21424533,58.58219138,179.53273713,-163.75806562,99.83833760,89.95935928
-166.48476138,129.28008885,65.12512019,-2.25557856,1.87377680,-0.38127172
-0.05220967

>  <Name>
ligand

>  <RI>
0

>  <Rbt.Current_Directory>
/home/itssahil/PROJECTS/Mol_Feturizer/Test_systems_manuscript/rnas/3npn

>  <Rbt.Executable>
rbdock ($Id: //depot/dev/client3/rdock/2013.1/src/exe/rbdock.cxx#4 $)

>  <Rbt.Library>
libRbt.so (2013.1, Build901 2013/11/27)

>  <Rbt.Parameter_File>
/export/apps/rDock/src/rDock_2013.1_src/data/scripts/dock_solv.prm

>  <Rbt.Receptor>
prm/pocket_docking_8.prm

>  <SCORE>
-29.5533

>  <SCORE.INTER>
-30.7308

>  <SCORE.INTER.CONST>
1

>  <SCORE.INTER.POLAR>
0

>  <SCORE.INTER.ROT>
7

>  <SCORE.INTER.SOLV>
26.745

>  <SCORE.INTER.VDW>
-37.6689

>  <SCORE.INTER.norm>
-1.18195

>  <SCORE.INTRA>
1.17751

>  <SCORE.INTRA.DIHEDRAL>
3.15453

>  <SCORE.INTRA.DIHEDRAL.0>
4.37896

>  <SCORE.INTRA.POLAR>
0

>  <SCORE.INTRA.POLAR.0>
0

>  <SCORE.INTRA.REPUL>
0

>  <SCORE.INTRA.REPUL.0>
0

>  <SCORE.INTRA.SOLV>
-0.275625

>  <SCORE.INTRA.SOLV.lig_0>
-50.5538

>  <SCORE.INTRA.VDW>
-0.261938

>  <SCORE.INTRA.VDW.0>
-1.30673

>  <SCORE.INTRA.norm>
0.0452889

>  <SCORE.RESTR>
0

>  <SCORE.RESTR.CAVITY>
0

>  <SCORE.RESTR.norm>
0

>  <SCORE.SYSTEM>
0

>  <SCORE.SYSTEM.CONST>
0

>  <SCORE.SYSTEM.DIHEDRAL>
0

>  <SCORE.SYSTEM.SOLV>
0

>  <SCORE.SYSTEM.norm>
0

>  <SCORE.heavy>
26

>  <SCORE.norm>
-1.13667

>  <RMSD>
1.415

$$$$
ligand
 OpenBabel02271912153D
libRbt.so/2013.1/901 2013/11/27
 26 28  0  0  0  0  0  0  0  0999 V2000
  126.3168   70.6586   -4.8730 N   0  0  0  0  0  0  0  0  0  0  0  0
  126.5991   70.7394   -3.4090 C   0  0  2  0  0  0  0  0  0  0  0  0
  127.9983   71.2275   -3.1657 C   0  0  0  0  0  0  0  0  0  0  0  0
  128.5665   71.0277   -2.0929 O   0  0  0  0  0  0  0  0  0  0  0  0
  126.4147   69.3706   -2.7592 C   0  0  0  0  0  0  0  0  0  0  0  0
  127.2548   68.2750   -3.4082 C   0  0  0  0  0  0  0  0  0  0  0  0
  127.0892   66.7725   -2.5013 S   0  0  0  0  0  0  0  0  0  0  0  0
  128.6070   65.9477   -2.8584 C   0  0  0  0  0  0  0  0  0  0  0  0
  129.5751   66.0118   -1.6785 C   0  0  1  0  0  0  0  0  0  0  0  0
  129.3262   64.9444   -0.7613 O   0  0  0  0  0  0  0  0  0  0  0  0
  131.0083   65.8665   -2.1639 C   0  0  1  0  0  0  0  0  0  0  0  0
  131.8204   66.9017   -1.6017 O   0  0  0  0  0  0  0  0  0  0  0  0
  131.4683   64.4943   -1.7047 C   0  0  1  0  0  0  0  0  0  0  0  0
  132.6798   64.5756   -0.9458 O   0  0  0  0  0  0  0  0  0  0  0  0
  130.3462   63.9410   -0.8340 C   0  0  2  0  0  0  0  0  0  0  0  0
  128.6075   71.8501   -4.0343 O   0  0  0  0  0  0  0  0  0  0  0  0
  131.0448   58.7842   -1.7736 N   0  0  0  0  0  0  0  0  0  0  0  0
  131.8694   59.6698   -1.1791 C   0  0  0  0  0  0  0  0  0  0  0  0
  131.5578   60.9706   -1.0037 N   0  0  0  0  0  0  0  0  0  0  0  0
  130.3686   61.4774   -1.4276 C   0  0  0  0  0  0  0  0  0  0  0  0
  129.4154   60.5675   -2.0870 C   0  0  0  0  0  0  0  0  0  0  0  0
  129.8277   59.1495   -2.2427 C   0  0  0  0  0  0  0  0  0  0  0  0
  129.0092   58.2511   -2.8403 N   0  0  0  0  0  0  0  0  0  0  0  0
  128.3337   61.2999   -2.4028 N   0  0  0  0  0  0  0  0  0  0  0  0
  128.5709   62.5688   -1.9867 C   0  0  0  0  0  0  0  0  0  0  0  0
  129.7818   62.6827   -1.4055 N   0  0  0  0  0  0  0  0  0  0  0  0
  2  1  1  6  0  0  0
  2  3  1  0  0  0  0
  2  5  1  0  0  0  0
  3  4  1  0  0  0  0
  3 16  1  0  0  0  0
  5  6  1  0  0  0  0
  6  7  1  0  0  0  0
  7  8  1  0  0  0  0
  9  8  1  6  0  0  0
  9 10  1  0  0  0  0
  9 11  1  0  0  0  0
 10 15  1  0  0  0  0
 11 12  1  1  0  0  0
 11 13  1  0  0  0  0
 13 14  1  1  0  0  0
 13 15  1  0  0  0  0
 15 26  1  6  0  0  0
 17 18  2  0  0  0  0
 17 22  1  0  0  0  0
 18 19  1  0  0  0  0
 19 20  2  0  0  0  0
 20 21  1  0  0  0  0
 20 26  1  0  0  0  0
 21 22  2  0  0  0  0
 21 24  1  0  0  0  0
 22 23  1  0  0  0  0
 24 25  2  0  0  0  0
 25 26  1  0  0  0  0
M  END
>  <CHROM.1>
-159.75252743,55.41025891,174.80874504,-153.65708649,104.22873820,85.95760955
-168.55951456,129.26058782,65.15360693,-2.21320374,1.86587219,-0.37895109
-0.04306226

>  <Name>
ligand

>  <RI>
0

>  <Rbt.Current_Directory>
/home/itssahil/PROJECTS/Mol_Feturizer/Test_systems_manuscript/rnas/3npn

>  <Rbt.Executable>
rbdock ($Id: //depot/dev/client3/rdock/2013.1/src/exe/rbdock.cxx#4 $)

>  <Rbt.Library>
libRbt.so (2013.1, Build901 2013/11/27)

>  <Rbt.Parameter_File>
/export/apps/rDock/src/rDock_2013.1_src/data/scripts/dock_solv.prm

>  <Rbt.Receptor>
prm/pocket_docking_4.prm

>  <SCORE>
-29.5284

>  <SCORE.INTER>
-30.7478

>  <SCORE.INTER.CONST>
1

>  <SCORE.INTER.POLAR>
0

>  <SCORE.INTER.ROT>
7

>  <SCORE.INTER.SOLV>
26.7706

>  <SCORE.INTER.VDW>
-37.6887

>  <SCORE.INTER.norm>
-1.18261

>  <SCORE.INTRA>
1.21938

>  <SCORE.INTRA.DIHEDRAL>
3.53314

>  <SCORE.INTRA.DIHEDRAL.0>
4.37896

>  <SCORE.INTRA.POLAR>
0

>  <SCORE.INTRA.POLAR.0>
0

>  <SCORE.INTRA.REPUL>
0

>  <SCORE.INTRA.REPUL.0>
0

>  <SCORE.INTRA.SOLV>
-0.236599

>  <SCORE.INTRA.SOLV.lig_0>
-50.5538

>  <SCORE.INTRA.VDW>
-0.428896

>  <SCORE.INTRA.VDW.0>
-1.30673

>  <SCORE.INTRA.norm>
0.0468991

>  <SCORE.RESTR>
0

>  <SCORE.RESTR.CAVITY>
0

>  <SCORE.RESTR.norm>
0

>  <SCORE.SYSTEM>
0

>  <SCORE.SYSTEM.CONST>
0

>  <SCORE.SYSTEM.DIHEDRAL>
0

>  <SCORE.SYSTEM.SOLV>
0

>  <SCORE.SYSTEM.norm>
0

>  <SCORE.heavy>
26

>  <SCORE.norm>
-1.13571

>  <RMSD>
1.424

$$$$
ligand
 OpenBabel02271912153D
libRbt.so/2013.1/901 2013/11/27
 26 28  0  0  0  0  0  0  0  0999 V2000
  125.6294   71.0139   -2.3507 N   0  0  0  0  0  0  0  0  0  0  0  0
  126.7558   70.0890   -2.6749 C   0  0  2  0  0  0  0  0  0  0  0  0
  128.0137   70.8622   -2.9489 C   0  0  0  0  0  0  0  0  0  0  0  0
  128.0326   71.7814   -3.7664 O   0  0  0  0  0  0  0  0  0  0  0  0
  126.4052   69.2353   -3.8906 C   0  0  0  0  0  0  0  0  0  0  0  0
  127.3746   68.0794   -4.1177 C   0  0  0  0  0  0  0  0  0  0  0  0
  127.2025   66.8874   -2.8306 S   0  0  0  0  0  0  0  0  0  0  0  0
  128.6911   65.9532   -2.9808 C   0  0  0  0  0  0  0  0  0  0  0  0
  129.5337   66.0263   -1.7086 C   0  0  1  0  0  0  0  0  0  0  0  0
  129.1781   64.9775   -0.8053 O   0  0  0  0  0  0  0  0  0  0  0  0
  131.0072   65.8564   -2.0417 C   0  0  1  0  0  0  0  0  0  0  0  0
  131.7708   66.8917   -1.4153 O   0  0  0  0  0  0  0  0  0  0  0  0
  131.3996   64.4870   -1.5162 C   0  0  1  0  0  0  0  0  0  0  0  0
  132.5278   64.5673   -0.6381 O   0  0  0  0  0  0  0  0  0  0  0  0
  130.1869   63.9614   -0.7570 C   0  0  2  0  0  0  0  0  0  0  0  0
  129.0615   70.5861   -2.3666 O   0  0  0  0  0  0  0  0  0  0  0  0
  131.0170   58.8305   -1.7311 N   0  0  0  0  0  0  0  0  0  0  0  0
  131.8023   59.7237   -1.0962 C   0  0  0  0  0  0  0  0  0  0  0  0
  131.4599   61.0162   -0.9170 N   0  0  0  0  0  0  0  0  0  0  0  0
  130.2777   61.5062   -1.3785 C   0  0  0  0  0  0  0  0  0  0  0  0
  129.3667   60.5872   -2.0833 C   0  0  0  0  0  0  0  0  0  0  0  0
  129.8112   59.1791   -2.2404 C   0  0  0  0  0  0  0  0  0  0  0  0
  129.0323   58.2732   -2.8784 N   0  0  0  0  0  0  0  0  0  0  0  0
  128.2836   61.3034   -2.4300 N   0  0  0  0  0  0  0  0  0  0  0  0
  128.4813   62.5711   -1.9905 C   0  0  0  0  0  0  0  0  0  0  0  0
  129.6677   62.7001   -1.3638 N   0  0  0  0  0  0  0  0  0  0  0  0
  2  1  1  6  0  0  0
  2  3  1  0  0  0  0
  2  5  1  0  0  0  0
  3  4  1  0  0  0  0
  3 16  1  0  0  0  0
  5  6  1  0  0  0  0
  6  7  1  0  0  0  0
  7  8  1  0  0  0  0
  9  8  1  6  0  0  0
  9 10  1  0  0  0  0
  9 11  1  0  0  0  0
 10 15  1  0  0  0  0
 11 12  1  1  0  0  0
 11 13  1  0  0  0  0
 13 14  1  1  0  0  0
 13 15  1  0  0  0  0
 15 26  1  6  0  0  0
 17 18  2  0  0  0  0
 17 22  1  0  0  0  0
 18 19  1  0  0  0  0
 19 20  2  0  0  0  0
 20 21  1  0  0  0  0
 20 26  1  0  0  0  0
 21 22  2  0  0  0  0
 21 24  1  0  0  0  0
 22 23  1  0  0  0  0
 24 25  2  0  0  0  0
 25 26  1  0  0  0  0
M  END
>  <CHROM.1>
-52.23679004,-168.43446860,68.49336873,-162.83391967,119.20622810,89.60987145
-173.05342480,129.21013370,65.11907760,-2.14859053,1.88133403,-0.40804022
-0.00951214

>  <Name>
ligand

>  <RI>
0

>  <Rbt.Current_Directory>
/home/itssahil/PROJECTS/Mol_Feturizer/Test_systems_manuscript/rnas/3npn

>  <Rbt.Executable>
rbdock ($Id: //depot/dev/client3/rdock/2013.1/src/exe/rbdock.cxx#4 $)

>  <Rbt.Library>
libRbt.so (2013.1, Build901 2013/11/27)

>  <Rbt.Parameter_File>
/export/apps/rDock/src/rDock_2013.1_src/data/scripts/dock_solv.prm

>  <Rbt.Receptor>
prm/pocket_docking_3.prm

>  <SCORE>
-28.1474

>  <SCORE.INTER>
-28.6341

>  <SCORE.INTER.CONST>
1

>  <SCORE.INTER.POLAR>
0

>  <SCORE.INTER.ROT>
7

>  <SCORE.INTER.SOLV>
29.486

>  <SCORE.INTER.VDW>
-37.1848

>  <SCORE.INTER.norm>
-1.10131

>  <SCORE.INTRA>
0.486763

>  <SCORE.INTRA.DIHEDRAL>
4.4949

>  <SCORE.INTRA.DIHEDRAL.0>
4.37896

>  <SCORE.INTRA.POLAR>
0

>  <SCORE.INTRA.POLAR.0>
0

>  <SCORE.INTRA.REPUL>
0

>  <SCORE.INTRA.REPUL.0>
0

>  <SCORE.INTRA.SOLV>
-0.767195

>  <SCORE.INTRA.SOLV.lig_0>
-50.5538

>  <SCORE.INTRA.VDW>
-1.37709

>  <SCORE.INTRA.VDW.0>
-1.30673

>  <SCORE.INTRA.norm>
0.0187217

>  <SCORE.RESTR>
0

>  <SCORE.RESTR.CAVITY>
0

>  <SCORE.RESTR.norm>
0

>  <SCORE.SYSTEM>
0

>  <SCORE.SYSTEM.CONST>
0

>  <SCORE.SYSTEM.DIHEDRAL>
0

>  <SCORE.SYSTEM.SOLV>
0

>  <SCORE.SYSTEM.norm>
0

>  <SCORE.heavy>
26

>  <SCORE.norm>
-1.08259

>  <RMSD>
1.425

$$$$
ligand
 OpenBabel02271912153D
libRbt.so/2013.1/901 2013/11/27
 26 28  0  0  0  0  0  0  0  0999 V2000
  130.4997   70.7970   -2.4548 N   0  0  0  0  0  0  0  0  0  0  0  0
  129.4745   70.2412   -3.3872 C   0  0  2  0  0  0  0  0  0  0  0  0
  128.7099   71.3482   -4.0544 C   0  0  0  0  0  0  0  0  0  0  0  0
  129.1004   71.8485   -5.1083 O   0  0  0  0  0  0  0  0  0  0  0  0
  128.5070   69.3358   -2.6296 C   0  0  0  0  0  0  0  0  0  0  0  0
  127.5159   68.6150   -3.5383 C   0  0  0  0  0  0  0  0  0  0  0  0
  126.6319   67.3977   -2.6195 S   0  0  0  0  0  0  0  0  0  0  0  0
  127.7460   66.0304   -2.6364 C   0  0  0  0  0  0  0  0  0  0  0  0
  128.9581   66.2791   -1.7405 C   0  0  1  0  0  0  0  0  0  0  0  0
  129.1090   65.2235   -0.7889 O   0  0  0  0  0  0  0  0  0  0  0  0
  130.2291   66.3230   -2.5732 C   0  0  1  0  0  0  0  0  0  0  0  0
  130.9924   67.4854   -2.2365 O   0  0  0  0  0  0  0  0  0  0  0  0
  130.9889   65.0502   -2.2441 C   0  0  1  0  0  0  0  0  0  0  0  0
  132.3258   65.3346   -1.8172 O   0  0  0  0  0  0  0  0  0  0  0  0
  130.2162   64.3754   -1.1167 C   0  0  2  0  0  0  0  0  0  0  0  0
  127.6759   71.7890   -3.5546 O   0  0  0  0  0  0  0  0  0  0  0  0
  131.2365   59.2025   -1.5210 N   0  0  0  0  0  0  0  0  0  0  0  0
  132.0177   60.2001   -1.0603 C   0  0  0  0  0  0  0  0  0  0  0  0
  131.6233   61.4893   -1.0139 N   0  0  0  0  0  0  0  0  0  0  0  0
  130.3883   61.8679   -1.4408 C   0  0  0  0  0  0  0  0  0  0  0  0
  129.4783   60.8307   -1.9581 C   0  0  0  0  0  0  0  0  0  0  0  0
  129.9819   59.4339   -1.9763 C   0  0  0  0  0  0  0  0  0  0  0  0
  129.2075   58.4237   -2.4390 N   0  0  0  0  0  0  0  0  0  0  0  0
  128.3386   61.4521   -2.3063 N   0  0  0  0  0  0  0  0  0  0  0  0
  128.5017   62.7718   -2.0400 C   0  0  0  0  0  0  0  0  0  0  0  0
  129.7208   63.0276   -1.5250 N   0  0  0  0  0  0  0  0  0  0  0  0
  2  1  1  1  0  0  0
  2  3  1  0  0  0  0
  2  5  1  0  0  0  0
  3  4  1  0  0  0  0
  3 16  1  0  0  0  0
  5  6  1  0  0  0  0
  6  7  1  0  0  0  0
  7  8  1  0  0  0  0
  9  8  1  6  0  0  0
  9 10  1  0  0  0  0
  9 11  1  0  0  0  0
 10 15  1  0  0  0  0
 11 12  1  1  0  0  0
 11 13  1  0  0  0  0
 13 14  1  1  0  0  0
 13 15  1  0  0  0  0
 15 26  1  6  0  0  0
 17 18  2  0  0  0  0
 17 22  1  0  0  0  0
 18 19  1  0  0  0  0
 19 20  2  0  0  0  0
 20 21  1  0  0  0  0
 20 26  1  0  0  0  0
 21 22  2  0  0  0  0
 21 24  1  0  0  0  0
 22 23  1  0  0  0  0
 24 25  2  0  0  0  0
 25 26  1  0  0  0  0
M  END
>  <CHROM.1>
88.76222484,-174.04182614,170.40496791,-83.03610178,71.79941327,125.29585500
-154.27862691,129.43475239,65.48766547,-2.33331613,-1.74170082,0.18085295
2.99201830

>  <Name>
ligand

>  <RI>
0

>  <Rbt.Current_Directory>
/home/itssahil/PROJECTS/Mol_Feturizer/Test_systems_manuscript/rnas/3npn

>  <Rbt.Executable>
rbdock ($Id: //depot/dev/client3/rdock/2013.1/src/exe/rbdock.cxx#4 $)

>  <Rbt.Library>
libRbt.so (2013.1, Build901 2013/11/27)

>  <Rbt.Parameter_File>
/export/apps/rDock/src/rDock_2013.1_src/data/scripts/dock_solv.prm

>  <Rbt.Receptor>
prm/pocket_docking_5.prm

>  <SCORE>
-25.4623

>  <SCORE.INTER>
-27.2432

>  <SCORE.INTER.CONST>
1

>  <SCORE.INTER.POLAR>
0

>  <SCORE.INTER.ROT>
7

>  <SCORE.INTER.SOLV>
20.6335

>  <SCORE.INTER.VDW>
-33.3066

>  <SCORE.INTER.norm>
-1.04782

>  <SCORE.INTRA>
1.78092

>  <SCORE.INTRA.DIHEDRAL>
4.91023

>  <SCORE.INTRA.DIHEDRAL.0>
4.37896

>  <SCORE.INTRA.POLAR>
0

>  <SCORE.INTRA.POLAR.0>
0

>  <SCORE.INTRA.REPUL>
0

>  <SCORE.INTRA.REPUL.0>
0

>  <SCORE.INTRA.SOLV>
0.378147

>  <SCORE.INTRA.SOLV.lig_0>
-50.5538

>  <SCORE.INTRA.VDW>
-0.863268

>  <SCORE.INTRA.VDW.0>
-1.30673

>  <SCORE.INTRA.norm>
0.0684969

>  <SCORE.RESTR>
0

>  <SCORE.RESTR.CAVITY>
0

>  <SCORE.RESTR.norm>
0

>  <SCORE.SYSTEM>
0

>  <SCORE.SYSTEM.CONST>
0

>  <SCORE.SYSTEM.DIHEDRAL>
0

>  <SCORE.SYSTEM.SOLV>
0

>  <SCORE.SYSTEM.norm>
0

>  <SCORE.heavy>
26

>  <SCORE.norm>
-0.979319

>  <RMSD>
1.426

$$$$
ligand
 OpenBabel02271912153D
libRbt.so/2013.1/901 2013/11/27
 26 28  0  0  0  0  0  0  0  0999 V2000
  127.2368   68.1429   -5.1366 N   0  0  0  0  0  0  0  0  0  0  0  0
  126.6041   69.0286   -4.1145 C   0  0  2  0  0  0  0  0  0  0  0  0
  126.6045   70.4569   -4.5784 C   0  0  0  0  0  0  0  0  0  0  0  0
  127.0830   70.7745   -5.6664 O   0  0  0  0  0  0  0  0  0  0  0  0
  127.3511   68.9216   -2.7878 C   0  0  0  0  0  0  0  0  0  0  0  0
  127.4813   67.4886   -2.2809 C   0  0  0  0  0  0  0  0  0  0  0  0
  128.8000   67.3793   -1.1162 S   0  0  0  0  0  0  0  0  0  0  0  0
  129.2236   65.6685   -1.1861 C   0  0  0  0  0  0  0  0  0  0  0  0
  130.5238   65.3783   -0.4386 C   0  0  1  0  0  0  0  0  0  0  0  0
  130.4908   64.0748    0.1465 O   0  0  0  0  0  0  0  0  0  0  0  0
  131.7026   65.4141   -1.3978 C   0  0  1  0  0  0  0  0  0  0  0  0
  132.7432   66.2362   -0.8605 O   0  0  0  0  0  0  0  0  0  0  0  0
  132.1610   63.9746   -1.5511 C   0  0  1  0  0  0  0  0  0  0  0  0
  133.5553   63.8355   -1.2566 O   0  0  0  0  0  0  0  0  0  0  0  0
  131.3371   63.1603   -0.5605 C   0  0  2  0  0  0  0  0  0  0  0  0
  126.1329   71.3477   -3.8732 O   0  0  0  0  0  0  0  0  0  0  0  0
  130.8372   58.1062   -2.0339 N   0  0  0  0  0  0  0  0  0  0  0  0
  131.8338   58.7102   -1.3558 C   0  0  0  0  0  0  0  0  0  0  0  0
  131.8293   60.0228   -1.0446 N   0  0  0  0  0  0  0  0  0  0  0  0
  130.7981   60.8329   -1.4065 C   0  0  0  0  0  0  0  0  0  0  0  0
  129.6720   60.2421   -2.1509 C   0  0  0  0  0  0  0  0  0  0  0  0
  129.7468   58.7906   -2.4552 C   0  0  0  0  0  0  0  0  0  0  0  0
  128.7533   58.1733   -3.1378 N   0  0  0  0  0  0  0  0  0  0  0  0
  128.7957   61.2345   -2.3824 N   0  0  0  0  0  0  0  0  0  0  0  0
  129.3131   62.3639   -1.8384 C   0  0  0  0  0  0  0  0  0  0  0  0
  130.5066   62.1330   -1.2560 N   0  0  0  0  0  0  0  0  0  0  0  0
  2  1  1  6  0  0  0
  2  3  1  0  0  0  0
  2  5  1  0  0  0  0
  3  4  1  0  0  0  0
  3 16  1  0  0  0  0
  5  6  1  0  0  0  0
  6  7  1  0  0  0  0
  7  8  1  0  0  0  0
  9  8  1  6  0  0  0
  9 10  1  0  0  0  0
  9 11  1  0  0  0  0
 10 15  1  0  0  0  0
 11 12  1  1  0  0  0
 11 13  1  0  0  0  0
 13 14  1  1  0  0  0
 13 15  1  0  0  0  0
 15 26  1  6  0  0  0
 17 18  2  0  0  0  0
 17 22  1  0  0  0  0
 18 19  1  0  0  0  0
 19 20  2  0  0  0  0
 20 21  1  0  0  0  0
 20 26  1  0  0  0  0
 21 22  2  0  0  0  0
 21 24  1  0  0  0  0
 22 23  1  0  0  0  0
 24 25  2  0  0  0  0
 25 26  1  0  0  0  0
M  END
>  <CHROM.1>
-0.12728098,-54.25829670,159.72037953,-157.04499352,169.58806195,147.38784929
-142.67562687,129.61516980,64.59267894,-2.09996081,2.01156376,-0.61942365
0.05192201

>  <Name>
ligand

>  <RI>
0

>  <Rbt.Current_Directory>
/home/itssahil/PROJECTS/Mol_Feturizer/Test_systems_manuscript/rnas/3npn

>  <Rbt.Executable>
rbdock ($Id: //depot/dev/client3/rdock/2013.1/src/exe/rbdock.cxx#4 $)

>  <Rbt.Library>
libRbt.so (2013.1, Build901 2013/11/27)

>  <Rbt.Parameter_File>
/export/apps/rDock/src/rDock_2013.1_src/data/scripts/dock_solv.prm

>  <Rbt.Receptor>
prm/pocket_docking_7.prm

>  <SCORE>
-24.7223

>  <SCORE.INTER>
-25.8526

>  <SCORE.INTER.CONST>
1

>  <SCORE.INTER.POLAR>
0

>  <SCORE.INTER.ROT>
7

>  <SCORE.INTER.SOLV>
26.7195

>  <SCORE.INTER.VDW>
-34.4082

>  <SCORE.INTER.norm>
-0.99433

>  <SCORE.INTRA>
1.13028

>  <SCORE.INTRA.DIHEDRAL>
3.76021

>  <SCORE.INTRA.DIHEDRAL.0>
4.37896

>  <SCORE.INTRA.POLAR>
0

>  <SCORE.INTRA.POLAR.0>
0

>  <SCORE.INTRA.REPUL>
0

>  <SCORE.INTRA.REPUL.0>
0

>  <SCORE.INTRA.SOLV>
-0.049926

>  <SCORE.INTRA.SOLV.lig_0>
-50.5538

>  <SCORE.INTRA.VDW>
-0.724864

>  <SCORE.INTRA.VDW.0>
-1.30673

>  <SCORE.INTRA.norm>
0.0434723

>  <SCORE.RESTR>
0

>  <SCORE.RESTR.CAVITY>
0

>  <SCORE.RESTR.norm>
0

>  <SCORE.SYSTEM>
0

>  <SCORE.SYSTEM.CONST>
0

>  <SCORE.SYSTEM.DIHEDRAL>
0

>  <SCORE.SYSTEM.SOLV>
0

>  <SCORE.SYSTEM.norm>
0

>  <SCORE.heavy>
26

>  <SCORE.norm>
-0.950858

>  <RMSD>
1.426

$$$$
ligand
 OpenBabel02271912153D
libRbt.so/2013.1/901 2013/11/27
 26 28  0  0  0  0  0  0  0  0999 V2000
  126.3816   70.6164   -4.9854 N   0  0  0  0  0  0  0  0  0  0  0  0
  126.5839   70.7496   -3.5120 C   0  0  2  0  0  0  0  0  0  0  0  0
  127.9542   71.2857   -3.2120 C   0  0  0  0  0  0  0  0  0  0  0  0
  128.6313   71.8304   -4.0829 O   0  0  0  0  0  0  0  0  0  0  0  0
  126.4034   69.3964   -2.8295 C   0  0  0  0  0  0  0  0  0  0  0  0
  127.3794   68.3339   -3.3255 C   0  0  0  0  0  0  0  0  0  0  0  0
  127.0780   66.8065   -2.4987 S   0  0  0  0  0  0  0  0  0  0  0  0
  128.5433   65.8908   -2.8531 C   0  0  0  0  0  0  0  0  0  0  0  0
  129.5450   65.9615   -1.7019 C   0  0  1  0  0  0  0  0  0  0  0  0
  129.3279   64.8945   -0.7761 O   0  0  0  0  0  0  0  0  0  0  0  0
  130.9642   65.8220   -2.2285 C   0  0  1  0  0  0  0  0  0  0  0  0
  131.7875   66.8619   -1.6918 O   0  0  0  0  0  0  0  0  0  0  0  0
  131.4438   64.4526   -1.7807 C   0  0  1  0  0  0  0  0  0  0  0  0
  132.6765   64.5409   -1.0575 O   0  0  0  0  0  0  0  0  0  0  0  0
  130.3500   63.8957   -0.8769 C   0  0  2  0  0  0  0  0  0  0  0  0
  128.4375   71.1828   -2.0855 O   0  0  0  0  0  0  0  0  0  0  0  0
  130.9989   58.7166   -1.7254 N   0  0  0  0  0  0  0  0  0  0  0  0
  131.8299   59.6036   -1.1419 C   0  0  0  0  0  0  0  0  0  0  0  0
  131.5311   60.9103   -0.9901 N   0  0  0  0  0  0  0  0  0  0  0  0
  130.3494   61.4222   -1.4285 C   0  0  0  0  0  0  0  0  0  0  0  0
  129.3898   60.5112   -2.0771 C   0  0  0  0  0  0  0  0  0  0  0  0
  129.7879   59.0866   -2.2066 C   0  0  0  0  0  0  0  0  0  0  0  0
  128.9629   58.1867   -2.7930 N   0  0  0  0  0  0  0  0  0  0  0  0
  128.3174   61.2495   -2.4106 N   0  0  0  0  0  0  0  0  0  0  0  0
  128.5659   62.5227   -2.0150 C   0  0  0  0  0  0  0  0  0  0  0  0
  129.7751   62.6338   -1.4298 N   0  0  0  0  0  0  0  0  0  0  0  0
  2  1  1  6  0  0  0
  2  3  1  0  0  0  0
  2  5  1  0  0  0  0
  3  4  1  0  0  0  0
  3 16  1  0  0  0  0
  5  6  1  0  0  0  0
  6  7  1  0  0  0  0
  7  8  1  0  0  0  0
  9  8  1  6  0  0  0
  9 10  1  0  0  0  0
  9 11  1  0  0  0  0
 10 15  1  0  0  0  0
 11 12  1  1  0  0  0
 11 13  1  0  0  0  0
 13 14  1  1  0  0  0
 13 15  1  0  0  0  0
 15 26  1  6  0  0  0
 17 18  2  0  0  0  0
 17 22  1  0  0  0  0
 18 19  1  0  0  0  0
 19 20  2  0  0  0  0
 20 21  1  0  0  0  0
 20 26  1  0  0  0  0
 21 22  2  0  0  0  0
 21 24  1  0  0  0  0
 22 23  1  0  0  0  0
 24 25  2  0  0  0  0
 25 26  1  0  0  0  0
M  END
>  <CHROM.1>
16.41887902,59.78323544,-179.17822423,-164.64241350,97.75026072,90.03196420
-166.25657128,129.24328169,65.13230426,-2.23513857,1.85912478,-0.36864112
-0.05194534

>  <Name>
ligand

>  <RI>
0

>  <Rbt.Current_Directory>
/home/itssahil/PROJECTS/Mol_Feturizer/Test_systems_manuscript/rnas/3npn

>  <Rbt.Executable>
rbdock ($Id: //depot/dev/client3/rdock/2013.1/src/exe/rbdock.cxx#4 $)

>  <Rbt.Library>
libRbt.so (2013.1, Build901 2013/11/27)

>  <Rbt.Parameter_File>
/export/apps/rDock/src/rDock_2013.1_src/data/scripts/dock_solv.prm

>  <Rbt.Receptor>
prm/pocket_docking_3.prm

>  <SCORE>
-29.6138

>  <SCORE.INTER>
-30.5916

>  <SCORE.INTER.CONST>
1

>  <SCORE.INTER.POLAR>
0

>  <SCORE.INTER.ROT>
7

>  <SCORE.INTER.SOLV>
27.086

>  <SCORE.INTER.VDW>
-37.6898

>  <SCORE.INTER.norm>
-1.1766

>  <SCORE.INTRA>
0.977851

>  <SCORE.INTRA.DIHEDRAL>
2.99565

>  <SCORE.INTRA.DIHEDRAL.0>
4.37896

>  <SCORE.INTRA.POLAR>
0

>  <SCORE.INTRA.POLAR.0>
0

>  <SCORE.INTRA.REPUL>
0

>  <SCORE.INTRA.REPUL.0>
0

>  <SCORE.INTRA.SOLV>
-0.283903

>  <SCORE.INTRA.SOLV.lig_0>
-50.5538

>  <SCORE.INTRA.VDW>
-0.378023

>  <SCORE.INTRA.VDW.0>
-1.30673

>  <SCORE.INTRA.norm>
0.0376097

>  <SCORE.RESTR>
0

>  <SCORE.RESTR.CAVITY>
0

>  <SCORE.RESTR.norm>
0

>  <SCORE.SYSTEM>
0

>  <SCORE.SYSTEM.CONST>
0

>  <SCORE.SYSTEM.DIHEDRAL>
0

>  <SCORE.SYSTEM.SOLV>
0

>  <SCORE.SYSTEM.norm>
0

>  <SCORE.heavy>
26

>  <SCORE.norm>
-1.13899

>  <RMSD>
1.433

$$$$
ligand
 OpenBabel02271912153D
libRbt.so/2013.1/901 2013/11/27
 26 28  0  0  0  0  0  0  0  0999 V2000
  126.8196   70.2505   -5.7453 N   0  0  0  0  0  0  0  0  0  0  0  0
  126.4797   69.7391   -4.3843 C   0  0  2  0  0  0  0  0  0  0  0  0
  126.3606   70.8730   -3.4071 C   0  0  0  0  0  0  0  0  0  0  0  0
  126.9187   71.9508   -3.6087 O   0  0  0  0  0  0  0  0  0  0  0  0
  127.5493   68.7612   -3.9052 C   0  0  0  0  0  0  0  0  0  0  0  0
  127.7027   67.5420   -4.8092 C   0  0  0  0  0  0  0  0  0  0  0  0
  129.1593   66.6495   -4.3745 S   0  0  0  0  0  0  0  0  0  0  0  0
  128.5874   65.6062   -3.0724 C   0  0  0  0  0  0  0  0  0  0  0  0
  129.4294   65.7688   -1.8081 C   0  0  1  0  0  0  0  0  0  0  0  0
  129.1385   64.7309   -0.8696 O   0  0  0  0  0  0  0  0  0  0  0  0
  130.9088   65.6735   -2.1441 C   0  0  1  0  0  0  0  0  0  0  0  0
  131.6138   66.7707   -1.5556 O   0  0  0  0  0  0  0  0  0  0  0  0
  131.3819   64.3466   -1.5773 C   0  0  1  0  0  0  0  0  0  0  0  0
  132.5070   64.5202   -0.7088 O   0  0  0  0  0  0  0  0  0  0  0  0
  130.2046   63.7768   -0.7947 C   0  0  2  0  0  0  0  0  0  0  0  0
  125.7071   70.7462   -2.3726 O   0  0  0  0  0  0  0  0  0  0  0  0
  131.3762   58.7035   -1.7184 N   0  0  0  0  0  0  0  0  0  0  0  0
  132.1179   59.6650   -1.1325 C   0  0  0  0  0  0  0  0  0  0  0  0
  131.6872   60.9317   -0.9602 N   0  0  0  0  0  0  0  0  0  0  0  0
  130.4535   61.3233   -1.3788 C   0  0  0  0  0  0  0  0  0  0  0  0
  129.5856   60.3255   -2.0287 C   0  0  0  0  0  0  0  0  0  0  0  0
  130.1276   58.9515   -2.1813 C   0  0  0  0  0  0  0  0  0  0  0  0
  129.3931   57.9779   -2.7704 N   0  0  0  0  0  0  0  0  0  0  0  0
  128.4384   60.9523   -2.3406 N   0  0  0  0  0  0  0  0  0  0  0  0
  128.5585   62.2396   -1.9310 C   0  0  0  0  0  0  0  0  0  0  0  0
  129.7568   62.4687   -1.3577 N   0  0  0  0  0  0  0  0  0  0  0  0
  2  1  1  6  0  0  0
  2  3  1  0  0  0  0
  2  5  1  0  0  0  0
  3  4  1  0  0  0  0
  3 16  1  0  0  0  0
  5  6  1  0  0  0  0
  6  7  1  0  0  0  0
  7  8  1  0  0  0  0
  9  8  1  6  0  0  0
  9 10  1  0  0  0  0
  9 11  1  0  0  0  0
 10 15  1  0  0  0  0
 11 12  1  1  0  0  0
 11 13  1  0  0  0  0
 13 14  1  1  0  0  0
 13 15  1  0  0  0  0
 15 26  1  6  0  0  0
 17 18  2  0  0  0  0
 17 22  1  0  0  0  0
 18 19  1  0  0  0  0
 19 20  2  0  0  0  0
 20 21  1  0  0  0  0
 20 26  1  0  0  0  0
 21 22  2  0  0  0  0
 21 24  1  0  0  0  0
 22 23  1  0  0  0  0
 24 25  2  0  0  0  0
 25 26  1  0  0  0  0
M  END
>  <CHROM.1>
-23.13942129,-60.31939098,168.46216095,85.60653740,-125.46677737,-167.82259406
-175.53458459,129.28336303,64.90288684,-2.51579311,1.98201432,-0.58754554
0.00948174

>  <Name>
ligand

>  <RI>
0

>  <Rbt.Current_Directory>
/home/itssahil/PROJECTS/Mol_Feturizer/Test_systems_manuscript/rnas/3npn

>  <Rbt.Executable>
rbdock ($Id: //depot/dev/client3/rdock/2013.1/src/exe/rbdock.cxx#4 $)

>  <Rbt.Library>
libRbt.so (2013.1, Build901 2013/11/27)

>  <Rbt.Parameter_File>
/export/apps/rDock/src/rDock_2013.1_src/data/scripts/dock_solv.prm

>  <Rbt.Receptor>
prm/pocket_docking_4.prm

>  <SCORE>
-26.8978

>  <SCORE.INTER>
-27.7104

>  <SCORE.INTER.CONST>
1

>  <SCORE.INTER.POLAR>
0

>  <SCORE.INTER.ROT>
7

>  <SCORE.INTER.SOLV>
26.8834

>  <SCORE.INTER.VDW>
-35.7014

>  <SCORE.INTER.norm>
-1.06579

>  <SCORE.INTRA>
0.812611

>  <SCORE.INTRA.DIHEDRAL>
2.55091

>  <SCORE.INTRA.DIHEDRAL.0>
4.37896

>  <SCORE.INTRA.POLAR>
0

>  <SCORE.INTRA.POLAR.0>
0

>  <SCORE.INTRA.REPUL>
0

>  <SCORE.INTRA.REPUL.0>
0

>  <SCORE.INTRA.SOLV>
-0.00116954

>  <SCORE.INTRA.SOLV.lig_0>
-50.5538

>  <SCORE.INTRA.VDW>
-0.462261

>  <SCORE.INTRA.VDW.0>
-1.30673

>  <SCORE.INTRA.norm>
0.0312543

>  <SCORE.RESTR>
0

>  <SCORE.RESTR.CAVITY>
0

>  <SCORE.RESTR.norm>
0

>  <SCORE.SYSTEM>
0

>  <SCORE.SYSTEM.CONST>
0

>  <SCORE.SYSTEM.DIHEDRAL>
0

>  <SCORE.SYSTEM.SOLV>
0

>  <SCORE.SYSTEM.norm>
0

>  <SCORE.heavy>
26

>  <SCORE.norm>
-1.03453

>  <RMSD>
1.435

$$$$
ligand
 OpenBabel02271912153D
libRbt.so/2013.1/901 2013/11/27
 26 28  0  0  0  0  0  0  0  0999 V2000
  126.4069   70.3664   -5.4872 N   0  0  0  0  0  0  0  0  0  0  0  0
  126.8154   70.5519   -4.0631 C   0  0  2  0  0  0  0  0  0  0  0  0
  128.2910   70.8128   -3.9652 C   0  0  0  0  0  0  0  0  0  0  0  0
  129.1066   70.0862   -4.5313 O   0  0  0  0  0  0  0  0  0  0  0  0
  126.4598   69.3129   -3.2458 C   0  0  0  0  0  0  0  0  0  0  0  0
  127.0950   68.0330   -3.7804 C   0  0  0  0  0  0  0  0  0  0  0  0
  127.0823   66.7878   -2.5327 S   0  0  0  0  0  0  0  0  0  0  0  0
  128.5671   65.8986   -2.8727 C   0  0  0  0  0  0  0  0  0  0  0  0
  129.5638   66.0029   -1.7197 C   0  0  1  0  0  0  0  0  0  0  0  0
  129.3510   64.9557   -0.7707 O   0  0  0  0  0  0  0  0  0  0  0  0
  130.9860   65.8621   -2.2377 C   0  0  1  0  0  0  0  0  0  0  0  0
  131.7994   66.9201   -1.7219 O   0  0  0  0  0  0  0  0  0  0  0  0
  131.4739   64.5069   -1.7570 C   0  0  1  0  0  0  0  0  0  0  0  0
  132.7031   64.6208   -1.0314 O   0  0  0  0  0  0  0  0  0  0  0  0
  130.3808   63.9626   -0.8449 C   0  0  2  0  0  0  0  0  0  0  0  0
  128.7206   71.7579   -3.3052 O   0  0  0  0  0  0  0  0  0  0  0  0
  131.0964   58.7818   -1.6271 N   0  0  0  0  0  0  0  0  0  0  0  0
  131.9220   59.6898   -1.0687 C   0  0  0  0  0  0  0  0  0  0  0  0
  131.6055   60.9939   -0.9317 N   0  0  0  0  0  0  0  0  0  0  0  0
  130.4100   61.4814   -1.3604 C   0  0  0  0  0  0  0  0  0  0  0  0
  129.4553   60.5467   -1.9817 C   0  0  0  0  0  0  0  0  0  0  0  0
  129.8732   59.1264   -2.0962 C   0  0  0  0  0  0  0  0  0  0  0  0
  129.0538   58.2057   -2.6574 N   0  0  0  0  0  0  0  0  0  0  0  0
  128.3672   61.2637   -2.3103 N   0  0  0  0  0  0  0  0  0  0  0  0
  128.6018   62.5462   -1.9369 C   0  0  0  0  0  0  0  0  0  0  0  0
  129.8174   62.6841   -1.3709 N   0  0  0  0  0  0  0  0  0  0  0  0
  2  1  1  6  0  0  0
  2  3  1  0  0  0  0
  2  5  1  0  0  0  0
  3  4  1  0  0  0  0
  3 16  1  0  0  0  0
  5  6  1  0  0  0  0
  6  7  1  0  0  0  0
  7  8  1  0  0  0  0
  9  8  1  6  0  0  0
  9 10  1  0  0  0  0
  9 11  1  0  0  0  0
 10 15  1  0  0  0  0
 11 12  1  1  0  0  0
 11 13  1  0  0  0  0
 13 14  1  1  0  0  0
 13 15  1  0  0  0  0
 15 26  1  6  0  0  0
 17 18  2  0  0  0  0
 17 22  1  0  0  0  0
 18 19  1  0  0  0  0
 19 20  2  0  0  0  0
 20 21  1  0  0  0  0
 20 26  1  0  0  0  0
 21 22  2  0  0  0  0
 21 24  1  0  0  0  0
 22 23  1  0  0  0  0
 24 25  2  0  0  0  0
 25 26  1  0  0  0  0
M  END
>  <CHROM.1>
-50.03701500,57.58215145,161.59347536,-146.77418075,116.30841588,89.03016239
-167.47931705,129.31835434,65.06747596,-2.37287094,1.86195534,-0.38555492
-0.11371554

>  <Name>
ligand

>  <RI>
0

>  <Rbt.Current_Directory>
/home/itssahil/PROJECTS/Mol_Feturizer/Test_systems_manuscript/rnas/3npn

>  <Rbt.Executable>
rbdock ($Id: //depot/dev/client3/rdock/2013.1/src/exe/rbdock.cxx#4 $)

>  <Rbt.Library>
libRbt.so (2013.1, Build901 2013/11/27)

>  <Rbt.Parameter_File>
/export/apps/rDock/src/rDock_2013.1_src/data/scripts/dock_solv.prm

>  <Rbt.Receptor>
prm/pocket_docking_2.prm

>  <SCORE>
-26.2515

>  <SCORE.INTER>
-28.154

>  <SCORE.INTER.CONST>
1

>  <SCORE.INTER.POLAR>
0

>  <SCORE.INTER.ROT>
7

>  <SCORE.INTER.SOLV>
27.7315

>  <SCORE.INTER.VDW>
-36.2798

>  <SCORE.INTER.norm>
-1.08285

>  <SCORE.INTRA>
1.90256

>  <SCORE.INTRA.DIHEDRAL>
5.77731

>  <SCORE.INTRA.DIHEDRAL.0>
4.37896

>  <SCORE.INTRA.POLAR>
0

>  <SCORE.INTRA.POLAR.0>
0

>  <SCORE.INTRA.REPUL>
0

>  <SCORE.INTRA.REPUL.0>
0

>  <SCORE.INTRA.SOLV>
-0.281641

>  <SCORE.INTRA.SOLV.lig_0>
-50.5538

>  <SCORE.INTRA.VDW>
-0.845281

>  <SCORE.INTRA.VDW.0>
-1.30673

>  <SCORE.INTRA.norm>
0.0731752

>  <SCORE.RESTR>
0

>  <SCORE.RESTR.CAVITY>
0

>  <SCORE.RESTR.norm>
0

>  <SCORE.SYSTEM>
0

>  <SCORE.SYSTEM.CONST>
0

>  <SCORE.SYSTEM.DIHEDRAL>
0

>  <SCORE.SYSTEM.SOLV>
0

>  <SCORE.SYSTEM.norm>
0

>  <SCORE.heavy>
26

>  <SCORE.norm>
-1.00967

>  <RMSD>
1.438

$$$$
ligand
 OpenBabel02271912153D
libRbt.so/2013.1/901 2013/11/27
 26 28  0  0  0  0  0  0  0  0999 V2000
  126.1154   71.6595   -3.5381 N   0  0  0  0  0  0  0  0  0  0  0  0
  126.9802   70.4848   -3.2194 C   0  0  2  0  0  0  0  0  0  0  0  0
  127.7603   70.0577   -4.4295 C   0  0  0  0  0  0  0  0  0  0  0  0
  128.9795   69.9006   -4.3802 O   0  0  0  0  0  0  0  0  0  0  0  0
  126.1276   69.3201   -2.7233 C   0  0  0  0  0  0  0  0  0  0  0  0
  126.9494   68.1719   -2.1457 C   0  0  0  0  0  0  0  0  0  0  0  0
  127.6191   67.1946   -3.4510 S   0  0  0  0  0  0  0  0  0  0  0  0
  128.0479   65.6990   -2.6200 C   0  0  0  0  0  0  0  0  0  0  0  0
  129.2414   65.8945   -1.6867 C   0  0  1  0  0  0  0  0  0  0  0  0
  129.3316   64.8197   -0.7490 O   0  0  0  0  0  0  0  0  0  0  0  0
  130.5362   65.9103   -2.4829 C   0  0  1  0  0  0  0  0  0  0  0  0
  131.3262   67.0421   -2.1058 O   0  0  0  0  0  0  0  0  0  0  0  0
  131.2455   64.6087   -2.1539 C   0  0  1  0  0  0  0  0  0  0  0  0
  132.5781   64.8431   -1.6854 O   0  0  0  0  0  0  0  0  0  0  0  0
  130.4201   63.9416   -1.0599 C   0  0  2  0  0  0  0  0  0  0  0  0
  127.1965   69.8640   -5.5055 O   0  0  0  0  0  0  0  0  0  0  0  0
  131.3372   58.7666   -1.6448 N   0  0  0  0  0  0  0  0  0  0  0  0
  132.1433   59.7342   -1.1635 C   0  0  0  0  0  0  0  0  0  0  0  0
  131.7739   61.0283   -1.0701 N   0  0  0  0  0  0  0  0  0  0  0  0
  130.5405   61.4431   -1.4668 C   0  0  0  0  0  0  0  0  0  0  0  0
  129.6041   60.4402   -2.0040 C   0  0  0  0  0  0  0  0  0  0  0  0
  130.0810   59.0357   -2.0744 C   0  0  0  0  0  0  0  0  0  0  0  0
  129.2815   58.0554   -2.5581 N   0  0  0  0  0  0  0  0  0  0  0  0
  128.4716   61.0933   -2.3157 N   0  0  0  0  0  0  0  0  0  0  0  0
  128.6631   62.4005   -2.0095 C   0  0  0  0  0  0  0  0  0  0  0  0
  129.8939   62.6171   -1.5041 N   0  0  0  0  0  0  0  0  0  0  0  0
  2  1  1  6  0  0  0
  2  3  1  0  0  0  0
  2  5  1  0  0  0  0
  3  4  1  0  0  0  0
  3 16  1  0  0  0  0
  5  6  1  0  0  0  0
  6  7  1  0  0  0  0
  7  8  1  0  0  0  0
  9  8  1  6  0  0  0
  9 10  1  0  0  0  0
  9 11  1  0  0  0  0
 10 15  1  0  0  0  0
 11 12  1  1  0  0  0
 11 13  1  0  0  0  0
 13 14  1  1  0  0  0
 13 15  1  0  0  0  0
 15 26  1  6  0  0  0
 17 18  2  0  0  0  0
 17 22  1  0  0  0  0
 18 19  1  0  0  0  0
 19 20  2  0  0  0  0
 20 21  1  0  0  0  0
 20 26  1  0  0  0  0
 21 22  2  0  0  0  0
 21 24  1  0  0  0  0
 22 23  1  0  0  0  0
 24 25  2  0  0  0  0
 25 26  1  0  0  0  0
M  END
>  <CHROM.1>
128.69368625,-169.81673683,-78.95909297,-162.26637633,-70.34415822,163.04742132
-156.97615943,129.22988372,65.01841227,-2.44943190,1.90755347,-0.29207373
-0.10828536

>  <Name>
ligand

>  <RI>
0

>  <Rbt.Current_Directory>
/home/itssahil/PROJECTS/Mol_Feturizer/Test_systems_manuscript/rnas/3npn

>  <Rbt.Executable>
rbdock ($Id: //depot/dev/client3/rdock/2013.1/src/exe/rbdock.cxx#4 $)

>  <Rbt.Library>
libRbt.so (2013.1, Build901 2013/11/27)

>  <Rbt.Parameter_File>
/export/apps/rDock/src/rDock_2013.1_src/data/scripts/dock_solv.prm

>  <Rbt.Receptor>
prm/pocket_docking_5.prm

>  <SCORE>
-27.9864

>  <SCORE.INTER>
-27.0341

>  <SCORE.INTER.CONST>
1

>  <SCORE.INTER.POLAR>
0

>  <SCORE.INTER.ROT>
7

>  <SCORE.INTER.SOLV>
27.6741

>  <SCORE.INTER.VDW>
-35.5141

>  <SCORE.INTER.norm>
-1.03977

>  <SCORE.INTRA>
-0.952317

>  <SCORE.INTRA.DIHEDRAL>
1.56778

>  <SCORE.INTRA.DIHEDRAL.0>
4.37896

>  <SCORE.INTRA.POLAR>
0

>  <SCORE.INTRA.POLAR.0>
0

>  <SCORE.INTRA.REPUL>
0

>  <SCORE.INTRA.REPUL.0>
0

>  <SCORE.INTRA.SOLV>
-0.673738

>  <SCORE.INTRA.SOLV.lig_0>
-50.5538

>  <SCORE.INTRA.VDW>
-1.39934

>  <SCORE.INTRA.VDW.0>
-1.30673

>  <SCORE.INTRA.norm>
-0.0366276

>  <SCORE.RESTR>
0

>  <SCORE.RESTR.CAVITY>
0

>  <SCORE.RESTR.norm>
0

>  <SCORE.SYSTEM>
0

>  <SCORE.SYSTEM.CONST>
0

>  <SCORE.SYSTEM.DIHEDRAL>
0

>  <SCORE.SYSTEM.SOLV>
0

>  <SCORE.SYSTEM.norm>
0

>  <SCORE.heavy>
26

>  <SCORE.norm>
-1.0764

>  <RMSD>
1.439

$$$$
ligand
 OpenBabel02271912153D
libRbt.so/2013.1/901 2013/11/27
 26 28  0  0  0  0  0  0  0  0999 V2000
  126.3757   70.5812   -4.9741 N   0  0  0  0  0  0  0  0  0  0  0  0
  126.5836   70.7552   -3.5058 C   0  0  2  0  0  0  0  0  0  0  0  0
  127.9527   71.3052   -3.2263 C   0  0  0  0  0  0  0  0  0  0  0  0
  128.5915   71.8989   -4.0942 O   0  0  0  0  0  0  0  0  0  0  0  0
  126.4120   69.4202   -2.7861 C   0  0  0  0  0  0  0  0  0  0  0  0
  127.3923   68.3497   -3.2555 C   0  0  0  0  0  0  0  0  0  0  0  0
  127.0239   66.8123   -2.4758 S   0  0  0  0  0  0  0  0  0  0  0  0
  128.4665   65.8586   -2.8230 C   0  0  0  0  0  0  0  0  0  0  0  0
  129.4922   65.9559   -1.6951 C   0  0  1  0  0  0  0  0  0  0  0  0
  129.3195   64.8883   -0.7608 O   0  0  0  0  0  0  0  0  0  0  0  0
  130.9017   65.8454   -2.2533 C   0  0  1  0  0  0  0  0  0  0  0  0
  131.7139   66.9052   -1.7392 O   0  0  0  0  0  0  0  0  0  0  0  0
  131.4214   64.4887   -1.8116 C   0  0  1  0  0  0  0  0  0  0  0  0
  132.6678   64.6069   -1.1168 O   0  0  0  0  0  0  0  0  0  0  0  0
  130.3609   63.9117   -0.8812 C   0  0  2  0  0  0  0  0  0  0  0  0
  128.4736   71.1651   -2.1208 O   0  0  0  0  0  0  0  0  0  0  0  0
  131.0853   58.7353   -1.6835 N   0  0  0  0  0  0  0  0  0  0  0  0
  131.9070   59.6413   -1.1163 C   0  0  0  0  0  0  0  0  0  0  0  0
  131.5887   60.9445   -0.9750 N   0  0  0  0  0  0  0  0  0  0  0  0
  130.3951   61.4330   -1.4080 C   0  0  0  0  0  0  0  0  0  0  0  0
  129.4447   60.5003   -2.0389 C   0  0  0  0  0  0  0  0  0  0  0  0
  129.8644   59.0809   -2.1577 C   0  0  0  0  0  0  0  0  0  0  0  0
  129.0489   58.1621   -2.7277 N   0  0  0  0  0  0  0  0  0  0  0  0
  128.3577   61.2179   -2.3702 N   0  0  0  0  0  0  0  0  0  0  0  0
  128.5891   62.4988   -1.9895 C   0  0  0  0  0  0  0  0  0  0  0  0
  129.8015   62.6352   -1.4162 N   0  0  0  0  0  0  0  0  0  0  0  0
  2  1  1  6  0  0  0
  2  3  1  0  0  0  0
  2  5  1  0  0  0  0
  3  4  1  0  0  0  0
  3 16  1  0  0  0  0
  5  6  1  0  0  0  0
  6  7  1  0  0  0  0
  7  8  1  0  0  0  0
  9  8  1  6  0  0  0
  9 10  1  0  0  0  0
  9 11  1  0  0  0  0
 10 15  1  0  0  0  0
 11 12  1  1  0  0  0
 11 13  1  0  0  0  0
 13 14  1  1  0  0  0
 13 15  1  0  0  0  0
 15 26  1  6  0  0  0
 17 18  2  0  0  0  0
 17 22  1  0  0  0  0
 18 19  1  0  0  0  0
 19 20  2  0  0  0  0
 20 21  1  0  0  0  0
 20 26  1  0  0  0  0
 21 22  2  0  0  0  0
 21 24  1  0  0  0  0
 22 23  1  0  0  0  0
 24 25  2  0  0  0  0
 25 26  1  0  0  0  0
M  END
>  <CHROM.1>
20.75352679,59.88485843,-174.94947603,-166.44186848,93.27501432,93.01491871
-165.32256956,129.24783660,65.14174583,-2.22370290,1.86243756,-0.35278074
-0.05699766

>  <Name>
ligand

>  <RI>
0

>  <Rbt.Current_Directory>
/home/itssahil/PROJECTS/Mol_Feturizer/Test_systems_manuscript/rnas/3npn

>  <Rbt.Executable>
rbdock ($Id: //depot/dev/client3/rdock/2013.1/src/exe/rbdock.cxx#4 $)

>  <Rbt.Library>
libRbt.so (2013.1, Build901 2013/11/27)

>  <Rbt.Parameter_File>
/export/apps/rDock/src/rDock_2013.1_src/data/scripts/dock_solv.prm

>  <Rbt.Receptor>
prm/pocket_docking_4.prm

>  <SCORE>
-29.5464

>  <SCORE.INTER>
-30.7139

>  <SCORE.INTER.CONST>
1

>  <SCORE.INTER.POLAR>
0

>  <SCORE.INTER.ROT>
7

>  <SCORE.INTER.SOLV>
26.6768

>  <SCORE.INTER.VDW>
-37.6348

>  <SCORE.INTER.norm>
-1.1813

>  <SCORE.INTRA>
1.16747

>  <SCORE.INTRA.DIHEDRAL>
3.15526

>  <SCORE.INTRA.DIHEDRAL.0>
4.37896

>  <SCORE.INTRA.POLAR>
0

>  <SCORE.INTRA.POLAR.0>
0

>  <SCORE.INTRA.REPUL>
0

>  <SCORE.INTRA.REPUL.0>
0

>  <SCORE.INTRA.SOLV>
-0.266593

>  <SCORE.INTRA.SOLV.lig_0>
-50.5538

>  <SCORE.INTRA.VDW>
-0.276859

>  <SCORE.INTRA.VDW.0>
-1.30673

>  <SCORE.INTRA.norm>
0.0449028

>  <SCORE.RESTR>
0

>  <SCORE.RESTR.CAVITY>
0

>  <SCORE.RESTR.norm>
0

>  <SCORE.SYSTEM>
0

>  <SCORE.SYSTEM.CONST>
0

>  <SCORE.SYSTEM.DIHEDRAL>
0

>  <SCORE.SYSTEM.SOLV>
0

>  <SCORE.SYSTEM.norm>
0

>  <SCORE.heavy>
26

>  <SCORE.norm>
-1.1364

>  <RMSD>
1.443

$$$$
ligand
 OpenBabel02271912153D
libRbt.so/2013.1/901 2013/11/27
 26 28  0  0  0  0  0  0  0  0999 V2000
  125.9229   71.6111   -3.5216 N   0  0  0  0  0  0  0  0  0  0  0  0
  126.8801   70.4979   -3.2501 C   0  0  2  0  0  0  0  0  0  0  0  0
  127.5871   70.0883   -4.5101 C   0  0  0  0  0  0  0  0  0  0  0  0
  128.8011   69.8890   -4.5248 O   0  0  0  0  0  0  0  0  0  0  0  0
  126.1416   69.2972   -2.6646 C   0  0  0  0  0  0  0  0  0  0  0  0
  127.0746   68.2229   -2.1142 C   0  0  0  0  0  0  0  0  0  0  0  0
  127.6002   67.1571   -3.4162 S   0  0  0  0  0  0  0  0  0  0  0  0
  128.0128   65.6778   -2.5486 C   0  0  0  0  0  0  0  0  0  0  0  0
  129.2244   65.8761   -1.6397 C   0  0  1  0  0  0  0  0  0  0  0  0
  129.3492   64.7902   -0.7189 O   0  0  0  0  0  0  0  0  0  0  0  0
  130.5007   65.9191   -2.4643 C   0  0  1  0  0  0  0  0  0  0  0  0
  131.2848   67.0558   -2.0896 O   0  0  0  0  0  0  0  0  0  0  0  0
  131.2335   64.6224   -2.1690 C   0  0  1  0  0  0  0  0  0  0  0  0
  132.5732   64.8675   -1.7272 O   0  0  0  0  0  0  0  0  0  0  0  0
  130.4413   63.9303   -1.0659 C   0  0  2  0  0  0  0  0  0  0  0  0
  126.9671   69.9518   -5.5637 O   0  0  0  0  0  0  0  0  0  0  0  0
  131.3740   58.7577   -1.6476 N   0  0  0  0  0  0  0  0  0  0  0  0
  132.1738   59.7265   -1.1581 C   0  0  0  0  0  0  0  0  0  0  0  0
  131.8009   61.0197   -1.0667 N   0  0  0  0  0  0  0  0  0  0  0  0
  130.5704   61.4324   -1.4742 C   0  0  0  0  0  0  0  0  0  0  0  0
  129.6410   60.4282   -2.0209 C   0  0  0  0  0  0  0  0  0  0  0  0
  130.1213   59.0247   -2.0883 C   0  0  0  0  0  0  0  0  0  0  0  0
  129.3282   58.0433   -2.5803 N   0  0  0  0  0  0  0  0  0  0  0  0
  128.5101   61.0793   -2.3422 N   0  0  0  0  0  0  0  0  0  0  0  0
  128.6961   62.3867   -2.0331 C   0  0  0  0  0  0  0  0  0  0  0  0
  129.9218   62.6051   -1.5162 N   0  0  0  0  0  0  0  0  0  0  0  0
  2  1  1  6  0  0  0
  2  3  1  0  0  0  0
  2  5  1  0  0  0  0
  3  4  1  0  0  0  0
  3 16  1  0  0  0  0
  5  6  1  0  0  0  0
  6  7  1  0  0  0  0
  7  8  1  0  0  0  0
  9  8  1  6  0  0  0
  9 10  1  0  0  0  0
  9 11  1  0  0  0  0
 10 15  1  0  0  0  0
 11 12  1  1  0  0  0
 11 13  1  0  0  0  0
 13 14  1  1  0  0  0
 13 15  1  0  0  0  0
 15 26  1  6  0  0  0
 17 18  2  0  0  0  0
 17 22  1  0  0  0  0
 18 19  1  0  0  0  0
 19 20  2  0  0  0  0
 20 21  1  0  0  0  0
 20 26  1  0  0  0  0
 21 22  2  0  0  0  0
 21 24  1  0  0  0  0
 22 23  1  0  0  0  0
 24 25  2  0  0  0  0
 25 26  1  0  0  0  0
M  END
>  <CHROM.1>
135.25866535,-168.99403698,-84.19129392,-155.89361392,-66.61544977,166.12883450
-154.94130355,129.20791699,65.01462011,-2.45440683,1.92364699,-0.31263679
-0.09798580

>  <Name>
ligand

>  <RI>
0

>  <Rbt.Current_Directory>
/home/itssahil/PROJECTS/Mol_Feturizer/Test_systems_manuscript/rnas/3npn

>  <Rbt.Executable>
rbdock ($Id: //depot/dev/client3/rdock/2013.1/src/exe/rbdock.cxx#4 $)

>  <Rbt.Library>
libRbt.so (2013.1, Build901 2013/11/27)

>  <Rbt.Parameter_File>
/export/apps/rDock/src/rDock_2013.1_src/data/scripts/dock_solv.prm

>  <Rbt.Receptor>
prm/pocket_docking_5.prm

>  <SCORE>
-28.0498

>  <SCORE.INTER>
-27.3068

>  <SCORE.INTER.CONST>
1

>  <SCORE.INTER.POLAR>
0

>  <SCORE.INTER.ROT>
7

>  <SCORE.INTER.SOLV>
27.8187

>  <SCORE.INTER.VDW>
-35.7441

>  <SCORE.INTER.norm>
-1.05026

>  <SCORE.INTRA>
-0.743034

>  <SCORE.INTRA.DIHEDRAL>
2.26948

>  <SCORE.INTRA.DIHEDRAL.0>
4.37896

>  <SCORE.INTRA.POLAR>
0

>  <SCORE.INTRA.POLAR.0>
0

>  <SCORE.INTRA.REPUL>
0

>  <SCORE.INTRA.REPUL.0>
0

>  <SCORE.INTRA.SOLV>
-0.656586

>  <SCORE.INTRA.SOLV.lig_0>
-50.5538

>  <SCORE.INTRA.VDW>
-1.54948

>  <SCORE.INTRA.VDW.0>
-1.30673

>  <SCORE.INTRA.norm>
-0.0285782

>  <SCORE.RESTR>
0

>  <SCORE.RESTR.CAVITY>
0

>  <SCORE.RESTR.norm>
0

>  <SCORE.SYSTEM>
0

>  <SCORE.SYSTEM.CONST>
0

>  <SCORE.SYSTEM.DIHEDRAL>
0

>  <SCORE.SYSTEM.SOLV>
0

>  <SCORE.SYSTEM.norm>
0

>  <SCORE.heavy>
26

>  <SCORE.norm>
-1.07884

>  <RMSD>
1.447

$$$$
ligand
 OpenBabel02271912153D
libRbt.so/2013.1/901 2013/11/27
 26 28  0  0  0  0  0  0  0  0999 V2000
  126.7636   70.3257   -5.8649 N   0  0  0  0  0  0  0  0  0  0  0  0
  126.7692   69.8058   -4.4653 C   0  0  2  0  0  0  0  0  0  0  0  0
  126.3508   70.8779   -3.5005 C   0  0  0  0  0  0  0  0  0  0  0  0
  125.7539   70.6030   -2.4604 O   0  0  0  0  0  0  0  0  0  0  0  0
  128.1609   69.2997   -4.0954 C   0  0  0  0  0  0  0  0  0  0  0  0
  128.2342   67.7827   -3.9515 C   0  0  0  0  0  0  0  0  0  0  0  0
  127.2184   67.2552   -2.6109 S   0  0  0  0  0  0  0  0  0  0  0  0
  127.9496   65.7123   -2.1686 C   0  0  0  0  0  0  0  0  0  0  0  0
  129.2773   65.9059   -1.4382 C   0  0  1  0  0  0  0  0  0  0  0  0
  129.5509   64.7943   -0.5826 O   0  0  0  0  0  0  0  0  0  0  0  0
  130.4195   66.0004   -2.4368 C   0  0  1  0  0  0  0  0  0  0  0  0
  131.2324   67.1401   -2.1410 O   0  0  0  0  0  0  0  0  0  0  0  0
  131.2070   64.7099   -2.2949 C   0  0  1  0  0  0  0  0  0  0  0  0
  132.5928   64.9677   -2.0434 O   0  0  0  0  0  0  0  0  0  0  0  0
  130.5939   63.9677   -1.1131 C   0  0  2  0  0  0  0  0  0  0  0  0
  126.5876   72.0622   -3.7342 O   0  0  0  0  0  0  0  0  0  0  0  0
  131.3884   58.7626   -1.6022 N   0  0  0  0  0  0  0  0  0  0  0  0
  132.2195   59.7205   -1.1445 C   0  0  0  0  0  0  0  0  0  0  0  0
  131.8804   61.0243   -1.0742 N   0  0  0  0  0  0  0  0  0  0  0  0
  130.6545   61.4597   -1.4719 C   0  0  0  0  0  0  0  0  0  0  0  0
  129.6920   60.4684   -1.9841 C   0  0  0  0  0  0  0  0  0  0  0  0
  130.1361   59.0522   -2.0298 C   0  0  0  0  0  0  0  0  0  0  0  0
  129.3114   58.0814   -2.4898 N   0  0  0  0  0  0  0  0  0  0  0  0
  128.5729   61.1413   -2.3020 N   0  0  0  0  0  0  0  0  0  0  0  0
  128.7963   62.4495   -2.0225 C   0  0  0  0  0  0  0  0  0  0  0  0
  130.0347   62.6473   -1.5284 N   0  0  0  0  0  0  0  0  0  0  0  0
  2  1  1  6  0  0  0
  2  3  1  0  0  0  0
  2  5  1  0  0  0  0
  3  4  1  0  0  0  0
  3 16  1  0  0  0  0
  5  6  1  0  0  0  0
  6  7  1  0  0  0  0
  7  8  1  0  0  0  0
  9  8  1  6  0  0  0
  9 10  1  0  0  0  0
  9 11  1  0  0  0  0
 10 15  1  0  0  0  0
 11 12  1  1  0  0  0
 11 13  1  0  0  0  0
 13 14  1  1  0  0  0
 13 15  1  0  0  0  0
 15 26  1  6  0  0  0
 17 18  2  0  0  0  0
 17 22  1  0  0  0  0
 18 19  1  0  0  0  0
 19 20  2  0  0  0  0
 20 21  1  0  0  0  0
 20 26  1  0  0  0  0
 21 22  2  0  0  0  0
 21 24  1  0  0  0  0
 22 23  1  0  0  0  0
 24 25  2  0  0  0  0
 25 26  1  0  0  0  0
M  END
>  <CHROM.1>
148.97202567,-110.21646790,-64.06895804,-156.26311311,73.74812316,153.70113887
-146.50626071,129.16313104,65.10836868,-2.42303817,1.94459350,-0.30221236
-0.08937329

>  <Name>
ligand

>  <RI>
0

>  <Rbt.Current_Directory>
/home/itssahil/PROJECTS/Mol_Feturizer/Test_systems_manuscript/rnas/3npn

>  <Rbt.Executable>
rbdock ($Id: //depot/dev/client3/rdock/2013.1/src/exe/rbdock.cxx#4 $)

>  <Rbt.Library>
libRbt.so (2013.1, Build901 2013/11/27)

>  <Rbt.Parameter_File>
/export/apps/rDock/src/rDock_2013.1_src/data/scripts/dock_solv.prm

>  <Rbt.Receptor>
prm/pocket_docking_2.prm

>  <SCORE>
-26.3549

>  <SCORE.INTER>
-28.2671

>  <SCORE.INTER.CONST>
1

>  <SCORE.INTER.POLAR>
0

>  <SCORE.INTER.ROT>
7

>  <SCORE.INTER.SOLV>
27.1544

>  <SCORE.INTER.VDW>
-36.1628

>  <SCORE.INTER.norm>
-1.0872

>  <SCORE.INTRA>
1.84192

>  <SCORE.INTRA.DIHEDRAL>
7.09667

>  <SCORE.INTRA.DIHEDRAL.0>
4.37896

>  <SCORE.INTRA.POLAR>
0

>  <SCORE.INTRA.POLAR.0>
0

>  <SCORE.INTRA.REPUL>
0

>  <SCORE.INTRA.REPUL.0>
0

>  <SCORE.INTRA.SOLV>
-0.230361

>  <SCORE.INTRA.SOLV.lig_0>
-50.5538

>  <SCORE.INTRA.VDW>
-1.59124

>  <SCORE.INTRA.VDW.0>
-1.30673

>  <SCORE.INTRA.norm>
0.070843

>  <SCORE.RESTR>
0.0702722

>  <SCORE.RESTR.CAVITY>
0.0702722

>  <SCORE.RESTR.norm>
0.00270278

>  <SCORE.SYSTEM>
0

>  <SCORE.SYSTEM.CONST>
0

>  <SCORE.SYSTEM.DIHEDRAL>
0

>  <SCORE.SYSTEM.SOLV>
0

>  <SCORE.SYSTEM.norm>
0

>  <SCORE.heavy>
26

>  <SCORE.norm>
-1.01365

>  <RMSD>
1.450

$$$$
ligand
 OpenBabel02271912153D
libRbt.so/2013.1/901 2013/11/27
 26 28  0  0  0  0  0  0  0  0999 V2000
  125.5882   69.8960   -2.0780 N   0  0  0  0  0  0  0  0  0  0  0  0
  126.9715   70.0531   -2.6177 C   0  0  2  0  0  0  0  0  0  0  0  0
  127.0682   71.2804   -3.4777 C   0  0  0  0  0  0  0  0  0  0  0  0
  126.0655   71.9209   -3.7909 O   0  0  0  0  0  0  0  0  0  0  0  0
  127.3626   68.8243   -3.4342 C   0  0  0  0  0  0  0  0  0  0  0  0
  127.5439   67.5682   -2.5876 C   0  0  0  0  0  0  0  0  0  0  0  0
  128.2419   66.2784   -3.5656 S   0  0  0  0  0  0  0  0  0  0  0  0
  128.3962   64.9634   -2.4002 C   0  0  0  0  0  0  0  0  0  0  0  0
  129.5409   65.2104   -1.4192 C   0  0  1  0  0  0  0  0  0  0  0  0
  129.6790   64.1115   -0.5160 O   0  0  0  0  0  0  0  0  0  0  0  0
  130.8565   65.3488   -2.1681 C   0  0  1  0  0  0  0  0  0  0  0  0
  131.5484   66.5202   -1.7251 O   0  0  0  0  0  0  0  0  0  0  0  0
  131.6483   64.0906   -1.8587 C   0  0  1  0  0  0  0  0  0  0  0  0
  132.9440   64.4034   -1.3356 O   0  0  0  0  0  0  0  0  0  0  0  0
  130.8387   63.3262   -0.8179 C   0  0  2  0  0  0  0  0  0  0  0  0
  128.1564   71.6695   -3.8989 O   0  0  0  0  0  0  0  0  0  0  0  0
  132.1253   58.2403   -1.4830 N   0  0  0  0  0  0  0  0  0  0  0  0
  132.8383   59.2432   -0.9320 C   0  0  0  0  0  0  0  0  0  0  0  0
  132.3799   60.5075   -0.8263 N   0  0  0  0  0  0  0  0  0  0  0  0
  131.1455   60.8536   -1.2816 C   0  0  0  0  0  0  0  0  0  0  0  0
  130.3082   59.8088   -1.8967 C   0  0  0  0  0  0  0  0  0  0  0  0
  130.8796   58.4405   -1.9760 C   0  0  0  0  0  0  0  0  0  0  0  0
  130.1742   57.4255   -2.5295 N   0  0  0  0  0  0  0  0  0  0  0  0
  129.1540   60.3966   -2.2552 N   0  0  0  0  0  0  0  0  0  0  0  0
  129.2418   61.7039   -1.9051 C   0  0  0  0  0  0  0  0  0  0  0  0
  130.4260   61.9842   -1.3252 N   0  0  0  0  0  0  0  0  0  0  0  0
  2  1  1  6  0  0  0
  2  3  1  0  0  0  0
  2  5  1  0  0  0  0
  3  4  1  0  0  0  0
  3 16  1  0  0  0  0
  5  6  1  0  0  0  0
  6  7  1  0  0  0  0
  7  8  1  0  0  0  0
  9  8  1  6  0  0  0
  9 10  1  0  0  0  0
  9 11  1  0  0  0  0
 10 15  1  0  0  0  0
 11 12  1  1  0  0  0
 11 13  1  0  0  0  0
 13 14  1  1  0  0  0
 13 15  1  0  0  0  0
 15 26  1  6  0  0  0
 17 18  2  0  0  0  0
 17 22  1  0  0  0  0
 18 19  1  0  0  0  0
 19 20  2  0  0  0  0
 20 21  1  0  0  0  0
 20 26  1  0  0  0  0
 21 22  2  0  0  0  0
 21 24  1  0  0  0  0
 22 23  1  0  0  0  0
 24 25  2  0  0  0  0
 25 26  1  0  0  0  0
M  END
>  <CHROM.1>
-8.52593862,-68.59590379,-170.87886827,178.72142632,-73.57364845,-177.88483892
-155.58027287,129.56778844,64.63098367,-2.16635840,1.96207219,-0.32119061
-0.03007063

>  <Name>
ligand

>  <RI>
0

>  <Rbt.Current_Directory>
/home/itssahil/PROJECTS/Mol_Feturizer/Test_systems_manuscript/rnas/3npn

>  <Rbt.Executable>
rbdock ($Id: //depot/dev/client3/rdock/2013.1/src/exe/rbdock.cxx#4 $)

>  <Rbt.Library>
libRbt.so (2013.1, Build901 2013/11/27)

>  <Rbt.Parameter_File>
/export/apps/rDock/src/rDock_2013.1_src/data/scripts/dock_solv.prm

>  <Rbt.Receptor>
prm/pocket_docking_4.prm

>  <SCORE>
-26.7986

>  <SCORE.INTER>
-25.5148

>  <SCORE.INTER.CONST>
1

>  <SCORE.INTER.POLAR>
0

>  <SCORE.INTER.ROT>
7

>  <SCORE.INTER.SOLV>
23.1101

>  <SCORE.INTER.VDW>
-32.9799

>  <SCORE.INTER.norm>
-0.981338

>  <SCORE.INTRA>
-1.28378

>  <SCORE.INTRA.DIHEDRAL>
-0.797794

>  <SCORE.INTRA.DIHEDRAL.0>
4.37896

>  <SCORE.INTRA.POLAR>
0

>  <SCORE.INTRA.POLAR.0>
0

>  <SCORE.INTRA.REPUL>
0

>  <SCORE.INTRA.REPUL.0>
0

>  <SCORE.INTRA.SOLV>
-0.144995

>  <SCORE.INTRA.SOLV.lig_0>
-50.5538

>  <SCORE.INTRA.VDW>
-0.812386

>  <SCORE.INTRA.VDW.0>
-1.30673

>  <SCORE.INTRA.norm>
-0.0493762

>  <SCORE.RESTR>
0

>  <SCORE.RESTR.CAVITY>
0

>  <SCORE.RESTR.norm>
0

>  <SCORE.SYSTEM>
0

>  <SCORE.SYSTEM.CONST>
0

>  <SCORE.SYSTEM.DIHEDRAL>
0

>  <SCORE.SYSTEM.SOLV>
0

>  <SCORE.SYSTEM.norm>
0

>  <SCORE.heavy>
26

>  <SCORE.norm>
-1.03071

>  <RMSD>
1.454

$$$$
ligand
 OpenBabel02271912153D
libRbt.so/2013.1/901 2013/11/27
 26 28  0  0  0  0  0  0  0  0999 V2000
  126.4345   70.5875   -5.0933 N   0  0  0  0  0  0  0  0  0  0  0  0
  126.5881   70.8290   -3.6279 C   0  0  2  0  0  0  0  0  0  0  0  0
  127.9460   71.3935   -3.3237 C   0  0  0  0  0  0  0  0  0  0  0  0
  128.5683   72.0458   -4.1609 O   0  0  0  0  0  0  0  0  0  0  0  0
  126.3900   69.5281   -2.8545 C   0  0  0  0  0  0  0  0  0  0  0  0
  127.3582   68.4245   -3.2694 C   0  0  0  0  0  0  0  0  0  0  0  0
  126.9339   66.9162   -2.4617 S   0  0  0  0  0  0  0  0  0  0  0  0
  128.3280   65.8948   -2.8146 C   0  0  0  0  0  0  0  0  0  0  0  0
  129.4107   66.0289   -1.7453 C   0  0  1  0  0  0  0  0  0  0  0  0
  129.3182   64.9651   -0.7954 O   0  0  0  0  0  0  0  0  0  0  0  0
  130.7902   65.9510   -2.3791 C   0  0  1  0  0  0  0  0  0  0  0  0
  131.6004   67.0364   -1.9178 O   0  0  0  0  0  0  0  0  0  0  0  0
  131.3695   64.6124   -1.9569 C   0  0  1  0  0  0  0  0  0  0  0  0
  132.6484   64.7695   -1.3324 O   0  0  0  0  0  0  0  0  0  0  0  0
  130.3773   64.0155   -0.9657 C   0  0  2  0  0  0  0  0  0  0  0  0
  128.4741   71.2071   -2.2284 O   0  0  0  0  0  0  0  0  0  0  0  0
  131.1385   58.8249   -1.6309 N   0  0  0  0  0  0  0  0  0  0  0  0
  131.9574   59.7530   -1.0963 C   0  0  0  0  0  0  0  0  0  0  0  0
  131.6292   61.0570   -0.9882 N   0  0  0  0  0  0  0  0  0  0  0  0
  130.4279   61.5235   -1.4241 C   0  0  0  0  0  0  0  0  0  0  0  0
  129.4800   60.5659   -2.0205 C   0  0  0  0  0  0  0  0  0  0  0  0
  129.9107   59.1472   -2.1036 C   0  0  0  0  0  0  0  0  0  0  0  0
  129.0981   58.2063   -2.6408 N   0  0  0  0  0  0  0  0  0  0  0  0
  128.3842   61.2651   -2.3619 N   0  0  0  0  0  0  0  0  0  0  0  0
  128.6081   62.5580   -2.0189 C   0  0  0  0  0  0  0  0  0  0  0  0
  129.8241   62.7201   -1.4603 N   0  0  0  0  0  0  0  0  0  0  0  0
  2  1  1  6  0  0  0
  2  3  1  0  0  0  0
  2  5  1  0  0  0  0
  3  4  1  0  0  0  0
  3 16  1  0  0  0  0
  5  6  1  0  0  0  0
  6  7  1  0  0  0  0
  7  8  1  0  0  0  0
  9  8  1  6  0  0  0
  9 10  1  0  0  0  0
  9 11  1  0  0  0  0
 10 15  1  0  0  0  0
 11 12  1  1  0  0  0
 11 13  1  0  0  0  0
 13 14  1  1  0  0  0
 13 15  1  0  0  0  0
 15 26  1  6  0  0  0
 17 18  2  0  0  0  0
 17 22  1  0  0  0  0
 18 19  1  0  0  0  0
 19 20  2  0  0  0  0
 20 21  1  0  0  0  0
 20 26  1  0  0  0  0
 21 22  2  0  0  0  0
 21 24  1  0  0  0  0
 22 23  1  0  0  0  0
 24 25  2  0  0  0  0
 25 26  1  0  0  0  0
M  END
>  <CHROM.1>
26.96150087,58.04674469,-173.46864111,-169.20838859,89.75545862,97.68144305
-162.26219743,129.23345305,65.22907242,-2.27197920,1.86191289,-0.32057056
-0.07427749

>  <Name>
ligand

>  <RI>
0

>  <Rbt.Current_Directory>
/home/itssahil/PROJECTS/Mol_Feturizer/Test_systems_manuscript/rnas/3npn

>  <Rbt.Executable>
rbdock ($Id: //depot/dev/client3/rdock/2013.1/src/exe/rbdock.cxx#4 $)

>  <Rbt.Library>
libRbt.so (2013.1, Build901 2013/11/27)

>  <Rbt.Parameter_File>
/export/apps/rDock/src/rDock_2013.1_src/data/scripts/dock_solv.prm

>  <Rbt.Receptor>
prm/pocket_docking_3.prm

>  <SCORE>
-29.2888

>  <SCORE.INTER>
-30.7779

>  <SCORE.INTER.CONST>
1

>  <SCORE.INTER.POLAR>
0

>  <SCORE.INTER.ROT>
7

>  <SCORE.INTER.SOLV>
26.5207

>  <SCORE.INTER.VDW>
-37.6255

>  <SCORE.INTER.norm>
-1.18376

>  <SCORE.INTRA>
1.48905

>  <SCORE.INTRA.DIHEDRAL>
3.53327

>  <SCORE.INTRA.DIHEDRAL.0>
4.37896

>  <SCORE.INTRA.POLAR>
0

>  <SCORE.INTRA.POLAR.0>
0

>  <SCORE.INTRA.REPUL>
0

>  <SCORE.INTRA.REPUL.0>
0

>  <SCORE.INTRA.SOLV>
-0.2469

>  <SCORE.INTRA.SOLV.lig_0>
-50.5538

>  <SCORE.INTRA.VDW>
-0.154131

>  <SCORE.INTRA.VDW.0>
-1.30673

>  <SCORE.INTRA.norm>
0.0572713

>  <SCORE.RESTR>
0

>  <SCORE.RESTR.CAVITY>
0

>  <SCORE.RESTR.norm>
0

>  <SCORE.SYSTEM>
0

>  <SCORE.SYSTEM.CONST>
0

>  <SCORE.SYSTEM.DIHEDRAL>
0

>  <SCORE.SYSTEM.SOLV>
0

>  <SCORE.SYSTEM.norm>
0

>  <SCORE.heavy>
26

>  <SCORE.norm>
-1.12649

>  <RMSD>
1.474

$$$$
ligand
 OpenBabel02271912153D
libRbt.so/2013.1/901 2013/11/27
 26 28  0  0  0  0  0  0  0  0999 V2000
  126.4598   70.8870   -4.6350 N   0  0  0  0  0  0  0  0  0  0  0  0
  126.7818   70.8060   -3.1793 C   0  0  2  0  0  0  0  0  0  0  0  0
  128.2355   71.0982   -2.9415 C   0  0  0  0  0  0  0  0  0  0  0  0
  128.8403   71.9247   -3.6233 O   0  0  0  0  0  0  0  0  0  0  0  0
  126.4442   69.4186   -2.6400 C   0  0  0  0  0  0  0  0  0  0  0  0
  127.0719   68.2866   -3.4474 C   0  0  0  0  0  0  0  0  0  0  0  0
  126.9835   66.7784   -2.5392 S   0  0  0  0  0  0  0  0  0  0  0  0
  128.5343   66.0241   -2.9098 C   0  0  0  0  0  0  0  0  0  0  0  0
  129.5088   66.1329   -1.7383 C   0  0  1  0  0  0  0  0  0  0  0  0
  129.2818   65.0857   -0.7926 O   0  0  0  0  0  0  0  0  0  0  0  0
  130.9409   65.9966   -2.2295 C   0  0  1  0  0  0  0  0  0  0  0  0
  131.7409   67.0579   -1.6993 O   0  0  0  0  0  0  0  0  0  0  0  0
  131.4245   64.6436   -1.7385 C   0  0  1  0  0  0  0  0  0  0  0  0
  132.6394   64.7624   -0.9901 O   0  0  0  0  0  0  0  0  0  0  0  0
  130.3164   64.0961   -0.8465 C   0  0  2  0  0  0  0  0  0  0  0  0
  128.8604   70.5076   -2.0618 O   0  0  0  0  0  0  0  0  0  0  0  0
  131.0893   58.9291   -1.6642 N   0  0  0  0  0  0  0  0  0  0  0  0
  131.9045   59.8421   -1.0988 C   0  0  0  0  0  0  0  0  0  0  0  0
  131.5736   61.1418   -0.9530 N   0  0  0  0  0  0  0  0  0  0  0  0
  130.3732   61.6191   -1.3793 C   0  0  0  0  0  0  0  0  0  0  0  0
  129.4293   60.6783   -2.0079 C   0  0  0  0  0  0  0  0  0  0  0  0
  129.8628   59.2635   -2.1319 C   0  0  0  0  0  0  0  0  0  0  0  0
  129.0539   58.3378   -2.7002 N   0  0  0  0  0  0  0  0  0  0  0  0
  128.3336   61.3856   -2.3324 N   0  0  0  0  0  0  0  0  0  0  0  0
  128.5539   62.6680   -1.9499 C   0  0  0  0  0  0  0  0  0  0  0  0
  129.7675   62.8153   -1.3820 N   0  0  0  0  0  0  0  0  0  0  0  0
  2  1  1  6  0  0  0
  2  3  1  0  0  0  0
  2  5  1  0  0  0  0
  3  4  1  0  0  0  0
  3 16  1  0  0  0  0
  5  6  1  0  0  0  0
  6  7  1  0  0  0  0
  7  8  1  0  0  0  0
  9  8  1  6  0  0  0
  9 10  1  0  0  0  0
  9 11  1  0  0  0  0
 10 15  1  0  0  0  0
 11 12  1  1  0  0  0
 11 13  1  0  0  0  0
 13 14  1  1  0  0  0
 13 15  1  0  0  0  0
 15 26  1  6  0  0  0
 17 18  2  0  0  0  0
 17 22  1  0  0  0  0
 18 19  1  0  0  0  0
 19 20  2  0  0  0  0
 20 21  1  0  0  0  0
 20 26  1  0  0  0  0
 21 22  2  0  0  0  0
 21 24  1  0  0  0  0
 22 23  1  0  0  0  0
 24 25  2  0  0  0  0
 25 26  1  0  0  0  0
M  END
>  <CHROM.1>
35.21082844,52.51501328,165.51894604,-141.37581887,104.23543786,83.65700378
-168.67929124,129.27631202,65.23040504,-2.15976514,1.85353165,-0.34201042
-0.05145482

>  <Name>
ligand

>  <RI>
0

>  <Rbt.Current_Directory>
/home/itssahil/PROJECTS/Mol_Feturizer/Test_systems_manuscript/rnas/3npn

>  <Rbt.Executable>
rbdock ($Id: //depot/dev/client3/rdock/2013.1/src/exe/rbdock.cxx#4 $)

>  <Rbt.Library>
libRbt.so (2013.1, Build901 2013/11/27)

>  <Rbt.Parameter_File>
/export/apps/rDock/src/rDock_2013.1_src/data/scripts/dock_solv.prm

>  <Rbt.Receptor>
prm/pocket_docking_2.prm

>  <SCORE>
-27.5304

>  <SCORE.INTER>
-29.6531

>  <SCORE.INTER.CONST>
1

>  <SCORE.INTER.POLAR>
0

>  <SCORE.INTER.ROT>
7

>  <SCORE.INTER.SOLV>
25.8801

>  <SCORE.INTER.VDW>
-36.6621

>  <SCORE.INTER.norm>
-1.14051

>  <SCORE.INTRA>
2.09946

>  <SCORE.INTRA.DIHEDRAL>
4.81287

>  <SCORE.INTRA.DIHEDRAL.0>
4.37896

>  <SCORE.INTRA.POLAR>
0

>  <SCORE.INTRA.POLAR.0>
0

>  <SCORE.INTRA.REPUL>
0

>  <SCORE.INTRA.REPUL.0>
0

>  <SCORE.INTRA.SOLV>
-0.212891

>  <SCORE.INTRA.SOLV.lig_0>
-50.5538

>  <SCORE.INTRA.VDW>
-0.200528

>  <SCORE.INTRA.VDW.0>
-1.30673

>  <SCORE.INTRA.norm>
0.0807486

>  <SCORE.RESTR>
0.0232518

>  <SCORE.RESTR.CAVITY>
0.0232518

>  <SCORE.RESTR.norm>
0.0008943

>  <SCORE.SYSTEM>
0

>  <SCORE.SYSTEM.CONST>
0

>  <SCORE.SYSTEM.DIHEDRAL>
0

>  <SCORE.SYSTEM.SOLV>
0

>  <SCORE.SYSTEM.norm>
0

>  <SCORE.heavy>
26

>  <SCORE.norm>
-1.05886

>  <RMSD>
1.477

$$$$
ligand
 OpenBabel02271912153D
libRbt.so/2013.1/901 2013/11/27
 26 28  0  0  0  0  0  0  0  0999 V2000
  130.0385   69.9988   -4.0429 N   0  0  0  0  0  0  0  0  0  0  0  0
  128.6454   70.2980   -4.4890 C   0  0  2  0  0  0  0  0  0  0  0  0
  128.3632   71.7698   -4.3932 C   0  0  0  0  0  0  0  0  0  0  0  0
  129.2601   72.6016   -4.5253 O   0  0  0  0  0  0  0  0  0  0  0  0
  127.6407   69.5281   -3.6360 C   0  0  0  0  0  0  0  0  0  0  0  0
  127.7621   68.0139   -3.7775 C   0  0  0  0  0  0  0  0  0  0  0  0
  126.8232   67.2143   -2.5180 S   0  0  0  0  0  0  0  0  0  0  0  0
  127.7250   65.7192   -2.2677 C   0  0  0  0  0  0  0  0  0  0  0  0
  129.0483   65.9724   -1.5476 C   0  0  1  0  0  0  0  0  0  0  0  0
  129.3600   64.8908   -0.6670 O   0  0  0  0  0  0  0  0  0  0  0  0
  130.1836   66.0791   -2.5529 C   0  0  1  0  0  0  0  0  0  0  0  0
  130.9607   67.2509   -2.2876 O   0  0  0  0  0  0  0  0  0  0  0  0
  131.0122   64.8181   -2.3835 C   0  0  1  0  0  0  0  0  0  0  0  0
  132.3900   65.1257   -2.1439 O   0  0  0  0  0  0  0  0  0  0  0  0
  130.4271   64.0853   -1.1819 C   0  0  2  0  0  0  0  0  0  0  0  0
  127.2250   72.1792   -4.1695 O   0  0  0  0  0  0  0  0  0  0  0  0
  131.4106   58.9080   -1.6206 N   0  0  0  0  0  0  0  0  0  0  0  0
  132.2157   59.9041   -1.1992 C   0  0  0  0  0  0  0  0  0  0  0  0
  131.8280   61.1947   -1.1377 N   0  0  0  0  0  0  0  0  0  0  0  0
  130.5757   61.5764   -1.5075 C   0  0  0  0  0  0  0  0  0  0  0  0
  129.6393   60.5412   -1.9792 C   0  0  0  0  0  0  0  0  0  0  0  0
  130.1369   59.1426   -2.0175 C   0  0  0  0  0  0  0  0  0  0  0  0
  129.3385   58.1340   -2.4411 N   0  0  0  0  0  0  0  0  0  0  0  0
  128.4866   61.1655   -2.2754 N   0  0  0  0  0  0  0  0  0  0  0  0
  128.6662   62.4854   -2.0203 C   0  0  0  0  0  0  0  0  0  0  0  0
  129.9088   62.7383   -1.5633 N   0  0  0  0  0  0  0  0  0  0  0  0
  2  1  1  1  0  0  0
  2  3  1  0  0  0  0
  2  5  1  0  0  0  0
  3  4  1  0  0  0  0
  3 16  1  0  0  0  0
  5  6  1  0  0  0  0
  6  7  1  0  0  0  0
  7  8  1  0  0  0  0
  9  8  1  6  0  0  0
  9 10  1  0  0  0  0
  9 11  1  0  0  0  0
 10 15  1  0  0  0  0
 11 12  1  1  0  0  0
 11 13  1  0  0  0  0
 13 14  1  1  0  0  0
 13 15  1  0  0  0  0
 15 26  1  6  0  0  0
 17 18  2  0  0  0  0
 17 22  1  0  0  0  0
 18 19  1  0  0  0  0
 19 20  2  0  0  0  0
 20 21  1  0  0  0  0
 20 26  1  0  0  0  0
 21 22  2  0  0  0  0
 21 24  1  0  0  0  0
 22 23  1  0  0  0  0
 24 25  2  0  0  0  0
 25 26  1  0  0  0  0
M  END
>  <CHROM.1>
29.59529291,-63.63197334,167.78308320,-150.08201756,72.12539482,144.74133448
-148.01471556,129.43866908,65.30837297,-2.49434670,-1.77443279,0.10014971
2.95034353

>  <Name>
ligand

>  <RI>
0

>  <Rbt.Current_Directory>
/home/itssahil/PROJECTS/Mol_Feturizer/Test_systems_manuscript/rnas/3npn

>  <Rbt.Executable>
rbdock ($Id: //depot/dev/client3/rdock/2013.1/src/exe/rbdock.cxx#4 $)

>  <Rbt.Library>
libRbt.so (2013.1, Build901 2013/11/27)

>  <Rbt.Parameter_File>
/export/apps/rDock/src/rDock_2013.1_src/data/scripts/dock_solv.prm

>  <Rbt.Receptor>
prm/pocket_docking_3.prm

>  <SCORE>
-25.9917

>  <SCORE.INTER>
-27.5549

>  <SCORE.INTER.CONST>
1

>  <SCORE.INTER.POLAR>
0

>  <SCORE.INTER.ROT>
7

>  <SCORE.INTER.SOLV>
20.3792

>  <SCORE.INTER.VDW>
-33.4297

>  <SCORE.INTER.norm>
-1.0598

>  <SCORE.INTRA>
1.56161

>  <SCORE.INTRA.DIHEDRAL>
3.68809

>  <SCORE.INTRA.DIHEDRAL.0>
4.37896

>  <SCORE.INTRA.POLAR>
0

>  <SCORE.INTRA.POLAR.0>
0

>  <SCORE.INTRA.REPUL>
0

>  <SCORE.INTRA.REPUL.0>
0

>  <SCORE.INTRA.SOLV>
0.980585

>  <SCORE.INTRA.SOLV.lig_0>
-50.5538

>  <SCORE.INTRA.VDW>
-0.772727

>  <SCORE.INTRA.VDW.0>
-1.30673

>  <SCORE.INTRA.norm>
0.060062

>  <SCORE.RESTR>
0.00158871

>  <SCORE.RESTR.CAVITY>
0.00158871

>  <SCORE.RESTR.norm>
6.11042e-05

>  <SCORE.SYSTEM>
0

>  <SCORE.SYSTEM.CONST>
0

>  <SCORE.SYSTEM.DIHEDRAL>
0

>  <SCORE.SYSTEM.SOLV>
0

>  <SCORE.SYSTEM.norm>
0

>  <SCORE.heavy>
26

>  <SCORE.norm>
-0.999681

>  <RMSD>
1.503

$$$$
ligand
 OpenBabel02271912153D
libRbt.so/2013.1/901 2013/11/27
 26 28  0  0  0  0  0  0  0  0999 V2000
  127.5136   69.1550   -4.7799 N   0  0  0  0  0  0  0  0  0  0  0  0
  126.3569   69.4144   -3.8721 C   0  0  2  0  0  0  0  0  0  0  0  0
  126.5879   70.6577   -3.0621 C   0  0  0  0  0  0  0  0  0  0  0  0
  127.6203   71.3159   -3.1834 O   0  0  0  0  0  0  0  0  0  0  0  0
  126.1427   68.2273   -2.9369 C   0  0  0  0  0  0  0  0  0  0  0  0
  127.4203   67.7669   -2.2417 C   0  0  0  0  0  0  0  0  0  0  0  0
  128.3540   66.7325   -3.3213 S   0  0  0  0  0  0  0  0  0  0  0  0
  128.4359   65.2204   -2.4167 C   0  0  0  0  0  0  0  0  0  0  0  0
  129.5538   65.2454   -1.3759 C   0  0  1  0  0  0  0  0  0  0  0  0
  129.5020   64.0804   -0.5498 O   0  0  0  0  0  0  0  0  0  0  0  0
  130.9112   65.2550   -2.0603 C   0  0  1  0  0  0  0  0  0  0  0  0
  131.7286   66.2906   -1.5066 O   0  0  0  0  0  0  0  0  0  0  0  0
  131.5146   63.8840   -1.8116 C   0  0  1  0  0  0  0  0  0  0  0  0
  132.8131   63.9842   -1.2164 O   0  0  0  0  0  0  0  0  0  0  0  0
  130.5617   63.1680   -0.8616 C   0  0  2  0  0  0  0  0  0  0  0  0
  125.7504   71.0428   -2.2476 O   0  0  0  0  0  0  0  0  0  0  0  0
  131.2704   58.0486   -1.9814 N   0  0  0  0  0  0  0  0  0  0  0  0
  132.0910   58.9132   -1.3514 C   0  0  0  0  0  0  0  0  0  0  0  0
  131.7772   60.2065   -1.1312 N   0  0  0  0  0  0  0  0  0  0  0  0
  130.5896   60.7271   -1.5428 C   0  0  0  0  0  0  0  0  0  0  0  0
  129.6407   59.8406   -2.2392 C   0  0  0  0  0  0  0  0  0  0  0  0
  130.0553   58.4294   -2.4433 C   0  0  0  0  0  0  0  0  0  0  0  0
  129.2408   57.5523   -3.0769 N   0  0  0  0  0  0  0  0  0  0  0  0
  128.5599   60.5830   -2.5341 N   0  0  0  0  0  0  0  0  0  0  0  0
  128.7936   61.8363   -2.0717 C   0  0  0  0  0  0  0  0  0  0  0  0
  130.0014   61.9304   -1.4806 N   0  0  0  0  0  0  0  0  0  0  0  0
  2  1  1  6  0  0  0
  2  3  1  0  0  0  0
  2  5  1  0  0  0  0
  3  4  1  0  0  0  0
  3 16  1  0  0  0  0
  5  6  1  0  0  0  0
  6  7  1  0  0  0  0
  7  8  1  0  0  0  0
  9  8  1  6  0  0  0
  9 10  1  0  0  0  0
  9 11  1  0  0  0  0
 10 15  1  0  0  0  0
 11 12  1  1  0  0  0
 11 13  1  0  0  0  0
 13 14  1  1  0  0  0
 13 15  1  0  0  0  0
 15 26  1  6  0  0  0
 17 18  2  0  0  0  0
 17 22  1  0  0  0  0
 18 19  1  0  0  0  0
 19 20  2  0  0  0  0
 20 21  1  0  0  0  0
 20 26  1  0  0  0  0
 21 22  2  0  0  0  0
 21 24  1  0  0  0  0
 22 23  1  0  0  0  0
 24 25  2  0  0  0  0
 25 26  1  0  0  0  0
M  END
>  <CHROM.1>
-0.31350316,49.33489858,-81.43325244,-119.94251084,-82.52561525,173.10119544
-158.80462135,129.27915208,64.48016577,-2.25067114,1.94553241,-0.40320245
0.02898919

>  <Name>
ligand

>  <RI>
0

>  <Rbt.Current_Directory>
/home/itssahil/PROJECTS/Mol_Feturizer/Test_systems_manuscript/rnas/3npn

>  <Rbt.Executable>
rbdock ($Id: //depot/dev/client3/rdock/2013.1/src/exe/rbdock.cxx#4 $)

>  <Rbt.Library>
libRbt.so (2013.1, Build901 2013/11/27)

>  <Rbt.Parameter_File>
/export/apps/rDock/src/rDock_2013.1_src/data/scripts/dock_solv.prm

>  <Rbt.Receptor>
prm/pocket_docking_4.prm

>  <SCORE>
-27.574

>  <SCORE.INTER>
-29.4466

>  <SCORE.INTER.CONST>
1

>  <SCORE.INTER.POLAR>
0

>  <SCORE.INTER.ROT>
7

>  <SCORE.INTER.SOLV>
23.4914

>  <SCORE.INTER.VDW>
-35.7282

>  <SCORE.INTER.norm>
-1.13256

>  <SCORE.INTRA>
1.87267

>  <SCORE.INTRA.DIHEDRAL>
3.61811

>  <SCORE.INTRA.DIHEDRAL.0>
4.37896

>  <SCORE.INTRA.POLAR>
0

>  <SCORE.INTRA.POLAR.0>
0

>  <SCORE.INTRA.REPUL>
0

>  <SCORE.INTRA.REPUL.0>
0

>  <SCORE.INTRA.SOLV>
1.25029

>  <SCORE.INTRA.SOLV.lig_0>
-50.5538

>  <SCORE.INTRA.VDW>
-0.561529

>  <SCORE.INTRA.VDW.0>
-1.30673

>  <SCORE.INTRA.norm>
0.0720259

>  <SCORE.RESTR>
0

>  <SCORE.RESTR.CAVITY>
0

>  <SCORE.RESTR.norm>
0

>  <SCORE.SYSTEM>
0

>  <SCORE.SYSTEM.CONST>
0

>  <SCORE.SYSTEM.DIHEDRAL>
0

>  <SCORE.SYSTEM.SOLV>
0

>  <SCORE.SYSTEM.norm>
0

>  <SCORE.heavy>
26

>  <SCORE.norm>
-1.06054

>  <RMSD>
1.524

$$$$
ligand
 OpenBabel02271912153D
libRbt.so/2013.1/901 2013/11/27
 26 28  0  0  0  0  0  0  0  0999 V2000
  125.9178   71.7178   -3.6538 N   0  0  0  0  0  0  0  0  0  0  0  0
  126.7473   70.7591   -2.8650 C   0  0  2  0  0  0  0  0  0  0  0  0
  128.1963   71.1509   -2.9101 C   0  0  0  0  0  0  0  0  0  0  0  0
  128.6710   71.7291   -3.8868 O   0  0  0  0  0  0  0  0  0  0  0  0
  126.5828   69.3438   -3.4124 C   0  0  0  0  0  0  0  0  0  0  0  0
  127.2548   68.2799   -2.5498 C   0  0  0  0  0  0  0  0  0  0  0  0
  127.6942   66.8902   -3.5412 S   0  0  0  0  0  0  0  0  0  0  0  0
  127.9191   65.6230   -2.3350 C   0  0  0  0  0  0  0  0  0  0  0  0
  129.2014   65.8305   -1.5310 C   0  0  1  0  0  0  0  0  0  0  0  0
  129.4222   64.7357   -0.6393 O   0  0  0  0  0  0  0  0  0  0  0  0
  130.4009   65.9051   -2.4618 C   0  0  1  0  0  0  0  0  0  0  0  0
  131.1964   67.0502   -2.1405 O   0  0  0  0  0  0  0  0  0  0  0  0
  131.1767   64.6174   -2.2483 C   0  0  1  0  0  0  0  0  0  0  0  0
  132.5456   64.8797   -1.9201 O   0  0  0  0  0  0  0  0  0  0  0  0
  130.4936   63.8986   -1.0907 C   0  0  2  0  0  0  0  0  0  0  0  0
  128.9476   70.8923   -1.9711 O   0  0  0  0  0  0  0  0  0  0  0  0
  131.4440   58.7436   -1.7884 N   0  0  0  0  0  0  0  0  0  0  0  0
  132.2664   59.7187   -1.3517 C   0  0  0  0  0  0  0  0  0  0  0  0
  131.8854   61.0062   -1.2206 N   0  0  0  0  0  0  0  0  0  0  0  0
  130.6226   61.4061   -1.5305 C   0  0  0  0  0  0  0  0  0  0  0  0
  129.6671   60.3943   -2.0147 C   0  0  0  0  0  0  0  0  0  0  0  0
  130.1583   58.9978   -2.1310 C   0  0  0  0  0  0  0  0  0  0  0  0
  129.3426   58.0102   -2.5707 N   0  0  0  0  0  0  0  0  0  0  0  0
  128.5071   61.0332   -2.2439 N   0  0  0  0  0  0  0  0  0  0  0  0
  128.6998   62.3403   -1.9377 C   0  0  0  0  0  0  0  0  0  0  0  0
  129.9581   62.5705   -1.5127 N   0  0  0  0  0  0  0  0  0  0  0  0
  2  1  1  6  0  0  0
  2  3  1  0  0  0  0
  2  5  1  0  0  0  0
  3  4  1  0  0  0  0
  3 16  1  0  0  0  0
  5  6  1  0  0  0  0
  6  7  1  0  0  0  0
  7  8  1  0  0  0  0
  9  8  1  6  0  0  0
  9 10  1  0  0  0  0
  9 11  1  0  0  0  0
 10 15  1  0  0  0  0
 11 12  1  1  0  0  0
 11 13  1  0  0  0  0
 13 14  1  1  0  0  0
 13 15  1  0  0  0  0
 15 26  1  6  0  0  0
 17 18  2  0  0  0  0
 17 22  1  0  0  0  0
 18 19  1  0  0  0  0
 19 20  2  0  0  0  0
 20 21  1  0  0  0  0
 20 26  1  0  0  0  0
 21 22  2  0  0  0  0
 21 24  1  0  0  0  0
 22 23  1  0  0  0  0
 24 25  2  0  0  0  0
 25 26  1  0  0  0  0
M  END
>  <CHROM.1>
-30.42899618,-172.50166714,-153.24304739,-161.52475836,-72.52091764,-175.11503990
-154.24711814,129.33731479,65.14404160,-2.28106000,1.86088125,-0.27615507
-0.04719791

>  <Name>
ligand

>  <RI>
0

>  <Rbt.Current_Directory>
/home/itssahil/PROJECTS/Mol_Feturizer/Test_systems_manuscript/rnas/3npn

>  <Rbt.Executable>
rbdock ($Id: //depot/dev/client3/rdock/2013.1/src/exe/rbdock.cxx#4 $)

>  <Rbt.Library>
libRbt.so (2013.1, Build901 2013/11/27)

>  <Rbt.Parameter_File>
/export/apps/rDock/src/rDock_2013.1_src/data/scripts/dock_solv.prm

>  <Rbt.Receptor>
prm/pocket_docking_5.prm

>  <SCORE>
-27.1642

>  <SCORE.INTER>
-26.7439

>  <SCORE.INTER.CONST>
1

>  <SCORE.INTER.POLAR>
0

>  <SCORE.INTER.ROT>
7

>  <SCORE.INTER.SOLV>
28.3609

>  <SCORE.INTER.VDW>
-35.5495

>  <SCORE.INTER.norm>
-1.02861

>  <SCORE.INTRA>
-0.420319

>  <SCORE.INTRA.DIHEDRAL>
1.63663

>  <SCORE.INTRA.DIHEDRAL.0>
4.37896

>  <SCORE.INTRA.POLAR>
0

>  <SCORE.INTRA.POLAR.0>
0

>  <SCORE.INTRA.REPUL>
0

>  <SCORE.INTRA.REPUL.0>
0

>  <SCORE.INTRA.SOLV>
-0.758001

>  <SCORE.INTRA.SOLV.lig_0>
-50.5538

>  <SCORE.INTRA.VDW>
-0.859632

>  <SCORE.INTRA.VDW.0>
-1.30673

>  <SCORE.INTRA.norm>
-0.0161661

>  <SCORE.RESTR>
0

>  <SCORE.RESTR.CAVITY>
0

>  <SCORE.RESTR.norm>
0

>  <SCORE.SYSTEM>
0

>  <SCORE.SYSTEM.CONST>
0

>  <SCORE.SYSTEM.DIHEDRAL>
0

>  <SCORE.SYSTEM.SOLV>
0

>  <SCORE.SYSTEM.norm>
0

>  <SCORE.heavy>
26

>  <SCORE.norm>
-1.04478

>  <RMSD>
1.573

$$$$
ligand
 OpenBabel02271912153D
libRbt.so/2013.1/901 2013/11/27
 26 28  0  0  0  0  0  0  0  0999 V2000
  125.9319   71.7602   -3.7129 N   0  0  0  0  0  0  0  0  0  0  0  0
  126.7715   70.7813   -2.9604 C   0  0  2  0  0  0  0  0  0  0  0  0
  128.2260   71.1396   -3.0666 C   0  0  0  0  0  0  0  0  0  0  0  0
  129.0405   70.7569   -2.2277 O   0  0  0  0  0  0  0  0  0  0  0  0
  126.5514   69.3711   -3.5011 C   0  0  0  0  0  0  0  0  0  0  0  0
  127.2057   68.2878   -2.6492 C   0  0  0  0  0  0  0  0  0  0  0  0
  127.6618   66.9189   -3.6619 S   0  0  0  0  0  0  0  0  0  0  0  0
  127.8962   65.6345   -2.4759 C   0  0  0  0  0  0  0  0  0  0  0  0
  129.1483   65.8674   -1.6322 C   0  0  1  0  0  0  0  0  0  0  0  0
  129.3434   64.7936   -0.7094 O   0  0  0  0  0  0  0  0  0  0  0  0
  130.3795   65.9290   -2.5216 C   0  0  1  0  0  0  0  0  0  0  0  0
  131.1570   67.0857   -2.1979 O   0  0  0  0  0  0  0  0  0  0  0  0
  131.1541   64.6511   -2.2528 C   0  0  1  0  0  0  0  0  0  0  0  0
  132.5092   64.9288   -1.8826 O   0  0  0  0  0  0  0  0  0  0  0  0
  130.4345   63.9535   -1.1044 C   0  0  2  0  0  0  0  0  0  0  0  0
  128.6366   71.8357   -3.9940 O   0  0  0  0  0  0  0  0  0  0  0  0
  131.4438   58.7941   -1.6756 N   0  0  0  0  0  0  0  0  0  0  0  0
  132.2459   59.7841   -1.2347 C   0  0  0  0  0  0  0  0  0  0  0  0
  131.8516   61.0706   -1.1393 N   0  0  0  0  0  0  0  0  0  0  0  0
  130.5950   61.4542   -1.4922 C   0  0  0  0  0  0  0  0  0  0  0  0
  129.6613   60.4255   -1.9835 C   0  0  0  0  0  0  0  0  0  0  0  0
  130.1664   59.0312   -2.0590 C   0  0  0  0  0  0  0  0  0  0  0  0
  129.3710   58.0287   -2.5024 N   0  0  0  0  0  0  0  0  0  0  0  0
  128.5035   61.0504   -2.2576 N   0  0  0  0  0  0  0  0  0  0  0  0
  128.6773   62.3646   -1.9713 C   0  0  0  0  0  0  0  0  0  0  0  0
  129.9214   62.6133   -1.5156 N   0  0  0  0  0  0  0  0  0  0  0  0
  2  1  1  6  0  0  0
  2  3  1  0  0  0  0
  2  5  1  0  0  0  0
  3  4  1  0  0  0  0
  3 16  1  0  0  0  0
  5  6  1  0  0  0  0
  6  7  1  0  0  0  0
  7  8  1  0  0  0  0
  9  8  1  6  0  0  0
  9 10  1  0  0  0  0
  9 11  1  0  0  0  0
 10 15  1  0  0  0  0
 11 12  1  1  0  0  0
 11 13  1  0  0  0  0
 13 14  1  1  0  0  0
 13 15  1  0  0  0  0
 15 26  1  6  0  0  0
 17 18  2  0  0  0  0
 17 22  1  0  0  0  0
 18 19  1  0  0  0  0
 19 20  2  0  0  0  0
 20 21  1  0  0  0  0
 20 26  1  0  0  0  0
 21 22  2  0  0  0  0
 21 24  1  0  0  0  0
 22 23  1  0  0  0  0
 24 25  2  0  0  0  0
 25 26  1  0  0  0  0
M  END
>  <CHROM.1>
157.09533578,-171.08876679,-150.13856076,-162.68961692,-70.53932178,-178.06494416
-154.69333613,129.31957413,65.17394815,-2.32337614,1.86041621,-0.28384640
-0.06380070

>  <Name>
ligand

>  <RI>
0

>  <Rbt.Current_Directory>
/home/itssahil/PROJECTS/Mol_Feturizer/Test_systems_manuscript/rnas/3npn

>  <Rbt.Executable>
rbdock ($Id: //depot/dev/client3/rdock/2013.1/src/exe/rbdock.cxx#4 $)

>  <Rbt.Library>
libRbt.so (2013.1, Build901 2013/11/27)

>  <Rbt.Parameter_File>
/export/apps/rDock/src/rDock_2013.1_src/data/scripts/dock_solv.prm

>  <Rbt.Receptor>
prm/pocket_docking_6.prm

>  <SCORE>
-27.1848

>  <SCORE.INTER>
-26.9444

>  <SCORE.INTER.CONST>
1

>  <SCORE.INTER.POLAR>
0

>  <SCORE.INTER.ROT>
7

>  <SCORE.INTER.SOLV>
28.2789

>  <SCORE.INTER.VDW>
-35.6559

>  <SCORE.INTER.norm>
-1.03632

>  <SCORE.INTRA>
-0.240377

>  <SCORE.INTRA.DIHEDRAL>
2.00877

>  <SCORE.INTRA.DIHEDRAL.0>
4.37896

>  <SCORE.INTRA.POLAR>
0

>  <SCORE.INTRA.POLAR.0>
0

>  <SCORE.INTRA.REPUL>
0

>  <SCORE.INTRA.REPUL.0>
0

>  <SCORE.INTRA.SOLV>
-0.754987

>  <SCORE.INTRA.SOLV.lig_0>
-50.5538

>  <SCORE.INTRA.VDW>
-0.867266

>  <SCORE.INTRA.VDW.0>
-1.30673

>  <SCORE.INTRA.norm>
-0.00924528

>  <SCORE.RESTR>
0

>  <SCORE.RESTR.CAVITY>
0

>  <SCORE.RESTR.norm>
0

>  <SCORE.SYSTEM>
0

>  <SCORE.SYSTEM.CONST>
0

>  <SCORE.SYSTEM.DIHEDRAL>
0

>  <SCORE.SYSTEM.SOLV>
0

>  <SCORE.SYSTEM.norm>
0

>  <SCORE.heavy>
26

>  <SCORE.norm>
-1.04557

>  <RMSD>
1.577

$$$$
ligand
 OpenBabel02271912153D
libRbt.so/2013.1/901 2013/11/27
 26 28  0  0  0  0  0  0  0  0999 V2000
  127.3155   70.3086   -5.4796 N   0  0  0  0  0  0  0  0  0  0  0  0
  127.4977   70.6445   -4.0362 C   0  0  2  0  0  0  0  0  0  0  0  0
  128.7435   71.4585   -3.8351 C   0  0  0  0  0  0  0  0  0  0  0  0
  129.4519   71.3063   -2.8408 O   0  0  0  0  0  0  0  0  0  0  0  0
  127.5808   69.3681   -3.2033 C   0  0  0  0  0  0  0  0  0  0  0  0
  126.4697   68.3699   -3.5139 C   0  0  0  0  0  0  0  0  0  0  0  0
  126.6500   66.9352   -2.5056 S   0  0  0  0  0  0  0  0  0  0  0  0
  128.2378   66.3351   -2.9848 C   0  0  0  0  0  0  0  0  0  0  0  0
  129.2667   66.5081   -1.8688 C   0  0  1  0  0  0  0  0  0  0  0  0
  129.1255   65.4795   -0.8867 O   0  0  0  0  0  0  0  0  0  0  0  0
  130.6756   66.4075   -2.4305 C   0  0  1  0  0  0  0  0  0  0  0  0
  131.4638   67.5090   -1.9694 O   0  0  0  0  0  0  0  0  0  0  0  0
  131.2312   65.0852   -1.9318 C   0  0  1  0  0  0  0  0  0  0  0  0
  132.4779   65.2651   -1.2510 O   0  0  0  0  0  0  0  0  0  0  0  0
  130.1902   64.5245   -0.9699 C   0  0  2  0  0  0  0  0  0  0  0  0
  129.0805   72.3073   -4.6593 O   0  0  0  0  0  0  0  0  0  0  0  0
  131.0804   59.3555   -1.6427 N   0  0  0  0  0  0  0  0  0  0  0  0
  131.8879   60.3087   -1.1357 C   0  0  0  0  0  0  0  0  0  0  0  0
  131.5257   61.6032   -1.0216 N   0  0  0  0  0  0  0  0  0  0  0  0
  130.2989   62.0333   -1.4223 C   0  0  0  0  0  0  0  0  0  0  0  0
  129.3615   61.0466   -1.9872 C   0  0  0  0  0  0  0  0  0  0  0  0
  129.8302   59.6406   -2.0792 C   0  0  0  0  0  0  0  0  0  0  0  0
  129.0293   58.6747   -2.5889 N   0  0  0  0  0  0  0  0  0  0  0  0
  128.2362   61.7128   -2.2974 N   0  0  0  0  0  0  0  0  0  0  0  0
  128.4330   63.0128   -1.9651 C   0  0  0  0  0  0  0  0  0  0  0  0
  129.6600   63.2119   -1.4439 N   0  0  0  0  0  0  0  0  0  0  0  0
  2  1  1  6  0  0  0
  2  3  1  0  0  0  0
  2  5  1  0  0  0  0
  3  4  1  0  0  0  0
  3 16  1  0  0  0  0
  5  6  1  0  0  0  0
  6  7  1  0  0  0  0
  7  8  1  0  0  0  0
  9  8  1  6  0  0  0
  9 10  1  0  0  0  0
  9 11  1  0  0  0  0
 10 15  1  0  0  0  0
 11 12  1  1  0  0  0
 11 13  1  0  0  0  0
 13 14  1  1  0  0  0
 13 15  1  0  0  0  0
 15 26  1  6  0  0  0
 17 18  2  0  0  0  0
 17 22  1  0  0  0  0
 18 19  1  0  0  0  0
 19 20  2  0  0  0  0
 20 21  1  0  0  0  0
 20 26  1  0  0  0  0
 21 22  2  0  0  0  0
 21 24  1  0  0  0  0
 22 23  1  0  0  0  0
 24 25  2  0  0  0  0
 25 26  1  0  0  0  0
M  END
>  <CHROM.1>
-143.22900367,-48.55701633,-179.97608865,-60.60784833,110.34489702,79.29887514
-167.47821176,129.29046348,65.54202318,-2.39886964,1.78862193,-0.30968774
-0.14619577

>  <Name>
ligand

>  <RI>
0

>  <Rbt.Current_Directory>
/home/itssahil/PROJECTS/Mol_Feturizer/Test_systems_manuscript/rnas/3npn

>  <Rbt.Executable>
rbdock ($Id: //depot/dev/client3/rdock/2013.1/src/exe/rbdock.cxx#4 $)

>  <Rbt.Library>
libRbt.so (2013.1, Build901 2013/11/27)

>  <Rbt.Parameter_File>
/export/apps/rDock/src/rDock_2013.1_src/data/scripts/dock_solv.prm

>  <Rbt.Receptor>
prm/pocket_docking_5.prm

>  <SCORE>
-26.9517

>  <SCORE.INTER>
-28.1592

>  <SCORE.INTER.CONST>
1

>  <SCORE.INTER.POLAR>
0

>  <SCORE.INTER.ROT>
7

>  <SCORE.INTER.SOLV>
25.5217

>  <SCORE.INTER.VDW>
-35.5467

>  <SCORE.INTER.norm>
-1.08305

>  <SCORE.INTRA>
1.20753

>  <SCORE.INTRA.DIHEDRAL>
2.25916

>  <SCORE.INTRA.DIHEDRAL.0>
4.37896

>  <SCORE.INTRA.POLAR>
0

>  <SCORE.INTRA.POLAR.0>
0

>  <SCORE.INTRA.REPUL>
0

>  <SCORE.INTRA.REPUL.0>
0

>  <SCORE.INTRA.SOLV>
-0.0912122

>  <SCORE.INTRA.SOLV.lig_0>
-50.5538

>  <SCORE.INTRA.VDW>
0.123555

>  <SCORE.INTRA.VDW.0>
-1.30673

>  <SCORE.INTRA.norm>
0.0464435

>  <SCORE.RESTR>
0

>  <SCORE.RESTR.CAVITY>
0

>  <SCORE.RESTR.norm>
0

>  <SCORE.SYSTEM>
0

>  <SCORE.SYSTEM.CONST>
0

>  <SCORE.SYSTEM.DIHEDRAL>
0

>  <SCORE.SYSTEM.SOLV>
0

>  <SCORE.SYSTEM.norm>
0

>  <SCORE.heavy>
26

>  <SCORE.norm>
-1.0366

>  <RMSD>
1.579

$$$$
ligand
 OpenBabel02271912153D
libRbt.so/2013.1/901 2013/11/27
 26 28  0  0  0  0  0  0  0  0999 V2000
  125.9509   71.7210   -3.6820 N   0  0  0  0  0  0  0  0  0  0  0  0
  126.8058   70.7720   -2.9088 C   0  0  2  0  0  0  0  0  0  0  0  0
  128.2535   71.1566   -3.0149 C   0  0  0  0  0  0  0  0  0  0  0  0
  128.6626   71.8528   -3.9431 O   0  0  0  0  0  0  0  0  0  0  0  0
  126.6157   69.3484   -3.4258 C   0  0  0  0  0  0  0  0  0  0  0  0
  127.3146   68.2961   -2.5705 C   0  0  0  0  0  0  0  0  0  0  0  0
  127.5493   66.8198   -3.5047 S   0  0  0  0  0  0  0  0  0  0  0  0
  127.8231   65.6162   -2.2447 C   0  0  0  0  0  0  0  0  0  0  0  0
  129.1352   65.8646   -1.5028 C   0  0  1  0  0  0  0  0  0  0  0  0
  129.4325   64.7781   -0.6232 O   0  0  0  0  0  0  0  0  0  0  0  0
  130.2860   65.9758   -2.4897 C   0  0  1  0  0  0  0  0  0  0  0  0
  131.0597   67.1455   -2.2062 O   0  0  0  0  0  0  0  0  0  0  0  0
  131.1111   64.7132   -2.3142 C   0  0  1  0  0  0  0  0  0  0  0  0
  132.4852   65.0186   -2.0516 O   0  0  0  0  0  0  0  0  0  0  0  0
  130.5069   63.9745   -1.1257 C   0  0  2  0  0  0  0  0  0  0  0  0
  129.0693   70.7742   -2.1773 O   0  0  0  0  0  0  0  0  0  0  0  0
  131.5098   58.8062   -1.6222 N   0  0  0  0  0  0  0  0  0  0  0  0
  132.3111   59.8004   -1.1895 C   0  0  0  0  0  0  0  0  0  0  0  0
  131.9186   61.0888   -1.1136 N   0  0  0  0  0  0  0  0  0  0  0  0
  130.6650   61.4700   -1.4794 C   0  0  0  0  0  0  0  0  0  0  0  0
  129.7324   60.4366   -1.9628 C   0  0  0  0  0  0  0  0  0  0  0  0
  130.2353   59.0405   -2.0167 C   0  0  0  0  0  0  0  0  0  0  0  0
  129.4408   58.0337   -2.4518 N   0  0  0  0  0  0  0  0  0  0  0  0
  128.5775   61.0600   -2.2523 N   0  0  0  0  0  0  0  0  0  0  0  0
  128.7521   62.3775   -1.9824 C   0  0  0  0  0  0  0  0  0  0  0  0
  129.9937   62.6299   -1.5223 N   0  0  0  0  0  0  0  0  0  0  0  0
  2  1  1  6  0  0  0
  2  3  1  0  0  0  0
  2  5  1  0  0  0  0
  3  4  1  0  0  0  0
  3 16  1  0  0  0  0
  5  6  1  0  0  0  0
  6  7  1  0  0  0  0
  7  8  1  0  0  0  0
  9  8  1  6  0  0  0
  9 10  1  0  0  0  0
  9 11  1  0  0  0  0
 10 15  1  0  0  0  0
 11 12  1  1  0  0  0
 11 13  1  0  0  0  0
 13 14  1  1  0  0  0
 13 15  1  0  0  0  0
 15 26  1  6  0  0  0
 17 18  2  0  0  0  0
 17 22  1  0  0  0  0
 18 19  1  0  0  0  0
 19 20  2  0  0  0  0
 20 21  1  0  0  0  0
 20 26  1  0  0  0  0
 21 22  2  0  0  0  0
 21 24  1  0  0  0  0
 22 23  1  0  0  0  0
 24 25  2  0  0  0  0
 25 26  1  0  0  0  0
M  END
>  <CHROM.1>
-21.77911698,-172.45027304,-159.56589655,-161.22957875,-66.77275124,-171.66777351
-148.99020025,129.33900977,65.17900601,-2.27949045,1.86195375,-0.26324589
-0.06479275

>  <Name>
ligand

>  <RI>
0

>  <Rbt.Current_Directory>
/home/itssahil/PROJECTS/Mol_Feturizer/Test_systems_manuscript/rnas/3npn

>  <Rbt.Executable>
rbdock ($Id: //depot/dev/client3/rdock/2013.1/src/exe/rbdock.cxx#4 $)

>  <Rbt.Library>
libRbt.so (2013.1, Build901 2013/11/27)

>  <Rbt.Parameter_File>
/export/apps/rDock/src/rDock_2013.1_src/data/scripts/dock_solv.prm

>  <Rbt.Receptor>
prm/pocket_docking_7.prm

>  <SCORE>
-27.2847

>  <SCORE.INTER>
-26.6788

>  <SCORE.INTER.CONST>
1

>  <SCORE.INTER.POLAR>
0

>  <SCORE.INTER.ROT>
7

>  <SCORE.INTER.SOLV>
27.8728

>  <SCORE.INTER.VDW>
-35.3434

>  <SCORE.INTER.norm>
-1.02611

>  <SCORE.INTRA>
-0.605977

>  <SCORE.INTRA.DIHEDRAL>
0.786801

>  <SCORE.INTRA.DIHEDRAL.0>
4.37896

>  <SCORE.INTRA.POLAR>
0

>  <SCORE.INTRA.POLAR.0>
0

>  <SCORE.INTRA.REPUL>
0

>  <SCORE.INTRA.REPUL.0>
0

>  <SCORE.INTRA.SOLV>
-0.711766

>  <SCORE.INTRA.SOLV.lig_0>
-50.5538

>  <SCORE.INTRA.VDW>
-0.643495

>  <SCORE.INTRA.VDW.0>
-1.30673

>  <SCORE.INTRA.norm>
-0.0233068

>  <SCORE.RESTR>
0

>  <SCORE.RESTR.CAVITY>
0

>  <SCORE.RESTR.norm>
0

>  <SCORE.SYSTEM>
0

>  <SCORE.SYSTEM.CONST>
0

>  <SCORE.SYSTEM.DIHEDRAL>
0

>  <SCORE.SYSTEM.SOLV>
0

>  <SCORE.SYSTEM.norm>
0

>  <SCORE.heavy>
26

>  <SCORE.norm>
-1.04941

>  <RMSD>
1.600

$$$$
ligand
 OpenBabel02271912153D
libRbt.so/2013.1/901 2013/11/27
 26 28  0  0  0  0  0  0  0  0999 V2000
  130.5972   71.6466   -4.0690 N   0  0  0  0  0  0  0  0  0  0  0  0
  129.4713   70.6948   -3.8327 C   0  0  2  0  0  0  0  0  0  0  0  0
  128.9511   70.8277   -2.4303 C   0  0  0  0  0  0  0  0  0  0  0  0
  127.7664   71.0758   -2.2098 O   0  0  0  0  0  0  0  0  0  0  0  0
  129.9333   69.2600   -4.0730 C   0  0  0  0  0  0  0  0  0  0  0  0
  128.8012   68.2400   -3.9998 C   0  0  0  0  0  0  0  0  0  0  0  0
  129.3710   66.6672   -4.5558 S   0  0  0  0  0  0  0  0  0  0  0  0
  128.7325   65.5782   -3.3238 C   0  0  0  0  0  0  0  0  0  0  0  0
  129.4276   65.7789   -1.9784 C   0  0  1  0  0  0  0  0  0  0  0  0
  129.0193   64.7778   -1.0437 O   0  0  0  0  0  0  0  0  0  0  0  0
  130.9343   65.6593   -2.1404 C   0  0  1  0  0  0  0  0  0  0  0  0
  131.5815   66.7710   -1.5138 O   0  0  0  0  0  0  0  0  0  0  0  0
  131.3236   64.3497   -1.4778 C   0  0  1  0  0  0  0  0  0  0  0  0
  132.3449   64.5448   -0.4934 O   0  0  0  0  0  0  0  0  0  0  0  0
  130.0581   63.8181   -0.8150 C   0  0  2  0  0  0  0  0  0  0  0  0
  129.7034   70.7009   -1.4653 O   0  0  0  0  0  0  0  0  0  0  0  0
  131.3849   58.7689   -1.6568 N   0  0  0  0  0  0  0  0  0  0  0  0
  132.0838   59.7536   -1.0572 C   0  0  0  0  0  0  0  0  0  0  0  0
  131.6163   61.0103   -0.9096 N   0  0  0  0  0  0  0  0  0  0  0  0
  130.3866   61.3670   -1.3691 C   0  0  0  0  0  0  0  0  0  0  0  0
  129.5645   60.3422   -2.0363 C   0  0  0  0  0  0  0  0  0  0  0  0
  130.1453   58.9812   -2.1599 C   0  0  0  0  0  0  0  0  0  0  0  0
  129.4541   57.9845   -2.7624 N   0  0  0  0  0  0  0  0  0  0  0  0
  128.4120   60.9371   -2.3887 N   0  0  0  0  0  0  0  0  0  0  0  0
  128.4870   62.2303   -1.9872 C   0  0  0  0  0  0  0  0  0  0  0  0
  129.6609   62.4945   -1.3797 N   0  0  0  0  0  0  0  0  0  0  0  0
  2  1  1  1  0  0  0
  2  3  1  0  0  0  0
  2  5  1  0  0  0  0
  3  4  1  0  0  0  0
  3 16  1  0  0  0  0
  5  6  1  0  0  0  0
  6  7  1  0  0  0  0
  7  8  1  0  0  0  0
  9  8  1  6  0  0  0
  9 10  1  0  0  0  0
  9 11  1  0  0  0  0
 10 15  1  0  0  0  0
 11 12  1  1  0  0  0
 11 13  1  0  0  0  0
 13 14  1  1  0  0  0
 13 15  1  0  0  0  0
 15 26  1  6  0  0  0
 17 18  2  0  0  0  0
 17 22  1  0  0  0  0
 18 19  1  0  0  0  0
 19 20  2  0  0  0  0
 20 21  1  0  0  0  0
 20 26  1  0  0  0  0
 21 22  2  0  0  0  0
 21 24  1  0  0  0  0
 22 23  1  0  0  0  0
 24 25  2  0  0  0  0
 25 26  1  0  0  0  0
M  END
>  <CHROM.1>
123.62743863,-173.71756872,170.39674721,134.36205255,-68.90251035,-172.61195702
179.05762822,129.94125096,65.00855021,-2.30167731,-1.69702699,0.72970248
3.08443270

>  <Name>
ligand

>  <RI>
0

>  <Rbt.Current_Directory>
/home/itssahil/PROJECTS/Mol_Feturizer/Test_systems_manuscript/rnas/3npn

>  <Rbt.Executable>
rbdock ($Id: //depot/dev/client3/rdock/2013.1/src/exe/rbdock.cxx#4 $)

>  <Rbt.Library>
libRbt.so (2013.1, Build901 2013/11/27)

>  <Rbt.Parameter_File>
/export/apps/rDock/src/rDock_2013.1_src/data/scripts/dock_solv.prm

>  <Rbt.Receptor>
prm/pocket_docking_4.prm

>  <SCORE>
-22.3368

>  <SCORE.INTER>
-21.7971

>  <SCORE.INTER.CONST>
1

>  <SCORE.INTER.POLAR>
0

>  <SCORE.INTER.ROT>
7

>  <SCORE.INTER.SOLV>
19.6648

>  <SCORE.INTER.VDW>
-29.353

>  <SCORE.INTER.norm>
-0.838351

>  <SCORE.INTRA>
-0.539676

>  <SCORE.INTRA.DIHEDRAL>
1.17501

>  <SCORE.INTRA.DIHEDRAL.0>
4.37896

>  <SCORE.INTRA.POLAR>
0

>  <SCORE.INTRA.POLAR.0>
0

>  <SCORE.INTRA.REPUL>
0

>  <SCORE.INTRA.REPUL.0>
0

>  <SCORE.INTRA.SOLV>
-0.596585

>  <SCORE.INTRA.SOLV.lig_0>
-50.5538

>  <SCORE.INTRA.VDW>
-0.828888

>  <SCORE.INTRA.VDW.0>
-1.30673

>  <SCORE.INTRA.norm>
-0.0207568

>  <SCORE.RESTR>
0

>  <SCORE.RESTR.CAVITY>
0

>  <SCORE.RESTR.norm>
0

>  <SCORE.SYSTEM>
0

>  <SCORE.SYSTEM.CONST>
0

>  <SCORE.SYSTEM.DIHEDRAL>
0

>  <SCORE.SYSTEM.SOLV>
0

>  <SCORE.SYSTEM.norm>
0

>  <SCORE.heavy>
26

>  <SCORE.norm>
-0.859108

>  <RMSD>
1.608

$$$$
ligand
 OpenBabel02271912153D
libRbt.so/2013.1/901 2013/11/27
 26 28  0  0  0  0  0  0  0  0999 V2000
  127.0940   70.5564   -4.2885 N   0  0  0  0  0  0  0  0  0  0  0  0
  127.0649   69.2076   -3.6487 C   0  0  2  0  0  0  0  0  0  0  0  0
  125.9158   69.1022   -2.6876 C   0  0  0  0  0  0  0  0  0  0  0  0
  125.3068   68.0442   -2.5346 O   0  0  0  0  0  0  0  0  0  0  0  0
  128.3747   68.9446   -2.9106 C   0  0  0  0  0  0  0  0  0  0  0  0
  128.4236   67.5784   -2.2336 C   0  0  0  0  0  0  0  0  0  0  0  0
  129.9125   67.4203   -1.3032 S   0  0  0  0  0  0  0  0  0  0  0  0
  129.9267   65.7022   -0.9042 C   0  0  0  0  0  0  0  0  0  0  0  0
  131.2136   65.3006   -0.1856 C   0  0  1  0  0  0  0  0  0  0  0  0
  131.0971   63.9866    0.3641 O   0  0  0  0  0  0  0  0  0  0  0  0
  132.3786   65.2812   -1.1619 C   0  0  1  0  0  0  0  0  0  0  0  0
  133.4817   66.0128   -0.6187 O   0  0  0  0  0  0  0  0  0  0  0  0
  132.7324   63.8181   -1.3618 C   0  0  1  0  0  0  0  0  0  0  0  0
  134.1174   63.5735   -1.0932 O   0  0  0  0  0  0  0  0  0  0  0  0
  131.8670   63.0355   -0.3810 C   0  0  2  0  0  0  0  0  0  0  0  0
  125.5491   70.0787   -2.0356 O   0  0  0  0  0  0  0  0  0  0  0  0
  130.8528   58.0283   -1.7459 N   0  0  0  0  0  0  0  0  0  0  0  0
  131.8793   58.5348   -1.0335 C   0  0  0  0  0  0  0  0  0  0  0  0
  132.0129   59.8484   -0.7573 N   0  0  0  0  0  0  0  0  0  0  0  0
  131.1017   60.7599   -1.1926 C   0  0  0  0  0  0  0  0  0  0  0  0
  129.9514   60.2793   -1.9781 C   0  0  0  0  0  0  0  0  0  0  0  0
  129.8710   58.8199   -2.2403 C   0  0  0  0  0  0  0  0  0  0  0  0
  128.8462   58.2995   -2.9567 N   0  0  0  0  0  0  0  0  0  0  0  0
  129.2089   61.3580   -2.2801 N   0  0  0  0  0  0  0  0  0  0  0  0
  129.8277   62.4372   -1.7400 C   0  0  0  0  0  0  0  0  0  0  0  0
  130.9568   62.0890   -1.0912 N   0  0  0  0  0  0  0  0  0  0  0  0
  2  1  1  1  0  0  0
  2  3  1  0  0  0  0
  2  5  1  0  0  0  0
  3  4  1  0  0  0  0
  3 16  1  0  0  0  0
  5  6  1  0  0  0  0
  6  7  1  0  0  0  0
  7  8  1  0  0  0  0
  9  8  1  6  0  0  0
  9 10  1  0  0  0  0
  9 11  1  0  0  0  0
 10 15  1  0  0  0  0
 11 12  1  1  0  0  0
 11 13  1  0  0  0  0
 13 14  1  1  0  0  0
 13 15  1  0  0  0  0
 15 26  1  6  0  0  0
 17 18  2  0  0  0  0
 17 22  1  0  0  0  0
 18 19  1  0  0  0  0
 19 20  2  0  0  0  0
 20 21  1  0  0  0  0
 20 26  1  0  0  0  0
 21 22  2  0  0  0  0
 21 24  1  0  0  0  0
 22 23  1  0  0  0  0
 24 25  2  0  0  0  0
 25 26  1  0  0  0  0
M  END
>  <CHROM.1>
145.19310306,-179.74543140,-175.42767667,-168.58412073,175.04502621,168.34431367
-137.08364923,129.94849102,64.43737389,-1.66086530,2.01298575,-0.36848592
0.03804499

>  <Name>
ligand

>  <RI>
0

>  <Rbt.Current_Directory>
/home/itssahil/PROJECTS/Mol_Feturizer/Test_systems_manuscript/rnas/3npn

>  <Rbt.Executable>
rbdock ($Id: //depot/dev/client3/rdock/2013.1/src/exe/rbdock.cxx#4 $)

>  <Rbt.Library>
libRbt.so (2013.1, Build901 2013/11/27)

>  <Rbt.Parameter_File>
/export/apps/rDock/src/rDock_2013.1_src/data/scripts/dock_solv.prm

>  <Rbt.Receptor>
prm/pocket_docking_6.prm

>  <SCORE>
-21.0535

>  <SCORE.INTER>
-19.3582

>  <SCORE.INTER.CONST>
1

>  <SCORE.INTER.POLAR>
0

>  <SCORE.INTER.ROT>
7

>  <SCORE.INTER.SOLV>
22.4145

>  <SCORE.INTER.VDW>
-28.6437

>  <SCORE.INTER.norm>
-0.744548

>  <SCORE.INTRA>
-1.69526

>  <SCORE.INTRA.DIHEDRAL>
-0.89253

>  <SCORE.INTRA.DIHEDRAL.0>
4.37896

>  <SCORE.INTRA.POLAR>
0

>  <SCORE.INTRA.POLAR.0>
0

>  <SCORE.INTRA.REPUL>
0

>  <SCORE.INTRA.REPUL.0>
0

>  <SCORE.INTRA.SOLV>
-0.907138

>  <SCORE.INTRA.SOLV.lig_0>
-50.5538

>  <SCORE.INTRA.VDW>
-0.795426

>  <SCORE.INTRA.VDW.0>
-1.30673

>  <SCORE.INTRA.norm>
-0.0652023

>  <SCORE.RESTR>
0

>  <SCORE.RESTR.CAVITY>
0

>  <SCORE.RESTR.norm>
0

>  <SCORE.SYSTEM>
0

>  <SCORE.SYSTEM.CONST>
0

>  <SCORE.SYSTEM.DIHEDRAL>
0

>  <SCORE.SYSTEM.SOLV>
0

>  <SCORE.SYSTEM.norm>
0

>  <SCORE.heavy>
26

>  <SCORE.norm>
-0.80975

>  <RMSD>
1.636

$$$$
ligand
 OpenBabel02271912153D
libRbt.so/2013.1/901 2013/11/27
 26 28  0  0  0  0  0  0  0  0999 V2000
  127.2953   69.4225   -4.7828 N   0  0  0  0  0  0  0  0  0  0  0  0
  127.4275   68.2162   -3.9129 C   0  0  2  0  0  0  0  0  0  0  0  0
  126.2864   68.1373   -2.9399 C   0  0  0  0  0  0  0  0  0  0  0  0
  125.8050   67.0551   -2.6071 O   0  0  0  0  0  0  0  0  0  0  0  0
  128.7486   68.2576   -3.1495 C   0  0  0  0  0  0  0  0  0  0  0  0
  129.9615   67.9504   -4.0224 C   0  0  0  0  0  0  0  0  0  0  0  0
  129.9414   66.2555   -4.5063 S   0  0  0  0  0  0  0  0  0  0  0  0
  131.1826   65.5528   -3.4686 C   0  0  0  0  0  0  0  0  0  0  0  0
  130.9646   65.9181   -2.0014 C   0  0  1  0  0  0  0  0  0  0  0  0
  129.7738   65.3075   -1.4996 O   0  0  0  0  0  0  0  0  0  0  0  0
  132.1226   65.4147   -1.1550 C   0  0  1  0  0  0  0  0  0  0  0  0
  132.6033   66.4662   -0.3122 O   0  0  0  0  0  0  0  0  0  0  0  0
  131.5717   64.2604   -0.3367 C   0  0  1  0  0  0  0  0  0  0  0  0
  131.8039   64.4538    1.0630 O   0  0  0  0  0  0  0  0  0  0  0  0
  130.0734   64.2219   -0.6141 C   0  0  2  0  0  0  0  0  0  0  0  0
  125.7979   69.1586   -2.4587 O   0  0  0  0  0  0  0  0  0  0  0  0
  131.2967   59.1635   -1.5527 N   0  0  0  0  0  0  0  0  0  0  0  0
  131.9929   60.1081   -0.8887 C   0  0  0  0  0  0  0  0  0  0  0  0
  131.5543   61.3731   -0.7235 N   0  0  0  0  0  0  0  0  0  0  0  0
  130.3593   61.7803   -1.2302 C   0  0  0  0  0  0  0  0  0  0  0  0
  129.5424   60.8013   -1.9688 C   0  0  0  0  0  0  0  0  0  0  0  0
  130.0898   59.4281   -2.1080 C   0  0  0  0  0  0  0  0  0  0  0  0
  129.4012   58.4714   -2.7748 N   0  0  0  0  0  0  0  0  0  0  0  0
  128.4260   61.4409   -2.3572 N   0  0  0  0  0  0  0  0  0  0  0  0
  128.5176   62.7184   -1.9112 C   0  0  0  0  0  0  0  0  0  0  0  0
  129.6673   62.9286   -1.2396 N   0  0  0  0  0  0  0  0  0  0  0  0
  2  1  1  1  0  0  0
  2  3  1  0  0  0  0
  2  5  1  0  0  0  0
  3  4  1  0  0  0  0
  3 16  1  0  0  0  0
  5  6  1  0  0  0  0
  6  7  1  0  0  0  0
  7  8  1  0  0  0  0
  9  8  1  6  0  0  0
  9 10  1  0  0  0  0
  9 11  1  0  0  0  0
 10 15  1  0  0  0  0
 11 12  1  1  0  0  0
 11 13  1  0  0  0  0
 13 14  1  1  0  0  0
 13 15  1  0  0  0  0
 15 26  1  6  0  0  0
 17 18  2  0  0  0  0
 17 22  1  0  0  0  0
 18 19  1  0  0  0  0
 19 20  2  0  0  0  0
 20 21  1  0  0  0  0
 20 26  1  0  0  0  0
 21 22  2  0  0  0  0
 21 24  1  0  0  0  0
 22 23  1  0  0  0  0
 24 25  2  0  0  0  0
 25 26  1  0  0  0  0
M  END
>  <CHROM.1>
144.42519024,-73.99384923,-69.03961960,-104.51308839,51.04501024,66.94951007
137.73788864,129.69536612,64.59553254,-2.16329705,1.97816305,-0.49809987
-0.06245624

>  <Name>
ligand

>  <RI>
0

>  <Rbt.Current_Directory>
/home/itssahil/PROJECTS/Mol_Feturizer/Test_systems_manuscript/rnas/3npn

>  <Rbt.Executable>
rbdock ($Id: //depot/dev/client3/rdock/2013.1/src/exe/rbdock.cxx#4 $)

>  <Rbt.Library>
libRbt.so (2013.1, Build901 2013/11/27)

>  <Rbt.Parameter_File>
/export/apps/rDock/src/rDock_2013.1_src/data/scripts/dock_solv.prm

>  <Rbt.Receptor>
prm/pocket_docking_3.prm

>  <SCORE>
-22.1955

>  <SCORE.INTER>
-22.1726

>  <SCORE.INTER.CONST>
1

>  <SCORE.INTER.POLAR>
0

>  <SCORE.INTER.ROT>
7

>  <SCORE.INTER.SOLV>
21.5216

>  <SCORE.INTER.VDW>
-30.2222

>  <SCORE.INTER.norm>
-0.852791

>  <SCORE.INTRA>
-0.0229921

>  <SCORE.INTRA.DIHEDRAL>
1.68393

>  <SCORE.INTRA.DIHEDRAL.0>
4.37896

>  <SCORE.INTRA.POLAR>
0

>  <SCORE.INTRA.POLAR.0>
0

>  <SCORE.INTRA.REPUL>
0

>  <SCORE.INTRA.REPUL.0>
0

>  <SCORE.INTRA.SOLV>
0.290661

>  <SCORE.INTRA.SOLV.lig_0>
-50.5538

>  <SCORE.INTRA.VDW>
-1.01029

>  <SCORE.INTRA.VDW.0>
-1.30673

>  <SCORE.INTRA.norm>
-0.000884311

>  <SCORE.RESTR>
8.27907e-05

>  <SCORE.RESTR.CAVITY>
8.27907e-05

>  <SCORE.RESTR.norm>
3.18426e-06

>  <SCORE.SYSTEM>
0

>  <SCORE.SYSTEM.CONST>
0

>  <SCORE.SYSTEM.DIHEDRAL>
0

>  <SCORE.SYSTEM.SOLV>
0

>  <SCORE.SYSTEM.norm>
0

>  <SCORE.heavy>
26

>  <SCORE.norm>
-0.853672

>  <RMSD>
1.702

$$$$
ligand
 OpenBabel02271912153D
libRbt.so/2013.1/901 2013/11/27
 26 28  0  0  0  0  0  0  0  0999 V2000
  127.1924   70.4769   -4.3585 N   0  0  0  0  0  0  0  0  0  0  0  0
  127.1454   69.0718   -3.8556 C   0  0  2  0  0  0  0  0  0  0  0  0
  126.0744   68.9176   -2.8144 C   0  0  0  0  0  0  0  0  0  0  0  0
  125.4026   67.8898   -2.7372 O   0  0  0  0  0  0  0  0  0  0  0  0
  128.4956   68.6775   -3.2628 C   0  0  0  0  0  0  0  0  0  0  0  0
  128.7867   67.1833   -3.3627 C   0  0  0  0  0  0  0  0  0  0  0  0
  127.6636   66.2817   -2.3462 S   0  0  0  0  0  0  0  0  0  0  0  0
  128.5129   64.7541   -2.1093 C   0  0  0  0  0  0  0  0  0  0  0  0
  129.6635   64.8967   -1.1145 C   0  0  1  0  0  0  0  0  0  0  0  0
  129.7897   63.7190   -0.3148 O   0  0  0  0  0  0  0  0  0  0  0  0
  130.9787   65.0853   -1.8531 C   0  0  1  0  0  0  0  0  0  0  0  0
  131.6872   66.2029   -1.3089 O   0  0  0  0  0  0  0  0  0  0  0  0
  131.7547   63.7943   -1.6617 C   0  0  1  0  0  0  0  0  0  0  0  0
  133.0559   64.0418   -1.1177 O   0  0  0  0  0  0  0  0  0  0  0  0
  130.9380   62.9494   -0.6909 C   0  0  2  0  0  0  0  0  0  0  0  0
  125.8363   69.8238   -2.0174 O   0  0  0  0  0  0  0  0  0  0  0  0
  131.9511   57.8137   -1.4406 N   0  0  0  0  0  0  0  0  0  0  0  0
  132.6507   58.7368   -0.7506 C   0  0  0  0  0  0  0  0  0  0  0  0
  132.2698   60.0264   -0.6415 N   0  0  0  0  0  0  0  0  0  0  0  0
  131.1344   60.4822   -1.2361 C   0  0  0  0  0  0  0  0  0  0  0  0
  130.3176   59.5292   -2.0080 C   0  0  0  0  0  0  0  0  0  0  0  0
  130.7995   58.1266   -2.0816 C   0  0  0  0  0  0  0  0  0  0  0  0
  130.1069   57.1909   -2.7736 N   0  0  0  0  0  0  0  0  0  0  0  0
  129.2649   60.2159   -2.4840 N   0  0  0  0  0  0  0  0  0  0  0  0
  129.3943   61.4973   -2.0591 C   0  0  0  0  0  0  0  0  0  0  0  0
  130.5063   61.6641   -1.3158 N   0  0  0  0  0  0  0  0  0  0  0  0
  2  1  1  1  0  0  0
  2  3  1  0  0  0  0
  2  5  1  0  0  0  0
  3  4  1  0  0  0  0
  3 16  1  0  0  0  0
  5  6  1  0  0  0  0
  6  7  1  0  0  0  0
  7  8  1  0  0  0  0
  9  8  1  6  0  0  0
  9 10  1  0  0  0  0
  9 11  1  0  0  0  0
 10 15  1  0  0  0  0
 11 12  1  1  0  0  0
 11 13  1  0  0  0  0
 13 14  1  1  0  0  0
 13 15  1  0  0  0  0
 15 26  1  6  0  0  0
 17 18  2  0  0  0  0
 17 22  1  0  0  0  0
 18 19  1  0  0  0  0
 19 20  2  0  0  0  0
 20 21  1  0  0  0  0
 20 26  1  0  0  0  0
 21 22  2  0  0  0  0
 21 24  1  0  0  0  0
 22 23  1  0  0  0  0
 24 25  2  0  0  0  0
 25 26  1  0  0  0  0
M  END
>  <CHROM.1>
143.31601462,-151.43338703,-66.58448356,-159.21395606,75.26000491,143.71858685
-146.70405219,129.53977740,64.06104959,-2.00067756,-2.01641000,0.34057115
-3.13609515

>  <Name>
ligand

>  <RI>
0

>  <Rbt.Current_Directory>
/home/itssahil/PROJECTS/Mol_Feturizer/Test_systems_manuscript/rnas/3npn

>  <Rbt.Executable>
rbdock ($Id: //depot/dev/client3/rdock/2013.1/src/exe/rbdock.cxx#4 $)

>  <Rbt.Library>
libRbt.so (2013.1, Build901 2013/11/27)

>  <Rbt.Parameter_File>
/export/apps/rDock/src/rDock_2013.1_src/data/scripts/dock_solv.prm

>  <Rbt.Receptor>
prm/pocket_docking_6.prm

>  <SCORE>
-24.1898

>  <SCORE.INTER>
-25.5804

>  <SCORE.INTER.CONST>
1

>  <SCORE.INTER.POLAR>
0

>  <SCORE.INTER.ROT>
7

>  <SCORE.INTER.SOLV>
19.3901

>  <SCORE.INTER.VDW>
-31.7836

>  <SCORE.INTER.norm>
-0.983861

>  <SCORE.INTRA>
1.39059

>  <SCORE.INTRA.DIHEDRAL>
5.64953

>  <SCORE.INTRA.DIHEDRAL.0>
4.37896

>  <SCORE.INTRA.POLAR>
0

>  <SCORE.INTRA.POLAR.0>
0

>  <SCORE.INTRA.REPUL>
0

>  <SCORE.INTRA.REPUL.0>
0

>  <SCORE.INTRA.SOLV>
-0.555206

>  <SCORE.INTRA.SOLV.lig_0>
-50.5538

>  <SCORE.INTRA.VDW>
-1.15657

>  <SCORE.INTRA.VDW.0>
-1.30673

>  <SCORE.INTRA.norm>
0.0534843

>  <SCORE.RESTR>
0

>  <SCORE.RESTR.CAVITY>
0

>  <SCORE.RESTR.norm>
0

>  <SCORE.SYSTEM>
0

>  <SCORE.SYSTEM.CONST>
0

>  <SCORE.SYSTEM.DIHEDRAL>
0

>  <SCORE.SYSTEM.SOLV>
0

>  <SCORE.SYSTEM.norm>
0

>  <SCORE.heavy>
26

>  <SCORE.norm>
-0.930376

>  <RMSD>
1.709

$$$$
ligand
 OpenBabel02271912153D
libRbt.so/2013.1/901 2013/11/27
 26 28  0  0  0  0  0  0  0  0999 V2000
  127.8976   70.2001   -3.9709 N   0  0  0  0  0  0  0  0  0  0  0  0
  127.6788   69.5608   -2.6395 C   0  0  2  0  0  0  0  0  0  0  0  0
  128.9546   68.9580   -2.1254 C   0  0  0  0  0  0  0  0  0  0  0  0
  128.9852   68.3391   -1.0626 O   0  0  0  0  0  0  0  0  0  0  0  0
  126.6071   68.4789   -2.7427 C   0  0  0  0  0  0  0  0  0  0  0  0
  127.0789   67.2286   -3.4786 C   0  0  0  0  0  0  0  0  0  0  0  0
  127.5581   65.9914   -2.3180 S   0  0  0  0  0  0  0  0  0  0  0  0
  129.2681   65.7690   -2.6888 C   0  0  0  0  0  0  0  0  0  0  0  0
  130.1103   65.6537   -1.4195 C   0  0  1  0  0  0  0  0  0  0  0  0
  129.6400   64.5847   -0.5958 O   0  0  0  0  0  0  0  0  0  0  0  0
  131.5573   65.3500   -1.7727 C   0  0  1  0  0  0  0  0  0  0  0  0
  132.4276   66.2457   -1.0744 O   0  0  0  0  0  0  0  0  0  0  0  0
  131.7967   63.9102   -1.3540 C   0  0  1  0  0  0  0  0  0  0  0  0
  132.9246   63.8007   -0.4786 O   0  0  0  0  0  0  0  0  0  0  0  0
  130.5319   63.4641   -0.6297 C   0  0  2  0  0  0  0  0  0  0  0  0
  130.0053   69.0783   -2.7536 O   0  0  0  0  0  0  0  0  0  0  0  0
  130.8287   58.3775   -2.0449 N   0  0  0  0  0  0  0  0  0  0  0  0
  131.7090   59.1318   -1.3565 C   0  0  0  0  0  0  0  0  0  0  0  0
  131.5006   60.4319   -1.0629 N   0  0  0  0  0  0  0  0  0  0  0  0
  130.3668   61.0735   -1.4546 C   0  0  0  0  0  0  0  0  0  0  0  0
  129.3579   60.3120   -2.2119 C   0  0  0  0  0  0  0  0  0  0  0  0
  129.6565   58.8853   -2.4955 C   0  0  0  0  0  0  0  0  0  0  0  0
  128.7813   58.1182   -3.1882 N   0  0  0  0  0  0  0  0  0  0  0  0
  128.3471   61.1585   -2.4728 N   0  0  0  0  0  0  0  0  0  0  0  0
  128.6774   62.3586   -1.9344 C   0  0  0  0  0  0  0  0  0  0  0  0
  129.8799   62.3162   -1.3268 N   0  0  0  0  0  0  0  0  0  0  0  0
  2  1  1  6  0  0  0
  2  3  1  0  0  0  0
  2  5  1  0  0  0  0
  3  4  1  0  0  0  0
  3 16  1  0  0  0  0
  5  6  1  0  0  0  0
  6  7  1  0  0  0  0
  7  8  1  0  0  0  0
  9  8  1  6  0  0  0
  9 10  1  0  0  0  0
  9 11  1  0  0  0  0
 10 15  1  0  0  0  0
 11 12  1  1  0  0  0
 11 13  1  0  0  0  0
 13 14  1  1  0  0  0
 13 15  1  0  0  0  0
 15 26  1  6  0  0  0
 17 18  2  0  0  0  0
 17 22  1  0  0  0  0
 18 19  1  0  0  0  0
 19 20  2  0  0  0  0
 20 21  1  0  0  0  0
 20 26  1  0  0  0  0
 21 22  2  0  0  0  0
 21 24  1  0  0  0  0
 22 23  1  0  0  0  0
 24 25  2  0  0  0  0
 25 26  1  0  0  0  0
M  END
>  <CHROM.1>
-177.42563626,72.30616975,98.44311241,-118.04078103,137.65980097,56.74186629
-174.29807017,129.61192122,64.38825147,-1.95175627,1.81198492,-0.41683731
0.01861465

>  <Name>
ligand

>  <RI>
0

>  <Rbt.Current_Directory>
/home/itssahil/PROJECTS/Mol_Feturizer/Test_systems_manuscript/rnas/3npn

>  <Rbt.Executable>
rbdock ($Id: //depot/dev/client3/rdock/2013.1/src/exe/rbdock.cxx#4 $)

>  <Rbt.Library>
libRbt.so (2013.1, Build901 2013/11/27)

>  <Rbt.Parameter_File>
/export/apps/rDock/src/rDock_2013.1_src/data/scripts/dock_solv.prm

>  <Rbt.Receptor>
prm/pocket_docking_5.prm

>  <SCORE>
-23.4532

>  <SCORE.INTER>
-25.5474

>  <SCORE.INTER.CONST>
1

>  <SCORE.INTER.POLAR>
0

>  <SCORE.INTER.ROT>
7

>  <SCORE.INTER.SOLV>
22.2644

>  <SCORE.INTER.VDW>
-32.7198

>  <SCORE.INTER.norm>
-0.982594

>  <SCORE.INTRA>
2.09421

>  <SCORE.INTRA.DIHEDRAL>
7.14848

>  <SCORE.INTRA.DIHEDRAL.0>
4.37896

>  <SCORE.INTRA.POLAR>
0

>  <SCORE.INTRA.POLAR.0>
0

>  <SCORE.INTRA.REPUL>
0

>  <SCORE.INTRA.REPUL.0>
0

>  <SCORE.INTRA.SOLV>
-0.0383098

>  <SCORE.INTRA.SOLV.lig_0>
-50.5538

>  <SCORE.INTRA.VDW>
-1.46087

>  <SCORE.INTRA.VDW.0>
-1.30673

>  <SCORE.INTRA.norm>
0.0805466

>  <SCORE.RESTR>
0

>  <SCORE.RESTR.CAVITY>
0

>  <SCORE.RESTR.norm>
0

>  <SCORE.SYSTEM>
0

>  <SCORE.SYSTEM.CONST>
0

>  <SCORE.SYSTEM.DIHEDRAL>
0

>  <SCORE.SYSTEM.SOLV>
0

>  <SCORE.SYSTEM.norm>
0

>  <SCORE.heavy>
26

>  <SCORE.norm>
-0.902047

>  <RMSD>
1.727

$$$$
ligand
 OpenBabel02271912153D
libRbt.so/2013.1/901 2013/11/27
 26 28  0  0  0  0  0  0  0  0999 V2000
  129.2772   70.4231   -2.0377 N   0  0  0  0  0  0  0  0  0  0  0  0
  128.6823   70.2100   -3.3904 C   0  0  2  0  0  0  0  0  0  0  0  0
  129.0956   71.3066   -4.3295 C   0  0  0  0  0  0  0  0  0  0  0  0
  130.0853   71.1898   -5.0510 O   0  0  0  0  0  0  0  0  0  0  0  0
  127.1595   70.1640   -3.2965 C   0  0  0  0  0  0  0  0  0  0  0  0
  126.6339   68.9101   -2.6044 C   0  0  0  0  0  0  0  0  0  0  0  0
  127.0105   67.4855   -3.5719 S   0  0  0  0  0  0  0  0  0  0  0  0
  127.4209   66.2914   -2.3403 C   0  0  0  0  0  0  0  0  0  0  0  0
  128.7654   66.5981   -1.6830 C   0  0  1  0  0  0  0  0  0  0  0  0
  129.1290   65.5624   -0.7678 O   0  0  0  0  0  0  0  0  0  0  0  0
  129.8603   66.6780   -2.7345 C   0  0  1  0  0  0  0  0  0  0  0  0
  130.6257   67.8729   -2.5511 O   0  0  0  0  0  0  0  0  0  0  0  0
  130.7171   65.4394   -2.5410 C   0  0  1  0  0  0  0  0  0  0  0  0
  132.0971   65.7797   -2.3679 O   0  0  0  0  0  0  0  0  0  0  0  0
  130.1904   64.7520   -1.2867 C   0  0  2  0  0  0  0  0  0  0  0  0
  128.4567   72.3559   -4.3917 O   0  0  0  0  0  0  0  0  0  0  0  0
  131.2245   59.5687   -1.4539 N   0  0  0  0  0  0  0  0  0  0  0  0
  132.0234   60.5943   -1.0969 C   0  0  0  0  0  0  0  0  0  0  0  0
  131.6226   61.8824   -1.1013 N   0  0  0  0  0  0  0  0  0  0  0  0
  130.3623   62.2307   -1.4768 C   0  0  0  0  0  0  0  0  0  0  0  0
  129.4319   61.1618   -1.8805 C   0  0  0  0  0  0  0  0  0  0  0  0
  129.9440   59.7683   -1.8482 C   0  0  0  0  0  0  0  0  0  0  0  0
  129.1519   58.7301   -2.2069 N   0  0  0  0  0  0  0  0  0  0  0  0
  128.2694   61.7573   -2.1969 N   0  0  0  0  0  0  0  0  0  0  0  0
  128.4376   63.0909   -2.0162 C   0  0  0  0  0  0  0  0  0  0  0  0
  129.6824   63.3809   -1.5881 N   0  0  0  0  0  0  0  0  0  0  0  0
  2  1  1  1  0  0  0
  2  3  1  0  0  0  0
  2  5  1  0  0  0  0
  3  4  1  0  0  0  0
  3 16  1  0  0  0  0
  5  6  1  0  0  0  0
  6  7  1  0  0  0  0
  7  8  1  0  0  0  0
  9  8  1  6  0  0  0
  9 10  1  0  0  0  0
  9 11  1  0  0  0  0
 10 15  1  0  0  0  0
 11 12  1  1  0  0  0
 11 13  1  0  0  0  0
 13 14  1  1  0  0  0
 13 15  1  0  0  0  0
 15 26  1  6  0  0  0
 17 18  2  0  0  0  0
 17 22  1  0  0  0  0
 18 19  1  0  0  0  0
 19 20  2  0  0  0  0
 20 21  1  0  0  0  0
 20 26  1  0  0  0  0
 21 22  2  0  0  0  0
 21 24  1  0  0  0  0
 22 23  1  0  0  0  0
 24 25  2  0  0  0  0
 25 26  1  0  0  0  0
M  END
>  <CHROM.1>
92.96770862,-70.06884597,-65.49046422,141.64908740,-71.42101667,-175.30552925
-146.35500371,129.31983501,65.74656967,-2.46133764,-1.74857832,0.10261774
2.95012184

>  <Name>
ligand

>  <RI>
0

>  <Rbt.Current_Directory>
/home/itssahil/PROJECTS/Mol_Feturizer/Test_systems_manuscript/rnas/3npn

>  <Rbt.Executable>
rbdock ($Id: //depot/dev/client3/rdock/2013.1/src/exe/rbdock.cxx#4 $)

>  <Rbt.Library>
libRbt.so (2013.1, Build901 2013/11/27)

>  <Rbt.Parameter_File>
/export/apps/rDock/src/rDock_2013.1_src/data/scripts/dock_solv.prm

>  <Rbt.Receptor>
prm/pocket_docking_6.prm

>  <SCORE>
-27.6374

>  <SCORE.INTER>
-28.2408

>  <SCORE.INTER.CONST>
1

>  <SCORE.INTER.POLAR>
0

>  <SCORE.INTER.ROT>
7

>  <SCORE.INTER.SOLV>
21.4182

>  <SCORE.INTER.VDW>
-34.2333

>  <SCORE.INTER.norm>
-1.08618

>  <SCORE.INTRA>
0.603384

>  <SCORE.INTRA.DIHEDRAL>
0.790281

>  <SCORE.INTRA.DIHEDRAL.0>
4.37896

>  <SCORE.INTRA.POLAR>
0

>  <SCORE.INTRA.POLAR.0>
0

>  <SCORE.INTRA.REPUL>
0

>  <SCORE.INTRA.REPUL.0>
0

>  <SCORE.INTRA.SOLV>
2.80054

>  <SCORE.INTRA.SOLV.lig_0>
-50.5538

>  <SCORE.INTRA.VDW>
-1.19203

>  <SCORE.INTRA.VDW.0>
-1.30673

>  <SCORE.INTRA.norm>
0.0232071

>  <SCORE.RESTR>
0

>  <SCORE.RESTR.CAVITY>
0

>  <SCORE.RESTR.norm>
0

>  <SCORE.SYSTEM>
0

>  <SCORE.SYSTEM.CONST>
0

>  <SCORE.SYSTEM.DIHEDRAL>
0

>  <SCORE.SYSTEM.SOLV>
0

>  <SCORE.SYSTEM.norm>
0

>  <SCORE.heavy>
26

>  <SCORE.norm>
-1.06298

>  <RMSD>
1.749

$$$$
ligand
 OpenBabel02271912153D
libRbt.so/2013.1/901 2013/11/27
 26 28  0  0  0  0  0  0  0  0999 V2000
  125.8095   71.6752   -3.5999 N   0  0  0  0  0  0  0  0  0  0  0  0
  127.2190   71.1921   -3.5031 C   0  0  2  0  0  0  0  0  0  0  0  0
  127.7098   70.7194   -4.8413 C   0  0  0  0  0  0  0  0  0  0  0  0
  128.9037   70.7634   -5.1353 O   0  0  0  0  0  0  0  0  0  0  0  0
  127.3191   70.0544   -2.4906 C   0  0  0  0  0  0  0  0  0  0  0  0
  126.2944   68.9479   -2.7209 C   0  0  0  0  0  0  0  0  0  0  0  0
  126.9801   67.6985   -3.7583 S   0  0  0  0  0  0  0  0  0  0  0  0
  127.4029   66.4373   -2.5999 C   0  0  0  0  0  0  0  0  0  0  0  0
  128.6645   66.7923   -1.8149 C   0  0  1  0  0  0  0  0  0  0  0  0
  128.9532   65.7877   -0.8402 O   0  0  0  0  0  0  0  0  0  0  0  0
  129.8611   66.8739   -2.7488 C   0  0  1  0  0  0  0  0  0  0  0  0
  130.5769   68.0912   -2.5183 O   0  0  0  0  0  0  0  0  0  0  0  0
  130.7199   65.6616   -2.4353 C   0  0  1  0  0  0  0  0  0  0  0  0
  132.0665   66.0396   -2.1289 O   0  0  0  0  0  0  0  0  0  0  0  0
  130.0803   64.9914   -1.2249 C   0  0  2  0  0  0  0  0  0  0  0  0
  126.9242   70.2845   -5.6821 O   0  0  0  0  0  0  0  0  0  0  0  0
  131.3152   59.8507   -1.3351 N   0  0  0  0  0  0  0  0  0  0  0  0
  132.0603   60.9065   -0.9505 C   0  0  0  0  0  0  0  0  0  0  0  0
  131.6116   62.1784   -0.9746 N   0  0  0  0  0  0  0  0  0  0  0  0
  130.3547   62.4781   -1.4000 C   0  0  0  0  0  0  0  0  0  0  0  0
  129.4817   61.3741   -1.8362 C   0  0  0  0  0  0  0  0  0  0  0  0
  130.0444   60.0011   -1.7796 C   0  0  0  0  0  0  0  0  0  0  0  0
  129.3067   58.9329   -2.1656 N   0  0  0  0  0  0  0  0  0  0  0  0
  128.3108   61.9247   -2.1996 N   0  0  0  0  0  0  0  0  0  0  0  0
  128.4213   63.2639   -2.0168 C   0  0  0  0  0  0  0  0  0  0  0  0
  129.6367   63.6016   -1.5414 N   0  0  0  0  0  0  0  0  0  0  0  0
  2  1  1  6  0  0  0
  2  3  1  0  0  0  0
  2  5  1  0  0  0  0
  3  4  1  0  0  0  0
  3 16  1  0  0  0  0
  5  6  1  0  0  0  0
  6  7  1  0  0  0  0
  7  8  1  0  0  0  0
  9  8  1  6  0  0  0
  9 10  1  0  0  0  0
  9 11  1  0  0  0  0
 10 15  1  0  0  0  0
 11 12  1  1  0  0  0
 11 13  1  0  0  0  0
 13 14  1  1  0  0  0
 13 15  1  0  0  0  0
 15 26  1  6  0  0  0
 17 18  2  0  0  0  0
 17 22  1  0  0  0  0
 18 19  1  0  0  0  0
 19 20  2  0  0  0  0
 20 21  1  0  0  0  0
 20 26  1  0  0  0  0
 21 22  2  0  0  0  0
 21 24  1  0  0  0  0
 22 23  1  0  0  0  0
 24 25  2  0  0  0  0
 25 26  1  0  0  0  0
M  END
>  <CHROM.1>
151.95082625,50.62740832,91.86265389,101.65190571,-75.66939977,177.29397957
-150.39625302,128.96538115,65.86389913,-2.56606751,1.90099956,-0.24646324
-0.18087027

>  <Name>
ligand

>  <RI>
0

>  <Rbt.Current_Directory>
/home/itssahil/PROJECTS/Mol_Feturizer/Test_systems_manuscript/rnas/3npn

>  <Rbt.Executable>
rbdock ($Id: //depot/dev/client3/rdock/2013.1/src/exe/rbdock.cxx#4 $)

>  <Rbt.Library>
libRbt.so (2013.1, Build901 2013/11/27)

>  <Rbt.Parameter_File>
/export/apps/rDock/src/rDock_2013.1_src/data/scripts/dock_solv.prm

>  <Rbt.Receptor>
prm/pocket_docking_4.prm

>  <SCORE>
-28.1654

>  <SCORE.INTER>
-28.6873

>  <SCORE.INTER.CONST>
1

>  <SCORE.INTER.POLAR>
0

>  <SCORE.INTER.ROT>
7

>  <SCORE.INTER.SOLV>
27.1689

>  <SCORE.INTER.VDW>
-36.4478

>  <SCORE.INTER.norm>
-1.10336

>  <SCORE.INTRA>
0.521827

>  <SCORE.INTRA.DIHEDRAL>
3.99126

>  <SCORE.INTRA.DIHEDRAL.0>
4.37896

>  <SCORE.INTRA.POLAR>
0

>  <SCORE.INTRA.POLAR.0>
0

>  <SCORE.INTRA.REPUL>
0

>  <SCORE.INTRA.REPUL.0>
0

>  <SCORE.INTRA.SOLV>
0.569617

>  <SCORE.INTRA.SOLV.lig_0>
-50.5538

>  <SCORE.INTRA.VDW>
-1.75861

>  <SCORE.INTRA.VDW.0>
-1.30673

>  <SCORE.INTRA.norm>
0.0200703

>  <SCORE.RESTR>
0

>  <SCORE.RESTR.CAVITY>
0

>  <SCORE.RESTR.norm>
0

>  <SCORE.SYSTEM>
0

>  <SCORE.SYSTEM.CONST>
0

>  <SCORE.SYSTEM.DIHEDRAL>
0

>  <SCORE.SYSTEM.SOLV>
0

>  <SCORE.SYSTEM.norm>
0

>  <SCORE.heavy>
26

>  <SCORE.norm>
-1.08329

>  <RMSD>
1.819

$$$$
ligand
 OpenBabel02271912153D
libRbt.so/2013.1/901 2013/11/27
 26 28  0  0  0  0  0  0  0  0999 V2000
  125.8491   71.6501   -3.6367 N   0  0  0  0  0  0  0  0  0  0  0  0
  127.2564   71.1641   -3.5253 C   0  0  2  0  0  0  0  0  0  0  0  0
  127.7460   70.6514   -4.8491 C   0  0  0  0  0  0  0  0  0  0  0  0
  128.9458   70.6275   -5.1202 O   0  0  0  0  0  0  0  0  0  0  0  0
  127.3513   70.0554   -2.4806 C   0  0  0  0  0  0  0  0  0  0  0  0
  126.3076   68.9583   -2.6667 C   0  0  0  0  0  0  0  0  0  0  0  0
  126.9230   67.7211   -3.7612 S   0  0  0  0  0  0  0  0  0  0  0  0
  127.3987   66.4372   -2.6492 C   0  0  0  0  0  0  0  0  0  0  0  0
  128.6587   66.8055   -1.8680 C   0  0  1  0  0  0  0  0  0  0  0  0
  128.9467   65.8167   -0.8771 O   0  0  0  0  0  0  0  0  0  0  0  0
  129.8567   66.8733   -2.8013 C   0  0  1  0  0  0  0  0  0  0  0  0
  130.5712   68.0946   -2.5890 O   0  0  0  0  0  0  0  0  0  0  0  0
  130.7159   65.6667   -2.4673 C   0  0  1  0  0  0  0  0  0  0  0  0
  132.0618   66.0505   -2.1648 O   0  0  0  0  0  0  0  0  0  0  0  0
  130.0750   65.0153   -1.2474 C   0  0  2  0  0  0  0  0  0  0  0  0
  126.9538   70.2508   -5.7008 O   0  0  0  0  0  0  0  0  0  0  0  0
  131.3609   59.8885   -1.4114 N   0  0  0  0  0  0  0  0  0  0  0  0
  132.1110   60.9529   -1.0619 C   0  0  0  0  0  0  0  0  0  0  0  0
  131.6475   62.2198   -1.0661 N   0  0  0  0  0  0  0  0  0  0  0  0
  130.3691   62.5050   -1.4336 C   0  0  0  0  0  0  0  0  0  0  0  0
  129.4895   61.3909   -1.8288 C   0  0  0  0  0  0  0  0  0  0  0  0
  130.0696   60.0243   -1.7973 C   0  0  0  0  0  0  0  0  0  0  0  0
  129.3269   58.9476   -2.1485 N   0  0  0  0  0  0  0  0  0  0  0  0
  128.2971   61.9280   -2.1384 N   0  0  0  0  0  0  0  0  0  0  0  0
  128.4009   63.2686   -1.9615 C   0  0  0  0  0  0  0  0  0  0  0  0
  129.6329   63.6203   -1.5426 N   0  0  0  0  0  0  0  0  0  0  0  0
  2  1  1  6  0  0  0
  2  3  1  0  0  0  0
  2  5  1  0  0  0  0
  3  4  1  0  0  0  0
  3 16  1  0  0  0  0
  5  6  1  0  0  0  0
  6  7  1  0  0  0  0
  7  8  1  0  0  0  0
  9  8  1  6  0  0  0
  9 10  1  0  0  0  0
  9 11  1  0  0  0  0
 10 15  1  0  0  0  0
 11 12  1  1  0  0  0
 11 13  1  0  0  0  0
 13 14  1  1  0  0  0
 13 15  1  0  0  0  0
 15 26  1  6  0  0  0
 17 18  2  0  0  0  0
 17 22  1  0  0  0  0
 18 19  1  0  0  0  0
 19 20  2  0  0  0  0
 20 21  1  0  0  0  0
 20 26  1  0  0  0  0
 21 22  2  0  0  0  0
 21 24  1  0  0  0  0
 22 23  1  0  0  0  0
 24 25  2  0  0  0  0
 25 26  1  0  0  0  0
M  END
>  <CHROM.1>
155.19418257,49.70405694,88.08297964,101.88813153,-72.19279802,173.96341390
-153.30696486,128.97328383,65.86632597,-2.58655472,1.90129347,-0.21815758
-0.18877455

>  <Name>
ligand

>  <RI>
0

>  <Rbt.Current_Directory>
/home/itssahil/PROJECTS/Mol_Feturizer/Test_systems_manuscript/rnas/3npn

>  <Rbt.Executable>
rbdock ($Id: //depot/dev/client3/rdock/2013.1/src/exe/rbdock.cxx#4 $)

>  <Rbt.Library>
libRbt.so (2013.1, Build901 2013/11/27)

>  <Rbt.Parameter_File>
/export/apps/rDock/src/rDock_2013.1_src/data/scripts/dock_solv.prm

>  <Rbt.Receptor>
prm/pocket_docking_3.prm

>  <SCORE>
-28.0784

>  <SCORE.INTER>
-28.3389

>  <SCORE.INTER.CONST>
1

>  <SCORE.INTER.POLAR>
0

>  <SCORE.INTER.ROT>
7

>  <SCORE.INTER.SOLV>
26.8581

>  <SCORE.INTER.VDW>
-36.1119

>  <SCORE.INTER.norm>
-1.08996

>  <SCORE.INTRA>
0.260492

>  <SCORE.INTRA.DIHEDRAL>
3.48497

>  <SCORE.INTRA.DIHEDRAL.0>
4.37896

>  <SCORE.INTRA.POLAR>
0

>  <SCORE.INTRA.POLAR.0>
0

>  <SCORE.INTRA.REPUL>
0

>  <SCORE.INTRA.REPUL.0>
0

>  <SCORE.INTRA.SOLV>
0.646665

>  <SCORE.INTRA.SOLV.lig_0>
-50.5538

>  <SCORE.INTRA.VDW>
-1.80533

>  <SCORE.INTRA.VDW.0>
-1.30673

>  <SCORE.INTRA.norm>
0.0100189

>  <SCORE.RESTR>
0

>  <SCORE.RESTR.CAVITY>
0

>  <SCORE.RESTR.norm>
0

>  <SCORE.SYSTEM>
0

>  <SCORE.SYSTEM.CONST>
0

>  <SCORE.SYSTEM.DIHEDRAL>
0

>  <SCORE.SYSTEM.SOLV>
0

>  <SCORE.SYSTEM.norm>
0

>  <SCORE.heavy>
26

>  <SCORE.norm>
-1.07994

>  <RMSD>
1.831

$$$$
ligand
 OpenBabel02271912153D
libRbt.so/2013.1/901 2013/11/27
 26 28  0  0  0  0  0  0  0  0999 V2000
  125.9800   71.8249   -3.6939 N   0  0  0  0  0  0  0  0  0  0  0  0
  126.8888   70.6771   -3.4007 C   0  0  2  0  0  0  0  0  0  0  0  0
  128.3133   71.1418   -3.3003 C   0  0  0  0  0  0  0  0  0  0  0  0
  128.7798   71.9482   -4.1040 O   0  0  0  0  0  0  0  0  0  0  0  0
  126.7722   69.6183   -4.4939 C   0  0  0  0  0  0  0  0  0  0  0  0
  127.3637   68.2698   -4.0953 C   0  0  0  0  0  0  0  0  0  0  0  0
  126.4839   67.6098   -2.7178 S   0  0  0  0  0  0  0  0  0  0  0  0
  127.4045   66.1518   -2.3462 C   0  0  0  0  0  0  0  0  0  0  0  0
  128.7535   66.4831   -1.7105 C   0  0  1  0  0  0  0  0  0  0  0  0
  129.1466   65.4584   -0.7951 O   0  0  0  0  0  0  0  0  0  0  0  0
  129.8315   66.5740   -2.7784 C   0  0  1  0  0  0  0  0  0  0  0  0
  130.5807   67.7816   -2.6129 O   0  0  0  0  0  0  0  0  0  0  0  0
  130.7103   65.3499   -2.5908 C   0  0  1  0  0  0  0  0  0  0  0  0
  132.0872   65.7127   -2.4399 O   0  0  0  0  0  0  0  0  0  0  0  0
  130.2128   64.6616   -1.3252 C   0  0  2  0  0  0  0  0  0  0  0  0
  129.0528   70.7171   -2.4138 O   0  0  0  0  0  0  0  0  0  0  0  0
  131.3394   59.4988   -1.5267 N   0  0  0  0  0  0  0  0  0  0  0  0
  132.1294   60.5395   -1.1937 C   0  0  0  0  0  0  0  0  0  0  0  0
  131.7043   61.8197   -1.1852 N   0  0  0  0  0  0  0  0  0  0  0  0
  130.4267   62.1440   -1.5217 C   0  0  0  0  0  0  0  0  0  0  0  0
  129.5047   61.0576   -1.8973 C   0  0  0  0  0  0  0  0  0  0  0  0
  130.0439   59.6741   -1.8814 C   0  0  0  0  0  0  0  0  0  0  0  0
  129.2611   58.6210   -2.2163 N   0  0  0  0  0  0  0  0  0  0  0  0
  128.3220   61.6310   -2.1777 N   0  0  0  0  0  0  0  0  0  0  0  0
  128.4703   62.9675   -2.0015 C   0  0  0  0  0  0  0  0  0  0  0  0
  129.7220   63.2811   -1.6116 N   0  0  0  0  0  0  0  0  0  0  0  0
  2  1  1  6  0  0  0
  2  3  1  0  0  0  0
  2  5  1  0  0  0  0
  3  4  1  0  0  0  0
  3 16  1  0  0  0  0
  5  6  1  0  0  0  0
  6  7  1  0  0  0  0
  7  8  1  0  0  0  0
  9  8  1  6  0  0  0
  9 10  1  0  0  0  0
  9 11  1  0  0  0  0
 10 15  1  0  0  0  0
 11 12  1  1  0  0  0
 11 13  1  0  0  0  0
 13 14  1  1  0  0  0
 13 15  1  0  0  0  0
 15 26  1  6  0  0  0
 17 18  2  0  0  0  0
 17 22  1  0  0  0  0
 18 19  1  0  0  0  0
 19 20  2  0  0  0  0
 20 21  1  0  0  0  0
 20 26  1  0  0  0  0
 21 22  2  0  0  0  0
 21 24  1  0  0  0  0
 22 23  1  0  0  0  0
 24 25  2  0  0  0  0
 25 26  1  0  0  0  0
M  END
>  <CHROM.1>
-43.08907172,-164.41075768,62.58600299,-175.33186976,72.32934584,148.41859241
-147.34744457,129.07092738,65.67606299,-2.41805074,1.85599434,-0.17336425
-0.13313308

>  <Name>
ligand

>  <RI>
0

>  <Rbt.Current_Directory>
/home/itssahil/PROJECTS/Mol_Feturizer/Test_systems_manuscript/rnas/3npn

>  <Rbt.Executable>
rbdock ($Id: //depot/dev/client3/rdock/2013.1/src/exe/rbdock.cxx#4 $)

>  <Rbt.Library>
libRbt.so (2013.1, Build901 2013/11/27)

>  <Rbt.Parameter_File>
/export/apps/rDock/src/rDock_2013.1_src/data/scripts/dock_solv.prm

>  <Rbt.Receptor>
prm/pocket_docking_4.prm

>  <SCORE>
-29.7152

>  <SCORE.INTER>
-28.8762

>  <SCORE.INTER.CONST>
1

>  <SCORE.INTER.POLAR>
0

>  <SCORE.INTER.ROT>
7

>  <SCORE.INTER.SOLV>
28.4862

>  <SCORE.INTER.VDW>
-37.0129

>  <SCORE.INTER.norm>
-1.11062

>  <SCORE.INTRA>
-0.838989

>  <SCORE.INTRA.DIHEDRAL>
2.33291

>  <SCORE.INTRA.DIHEDRAL.0>
4.37896

>  <SCORE.INTRA.POLAR>
0

>  <SCORE.INTRA.POLAR.0>
0

>  <SCORE.INTRA.REPUL>
0

>  <SCORE.INTRA.REPUL.0>
0

>  <SCORE.INTRA.SOLV>
-0.431251

>  <SCORE.INTRA.SOLV.lig_0>
-50.5538

>  <SCORE.INTRA.VDW>
-1.78982

>  <SCORE.INTRA.VDW.0>
-1.30673

>  <SCORE.INTRA.norm>
-0.0322688

>  <SCORE.RESTR>
0

>  <SCORE.RESTR.CAVITY>
0

>  <SCORE.RESTR.norm>
0

>  <SCORE.SYSTEM>
0

>  <SCORE.SYSTEM.CONST>
0

>  <SCORE.SYSTEM.DIHEDRAL>
0

>  <SCORE.SYSTEM.SOLV>
0

>  <SCORE.SYSTEM.norm>
0

>  <SCORE.heavy>
26

>  <SCORE.norm>
-1.14289

>  <RMSD>
1.836

$$$$
ligand
 OpenBabel02271912153D
libRbt.so/2013.1/901 2013/11/27
 26 28  0  0  0  0  0  0  0  0999 V2000
  128.8977   70.2852   -2.7599 N   0  0  0  0  0  0  0  0  0  0  0  0
  128.1549   69.6971   -3.9139 C   0  0  2  0  0  0  0  0  0  0  0  0
  126.7645   70.2594   -3.9906 C   0  0  0  0  0  0  0  0  0  0  0  0
  126.1019   70.4642   -2.9744 O   0  0  0  0  0  0  0  0  0  0  0  0
  128.0856   68.1783   -3.7788 C   0  0  0  0  0  0  0  0  0  0  0  0
  127.6008   67.7145   -2.4086 C   0  0  0  0  0  0  0  0  0  0  0  0
  127.7185   65.9597   -2.2906 S   0  0  0  0  0  0  0  0  0  0  0  0
  129.4513   65.6852   -2.4721 C   0  0  0  0  0  0  0  0  0  0  0  0
  130.2320   66.1851   -1.2579 C   0  0  1  0  0  0  0  0  0  0  0  0
  130.2007   65.2202   -0.2041 O   0  0  0  0  0  0  0  0  0  0  0  0
  131.6904   66.4082   -1.6240 C   0  0  1  0  0  0  0  0  0  0  0  0
  132.1123   67.7009   -1.1789 O   0  0  0  0  0  0  0  0  0  0  0  0
  132.4694   65.3049   -0.9301 C   0  0  1  0  0  0  0  0  0  0  0  0
  133.5215   65.8383   -0.1184 O   0  0  0  0  0  0  0  0  0  0  0  0
  131.4649   64.5626   -0.0565 C   0  0  2  0  0  0  0  0  0  0  0  0
  126.2501   70.5200   -5.0772 O   0  0  0  0  0  0  0  0  0  0  0  0
  128.4822   60.8190   -2.3045 N   0  0  0  0  0  0  0  0  0  0  0  0
  128.2142   62.1243   -2.0987 C   0  0  0  0  0  0  0  0  0  0  0  0
  129.0785   62.9739   -1.5062 N   0  0  0  0  0  0  0  0  0  0  0  0
  130.2968   62.5546   -1.0696 C   0  0  0  0  0  0  0  0  0  0  0  0
  130.6597   61.1393   -1.2608 C   0  0  0  0  0  0  0  0  0  0  0  0
  129.6579   60.2654   -1.9223 C   0  0  0  0  0  0  0  0  0  0  0  0
  129.9144   58.9522   -2.1324 N   0  0  0  0  0  0  0  0  0  0  0  0
  131.8950   60.9830   -0.7551 N   0  0  0  0  0  0  0  0  0  0  0  0
  132.2907   62.1892   -0.2779 C   0  0  0  0  0  0  0  0  0  0  0  0
  131.3433   63.1306   -0.4608 N   0  0  0  0  0  0  0  0  0  0  0  0
  2  1  1  1  0  0  0
  2  3  1  0  0  0  0
  2  5  1  0  0  0  0
  3  4  1  0  0  0  0
  3 16  1  0  0  0  0
  5  6  1  0  0  0  0
  6  7  1  0  0  0  0
  7  8  1  0  0  0  0
  9  8  1  6  0  0  0
  9 10  1  0  0  0  0
  9 11  1  0  0  0  0
 10 15  1  0  0  0  0
 11 12  1  1  0  0  0
 11 13  1  0  0  0  0
 13 14  1  1  0  0  0
 13 15  1  0  0  0  0
 15 26  1  6  0  0  0
 17 18  2  0  0  0  0
 17 22  1  0  0  0  0
 18 19  1  0  0  0  0
 19 20  2  0  0  0  0
 20 21  1  0  0  0  0
 20 26  1  0  0  0  0
 21 22  2  0  0  0  0
 21 24  1  0  0  0  0
 22 23  1  0  0  0  0
 24 25  2  0  0  0  0
 25 26  1  0  0  0  0
M  END
>  <CHROM.1>
-39.31888925,50.01188881,-173.96680548,62.05562780,69.54374474,81.85647840
9.79298792,129.60301369,65.35783115,-1.90640872,-1.99595180,0.47568608,3.06288159

>  <Name>
ligand

>  <RI>
0

>  <Rbt.Current_Directory>
/home/itssahil/PROJECTS/Mol_Feturizer/Test_systems_manuscript/rnas/3npn

>  <Rbt.Executable>
rbdock ($Id: //depot/dev/client3/rdock/2013.1/src/exe/rbdock.cxx#4 $)

>  <Rbt.Library>
libRbt.so (2013.1, Build901 2013/11/27)

>  <Rbt.Parameter_File>
/export/apps/rDock/src/rDock_2013.1_src/data/scripts/dock_solv.prm

>  <Rbt.Receptor>
prm/pocket_docking_3.prm

>  <SCORE>
-27.2119

>  <SCORE.INTER>
-26.3642

>  <SCORE.INTER.CONST>
1

>  <SCORE.INTER.POLAR>
0

>  <SCORE.INTER.ROT>
7

>  <SCORE.INTER.SOLV>
16.1553

>  <SCORE.INTER.VDW>
-31.2279

>  <SCORE.INTER.norm>
-1.01401

>  <SCORE.INTRA>
-0.847749

>  <SCORE.INTRA.DIHEDRAL>
0.495719

>  <SCORE.INTRA.DIHEDRAL.0>
4.37896

>  <SCORE.INTRA.POLAR>
0

>  <SCORE.INTRA.POLAR.0>
0

>  <SCORE.INTRA.REPUL>
0

>  <SCORE.INTRA.REPUL.0>
0

>  <SCORE.INTRA.SOLV>
0.0851673

>  <SCORE.INTRA.SOLV.lig_0>
-50.5538

>  <SCORE.INTRA.VDW>
-1.13819

>  <SCORE.INTRA.VDW.0>
-1.30673

>  <SCORE.INTRA.norm>
-0.0326057

>  <SCORE.RESTR>
0

>  <SCORE.RESTR.CAVITY>
0

>  <SCORE.RESTR.norm>
0

>  <SCORE.SYSTEM>
0

>  <SCORE.SYSTEM.CONST>
0

>  <SCORE.SYSTEM.DIHEDRAL>
0

>  <SCORE.SYSTEM.SOLV>
0

>  <SCORE.SYSTEM.norm>
0

>  <SCORE.heavy>
26

>  <SCORE.norm>
-1.04661

>  <RMSD>
1.845

$$$$
ligand
 OpenBabel02271912153D
libRbt.so/2013.1/901 2013/11/27
 26 28  0  0  0  0  0  0  0  0999 V2000
  128.8939   71.0253   -4.5450 N   0  0  0  0  0  0  0  0  0  0  0  0
  127.4038   70.9491   -4.4891 C   0  0  2  0  0  0  0  0  0  0  0  0
  126.9222   71.0328   -3.0692 C   0  0  0  0  0  0  0  0  0  0  0  0
  127.7031   70.9356   -2.1235 O   0  0  0  0  0  0  0  0  0  0  0  0
  126.9175   69.6462   -5.1181 C   0  0  0  0  0  0  0  0  0  0  0  0
  127.4691   68.4004   -4.4316 C   0  0  0  0  0  0  0  0  0  0  0  0
  126.4857   68.0036   -3.0234 S   0  0  0  0  0  0  0  0  0  0  0  0
  127.2944   66.5692   -2.3913 C   0  0  0  0  0  0  0  0  0  0  0  0
  128.6182   66.9200   -1.7145 C   0  0  1  0  0  0  0  0  0  0  0  0
  128.9950   65.9038   -0.7828 O   0  0  0  0  0  0  0  0  0  0  0  0
  129.7284   67.0205   -2.7480 C   0  0  1  0  0  0  0  0  0  0  0  0
  130.4567   68.2383   -2.5639 O   0  0  0  0  0  0  0  0  0  0  0  0
  130.6161   65.8085   -2.5276 C   0  0  1  0  0  0  0  0  0  0  0  0
  131.9829   66.1893   -2.3346 O   0  0  0  0  0  0  0  0  0  0  0  0
  130.0874   65.1187   -1.2755 C   0  0  2  0  0  0  0  0  0  0  0  0
  125.7285   71.1913   -2.8179 O   0  0  0  0  0  0  0  0  0  0  0  0
  131.2677   59.9648   -1.3684 N   0  0  0  0  0  0  0  0  0  0  0  0
  132.0311   61.0159   -1.0077 C   0  0  0  0  0  0  0  0  0  0  0  0
  131.5949   62.2922   -1.0332 N   0  0  0  0  0  0  0  0  0  0  0  0
  130.3327   62.6014   -1.4355 C   0  0  0  0  0  0  0  0  0  0  0  0
  129.4399   61.5029   -1.8447 C   0  0  0  0  0  0  0  0  0  0  0  0
  129.9897   60.1247   -1.7882 C   0  0  0  0  0  0  0  0  0  0  0  0
  129.2336   59.0611   -2.1504 N   0  0  0  0  0  0  0  0  0  0  0  0
  128.2674   62.0625   -2.1888 N   0  0  0  0  0  0  0  0  0  0  0  0
  128.3952   63.4020   -2.0193 C   0  0  0  0  0  0  0  0  0  0  0  0
  129.6233   63.7310   -1.5715 N   0  0  0  0  0  0  0  0  0  0  0  0
  2  1  1  1  0  0  0
  2  3  1  0  0  0  0
  2  5  1  0  0  0  0
  3  4  1  0  0  0  0
  3 16  1  0  0  0  0
  5  6  1  0  0  0  0
  6  7  1  0  0  0  0
  7  8  1  0  0  0  0
  9  8  1  6  0  0  0
  9 10  1  0  0  0  0
  9 11  1  0  0  0  0
 10 15  1  0  0  0  0
 11 12  1  1  0  0  0
 11 13  1  0  0  0  0
 13 14  1  1  0  0  0
 13 15  1  0  0  0  0
 15 26  1  6  0  0  0
 17 18  2  0  0  0  0
 17 22  1  0  0  0  0
 18 19  1  0  0  0  0
 19 20  2  0  0  0  0
 20 21  1  0  0  0  0
 20 26  1  0  0  0  0
 21 22  2  0  0  0  0
 21 24  1  0  0  0  0
 22 23  1  0  0  0  0
 24 25  2  0  0  0  0
 25 26  1  0  0  0  0
M  END
>  <CHROM.1>
-11.60378330,59.31850081,83.69737158,-179.62664660,73.35363862,157.32924907
-146.26663946,128.91288491,65.96234675,-2.43678763,-1.90191784,0.20081737
2.99708727

>  <Name>
ligand

>  <RI>
0

>  <Rbt.Current_Directory>
/home/itssahil/PROJECTS/Mol_Feturizer/Test_systems_manuscript/rnas/3npn

>  <Rbt.Executable>
rbdock ($Id: //depot/dev/client3/rdock/2013.1/src/exe/rbdock.cxx#4 $)

>  <Rbt.Library>
libRbt.so (2013.1, Build901 2013/11/27)

>  <Rbt.Parameter_File>
/export/apps/rDock/src/rDock_2013.1_src/data/scripts/dock_solv.prm

>  <Rbt.Receptor>
prm/pocket_docking_3.prm

>  <SCORE>
-31.2101

>  <SCORE.INTER>
-31.2187

>  <SCORE.INTER.CONST>
1

>  <SCORE.INTER.POLAR>
0

>  <SCORE.INTER.ROT>
7

>  <SCORE.INTER.SOLV>
22.5334

>  <SCORE.INTER.VDW>
-36.5902

>  <SCORE.INTER.norm>
-1.20072

>  <SCORE.INTRA>
0.00856026

>  <SCORE.INTRA.DIHEDRAL>
2.07161

>  <SCORE.INTRA.DIHEDRAL.0>
4.37896

>  <SCORE.INTRA.POLAR>
0

>  <SCORE.INTRA.POLAR.0>
0

>  <SCORE.INTRA.REPUL>
0

>  <SCORE.INTRA.REPUL.0>
0

>  <SCORE.INTRA.SOLV>
1.00297

>  <SCORE.INTRA.SOLV.lig_0>
-50.5538

>  <SCORE.INTRA.VDW>
-1.52873

>  <SCORE.INTRA.VDW.0>
-1.30673

>  <SCORE.INTRA.norm>
0.000329241

>  <SCORE.RESTR>
0

>  <SCORE.RESTR.CAVITY>
0

>  <SCORE.RESTR.norm>
0

>  <SCORE.SYSTEM>
0

>  <SCORE.SYSTEM.CONST>
0

>  <SCORE.SYSTEM.DIHEDRAL>
0

>  <SCORE.SYSTEM.SOLV>
0

>  <SCORE.SYSTEM.norm>
0

>  <SCORE.heavy>
26

>  <SCORE.norm>
-1.20039

>  <RMSD>
1.870

$$$$
ligand
 OpenBabel02271912153D
libRbt.so/2013.1/901 2013/11/27
 26 28  0  0  0  0  0  0  0  0999 V2000
  128.9279   70.9506   -4.4490 N   0  0  0  0  0  0  0  0  0  0  0  0
  127.4352   70.9413   -4.4831 C   0  0  2  0  0  0  0  0  0  0  0  0
  126.8731   71.0390   -3.0940 C   0  0  0  0  0  0  0  0  0  0  0  0
  127.5995   70.9573   -2.1043 O   0  0  0  0  0  0  0  0  0  0  0  0
  126.9300   69.6649   -5.1506 C   0  0  0  0  0  0  0  0  0  0  0  0
  127.4412   68.3911   -4.4846 C   0  0  0  0  0  0  0  0  0  0  0  0
  126.4552   68.0120   -3.0734 S   0  0  0  0  0  0  0  0  0  0  0  0
  127.2527   66.5757   -2.4315 C   0  0  0  0  0  0  0  0  0  0  0  0
  128.5447   66.9285   -1.6968 C   0  0  1  0  0  0  0  0  0  0  0  0
  128.8916   65.9039   -0.7628 O   0  0  0  0  0  0  0  0  0  0  0  0
  129.6954   67.0506   -2.6827 C   0  0  1  0  0  0  0  0  0  0  0  0
  130.4052   68.2717   -2.4542 O   0  0  0  0  0  0  0  0  0  0  0  0
  130.5835   65.8430   -2.4407 C   0  0  1  0  0  0  0  0  0  0  0  0
  131.9379   66.2322   -2.1873 O   0  0  0  0  0  0  0  0  0  0  0  0
  130.0098   65.1336   -1.2197 C   0  0  2  0  0  0  0  0  0  0  0  0
  125.6663   71.1937   -2.9129 O   0  0  0  0  0  0  0  0  0  0  0  0
  131.2668   60.0005   -1.4077 N   0  0  0  0  0  0  0  0  0  0  0  0
  132.0102   61.0545   -1.0149 C   0  0  0  0  0  0  0  0  0  0  0  0
  131.5556   62.3246   -1.0186 N   0  0  0  0  0  0  0  0  0  0  0  0
  130.2941   62.6241   -1.4303 C   0  0  0  0  0  0  0  0  0  0  0  0
  129.4227   61.5219   -1.8743 C   0  0  0  0  0  0  0  0  0  0  0  0
  129.9920   60.1509   -1.8403 C   0  0  0  0  0  0  0  0  0  0  0  0
  129.2561   59.0846   -2.2347 N   0  0  0  0  0  0  0  0  0  0  0  0
  128.2465   62.0719   -2.2213 N   0  0  0  0  0  0  0  0  0  0  0  0
  128.3525   63.4091   -2.0216 C   0  0  0  0  0  0  0  0  0  0  0  0
  129.5699   63.7460   -1.5512 N   0  0  0  0  0  0  0  0  0  0  0  0
  2  1  1  1  0  0  0
  2  3  1  0  0  0  0
  2  5  1  0  0  0  0
  3  4  1  0  0  0  0
  3 16  1  0  0  0  0
  5  6  1  0  0  0  0
  6  7  1  0  0  0  0
  7  8  1  0  0  0  0
  9  8  1  6  0  0  0
  9 10  1  0  0  0  0
  9 11  1  0  0  0  0
 10 15  1  0  0  0  0
 11 12  1  1  0  0  0
 11 13  1  0  0  0  0
 13 14  1  1  0  0  0
 13 15  1  0  0  0  0
 15 26  1  6  0  0  0
 17 18  2  0  0  0  0
 17 22  1  0  0  0  0
 18 19  1  0  0  0  0
 19 20  2  0  0  0  0
 20 21  1  0  0  0  0
 20 26  1  0  0  0  0
 21 22  2  0  0  0  0
 21 24  1  0  0  0  0
 22 23  1  0  0  0  0
 24 25  2  0  0  0  0
 25 26  1  0  0  0  0
M  END
>  <CHROM.1>
-8.53435614,56.37723659,81.96978147,-177.58686329,76.19506930,157.10514046
-148.01261812,128.87864156,65.97610136,-2.43363070,-1.90815602,0.24159260
3.01327563

>  <Name>
ligand

>  <RI>
0

>  <Rbt.Current_Directory>
/home/itssahil/PROJECTS/Mol_Feturizer/Test_systems_manuscript/rnas/3npn

>  <Rbt.Executable>
rbdock ($Id: //depot/dev/client3/rdock/2013.1/src/exe/rbdock.cxx#4 $)

>  <Rbt.Library>
libRbt.so (2013.1, Build901 2013/11/27)

>  <Rbt.Parameter_File>
/export/apps/rDock/src/rDock_2013.1_src/data/scripts/dock_solv.prm

>  <Rbt.Receptor>
prm/pocket_docking_6.prm

>  <SCORE>
-31.2207

>  <SCORE.INTER>
-31.24

>  <SCORE.INTER.CONST>
1

>  <SCORE.INTER.POLAR>
0

>  <SCORE.INTER.ROT>
7

>  <SCORE.INTER.SOLV>
22.38

>  <SCORE.INTER.VDW>
-36.5533

>  <SCORE.INTER.norm>
-1.20154

>  <SCORE.INTRA>
0.0192854

>  <SCORE.INTRA.DIHEDRAL>
2.05869

>  <SCORE.INTRA.DIHEDRAL.0>
4.37896

>  <SCORE.INTRA.POLAR>
0

>  <SCORE.INTRA.POLAR.0>
0

>  <SCORE.INTRA.REPUL>
0

>  <SCORE.INTRA.REPUL.0>
0

>  <SCORE.INTRA.SOLV>
1.23147

>  <SCORE.INTRA.SOLV.lig_0>
-50.5538

>  <SCORE.INTRA.VDW>
-1.62579

>  <SCORE.INTRA.VDW.0>
-1.30673

>  <SCORE.INTRA.norm>
0.000741747

>  <SCORE.RESTR>
0

>  <SCORE.RESTR.CAVITY>
0

>  <SCORE.RESTR.norm>
0

>  <SCORE.SYSTEM>
0

>  <SCORE.SYSTEM.CONST>
0

>  <SCORE.SYSTEM.DIHEDRAL>
0

>  <SCORE.SYSTEM.SOLV>
0

>  <SCORE.SYSTEM.norm>
0

>  <SCORE.heavy>
26

>  <SCORE.norm>
-1.2008

>  <RMSD>
1.877

$$$$
ligand
 OpenBabel02271912153D
libRbt.so/2013.1/901 2013/11/27
 26 28  0  0  0  0  0  0  0  0999 V2000
  126.6493   71.1040   -4.1547 N   0  0  0  0  0  0  0  0  0  0  0  0
  127.8243   70.4525   -3.5033 C   0  0  2  0  0  0  0  0  0  0  0  0
  129.0274   71.3492   -3.5631 C   0  0  0  0  0  0  0  0  0  0  0  0
  129.9359   71.2541   -2.7389 O   0  0  0  0  0  0  0  0  0  0  0  0
  128.1404   69.1261   -4.1892 C   0  0  0  0  0  0  0  0  0  0  0  0
  126.9527   68.1696   -4.2328 C   0  0  0  0  0  0  0  0  0  0  0  0
  126.4552   67.7524   -2.5939 S   0  0  0  0  0  0  0  0  0  0  0  0
  127.3898   66.2904   -2.2773 C   0  0  0  0  0  0  0  0  0  0  0  0
  128.7503   66.6129   -1.6617 C   0  0  1  0  0  0  0  0  0  0  0  0
  129.1568   65.5787   -0.7629 O   0  0  0  0  0  0  0  0  0  0  0  0
  129.8100   66.7116   -2.7471 C   0  0  1  0  0  0  0  0  0  0  0  0
  130.5647   67.9161   -2.5831 O   0  0  0  0  0  0  0  0  0  0  0  0
  130.6891   65.4840   -2.5862 C   0  0  1  0  0  0  0  0  0  0  0  0
  132.0692   65.8424   -2.4556 O   0  0  0  0  0  0  0  0  0  0  0  0
  130.2119   64.7847   -1.3187 C   0  0  2  0  0  0  0  0  0  0  0  0
  129.1279   72.2101   -4.4359 O   0  0  0  0  0  0  0  0  0  0  0  0
  131.2742   59.6056   -1.4271 N   0  0  0  0  0  0  0  0  0  0  0  0
  132.0654   60.6389   -1.0752 C   0  0  0  0  0  0  0  0  0  0  0  0
  131.6579   61.9248   -1.0951 N   0  0  0  0  0  0  0  0  0  0  0  0
  130.3983   62.2626   -1.4823 C   0  0  0  0  0  0  0  0  0  0  0  0
  129.4761   61.1848   -1.8813 C   0  0  0  0  0  0  0  0  0  0  0  0
  129.9953   59.7945   -1.8317 C   0  0  0  0  0  0  0  0  0  0  0  0
  129.2110   58.7485   -2.1852 N   0  0  0  0  0  0  0  0  0  0  0  0
  128.3126   61.7710   -2.2114 N   0  0  0  0  0  0  0  0  0  0  0  0
  128.4727   63.1072   -2.0430 C   0  0  0  0  0  0  0  0  0  0  0  0
  129.7131   63.4081   -1.6097 N   0  0  0  0  0  0  0  0  0  0  0  0
  2  1  1  6  0  0  0
  2  3  1  0  0  0  0
  2  5  1  0  0  0  0
  3  4  1  0  0  0  0
  3 16  1  0  0  0  0
  5  6  1  0  0  0  0
  6  7  1  0  0  0  0
  7  8  1  0  0  0  0
  9  8  1  6  0  0  0
  9 10  1  0  0  0  0
  9 11  1  0  0  0  0
 10 15  1  0  0  0  0
 11 12  1  1  0  0  0
 11 13  1  0  0  0  0
 13 14  1  1  0  0  0
 13 15  1  0  0  0  0
 15 26  1  6  0  0  0
 17 18  2  0  0  0  0
 17 22  1  0  0  0  0
 18 19  1  0  0  0  0
 19 20  2  0  0  0  0
 20 21  1  0  0  0  0
 20 26  1  0  0  0  0
 21 22  2  0  0  0  0
 21 24  1  0  0  0  0
 22 23  1  0  0  0  0
 24 25  2  0  0  0  0
 25 26  1  0  0  0  0
M  END
>  <CHROM.1>
154.84517158,-55.42873066,-61.93381008,-91.81212051,89.64987092,147.45541907
-143.96688597,129.22175530,65.75386833,-2.43778789,1.78672340,-0.15608169
-0.16909553

>  <Name>
ligand

>  <RI>
0

>  <Rbt.Current_Directory>
/home/itssahil/PROJECTS/Mol_Feturizer/Test_systems_manuscript/rnas/3npn

>  <Rbt.Executable>
rbdock ($Id: //depot/dev/client3/rdock/2013.1/src/exe/rbdock.cxx#4 $)

>  <Rbt.Library>
libRbt.so (2013.1, Build901 2013/11/27)

>  <Rbt.Parameter_File>
/export/apps/rDock/src/rDock_2013.1_src/data/scripts/dock_solv.prm

>  <Rbt.Receptor>
prm/pocket_docking_8.prm

>  <SCORE>
-26.377

>  <SCORE.INTER>
-27.0761

>  <SCORE.INTER.CONST>
1

>  <SCORE.INTER.POLAR>
0

>  <SCORE.INTER.ROT>
7

>  <SCORE.INTER.SOLV>
24.0518

>  <SCORE.INTER.VDW>
-34.3347

>  <SCORE.INTER.norm>
-1.04139

>  <SCORE.INTRA>
0.699055

>  <SCORE.INTRA.DIHEDRAL>
3.87421

>  <SCORE.INTRA.DIHEDRAL.0>
4.37896

>  <SCORE.INTRA.POLAR>
0

>  <SCORE.INTRA.POLAR.0>
0

>  <SCORE.INTRA.REPUL>
0

>  <SCORE.INTRA.REPUL.0>
0

>  <SCORE.INTRA.SOLV>
1.06087

>  <SCORE.INTRA.SOLV.lig_0>
-50.5538

>  <SCORE.INTRA.VDW>
-1.76849

>  <SCORE.INTRA.VDW.0>
-1.30673

>  <SCORE.INTRA.norm>
0.0268867

>  <SCORE.RESTR>
0

>  <SCORE.RESTR.CAVITY>
0

>  <SCORE.RESTR.norm>
0

>  <SCORE.SYSTEM>
0

>  <SCORE.SYSTEM.CONST>
0

>  <SCORE.SYSTEM.DIHEDRAL>
0

>  <SCORE.SYSTEM.SOLV>
0

>  <SCORE.SYSTEM.norm>
0

>  <SCORE.heavy>
26

>  <SCORE.norm>
-1.0145

>  <RMSD>
1.885

$$$$
ligand
 OpenBabel02271912153D
libRbt.so/2013.1/901 2013/11/27
 26 28  0  0  0  0  0  0  0  0999 V2000
  128.8442   70.9295   -2.4815 N   0  0  0  0  0  0  0  0  0  0  0  0
  128.0307   69.9032   -3.1986 C   0  0  2  0  0  0  0  0  0  0  0  0
  126.6570   70.4308   -3.4978 C   0  0  0  0  0  0  0  0  0  0  0  0
  125.9233   70.8455   -2.6015 O   0  0  0  0  0  0  0  0  0  0  0  0
  127.9193   68.6348   -2.3568 C   0  0  0  0  0  0  0  0  0  0  0  0
  127.3381   67.4501   -3.1224 C   0  0  0  0  0  0  0  0  0  0  0  0
  127.6829   65.9502   -2.2629 S   0  0  0  0  0  0  0  0  0  0  0  0
  129.4222   65.7732   -2.4970 C   0  0  0  0  0  0  0  0  0  0  0  0
  130.2076   66.2595   -1.2804 C   0  0  1  0  0  0  0  0  0  0  0  0
  130.1828   65.2818   -0.2383 O   0  0  0  0  0  0  0  0  0  0  0  0
  131.6639   66.4897   -1.6505 C   0  0  1  0  0  0  0  0  0  0  0  0
  132.0856   67.7776   -1.1915 O   0  0  0  0  0  0  0  0  0  0  0  0
  132.4480   65.3794   -0.9737 C   0  0  1  0  0  0  0  0  0  0  0  0
  133.5029   65.9047   -0.1604 O   0  0  0  0  0  0  0  0  0  0  0  0
  131.4488   64.6246   -0.1047 C   0  0  2  0  0  0  0  0  0  0  0  0
  126.2279   70.4512   -4.6505 O   0  0  0  0  0  0  0  0  0  0  0  0
  128.4202   60.8776   -2.2844 N   0  0  0  0  0  0  0  0  0  0  0  0
  128.1453   62.1760   -2.0471 C   0  0  0  0  0  0  0  0  0  0  0  0
  129.0232   63.0275   -1.4781 N   0  0  0  0  0  0  0  0  0  0  0  0
  130.2638   62.6174   -1.0993 C   0  0  0  0  0  0  0  0  0  0  0  0
  130.6355   61.2099   -1.3277 C   0  0  0  0  0  0  0  0  0  0  0  0
  129.6176   60.3333   -1.9604 C   0  0  0  0  0  0  0  0  0  0  0  0
  129.8811   59.0269   -2.2016 N   0  0  0  0  0  0  0  0  0  0  0  0
  131.8928   61.0618   -0.8766 N   0  0  0  0  0  0  0  0  0  0  0  0
  132.2934   62.2657   -0.3975 C   0  0  0  0  0  0  0  0  0  0  0  0
  131.3279   63.1975   -0.5258 N   0  0  0  0  0  0  0  0  0  0  0  0
  2  1  1  1  0  0  0
  2  3  1  0  0  0  0
  2  5  1  0  0  0  0
  3  4  1  0  0  0  0
  3 16  1  0  0  0  0
  5  6  1  0  0  0  0
  6  7  1  0  0  0  0
  7  8  1  0  0  0  0
  9  8  1  6  0  0  0
  9 10  1  0  0  0  0
  9 11  1  0  0  0  0
 10 15  1  0  0  0  0
 11 12  1  1  0  0  0
 11 13  1  0  0  0  0
 13 14  1  1  0  0  0
 13 15  1  0  0  0  0
 15 26  1  6  0  0  0
 17 18  2  0  0  0  0
 17 22  1  0  0  0  0
 18 19  1  0  0  0  0
 19 20  2  0  0  0  0
 20 21  1  0  0  0  0
 20 26  1  0  0  0  0
 21 22  2  0  0  0  0
 21 24  1  0  0  0  0
 22 23  1  0  0  0  0
 24 25  2  0  0  0  0
 25 26  1  0  0  0  0
M  END
>  <CHROM.1>
-56.66475858,-168.87994150,163.25616435,-70.65924020,98.81403972,78.32008581
7.56176268,129.54728653,65.45931305,-1.81634933,-1.98399843,0.42713184,3.10328829

>  <Name>
ligand

>  <RI>
0

>  <Rbt.Current_Directory>
/home/itssahil/PROJECTS/Mol_Feturizer/Test_systems_manuscript/rnas/3npn

>  <Rbt.Executable>
rbdock ($Id: //depot/dev/client3/rdock/2013.1/src/exe/rbdock.cxx#4 $)

>  <Rbt.Library>
libRbt.so (2013.1, Build901 2013/11/27)

>  <Rbt.Parameter_File>
/export/apps/rDock/src/rDock_2013.1_src/data/scripts/dock_solv.prm

>  <Rbt.Receptor>
prm/pocket_docking_3.prm

>  <SCORE>
-26.7748

>  <SCORE.INTER>
-26.1048

>  <SCORE.INTER.CONST>
1

>  <SCORE.INTER.POLAR>
0

>  <SCORE.INTER.ROT>
7

>  <SCORE.INTER.SOLV>
19.0902

>  <SCORE.INTER.VDW>
-32.0333

>  <SCORE.INTER.norm>
-1.00403

>  <SCORE.INTRA>
-0.670026

>  <SCORE.INTRA.DIHEDRAL>
2.78007

>  <SCORE.INTRA.DIHEDRAL.0>
4.37896

>  <SCORE.INTRA.POLAR>
0

>  <SCORE.INTRA.POLAR.0>
0

>  <SCORE.INTRA.REPUL>
0

>  <SCORE.INTRA.REPUL.0>
0

>  <SCORE.INTRA.SOLV>
-0.798019

>  <SCORE.INTRA.SOLV.lig_0>
-50.5538

>  <SCORE.INTRA.VDW>
-1.66105

>  <SCORE.INTRA.VDW.0>
-1.30673

>  <SCORE.INTRA.norm>
-0.0257702

>  <SCORE.RESTR>
0

>  <SCORE.RESTR.CAVITY>
0

>  <SCORE.RESTR.norm>
0

>  <SCORE.SYSTEM>
0

>  <SCORE.SYSTEM.CONST>
0

>  <SCORE.SYSTEM.DIHEDRAL>
0

>  <SCORE.SYSTEM.SOLV>
0

>  <SCORE.SYSTEM.norm>
0

>  <SCORE.heavy>
26

>  <SCORE.norm>
-1.0298

>  <RMSD>
1.886

$$$$
ligand
 OpenBabel02271912153D
libRbt.so/2013.1/901 2013/11/27
 26 28  0  0  0  0  0  0  0  0999 V2000
  128.8956   70.9045   -2.4871 N   0  0  0  0  0  0  0  0  0  0  0  0
  128.0340   69.8899   -3.1635 C   0  0  2  0  0  0  0  0  0  0  0  0
  126.6437   70.4224   -3.3603 C   0  0  0  0  0  0  0  0  0  0  0  0
  126.1807   70.5973   -4.4867 O   0  0  0  0  0  0  0  0  0  0  0  0
  127.9783   68.6083   -2.3362 C   0  0  0  0  0  0  0  0  0  0  0  0
  127.3148   67.4451   -3.0670 C   0  0  0  0  0  0  0  0  0  0  0  0
  127.6763   65.9303   -2.2412 S   0  0  0  0  0  0  0  0  0  0  0  0
  129.4103   65.7569   -2.5144 C   0  0  0  0  0  0  0  0  0  0  0  0
  130.2217   66.2395   -1.3134 C   0  0  1  0  0  0  0  0  0  0  0  0
  130.2149   65.2606   -0.2721 O   0  0  0  0  0  0  0  0  0  0  0  0
  131.6709   66.4655   -1.7127 C   0  0  1  0  0  0  0  0  0  0  0  0
  132.1058   67.7516   -1.2610 O   0  0  0  0  0  0  0  0  0  0  0  0
  132.4650   65.3520   -1.0531 C   0  0  1  0  0  0  0  0  0  0  0  0
  133.5378   65.8731   -0.2608 O   0  0  0  0  0  0  0  0  0  0  0  0
  131.4813   64.5994   -0.1648 C   0  0  2  0  0  0  0  0  0  0  0  0
  125.9362   70.7069   -2.3951 O   0  0  0  0  0  0  0  0  0  0  0  0
  128.3859   60.8560   -2.2552 N   0  0  0  0  0  0  0  0  0  0  0  0
  128.1183   62.1538   -2.0066 C   0  0  0  0  0  0  0  0  0  0  0  0
  129.0137   63.0045   -1.4639 N   0  0  0  0  0  0  0  0  0  0  0  0
  130.2658   62.5939   -1.1255 C   0  0  0  0  0  0  0  0  0  0  0  0
  130.6304   61.1870   -1.3686 C   0  0  0  0  0  0  0  0  0  0  0  0
  129.5931   60.3114   -1.9705 C   0  0  0  0  0  0  0  0  0  0  0  0
  129.8491   59.0056   -2.2226 N   0  0  0  0  0  0  0  0  0  0  0  0
  131.9014   61.0383   -0.9579 N   0  0  0  0  0  0  0  0  0  0  0  0
  132.3167   62.2413   -0.4892 C   0  0  0  0  0  0  0  0  0  0  0  0
  131.3474   63.1731   -0.5849 N   0  0  0  0  0  0  0  0  0  0  0  0
  2  1  1  1  0  0  0
  2  3  1  0  0  0  0
  2  5  1  0  0  0  0
  3  4  1  0  0  0  0
  3 16  1  0  0  0  0
  5  6  1  0  0  0  0
  6  7  1  0  0  0  0
  7  8  1  0  0  0  0
  9  8  1  6  0  0  0
  9 10  1  0  0  0  0
  9 11  1  0  0  0  0
 10 15  1  0  0  0  0
 11 12  1  1  0  0  0
 11 13  1  0  0  0  0
 13 14  1  1  0  0  0
 13 15  1  0  0  0  0
 15 26  1  6  0  0  0
 17 18  2  0  0  0  0
 17 22  1  0  0  0  0
 18 19  1  0  0  0  0
 19 20  2  0  0  0  0
 20 21  1  0  0  0  0
 20 26  1  0  0  0  0
 21 22  2  0  0  0  0
 21 24  1  0  0  0  0
 22 23  1  0  0  0  0
 24 25  2  0  0  0  0
 25 26  1  0  0  0  0
M  END
>  <CHROM.1>
116.13269077,-170.26225933,164.76113487,-67.50066035,98.03559356,77.98816099
6.87383379,129.55113730,65.43984462,-1.81645002,-1.97566736,0.39509944,3.10260814

>  <Name>
ligand

>  <RI>
0

>  <Rbt.Current_Directory>
/home/itssahil/PROJECTS/Mol_Feturizer/Test_systems_manuscript/rnas/3npn

>  <Rbt.Executable>
rbdock ($Id: //depot/dev/client3/rdock/2013.1/src/exe/rbdock.cxx#4 $)

>  <Rbt.Library>
libRbt.so (2013.1, Build901 2013/11/27)

>  <Rbt.Parameter_File>
/export/apps/rDock/src/rDock_2013.1_src/data/scripts/dock_solv.prm

>  <Rbt.Receptor>
prm/pocket_docking_5.prm

>  <SCORE>
-26.8459

>  <SCORE.INTER>
-26.0686

>  <SCORE.INTER.CONST>
1

>  <SCORE.INTER.POLAR>
0

>  <SCORE.INTER.ROT>
7

>  <SCORE.INTER.SOLV>
19.0427

>  <SCORE.INTER.VDW>
-31.9933

>  <SCORE.INTER.norm>
-1.00264

>  <SCORE.INTRA>
-0.777272

>  <SCORE.INTRA.DIHEDRAL>
2.33728

>  <SCORE.INTRA.DIHEDRAL.0>
4.37896

>  <SCORE.INTRA.POLAR>
0

>  <SCORE.INTRA.POLAR.0>
0

>  <SCORE.INTRA.REPUL>
0

>  <SCORE.INTRA.REPUL.0>
0

>  <SCORE.INTRA.SOLV>
-0.782999

>  <SCORE.INTRA.SOLV.lig_0>
-50.5538

>  <SCORE.INTRA.VDW>
-1.55441

>  <SCORE.INTRA.VDW.0>
-1.30673

>  <SCORE.INTRA.norm>
-0.0298951

>  <SCORE.RESTR>
0

>  <SCORE.RESTR.CAVITY>
0

>  <SCORE.RESTR.norm>
0

>  <SCORE.SYSTEM>
0

>  <SCORE.SYSTEM.CONST>
0

>  <SCORE.SYSTEM.DIHEDRAL>
0

>  <SCORE.SYSTEM.SOLV>
0

>  <SCORE.SYSTEM.norm>
0

>  <SCORE.heavy>
26

>  <SCORE.norm>
-1.03253

>  <RMSD>
1.888

$$$$
ligand
 OpenBabel02271912153D
libRbt.so/2013.1/901 2013/11/27
 26 28  0  0  0  0  0  0  0  0999 V2000
  128.9027   71.0010   -3.2050 N   0  0  0  0  0  0  0  0  0  0  0  0
  128.0799   69.9039   -3.7956 C   0  0  2  0  0  0  0  0  0  0  0  0
  126.7159   70.4080   -4.1704 C   0  0  0  0  0  0  0  0  0  0  0  0
  126.2890   70.3002   -5.3192 O   0  0  0  0  0  0  0  0  0  0  0  0
  127.9446   68.7522   -2.8031 C   0  0  0  0  0  0  0  0  0  0  0  0
  127.3163   67.5015   -3.4102 C   0  0  0  0  0  0  0  0  0  0  0  0
  127.5615   66.1236   -2.3384 S   0  0  0  0  0  0  0  0  0  0  0  0
  129.2864   65.8048   -2.5232 C   0  0  0  0  0  0  0  0  0  0  0  0
  130.0868   66.3219   -1.3292 C   0  0  1  0  0  0  0  0  0  0  0  0
  130.1087   65.3542   -0.2776 O   0  0  0  0  0  0  0  0  0  0  0  0
  131.5285   66.5829   -1.7341 C   0  0  1  0  0  0  0  0  0  0  0  0
  131.9292   67.8851   -1.2970 O   0  0  0  0  0  0  0  0  0  0  0  0
  132.3540   65.4984   -1.0647 C   0  0  1  0  0  0  0  0  0  0  0  0
  133.4138   66.0568   -0.2804 O   0  0  0  0  0  0  0  0  0  0  0  0
  131.3928   64.7288   -0.1663 C   0  0  2  0  0  0  0  0  0  0  0  0
  125.9947   70.9520   -3.3355 O   0  0  0  0  0  0  0  0  0  0  0  0
  128.4096   60.8907   -2.2480 N   0  0  0  0  0  0  0  0  0  0  0  0
  128.1092   62.1847   -2.0177 C   0  0  0  0  0  0  0  0  0  0  0  0
  128.9782   63.0621   -1.4748 N   0  0  0  0  0  0  0  0  0  0  0  0
  130.2354   62.6846   -1.1173 C   0  0  0  0  0  0  0  0  0  0  0  0
  130.6353   61.2840   -1.3396 C   0  0  0  0  0  0  0  0  0  0  0  0
  129.6257   60.3776   -1.9430 C   0  0  0  0  0  0  0  0  0  0  0  0
  129.9147   59.0753   -2.1768 N   0  0  0  0  0  0  0  0  0  0  0  0
  131.9045   61.1696   -0.9126 N   0  0  0  0  0  0  0  0  0  0  0  0
  132.2864   62.3872   -0.4534 C   0  0  0  0  0  0  0  0  0  0  0  0
  131.2969   63.2951   -0.5711 N   0  0  0  0  0  0  0  0  0  0  0  0
  2  1  1  1  0  0  0
  2  3  1  0  0  0  0
  2  5  1  0  0  0  0
  3  4  1  0  0  0  0
  3 16  1  0  0  0  0
  5  6  1  0  0  0  0
  6  7  1  0  0  0  0
  7  8  1  0  0  0  0
  9  8  1  6  0  0  0
  9 10  1  0  0  0  0
  9 11  1  0  0  0  0
 10 15  1  0  0  0  0
 11 12  1  1  0  0  0
 11 13  1  0  0  0  0
 13 14  1  1  0  0  0
 13 15  1  0  0  0  0
 15 26  1  6  0  0  0
 17 18  2  0  0  0  0
 17 22  1  0  0  0  0
 18 19  1  0  0  0  0
 19 20  2  0  0  0  0
 20 21  1  0  0  0  0
 20 26  1  0  0  0  0
 21 22  2  0  0  0  0
 21 24  1  0  0  0  0
 22 23  1  0  0  0  0
 24 25  2  0  0  0  0
 25 26  1  0  0  0  0
M  END
>  <CHROM.1>
123.54220762,-170.48436928,166.04941295,-71.86529138,103.02831568,85.35297450
7.69696264,129.51210609,65.53032184,-2.00328361,-1.98350863,0.46586137,3.05076131

>  <Name>
ligand

>  <RI>
0

>  <Rbt.Current_Directory>
/home/itssahil/PROJECTS/Mol_Feturizer/Test_systems_manuscript/rnas/3npn

>  <Rbt.Executable>
rbdock ($Id: //depot/dev/client3/rdock/2013.1/src/exe/rbdock.cxx#4 $)

>  <Rbt.Library>
libRbt.so (2013.1, Build901 2013/11/27)

>  <Rbt.Parameter_File>
/export/apps/rDock/src/rDock_2013.1_src/data/scripts/dock_solv.prm

>  <Rbt.Receptor>
prm/pocket_docking_4.prm

>  <SCORE>
-27.0185

>  <SCORE.INTER>
-26.7556

>  <SCORE.INTER.CONST>
1

>  <SCORE.INTER.POLAR>
0

>  <SCORE.INTER.ROT>
7

>  <SCORE.INTER.SOLV>
17.6183

>  <SCORE.INTER.VDW>
-31.9765

>  <SCORE.INTER.norm>
-1.02906

>  <SCORE.INTRA>
-0.262944

>  <SCORE.INTRA.DIHEDRAL>
3.51573

>  <SCORE.INTRA.DIHEDRAL.0>
4.37896

>  <SCORE.INTRA.POLAR>
0

>  <SCORE.INTRA.POLAR.0>
0

>  <SCORE.INTRA.REPUL>
0

>  <SCORE.INTRA.REPUL.0>
0

>  <SCORE.INTRA.SOLV>
-0.82854

>  <SCORE.INTRA.SOLV.lig_0>
-50.5538

>  <SCORE.INTRA.VDW>
-1.60654

>  <SCORE.INTRA.VDW.0>
-1.30673

>  <SCORE.INTRA.norm>
-0.0101132

>  <SCORE.RESTR>
0

>  <SCORE.RESTR.CAVITY>
0

>  <SCORE.RESTR.norm>
0

>  <SCORE.SYSTEM>
0

>  <SCORE.SYSTEM.CONST>
0

>  <SCORE.SYSTEM.DIHEDRAL>
0

>  <SCORE.SYSTEM.SOLV>
0

>  <SCORE.SYSTEM.norm>
0

>  <SCORE.heavy>
26

>  <SCORE.norm>
-1.03917

>  <RMSD>
1.889

$$$$
ligand
 OpenBabel02271912153D
libRbt.so/2013.1/901 2013/11/27
 26 28  0  0  0  0  0  0  0  0999 V2000
  128.8477   70.0911   -3.2874 N   0  0  0  0  0  0  0  0  0  0  0  0
  127.6360   69.4464   -3.8750 C   0  0  2  0  0  0  0  0  0  0  0  0
  126.7593   70.4707   -4.5365 C   0  0  0  0  0  0  0  0  0  0  0  0
  126.4492   70.3747   -5.7232 O   0  0  0  0  0  0  0  0  0  0  0  0
  126.8452   68.7204   -2.7900 C   0  0  0  0  0  0  0  0  0  0  0  0
  127.6526   67.6440   -2.0710 C   0  0  0  0  0  0  0  0  0  0  0  0
  128.0823   66.3594   -3.1990 S   0  0  0  0  0  0  0  0  0  0  0  0
  128.7749   65.1374   -2.1321 C   0  0  0  0  0  0  0  0  0  0  0  0
  129.8246   65.7346   -1.1967 C   0  0  1  0  0  0  0  0  0  0  0  0
  130.2429   64.7729   -0.2258 O   0  0  0  0  0  0  0  0  0  0  0  0
  131.0574   66.1490   -1.9836 C   0  0  1  0  0  0  0  0  0  0  0  0
  131.4311   67.4856   -1.6357 O   0  0  0  0  0  0  0  0  0  0  0  0
  132.1450   65.1575   -1.6098 C   0  0  1  0  0  0  0  0  0  0  0  0
  133.3214   65.8243   -1.1390 O   0  0  0  0  0  0  0  0  0  0  0  0
  131.5624   64.2879   -0.5018 C   0  0  2  0  0  0  0  0  0  0  0  0
  126.3373   71.4391   -3.9062 O   0  0  0  0  0  0  0  0  0  0  0  0
  128.5999   60.3146   -2.3458 N   0  0  0  0  0  0  0  0  0  0  0  0
  128.2575   61.5911   -2.0788 C   0  0  0  0  0  0  0  0  0  0  0  0
  129.1268   62.5084   -1.6070 N   0  0  0  0  0  0  0  0  0  0  0  0
  130.4277   62.1926   -1.3648 C   0  0  0  0  0  0  0  0  0  0  0  0
  130.8750   60.8146   -1.6336 C   0  0  0  0  0  0  0  0  0  0  0  0
  129.8619   59.8616   -2.1536 C   0  0  0  0  0  0  0  0  0  0  0  0
  130.1930   58.5763   -2.4231 N   0  0  0  0  0  0  0  0  0  0  0  0
  132.1810   60.7619   -1.3210 N   0  0  0  0  0  0  0  0  0  0  0  0
  132.5414   61.9951   -0.8867 C   0  0  0  0  0  0  0  0  0  0  0  0
  131.5019   62.8529   -0.9090 N   0  0  0  0  0  0  0  0  0  0  0  0
  2  1  1  1  0  0  0
  2  3  1  0  0  0  0
  2  5  1  0  0  0  0
  3  4  1  0  0  0  0
  3 16  1  0  0  0  0
  5  6  1  0  0  0  0
  6  7  1  0  0  0  0
  7  8  1  0  0  0  0
  9  8  1  6  0  0  0
  9 10  1  0  0  0  0
  9 11  1  0  0  0  0
 10 15  1  0  0  0  0
 11 12  1  1  0  0  0
 11 13  1  0  0  0  0
 13 14  1  1  0  0  0
 13 15  1  0  0  0  0
 15 26  1  6  0  0  0
 17 18  2  0  0  0  0
 17 22  1  0  0  0  0
 18 19  1  0  0  0  0
 19 20  2  0  0  0  0
 20 21  1  0  0  0  0
 20 26  1  0  0  0  0
 21 22  2  0  0  0  0
 21 24  1  0  0  0  0
 22 23  1  0  0  0  0
 24 25  2  0  0  0  0
 25 26  1  0  0  0  0
M  END
>  <CHROM.1>
122.93033211,-58.69438854,-64.61248357,-171.77363061,-49.62144545,172.30135982
19.58514692,129.54336816,65.22020077,-2.23968120,-1.98721344,0.46085440,3.07234732

>  <Name>
ligand

>  <RI>
0

>  <Rbt.Current_Directory>
/home/itssahil/PROJECTS/Mol_Feturizer/Test_systems_manuscript/rnas/3npn

>  <Rbt.Executable>
rbdock ($Id: //depot/dev/client3/rdock/2013.1/src/exe/rbdock.cxx#4 $)

>  <Rbt.Library>
libRbt.so (2013.1, Build901 2013/11/27)

>  <Rbt.Parameter_File>
/export/apps/rDock/src/rDock_2013.1_src/data/scripts/dock_solv.prm

>  <Rbt.Receptor>
prm/pocket_docking_2.prm

>  <SCORE>
-29.8194

>  <SCORE.INTER>
-29.4501

>  <SCORE.INTER.CONST>
1

>  <SCORE.INTER.POLAR>
0

>  <SCORE.INTER.ROT>
7

>  <SCORE.INTER.SOLV>
14.7801

>  <SCORE.INTER.VDW>
-32.8268

>  <SCORE.INTER.norm>
-1.1327

>  <SCORE.INTRA>
-0.384566

>  <SCORE.INTRA.DIHEDRAL>
-1.15695

>  <SCORE.INTRA.DIHEDRAL.0>
4.37896

>  <SCORE.INTRA.POLAR>
0

>  <SCORE.INTRA.POLAR.0>
0

>  <SCORE.INTRA.REPUL>
0

>  <SCORE.INTRA.REPUL.0>
0

>  <SCORE.INTRA.SOLV>
0.927334

>  <SCORE.INTRA.SOLV.lig_0>
-50.5538

>  <SCORE.INTRA.VDW>
-0.269756

>  <SCORE.INTRA.VDW.0>
-1.30673

>  <SCORE.INTRA.norm>
-0.014791

>  <SCORE.RESTR>
0.0152287

>  <SCORE.RESTR.CAVITY>
0.0152287

>  <SCORE.RESTR.norm>
0.000585721

>  <SCORE.SYSTEM>
0

>  <SCORE.SYSTEM.CONST>
0

>  <SCORE.SYSTEM.DIHEDRAL>
0

>  <SCORE.SYSTEM.SOLV>
0

>  <SCORE.SYSTEM.norm>
0

>  <SCORE.heavy>
26

>  <SCORE.norm>
-1.1469

>  <RMSD>
1.895

$$$$
ligand
 OpenBabel02271912153D
libRbt.so/2013.1/901 2013/11/27
 26 28  0  0  0  0  0  0  0  0999 V2000
  128.7011   69.7782   -2.9175 N   0  0  0  0  0  0  0  0  0  0  0  0
  127.7863   69.1100   -3.8901 C   0  0  2  0  0  0  0  0  0  0  0  0
  126.9969   70.1290   -4.6607 C   0  0  0  0  0  0  0  0  0  0  0  0
  126.3831   71.0278   -4.0871 O   0  0  0  0  0  0  0  0  0  0  0  0
  126.8319   68.1705   -3.1580 C   0  0  0  0  0  0  0  0  0  0  0  0
  127.5465   67.1209   -2.3124 C   0  0  0  0  0  0  0  0  0  0  0  0
  128.4239   66.0029   -3.3552 S   0  0  0  0  0  0  0  0  0  0  0  0
  128.9615   64.7682   -2.2160 C   0  0  0  0  0  0  0  0  0  0  0  0
  129.8325   65.3619   -1.1103 C   0  0  1  0  0  0  0  0  0  0  0  0
  130.0897   64.3915   -0.0931 O   0  0  0  0  0  0  0  0  0  0  0  0
  131.1766   65.7948   -1.6730 C   0  0  1  0  0  0  0  0  0  0  0  0
  131.4736   67.1299   -1.2526 O   0  0  0  0  0  0  0  0  0  0  0  0
  132.1946   64.8070   -1.1314 C   0  0  1  0  0  0  0  0  0  0  0  0
  133.2683   65.4768   -0.4614 O   0  0  0  0  0  0  0  0  0  0  0  0
  131.4414   63.9197   -0.1472 C   0  0  2  0  0  0  0  0  0  0  0  0
  126.9376   70.0820   -5.8885 O   0  0  0  0  0  0  0  0  0  0  0  0
  128.8295   59.9179   -2.4118 N   0  0  0  0  0  0  0  0  0  0  0  0
  128.4295   61.1843   -2.1791 C   0  0  0  0  0  0  0  0  0  0  0  0
  129.2100   62.1109   -1.5859 N   0  0  0  0  0  0  0  0  0  0  0  0
  130.4732   61.8157   -1.1761 C   0  0  0  0  0  0  0  0  0  0  0  0
  130.9794   60.4497   -1.3976 C   0  0  0  0  0  0  0  0  0  0  0  0
  130.0635   59.4854   -2.0580 C   0  0  0  0  0  0  0  0  0  0  0  0
  130.4529   58.2101   -2.2948 N   0  0  0  0  0  0  0  0  0  0  0  0
  132.2331   60.4167   -0.9144 N   0  0  0  0  0  0  0  0  0  0  0  0
  132.5081   61.6503   -0.4228 C   0  0  0  0  0  0  0  0  0  0  0  0
  131.4640   62.4893   -0.5742 N   0  0  0  0  0  0  0  0  0  0  0  0
  2  1  1  1  0  0  0
  2  3  1  0  0  0  0
  2  5  1  0  0  0  0
  3  4  1  0  0  0  0
  3 16  1  0  0  0  0
  5  6  1  0  0  0  0
  6  7  1  0  0  0  0
  7  8  1  0  0  0  0
  9  8  1  6  0  0  0
  9 10  1  0  0  0  0
  9 11  1  0  0  0  0
 10 15  1  0  0  0  0
 11 12  1  1  0  0  0
 11 13  1  0  0  0  0
 13 14  1  1  0  0  0
 13 15  1  0  0  0  0
 15 26  1  6  0  0  0
 17 18  2  0  0  0  0
 17 22  1  0  0  0  0
 18 19  1  0  0  0  0
 19 20  2  0  0  0  0
 20 21  1  0  0  0  0
 20 26  1  0  0  0  0
 21 22  2  0  0  0  0
 21 24  1  0  0  0  0
 22 23  1  0  0  0  0
 24 25  2  0  0  0  0
 25 26  1  0  0  0  0
M  END
>  <CHROM.1>
-50.58792678,-56.34359058,-66.79192330,-172.07478372,-58.83672465,171.27935024
17.41562735,129.63771638,64.84560711,-2.13178279,-2.01392505,0.58759899,3.09935756

>  <Name>
ligand

>  <RI>
0

>  <Rbt.Current_Directory>
/home/itssahil/PROJECTS/Mol_Feturizer/Test_systems_manuscript/rnas/3npn

>  <Rbt.Executable>
rbdock ($Id: //depot/dev/client3/rdock/2013.1/src/exe/rbdock.cxx#4 $)

>  <Rbt.Library>
libRbt.so (2013.1, Build901 2013/11/27)

>  <Rbt.Parameter_File>
/export/apps/rDock/src/rDock_2013.1_src/data/scripts/dock_solv.prm

>  <Rbt.Receptor>
prm/pocket_docking_2.prm

>  <SCORE>
-30.2892

>  <SCORE.INTER>
-29.4524

>  <SCORE.INTER.CONST>
1

>  <SCORE.INTER.POLAR>
0

>  <SCORE.INTER.ROT>
7

>  <SCORE.INTER.SOLV>
14.2729

>  <SCORE.INTER.VDW>
-32.6592

>  <SCORE.INTER.norm>
-1.13278

>  <SCORE.INTRA>
-0.904991

>  <SCORE.INTRA.DIHEDRAL>
-1.15196

>  <SCORE.INTRA.DIHEDRAL.0>
4.37896

>  <SCORE.INTRA.POLAR>
0

>  <SCORE.INTRA.POLAR.0>
0

>  <SCORE.INTRA.REPUL>
0

>  <SCORE.INTRA.REPUL.0>
0

>  <SCORE.INTRA.SOLV>
0.780279

>  <SCORE.INTRA.SOLV.lig_0>
-50.5538

>  <SCORE.INTRA.VDW>
-0.719153

>  <SCORE.INTRA.VDW.0>
-1.30673

>  <SCORE.INTRA.norm>
-0.0348074

>  <SCORE.RESTR>
0.068144

>  <SCORE.RESTR.CAVITY>
0.068144

>  <SCORE.RESTR.norm>
0.00262092

>  <SCORE.SYSTEM>
0

>  <SCORE.SYSTEM.CONST>
0

>  <SCORE.SYSTEM.DIHEDRAL>
0

>  <SCORE.SYSTEM.SOLV>
0

>  <SCORE.SYSTEM.norm>
0

>  <SCORE.heavy>
26

>  <SCORE.norm>
-1.16497

>  <RMSD>
1.906

$$$$
ligand
 OpenBabel02271912153D
libRbt.so/2013.1/901 2013/11/27
 26 28  0  0  0  0  0  0  0  0999 V2000
  128.7477   70.3499   -2.5548 N   0  0  0  0  0  0  0  0  0  0  0  0
  127.5261   69.8269   -3.2357 C   0  0  2  0  0  0  0  0  0  0  0  0
  126.3701   70.7662   -3.0443 C   0  0  0  0  0  0  0  0  0  0  0  0
  125.6629   70.7114   -2.0391 O   0  0  0  0  0  0  0  0  0  0  0  0
  127.1630   68.4503   -2.6855 C   0  0  0  0  0  0  0  0  0  0  0  0
  128.2781   67.4216   -2.8459 C   0  0  0  0  0  0  0  0  0  0  0  0
  127.7324   65.8473   -2.2702 S   0  0  0  0  0  0  0  0  0  0  0  0
  129.2403   64.9370   -2.1769 C   0  0  0  0  0  0  0  0  0  0  0  0
  130.1361   65.4435   -1.0479 C   0  0  1  0  0  0  0  0  0  0  0  0
  130.3128   64.4348   -0.0510 O   0  0  0  0  0  0  0  0  0  0  0  0
  131.5140   65.7948   -1.5855 C   0  0  1  0  0  0  0  0  0  0  0  0
  131.8972   67.0961   -1.1306 O   0  0  0  0  0  0  0  0  0  0  0  0
  132.4544   64.7266   -1.0560 C   0  0  1  0  0  0  0  0  0  0  0  0
  133.5632   65.3050   -0.3587 O   0  0  0  0  0  0  0  0  0  0  0  0
  131.6292   63.8717   -0.1013 C   0  0  2  0  0  0  0  0  0  0  0  0
  126.0966   71.6095   -3.8971 O   0  0  0  0  0  0  0  0  0  0  0  0
  128.7408   60.0877   -2.4041 N   0  0  0  0  0  0  0  0  0  0  0  0
  128.4216   61.3696   -2.1342 C   0  0  0  0  0  0  0  0  0  0  0  0
  129.2671   62.2337   -1.5358 N   0  0  0  0  0  0  0  0  0  0  0  0
  130.5178   61.8543   -1.1585 C   0  0  0  0  0  0  0  0  0  0  0  0
  130.9373   60.4665   -1.4216 C   0  0  0  0  0  0  0  0  0  0  0  0
  129.9532   59.5744   -2.0854 C   0  0  0  0  0  0  0  0  0  0  0  0
  130.2612   58.2843   -2.3593 N   0  0  0  0  0  0  0  0  0  0  0  0
  132.1956   60.3475   -0.9648 N   0  0  0  0  0  0  0  0  0  0  0  0
  132.5531   61.5505   -0.4506 C   0  0  0  0  0  0  0  0  0  0  0  0
  131.5583   62.4533   -0.5614 N   0  0  0  0  0  0  0  0  0  0  0  0
  2  1  1  1  0  0  0
  2  3  1  0  0  0  0
  2  5  1  0  0  0  0
  3  4  1  0  0  0  0
  3 16  1  0  0  0  0
  5  6  1  0  0  0  0
  6  7  1  0  0  0  0
  7  8  1  0  0  0  0
  9  8  1  6  0  0  0
  9 10  1  0  0  0  0
  9 11  1  0  0  0  0
 10 15  1  0  0  0  0
 11 12  1  1  0  0  0
 11 13  1  0  0  0  0
 13 14  1  1  0  0  0
 13 15  1  0  0  0  0
 15 26  1  6  0  0  0
 17 18  2  0  0  0  0
 17 22  1  0  0  0  0
 18 19  1  0  0  0  0
 19 20  2  0  0  0  0
 20 21  1  0  0  0  0
 20 26  1  0  0  0  0
 21 22  2  0  0  0  0
 21 24  1  0  0  0  0
 22 23  1  0  0  0  0
 24 25  2  0  0  0  0
 25 26  1  0  0  0  0
M  END
>  <CHROM.1>
-85.00878450,-58.41833790,-176.68364027,-166.92510186,69.68468971,115.64445814
15.53215572,129.60430334,64.98712162,-1.76118521,-2.00315681,0.39492190,-3.12983158

>  <Name>
ligand

>  <RI>
0

>  <Rbt.Current_Directory>
/home/itssahil/PROJECTS/Mol_Feturizer/Test_systems_manuscript/rnas/3npn

>  <Rbt.Executable>
rbdock ($Id: //depot/dev/client3/rdock/2013.1/src/exe/rbdock.cxx#4 $)

>  <Rbt.Library>
libRbt.so (2013.1, Build901 2013/11/27)

>  <Rbt.Parameter_File>
/export/apps/rDock/src/rDock_2013.1_src/data/scripts/dock_solv.prm

>  <Rbt.Receptor>
prm/pocket_docking_5.prm

>  <SCORE>
-27.859

>  <SCORE.INTER>
-29.2194

>  <SCORE.INTER.CONST>
1

>  <SCORE.INTER.POLAR>
0

>  <SCORE.INTER.ROT>
7

>  <SCORE.INTER.SOLV>
16.559

>  <SCORE.INTER.VDW>
-33.266

>  <SCORE.INTER.norm>
-1.12382

>  <SCORE.INTRA>
1.36045

>  <SCORE.INTRA.DIHEDRAL>
3.96195

>  <SCORE.INTRA.DIHEDRAL.0>
4.37896

>  <SCORE.INTRA.POLAR>
0

>  <SCORE.INTRA.POLAR.0>
0

>  <SCORE.INTRA.REPUL>
0

>  <SCORE.INTRA.REPUL.0>
0

>  <SCORE.INTRA.SOLV>
-0.167176

>  <SCORE.INTRA.SOLV.lig_0>
-50.5538

>  <SCORE.INTRA.VDW>
-0.536942

>  <SCORE.INTRA.VDW.0>
-1.30673

>  <SCORE.INTRA.norm>
0.0523249

>  <SCORE.RESTR>
0

>  <SCORE.RESTR.CAVITY>
0

>  <SCORE.RESTR.norm>
0

>  <SCORE.SYSTEM>
0

>  <SCORE.SYSTEM.CONST>
0

>  <SCORE.SYSTEM.DIHEDRAL>
0

>  <SCORE.SYSTEM.SOLV>
0

>  <SCORE.SYSTEM.norm>
0

>  <SCORE.heavy>
26

>  <SCORE.norm>
-1.0715

>  <RMSD>
1.910

$$$$
ligand
 OpenBabel02271912153D
libRbt.so/2013.1/901 2013/11/27
 26 28  0  0  0  0  0  0  0  0999 V2000
  128.7428   70.2990   -2.5496 N   0  0  0  0  0  0  0  0  0  0  0  0
  127.5149   69.8152   -3.2477 C   0  0  2  0  0  0  0  0  0  0  0  0
  126.3762   70.7721   -3.0406 C   0  0  0  0  0  0  0  0  0  0  0  0
  125.6563   70.7017   -2.0454 O   0  0  0  0  0  0  0  0  0  0  0  0
  127.1226   68.4338   -2.7303 C   0  0  0  0  0  0  0  0  0  0  0  0
  128.2480   67.4086   -2.8301 C   0  0  0  0  0  0  0  0  0  0  0  0
  127.7011   65.8519   -2.2098 S   0  0  0  0  0  0  0  0  0  0  0  0
  129.2002   64.9248   -2.1442 C   0  0  0  0  0  0  0  0  0  0  0  0
  130.1300   65.4327   -1.0437 C   0  0  1  0  0  0  0  0  0  0  0  0
  130.3242   64.4308   -0.0432 O   0  0  0  0  0  0  0  0  0  0  0  0
  131.4961   65.7673   -1.6203 C   0  0  1  0  0  0  0  0  0  0  0  0
  131.9024   67.0690   -1.1869 O   0  0  0  0  0  0  0  0  0  0  0  0
  132.4409   64.6953   -1.1067 C   0  0  1  0  0  0  0  0  0  0  0  0
  133.5728   65.2696   -0.4439 O   0  0  0  0  0  0  0  0  0  0  0  0
  131.6339   63.8557   -0.1234 C   0  0  2  0  0  0  0  0  0  0  0  0
  126.1300   71.6463   -3.8702 O   0  0  0  0  0  0  0  0  0  0  0  0
  128.7025   60.1141   -2.4409 N   0  0  0  0  0  0  0  0  0  0  0  0
  128.4083   61.4059   -2.1913 C   0  0  0  0  0  0  0  0  0  0  0  0
  129.2621   62.2570   -1.5859 N   0  0  0  0  0  0  0  0  0  0  0  0
  130.4961   61.8528   -1.1801 C   0  0  0  0  0  0  0  0  0  0  0  0
  130.8879   60.4527   -1.4198 C   0  0  0  0  0  0  0  0  0  0  0  0
  129.8961   59.5763   -2.0930 C   0  0  0  0  0  0  0  0  0  0  0  0
  130.1790   58.2764   -2.3468 N   0  0  0  0  0  0  0  0  0  0  0  0
  132.1340   60.3097   -0.9372 N   0  0  0  0  0  0  0  0  0  0  0  0
  132.5096   61.5098   -0.4293 C   0  0  0  0  0  0  0  0  0  0  0  0
  131.5386   62.4342   -0.5694 N   0  0  0  0  0  0  0  0  0  0  0  0
  2  1  1  1  0  0  0
  2  3  1  0  0  0  0
  2  5  1  0  0  0  0
  3  4  1  0  0  0  0
  3 16  1  0  0  0  0
  5  6  1  0  0  0  0
  6  7  1  0  0  0  0
  7  8  1  0  0  0  0
  9  8  1  6  0  0  0
  9 10  1  0  0  0  0
  9 11  1  0  0  0  0
 10 15  1  0  0  0  0
 11 12  1  1  0  0  0
 11 13  1  0  0  0  0
 13 14  1  1  0  0  0
 13 15  1  0  0  0  0
 15 26  1  6  0  0  0
 17 18  2  0  0  0  0
 17 22  1  0  0  0  0
 18 19  1  0  0  0  0
 19 20  2  0  0  0  0
 20 21  1  0  0  0  0
 20 26  1  0  0  0  0
 21 22  2  0  0  0  0
 21 24  1  0  0  0  0
 22 23  1  0  0  0  0
 24 25  2  0  0  0  0
 25 26  1  0  0  0  0
M  END
>  <CHROM.1>
-85.60472020,-54.87970498,179.95769996,-170.19863189,70.17955150,115.87486626
18.29352705,129.58460542,64.97804785,-1.76846244,-1.99909461,0.38662283,-3.13399718

>  <Name>
ligand

>  <RI>
0

>  <Rbt.Current_Directory>
/home/itssahil/PROJECTS/Mol_Feturizer/Test_systems_manuscript/rnas/3npn

>  <Rbt.Executable>
rbdock ($Id: //depot/dev/client3/rdock/2013.1/src/exe/rbdock.cxx#4 $)

>  <Rbt.Library>
libRbt.so (2013.1, Build901 2013/11/27)

>  <Rbt.Parameter_File>
/export/apps/rDock/src/rDock_2013.1_src/data/scripts/dock_solv.prm

>  <Rbt.Receptor>
prm/pocket_docking_2.prm

>  <SCORE>
-27.8639

>  <SCORE.INTER>
-29.4872

>  <SCORE.INTER.CONST>
1

>  <SCORE.INTER.POLAR>
0

>  <SCORE.INTER.ROT>
7

>  <SCORE.INTER.SOLV>
16.8543

>  <SCORE.INTER.VDW>
-33.5429

>  <SCORE.INTER.norm>
-1.13412

>  <SCORE.INTRA>
1.62335

>  <SCORE.INTRA.DIHEDRAL>
3.91682

>  <SCORE.INTRA.DIHEDRAL.0>
4.37896

>  <SCORE.INTRA.POLAR>
0

>  <SCORE.INTRA.POLAR.0>
0

>  <SCORE.INTRA.REPUL>
0

>  <SCORE.INTRA.REPUL.0>
0

>  <SCORE.INTRA.SOLV>
-0.124526

>  <SCORE.INTRA.SOLV.lig_0>
-50.5538

>  <SCORE.INTRA.VDW>
-0.272797

>  <SCORE.INTRA.VDW.0>
-1.30673

>  <SCORE.INTRA.norm>
0.0624366

>  <SCORE.RESTR>
0

>  <SCORE.RESTR.CAVITY>
0

>  <SCORE.RESTR.norm>
0

>  <SCORE.SYSTEM>
0

>  <SCORE.SYSTEM.CONST>
0

>  <SCORE.SYSTEM.DIHEDRAL>
0

>  <SCORE.SYSTEM.SOLV>
0

>  <SCORE.SYSTEM.norm>
0

>  <SCORE.heavy>
26

>  <SCORE.norm>
-1.07169

>  <RMSD>
1.914

$$$$
ligand
 OpenBabel02271912153D
libRbt.so/2013.1/901 2013/11/27
 26 28  0  0  0  0  0  0  0  0999 V2000
  128.1263   69.9263   -2.5530 N   0  0  0  0  0  0  0  0  0  0  0  0
  127.4244   69.3615   -3.7436 C   0  0  2  0  0  0  0  0  0  0  0  0
  126.7075   70.4438   -4.4984 C   0  0  0  0  0  0  0  0  0  0  0  0
  126.2261   71.4156   -3.9175 O   0  0  0  0  0  0  0  0  0  0  0  0
  126.4250   68.2925   -3.3097 C   0  0  0  0  0  0  0  0  0  0  0  0
  127.0543   67.1770   -2.4808 C   0  0  0  0  0  0  0  0  0  0  0  0
  128.1734   66.2461   -3.4749 S   0  0  0  0  0  0  0  0  0  0  0  0
  128.7891   65.0522   -2.3319 C   0  0  0  0  0  0  0  0  0  0  0  0
  129.6806   65.6945   -1.2706 C   0  0  1  0  0  0  0  0  0  0  0  0
  129.9805   64.7620   -0.2299 O   0  0  0  0  0  0  0  0  0  0  0  0
  131.0020   66.1282   -1.8843 C   0  0  1  0  0  0  0  0  0  0  0  0
  131.2898   67.4805   -1.5160 O   0  0  0  0  0  0  0  0  0  0  0  0
  132.0496   65.1736   -1.3393 C   0  0  1  0  0  0  0  0  0  0  0  0
  133.1307   65.8806   -0.7216 O   0  0  0  0  0  0  0  0  0  0  0  0
  131.3373   64.3084   -0.3062 C   0  0  2  0  0  0  0  0  0  0  0  0
  126.5759   70.3780   -5.7197 O   0  0  0  0  0  0  0  0  0  0  0  0
  128.7310   60.1999   -2.3778 N   0  0  0  0  0  0  0  0  0  0  0  0
  128.3186   61.4677   -2.1771 C   0  0  0  0  0  0  0  0  0  0  0  0
  129.0993   62.4237   -1.6328 N   0  0  0  0  0  0  0  0  0  0  0  0
  130.3756   62.1590   -1.2432 C   0  0  0  0  0  0  0  0  0  0  0  0
  130.8958   60.7934   -1.4319 C   0  0  0  0  0  0  0  0  0  0  0  0
  129.9788   59.7957   -2.0391 C   0  0  0  0  0  0  0  0  0  0  0  0
  130.3806   58.5186   -2.2433 N   0  0  0  0  0  0  0  0  0  0  0  0
  132.1606   60.7930   -0.9774 N   0  0  0  0  0  0  0  0  0  0  0  0
  132.4294   62.0457   -0.5328 C   0  0  0  0  0  0  0  0  0  0  0  0
  131.3703   62.8652   -0.6869 N   0  0  0  0  0  0  0  0  0  0  0  0
  2  1  1  1  0  0  0
  2  3  1  0  0  0  0
  2  5  1  0  0  0  0
  3  4  1  0  0  0  0
  3 16  1  0  0  0  0
  5  6  1  0  0  0  0
  6  7  1  0  0  0  0
  7  8  1  0  0  0  0
  9  8  1  6  0  0  0
  9 10  1  0  0  0  0
  9 11  1  0  0  0  0
 10 15  1  0  0  0  0
 11 12  1  1  0  0  0
 11 13  1  0  0  0  0
 13 14  1  1  0  0  0
 13 15  1  0  0  0  0
 15 26  1  6  0  0  0
 17 18  2  0  0  0  0
 17 22  1  0  0  0  0
 18 19  1  0  0  0  0
 19 20  2  0  0  0  0
 20 21  1  0  0  0  0
 20 26  1  0  0  0  0
 21 22  2  0  0  0  0
 21 24  1  0  0  0  0
 22 23  1  0  0  0  0
 24 25  2  0  0  0  0
 25 26  1  0  0  0  0
M  END
>  <CHROM.1>
-32.55697704,-55.50505021,-66.68198055,179.20295278,-69.21247295,170.05179111
17.67732048,129.44128533,65.14978934,-2.18498140,-2.02928302,0.52966123,3.10108039

>  <Name>
ligand

>  <RI>
0

>  <Rbt.Current_Directory>
/home/itssahil/PROJECTS/Mol_Feturizer/Test_systems_manuscript/rnas/3npn

>  <Rbt.Executable>
rbdock ($Id: //depot/dev/client3/rdock/2013.1/src/exe/rbdock.cxx#4 $)

>  <Rbt.Library>
libRbt.so (2013.1, Build901 2013/11/27)

>  <Rbt.Parameter_File>
/export/apps/rDock/src/rDock_2013.1_src/data/scripts/dock_solv.prm

>  <Rbt.Receptor>
prm/pocket_docking_8.prm

>  <SCORE>
-31.107

>  <SCORE.INTER>
-30.1404

>  <SCORE.INTER.CONST>
1

>  <SCORE.INTER.POLAR>
0

>  <SCORE.INTER.ROT>
7

>  <SCORE.INTER.SOLV>
15.6666

>  <SCORE.INTER.VDW>
-33.5825

>  <SCORE.INTER.norm>
-1.15924

>  <SCORE.INTRA>
-0.966615

>  <SCORE.INTRA.DIHEDRAL>
-1.02898

>  <SCORE.INTRA.DIHEDRAL.0>
4.37896

>  <SCORE.INTRA.POLAR>
0

>  <SCORE.INTRA.POLAR.0>
0

>  <SCORE.INTRA.REPUL>
0

>  <SCORE.INTRA.REPUL.0>
0

>  <SCORE.INTRA.SOLV>
0.797459

>  <SCORE.INTRA.SOLV.lig_0>
-50.5538

>  <SCORE.INTRA.VDW>
-0.850857

>  <SCORE.INTRA.VDW.0>
-1.30673

>  <SCORE.INTRA.norm>
-0.0371775

>  <SCORE.RESTR>
0

>  <SCORE.RESTR.CAVITY>
0

>  <SCORE.RESTR.norm>
0

>  <SCORE.SYSTEM>
0

>  <SCORE.SYSTEM.CONST>
0

>  <SCORE.SYSTEM.DIHEDRAL>
0

>  <SCORE.SYSTEM.SOLV>
0

>  <SCORE.SYSTEM.norm>
0

>  <SCORE.heavy>
26

>  <SCORE.norm>
-1.19642

>  <RMSD>
1.922

$$$$
ligand
 OpenBabel02271912153D
libRbt.so/2013.1/901 2013/11/27
 26 28  0  0  0  0  0  0  0  0999 V2000
  128.9997   70.9566   -3.4269 N   0  0  0  0  0  0  0  0  0  0  0  0
  128.1265   69.8660   -3.9538 C   0  0  2  0  0  0  0  0  0  0  0  0
  126.7682   70.3997   -4.3077 C   0  0  0  0  0  0  0  0  0  0  0  0
  126.3550   70.3758   -5.4663 O   0  0  0  0  0  0  0  0  0  0  0  0
  127.9853   68.7549   -2.9169 C   0  0  0  0  0  0  0  0  0  0  0  0
  127.3097   67.5007   -3.4628 C   0  0  0  0  0  0  0  0  0  0  0  0
  127.5539   66.1535   -2.3525 S   0  0  0  0  0  0  0  0  0  0  0  0
  129.2866   65.8564   -2.4961 C   0  0  0  0  0  0  0  0  0  0  0  0
  130.0532   66.3943   -1.2891 C   0  0  1  0  0  0  0  0  0  0  0  0
  130.0614   65.4374   -0.2276 O   0  0  0  0  0  0  0  0  0  0  0  0
  131.5009   66.6678   -1.6632 C   0  0  1  0  0  0  0  0  0  0  0  0
  131.8768   67.9786   -1.2300 O   0  0  0  0  0  0  0  0  0  0  0  0
  132.3226   65.5994   -0.9638 C   0  0  1  0  0  0  0  0  0  0  0  0
  133.3576   66.1776   -0.1608 O   0  0  0  0  0  0  0  0  0  0  0  0
  131.3495   64.8278   -0.0802 C   0  0  2  0  0  0  0  0  0  0  0  0
  126.0380   70.8844   -3.4445 O   0  0  0  0  0  0  0  0  0  0  0  0
  128.4690   60.9421   -2.2177 N   0  0  0  0  0  0  0  0  0  0  0  0
  128.1503   62.2358   -2.0113 C   0  0  0  0  0  0  0  0  0  0  0  0
  128.9935   63.1264   -1.4495 N   0  0  0  0  0  0  0  0  0  0  0  0
  130.2413   62.7637   -1.0469 C   0  0  0  0  0  0  0  0  0  0  0  0
  130.6601   61.3644   -1.2409 C   0  0  0  0  0  0  0  0  0  0  0  0
  129.6786   60.4430   -1.8675 C   0  0  0  0  0  0  0  0  0  0  0  0
  129.9862   59.1409   -2.0777 N   0  0  0  0  0  0  0  0  0  0  0  0
  131.9154   61.2656   -0.7712 N   0  0  0  0  0  0  0  0  0  0  0  0
  132.2717   62.4913   -0.3127 C   0  0  0  0  0  0  0  0  0  0  0  0
  131.2790   63.3891   -0.4726 N   0  0  0  0  0  0  0  0  0  0  0  0
  2  1  1  1  0  0  0
  2  3  1  0  0  0  0
  2  5  1  0  0  0  0
  3  4  1  0  0  0  0
  3 16  1  0  0  0  0
  5  6  1  0  0  0  0
  6  7  1  0  0  0  0
  7  8  1  0  0  0  0
  9  8  1  6  0  0  0
  9 10  1  0  0  0  0
  9 11  1  0  0  0  0
 10 15  1  0  0  0  0
 11 12  1  1  0  0  0
 11 13  1  0  0  0  0
 13 14  1  1  0  0  0
 13 15  1  0  0  0  0
 15 26  1  6  0  0  0
 17 18  2  0  0  0  0
 17 22  1  0  0  0  0
 18 19  1  0  0  0  0
 19 20  2  0  0  0  0
 20 21  1  0  0  0  0
 20 26  1  0  0  0  0
 21 22  2  0  0  0  0
 21 24  1  0  0  0  0
 22 23  1  0  0  0  0
 24 25  2  0  0  0  0
 25 26  1  0  0  0  0
M  END
>  <CHROM.1>
116.74094932,-170.09830048,165.67143833,-68.24078048,103.96942072,85.20145962
8.27567942,129.52165776,65.58306750,-1.99109307,-1.98799760,0.49595962,3.03631523

>  <Name>
ligand

>  <RI>
0

>  <Rbt.Current_Directory>
/home/itssahil/PROJECTS/Mol_Feturizer/Test_systems_manuscript/rnas/3npn

>  <Rbt.Executable>
rbdock ($Id: //depot/dev/client3/rdock/2013.1/src/exe/rbdock.cxx#4 $)

>  <Rbt.Library>
libRbt.so (2013.1, Build901 2013/11/27)

>  <Rbt.Parameter_File>
/export/apps/rDock/src/rDock_2013.1_src/data/scripts/dock_solv.prm

>  <Rbt.Receptor>
prm/pocket_docking_5.prm

>  <SCORE>
-27.0466

>  <SCORE.INTER>
-26.918

>  <SCORE.INTER.CONST>
1

>  <SCORE.INTER.POLAR>
0

>  <SCORE.INTER.ROT>
7

>  <SCORE.INTER.SOLV>
17.0607

>  <SCORE.INTER.VDW>
-31.8989

>  <SCORE.INTER.norm>
-1.03531

>  <SCORE.INTRA>
-0.128611

>  <SCORE.INTRA.DIHEDRAL>
3.48371

>  <SCORE.INTRA.DIHEDRAL.0>
4.37896

>  <SCORE.INTRA.POLAR>
0

>  <SCORE.INTRA.POLAR.0>
0

>  <SCORE.INTRA.REPUL>
0

>  <SCORE.INTRA.REPUL.0>
0

>  <SCORE.INTRA.SOLV>
-0.823753

>  <SCORE.INTRA.SOLV.lig_0>
-50.5538

>  <SCORE.INTRA.VDW>
-1.45859

>  <SCORE.INTRA.VDW.0>
-1.30673

>  <SCORE.INTRA.norm>
-0.00494658

>  <SCORE.RESTR>
0

>  <SCORE.RESTR.CAVITY>
0

>  <SCORE.RESTR.norm>
0

>  <SCORE.SYSTEM>
0

>  <SCORE.SYSTEM.CONST>
0

>  <SCORE.SYSTEM.DIHEDRAL>
0

>  <SCORE.SYSTEM.SOLV>
0

>  <SCORE.SYSTEM.norm>
0

>  <SCORE.heavy>
26

>  <SCORE.norm>
-1.04025

>  <RMSD>
1.923

$$$$
ligand
 OpenBabel02271912153D
libRbt.so/2013.1/901 2013/11/27
 26 28  0  0  0  0  0  0  0  0999 V2000
  128.1118   69.8138   -2.5360 N   0  0  0  0  0  0  0  0  0  0  0  0
  127.4031   69.2394   -3.7180 C   0  0  2  0  0  0  0  0  0  0  0  0
  126.6678   70.3130   -4.4677 C   0  0  0  0  0  0  0  0  0  0  0  0
  126.0935   71.2258   -3.8758 O   0  0  0  0  0  0  0  0  0  0  0  0
  126.4188   68.1617   -3.2715 C   0  0  0  0  0  0  0  0  0  0  0  0
  127.0687   67.0515   -2.4514 C   0  0  0  0  0  0  0  0  0  0  0  0
  128.2205   66.1628   -3.4468 S   0  0  0  0  0  0  0  0  0  0  0  0
  128.8280   64.9455   -2.3242 C   0  0  0  0  0  0  0  0  0  0  0  0
  129.6753   65.5712   -1.2178 C   0  0  1  0  0  0  0  0  0  0  0  0
  129.9528   64.6160   -0.1916 O   0  0  0  0  0  0  0  0  0  0  0  0
  131.0105   66.0369   -1.7757 C   0  0  1  0  0  0  0  0  0  0  0  0
  131.2679   67.3827   -1.3638 O   0  0  0  0  0  0  0  0  0  0  0  0
  132.0519   65.0816   -1.2203 C   0  0  1  0  0  0  0  0  0  0  0  0
  133.1026   65.7858   -0.5491 O   0  0  0  0  0  0  0  0  0  0  0  0
  131.3173   64.1813   -0.2339 C   0  0  2  0  0  0  0  0  0  0  0  0
  126.6142   70.2984   -5.6966 O   0  0  0  0  0  0  0  0  0  0  0  0
  128.8031   60.0696   -2.4105 N   0  0  0  0  0  0  0  0  0  0  0  0
  128.3632   61.3230   -2.1797 C   0  0  0  0  0  0  0  0  0  0  0  0
  129.1223   62.2820   -1.6106 N   0  0  0  0  0  0  0  0  0  0  0  0
  130.4035   62.0353   -1.2251 C   0  0  0  0  0  0  0  0  0  0  0  0
  130.9533   60.6863   -1.4462 C   0  0  0  0  0  0  0  0  0  0  0  0
  130.0589   59.6843   -2.0794 C   0  0  0  0  0  0  0  0  0  0  0  0
  130.4884   58.4215   -2.3141 N   0  0  0  0  0  0  0  0  0  0  0  0
  132.2172   60.7019   -0.9894 N   0  0  0  0  0  0  0  0  0  0  0  0
  132.4582   61.9489   -0.5137 C   0  0  0  0  0  0  0  0  0  0  0  0
  131.3819   62.7490   -0.6497 N   0  0  0  0  0  0  0  0  0  0  0  0
  2  1  1  1  0  0  0
  2  3  1  0  0  0  0
  2  5  1  0  0  0  0
  3  4  1  0  0  0  0
  3 16  1  0  0  0  0
  5  6  1  0  0  0  0
  6  7  1  0  0  0  0
  7  8  1  0  0  0  0
  9  8  1  6  0  0  0
  9 10  1  0  0  0  0
  9 11  1  0  0  0  0
 10 15  1  0  0  0  0
 11 12  1  1  0  0  0
 11 13  1  0  0  0  0
 13 14  1  1  0  0  0
 13 15  1  0  0  0  0
 15 26  1  6  0  0  0
 17 18  2  0  0  0  0
 17 22  1  0  0  0  0
 18 19  1  0  0  0  0
 19 20  2  0  0  0  0
 20 21  1  0  0  0  0
 20 26  1  0  0  0  0
 21 22  2  0  0  0  0
 21 24  1  0  0  0  0
 22 23  1  0  0  0  0
 24 25  2  0  0  0  0
 25 26  1  0  0  0  0
M  END
>  <CHROM.1>
-38.30856986,-55.72799440,-64.90069723,-179.52471325,-68.55415091,169.44066193
15.79597541,129.45445238,65.03535180,-2.14952658,-2.04651206,0.55227643,3.12351813

>  <Name>
ligand

>  <RI>
0

>  <Rbt.Current_Directory>
/home/itssahil/PROJECTS/Mol_Feturizer/Test_systems_manuscript/rnas/3npn

>  <Rbt.Executable>
rbdock ($Id: //depot/dev/client3/rdock/2013.1/src/exe/rbdock.cxx#4 $)

>  <Rbt.Library>
libRbt.so (2013.1, Build901 2013/11/27)

>  <Rbt.Parameter_File>
/export/apps/rDock/src/rDock_2013.1_src/data/scripts/dock_solv.prm

>  <Rbt.Receptor>
prm/pocket_docking_3.prm

>  <SCORE>
-31.3723

>  <SCORE.INTER>
-30.2612

>  <SCORE.INTER.CONST>
1

>  <SCORE.INTER.POLAR>
0

>  <SCORE.INTER.ROT>
7

>  <SCORE.INTER.SOLV>
15.451

>  <SCORE.INTER.VDW>
-33.5911

>  <SCORE.INTER.norm>
-1.16389

>  <SCORE.INTRA>
-1.11114

>  <SCORE.INTRA.DIHEDRAL>
-1.08695

>  <SCORE.INTRA.DIHEDRAL.0>
4.37896

>  <SCORE.INTRA.POLAR>
0

>  <SCORE.INTRA.POLAR.0>
0

>  <SCORE.INTRA.REPUL>
0

>  <SCORE.INTRA.REPUL.0>
0

>  <SCORE.INTRA.SOLV>
0.801251

>  <SCORE.INTRA.SOLV.lig_0>
-50.5538

>  <SCORE.INTRA.VDW>
-0.968291

>  <SCORE.INTRA.VDW.0>
-1.30673

>  <SCORE.INTRA.norm>
-0.0427361

>  <SCORE.RESTR>
0

>  <SCORE.RESTR.CAVITY>
0

>  <SCORE.RESTR.norm>
0

>  <SCORE.SYSTEM>
0

>  <SCORE.SYSTEM.CONST>
0

>  <SCORE.SYSTEM.DIHEDRAL>
0

>  <SCORE.SYSTEM.SOLV>
0

>  <SCORE.SYSTEM.norm>
0

>  <SCORE.heavy>
26

>  <SCORE.norm>
-1.20663

>  <RMSD>
1.928

$$$$
ligand
 OpenBabel02271912153D
libRbt.so/2013.1/901 2013/11/27
 26 28  0  0  0  0  0  0  0  0999 V2000
  128.0785   69.8244   -2.5530 N   0  0  0  0  0  0  0  0  0  0  0  0
  127.3352   69.2744   -3.7253 C   0  0  2  0  0  0  0  0  0  0  0  0
  126.5866   70.3647   -4.4366 C   0  0  0  0  0  0  0  0  0  0  0  0
  126.1045   71.3144   -3.8209 O   0  0  0  0  0  0  0  0  0  0  0  0
  126.3568   68.1944   -3.2711 C   0  0  0  0  0  0  0  0  0  0  0  0
  127.0192   67.0746   -2.4744 C   0  0  0  0  0  0  0  0  0  0  0  0
  128.1706   66.2112   -3.4922 S   0  0  0  0  0  0  0  0  0  0  0  0
  128.7949   64.9802   -2.3940 C   0  0  0  0  0  0  0  0  0  0  0  0
  129.6225   65.5965   -1.2675 C   0  0  1  0  0  0  0  0  0  0  0  0
  129.8988   64.6272   -0.2542 O   0  0  0  0  0  0  0  0  0  0  0  0
  130.9587   66.0861   -1.8019 C   0  0  1  0  0  0  0  0  0  0  0  0
  131.1963   67.4275   -1.3646 O   0  0  0  0  0  0  0  0  0  0  0  0
  132.0043   65.1330   -1.2504 C   0  0  1  0  0  0  0  0  0  0  0  0
  133.0392   65.8373   -0.5553 O   0  0  0  0  0  0  0  0  0  0  0  0
  131.2684   64.2083   -0.2878 C   0  0  2  0  0  0  0  0  0  0  0  0
  126.4289   70.3276   -5.6560 O   0  0  0  0  0  0  0  0  0  0  0  0
  128.7854   60.0687   -2.4471 N   0  0  0  0  0  0  0  0  0  0  0  0
  128.3234   61.3077   -2.1842 C   0  0  0  0  0  0  0  0  0  0  0  0
  129.0771   62.2765   -1.6245 N   0  0  0  0  0  0  0  0  0  0  0  0
  130.3750   62.0552   -1.2823 C   0  0  0  0  0  0  0  0  0  0  0  0
  130.9494   60.7230   -1.5403 C   0  0  0  0  0  0  0  0  0  0  0  0
  130.0595   59.7089   -2.1605 C   0  0  0  0  0  0  0  0  0  0  0  0
  130.5112   58.4603   -2.4270 N   0  0  0  0  0  0  0  0  0  0  0  0
  132.2261   60.7625   -1.1223 N   0  0  0  0  0  0  0  0  0  0  0  0
  132.4524   62.0081   -0.6357 C   0  0  0  0  0  0  0  0  0  0  0  0
  131.3538   62.7839   -0.7267 N   0  0  0  0  0  0  0  0  0  0  0  0
  2  1  1  1  0  0  0
  2  3  1  0  0  0  0
  2  5  1  0  0  0  0
  3  4  1  0  0  0  0
  3 16  1  0  0  0  0
  5  6  1  0  0  0  0
  6  7  1  0  0  0  0
  7  8  1  0  0  0  0
  9  8  1  6  0  0  0
  9 10  1  0  0  0  0
  9 11  1  0  0  0  0
 10 15  1  0  0  0  0
 11 12  1  1  0  0  0
 11 13  1  0  0  0  0
 13 14  1  1  0  0  0
 13 15  1  0  0  0  0
 15 26  1  6  0  0  0
 17 18  2  0  0  0  0
 17 22  1  0  0  0  0
 18 19  1  0  0  0  0
 19 20  2  0  0  0  0
 20 21  1  0  0  0  0
 20 26  1  0  0  0  0
 21 22  2  0  0  0  0
 21 24  1  0  0  0  0
 22 23  1  0  0  0  0
 24 25  2  0  0  0  0
 25 26  1  0  0  0  0
M  END
>  <CHROM.1>
-33.74600864,-55.08623681,-63.91706914,-179.60152466,-67.43171558,168.75417232
13.24946188,129.41143599,65.06980805,-2.18660934,-2.05095348,0.54880949,3.13610616

>  <Name>
ligand

>  <RI>
0

>  <Rbt.Current_Directory>
/home/itssahil/PROJECTS/Mol_Feturizer/Test_systems_manuscript/rnas/3npn

>  <Rbt.Executable>
rbdock ($Id: //depot/dev/client3/rdock/2013.1/src/exe/rbdock.cxx#4 $)

>  <Rbt.Library>
libRbt.so (2013.1, Build901 2013/11/27)

>  <Rbt.Parameter_File>
/export/apps/rDock/src/rDock_2013.1_src/data/scripts/dock_solv.prm

>  <Rbt.Receptor>
prm/pocket_docking_6.prm

>  <SCORE>
-31.3211

>  <SCORE.INTER>
-30.1209

>  <SCORE.INTER.CONST>
1

>  <SCORE.INTER.POLAR>
0

>  <SCORE.INTER.ROT>
7

>  <SCORE.INTER.SOLV>
15.7284

>  <SCORE.INTER.VDW>
-33.59

>  <SCORE.INTER.norm>
-1.1585

>  <SCORE.INTRA>
-1.20023

>  <SCORE.INTRA.DIHEDRAL>
-1.07449

>  <SCORE.INTRA.DIHEDRAL.0>
4.37896

>  <SCORE.INTRA.POLAR>
0

>  <SCORE.INTRA.POLAR.0>
0

>  <SCORE.INTRA.REPUL>
0

>  <SCORE.INTRA.REPUL.0>
0

>  <SCORE.INTRA.SOLV>
0.86775

>  <SCORE.INTRA.SOLV.lig_0>
-50.5538

>  <SCORE.INTRA.VDW>
-1.09686

>  <SCORE.INTRA.VDW.0>
-1.30673

>  <SCORE.INTRA.norm>
-0.0461627

>  <SCORE.RESTR>
0

>  <SCORE.RESTR.CAVITY>
0

>  <SCORE.RESTR.norm>
0

>  <SCORE.SYSTEM>
0

>  <SCORE.SYSTEM.CONST>
0

>  <SCORE.SYSTEM.DIHEDRAL>
0

>  <SCORE.SYSTEM.SOLV>
0

>  <SCORE.SYSTEM.norm>
0

>  <SCORE.heavy>
26

>  <SCORE.norm>
-1.20466

>  <RMSD>
1.934

$$$$
ligand
 OpenBabel02271912153D
libRbt.so/2013.1/901 2013/11/27
 26 28  0  0  0  0  0  0  0  0999 V2000
  128.0172   69.5580   -2.5271 N   0  0  0  0  0  0  0  0  0  0  0  0
  127.6549   69.1921   -3.9286 C   0  0  2  0  0  0  0  0  0  0  0  0
  126.7726   70.2428   -4.5391 C   0  0  0  0  0  0  0  0  0  0  0  0
  126.1079   71.0043   -3.8377 O   0  0  0  0  0  0  0  0  0  0  0  0
  126.9384   67.8446   -3.9544 C   0  0  0  0  0  0  0  0  0  0  0  0
  127.8479   66.6694   -3.6089 C   0  0  0  0  0  0  0  0  0  0  0  0
  128.1890   66.6602   -1.8795 S   0  0  0  0  0  0  0  0  0  0  0  0
  129.4056   65.3903   -1.7423 C   0  0  0  0  0  0  0  0  0  0  0  0
  130.4521   65.7240   -0.6807 C   0  0  1  0  0  0  0  0  0  0  0  0
  130.6332   64.6246    0.2143 O   0  0  0  0  0  0  0  0  0  0  0  0
  131.7962   66.0017   -1.3342 C   0  0  1  0  0  0  0  0  0  0  0  0
  132.3411   67.2237   -0.8276 O   0  0  0  0  0  0  0  0  0  0  0  0
  132.6820   64.8178   -0.9884 C   0  0  1  0  0  0  0  0  0  0  0  0
  133.9033   65.2408   -0.3721 O   0  0  0  0  0  0  0  0  0  0  0  0
  131.8805   63.9589   -0.0173 C   0  0  2  0  0  0  0  0  0  0  0  0
  126.6863   70.3601   -5.7605 O   0  0  0  0  0  0  0  0  0  0  0  0
  128.4665   60.6625   -2.3503 N   0  0  0  0  0  0  0  0  0  0  0  0
  128.2988   61.9435   -1.9647 C   0  0  0  0  0  0  0  0  0  0  0  0
  129.2680   62.6728   -1.3744 N   0  0  0  0  0  0  0  0  0  0  0  0
  130.4978   62.1470   -1.1255 C   0  0  0  0  0  0  0  0  0  0  0  0
  130.7547   60.7507   -1.5200 C   0  0  0  0  0  0  0  0  0  0  0  0
  129.6404   60.0121   -2.1662 C   0  0  0  0  0  0  0  0  0  0  0  0
  129.7958   58.7244   -2.5556 N   0  0  0  0  0  0  0  0  0  0  0  0
  132.0240   60.4763   -1.1739 N   0  0  0  0  0  0  0  0  0  0  0  0
  132.5373   61.5951   -0.6044 C   0  0  0  0  0  0  0  0  0  0  0  0
  131.6336   62.5947   -0.5711 N   0  0  0  0  0  0  0  0  0  0  0  0
  2  1  1  1  0  0  0
  2  3  1  0  0  0  0
  2  5  1  0  0  0  0
  3  4  1  0  0  0  0
  3 16  1  0  0  0  0
  5  6  1  0  0  0  0
  6  7  1  0  0  0  0
  7  8  1  0  0  0  0
  9  8  1  6  0  0  0
  9 10  1  0  0  0  0
  9 11  1  0  0  0  0
 10 15  1  0  0  0  0
 11 12  1  1  0  0  0
 11 13  1  0  0  0  0
 13 14  1  1  0  0  0
 13 15  1  0  0  0  0
 15 26  1  6  0  0  0
 17 18  2  0  0  0  0
 17 22  1  0  0  0  0
 18 19  1  0  0  0  0
 19 20  2  0  0  0  0
 20 21  1  0  0  0  0
 20 26  1  0  0  0  0
 21 22  2  0  0  0  0
 21 24  1  0  0  0  0
 22 23  1  0  0  0  0
 24 25  2  0  0  0  0
 25 26  1  0  0  0  0
M  END
>  <CHROM.1>
-22.58668674,-69.21787890,73.97454232,-172.51640477,143.98938415,130.04366570
17.23041646,129.69154779,65.06413879,-1.97571909,-2.07344488,0.54460853,3.09961704

>  <Name>
ligand

>  <RI>
0

>  <Rbt.Current_Directory>
/home/itssahil/PROJECTS/Mol_Feturizer/Test_systems_manuscript/rnas/3npn

>  <Rbt.Executable>
rbdock ($Id: //depot/dev/client3/rdock/2013.1/src/exe/rbdock.cxx#4 $)

>  <Rbt.Library>
libRbt.so (2013.1, Build901 2013/11/27)

>  <Rbt.Parameter_File>
/export/apps/rDock/src/rDock_2013.1_src/data/scripts/dock_solv.prm

>  <Rbt.Receptor>
prm/pocket_docking_2.prm

>  <SCORE>
-25.1446

>  <SCORE.INTER>
-27.7806

>  <SCORE.INTER.CONST>
1

>  <SCORE.INTER.POLAR>
0

>  <SCORE.INTER.ROT>
7

>  <SCORE.INTER.SOLV>
17.8

>  <SCORE.INTER.VDW>
-32.7204

>  <SCORE.INTER.norm>
-1.06849

>  <SCORE.INTRA>
2.63604

>  <SCORE.INTRA.DIHEDRAL>
5.86854

>  <SCORE.INTRA.DIHEDRAL.0>
4.37896

>  <SCORE.INTRA.POLAR>
0

>  <SCORE.INTRA.POLAR.0>
0

>  <SCORE.INTRA.REPUL>
0

>  <SCORE.INTRA.REPUL.0>
0

>  <SCORE.INTRA.SOLV>
1.16382

>  <SCORE.INTRA.SOLV.lig_0>
-50.5538

>  <SCORE.INTRA.VDW>
-0.880139

>  <SCORE.INTRA.VDW.0>
-1.30673

>  <SCORE.INTRA.norm>
0.101386

>  <SCORE.RESTR>
0

>  <SCORE.RESTR.CAVITY>
0

>  <SCORE.RESTR.norm>
0

>  <SCORE.SYSTEM>
0

>  <SCORE.SYSTEM.CONST>
0

>  <SCORE.SYSTEM.DIHEDRAL>
0

>  <SCORE.SYSTEM.SOLV>
0

>  <SCORE.SYSTEM.norm>
0

>  <SCORE.heavy>
26

>  <SCORE.norm>
-0.967099

>  <RMSD>
1.945

$$$$
ligand
 OpenBabel02271912153D
libRbt.so/2013.1/901 2013/11/27
 26 28  0  0  0  0  0  0  0  0999 V2000
  129.0145   71.2199   -3.4999 N   0  0  0  0  0  0  0  0  0  0  0  0
  128.1802   70.1285   -4.0847 C   0  0  2  0  0  0  0  0  0  0  0  0
  126.8357   70.6538   -4.4989 C   0  0  0  0  0  0  0  0  0  0  0  0
  126.3595   70.3899   -5.6021 O   0  0  0  0  0  0  0  0  0  0  0  0
  127.9989   69.0014   -3.0715 C   0  0  0  0  0  0  0  0  0  0  0  0
  127.4056   67.7332   -3.6774 C   0  0  0  0  0  0  0  0  0  0  0  0
  127.2308   66.4964   -2.4336 S   0  0  0  0  0  0  0  0  0  0  0  0
  128.8110   65.7132   -2.4563 C   0  0  0  0  0  0  0  0  0  0  0  0
  129.7672   66.3425   -1.4447 C   0  0  1  0  0  0  0  0  0  0  0  0
  130.0467   65.4323   -0.3788 O   0  0  0  0  0  0  0  0  0  0  0  0
  131.0914   66.6804   -2.1103 C   0  0  1  0  0  0  0  0  0  0  0  0
  131.4629   68.0269   -1.8004 O   0  0  0  0  0  0  0  0  0  0  0  0
  132.1013   65.6892   -1.5594 C   0  0  1  0  0  0  0  0  0  0  0  0
  133.2370   66.3569   -0.9984 O   0  0  0  0  0  0  0  0  0  0  0  0
  131.3740   64.9019   -0.4757 C   0  0  2  0  0  0  0  0  0  0  0  0
  126.1810   71.3718   -3.7445 O   0  0  0  0  0  0  0  0  0  0  0  0
  128.4475   60.8454   -2.1916 N   0  0  0  0  0  0  0  0  0  0  0  0
  128.1051   62.1365   -2.0084 C   0  0  0  0  0  0  0  0  0  0  0  0
  128.9644   63.0748   -1.5600 N   0  0  0  0  0  0  0  0  0  0  0  0
  130.2544   62.7669   -1.2571 C   0  0  0  0  0  0  0  0  0  0  0  0
  130.7010   61.3737   -1.4329 C   0  0  0  0  0  0  0  0  0  0  0  0
  129.6993   60.3978   -1.9321 C   0  0  0  0  0  0  0  0  0  0  0  0
  130.0306   59.0978   -2.1178 N   0  0  0  0  0  0  0  0  0  0  0  0
  131.9956   61.3324   -1.0743 N   0  0  0  0  0  0  0  0  0  0  0  0
  132.3498   62.5863   -0.6982 C   0  0  0  0  0  0  0  0  0  0  0  0
  131.3174   63.4466   -0.8034 N   0  0  0  0  0  0  0  0  0  0  0  0
  2  1  1  1  0  0  0
  2  3  1  0  0  0  0
  2  5  1  0  0  0  0
  3  4  1  0  0  0  0
  3 16  1  0  0  0  0
  5  6  1  0  0  0  0
  6  7  1  0  0  0  0
  7  8  1  0  0  0  0
  9  8  1  6  0  0  0
  9 10  1  0  0  0  0
  9 11  1  0  0  0  0
 10 15  1  0  0  0  0
 11 12  1  1  0  0  0
 11 13  1  0  0  0  0
 13 14  1  1  0  0  0
 13 15  1  0  0  0  0
 15 26  1  6  0  0  0
 17 18  2  0  0  0  0
 17 22  1  0  0  0  0
 18 19  1  0  0  0  0
 19 20  2  0  0  0  0
 20 21  1  0  0  0  0
 20 26  1  0  0  0  0
 21 22  2  0  0  0  0
 21 24  1  0  0  0  0
 22 23  1  0  0  0  0
 24 25  2  0  0  0  0
 25 26  1  0  0  0  0
M  END
>  <CHROM.1>
132.59259618,-168.26192753,-179.82866132,-87.05697834,92.35584637,111.43682900
14.91298566,129.44452038,65.68347913,-2.21952190,-1.94832078,0.41828537,3.00913429

>  <Name>
ligand

>  <RI>
0

>  <Rbt.Current_Directory>
/home/itssahil/PROJECTS/Mol_Feturizer/Test_systems_manuscript/rnas/3npn

>  <Rbt.Executable>
rbdock ($Id: //depot/dev/client3/rdock/2013.1/src/exe/rbdock.cxx#4 $)

>  <Rbt.Library>
libRbt.so (2013.1, Build901 2013/11/27)

>  <Rbt.Parameter_File>
/export/apps/rDock/src/rDock_2013.1_src/data/scripts/dock_solv.prm

>  <Rbt.Receptor>
prm/pocket_docking_2.prm

>  <SCORE>
-26.1916

>  <SCORE.INTER>
-27.3647

>  <SCORE.INTER.CONST>
1

>  <SCORE.INTER.POLAR>
0

>  <SCORE.INTER.ROT>
7

>  <SCORE.INTER.SOLV>
17.6238

>  <SCORE.INTER.VDW>
-32.3844

>  <SCORE.INTER.norm>
-1.05249

>  <SCORE.INTRA>
1.17312

>  <SCORE.INTRA.DIHEDRAL>
6.18164

>  <SCORE.INTRA.DIHEDRAL.0>
4.37896

>  <SCORE.INTRA.POLAR>
0

>  <SCORE.INTRA.POLAR.0>
0

>  <SCORE.INTRA.REPUL>
0

>  <SCORE.INTRA.REPUL.0>
0

>  <SCORE.INTRA.SOLV>
-0.800527

>  <SCORE.INTRA.SOLV.lig_0>
-50.5538

>  <SCORE.INTRA.VDW>
-1.51744

>  <SCORE.INTRA.VDW.0>
-1.30673

>  <SCORE.INTRA.norm>
0.0451198

>  <SCORE.RESTR>
0

>  <SCORE.RESTR.CAVITY>
0

>  <SCORE.RESTR.norm>
0

>  <SCORE.SYSTEM>
0

>  <SCORE.SYSTEM.CONST>
0

>  <SCORE.SYSTEM.DIHEDRAL>
0

>  <SCORE.SYSTEM.SOLV>
0

>  <SCORE.SYSTEM.norm>
0

>  <SCORE.heavy>
26

>  <SCORE.norm>
-1.00737

>  <RMSD>
1.953

$$$$
ligand
 OpenBabel02271912153D
libRbt.so/2013.1/901 2013/11/27
 26 28  0  0  0  0  0  0  0  0999 V2000
  128.4714   70.1831   -3.8073 N   0  0  0  0  0  0  0  0  0  0  0  0
  127.0396   69.7633   -3.7523 C   0  0  2  0  0  0  0  0  0  0  0  0
  126.1887   70.8577   -3.1751 C   0  0  0  0  0  0  0  0  0  0  0  0
  125.6583   70.7389   -2.0713 O   0  0  0  0  0  0  0  0  0  0  0  0
  126.8914   68.5007   -2.9076 C   0  0  0  0  0  0  0  0  0  0  0  0
  127.6698   67.3098   -3.4583 C   0  0  0  0  0  0  0  0  0  0  0  0
  127.6445   65.9845   -2.2962 S   0  0  0  0  0  0  0  0  0  0  0  0
  129.2843   65.3461   -2.4171 C   0  0  0  0  0  0  0  0  0  0  0  0
  130.1819   65.8822   -1.3033 C   0  0  1  0  0  0  0  0  0  0  0  0
  130.2963   64.9303   -0.2434 O   0  0  0  0  0  0  0  0  0  0  0  0
  131.5831   66.1398   -1.8334 C   0  0  1  0  0  0  0  0  0  0  0  0
  132.0157   67.4490   -1.4510 O   0  0  0  0  0  0  0  0  0  0  0  0
  132.4659   65.0668   -1.2210 C   0  0  1  0  0  0  0  0  0  0  0  0
  133.5870   65.6387   -0.5380 O   0  0  0  0  0  0  0  0  0  0  0  0
  131.5871   64.3089   -0.2328 C   0  0  2  0  0  0  0  0  0  0  0  0
  125.9933   71.8990   -3.8001 O   0  0  0  0  0  0  0  0  0  0  0  0
  128.5449   60.5020   -2.2863 N   0  0  0  0  0  0  0  0  0  0  0  0
  128.2741   61.8083   -2.0912 C   0  0  0  0  0  0  0  0  0  0  0  0
  129.1553   62.6753   -1.5511 N   0  0  0  0  0  0  0  0  0  0  0  0
  130.3950   62.2739   -1.1603 C   0  0  0  0  0  0  0  0  0  0  0  0
  130.7622   60.8586   -1.3430 C   0  0  0  0  0  0  0  0  0  0  0  0
  129.7409   59.9649   -1.9458 C   0  0  0  0  0  0  0  0  0  0  0  0
  130.0002   58.6505   -2.1443 N   0  0  0  0  0  0  0  0  0  0  0  0
  132.0195   60.7214   -0.8884 N   0  0  0  0  0  0  0  0  0  0  0  0
  132.4242   61.9390   -0.4493 C   0  0  0  0  0  0  0  0  0  0  0  0
  131.4614   62.8691   -0.6071 N   0  0  0  0  0  0  0  0  0  0  0  0
  2  1  1  1  0  0  0
  2  3  1  0  0  0  0
  2  5  1  0  0  0  0
  3  4  1  0  0  0  0
  3 16  1  0  0  0  0
  5  6  1  0  0  0  0
  6  7  1  0  0  0  0
  7  8  1  0  0  0  0
  9  8  1  6  0  0  0
  9 10  1  0  0  0  0
  9 11  1  0  0  0  0
 10 15  1  0  0  0  0
 11 12  1  1  0  0  0
 11 13  1  0  0  0  0
 13 14  1  1  0  0  0
 13 15  1  0  0  0  0
 15 26  1  6  0  0  0
 17 18  2  0  0  0  0
 17 22  1  0  0  0  0
 18 19  1  0  0  0  0
 19 20  2  0  0  0  0
 20 21  1  0  0  0  0
 20 26  1  0  0  0  0
 21 22  2  0  0  0  0
 21 24  1  0  0  0  0
 22 23  1  0  0  0  0
 24 25  2  0  0  0  0
 25 26  1  0  0  0  0
M  END
>  <CHROM.1>
-111.30120639,-60.79481355,171.21586330,-140.51980294,98.19877664,98.86503748
13.94037957,129.47966957,65.26439236,-1.90555703,-2.01911962,0.35563950,3.09649430

>  <Name>
ligand

>  <RI>
0

>  <Rbt.Current_Directory>
/home/itssahil/PROJECTS/Mol_Feturizer/Test_systems_manuscript/rnas/3npn

>  <Rbt.Executable>
rbdock ($Id: //depot/dev/client3/rdock/2013.1/src/exe/rbdock.cxx#4 $)

>  <Rbt.Library>
libRbt.so (2013.1, Build901 2013/11/27)

>  <Rbt.Parameter_File>
/export/apps/rDock/src/rDock_2013.1_src/data/scripts/dock_solv.prm

>  <Rbt.Receptor>
prm/pocket_docking_5.prm

>  <SCORE>
-27.4925

>  <SCORE.INTER>
-30.0382

>  <SCORE.INTER.CONST>
1

>  <SCORE.INTER.POLAR>
0

>  <SCORE.INTER.ROT>
7

>  <SCORE.INTER.SOLV>
15.597

>  <SCORE.INTER.VDW>
-33.4911

>  <SCORE.INTER.norm>
-1.15532

>  <SCORE.INTRA>
2.54571

>  <SCORE.INTRA.DIHEDRAL>
5.86002

>  <SCORE.INTRA.DIHEDRAL.0>
4.37896

>  <SCORE.INTRA.POLAR>
0

>  <SCORE.INTRA.POLAR.0>
0

>  <SCORE.INTRA.REPUL>
0

>  <SCORE.INTRA.REPUL.0>
0

>  <SCORE.INTRA.SOLV>
-0.204393

>  <SCORE.INTRA.SOLV.lig_0>
-50.5538

>  <SCORE.INTRA.VDW>
-0.282098

>  <SCORE.INTRA.VDW.0>
-1.30673

>  <SCORE.INTRA.norm>
0.097912

>  <SCORE.RESTR>
0

>  <SCORE.RESTR.CAVITY>
0

>  <SCORE.RESTR.norm>
0

>  <SCORE.SYSTEM>
0

>  <SCORE.SYSTEM.CONST>
0

>  <SCORE.SYSTEM.DIHEDRAL>
0

>  <SCORE.SYSTEM.SOLV>
0

>  <SCORE.SYSTEM.norm>
0

>  <SCORE.heavy>
26

>  <SCORE.norm>
-1.0574

>  <RMSD>
1.960

$$$$
ligand
 OpenBabel02271912153D
libRbt.so/2013.1/901 2013/11/27
 26 28  0  0  0  0  0  0  0  0999 V2000
  128.2131   69.6695   -2.6222 N   0  0  0  0  0  0  0  0  0  0  0  0
  127.6674   69.2088   -3.9334 C   0  0  2  0  0  0  0  0  0  0  0  0
  126.7601   70.2493   -4.5243 C   0  0  0  0  0  0  0  0  0  0  0  0
  126.6077   70.3465   -5.7413 O   0  0  0  0  0  0  0  0  0  0  0  0
  126.8995   67.9017   -3.7562 C   0  0  0  0  0  0  0  0  0  0  0  0
  127.7910   66.7232   -3.3767 C   0  0  0  0  0  0  0  0  0  0  0  0
  128.3117   66.8776   -1.6997 S   0  0  0  0  0  0  0  0  0  0  0  0
  129.3596   65.4729   -1.4998 C   0  0  0  0  0  0  0  0  0  0  0  0
  130.5243   65.7676   -0.5562 C   0  0  1  0  0  0  0  0  0  0  0  0
  130.8049   64.6356    0.2699 O   0  0  0  0  0  0  0  0  0  0  0  0
  131.7837   66.0707   -1.3517 C   0  0  1  0  0  0  0  0  0  0  0  0
  132.3883   67.2735   -0.8671 O   0  0  0  0  0  0  0  0  0  0  0  0
  132.6997   64.8756   -1.1561 C   0  0  1  0  0  0  0  0  0  0  0  0
  133.9861   65.2763   -0.6716 O   0  0  0  0  0  0  0  0  0  0  0  0
  132.0142   63.9802   -0.1306 C   0  0  2  0  0  0  0  0  0  0  0  0
  126.1531   71.0386   -3.8019 O   0  0  0  0  0  0  0  0  0  0  0  0
  128.3789   60.8252   -2.3203 N   0  0  0  0  0  0  0  0  0  0  0  0
  128.2671   62.0986   -1.8916 C   0  0  0  0  0  0  0  0  0  0  0  0
  129.2896   62.7899   -1.3472 N   0  0  0  0  0  0  0  0  0  0  0  0
  130.5200   62.2304   -1.1927 C   0  0  0  0  0  0  0  0  0  0  0  0
  130.7175   60.8400   -1.6390 C   0  0  0  0  0  0  0  0  0  0  0  0
  129.5463   60.1442   -2.2300 C   0  0  0  0  0  0  0  0  0  0  0  0
  129.6455   58.8644   -2.6618 N   0  0  0  0  0  0  0  0  0  0  0  0
  131.9995   60.5282   -1.3836 N   0  0  0  0  0  0  0  0  0  0  0  0
  132.5751   61.6193   -0.8202 C   0  0  0  0  0  0  0  0  0  0  0  0
  131.6995   62.6374   -0.7022 N   0  0  0  0  0  0  0  0  0  0  0  0
  2  1  1  1  0  0  0
  2  3  1  0  0  0  0
  2  5  1  0  0  0  0
  3  4  1  0  0  0  0
  3 16  1  0  0  0  0
  5  6  1  0  0  0  0
  6  7  1  0  0  0  0
  7  8  1  0  0  0  0
  9  8  1  6  0  0  0
  9 10  1  0  0  0  0
  9 11  1  0  0  0  0
 10 15  1  0  0  0  0
 11 12  1  1  0  0  0
 11 13  1  0  0  0  0
 13 14  1  1  0  0  0
 13 15  1  0  0  0  0
 15 26  1  6  0  0  0
 17 18  2  0  0  0  0
 17 22  1  0  0  0  0
 18 19  1  0  0  0  0
 19 20  2  0  0  0  0
 20 21  1  0  0  0  0
 20 26  1  0  0  0  0
 21 22  2  0  0  0  0
 21 24  1  0  0  0  0
 22 23  1  0  0  0  0
 24 25  2  0  0  0  0
 25 26  1  0  0  0  0
M  END
>  <CHROM.1>
152.04325358,-67.41119349,73.25685605,-177.89929099,145.80176298,141.71410457
20.53145066,129.71302004,65.14122165,-1.98133445,-2.06709824,0.51659975,3.09951157

>  <Name>
ligand

>  <RI>
0

>  <Rbt.Current_Directory>
/home/itssahil/PROJECTS/Mol_Feturizer/Test_systems_manuscript/rnas/3npn

>  <Rbt.Executable>
rbdock ($Id: //depot/dev/client3/rdock/2013.1/src/exe/rbdock.cxx#4 $)

>  <Rbt.Library>
libRbt.so (2013.1, Build901 2013/11/27)

>  <Rbt.Parameter_File>
/export/apps/rDock/src/rDock_2013.1_src/data/scripts/dock_solv.prm

>  <Rbt.Receptor>
prm/pocket_docking_2.prm

>  <SCORE>
-25.1012

>  <SCORE.INTER>
-27.3546

>  <SCORE.INTER.CONST>
1

>  <SCORE.INTER.POLAR>
0

>  <SCORE.INTER.ROT>
7

>  <SCORE.INTER.SOLV>
18.4855

>  <SCORE.INTER.VDW>
-32.6649

>  <SCORE.INTER.norm>
-1.0521

>  <SCORE.INTRA>
2.25285

>  <SCORE.INTRA.DIHEDRAL>
4.35213

>  <SCORE.INTRA.DIHEDRAL.0>
4.37896

>  <SCORE.INTRA.POLAR>
0

>  <SCORE.INTRA.POLAR.0>
0

>  <SCORE.INTRA.REPUL>
0

>  <SCORE.INTRA.REPUL.0>
0

>  <SCORE.INTRA.SOLV>
1.20934

>  <SCORE.INTRA.SOLV.lig_0>
-50.5538

>  <SCORE.INTRA.VDW>
-0.527878

>  <SCORE.INTRA.VDW.0>
-1.30673

>  <SCORE.INTRA.norm>
0.0866483

>  <SCORE.RESTR>
0.000483678

>  <SCORE.RESTR.CAVITY>
0.000483678

>  <SCORE.RESTR.norm>
1.8603e-05

>  <SCORE.SYSTEM>
0

>  <SCORE.SYSTEM.CONST>
0

>  <SCORE.SYSTEM.DIHEDRAL>
0

>  <SCORE.SYSTEM.SOLV>
0

>  <SCORE.SYSTEM.norm>
0

>  <SCORE.heavy>
26

>  <SCORE.norm>
-0.965432

>  <RMSD>
1.963

$$$$
ligand
 OpenBabel02271912153D
libRbt.so/2013.1/901 2013/11/27
 26 28  0  0  0  0  0  0  0  0999 V2000
  129.9802   70.0108   -3.6083 N   0  0  0  0  0  0  0  0  0  0  0  0
  128.6230   69.7962   -4.1925 C   0  0  2  0  0  0  0  0  0  0  0  0
  127.8423   71.0790   -4.2033 C   0  0  0  0  0  0  0  0  0  0  0  0
  128.4087   72.1711   -4.1864 O   0  0  0  0  0  0  0  0  0  0  0  0
  127.8636   68.7422   -3.3912 C   0  0  0  0  0  0  0  0  0  0  0  0
  128.5815   67.3975   -3.3277 C   0  0  0  0  0  0  0  0  0  0  0  0
  127.6268   66.2489   -2.3915 S   0  0  0  0  0  0  0  0  0  0  0  0
  128.8260   65.0324   -1.9519 C   0  0  0  0  0  0  0  0  0  0  0  0
  129.8678   65.5911   -0.9844 C   0  0  1  0  0  0  0  0  0  0  0  0
  130.2628   64.5969   -0.0367 O   0  0  0  0  0  0  0  0  0  0  0  0
  131.1158   66.0160   -1.7413 C   0  0  1  0  0  0  0  0  0  0  0  0
  131.4974   67.3379   -1.3486 O   0  0  0  0  0  0  0  0  0  0  0  0
  132.1883   65.0030   -1.3817 C   0  0  1  0  0  0  0  0  0  0  0  0
  133.3642   65.6437   -0.8748 O   0  0  0  0  0  0  0  0  0  0  0  0
  131.5814   64.1070   -0.3083 C   0  0  2  0  0  0  0  0  0  0  0  0
  126.6123   71.0671   -4.2194 O   0  0  0  0  0  0  0  0  0  0  0  0
  128.6206   60.2341   -2.3574 N   0  0  0  0  0  0  0  0  0  0  0  0
  128.2886   61.5075   -2.0641 C   0  0  0  0  0  0  0  0  0  0  0  0
  129.1559   62.3975   -1.5392 N   0  0  0  0  0  0  0  0  0  0  0  0
  130.4439   62.0549   -1.2665 C   0  0  0  0  0  0  0  0  0  0  0  0
  130.8793   60.6785   -1.5613 C   0  0  0  0  0  0  0  0  0  0  0  0
  129.8693   59.7564   -2.1397 C   0  0  0  0  0  0  0  0  0  0  0  0
  130.1900   58.4745   -2.4362 N   0  0  0  0  0  0  0  0  0  0  0  0
  132.1741   60.5968   -1.2103 N   0  0  0  0  0  0  0  0  0  0  0  0
  132.5386   61.8113   -0.7295 C   0  0  0  0  0  0  0  0  0  0  0  0
  131.5128   62.6853   -0.7588 N   0  0  0  0  0  0  0  0  0  0  0  0
  2  1  1  1  0  0  0
  2  3  1  0  0  0  0
  2  5  1  0  0  0  0
  3  4  1  0  0  0  0
  3 16  1  0  0  0  0
  5  6  1  0  0  0  0
  6  7  1  0  0  0  0
  7  8  1  0  0  0  0
  9  8  1  6  0  0  0
  9 10  1  0  0  0  0
  9 11  1  0  0  0  0
 10 15  1  0  0  0  0
 11 12  1  1  0  0  0
 11 13  1  0  0  0  0
 13 14  1  1  0  0  0
 13 15  1  0  0  0  0
 15 26  1  6  0  0  0
 17 18  2  0  0  0  0
 17 22  1  0  0  0  0
 18 19  1  0  0  0  0
 19 20  2  0  0  0  0
 20 21  1  0  0  0  0
 20 26  1  0  0  0  0
 21 22  2  0  0  0  0
 21 24  1  0  0  0  0
 22 23  1  0  0  0  0
 24 25  2  0  0  0  0
 25 26  1  0  0  0  0
M  END
>  <CHROM.1>
23.36938266,-58.14540411,-179.73439814,-160.44711664,67.30638883,143.89444324
20.58734851,129.80040773,65.20099752,-2.10887644,-1.84750869,0.43245909,3.02016333

>  <Name>
ligand

>  <RI>
0

>  <Rbt.Current_Directory>
/home/itssahil/PROJECTS/Mol_Feturizer/Test_systems_manuscript/rnas/3npn

>  <Rbt.Executable>
rbdock ($Id: //depot/dev/client3/rdock/2013.1/src/exe/rbdock.cxx#4 $)

>  <Rbt.Library>
libRbt.so (2013.1, Build901 2013/11/27)

>  <Rbt.Parameter_File>
/export/apps/rDock/src/rDock_2013.1_src/data/scripts/dock_solv.prm

>  <Rbt.Receptor>
prm/pocket_docking_5.prm

>  <SCORE>
-24.6221

>  <SCORE.INTER>
-26.0551

>  <SCORE.INTER.CONST>
1

>  <SCORE.INTER.POLAR>
0

>  <SCORE.INTER.ROT>
7

>  <SCORE.INTER.SOLV>
14.5845

>  <SCORE.INTER.VDW>
-30.4983

>  <SCORE.INTER.norm>
-1.00212

>  <SCORE.INTRA>
1.43298

>  <SCORE.INTRA.DIHEDRAL>
2.41338

>  <SCORE.INTRA.DIHEDRAL.0>
4.37896

>  <SCORE.INTRA.POLAR>
0

>  <SCORE.INTRA.POLAR.0>
0

>  <SCORE.INTRA.REPUL>
0

>  <SCORE.INTRA.REPUL.0>
0

>  <SCORE.INTRA.SOLV>
0.429524

>  <SCORE.INTRA.SOLV.lig_0>
-50.5538

>  <SCORE.INTRA.VDW>
0.0115256

>  <SCORE.INTRA.VDW.0>
-1.30673

>  <SCORE.INTRA.norm>
0.0551146

>  <SCORE.RESTR>
0

>  <SCORE.RESTR.CAVITY>
0

>  <SCORE.RESTR.norm>
0

>  <SCORE.SYSTEM>
0

>  <SCORE.SYSTEM.CONST>
0

>  <SCORE.SYSTEM.DIHEDRAL>
0

>  <SCORE.SYSTEM.SOLV>
0

>  <SCORE.SYSTEM.norm>
0

>  <SCORE.heavy>
26

>  <SCORE.norm>
-0.947005

>  <RMSD>
1.965

$$$$
ligand
 OpenBabel02271912153D
libRbt.so/2013.1/901 2013/11/27
 26 28  0  0  0  0  0  0  0  0999 V2000
  128.7172   70.4716   -2.4917 N   0  0  0  0  0  0  0  0  0  0  0  0
  127.6604   70.3427   -3.5385 C   0  0  2  0  0  0  0  0  0  0  0  0
  126.3035   70.6202   -2.9581 C   0  0  0  0  0  0  0  0  0  0  0  0
  125.6207   71.5639   -3.3542 O   0  0  0  0  0  0  0  0  0  0  0  0
  127.6819   68.9405   -4.1410 C   0  0  0  0  0  0  0  0  0  0  0  0
  127.8705   67.8389   -3.1026 C   0  0  0  0  0  0  0  0  0  0  0  0
  128.4258   66.3609   -3.8866 S   0  0  0  0  0  0  0  0  0  0  0  0
  128.7909   65.3191   -2.5109 C   0  0  0  0  0  0  0  0  0  0  0  0
  129.7175   66.0087   -1.5112 C   0  0  1  0  0  0  0  0  0  0  0  0
  129.9981   65.1485   -0.4049 O   0  0  0  0  0  0  0  0  0  0  0  0
  131.0452   66.3471   -2.1695 C   0  0  1  0  0  0  0  0  0  0  0  0
  131.3841   67.7126   -1.9092 O   0  0  0  0  0  0  0  0  0  0  0  0
  132.0660   65.4004   -1.5632 C   0  0  1  0  0  0  0  0  0  0  0  0
  133.1786   66.1139   -1.0125 O   0  0  0  0  0  0  0  0  0  0  0  0
  131.3373   64.6426   -0.4596 C   0  0  2  0  0  0  0  0  0  0  0  0
  125.8457   69.9128   -2.0619 O   0  0  0  0  0  0  0  0  0  0  0  0
  128.5774   60.4889   -2.2186 N   0  0  0  0  0  0  0  0  0  0  0  0
  128.2134   61.7831   -2.1169 C   0  0  0  0  0  0  0  0  0  0  0  0
  129.0297   62.7478   -1.6450 N   0  0  0  0  0  0  0  0  0  0  0  0
  130.2949   62.4656   -1.2322 C   0  0  0  0  0  0  0  0  0  0  0  0
  130.7630   61.0708   -1.3141 C   0  0  0  0  0  0  0  0  0  0  0  0
  129.8089   60.0650   -1.8460 C   0  0  0  0  0  0  0  0  0  0  0  0
  130.1620   58.7617   -1.9505 N   0  0  0  0  0  0  0  0  0  0  0  0
  132.0267   61.0574   -0.8569 N   0  0  0  0  0  0  0  0  0  0  0  0
  132.3427   62.3295   -0.5086 C   0  0  0  0  0  0  0  0  0  0  0  0
  131.3156   63.1743   -0.7285 N   0  0  0  0  0  0  0  0  0  0  0  0
  2  1  1  1  0  0  0
  2  3  1  0  0  0  0
  2  5  1  0  0  0  0
  3  4  1  0  0  0  0
  3 16  1  0  0  0  0
  5  6  1  0  0  0  0
  6  7  1  0  0  0  0
  7  8  1  0  0  0  0
  9  8  1  6  0  0  0
  9 10  1  0  0  0  0
  9 11  1  0  0  0  0
 10 15  1  0  0  0  0
 11 12  1  1  0  0  0
 11 13  1  0  0  0  0
 13 14  1  1  0  0  0
 13 15  1  0  0  0  0
 15 26  1  6  0  0  0
 17 18  2  0  0  0  0
 17 22  1  0  0  0  0
 18 19  1  0  0  0  0
 19 20  2  0  0  0  0
 20 21  1  0  0  0  0
 20 26  1  0  0  0  0
 21 22  2  0  0  0  0
 21 24  1  0  0  0  0
 22 23  1  0  0  0  0
 24 25  2  0  0  0  0
 25 26  1  0  0  0  0
M  END
>  <CHROM.1>
117.50198202,42.04666198,-160.79727305,172.36307942,-52.12350230,179.90249796
18.44299109,129.46898458,65.43913994,-2.07809658,-1.97263530,0.37485713,3.09596652

>  <Name>
ligand

>  <RI>
0

>  <Rbt.Current_Directory>
/home/itssahil/PROJECTS/Mol_Feturizer/Test_systems_manuscript/rnas/3npn

>  <Rbt.Executable>
rbdock ($Id: //depot/dev/client3/rdock/2013.1/src/exe/rbdock.cxx#4 $)

>  <Rbt.Library>
libRbt.so (2013.1, Build901 2013/11/27)

>  <Rbt.Parameter_File>
/export/apps/rDock/src/rDock_2013.1_src/data/scripts/dock_solv.prm

>  <Rbt.Receptor>
prm/pocket_docking_2.prm

>  <SCORE>
-25.7277

>  <SCORE.INTER>
-26.599

>  <SCORE.INTER.CONST>
1

>  <SCORE.INTER.POLAR>
0

>  <SCORE.INTER.ROT>
7

>  <SCORE.INTER.SOLV>
16.236

>  <SCORE.INTER.VDW>
-31.4113

>  <SCORE.INTER.norm>
-1.02304

>  <SCORE.INTRA>
0.855464

>  <SCORE.INTRA.DIHEDRAL>
0.955015

>  <SCORE.INTRA.DIHEDRAL.0>
4.37896

>  <SCORE.INTRA.POLAR>
0

>  <SCORE.INTRA.POLAR.0>
0

>  <SCORE.INTRA.REPUL>
0

>  <SCORE.INTRA.REPUL.0>
0

>  <SCORE.INTRA.SOLV>
0.718151

>  <SCORE.INTRA.SOLV.lig_0>
-50.5538

>  <SCORE.INTRA.VDW>
0.0188813

>  <SCORE.INTRA.VDW.0>
-1.30673

>  <SCORE.INTRA.norm>
0.0329025

>  <SCORE.RESTR>
0.0158692

>  <SCORE.RESTR.CAVITY>
0.0158692

>  <SCORE.RESTR.norm>
0.000610355

>  <SCORE.SYSTEM>
0

>  <SCORE.SYSTEM.CONST>
0

>  <SCORE.SYSTEM.DIHEDRAL>
0

>  <SCORE.SYSTEM.SOLV>
0

>  <SCORE.SYSTEM.norm>
0

>  <SCORE.heavy>
26

>  <SCORE.norm>
-0.989527

>  <RMSD>
1.976

$$$$
ligand
 OpenBabel02271912153D
libRbt.so/2013.1/901 2013/11/27
 26 28  0  0  0  0  0  0  0  0999 V2000
  128.6099   70.4206   -2.2571 N   0  0  0  0  0  0  0  0  0  0  0  0
  127.6061   70.0077   -3.2824 C   0  0  2  0  0  0  0  0  0  0  0  0
  126.2355   70.4937   -2.9074 C   0  0  0  0  0  0  0  0  0  0  0  0
  125.5664   69.9178   -2.0505 O   0  0  0  0  0  0  0  0  0  0  0  0
  127.5890   68.4879   -3.4230 C   0  0  0  0  0  0  0  0  0  0  0  0
  128.9797   67.8788   -3.5727 C   0  0  0  0  0  0  0  0  0  0  0  0
  128.8495   66.2064   -4.1142 S   0  0  0  0  0  0  0  0  0  0  0  0
  128.8907   65.3137   -2.5935 C   0  0  0  0  0  0  0  0  0  0  0  0
  129.8034   65.9858   -1.5693 C   0  0  1  0  0  0  0  0  0  0  0  0
  130.0316   65.1239   -0.4524 O   0  0  0  0  0  0  0  0  0  0  0  0
  131.1573   66.2909   -2.1897 C   0  0  1  0  0  0  0  0  0  0  0  0
  131.5199   67.6493   -1.9241 O   0  0  0  0  0  0  0  0  0  0  0  0
  132.1377   65.3235   -1.5506 C   0  0  1  0  0  0  0  0  0  0  0  0
  133.2500   66.0134   -0.9699 O   0  0  0  0  0  0  0  0  0  0  0  0
  131.3599   64.5871   -0.4662 C   0  0  2  0  0  0  0  0  0  0  0  0
  125.7442   71.4777   -3.4584 O   0  0  0  0  0  0  0  0  0  0  0  0
  128.5437   60.4852   -2.2574 N   0  0  0  0  0  0  0  0  0  0  0  0
  128.2050   61.7871   -2.1659 C   0  0  0  0  0  0  0  0  0  0  0  0
  129.0332   62.7363   -1.6836 N   0  0  0  0  0  0  0  0  0  0  0  0
  130.2853   62.4295   -1.2490 C   0  0  0  0  0  0  0  0  0  0  0  0
  130.7256   61.0250   -1.3187 C   0  0  0  0  0  0  0  0  0  0  0  0
  129.7597   60.0372   -1.8631 C   0  0  0  0  0  0  0  0  0  0  0  0
  130.0873   58.7266   -1.9575 N   0  0  0  0  0  0  0  0  0  0  0  0
  131.9811   60.9870   -0.8405 N   0  0  0  0  0  0  0  0  0  0  0  0
  132.3177   62.2535   -0.4912 C   0  0  0  0  0  0  0  0  0  0  0  0
  131.3120   63.1186   -0.7307 N   0  0  0  0  0  0  0  0  0  0  0  0
  2  1  1  1  0  0  0
  2  3  1  0  0  0  0
  2  5  1  0  0  0  0
  3  4  1  0  0  0  0
  3 16  1  0  0  0  0
  5  6  1  0  0  0  0
  6  7  1  0  0  0  0
  7  8  1  0  0  0  0
  9  8  1  6  0  0  0
  9 10  1  0  0  0  0
  9 11  1  0  0  0  0
 10 15  1  0  0  0  0
 11 12  1  1  0  0  0
 11 13  1  0  0  0  0
 13 14  1  1  0  0  0
 13 15  1  0  0  0  0
 15 26  1  6  0  0  0
 17 18  2  0  0  0  0
 17 22  1  0  0  0  0
 18 19  1  0  0  0  0
 19 20  2  0  0  0  0
 20 21  1  0  0  0  0
 20 26  1  0  0  0  0
 21 22  2  0  0  0  0
 21 24  1  0  0  0  0
 22 23  1  0  0  0  0
 24 25  2  0  0  0  0
 25 26  1  0  0  0  0
M  END
>  <CHROM.1>
-78.01701988,-48.36582873,-166.32583988,-94.10945943,-34.69730976,-168.61037532
17.70336282,129.54268886,65.36151474,-2.08427789,-1.96555015,0.35421247,3.09603360

>  <Name>
ligand

>  <RI>
0

>  <Rbt.Current_Directory>
/home/itssahil/PROJECTS/Mol_Feturizer/Test_systems_manuscript/rnas/3npn

>  <Rbt.Executable>
rbdock ($Id: //depot/dev/client3/rdock/2013.1/src/exe/rbdock.cxx#4 $)

>  <Rbt.Library>
libRbt.so (2013.1, Build901 2013/11/27)

>  <Rbt.Parameter_File>
/export/apps/rDock/src/rDock_2013.1_src/data/scripts/dock_solv.prm

>  <Rbt.Receptor>
prm/pocket_docking_2.prm

>  <SCORE>
-22.1832

>  <SCORE.INTER>
-25.31

>  <SCORE.INTER.CONST>
1

>  <SCORE.INTER.POLAR>
0

>  <SCORE.INTER.ROT>
7

>  <SCORE.INTER.SOLV>
16.7618

>  <SCORE.INTER.VDW>
-30.7272

>  <SCORE.INTER.norm>
-0.973461

>  <SCORE.INTRA>
3.11251

>  <SCORE.INTRA.DIHEDRAL>
2.29892

>  <SCORE.INTRA.DIHEDRAL.0>
4.37896

>  <SCORE.INTRA.POLAR>
0

>  <SCORE.INTRA.POLAR.0>
0

>  <SCORE.INTRA.REPUL>
0

>  <SCORE.INTRA.REPUL.0>
0

>  <SCORE.INTRA.SOLV>
0.547572

>  <SCORE.INTRA.SOLV.lig_0>
-50.5538

>  <SCORE.INTRA.VDW>
1.68926

>  <SCORE.INTRA.VDW.0>
-1.30673

>  <SCORE.INTRA.norm>
0.119712

>  <SCORE.RESTR>
0.0142302

>  <SCORE.RESTR.CAVITY>
0.0142302

>  <SCORE.RESTR.norm>
0.000547315

>  <SCORE.SYSTEM>
0

>  <SCORE.SYSTEM.CONST>
0

>  <SCORE.SYSTEM.DIHEDRAL>
0

>  <SCORE.SYSTEM.SOLV>
0

>  <SCORE.SYSTEM.norm>
0

>  <SCORE.heavy>
26

>  <SCORE.norm>
-0.853202

>  <RMSD>
1.986

$$$$
ligand
 OpenBabel02271912153D
libRbt.so/2013.1/901 2013/11/27
 26 28  0  0  0  0  0  0  0  0999 V2000
  128.3500   69.3351   -2.2440 N   0  0  0  0  0  0  0  0  0  0  0  0
  127.3820   69.4502   -3.3749 C   0  0  2  0  0  0  0  0  0  0  0  0
  126.3918   70.5488   -3.1147 C   0  0  0  0  0  0  0  0  0  0  0  0
  125.6707   70.5352   -2.1180 O   0  0  0  0  0  0  0  0  0  0  0  0
  126.6413   68.1303   -3.5727 C   0  0  0  0  0  0  0  0  0  0  0  0
  127.5705   66.9481   -3.8302 C   0  0  0  0  0  0  0  0  0  0  0  0
  127.8622   66.0732   -2.3279 S   0  0  0  0  0  0  0  0  0  0  0  0
  129.5714   65.6578   -2.4596 C   0  0  0  0  0  0  0  0  0  0  0  0
  130.3631   66.1339   -1.2430 C   0  0  1  0  0  0  0  0  0  0  0  0
  130.3084   65.1656   -0.1933 O   0  0  0  0  0  0  0  0  0  0  0  0
  131.8265   66.3240   -1.6076 C   0  0  1  0  0  0  0  0  0  0  0  0
  132.2786   67.6044   -1.1568 O   0  0  0  0  0  0  0  0  0  0  0  0
  132.5788   65.1996   -0.9181 C   0  0  1  0  0  0  0  0  0  0  0  0
  133.6428   65.7045   -0.1037 O   0  0  0  0  0  0  0  0  0  0  0  0
  131.5566   64.4775   -0.0481 C   0  0  2  0  0  0  0  0  0  0  0  0
  126.2715   71.4869   -3.9013 O   0  0  0  0  0  0  0  0  0  0  0  0
  128.4826   60.8128   -2.3030 N   0  0  0  0  0  0  0  0  0  0  0  0
  128.2449   62.1228   -2.0902 C   0  0  0  0  0  0  0  0  0  0  0  0
  129.1301   62.9499   -1.4969 N   0  0  0  0  0  0  0  0  0  0  0  0
  130.3401   62.5012   -1.0663 C   0  0  0  0  0  0  0  0  0  0  0  0
  130.6703   61.0790   -1.2653 C   0  0  0  0  0  0  0  0  0  0  0  0
  129.6468   60.2310   -1.9274 C   0  0  0  0  0  0  0  0  0  0  0  0
  129.8729   58.9134   -2.1443 N   0  0  0  0  0  0  0  0  0  0  0  0
  131.9034   60.8924   -0.7645 N   0  0  0  0  0  0  0  0  0  0  0  0
  132.3278   62.0872   -0.2832 C   0  0  0  0  0  0  0  0  0  0  0  0
  131.4014   63.0506   -0.4584 N   0  0  0  0  0  0  0  0  0  0  0  0
  2  1  1  1  0  0  0
  2  3  1  0  0  0  0
  2  5  1  0  0  0  0
  3  4  1  0  0  0  0
  3 16  1  0  0  0  0
  5  6  1  0  0  0  0
  6  7  1  0  0  0  0
  7  8  1  0  0  0  0
  9  8  1  6  0  0  0
  9 10  1  0  0  0  0
  9 11  1  0  0  0  0
 10 15  1  0  0  0  0
 11 12  1  1  0  0  0
 11 13  1  0  0  0  0
 13 14  1  1  0  0  0
 13 15  1  0  0  0  0
 15 26  1  6  0  0  0
 17 18  2  0  0  0  0
 17 22  1  0  0  0  0
 18 19  1  0  0  0  0
 19 20  2  0  0  0  0
 20 21  1  0  0  0  0
 20 26  1  0  0  0  0
 21 22  2  0  0  0  0
 21 24  1  0  0  0  0
 22 23  1  0  0  0  0
 24 25  2  0  0  0  0
 25 26  1  0  0  0  0
M  END
>  <CHROM.1>
-58.54661844,-57.40612941,96.85701829,-140.88003947,125.79067708,85.83708766
9.56530440,129.52754968,65.30510356,-1.79852893,-2.05419017,0.42454555,3.12812103

>  <Name>
ligand

>  <RI>
0

>  <Rbt.Current_Directory>
/home/itssahil/PROJECTS/Mol_Feturizer/Test_systems_manuscript/rnas/3npn

>  <Rbt.Executable>
rbdock ($Id: //depot/dev/client3/rdock/2013.1/src/exe/rbdock.cxx#4 $)

>  <Rbt.Library>
libRbt.so (2013.1, Build901 2013/11/27)

>  <Rbt.Parameter_File>
/export/apps/rDock/src/rDock_2013.1_src/data/scripts/dock_solv.prm

>  <Rbt.Receptor>
prm/pocket_docking_3.prm

>  <SCORE>
-26.0697

>  <SCORE.INTER>
-29.161

>  <SCORE.INTER.CONST>
1

>  <SCORE.INTER.POLAR>
0

>  <SCORE.INTER.ROT>
7

>  <SCORE.INTER.SOLV>
16.466

>  <SCORE.INTER.VDW>
-33.196

>  <SCORE.INTER.norm>
-1.12158

>  <SCORE.INTRA>
3.09129

>  <SCORE.INTRA.DIHEDRAL>
8.1931

>  <SCORE.INTRA.DIHEDRAL.0>
4.37896

>  <SCORE.INTRA.POLAR>
0

>  <SCORE.INTRA.POLAR.0>
0

>  <SCORE.INTRA.REPUL>
0

>  <SCORE.INTRA.REPUL.0>
0

>  <SCORE.INTRA.SOLV>
1.85746

>  <SCORE.INTRA.SOLV.lig_0>
-50.5538

>  <SCORE.INTRA.VDW>
-1.93399

>  <SCORE.INTRA.VDW.0>
-1.30673

>  <SCORE.INTRA.norm>
0.118896

>  <SCORE.RESTR>
0

>  <SCORE.RESTR.CAVITY>
0

>  <SCORE.RESTR.norm>
0

>  <SCORE.SYSTEM>
0

>  <SCORE.SYSTEM.CONST>
0

>  <SCORE.SYSTEM.DIHEDRAL>
0

>  <SCORE.SYSTEM.SOLV>
0

>  <SCORE.SYSTEM.norm>
0

>  <SCORE.heavy>
26

>  <SCORE.norm>
-1.00268

>  <RMSD>
1.991

$$$$
ligand
 OpenBabel02271912153D
libRbt.so/2013.1/901 2013/11/27
 26 28  0  0  0  0  0  0  0  0999 V2000
  125.7810   70.6253   -2.3686 N   0  0  0  0  0  0  0  0  0  0  0  0
  127.0208   69.9127   -2.7982 C   0  0  2  0  0  0  0  0  0  0  0  0
  127.3105   70.1805   -4.2471 C   0  0  0  0  0  0  0  0  0  0  0  0
  128.4653   70.2828   -4.6589 O   0  0  0  0  0  0  0  0  0  0  0  0
  126.8703   68.4101   -2.5760 C   0  0  0  0  0  0  0  0  0  0  0  0
  128.1719   67.6373   -2.7658 C   0  0  0  0  0  0  0  0  0  0  0  0
  127.9239   65.9357   -2.3784 S   0  0  0  0  0  0  0  0  0  0  0  0
  129.5672   65.2962   -2.4209 C   0  0  0  0  0  0  0  0  0  0  0  0
  130.3820   65.7535   -1.2123 C   0  0  1  0  0  0  0  0  0  0  0  0
  130.3533   64.7657   -0.1799 O   0  0  0  0  0  0  0  0  0  0  0  0
  131.8367   65.9572   -1.6037 C   0  0  1  0  0  0  0  0  0  0  0  0
  132.2925   67.2312   -1.1387 O   0  0  0  0  0  0  0  0  0  0  0  0
  132.6080   64.8238   -0.9509 C   0  0  1  0  0  0  0  0  0  0  0  0
  133.6866   65.3186   -0.1495 O   0  0  0  0  0  0  0  0  0  0  0  0
  131.6073   64.0810   -0.0734 C   0  0  2  0  0  0  0  0  0  0  0  0
  126.3949   70.3145   -5.0576 O   0  0  0  0  0  0  0  0  0  0  0  0
  128.5266   60.4581   -2.3859 N   0  0  0  0  0  0  0  0  0  0  0  0
  128.2910   61.7647   -2.1517 C   0  0  0  0  0  0  0  0  0  0  0  0
  129.1777   62.5807   -1.5454 N   0  0  0  0  0  0  0  0  0  0  0  0
  130.3873   62.1233   -1.1229 C   0  0  0  0  0  0  0  0  0  0  0  0
  130.7152   60.7040   -1.3453 C   0  0  0  0  0  0  0  0  0  0  0  0
  129.6901   59.8684   -2.0205 C   0  0  0  0  0  0  0  0  0  0  0  0
  129.9141   58.5542   -2.2590 N   0  0  0  0  0  0  0  0  0  0  0  0
  131.9484   60.5075   -0.8483 N   0  0  0  0  0  0  0  0  0  0  0  0
  132.3748   61.6937   -0.3478 C   0  0  0  0  0  0  0  0  0  0  0  0
  131.4497   62.6612   -0.5068 N   0  0  0  0  0  0  0  0  0  0  0  0
  2  1  1  6  0  0  0
  2  3  1  0  0  0  0
  2  5  1  0  0  0  0
  3  4  1  0  0  0  0
  3 16  1  0  0  0  0
  5  6  1  0  0  0  0
  6  7  1  0  0  0  0
  7  8  1  0  0  0  0
  9  8  1  6  0  0  0
  9 10  1  0  0  0  0
  9 11  1  0  0  0  0
 10 15  1  0  0  0  0
 11 12  1  1  0  0  0
 11 13  1  0  0  0  0
 13 14  1  1  0  0  0
 13 15  1  0  0  0  0
 15 26  1  6  0  0  0
 17 18  2  0  0  0  0
 17 22  1  0  0  0  0
 18 19  1  0  0  0  0
 19 20  2  0  0  0  0
 20 21  1  0  0  0  0
 20 26  1  0  0  0  0
 21 22  2  0  0  0  0
 21 24  1  0  0  0  0
 22 23  1  0  0  0  0
 24 25  2  0  0  0  0
 25 26  1  0  0  0  0
M  END
>  <CHROM.1>
144.72189209,-170.20925497,176.01809457,-171.70782877,72.76490505,95.52955694
10.78011787,129.63297837,65.07656460,-1.92978280,2.00989978,-0.45095397,-0.06558102

>  <Name>
ligand

>  <RI>
0

>  <Rbt.Current_Directory>
/home/itssahil/PROJECTS/Mol_Feturizer/Test_systems_manuscript/rnas/3npn

>  <Rbt.Executable>
rbdock ($Id: //depot/dev/client3/rdock/2013.1/src/exe/rbdock.cxx#4 $)

>  <Rbt.Library>
libRbt.so (2013.1, Build901 2013/11/27)

>  <Rbt.Parameter_File>
/export/apps/rDock/src/rDock_2013.1_src/data/scripts/dock_solv.prm

>  <Rbt.Receptor>
prm/pocket_docking_2.prm

>  <SCORE>
-26.3529

>  <SCORE.INTER>
-25.8379

>  <SCORE.INTER.CONST>
1

>  <SCORE.INTER.POLAR>
0

>  <SCORE.INTER.ROT>
7

>  <SCORE.INTER.SOLV>
22.4133

>  <SCORE.INTER.VDW>
-32.963

>  <SCORE.INTER.norm>
-0.993764

>  <SCORE.INTRA>
-0.544794

>  <SCORE.INTRA.DIHEDRAL>
2.48142

>  <SCORE.INTRA.DIHEDRAL.0>
4.37896

>  <SCORE.INTRA.POLAR>
0

>  <SCORE.INTRA.POLAR.0>
0

>  <SCORE.INTRA.REPUL>
0

>  <SCORE.INTRA.REPUL.0>
0

>  <SCORE.INTRA.SOLV>
-0.875149

>  <SCORE.INTRA.SOLV.lig_0>
-50.5538

>  <SCORE.INTRA.VDW>
-1.34793

>  <SCORE.INTRA.VDW.0>
-1.30673

>  <SCORE.INTRA.norm>
-0.0209536

>  <SCORE.RESTR>
0.0297286

>  <SCORE.RESTR.CAVITY>
0.0297286

>  <SCORE.RESTR.norm>
0.00114341

>  <SCORE.SYSTEM>
0

>  <SCORE.SYSTEM.CONST>
0

>  <SCORE.SYSTEM.DIHEDRAL>
0

>  <SCORE.SYSTEM.SOLV>
0

>  <SCORE.SYSTEM.norm>
0

>  <SCORE.heavy>
26

>  <SCORE.norm>
-1.01357

>  <RMSD>
1.997

$$$$
ligand
 OpenBabel02271912153D
libRbt.so/2013.1/901 2013/11/27
 26 28  0  0  0  0  0  0  0  0999 V2000
  125.8205   69.1890   -2.3517 N   0  0  0  0  0  0  0  0  0  0  0  0
  127.1279   69.4885   -3.0076 C   0  0  2  0  0  0  0  0  0  0  0  0
  126.9760   70.5962   -4.0102 C   0  0  0  0  0  0  0  0  0  0  0  0
  126.3134   70.4427   -5.0354 O   0  0  0  0  0  0  0  0  0  0  0  0
  127.6688   68.2413   -3.7016 C   0  0  0  0  0  0  0  0  0  0  0  0
  127.9937   67.1052   -2.7366 C   0  0  0  0  0  0  0  0  0  0  0  0
  128.7989   65.7950   -3.5982 S   0  0  0  0  0  0  0  0  0  0  0  0
  129.0760   64.6155   -2.3163 C   0  0  0  0  0  0  0  0  0  0  0  0
  129.9469   65.1894   -1.2002 C   0  0  1  0  0  0  0  0  0  0  0  0
  130.1741   64.2120   -0.1825 O   0  0  0  0  0  0  0  0  0  0  0  0
  131.3052   65.5968   -1.7478 C   0  0  1  0  0  0  0  0  0  0  0  0
  131.6241   66.9247   -1.3213 O   0  0  0  0  0  0  0  0  0  0  0  0
  132.2976   64.5877   -1.1977 C   0  0  1  0  0  0  0  0  0  0  0  0
  133.3773   65.2347   -0.5150 O   0  0  0  0  0  0  0  0  0  0  0  0
  131.5166   63.7136   -0.2235 C   0  0  2  0  0  0  0  0  0  0  0  0
  127.5214   71.6845   -3.8332 O   0  0  0  0  0  0  0  0  0  0  0  0
  128.8248   59.7505   -2.4624 N   0  0  0  0  0  0  0  0  0  0  0  0
  128.4442   61.0215   -2.2223 C   0  0  0  0  0  0  0  0  0  0  0  0
  129.2440   61.9368   -1.6373 N   0  0  0  0  0  0  0  0  0  0  0  0
  130.5083   61.6244   -1.2440 C   0  0  0  0  0  0  0  0  0  0  0  0
  130.9940   60.2525   -1.4745 C   0  0  0  0  0  0  0  0  0  0  0  0
  130.0575   59.3014   -2.1252 C   0  0  0  0  0  0  0  0  0  0  0  0
  130.4274   58.0217   -2.3693 N   0  0  0  0  0  0  0  0  0  0  0  0
  132.2532   60.2022   -1.0073 N   0  0  0  0  0  0  0  0  0  0  0  0
  132.5503   61.4313   -0.5169 C   0  0  0  0  0  0  0  0  0  0  0  0
  131.5153   62.2840   -0.6535 N   0  0  0  0  0  0  0  0  0  0  0  0
  2  1  1  6  0  0  0
  2  3  1  0  0  0  0
  2  5  1  0  0  0  0
  3  4  1  0  0  0  0
  3 16  1  0  0  0  0
  5  6  1  0  0  0  0
  6  7  1  0  0  0  0
  7  8  1  0  0  0  0
  9  8  1  6  0  0  0
  9 10  1  0  0  0  0
  9 11  1  0  0  0  0
 10 15  1  0  0  0  0
 11 12  1  1  0  0  0
 11 13  1  0  0  0  0
 13 14  1  1  0  0  0
 13 15  1  0  0  0  0
 15 26  1  6  0  0  0
 17 18  2  0  0  0  0
 17 22  1  0  0  0  0
 18 19  1  0  0  0  0
 19 20  2  0  0  0  0
 20 21  1  0  0  0  0
 20 26  1  0  0  0  0
 21 22  2  0  0  0  0
 21 24  1  0  0  0  0
 22 23  1  0  0  0  0
 24 25  2  0  0  0  0
 25 26  1  0  0  0  0
M  END
>  <CHROM.1>
-66.93239086,-63.97156303,-172.79080176,179.97555856,-59.93458581,-179.18049814
16.03136195,129.64822292,64.75335923,-2.11660549,2.00377609,-0.51162835,-0.01948662

>  <Name>
ligand

>  <RI>
0

>  <Rbt.Current_Directory>
/home/itssahil/PROJECTS/Mol_Feturizer/Test_systems_manuscript/rnas/3npn

>  <Rbt.Executable>
rbdock ($Id: //depot/dev/client3/rdock/2013.1/src/exe/rbdock.cxx#4 $)

>  <Rbt.Library>
libRbt.so (2013.1, Build901 2013/11/27)

>  <Rbt.Parameter_File>
/export/apps/rDock/src/rDock_2013.1_src/data/scripts/dock_solv.prm

>  <Rbt.Receptor>
prm/pocket_docking_8.prm

>  <SCORE>
-28.3951

>  <SCORE.INTER>
-27.1542

>  <SCORE.INTER.CONST>
1

>  <SCORE.INTER.POLAR>
0

>  <SCORE.INTER.ROT>
7

>  <SCORE.INTER.SOLV>
19.2828

>  <SCORE.INTER.VDW>
-32.7971

>  <SCORE.INTER.norm>
-1.04439

>  <SCORE.INTRA>
-1.24188

>  <SCORE.INTRA.DIHEDRAL>
-1.46287

>  <SCORE.INTRA.DIHEDRAL.0>
4.37896

>  <SCORE.INTRA.POLAR>
0

>  <SCORE.INTRA.POLAR.0>
0

>  <SCORE.INTRA.REPUL>
0

>  <SCORE.INTRA.REPUL.0>
0

>  <SCORE.INTRA.SOLV>
-0.0209723

>  <SCORE.INTRA.SOLV.lig_0>
-50.5538

>  <SCORE.INTRA.VDW>
-0.499957

>  <SCORE.INTRA.VDW.0>
-1.30673

>  <SCORE.INTRA.norm>
-0.0477645

>  <SCORE.RESTR>
0.000959161

>  <SCORE.RESTR.CAVITY>
0.000959161

>  <SCORE.RESTR.norm>
3.68908e-05

>  <SCORE.SYSTEM>
0

>  <SCORE.SYSTEM.CONST>
0

>  <SCORE.SYSTEM.DIHEDRAL>
0

>  <SCORE.SYSTEM.SOLV>
0

>  <SCORE.SYSTEM.norm>
0

>  <SCORE.heavy>
26

>  <SCORE.norm>
-1.09212

>  <RMSD>
1.997

$$$$
ligand
 OpenBabel02271912153D
libRbt.so/2013.1/901 2013/11/27
 26 28  0  0  0  0  0  0  0  0999 V2000
  125.7334   69.1448   -2.4705 N   0  0  0  0  0  0  0  0  0  0  0  0
  127.0881   69.4910   -2.9942 C   0  0  2  0  0  0  0  0  0  0  0  0
  126.9987   70.6007   -4.0019 C   0  0  0  0  0  0  0  0  0  0  0  0
  127.5778   71.6717   -3.8252 O   0  0  0  0  0  0  0  0  0  0  0  0
  127.7345   68.2669   -3.6373 C   0  0  0  0  0  0  0  0  0  0  0  0
  127.9584   67.1173   -2.6597 C   0  0  0  0  0  0  0  0  0  0  0  0
  128.7522   65.7746   -3.4808 S   0  0  0  0  0  0  0  0  0  0  0  0
  129.0057   64.6261   -2.1663 C   0  0  0  0  0  0  0  0  0  0  0  0
  129.9416   65.1888   -1.0981 C   0  0  1  0  0  0  0  0  0  0  0  0
  130.2237   64.2030   -0.1025 O   0  0  0  0  0  0  0  0  0  0  0  0
  131.2674   65.5961   -1.7202 C   0  0  1  0  0  0  0  0  0  0  0  0
  131.6151   66.9198   -1.3030 O   0  0  0  0  0  0  0  0  0  0  0  0
  132.2864   64.5799   -1.2360 C   0  0  1  0  0  0  0  0  0  0  0  0
  133.4060   65.2183   -0.6120 O   0  0  0  0  0  0  0  0  0  0  0  0
  131.5599   63.7007   -0.2248 C   0  0  2  0  0  0  0  0  0  0  0  0
  126.3328   70.4672   -5.0276 O   0  0  0  0  0  0  0  0  0  0  0  0
  128.7917   59.8146   -2.5049 N   0  0  0  0  0  0  0  0  0  0  0  0
  128.4384   61.0921   -2.2580 C   0  0  0  0  0  0  0  0  0  0  0  0
  129.2555   61.9852   -1.6626 N   0  0  0  0  0  0  0  0  0  0  0  0
  130.5104   61.6417   -1.2649 C   0  0  0  0  0  0  0  0  0  0  0  0
  130.9663   60.2608   -1.5022 C   0  0  0  0  0  0  0  0  0  0  0  0
  130.0121   59.3355   -2.1643 C   0  0  0  0  0  0  0  0  0  0  0  0
  130.3543   58.0494   -2.4153 N   0  0  0  0  0  0  0  0  0  0  0  0
  132.2214   60.1790   -1.0289 N   0  0  0  0  0  0  0  0  0  0  0  0
  132.5435   61.3977   -0.5285 C   0  0  0  0  0  0  0  0  0  0  0  0
  131.5287   62.2744   -0.6645 N   0  0  0  0  0  0  0  0  0  0  0  0
  2  1  1  6  0  0  0
  2  3  1  0  0  0  0
  2  5  1  0  0  0  0
  3  4  1  0  0  0  0
  3 16  1  0  0  0  0
  5  6  1  0  0  0  0
  6  7  1  0  0  0  0
  7  8  1  0  0  0  0
  9  8  1  6  0  0  0
  9 10  1  0  0  0  0
  9 11  1  0  0  0  0
 10 15  1  0  0  0  0
 11 12  1  1  0  0  0
 11 13  1  0  0  0  0
 13 14  1  1  0  0  0
 13 15  1  0  0  0  0
 15 26  1  6  0  0  0
 17 18  2  0  0  0  0
 17 22  1  0  0  0  0
 18 19  1  0  0  0  0
 19 20  2  0  0  0  0
 20 21  1  0  0  0  0
 20 26  1  0  0  0  0
 21 22  2  0  0  0  0
 21 24  1  0  0  0  0
 22 23  1  0  0  0  0
 24 25  2  0  0  0  0
 25 26  1  0  0  0  0
M  END
>  <CHROM.1>
119.63710120,-62.06818349,-178.21901748,176.39407110,-63.20604175,-175.05159644
19.81072065,129.63773634,64.75755277,-2.10531838,2.00238485,-0.50361655,-0.02045057

>  <Name>
ligand

>  <RI>
0

>  <Rbt.Current_Directory>
/home/itssahil/PROJECTS/Mol_Feturizer/Test_systems_manuscript/rnas/3npn

>  <Rbt.Executable>
rbdock ($Id: //depot/dev/client3/rdock/2013.1/src/exe/rbdock.cxx#4 $)

>  <Rbt.Library>
libRbt.so (2013.1, Build901 2013/11/27)

>  <Rbt.Parameter_File>
/export/apps/rDock/src/rDock_2013.1_src/data/scripts/dock_solv.prm

>  <Rbt.Receptor>
prm/pocket_docking_3.prm

>  <SCORE>
-28.2416

>  <SCORE.INTER>
-27.2463

>  <SCORE.INTER.CONST>
1

>  <SCORE.INTER.POLAR>
0

>  <SCORE.INTER.ROT>
7

>  <SCORE.INTER.SOLV>
19.7204

>  <SCORE.INTER.VDW>
-33.0043

>  <SCORE.INTER.norm>
-1.04793

>  <SCORE.INTRA>
-0.997478

>  <SCORE.INTRA.DIHEDRAL>
-1.5771

>  <SCORE.INTRA.DIHEDRAL.0>
4.37896

>  <SCORE.INTRA.POLAR>
0

>  <SCORE.INTRA.POLAR.0>
0

>  <SCORE.INTRA.REPUL>
0

>  <SCORE.INTRA.REPUL.0>
0

>  <SCORE.INTRA.SOLV>
0.0132924

>  <SCORE.INTRA.SOLV.lig_0>
-50.5538

>  <SCORE.INTRA.VDW>
-0.215577

>  <SCORE.INTRA.VDW.0>
-1.30673

>  <SCORE.INTRA.norm>
-0.0383645

>  <SCORE.RESTR>
0.00215711

>  <SCORE.RESTR.CAVITY>
0.00215711

>  <SCORE.RESTR.norm>
8.29658e-05

>  <SCORE.SYSTEM>
0

>  <SCORE.SYSTEM.CONST>
0

>  <SCORE.SYSTEM.DIHEDRAL>
0

>  <SCORE.SYSTEM.SOLV>
0

>  <SCORE.SYSTEM.norm>
0

>  <SCORE.heavy>
26

>  <SCORE.norm>
-1.08622

>  <RMSD>
2.011

$$$$
ligand
 OpenBabel02271912153D
libRbt.so/2013.1/901 2013/11/27
 26 28  0  0  0  0  0  0  0  0999 V2000
  125.6782   69.0546   -2.4069 N   0  0  0  0  0  0  0  0  0  0  0  0
  126.9784   69.4267   -3.0396 C   0  0  2  0  0  0  0  0  0  0  0  0
  126.7840   70.5297   -4.0400 C   0  0  0  0  0  0  0  0  0  0  0  0
  127.1026   71.6895   -3.7813 O   0  0  0  0  0  0  0  0  0  0  0  0
  127.5965   68.2136   -3.7295 C   0  0  0  0  0  0  0  0  0  0  0  0
  127.8922   67.0606   -2.7752 C   0  0  0  0  0  0  0  0  0  0  0  0
  128.8032   65.8048   -3.6121 S   0  0  0  0  0  0  0  0  0  0  0  0
  129.0567   64.6112   -2.3384 C   0  0  0  0  0  0  0  0  0  0  0  0
  129.8886   65.1795   -1.1901 C   0  0  1  0  0  0  0  0  0  0  0  0
  130.1001   64.1902   -0.1807 O   0  0  0  0  0  0  0  0  0  0  0  0
  131.2561   65.6122   -1.6935 C   0  0  1  0  0  0  0  0  0  0  0  0
  131.5456   66.9376   -1.2391 O   0  0  0  0  0  0  0  0  0  0  0  0
  132.2460   64.6078   -1.1304 C   0  0  1  0  0  0  0  0  0  0  0  0
  133.2977   65.2583   -0.4084 O   0  0  0  0  0  0  0  0  0  0  0  0
  131.4497   63.7095   -0.1912 C   0  0  2  0  0  0  0  0  0  0  0  0
  126.2900   70.2992   -5.1427 O   0  0  0  0  0  0  0  0  0  0  0  0
  128.8366   59.7160   -2.4689 N   0  0  0  0  0  0  0  0  0  0  0  0
  128.4278   60.9740   -2.2080 C   0  0  0  0  0  0  0  0  0  0  0  0
  129.2099   61.8996   -1.6152 N   0  0  0  0  0  0  0  0  0  0  0  0
  130.4839   61.6117   -1.2349 C   0  0  0  0  0  0  0  0  0  0  0  0
  131.0002   60.2551   -1.4882 C   0  0  0  0  0  0  0  0  0  0  0  0
  130.0818   59.2914   -2.1462 C   0  0  0  0  0  0  0  0  0  0  0  0
  130.4801   58.0244   -2.4111 N   0  0  0  0  0  0  0  0  0  0  0  0
  132.2634   60.2280   -1.0302 N   0  0  0  0  0  0  0  0  0  0  0  0
  132.5349   61.4567   -0.5241 C   0  0  0  0  0  0  0  0  0  0  0  0
  131.4791   62.2865   -0.6416 N   0  0  0  0  0  0  0  0  0  0  0  0
  2  1  1  6  0  0  0
  2  3  1  0  0  0  0
  2  5  1  0  0  0  0
  3  4  1  0  0  0  0
  3 16  1  0  0  0  0
  5  6  1  0  0  0  0
  6  7  1  0  0  0  0
  7  8  1  0  0  0  0
  9  8  1  6  0  0  0
  9 10  1  0  0  0  0
  9 11  1  0  0  0  0
 10 15  1  0  0  0  0
 11 12  1  1  0  0  0
 11 13  1  0  0  0  0
 13 14  1  1  0  0  0
 13 15  1  0  0  0  0
 15 26  1  6  0  0  0
 17 18  2  0  0  0  0
 17 22  1  0  0  0  0
 18 19  1  0  0  0  0
 19 20  2  0  0  0  0
 20 21  1  0  0  0  0
 20 26  1  0  0  0  0
 21 22  2  0  0  0  0
 21 24  1  0  0  0  0
 22 23  1  0  0  0  0
 24 25  2  0  0  0  0
 25 26  1  0  0  0  0
M  END
>  <CHROM.1>
103.62399901,-60.67631163,-172.11071470,178.94361070,-62.48537272,-179.05054570
13.94607744,129.58748151,64.73463548,-2.11574341,2.02911892,-0.52910329,-0.00280609

>  <Name>
ligand

>  <RI>
0

>  <Rbt.Current_Directory>
/home/itssahil/PROJECTS/Mol_Feturizer/Test_systems_manuscript/rnas/3npn

>  <Rbt.Executable>
rbdock ($Id: //depot/dev/client3/rdock/2013.1/src/exe/rbdock.cxx#4 $)

>  <Rbt.Library>
libRbt.so (2013.1, Build901 2013/11/27)

>  <Rbt.Parameter_File>
/export/apps/rDock/src/rDock_2013.1_src/data/scripts/dock_solv.prm

>  <Rbt.Receptor>
prm/pocket_docking_5.prm

>  <SCORE>
-28.3385

>  <SCORE.INTER>
-27.1182

>  <SCORE.INTER.CONST>
1

>  <SCORE.INTER.POLAR>
0

>  <SCORE.INTER.ROT>
7

>  <SCORE.INTER.SOLV>
19.8057

>  <SCORE.INTER.VDW>
-32.9474

>  <SCORE.INTER.norm>
-1.04301

>  <SCORE.INTRA>
-1.22025

>  <SCORE.INTRA.DIHEDRAL>
-1.49848

>  <SCORE.INTRA.DIHEDRAL.0>
4.37896

>  <SCORE.INTRA.POLAR>
0

>  <SCORE.INTRA.POLAR.0>
0

>  <SCORE.INTRA.REPUL>
0

>  <SCORE.INTRA.REPUL.0>
0

>  <SCORE.INTRA.SOLV>
0.000867089

>  <SCORE.INTRA.SOLV.lig_0>
-50.5538

>  <SCORE.INTRA.VDW>
-0.471443

>  <SCORE.INTRA.VDW.0>
-1.30673

>  <SCORE.INTRA.norm>
-0.0469327

>  <SCORE.RESTR>
0

>  <SCORE.RESTR.CAVITY>
0

>  <SCORE.RESTR.norm>
0

>  <SCORE.SYSTEM>
0

>  <SCORE.SYSTEM.CONST>
0

>  <SCORE.SYSTEM.DIHEDRAL>
0

>  <SCORE.SYSTEM.SOLV>
0

>  <SCORE.SYSTEM.norm>
0

>  <SCORE.heavy>
26

>  <SCORE.norm>
-1.08994

>  <RMSD>
2.012

$$$$
ligand
 OpenBabel02271912153D
libRbt.so/2013.1/901 2013/11/27
 26 28  0  0  0  0  0  0  0  0999 V2000
  125.6824   69.9029   -2.2482 N   0  0  0  0  0  0  0  0  0  0  0  0
  126.9879   69.6388   -2.9228 C   0  0  2  0  0  0  0  0  0  0  0  0
  127.0610   70.3623   -4.2367 C   0  0  0  0  0  0  0  0  0  0  0  0
  128.0100   71.0962   -4.5093 O   0  0  0  0  0  0  0  0  0  0  0  0
  127.1701   68.1409   -3.1530 C   0  0  0  0  0  0  0  0  0  0  0  0
  127.6028   67.3848   -1.9006 C   0  0  0  0  0  0  0  0  0  0  0  0
  127.8744   65.6864   -2.2863 S   0  0  0  0  0  0  0  0  0  0  0  0
  129.6201   65.6305   -2.5325 C   0  0  0  0  0  0  0  0  0  0  0  0
  130.3798   66.1066   -1.2956 C   0  0  1  0  0  0  0  0  0  0  0  0
  130.3014   65.1364   -0.2491 O   0  0  0  0  0  0  0  0  0  0  0  0
  131.8515   66.3010   -1.6232 C   0  0  1  0  0  0  0  0  0  0  0  0
  132.2888   67.5819   -1.1592 O   0  0  0  0  0  0  0  0  0  0  0  0
  132.5892   65.1774   -0.9168 C   0  0  1  0  0  0  0  0  0  0  0  0
  133.6312   65.6837   -0.0753 O   0  0  0  0  0  0  0  0  0  0  0  0
  131.5474   64.4513   -0.0738 C   0  0  2  0  0  0  0  0  0  0  0  0
  126.1641   70.2450   -5.0704 O   0  0  0  0  0  0  0  0  0  0  0  0
  128.4882   60.7538   -2.2951 N   0  0  0  0  0  0  0  0  0  0  0  0
  128.2347   62.0587   -2.0699 C   0  0  0  0  0  0  0  0  0  0  0  0
  129.1181   62.8956   -1.4876 N   0  0  0  0  0  0  0  0  0  0  0  0
  130.3424   62.4628   -1.0820 C   0  0  0  0  0  0  0  0  0  0  0  0
  130.6903   61.0470   -1.2959 C   0  0  0  0  0  0  0  0  0  0  0  0
  129.6677   60.1875   -1.9445 C   0  0  0  0  0  0  0  0  0  0  0  0
  129.9096   58.8749   -2.1738 N   0  0  0  0  0  0  0  0  0  0  0  0
  131.9351   60.8763   -0.8190 N   0  0  0  0  0  0  0  0  0  0  0  0
  132.3502   62.0744   -0.3380 C   0  0  0  0  0  0  0  0  0  0  0  0
  131.4062   63.0247   -0.4902 N   0  0  0  0  0  0  0  0  0  0  0  0
  2  1  1  6  0  0  0
  2  3  1  0  0  0  0
  2  5  1  0  0  0  0
  3  4  1  0  0  0  0
  3 16  1  0  0  0  0
  5  6  1  0  0  0  0
  6  7  1  0  0  0  0
  7  8  1  0  0  0  0
  9  8  1  6  0  0  0
  9 10  1  0  0  0  0
  9 11  1  0  0  0  0
 10 15  1  0  0  0  0
 11 12  1  1  0  0  0
 11 13  1  0  0  0  0
 13 14  1  1  0  0  0
 13 15  1  0  0  0  0
 15 26  1  6  0  0  0
 17 18  2  0  0  0  0
 17 22  1  0  0  0  0
 18 19  1  0  0  0  0
 19 20  2  0  0  0  0
 20 21  1  0  0  0  0
 20 26  1  0  0  0  0
 21 22  2  0  0  0  0
 21 24  1  0  0  0  0
 22 23  1  0  0  0  0
 24 25  2  0  0  0  0
 25 26  1  0  0  0  0
M  END
>  <CHROM.1>
127.42777830,-78.44982069,-176.81475033,96.80874611,58.10351757,72.19906746
6.96596138,129.56010791,65.26065709,-1.89333714,2.03092473,-0.43616396,-0.08042039

>  <Name>
ligand

>  <RI>
0

>  <Rbt.Current_Directory>
/home/itssahil/PROJECTS/Mol_Feturizer/Test_systems_manuscript/rnas/3npn

>  <Rbt.Executable>
rbdock ($Id: //depot/dev/client3/rdock/2013.1/src/exe/rbdock.cxx#4 $)

>  <Rbt.Library>
libRbt.so (2013.1, Build901 2013/11/27)

>  <Rbt.Parameter_File>
/export/apps/rDock/src/rDock_2013.1_src/data/scripts/dock_solv.prm

>  <Rbt.Receptor>
prm/pocket_docking_2.prm

>  <SCORE>
-26.6407

>  <SCORE.INTER>
-25.6846

>  <SCORE.INTER.CONST>
1

>  <SCORE.INTER.POLAR>
0

>  <SCORE.INTER.ROT>
7

>  <SCORE.INTER.SOLV>
22.0626

>  <SCORE.INTER.VDW>
-32.7439

>  <SCORE.INTER.norm>
-0.987867

>  <SCORE.INTRA>
-0.969434

>  <SCORE.INTRA.DIHEDRAL>
1.74626

>  <SCORE.INTRA.DIHEDRAL.0>
4.37896

>  <SCORE.INTRA.POLAR>
0

>  <SCORE.INTRA.POLAR.0>
0

>  <SCORE.INTRA.REPUL>
0

>  <SCORE.INTRA.REPUL.0>
0

>  <SCORE.INTRA.SOLV>
-0.233679

>  <SCORE.INTRA.SOLV.lig_0>
-50.5538

>  <SCORE.INTRA.VDW>
-1.72572

>  <SCORE.INTRA.VDW.0>
-1.30673

>  <SCORE.INTRA.norm>
-0.0372859

>  <SCORE.RESTR>
0.0132898

>  <SCORE.RESTR.CAVITY>
0.0132898

>  <SCORE.RESTR.norm>
0.000511146

>  <SCORE.SYSTEM>
0

>  <SCORE.SYSTEM.CONST>
0

>  <SCORE.SYSTEM.DIHEDRAL>
0

>  <SCORE.SYSTEM.SOLV>
0

>  <SCORE.SYSTEM.norm>
0

>  <SCORE.heavy>
26

>  <SCORE.norm>
-1.02464

>  <RMSD>
2.016

$$$$
ligand
 OpenBabel02271912153D
libRbt.so/2013.1/901 2013/11/27
 26 28  0  0  0  0  0  0  0  0999 V2000
  128.7245   70.8857   -2.8813 N   0  0  0  0  0  0  0  0  0  0  0  0
  127.6544   69.8962   -3.2057 C   0  0  2  0  0  0  0  0  0  0  0  0
  126.2985   70.4608   -2.8929 C   0  0  0  0  0  0  0  0  0  0  0  0
  125.5483   69.9107   -2.0878 O   0  0  0  0  0  0  0  0  0  0  0  0
  127.8675   68.6089   -2.4138 C   0  0  0  0  0  0  0  0  0  0  0  0
  127.2286   67.3858   -3.0644 C   0  0  0  0  0  0  0  0  0  0  0  0
  127.7092   65.9252   -2.2024 S   0  0  0  0  0  0  0  0  0  0  0  0
  129.4522   65.8864   -2.4695 C   0  0  0  0  0  0  0  0  0  0  0  0
  130.2212   66.3917   -1.2501 C   0  0  1  0  0  0  0  0  0  0  0  0
  130.1806   65.4311   -0.1927 O   0  0  0  0  0  0  0  0  0  0  0  0
  131.6829   66.6142   -1.6035 C   0  0  1  0  0  0  0  0  0  0  0  0
  132.0998   67.9090   -1.1597 O   0  0  0  0  0  0  0  0  0  0  0  0
  132.4560   65.5142   -0.8979 C   0  0  1  0  0  0  0  0  0  0  0  0
  133.5001   66.0516   -0.0786 O   0  0  0  0  0  0  0  0  0  0  0  0
  131.4438   64.7748   -0.0307 C   0  0  2  0  0  0  0  0  0  0  0  0
  125.9011   71.4859   -3.4446 O   0  0  0  0  0  0  0  0  0  0  0  0
  128.4490   61.0007   -2.2105 N   0  0  0  0  0  0  0  0  0  0  0  0
  128.1735   62.3038   -2.0009 C   0  0  0  0  0  0  0  0  0  0  0  0
  129.0422   63.1622   -1.4279 N   0  0  0  0  0  0  0  0  0  0  0  0
  130.2731   62.7547   -1.0162 C   0  0  0  0  0  0  0  0  0  0  0  0
  130.6448   61.3424   -1.2130 C   0  0  0  0  0  0  0  0  0  0  0  0
  129.6374   60.4583   -1.8521 C   0  0  0  0  0  0  0  0  0  0  0  0
  129.9014   59.1473   -2.0656 N   0  0  0  0  0  0  0  0  0  0  0  0
  131.8918   61.1981   -0.7330 N   0  0  0  0  0  0  0  0  0  0  0  0
  132.2863   62.4087   -0.2659 C   0  0  0  0  0  0  0  0  0  0  0  0
  131.3269   63.3412   -0.4302 N   0  0  0  0  0  0  0  0  0  0  0  0
  2  1  1  1  0  0  0
  2  3  1  0  0  0  0
  2  5  1  0  0  0  0
  3  4  1  0  0  0  0
  3 16  1  0  0  0  0
  5  6  1  0  0  0  0
  6  7  1  0  0  0  0
  7  8  1  0  0  0  0
  9  8  1  6  0  0  0
  9 10  1  0  0  0  0
  9 11  1  0  0  0  0
 10 15  1  0  0  0  0
 11 12  1  1  0  0  0
 11 13  1  0  0  0  0
 13 14  1  1  0  0  0
 13 15  1  0  0  0  0
 15 26  1  6  0  0  0
 17 18  2  0  0  0  0
 17 22  1  0  0  0  0
 18 19  1  0  0  0  0
 19 20  2  0  0  0  0
 20 21  1  0  0  0  0
 20 26  1  0  0  0  0
 21 22  2  0  0  0  0
 21 24  1  0  0  0  0
 22 23  1  0  0  0  0
 24 25  2  0  0  0  0
 25 26  1  0  0  0  0
M  END
>  <CHROM.1>
-120.68385310,-156.00901495,172.35885478,-63.85016837,101.08908396,72.86457087
7.98795683,129.49170760,65.54424406,-1.68384433,-2.00868938,0.36644016,3.11133698

>  <Name>
ligand

>  <RI>
0

>  <Rbt.Current_Directory>
/home/itssahil/PROJECTS/Mol_Feturizer/Test_systems_manuscript/rnas/3npn

>  <Rbt.Executable>
rbdock ($Id: //depot/dev/client3/rdock/2013.1/src/exe/rbdock.cxx#4 $)

>  <Rbt.Library>
libRbt.so (2013.1, Build901 2013/11/27)

>  <Rbt.Parameter_File>
/export/apps/rDock/src/rDock_2013.1_src/data/scripts/dock_solv.prm

>  <Rbt.Receptor>
prm/pocket_docking_3.prm

>  <SCORE>
-26.8613

>  <SCORE.INTER>
-27.38

>  <SCORE.INTER.CONST>
1

>  <SCORE.INTER.POLAR>
0

>  <SCORE.INTER.ROT>
7

>  <SCORE.INTER.SOLV>
18.3837

>  <SCORE.INTER.VDW>
-32.6479

>  <SCORE.INTER.norm>
-1.05308

>  <SCORE.INTRA>
0.518669

>  <SCORE.INTRA.DIHEDRAL>
2.95584

>  <SCORE.INTRA.DIHEDRAL.0>
4.37896

>  <SCORE.INTRA.POLAR>
0

>  <SCORE.INTRA.POLAR.0>
0

>  <SCORE.INTRA.REPUL>
0

>  <SCORE.INTRA.REPUL.0>
0

>  <SCORE.INTRA.SOLV>
-0.755582

>  <SCORE.INTRA.SOLV.lig_0>
-50.5538

>  <SCORE.INTRA.VDW>
-0.581462

>  <SCORE.INTRA.VDW.0>
-1.30673

>  <SCORE.INTRA.norm>
0.0199488

>  <SCORE.RESTR>
0

>  <SCORE.RESTR.CAVITY>
0

>  <SCORE.RESTR.norm>
0

>  <SCORE.SYSTEM>
0

>  <SCORE.SYSTEM.CONST>
0

>  <SCORE.SYSTEM.DIHEDRAL>
0

>  <SCORE.SYSTEM.SOLV>
0

>  <SCORE.SYSTEM.norm>
0

>  <SCORE.heavy>
26

>  <SCORE.norm>
-1.03313

>  <RMSD>
2.021

$$$$
ligand
 OpenBabel02271912153D
libRbt.so/2013.1/901 2013/11/27
 26 28  0  0  0  0  0  0  0  0999 V2000
  128.3407   69.2665   -4.1931 N   0  0  0  0  0  0  0  0  0  0  0  0
  127.0151   69.1717   -3.5125 C   0  0  2  0  0  0  0  0  0  0  0  0
  126.5105   70.5371   -3.1435 C   0  0  0  0  0  0  0  0  0  0  0  0
  125.6064   70.6829   -2.3219 O   0  0  0  0  0  0  0  0  0  0  0  0
  127.1264   68.3110   -2.2568 C   0  0  0  0  0  0  0  0  0  0  0  0
  126.9222   66.8229   -2.5236 C   0  0  0  0  0  0  0  0  0  0  0  0
  128.3019   66.1751   -3.4092 S   0  0  0  0  0  0  0  0  0  0  0  0
  128.9204   64.9510   -2.3001 C   0  0  0  0  0  0  0  0  0  0  0  0
  129.8035   65.5664   -1.2161 C   0  0  1  0  0  0  0  0  0  0  0  0
  130.0457   64.6266   -0.1670 O   0  0  0  0  0  0  0  0  0  0  0  0
  131.1539   65.9567   -1.7948 C   0  0  1  0  0  0  0  0  0  0  0  0
  131.4747   67.2998   -1.4202 O   0  0  0  0  0  0  0  0  0  0  0  0
  132.1556   64.9701   -1.2213 C   0  0  1  0  0  0  0  0  0  0  0  0
  133.2420   65.6435   -0.5757 O   0  0  0  0  0  0  0  0  0  0  0  0
  131.3889   64.1299   -0.2068 C   0  0  2  0  0  0  0  0  0  0  0  0
  126.9850   71.5454   -3.6644 O   0  0  0  0  0  0  0  0  0  0  0  0
  128.7247   60.1130   -2.3818 N   0  0  0  0  0  0  0  0  0  0  0  0
  128.3500   61.3951   -2.1988 C   0  0  0  0  0  0  0  0  0  0  0  0
  129.1413   62.3237   -1.6233 N   0  0  0  0  0  0  0  0  0  0  0  0
  130.3903   62.0144   -1.1815 C   0  0  0  0  0  0  0  0  0  0  0  0
  130.8688   60.6307   -1.3481 C   0  0  0  0  0  0  0  0  0  0  0  0
  129.9423   59.6652   -1.9920 C   0  0  0  0  0  0  0  0  0  0  0  0
  130.3064   58.3743   -2.1790 N   0  0  0  0  0  0  0  0  0  0  0  0
  132.1130   60.5861   -0.8421 N   0  0  0  0  0  0  0  0  0  0  0  0
  132.4078   61.8293   -0.3873 C   0  0  0  0  0  0  0  0  0  0  0  0
  131.3859   62.6857   -0.5851 N   0  0  0  0  0  0  0  0  0  0  0  0
  2  1  1  1  0  0  0
  2  3  1  0  0  0  0
  2  5  1  0  0  0  0
  3  4  1  0  0  0  0
  3 16  1  0  0  0  0
  5  6  1  0  0  0  0
  6  7  1  0  0  0  0
  7  8  1  0  0  0  0
  9  8  1  6  0  0  0
  9 10  1  0  0  0  0
  9 11  1  0  0  0  0
 10 15  1  0  0  0  0
 11 12  1  1  0  0  0
 11 13  1  0  0  0  0
 13 14  1  1  0  0  0
 13 15  1  0  0  0  0
 15 26  1  6  0  0  0
 17 18  2  0  0  0  0
 17 22  1  0  0  0  0
 18 19  1  0  0  0  0
 19 20  2  0  0  0  0
 20 21  1  0  0  0  0
 20 26  1  0  0  0  0
 21 22  2  0  0  0  0
 21 24  1  0  0  0  0
 22 23  1  0  0  0  0
 24 25  2  0  0  0  0
 25 26  1  0  0  0  0
M  END
>  <CHROM.1>
-163.31932979,-87.59230476,70.75106078,119.14238808,-81.70582639,166.93864533
18.53462096,129.48349442,65.02044366,-1.94754050,-2.00277399,0.42911897,3.13031086

>  <Name>
ligand

>  <RI>
0

>  <Rbt.Current_Directory>
/home/itssahil/PROJECTS/Mol_Feturizer/Test_systems_manuscript/rnas/3npn

>  <Rbt.Executable>
rbdock ($Id: //depot/dev/client3/rdock/2013.1/src/exe/rbdock.cxx#4 $)

>  <Rbt.Library>
libRbt.so (2013.1, Build901 2013/11/27)

>  <Rbt.Parameter_File>
/export/apps/rDock/src/rDock_2013.1_src/data/scripts/dock_solv.prm

>  <Rbt.Receptor>
prm/pocket_docking_2.prm

>  <SCORE>
-27.465

>  <SCORE.INTER>
-29.7198

>  <SCORE.INTER.CONST>
1

>  <SCORE.INTER.POLAR>
0

>  <SCORE.INTER.ROT>
7

>  <SCORE.INTER.SOLV>
15.0104

>  <SCORE.INTER.VDW>
-33.0833

>  <SCORE.INTER.norm>
-1.14307

>  <SCORE.INTRA>
2.24182

>  <SCORE.INTRA.DIHEDRAL>
4.93448

>  <SCORE.INTRA.DIHEDRAL.0>
4.37896

>  <SCORE.INTRA.POLAR>
0

>  <SCORE.INTRA.POLAR.0>
0

>  <SCORE.INTRA.REPUL>
0

>  <SCORE.INTRA.REPUL.0>
0

>  <SCORE.INTRA.SOLV>
0.83296

>  <SCORE.INTRA.SOLV.lig_0>
-50.5538

>  <SCORE.INTRA.VDW>
-0.6419

>  <SCORE.INTRA.VDW.0>
-1.30673

>  <SCORE.INTRA.norm>
0.0862238

>  <SCORE.RESTR>
0.013032

>  <SCORE.RESTR.CAVITY>
0.013032

>  <SCORE.RESTR.norm>
0.000501229

>  <SCORE.SYSTEM>
0

>  <SCORE.SYSTEM.CONST>
0

>  <SCORE.SYSTEM.DIHEDRAL>
0

>  <SCORE.SYSTEM.SOLV>
0

>  <SCORE.SYSTEM.norm>
0

>  <SCORE.heavy>
26

>  <SCORE.norm>
-1.05635

>  <RMSD>
2.025

$$$$
ligand
 OpenBabel02271912153D
libRbt.so/2013.1/901 2013/11/27
 26 28  0  0  0  0  0  0  0  0999 V2000
  126.5018   69.2438   -2.2203 N   0  0  0  0  0  0  0  0  0  0  0  0
  127.3561   69.4790   -3.4221 C   0  0  2  0  0  0  0  0  0  0  0  0
  126.9595   70.7521   -4.1127 C   0  0  0  0  0  0  0  0  0  0  0  0
  127.5007   71.1058   -5.1594 O   0  0  0  0  0  0  0  0  0  0  0  0
  127.2326   68.3095   -4.3951 C   0  0  0  0  0  0  0  0  0  0  0  0
  128.0218   67.0774   -3.9631 C   0  0  0  0  0  0  0  0  0  0  0  0
  127.3577   66.4324   -2.4631 S   0  0  0  0  0  0  0  0  0  0  0  0
  128.5882   65.2657   -1.9773 C   0  0  0  0  0  0  0  0  0  0  0  0
  129.6384   65.8995   -1.0668 C   0  0  1  0  0  0  0  0  0  0  0  0
  130.1263   64.9481   -0.1185 O   0  0  0  0  0  0  0  0  0  0  0  0
  130.8284   66.3740   -1.8851 C   0  0  1  0  0  0  0  0  0  0  0  0
  131.1542   67.7224   -1.5345 O   0  0  0  0  0  0  0  0  0  0  0  0
  131.9683   65.4273   -1.5533 C   0  0  1  0  0  0  0  0  0  0  0  0
  133.1283   66.1403   -1.1102 O   0  0  0  0  0  0  0  0  0  0  0  0
  131.4567   64.5233   -0.4378 C   0  0  2  0  0  0  0  0  0  0  0  0
  126.0870   71.4791   -3.6400 O   0  0  0  0  0  0  0  0  0  0  0  0
  128.6269   60.4575   -2.2884 N   0  0  0  0  0  0  0  0  0  0  0  0
  128.2394   61.7176   -2.0060 C   0  0  0  0  0  0  0  0  0  0  0  0
  129.0784   62.6629   -1.5345 N   0  0  0  0  0  0  0  0  0  0  0  0
  130.3928   62.3944   -1.3088 C   0  0  0  0  0  0  0  0  0  0  0  0
  130.8889   61.0368   -1.5950 C   0  0  0  0  0  0  0  0  0  0  0  0
  129.9071   60.0508   -2.1135 C   0  0  0  0  0  0  0  0  0  0  0  0
  130.2836   58.7815   -2.3985 N   0  0  0  0  0  0  0  0  0  0  0  0
  132.1993   61.0308   -1.2964 N   0  0  0  0  0  0  0  0  0  0  0  0
  132.5175   62.2727   -0.8543 C   0  0  0  0  0  0  0  0  0  0  0  0
  131.4461   63.0908   -0.8578 N   0  0  0  0  0  0  0  0  0  0  0  0
  2  1  1  1  0  0  0
  2  3  1  0  0  0  0
  2  5  1  0  0  0  0
  3  4  1  0  0  0  0
  3 16  1  0  0  0  0
  5  6  1  0  0  0  0
  6  7  1  0  0  0  0
  7  8  1  0  0  0  0
  9  8  1  6  0  0  0
  9 10  1  0  0  0  0
  9 11  1  0  0  0  0
 10 15  1  0  0  0  0
 11 12  1  1  0  0  0
 11 13  1  0  0  0  0
 13 14  1  1  0  0  0
 13 15  1  0  0  0  0
 15 26  1  6  0  0  0
 17 18  2  0  0  0  0
 17 22  1  0  0  0  0
 18 19  1  0  0  0  0
 19 20  2  0  0  0  0
 20 21  1  0  0  0  0
 20 26  1  0  0  0  0
 21 22  2  0  0  0  0
 21 24  1  0  0  0  0
 22 23  1  0  0  0  0
 24 25  2  0  0  0  0
 25 26  1  0  0  0  0
M  END
>  <CHROM.1>
-176.92006342,-76.82235145,64.82780266,-168.61132365,91.10476666,147.18990060
20.71259839,129.39747651,65.33838781,-2.15876913,2.00012681,-0.42816983,-0.06449536

>  <Name>
ligand

>  <RI>
0

>  <Rbt.Current_Directory>
/home/itssahil/PROJECTS/Mol_Feturizer/Test_systems_manuscript/rnas/3npn

>  <Rbt.Executable>
rbdock ($Id: //depot/dev/client3/rdock/2013.1/src/exe/rbdock.cxx#4 $)

>  <Rbt.Library>
libRbt.so (2013.1, Build901 2013/11/27)

>  <Rbt.Parameter_File>
/export/apps/rDock/src/rDock_2013.1_src/data/scripts/dock_solv.prm

>  <Rbt.Receptor>
prm/pocket_docking_4.prm

>  <SCORE>
-26.4324

>  <SCORE.INTER>
-28.5022

>  <SCORE.INTER.CONST>
1

>  <SCORE.INTER.POLAR>
0

>  <SCORE.INTER.ROT>
7

>  <SCORE.INTER.SOLV>
19.1313

>  <SCORE.INTER.VDW>
-33.6452

>  <SCORE.INTER.norm>
-1.09624

>  <SCORE.INTRA>
2.06978

>  <SCORE.INTRA.DIHEDRAL>
3.91672

>  <SCORE.INTRA.DIHEDRAL.0>
4.37896

>  <SCORE.INTRA.POLAR>
0

>  <SCORE.INTRA.POLAR.0>
0

>  <SCORE.INTRA.REPUL>
0

>  <SCORE.INTRA.REPUL.0>
0

>  <SCORE.INTRA.SOLV>
1.25454

>  <SCORE.INTRA.SOLV.lig_0>
-50.5538

>  <SCORE.INTRA.VDW>
-0.515845

>  <SCORE.INTRA.VDW.0>
-1.30673

>  <SCORE.INTRA.norm>
0.079607

>  <SCORE.RESTR>
0

>  <SCORE.RESTR.CAVITY>
0

>  <SCORE.RESTR.norm>
0

>  <SCORE.SYSTEM>
0

>  <SCORE.SYSTEM.CONST>
0

>  <SCORE.SYSTEM.DIHEDRAL>
0

>  <SCORE.SYSTEM.SOLV>
0

>  <SCORE.SYSTEM.norm>
0

>  <SCORE.heavy>
26

>  <SCORE.norm>
-1.01663

>  <RMSD>
2.037

$$$$
ligand
 OpenBabel02271912153D
libRbt.so/2013.1/901 2013/11/27
 26 28  0  0  0  0  0  0  0  0999 V2000
  128.5631   70.3368   -2.5503 N   0  0  0  0  0  0  0  0  0  0  0  0
  127.6855   69.2049   -2.9720 C   0  0  2  0  0  0  0  0  0  0  0  0
  126.2605   69.4632   -2.5747 C   0  0  0  0  0  0  0  0  0  0  0  0
  125.4563   68.5410   -2.4469 O   0  0  0  0  0  0  0  0  0  0  0  0
  128.1644   67.9010   -2.3393 C   0  0  0  0  0  0  0  0  0  0  0  0
  127.6157   66.6563   -3.0301 C   0  0  0  0  0  0  0  0  0  0  0  0
  128.1384   65.2098   -2.1689 S   0  0  0  0  0  0  0  0  0  0  0  0
  129.8838   65.2304   -2.4228 C   0  0  0  0  0  0  0  0  0  0  0  0
  130.6340   65.6279   -1.1528 C   0  0  1  0  0  0  0  0  0  0  0  0
  130.5191   64.6087   -0.1575 O   0  0  0  0  0  0  0  0  0  0  0  0
  132.1143   65.8065   -1.4489 C   0  0  1  0  0  0  0  0  0  0  0  0
  132.5709   67.0530   -0.9150 O   0  0  0  0  0  0  0  0  0  0  0  0
  132.8173   64.6335   -0.7891 C   0  0  1  0  0  0  0  0  0  0  0  0
  133.8565   65.0747    0.0918 O   0  0  0  0  0  0  0  0  0  0  0  0
  131.7477   63.8890    0.0014 C   0  0  2  0  0  0  0  0  0  0  0  0
  125.8603   70.6095   -2.3767 O   0  0  0  0  0  0  0  0  0  0  0  0
  128.6317   60.3634   -2.4122 N   0  0  0  0  0  0  0  0  0  0  0  0
  128.3999   61.6592   -2.1206 C   0  0  0  0  0  0  0  0  0  0  0  0
  129.2959   62.4499   -1.4946 N   0  0  0  0  0  0  0  0  0  0  0  0
  130.5115   61.9758   -1.1097 C   0  0  0  0  0  0  0  0  0  0  0  0
  130.8358   60.5671   -1.3953 C   0  0  0  0  0  0  0  0  0  0  0  0
  129.8004   59.7597   -2.0890 C   0  0  0  0  0  0  0  0  0  0  0  0
  130.0205   58.4566   -2.3849 N   0  0  0  0  0  0  0  0  0  0  0  0
  132.0762   60.3507   -0.9256 N   0  0  0  0  0  0  0  0  0  0  0  0
  132.5104   61.5154   -0.3830 C   0  0  0  0  0  0  0  0  0  0  0  0
  131.5833   62.4882   -0.4880 N   0  0  0  0  0  0  0  0  0  0  0  0
  2  1  1  1  0  0  0
  2  3  1  0  0  0  0
  2  5  1  0  0  0  0
  3  4  1  0  0  0  0
  3 16  1  0  0  0  0
  5  6  1  0  0  0  0
  6  7  1  0  0  0  0
  7  8  1  0  0  0  0
  9  8  1  6  0  0  0
  9 10  1  0  0  0  0
  9 11  1  0  0  0  0
 10 15  1  0  0  0  0
 11 12  1  1  0  0  0
 11 13  1  0  0  0  0
 13 14  1  1  0  0  0
 13 15  1  0  0  0  0
 15 26  1  6  0  0  0
 17 18  2  0  0  0  0
 17 22  1  0  0  0  0
 18 19  1  0  0  0  0
 19 20  2  0  0  0  0
 20 21  1  0  0  0  0
 20 26  1  0  0  0  0
 21 22  2  0  0  0  0
 21 24  1  0  0  0  0
 22 23  1  0  0  0  0
 24 25  2  0  0  0  0
 25 26  1  0  0  0  0
M  END
>  <CHROM.1>
-157.71543098,-162.31084155,-176.38295193,-66.01575293,106.60408641,68.48124245
6.19123697,129.73085549,64.74290933,-1.63675720,-2.04926196,0.36508423,-3.11150474

>  <Name>
ligand

>  <RI>
0

>  <Rbt.Current_Directory>
/home/itssahil/PROJECTS/Mol_Feturizer/Test_systems_manuscript/rnas/3npn

>  <Rbt.Executable>
rbdock ($Id: //depot/dev/client3/rdock/2013.1/src/exe/rbdock.cxx#4 $)

>  <Rbt.Library>
libRbt.so (2013.1, Build901 2013/11/27)

>  <Rbt.Parameter_File>
/export/apps/rDock/src/rDock_2013.1_src/data/scripts/dock_solv.prm

>  <Rbt.Receptor>
prm/pocket_docking_3.prm

>  <SCORE>
-26.9345

>  <SCORE.INTER>
-26.7102

>  <SCORE.INTER.CONST>
1

>  <SCORE.INTER.POLAR>
0

>  <SCORE.INTER.ROT>
7

>  <SCORE.INTER.SOLV>
17.1262

>  <SCORE.INTER.VDW>
-31.7822

>  <SCORE.INTER.norm>
-1.02732

>  <SCORE.INTRA>
-0.224233

>  <SCORE.INTRA.DIHEDRAL>
1.89141

>  <SCORE.INTRA.DIHEDRAL.0>
4.37896

>  <SCORE.INTRA.POLAR>
0

>  <SCORE.INTRA.POLAR.0>
0

>  <SCORE.INTRA.REPUL>
0

>  <SCORE.INTRA.REPUL.0>
0

>  <SCORE.INTRA.SOLV>
-0.767013

>  <SCORE.INTRA.SOLV.lig_0>
-50.5538

>  <SCORE.INTRA.VDW>
-0.786429

>  <SCORE.INTRA.VDW.0>
-1.30673

>  <SCORE.INTRA.norm>
-0.00862433

>  <SCORE.RESTR>
0

>  <SCORE.RESTR.CAVITY>
0

>  <SCORE.RESTR.norm>
0

>  <SCORE.SYSTEM>
0

>  <SCORE.SYSTEM.CONST>
0

>  <SCORE.SYSTEM.DIHEDRAL>
0

>  <SCORE.SYSTEM.SOLV>
0

>  <SCORE.SYSTEM.norm>
0

>  <SCORE.heavy>
26

>  <SCORE.norm>
-1.03594

>  <RMSD>
2.038

$$$$
ligand
 OpenBabel02271912153D
libRbt.so/2013.1/901 2013/11/27
 26 28  0  0  0  0  0  0  0  0999 V2000
  126.4095   70.4882   -2.4473 N   0  0  0  0  0  0  0  0  0  0  0  0
  127.1528   69.6929   -3.4693 C   0  0  2  0  0  0  0  0  0  0  0  0
  127.2155   70.4340   -4.7740 C   0  0  0  0  0  0  0  0  0  0  0  0
  128.1913   71.1219   -5.0710 O   0  0  0  0  0  0  0  0  0  0  0  0
  126.4765   68.3411   -3.6810 C   0  0  0  0  0  0  0  0  0  0  0  0
  127.0245   67.2423   -2.7756 C   0  0  0  0  0  0  0  0  0  0  0  0
  128.3404   66.3946   -3.5861 S   0  0  0  0  0  0  0  0  0  0  0  0
  128.8370   65.2184   -2.3691 C   0  0  0  0  0  0  0  0  0  0  0  0
  129.6755   65.8655   -1.2682 C   0  0  1  0  0  0  0  0  0  0  0  0
  129.9082   64.9434   -0.2014 O   0  0  0  0  0  0  0  0  0  0  0  0
  131.0330   66.2788   -1.8134 C   0  0  1  0  0  0  0  0  0  0  0  0
  131.3139   67.6328   -1.4462 O   0  0  0  0  0  0  0  0  0  0  0  0
  132.0392   65.3212   -1.2002 C   0  0  1  0  0  0  0  0  0  0  0  0
  133.0920   66.0255   -0.5325 O   0  0  0  0  0  0  0  0  0  0  0  0
  131.2624   64.4759   -0.1975 C   0  0  2  0  0  0  0  0  0  0  0  0
  126.2836   70.3778   -5.5750 O   0  0  0  0  0  0  0  0  0  0  0  0
  128.7023   60.3481   -2.2883 N   0  0  0  0  0  0  0  0  0  0  0  0
  128.2884   61.6196   -2.1157 C   0  0  0  0  0  0  0  0  0  0  0  0
  129.0566   62.5804   -1.5621 N   0  0  0  0  0  0  0  0  0  0  0  0
  130.3205   62.3172   -1.1333 C   0  0  0  0  0  0  0  0  0  0  0  0
  130.8415   60.9478   -1.2896 C   0  0  0  0  0  0  0  0  0  0  0  0
  129.9387   59.9449   -1.9094 C   0  0  0  0  0  0  0  0  0  0  0  0
  130.3421   58.6641   -2.0857 N   0  0  0  0  0  0  0  0  0  0  0  0
  132.0930   60.9497   -0.7997 N   0  0  0  0  0  0  0  0  0  0  0  0
  132.3532   62.2073   -0.3639 C   0  0  0  0  0  0  0  0  0  0  0  0
  131.3015   63.0278   -0.5584 N   0  0  0  0  0  0  0  0  0  0  0  0
  2  1  1  1  0  0  0
  2  3  1  0  0  0  0
  2  5  1  0  0  0  0
  3  4  1  0  0  0  0
  3 16  1  0  0  0  0
  5  6  1  0  0  0  0
  6  7  1  0  0  0  0
  7  8  1  0  0  0  0
  9  8  1  6  0  0  0
  9 10  1  0  0  0  0
  9 11  1  0  0  0  0
 10 15  1  0  0  0  0
 11 12  1  1  0  0  0
 11 13  1  0  0  0  0
 13 14  1  1  0  0  0
 13 15  1  0  0  0  0
 15 26  1  6  0  0  0
 17 18  2  0  0  0  0
 17 22  1  0  0  0  0
 18 19  1  0  0  0  0
 19 20  2  0  0  0  0
 20 21  1  0  0  0  0
 20 26  1  0  0  0  0
 21 22  2  0  0  0  0
 21 24  1  0  0  0  0
 22 23  1  0  0  0  0
 24 25  2  0  0  0  0
 25 26  1  0  0  0  0
M  END
>  <CHROM.1>
95.69033667,-91.26233339,-91.55984058,178.76442421,-77.00380754,171.86926538
16.08959609,129.44909134,65.28857574,-2.19285727,2.01185753,-0.55019724,-0.08281063

>  <Name>
ligand

>  <RI>
0

>  <Rbt.Current_Directory>
/home/itssahil/PROJECTS/Mol_Feturizer/Test_systems_manuscript/rnas/3npn

>  <Rbt.Executable>
rbdock ($Id: //depot/dev/client3/rdock/2013.1/src/exe/rbdock.cxx#4 $)

>  <Rbt.Library>
libRbt.so (2013.1, Build901 2013/11/27)

>  <Rbt.Parameter_File>
/export/apps/rDock/src/rDock_2013.1_src/data/scripts/dock_solv.prm

>  <Rbt.Receptor>
prm/pocket_docking_4.prm

>  <SCORE>
-26.767

>  <SCORE.INTER>
-28.4159

>  <SCORE.INTER.CONST>
1

>  <SCORE.INTER.POLAR>
0

>  <SCORE.INTER.ROT>
7

>  <SCORE.INTER.SOLV>
19.5232

>  <SCORE.INTER.VDW>
-33.7183

>  <SCORE.INTER.norm>
-1.09292

>  <SCORE.INTRA>
1.64891

>  <SCORE.INTRA.DIHEDRAL>
5.05087

>  <SCORE.INTRA.DIHEDRAL.0>
4.37896

>  <SCORE.INTRA.POLAR>
0

>  <SCORE.INTRA.POLAR.0>
0

>  <SCORE.INTRA.REPUL>
0

>  <SCORE.INTRA.REPUL.0>
0

>  <SCORE.INTRA.SOLV>
-0.322299

>  <SCORE.INTRA.SOLV.lig_0>
-50.5538

>  <SCORE.INTRA.VDW>
-0.715382

>  <SCORE.INTRA.VDW.0>
-1.30673

>  <SCORE.INTRA.norm>
0.0634194

>  <SCORE.RESTR>
0

>  <SCORE.RESTR.CAVITY>
0

>  <SCORE.RESTR.norm>
0

>  <SCORE.SYSTEM>
0

>  <SCORE.SYSTEM.CONST>
0

>  <SCORE.SYSTEM.DIHEDRAL>
0

>  <SCORE.SYSTEM.SOLV>
0

>  <SCORE.SYSTEM.norm>
0

>  <SCORE.heavy>
26

>  <SCORE.norm>
-1.0295

>  <RMSD>
2.041

$$$$
ligand
 OpenBabel02271912153D
libRbt.so/2013.1/901 2013/11/27
 26 28  0  0  0  0  0  0  0  0999 V2000
  125.6499   71.0670   -2.7568 N   0  0  0  0  0  0  0  0  0  0  0  0
  126.8786   70.2753   -3.0612 C   0  0  2  0  0  0  0  0  0  0  0  0
  127.2530   70.4143   -4.5089 C   0  0  0  0  0  0  0  0  0  0  0  0
  126.4032   70.3549   -5.3965 O   0  0  0  0  0  0  0  0  0  0  0  0
  126.6533   68.8023   -2.7304 C   0  0  0  0  0  0  0  0  0  0  0  0
  127.9264   67.9648   -2.8024 C   0  0  0  0  0  0  0  0  0  0  0  0
  127.5724   66.2927   -2.3708 S   0  0  0  0  0  0  0  0  0  0  0  0
  129.1691   65.5448   -2.4202 C   0  0  0  0  0  0  0  0  0  0  0  0
  130.0728   66.0699   -1.3061 C   0  0  1  0  0  0  0  0  0  0  0  0
  130.1961   65.1060   -0.2581 O   0  0  0  0  0  0  0  0  0  0  0  0
  131.4700   66.3367   -1.8422 C   0  0  1  0  0  0  0  0  0  0  0  0
  131.9022   67.6423   -1.4475 O   0  0  0  0  0  0  0  0  0  0  0  0
  132.3589   65.2586   -1.2481 C   0  0  1  0  0  0  0  0  0  0  0  0
  133.4832   65.8249   -0.5658 O   0  0  0  0  0  0  0  0  0  0  0  0
  131.4882   64.4873   -0.2631 C   0  0  2  0  0  0  0  0  0  0  0  0
  128.4252   70.5816   -4.8425 O   0  0  0  0  0  0  0  0  0  0  0  0
  128.4359   60.6949   -2.3284 N   0  0  0  0  0  0  0  0  0  0  0  0
  128.1631   61.9979   -2.1147 C   0  0  0  0  0  0  0  0  0  0  0  0
  129.0473   62.8613   -1.5740 N   0  0  0  0  0  0  0  0  0  0  0  0
  130.2926   62.4595   -1.2018 C   0  0  0  0  0  0  0  0  0  0  0  0
  130.6624   61.0478   -1.4055 C   0  0  0  0  0  0  0  0  0  0  0  0
  129.6375   60.1579   -2.0076 C   0  0  0  0  0  0  0  0  0  0  0  0
  129.8988   58.8469   -2.2248 N   0  0  0  0  0  0  0  0  0  0  0  0
  131.9251   60.9095   -0.9665 N   0  0  0  0  0  0  0  0  0  0  0  0
  132.3307   62.1231   -0.5173 C   0  0  0  0  0  0  0  0  0  0  0  0
  131.3631   63.0517   -0.6532 N   0  0  0  0  0  0  0  0  0  0  0  0
  2  1  1  6  0  0  0
  2  3  1  0  0  0  0
  2  5  1  0  0  0  0
  3  4  1  0  0  0  0
  3 16  1  0  0  0  0
  5  6  1  0  0  0  0
  6  7  1  0  0  0  0
  7  8  1  0  0  0  0
  9  8  1  6  0  0  0
  9 10  1  0  0  0  0
  9 11  1  0  0  0  0
 10 15  1  0  0  0  0
 11 12  1  1  0  0  0
 11 13  1  0  0  0  0
 13 14  1  1  0  0  0
 13 15  1  0  0  0  0
 15 26  1  6  0  0  0
 17 18  2  0  0  0  0
 17 22  1  0  0  0  0
 18 19  1  0  0  0  0
 19 20  2  0  0  0  0
 20 21  1  0  0  0  0
 20 26  1  0  0  0  0
 21 22  2  0  0  0  0
 21 24  1  0  0  0  0
 22 23  1  0  0  0  0
 24 25  2  0  0  0  0
 25 26  1  0  0  0  0
M  END
>  <CHROM.1>
-43.66436088,-170.81138757,178.73569399,-176.61039507,67.65512734,104.17231852
13.66708317,129.46471961,65.41320149,-2.06896021,1.99929892,-0.41979293,-0.09563259

>  <Name>
ligand

>  <RI>
0

>  <Rbt.Current_Directory>
/home/itssahil/PROJECTS/Mol_Feturizer/Test_systems_manuscript/rnas/3npn

>  <Rbt.Executable>
rbdock ($Id: //depot/dev/client3/rdock/2013.1/src/exe/rbdock.cxx#4 $)

>  <Rbt.Library>
libRbt.so (2013.1, Build901 2013/11/27)

>  <Rbt.Parameter_File>
/export/apps/rDock/src/rDock_2013.1_src/data/scripts/dock_solv.prm

>  <Rbt.Receptor>
prm/pocket_docking_3.prm

>  <SCORE>
-27.2112

>  <SCORE.INTER>
-27.1903

>  <SCORE.INTER.CONST>
1

>  <SCORE.INTER.POLAR>
0

>  <SCORE.INTER.ROT>
7

>  <SCORE.INTER.SOLV>
23.4315

>  <SCORE.INTER.VDW>
-34.2041

>  <SCORE.INTER.norm>
-1.04578

>  <SCORE.INTRA>
-0.020817

>  <SCORE.INTRA.DIHEDRAL>
3.11792

>  <SCORE.INTRA.DIHEDRAL.0>
4.37896

>  <SCORE.INTRA.POLAR>
0

>  <SCORE.INTRA.POLAR.0>
0

>  <SCORE.INTRA.REPUL>
0

>  <SCORE.INTRA.REPUL.0>
0

>  <SCORE.INTRA.SOLV>
-0.874995

>  <SCORE.INTRA.SOLV.lig_0>
-50.5538

>  <SCORE.INTRA.VDW>
-1.14228

>  <SCORE.INTRA.VDW.0>
-1.30673

>  <SCORE.INTRA.norm>
-0.000800655

>  <SCORE.RESTR>
0

>  <SCORE.RESTR.CAVITY>
0

>  <SCORE.RESTR.norm>
0

>  <SCORE.SYSTEM>
0

>  <SCORE.SYSTEM.CONST>
0

>  <SCORE.SYSTEM.DIHEDRAL>
0

>  <SCORE.SYSTEM.SOLV>
0

>  <SCORE.SYSTEM.norm>
0

>  <SCORE.heavy>
26

>  <SCORE.norm>
-1.04658

>  <RMSD>
2.047

$$$$
ligand
 OpenBabel02271912153D
libRbt.so/2013.1/901 2013/11/27
 26 28  0  0  0  0  0  0  0  0999 V2000
  126.1049   69.4758   -2.3279 N   0  0  0  0  0  0  0  0  0  0  0  0
  127.1711   69.2837   -3.3553 C   0  0  2  0  0  0  0  0  0  0  0  0
  127.0795   70.3413   -4.4175 C   0  0  0  0  0  0  0  0  0  0  0  0
  126.2693   70.2519   -5.3391 O   0  0  0  0  0  0  0  0  0  0  0  0
  127.0454   67.9038   -3.9954 C   0  0  0  0  0  0  0  0  0  0  0  0
  127.4550   66.7661   -3.0651 C   0  0  0  0  0  0  0  0  0  0  0  0
  129.1958   66.8091   -2.7913 S   0  0  0  0  0  0  0  0  0  0  0  0
  129.4356   65.4615   -1.6789 C   0  0  0  0  0  0  0  0  0  0  0  0
  130.5149   65.7704   -0.6428 C   0  0  1  0  0  0  0  0  0  0  0  0
  130.6777   64.6747    0.2602 O   0  0  0  0  0  0  0  0  0  0  0  0
  131.8534   65.9959   -1.3270 C   0  0  1  0  0  0  0  0  0  0  0  0
  132.4496   67.2040   -0.8450 O   0  0  0  0  0  0  0  0  0  0  0  0
  132.7061   64.7864   -0.9866 C   0  0  1  0  0  0  0  0  0  0  0  0
  133.9536   65.1741   -0.4003 O   0  0  0  0  0  0  0  0  0  0  0  0
  131.8968   63.9649    0.0101 C   0  0  2  0  0  0  0  0  0  0  0  0
  127.8230   71.3210   -4.3958 O   0  0  0  0  0  0  0  0  0  0  0  0
  128.3691   60.7990   -2.3343 N   0  0  0  0  0  0  0  0  0  0  0  0
  128.2585   62.0940   -1.9761 C   0  0  0  0  0  0  0  0  0  0  0  0
  129.2511   62.7852   -1.3788 N   0  0  0  0  0  0  0  0  0  0  0  0
  130.4473   62.2034   -1.0938 C   0  0  0  0  0  0  0  0  0  0  0  0
  130.6414   60.7885   -1.4568 C   0  0  0  0  0  0  0  0  0  0  0  0
  129.5047   60.0943   -2.1131 C   0  0  0  0  0  0  0  0  0  0  0  0
  129.6028   58.7929   -2.4752 N   0  0  0  0  0  0  0  0  0  0  0  0
  131.8879   60.4576   -1.0785 N   0  0  0  0  0  0  0  0  0  0  0  0
  132.4452   61.5601   -0.5190 C   0  0  0  0  0  0  0  0  0  0  0  0
  131.5927   62.6043   -0.5235 N   0  0  0  0  0  0  0  0  0  0  0  0
  2  1  1  1  0  0  0
  2  3  1  0  0  0  0
  2  5  1  0  0  0  0
  3  4  1  0  0  0  0
  3 16  1  0  0  0  0
  5  6  1  0  0  0  0
  6  7  1  0  0  0  0
  7  8  1  0  0  0  0
  9  8  1  6  0  0  0
  9 10  1  0  0  0  0
  9 11  1  0  0  0  0
 10 15  1  0  0  0  0
 11 12  1  1  0  0  0
 11 13  1  0  0  0  0
 13 14  1  1  0  0  0
 13 15  1  0  0  0  0
 15 26  1  6  0  0  0
 17 18  2  0  0  0  0
 17 22  1  0  0  0  0
 18 19  1  0  0  0  0
 19 20  2  0  0  0  0
 20 21  1  0  0  0  0
 20 26  1  0  0  0  0
 21 22  2  0  0  0  0
 21 24  1  0  0  0  0
 22 23  1  0  0  0  0
 24 25  2  0  0  0  0
 25 26  1  0  0  0  0
M  END
>  <CHROM.1>
-80.76610060,-71.78793574,-69.37859137,178.58772235,-143.42551442,179.08411538
19.85668219,129.72733401,65.11731756,-1.98859332,2.04167154,-0.50459724,-0.08069975

>  <Name>
ligand

>  <RI>
0

>  <Rbt.Current_Directory>
/home/itssahil/PROJECTS/Mol_Feturizer/Test_systems_manuscript/rnas/3npn

>  <Rbt.Executable>
rbdock ($Id: //depot/dev/client3/rdock/2013.1/src/exe/rbdock.cxx#4 $)

>  <Rbt.Library>
libRbt.so (2013.1, Build901 2013/11/27)

>  <Rbt.Parameter_File>
/export/apps/rDock/src/rDock_2013.1_src/data/scripts/dock_solv.prm

>  <Rbt.Receptor>
prm/pocket_docking_4.prm

>  <SCORE>
-23.9618

>  <SCORE.INTER>
-24.331

>  <SCORE.INTER.CONST>
1

>  <SCORE.INTER.POLAR>
0

>  <SCORE.INTER.ROT>
7

>  <SCORE.INTER.SOLV>
21.8762

>  <SCORE.INTER.VDW>
-31.7794

>  <SCORE.INTER.norm>
-0.935806

>  <SCORE.INTRA>
0.369151

>  <SCORE.INTRA.DIHEDRAL>
0.770397

>  <SCORE.INTRA.DIHEDRAL.0>
4.37896

>  <SCORE.INTRA.POLAR>
0

>  <SCORE.INTRA.POLAR.0>
0

>  <SCORE.INTRA.REPUL>
0

>  <SCORE.INTRA.REPUL.0>
0

>  <SCORE.INTRA.SOLV>
0.220838

>  <SCORE.INTRA.SOLV.lig_0>
-50.5538

>  <SCORE.INTRA.VDW>
-0.126467

>  <SCORE.INTRA.VDW.0>
-1.30673

>  <SCORE.INTRA.norm>
0.0141981

>  <SCORE.RESTR>
0

>  <SCORE.RESTR.CAVITY>
0

>  <SCORE.RESTR.norm>
0

>  <SCORE.SYSTEM>
0

>  <SCORE.SYSTEM.CONST>
0

>  <SCORE.SYSTEM.DIHEDRAL>
0

>  <SCORE.SYSTEM.SOLV>
0

>  <SCORE.SYSTEM.norm>
0

>  <SCORE.heavy>
26

>  <SCORE.norm>
-0.921608

>  <RMSD>
2.049

$$$$
ligand
 OpenBabel02271912153D
libRbt.so/2013.1/901 2013/11/27
 26 28  0  0  0  0  0  0  0  0999 V2000
  126.0853   69.3482   -2.4044 N   0  0  0  0  0  0  0  0  0  0  0  0
  127.1711   69.2278   -3.4221 C   0  0  2  0  0  0  0  0  0  0  0  0
  127.0014   70.2576   -4.5019 C   0  0  0  0  0  0  0  0  0  0  0  0
  126.8280   71.4448   -4.2300 O   0  0  0  0  0  0  0  0  0  0  0  0
  127.1632   67.8323   -4.0404 C   0  0  0  0  0  0  0  0  0  0  0  0
  127.5652   66.7344   -3.0604 C   0  0  0  0  0  0  0  0  0  0  0  0
  129.2443   66.9506   -2.5695 S   0  0  0  0  0  0  0  0  0  0  0  0
  129.5328   65.5229   -1.5746 C   0  0  0  0  0  0  0  0  0  0  0  0
  130.6121   65.7763   -0.5236 C   0  0  1  0  0  0  0  0  0  0  0  0
  130.7453   64.6503    0.3464 O   0  0  0  0  0  0  0  0  0  0  0  0
  131.9595   65.9928   -1.1932 C   0  0  1  0  0  0  0  0  0  0  0  0
  132.5790   67.1722   -0.6713 O   0  0  0  0  0  0  0  0  0  0  0  0
  132.7833   64.7550   -0.8852 C   0  0  1  0  0  0  0  0  0  0  0  0
  134.0353   65.0971   -0.2804 O   0  0  0  0  0  0  0  0  0  0  0  0
  131.9501   63.9217    0.0815 C   0  0  2  0  0  0  0  0  0  0  0  0
  127.0221   69.9343   -5.6886 O   0  0  0  0  0  0  0  0  0  0  0  0
  128.3579   60.8983   -2.3515 N   0  0  0  0  0  0  0  0  0  0  0  0
  128.2720   62.1828   -1.9508 C   0  0  0  0  0  0  0  0  0  0  0  0
  129.2789   62.8360   -1.3350 N   0  0  0  0  0  0  0  0  0  0  0  0
  130.4653   62.2237   -1.0738 C   0  0  0  0  0  0  0  0  0  0  0  0
  130.6324   60.8182   -1.4835 C   0  0  0  0  0  0  0  0  0  0  0  0
  129.4811   60.1664   -2.1578 C   0  0  0  0  0  0  0  0  0  0  0  0
  129.5544   58.8760   -2.5625 N   0  0  0  0  0  0  0  0  0  0  0  0
  131.8739   60.4526   -1.1210 N   0  0  0  0  0  0  0  0  0  0  0  0
  132.4530   61.5260   -0.5279 C   0  0  0  0  0  0  0  0  0  0  0  0
  131.6195   62.5850   -0.4951 N   0  0  0  0  0  0  0  0  0  0  0  0
  2  1  1  1  0  0  0
  2  3  1  0  0  0  0
  2  5  1  0  0  0  0
  3  4  1  0  0  0  0
  3 16  1  0  0  0  0
  5  6  1  0  0  0  0
  6  7  1  0  0  0  0
  7  8  1  0  0  0  0
  9  8  1  6  0  0  0
  9 10  1  0  0  0  0
  9 11  1  0  0  0  0
 10 15  1  0  0  0  0
 11 12  1  1  0  0  0
 11 13  1  0  0  0  0
 13 14  1  1  0  0  0
 13 15  1  0  0  0  0
 15 26  1  6  0  0  0
 17 18  2  0  0  0  0
 17 22  1  0  0  0  0
 18 19  1  0  0  0  0
 19 20  2  0  0  0  0
 20 21  1  0  0  0  0
 20 26  1  0  0  0  0
 21 22  2  0  0  0  0
 21 24  1  0  0  0  0
 22 23  1  0  0  0  0
 24 25  2  0  0  0  0
 25 26  1  0  0  0  0
M  END
>  <CHROM.1>
50.02973082,-67.80604065,-64.95368517,-175.21026777,-152.60768054,174.80455186
19.25922370,129.75303813,65.11549166,-1.95590176,2.07093734,-0.53402315,-0.06402504

>  <Name>
ligand

>  <RI>
0

>  <Rbt.Current_Directory>
/home/itssahil/PROJECTS/Mol_Feturizer/Test_systems_manuscript/rnas/3npn

>  <Rbt.Executable>
rbdock ($Id: //depot/dev/client3/rdock/2013.1/src/exe/rbdock.cxx#4 $)

>  <Rbt.Library>
libRbt.so (2013.1, Build901 2013/11/27)

>  <Rbt.Parameter_File>
/export/apps/rDock/src/rDock_2013.1_src/data/scripts/dock_solv.prm

>  <Rbt.Receptor>
prm/pocket_docking_3.prm

>  <SCORE>
-23.6778

>  <SCORE.INTER>
-24.2994

>  <SCORE.INTER.CONST>
1

>  <SCORE.INTER.POLAR>
0

>  <SCORE.INTER.ROT>
7

>  <SCORE.INTER.SOLV>
22.0704

>  <SCORE.INTER.VDW>
-31.823

>  <SCORE.INTER.norm>
-0.934591

>  <SCORE.INTRA>
0.62154

>  <SCORE.INTRA.DIHEDRAL>
-0.215736

>  <SCORE.INTRA.DIHEDRAL.0>
4.37896

>  <SCORE.INTRA.POLAR>
0

>  <SCORE.INTRA.POLAR.0>
0

>  <SCORE.INTRA.REPUL>
0

>  <SCORE.INTRA.REPUL.0>
0

>  <SCORE.INTRA.SOLV>
0.363871

>  <SCORE.INTRA.SOLV.lig_0>
-50.5538

>  <SCORE.INTRA.VDW>
0.547472

>  <SCORE.INTRA.VDW.0>
-1.30673

>  <SCORE.INTRA.norm>
0.0239054

>  <SCORE.RESTR>
0

>  <SCORE.RESTR.CAVITY>
0

>  <SCORE.RESTR.norm>
0

>  <SCORE.SYSTEM>
0

>  <SCORE.SYSTEM.CONST>
0

>  <SCORE.SYSTEM.DIHEDRAL>
0

>  <SCORE.SYSTEM.SOLV>
0

>  <SCORE.SYSTEM.norm>
0

>  <SCORE.heavy>
26

>  <SCORE.norm>
-0.910685

>  <RMSD>
2.056

$$$$
ligand
 OpenBabel02271912153D
libRbt.so/2013.1/901 2013/11/27
 26 28  0  0  0  0  0  0  0  0999 V2000
  126.9958   69.3828   -5.0458 N   0  0  0  0  0  0  0  0  0  0  0  0
  126.7535   69.3542   -3.5728 C   0  0  2  0  0  0  0  0  0  0  0  0
  126.2524   70.6859   -3.0926 C   0  0  0  0  0  0  0  0  0  0  0  0
  125.6006   70.7859   -2.0539 O   0  0  0  0  0  0  0  0  0  0  0  0
  128.0391   68.9944   -2.8328 C   0  0  0  0  0  0  0  0  0  0  0  0
  128.5859   67.6193   -3.2038 C   0  0  0  0  0  0  0  0  0  0  0  0
  127.5897   66.3593   -2.4777 S   0  0  0  0  0  0  0  0  0  0  0  0
  128.7878   65.1476   -2.0222 C   0  0  0  0  0  0  0  0  0  0  0  0
  129.7903   65.6983   -1.0095 C   0  0  1  0  0  0  0  0  0  0  0  0
  130.1636   64.6903   -0.0677 O   0  0  0  0  0  0  0  0  0  0  0  0
  131.0585   66.1501   -1.7154 C   0  0  1  0  0  0  0  0  0  0  0  0
  131.4123   67.4681   -1.2853 O   0  0  0  0  0  0  0  0  0  0  0  0
  132.1290   65.1413   -1.3386 C   0  0  1  0  0  0  0  0  0  0  0  0
  133.2801   65.7842   -0.7801 O   0  0  0  0  0  0  0  0  0  0  0  0
  131.4958   64.2189   -0.3034 C   0  0  2  0  0  0  0  0  0  0  0  0
  126.4747   71.7109   -3.7353 O   0  0  0  0  0  0  0  0  0  0  0  0
  128.6099   60.3149   -2.3995 N   0  0  0  0  0  0  0  0  0  0  0  0
  128.2494   61.5731   -2.0762 C   0  0  0  0  0  0  0  0  0  0  0  0
  129.1000   62.4740   -1.5426 N   0  0  0  0  0  0  0  0  0  0  0  0
  130.3993   62.1587   -1.2912 C   0  0  0  0  0  0  0  0  0  0  0  0
  130.8658   60.8000   -1.6193 C   0  0  0  0  0  0  0  0  0  0  0  0
  129.8726   59.8647   -2.2055 C   0  0  0  0  0  0  0  0  0  0  0  0
  130.2221   58.5976   -2.5321 N   0  0  0  0  0  0  0  0  0  0  0  0
  132.1662   60.7441   -1.2844 N   0  0  0  0  0  0  0  0  0  0  0  0
  132.5056   61.9574   -0.7826 C   0  0  0  0  0  0  0  0  0  0  0  0
  131.4578   62.8055   -0.7824 N   0  0  0  0  0  0  0  0  0  0  0  0
  2  1  1  6  0  0  0
  2  3  1  0  0  0  0
  2  5  1  0  0  0  0
  3  4  1  0  0  0  0
  3 16  1  0  0  0  0
  5  6  1  0  0  0  0
  6  7  1  0  0  0  0
  7  8  1  0  0  0  0
  9  8  1  6  0  0  0
  9 10  1  0  0  0  0
  9 11  1  0  0  0  0
 10 15  1  0  0  0  0
 11 12  1  1  0  0  0
 11 13  1  0  0  0  0
 13 14  1  1  0  0  0
 13 15  1  0  0  0  0
 15 26  1  6  0  0  0
 17 18  2  0  0  0  0
 17 22  1  0  0  0  0
 18 19  1  0  0  0  0
 19 20  2  0  0  0  0
 20 21  1  0  0  0  0
 20 26  1  0  0  0  0
 21 22  2  0  0  0  0
 21 24  1  0  0  0  0
 22 23  1  0  0  0  0
 24 25  2  0  0  0  0
 25 26  1  0  0  0  0
M  END
>  <CHROM.1>
156.63407538,-60.96919824,-73.62684637,-142.33928680,61.41511946,143.80840806
17.85807902,129.42103894,65.21995815,-1.98708626,2.02636414,-0.42717044,0.00931667

>  <Name>
ligand

>  <RI>
0

>  <Rbt.Current_Directory>
/home/itssahil/PROJECTS/Mol_Feturizer/Test_systems_manuscript/rnas/3npn

>  <Rbt.Executable>
rbdock ($Id: //depot/dev/client3/rdock/2013.1/src/exe/rbdock.cxx#4 $)

>  <Rbt.Library>
libRbt.so (2013.1, Build901 2013/11/27)

>  <Rbt.Parameter_File>
/export/apps/rDock/src/rDock_2013.1_src/data/scripts/dock_solv.prm

>  <Rbt.Receptor>
prm/pocket_docking_2.prm

>  <SCORE>
-26.4145

>  <SCORE.INTER>
-27.9101

>  <SCORE.INTER.CONST>
1

>  <SCORE.INTER.POLAR>
0

>  <SCORE.INTER.ROT>
7

>  <SCORE.INTER.SOLV>
19.3278

>  <SCORE.INTER.VDW>
-33.316

>  <SCORE.INTER.norm>
-1.07347

>  <SCORE.INTRA>
1.49561

>  <SCORE.INTRA.DIHEDRAL>
4.10087

>  <SCORE.INTRA.DIHEDRAL.0>
4.37896

>  <SCORE.INTRA.POLAR>
0

>  <SCORE.INTRA.POLAR.0>
0

>  <SCORE.INTRA.REPUL>
0

>  <SCORE.INTRA.REPUL.0>
0

>  <SCORE.INTRA.SOLV>
0.578981

>  <SCORE.INTRA.SOLV.lig_0>
-50.5538

>  <SCORE.INTRA.VDW>
-0.844314

>  <SCORE.INTRA.VDW.0>
-1.30673

>  <SCORE.INTRA.norm>
0.0575235

>  <SCORE.RESTR>
0

>  <SCORE.RESTR.CAVITY>
0

>  <SCORE.RESTR.norm>
0

>  <SCORE.SYSTEM>
0

>  <SCORE.SYSTEM.CONST>
0

>  <SCORE.SYSTEM.DIHEDRAL>
0

>  <SCORE.SYSTEM.SOLV>
0

>  <SCORE.SYSTEM.norm>
0

>  <SCORE.heavy>
26

>  <SCORE.norm>
-1.01594

>  <RMSD>
2.069

$$$$
ligand
 OpenBabel02271912153D
libRbt.so/2013.1/901 2013/11/27
 26 28  0  0  0  0  0  0  0  0999 V2000
  127.9898   69.9027   -4.5452 N   0  0  0  0  0  0  0  0  0  0  0  0
  126.6990   69.5813   -3.8670 C   0  0  2  0  0  0  0  0  0  0  0  0
  126.1553   70.7910   -3.1626 C   0  0  0  0  0  0  0  0  0  0  0  0
  126.2801   71.9177   -3.6406 O   0  0  0  0  0  0  0  0  0  0  0  0
  126.8979   68.4503   -2.8615 C   0  0  0  0  0  0  0  0  0  0  0  0
  127.2991   67.1286   -3.5094 C   0  0  0  0  0  0  0  0  0  0  0  0
  127.7843   65.9731   -2.2698 S   0  0  0  0  0  0  0  0  0  0  0  0
  129.5284   65.8706   -2.5124 C   0  0  0  0  0  0  0  0  0  0  0  0
  130.2978   66.3107   -1.2682 C   0  0  1  0  0  0  0  0  0  0  0  0
  130.2304   65.3090   -0.2510 O   0  0  0  0  0  0  0  0  0  0  0  0
  131.7662   66.5183   -1.6024 C   0  0  1  0  0  0  0  0  0  0  0  0
  132.2050   67.7855   -1.1036 O   0  0  0  0  0  0  0  0  0  0  0  0
  132.5123   65.3755   -0.9368 C   0  0  1  0  0  0  0  0  0  0  0  0
  133.5605   65.8584   -0.0893 O   0  0  0  0  0  0  0  0  0  0  0  0
  131.4793   64.6218   -0.1073 C   0  0  2  0  0  0  0  0  0  0  0  0
  125.5787   70.6834   -2.0814 O   0  0  0  0  0  0  0  0  0  0  0  0
  128.3524   60.9448   -2.2676 N   0  0  0  0  0  0  0  0  0  0  0  0
  128.0907   62.2358   -1.9799 C   0  0  0  0  0  0  0  0  0  0  0  0
  128.9939   63.0690   -1.4235 N   0  0  0  0  0  0  0  0  0  0  0  0
  130.2486   62.6465   -1.1104 C   0  0  0  0  0  0  0  0  0  0  0  0
  130.6071   61.2462   -1.3965 C   0  0  0  0  0  0  0  0  0  0  0  0
  129.5613   60.3899   -2.0113 C   0  0  0  0  0  0  0  0  0  0  0  0
  129.8114   59.0912   -2.3024 N   0  0  0  0  0  0  0  0  0  0  0  0
  131.8821   61.0834   -1.0039 N   0  0  0  0  0  0  0  0  0  0  0  0
  132.3054   62.2720   -0.5064 C   0  0  0  0  0  0  0  0  0  0  0  0
  131.3374   63.2081   -0.5656 N   0  0  0  0  0  0  0  0  0  0  0  0
  2  1  1  1  0  0  0
  2  3  1  0  0  0  0
  2  5  1  0  0  0  0
  3  4  1  0  0  0  0
  3 16  1  0  0  0  0
  5  6  1  0  0  0  0
  6  7  1  0  0  0  0
  7  8  1  0  0  0  0
  9  8  1  6  0  0  0
  9 10  1  0  0  0  0
  9 11  1  0  0  0  0
 10 15  1  0  0  0  0
 11 12  1  1  0  0  0
 11 13  1  0  0  0  0
 13 14  1  1  0  0  0
 13 15  1  0  0  0  0
 15 26  1  6  0  0  0
 17 18  2  0  0  0  0
 17 22  1  0  0  0  0
 18 19  1  0  0  0  0
 19 20  2  0  0  0  0
 20 21  1  0  0  0  0
 20 26  1  0  0  0  0
 21 22  2  0  0  0  0
 21 24  1  0  0  0  0
 22 23  1  0  0  0  0
 24 25  2  0  0  0  0
 25 26  1  0  0  0  0
M  END
>  <CHROM.1>
36.35662648,-64.49321641,169.88620191,-108.79486402,119.25314282,74.34824078
3.73828370,129.42240559,65.47938012,-1.87842665,-2.05120753,0.40939989,3.11143673

>  <Name>
ligand

>  <RI>
0

>  <Rbt.Current_Directory>
/home/itssahil/PROJECTS/Mol_Feturizer/Test_systems_manuscript/rnas/3npn

>  <Rbt.Executable>
rbdock ($Id: //depot/dev/client3/rdock/2013.1/src/exe/rbdock.cxx#4 $)

>  <Rbt.Library>
libRbt.so (2013.1, Build901 2013/11/27)

>  <Rbt.Parameter_File>
/export/apps/rDock/src/rDock_2013.1_src/data/scripts/dock_solv.prm

>  <Rbt.Receptor>
prm/pocket_docking_3.prm

>  <SCORE>
-28.209

>  <SCORE.INTER>
-29.2435

>  <SCORE.INTER.CONST>
1

>  <SCORE.INTER.POLAR>
0

>  <SCORE.INTER.ROT>
7

>  <SCORE.INTER.SOLV>
18.2505

>  <SCORE.INTER.VDW>
-33.8458

>  <SCORE.INTER.norm>
-1.12475

>  <SCORE.INTRA>
1.03445

>  <SCORE.INTRA.DIHEDRAL>
4.07069

>  <SCORE.INTRA.DIHEDRAL.0>
4.37896

>  <SCORE.INTRA.POLAR>
0

>  <SCORE.INTRA.POLAR.0>
0

>  <SCORE.INTRA.REPUL>
0

>  <SCORE.INTRA.REPUL.0>
0

>  <SCORE.INTRA.SOLV>
-0.14116

>  <SCORE.INTRA.SOLV.lig_0>
-50.5538

>  <SCORE.INTRA.VDW>
-0.930312

>  <SCORE.INTRA.VDW.0>
-1.30673

>  <SCORE.INTRA.norm>
0.0397866

>  <SCORE.RESTR>
0

>  <SCORE.RESTR.CAVITY>
0

>  <SCORE.RESTR.norm>
0

>  <SCORE.SYSTEM>
0

>  <SCORE.SYSTEM.CONST>
0

>  <SCORE.SYSTEM.DIHEDRAL>
0

>  <SCORE.SYSTEM.SOLV>
0

>  <SCORE.SYSTEM.norm>
0

>  <SCORE.heavy>
26

>  <SCORE.norm>
-1.08496

>  <RMSD>
2.078

$$$$
ligand
 OpenBabel02271912153D
libRbt.so/2013.1/901 2013/11/27
 26 28  0  0  0  0  0  0  0  0999 V2000
  128.2366   69.8960   -4.5462 N   0  0  0  0  0  0  0  0  0  0  0  0
  126.8760   69.7065   -3.9614 C   0  0  2  0  0  0  0  0  0  0  0  0
  126.6584   70.6470   -2.8111 C   0  0  0  0  0  0  0  0  0  0  0  0
  127.6030   71.0763   -2.1501 O   0  0  0  0  0  0  0  0  0  0  0  0
  126.7015   68.2669   -3.4851 C   0  0  0  0  0  0  0  0  0  0  0  0
  127.6942   67.8649   -2.3987 C   0  0  0  0  0  0  0  0  0  0  0  0
  127.7105   66.1116   -2.2168 S   0  0  0  0  0  0  0  0  0  0  0  0
  129.4048   65.7182   -2.5095 C   0  0  0  0  0  0  0  0  0  0  0  0
  130.3021   66.2088   -1.3747 C   0  0  1  0  0  0  0  0  0  0  0  0
  130.3559   65.2459   -0.3199 O   0  0  0  0  0  0  0  0  0  0  0  0
  131.7229   66.4111   -1.8758 C   0  0  1  0  0  0  0  0  0  0  0  0
  132.2021   67.6984   -1.4754 O   0  0  0  0  0  0  0  0  0  0  0  0
  132.5480   65.2980   -1.2546 C   0  0  1  0  0  0  0  0  0  0  0  0
  133.6784   65.8179   -0.5459 O   0  0  0  0  0  0  0  0  0  0  0  0
  131.6192   64.5709   -0.2891 C   0  0  2  0  0  0  0  0  0  0  0  0
  125.5241   71.0036   -2.4956 O   0  0  0  0  0  0  0  0  0  0  0  0
  128.3975   60.8719   -2.2645 N   0  0  0  0  0  0  0  0  0  0  0  0
  128.1691   62.1819   -2.0417 C   0  0  0  0  0  0  0  0  0  0  0  0
  129.0938   63.0185   -1.5271 N   0  0  0  0  0  0  0  0  0  0  0  0
  130.3376   62.5802   -1.1929 C   0  0  0  0  0  0  0  0  0  0  0  0
  130.6600   61.1587   -1.4088 C   0  0  0  0  0  0  0  0  0  0  0  0
  129.5921   60.2998   -1.9805 C   0  0  0  0  0  0  0  0  0  0  0  0
  129.8087   58.9822   -2.2066 N   0  0  0  0  0  0  0  0  0  0  0  0
  131.9308   60.9831   -1.0082 N   0  0  0  0  0  0  0  0  0  0  0  0
  132.3848   62.1838   -0.5705 C   0  0  0  0  0  0  0  0  0  0  0  0
  131.4409   63.1403   -0.6765 N   0  0  0  0  0  0  0  0  0  0  0  0
  2  1  1  1  0  0  0
  2  3  1  0  0  0  0
  2  5  1  0  0  0  0
  3  4  1  0  0  0  0
  3 16  1  0  0  0  0
  5  6  1  0  0  0  0
  6  7  1  0  0  0  0
  7  8  1  0  0  0  0
  9  8  1  6  0  0  0
  9 10  1  0  0  0  0
  9 11  1  0  0  0  0
 10 15  1  0  0  0  0
 11 12  1  1  0  0  0
 11 13  1  0  0  0  0
 13 14  1  1  0  0  0
 13 15  1  0  0  0  0
 15 26  1  6  0  0  0
 17 18  2  0  0  0  0
 17 22  1  0  0  0  0
 18 19  1  0  0  0  0
 19 20  2  0  0  0  0
 20 21  1  0  0  0  0
 20 26  1  0  0  0  0
 21 22  2  0  0  0  0
 21 24  1  0  0  0  0
 22 23  1  0  0  0  0
 24 25  2  0  0  0  0
 25 26  1  0  0  0  0
M  END
>  <CHROM.1>
-26.40482641,60.97974466,-165.09334394,122.45576203,69.61293350,85.59617453
10.33995087,129.54097177,65.43629976,-1.88108512,-2.00009648,0.34364202,3.10137345

>  <Name>
ligand

>  <RI>
0

>  <Rbt.Current_Directory>
/home/itssahil/PROJECTS/Mol_Feturizer/Test_systems_manuscript/rnas/3npn

>  <Rbt.Executable>
rbdock ($Id: //depot/dev/client3/rdock/2013.1/src/exe/rbdock.cxx#4 $)

>  <Rbt.Library>
libRbt.so (2013.1, Build901 2013/11/27)

>  <Rbt.Parameter_File>
/export/apps/rDock/src/rDock_2013.1_src/data/scripts/dock_solv.prm

>  <Rbt.Receptor>
prm/pocket_docking_6.prm

>  <SCORE>
-27.7271

>  <SCORE.INTER>
-28.2565

>  <SCORE.INTER.CONST>
1

>  <SCORE.INTER.POLAR>
0

>  <SCORE.INTER.ROT>
7

>  <SCORE.INTER.SOLV>
17.1532

>  <SCORE.INTER.VDW>
-32.8221

>  <SCORE.INTER.norm>
-1.08679

>  <SCORE.INTRA>
0.529387

>  <SCORE.INTRA.DIHEDRAL>
3.63103

>  <SCORE.INTRA.DIHEDRAL.0>
4.37896

>  <SCORE.INTRA.POLAR>
0

>  <SCORE.INTRA.POLAR.0>
0

>  <SCORE.INTRA.REPUL>
0

>  <SCORE.INTRA.REPUL.0>
0

>  <SCORE.INTRA.SOLV>
-0.0724971

>  <SCORE.INTRA.SOLV.lig_0>
-50.5538

>  <SCORE.INTRA.VDW>
-1.24988

>  <SCORE.INTRA.VDW.0>
-1.30673

>  <SCORE.INTRA.norm>
0.020361

>  <SCORE.RESTR>
0

>  <SCORE.RESTR.CAVITY>
0

>  <SCORE.RESTR.norm>
0

>  <SCORE.SYSTEM>
0

>  <SCORE.SYSTEM.CONST>
0

>  <SCORE.SYSTEM.DIHEDRAL>
0

>  <SCORE.SYSTEM.SOLV>
0

>  <SCORE.SYSTEM.norm>
0

>  <SCORE.heavy>
26

>  <SCORE.norm>
-1.06643

>  <RMSD>
2.078

$$$$
ligand
 OpenBabel02271912153D
libRbt.so/2013.1/901 2013/11/27
 26 28  0  0  0  0  0  0  0  0999 V2000
  126.9809   67.6174   -4.3998 N   0  0  0  0  0  0  0  0  0  0  0  0
  126.8584   68.6978   -3.3766 C   0  0  2  0  0  0  0  0  0  0  0  0
  126.7674   70.0439   -4.0361 C   0  0  0  0  0  0  0  0  0  0  0  0
  127.0589   70.1948   -5.2218 O   0  0  0  0  0  0  0  0  0  0  0  0
  128.0581   68.6706   -2.4334 C   0  0  0  0  0  0  0  0  0  0  0  0
  128.0136   67.5210   -1.4314 C   0  0  0  0  0  0  0  0  0  0  0  0
  128.1533   65.9802   -2.2761 S   0  0  0  0  0  0  0  0  0  0  0  0
  129.8989   65.8096   -2.4625 C   0  0  0  0  0  0  0  0  0  0  0  0
  130.6424   66.1858   -1.1821 C   0  0  1  0  0  0  0  0  0  0  0  0
  130.4662   65.1811   -0.1811 O   0  0  0  0  0  0  0  0  0  0  0  0
  132.1341   66.2987   -1.4524 C   0  0  1  0  0  0  0  0  0  0  0  0
  132.6339   67.5292   -0.9202 O   0  0  0  0  0  0  0  0  0  0  0  0
  132.7744   65.1026   -0.7706 C   0  0  1  0  0  0  0  0  0  0  0  0
  133.8154   65.5067    0.1257 O   0  0  0  0  0  0  0  0  0  0  0  0
  131.6599   64.4112    0.0060 C   0  0  2  0  0  0  0  0  0  0  0  0
  126.4070   71.0333   -3.4001 O   0  0  0  0  0  0  0  0  0  0  0  0
  128.3861   60.9669   -2.3144 N   0  0  0  0  0  0  0  0  0  0  0  0
  128.1974   62.2691   -2.0201 C   0  0  0  0  0  0  0  0  0  0  0  0
  129.1309   63.0363   -1.4203 N   0  0  0  0  0  0  0  0  0  0  0  0
  130.3431   62.5302   -1.0667 C   0  0  0  0  0  0  0  0  0  0  0  0
  130.6214   61.1127   -1.3574 C   0  0  0  0  0  0  0  0  0  0  0  0
  129.5464   60.3323   -2.0210 C   0  0  0  0  0  0  0  0  0  0  0  0
  129.7231   59.0232   -2.3194 N   0  0  0  0  0  0  0  0  0  0  0  0
  131.8677   60.8636   -0.9204 N   0  0  0  0  0  0  0  0  0  0  0  0
  132.3476   62.0171   -0.3926 C   0  0  0  0  0  0  0  0  0  0  0  0
  131.4446   63.0145   -0.4752 N   0  0  0  0  0  0  0  0  0  0  0  0
  2  1  1  6  0  0  0
  2  3  1  0  0  0  0
  2  5  1  0  0  0  0
  3  4  1  0  0  0  0
  3 16  1  0  0  0  0
  5  6  1  0  0  0  0
  6  7  1  0  0  0  0
  7  8  1  0  0  0  0
  9  8  1  6  0  0  0
  9 10  1  0  0  0  0
  9 11  1  0  0  0  0
 10 15  1  0  0  0  0
 11 12  1  1  0  0  0
 11 13  1  0  0  0  0
 13 14  1  1  0  0  0
 13 15  1  0  0  0  0
 15 26  1  6  0  0  0
 17 18  2  0  0  0  0
 17 22  1  0  0  0  0
 18 19  1  0  0  0  0
 19 20  2  0  0  0  0
 20 21  1  0  0  0  0
 20 26  1  0  0  0  0
 21 22  2  0  0  0  0
 21 24  1  0  0  0  0
 22 23  1  0  0  0  0
 24 25  2  0  0  0  0
 25 26  1  0  0  0  0
M  END
>  <CHROM.1>
-14.61055687,-74.51496048,65.80216788,83.84981241,43.62198253,72.67735407
3.44238329,129.68737723,65.20685573,-1.86580576,2.06560607,-0.50004395,-0.05567255

>  <Name>
ligand

>  <RI>
0

>  <Rbt.Current_Directory>
/home/itssahil/PROJECTS/Mol_Feturizer/Test_systems_manuscript/rnas/3npn

>  <Rbt.Executable>
rbdock ($Id: //depot/dev/client3/rdock/2013.1/src/exe/rbdock.cxx#4 $)

>  <Rbt.Library>
libRbt.so (2013.1, Build901 2013/11/27)

>  <Rbt.Parameter_File>
/export/apps/rDock/src/rDock_2013.1_src/data/scripts/dock_solv.prm

>  <Rbt.Receptor>
prm/pocket_docking_2.prm

>  <SCORE>
-24.0072

>  <SCORE.INTER>
-24.5804

>  <SCORE.INTER.CONST>
1

>  <SCORE.INTER.POLAR>
0

>  <SCORE.INTER.ROT>
7

>  <SCORE.INTER.SOLV>
20.3196

>  <SCORE.INTER.VDW>
-31.4268

>  <SCORE.INTER.norm>
-0.945399

>  <SCORE.INTRA>
0.263244

>  <SCORE.INTRA.DIHEDRAL>
1.00535

>  <SCORE.INTRA.DIHEDRAL.0>
4.37896

>  <SCORE.INTRA.POLAR>
0

>  <SCORE.INTRA.POLAR.0>
0

>  <SCORE.INTRA.REPUL>
0

>  <SCORE.INTRA.REPUL.0>
0

>  <SCORE.INTRA.SOLV>
1.71337

>  <SCORE.INTRA.SOLV.lig_0>
-50.5538

>  <SCORE.INTRA.VDW>
-1.09612

>  <SCORE.INTRA.VDW.0>
-1.30673

>  <SCORE.INTRA.norm>
0.0101248

>  <SCORE.RESTR>
0.309981

>  <SCORE.RESTR.CAVITY>
0.309981

>  <SCORE.RESTR.norm>
0.0119224

>  <SCORE.SYSTEM>
0

>  <SCORE.SYSTEM.CONST>
0

>  <SCORE.SYSTEM.DIHEDRAL>
0

>  <SCORE.SYSTEM.SOLV>
0

>  <SCORE.SYSTEM.norm>
0

>  <SCORE.heavy>
26

>  <SCORE.norm>
-0.923352

>  <RMSD>
2.084

$$$$
ligand
 OpenBabel02271912153D
libRbt.so/2013.1/901 2013/11/27
 26 28  0  0  0  0  0  0  0  0999 V2000
  125.6046   69.5440   -2.0434 N   0  0  0  0  0  0  0  0  0  0  0  0
  126.8901   70.0708   -2.5906 C   0  0  2  0  0  0  0  0  0  0  0  0
  126.6591   70.7833   -3.8922 C   0  0  0  0  0  0  0  0  0  0  0  0
  126.5382   70.1621   -4.9472 O   0  0  0  0  0  0  0  0  0  0  0  0
  127.8817   68.9298   -2.8011 C   0  0  0  0  0  0  0  0  0  0  0  0
  127.2522   67.6893   -3.4274 C   0  0  0  0  0  0  0  0  0  0  0  0
  128.5120   66.6134   -4.0295 S   0  0  0  0  0  0  0  0  0  0  0  0
  128.8020   65.5606   -2.6443 C   0  0  0  0  0  0  0  0  0  0  0  0
  129.6639   66.2460   -1.5855 C   0  0  1  0  0  0  0  0  0  0  0  0
  129.8830   65.3775   -0.4718 O   0  0  0  0  0  0  0  0  0  0  0  0
  131.0265   66.5968   -2.1609 C   0  0  1  0  0  0  0  0  0  0  0  0
  131.3418   67.9616   -1.8693 O   0  0  0  0  0  0  0  0  0  0  0  0
  132.0146   65.6499   -1.5031 C   0  0  1  0  0  0  0  0  0  0  0  0
  133.0887   66.3640   -0.8812 O   0  0  0  0  0  0  0  0  0  0  0  0
  131.2259   64.8788   -0.4512 C   0  0  2  0  0  0  0  0  0  0  0  0
  126.5953   72.0111   -3.9349 O   0  0  0  0  0  0  0  0  0  0  0  0
  128.5279   60.6930   -2.2301 N   0  0  0  0  0  0  0  0  0  0  0  0
  128.1418   61.9796   -2.1142 C   0  0  0  0  0  0  0  0  0  0  0  0
  128.9441   62.9543   -1.6388 N   0  0  0  0  0  0  0  0  0  0  0  0
  130.2168   62.6908   -1.2369 C   0  0  0  0  0  0  0  0  0  0  0  0
  130.7088   61.3053   -1.3346 C   0  0  0  0  0  0  0  0  0  0  0  0
  129.7690   60.2876   -1.8694 C   0  0  0  0  0  0  0  0  0  0  0  0
  130.1443   58.9918   -1.9882 N   0  0  0  0  0  0  0  0  0  0  0  0
  131.9756   61.3101   -0.8858 N   0  0  0  0  0  0  0  0  0  0  0  0
  132.2715   62.5843   -0.5280 C   0  0  0  0  0  0  0  0  0  0  0  0
  131.2282   63.4128   -0.7334 N   0  0  0  0  0  0  0  0  0  0  0  0
  2  1  1  6  0  0  0
  2  3  1  0  0  0  0
  2  5  1  0  0  0  0
  3  4  1  0  0  0  0
  3 16  1  0  0  0  0
  5  6  1  0  0  0  0
  6  7  1  0  0  0  0
  7  8  1  0  0  0  0
  9  8  1  6  0  0  0
  9 10  1  0  0  0  0
  9 11  1  0  0  0  0
 10 15  1  0  0  0  0
 11 12  1  1  0  0  0
 11 13  1  0  0  0  0
 13 14  1  1  0  0  0
 13 15  1  0  0  0  0
 15 26  1  6  0  0  0
 17 18  2  0  0  0  0
 17 22  1  0  0  0  0
 18 19  1  0  0  0  0
 19 20  2  0  0  0  0
 20 21  1  0  0  0  0
 20 26  1  0  0  0  0
 21 22  2  0  0  0  0
 21 24  1  0  0  0  0
 22 23  1  0  0  0  0
 24 25  2  0  0  0  0
 25 26  1  0  0  0  0
M  END
>  <CHROM.1>
-80.53749312,43.09902936,164.71284173,91.37791969,-78.16079093,179.83966445
14.59361816,129.36105876,65.59788948,-2.18579355,2.00368340,-0.43532883,-0.06255320

>  <Name>
ligand

>  <RI>
0

>  <Rbt.Current_Directory>
/home/itssahil/PROJECTS/Mol_Feturizer/Test_systems_manuscript/rnas/3npn

>  <Rbt.Executable>
rbdock ($Id: //depot/dev/client3/rdock/2013.1/src/exe/rbdock.cxx#4 $)

>  <Rbt.Library>
libRbt.so (2013.1, Build901 2013/11/27)

>  <Rbt.Parameter_File>
/export/apps/rDock/src/rDock_2013.1_src/data/scripts/dock_solv.prm

>  <Rbt.Receptor>
prm/pocket_docking_2.prm

>  <SCORE>
-24.5898

>  <SCORE.INTER>
-25.7576

>  <SCORE.INTER.CONST>
1

>  <SCORE.INTER.POLAR>
0

>  <SCORE.INTER.ROT>
7

>  <SCORE.INTER.SOLV>
21.2628

>  <SCORE.INTER.VDW>
-32.526

>  <SCORE.INTER.norm>
-0.990677

>  <SCORE.INTRA>
0.753632

>  <SCORE.INTRA.DIHEDRAL>
2.00041

>  <SCORE.INTRA.DIHEDRAL.0>
4.37896

>  <SCORE.INTRA.POLAR>
0

>  <SCORE.INTRA.POLAR.0>
0

>  <SCORE.INTRA.REPUL>
0

>  <SCORE.INTRA.REPUL.0>
0

>  <SCORE.INTRA.SOLV>
0.204863

>  <SCORE.INTRA.SOLV.lig_0>
-50.5538

>  <SCORE.INTRA.VDW>
-0.349004

>  <SCORE.INTRA.VDW.0>
-1.30673

>  <SCORE.INTRA.norm>
0.0289858

>  <SCORE.RESTR>
0.414154

>  <SCORE.RESTR.CAVITY>
0.414154

>  <SCORE.RESTR.norm>
0.015929

>  <SCORE.SYSTEM>
0

>  <SCORE.SYSTEM.CONST>
0

>  <SCORE.SYSTEM.DIHEDRAL>
0

>  <SCORE.SYSTEM.SOLV>
0

>  <SCORE.SYSTEM.norm>
0

>  <SCORE.heavy>
26

>  <SCORE.norm>
-0.945762

>  <RMSD>
2.088

$$$$
ligand
 OpenBabel02271912153D
libRbt.so/2013.1/901 2013/11/27
 26 28  0  0  0  0  0  0  0  0999 V2000
  128.0743   71.2708   -5.1183 N   0  0  0  0  0  0  0  0  0  0  0  0
  127.8917   71.2858   -3.6365 C   0  0  2  0  0  0  0  0  0  0  0  0
  129.1814   70.9578   -2.9407 C   0  0  0  0  0  0  0  0  0  0  0  0
  129.2114   70.7081   -1.7364 O   0  0  0  0  0  0  0  0  0  0  0  0
  126.8191   70.2803   -3.2263 C   0  0  0  0  0  0  0  0  0  0  0  0
  127.1644   68.8418   -3.5991 C   0  0  0  0  0  0  0  0  0  0  0  0
  126.1483   67.7239   -2.6909 S   0  0  0  0  0  0  0  0  0  0  0  0
  127.2160   66.3370   -2.4724 C   0  0  0  0  0  0  0  0  0  0  0  0
  128.5365   66.7392   -1.8181 C   0  0  1  0  0  0  0  0  0  0  0  0
  128.9452   65.7605   -0.8601 O   0  0  0  0  0  0  0  0  0  0  0  0
  129.6355   66.8351   -2.8640 C   0  0  1  0  0  0  0  0  0  0  0  0
  130.3358   68.0747   -2.7226 O   0  0  0  0  0  0  0  0  0  0  0  0
  130.5537   65.6515   -2.6156 C   0  0  1  0  0  0  0  0  0  0  0  0
  131.9125   66.0703   -2.4462 O   0  0  0  0  0  0  0  0  0  0  0  0
  130.0520   64.9871   -1.3389 C   0  0  2  0  0  0  0  0  0  0  0  0
  130.2441   70.9411   -3.5601 O   0  0  0  0  0  0  0  0  0  0  0  0
  131.4138   59.8795   -1.4890 N   0  0  0  0  0  0  0  0  0  0  0  0
  132.1627   60.9614   -1.1947 C   0  0  0  0  0  0  0  0  0  0  0  0
  131.6784   62.2204   -1.1949 N   0  0  0  0  0  0  0  0  0  0  0  0
  130.3784   62.4791   -1.5010 C   0  0  0  0  0  0  0  0  0  0  0  0
  129.4986   61.3448   -1.8334 C   0  0  0  0  0  0  0  0  0  0  0  0
  130.1024   59.9883   -1.8104 C   0  0  0  0  0  0  0  0  0  0  0  0
  129.3610   58.8943   -2.1066 N   0  0  0  0  0  0  0  0  0  0  0  0
  128.2832   61.8577   -2.0901 N   0  0  0  0  0  0  0  0  0  0  0  0
  128.3733   63.2025   -1.9395 C   0  0  0  0  0  0  0  0  0  0  0  0
  129.6189   63.5806   -1.5895 N   0  0  0  0  0  0  0  0  0  0  0  0
  2  1  1  6  0  0  0
  2  3  1  0  0  0  0
  2  5  1  0  0  0  0
  3  4  1  0  0  0  0
  3 16  1  0  0  0  0
  5  6  1  0  0  0  0
  6  7  1  0  0  0  0
  7  8  1  0  0  0  0
  9  8  1  6  0  0  0
  9 10  1  0  0  0  0
  9 11  1  0  0  0  0
 10 15  1  0  0  0  0
 11 12  1  1  0  0  0
 11 13  1  0  0  0  0
 13 14  1  1  0  0  0
 13 15  1  0  0  0  0
 15 26  1  6  0  0  0
 17 18  2  0  0  0  0
 17 22  1  0  0  0  0
 18 19  1  0  0  0  0
 19 20  2  0  0  0  0
 20 21  1  0  0  0  0
 20 26  1  0  0  0  0
 21 22  2  0  0  0  0
 21 24  1  0  0  0  0
 22 23  1  0  0  0  0
 24 25  2  0  0  0  0
 25 26  1  0  0  0  0
M  END
>  <CHROM.1>
-168.35907513,61.05306180,163.18344105,-147.59196014,54.78818654,139.79639134
-150.43863308,129.18595937,65.88036288,-2.35190754,-1.79692901,0.10133728
2.98691163

>  <Name>
ligand

>  <RI>
0

>  <Rbt.Current_Directory>
/home/itssahil/PROJECTS/Mol_Feturizer/Test_systems_manuscript/rnas/3npn

>  <Rbt.Executable>
rbdock ($Id: //depot/dev/client3/rdock/2013.1/src/exe/rbdock.cxx#4 $)

>  <Rbt.Library>
libRbt.so (2013.1, Build901 2013/11/27)

>  <Rbt.Parameter_File>
/export/apps/rDock/src/rDock_2013.1_src/data/scripts/dock_solv.prm

>  <Rbt.Receptor>
prm/pocket_docking_4.prm

>  <SCORE>
-26.6471

>  <SCORE.INTER>
-27.9564

>  <SCORE.INTER.CONST>
1

>  <SCORE.INTER.POLAR>
0

>  <SCORE.INTER.ROT>
7

>  <SCORE.INTER.SOLV>
23.5074

>  <SCORE.INTER.VDW>
-34.7401

>  <SCORE.INTER.norm>
-1.07525

>  <SCORE.INTRA>
1.30857

>  <SCORE.INTRA.DIHEDRAL>
4.65246

>  <SCORE.INTRA.DIHEDRAL.0>
4.37896

>  <SCORE.INTRA.POLAR>
0

>  <SCORE.INTRA.POLAR.0>
0

>  <SCORE.INTRA.REPUL>
0

>  <SCORE.INTRA.REPUL.0>
0

>  <SCORE.INTRA.SOLV>
0.282637

>  <SCORE.INTRA.SOLV.lig_0>
-50.5538

>  <SCORE.INTRA.VDW>
-1.15898

>  <SCORE.INTRA.VDW.0>
-1.30673

>  <SCORE.INTRA.norm>
0.0503297

>  <SCORE.RESTR>
0.000762796

>  <SCORE.RESTR.CAVITY>
0.000762796

>  <SCORE.RESTR.norm>
2.93383e-05

>  <SCORE.SYSTEM>
0

>  <SCORE.SYSTEM.CONST>
0

>  <SCORE.SYSTEM.DIHEDRAL>
0

>  <SCORE.SYSTEM.SOLV>
0

>  <SCORE.SYSTEM.norm>
0

>  <SCORE.heavy>
26

>  <SCORE.norm>
-1.02489

>  <RMSD>
2.091

$$$$
ligand
 OpenBabel02271912153D
libRbt.so/2013.1/901 2013/11/27
 26 28  0  0  0  0  0  0  0  0999 V2000
  126.3821   70.8841   -3.0954 N   0  0  0  0  0  0  0  0  0  0  0  0
  127.0227   69.5768   -3.4272 C   0  0  2  0  0  0  0  0  0  0  0  0
  127.0114   69.3429   -4.9105 C   0  0  0  0  0  0  0  0  0  0  0  0
  126.7191   70.2432   -5.6965 O   0  0  0  0  0  0  0  0  0  0  0  0
  126.2910   68.4366   -2.7241 C   0  0  0  0  0  0  0  0  0  0  0  0
  127.2285   67.4551   -2.0274 C   0  0  0  0  0  0  0  0  0  0  0  0
  127.9719   66.3858   -3.2154 S   0  0  0  0  0  0  0  0  0  0  0  0
  128.7274   65.1593   -2.1976 C   0  0  0  0  0  0  0  0  0  0  0  0
  129.7228   65.7755   -1.2162 C   0  0  1  0  0  0  0  0  0  0  0  0
  130.1017   64.8265   -0.2171 O   0  0  0  0  0  0  0  0  0  0  0  0
  130.9892   66.1963   -1.9442 C   0  0  1  0  0  0  0  0  0  0  0  0
  131.3314   67.5397   -1.5900 O   0  0  0  0  0  0  0  0  0  0  0  0
  132.0668   65.2196   -1.5076 C   0  0  1  0  0  0  0  0  0  0  0  0
  133.2113   65.9029   -0.9846 O   0  0  0  0  0  0  0  0  0  0  0  0
  131.4383   64.3532   -0.4224 C   0  0  2  0  0  0  0  0  0  0  0  0
  127.2857   68.2376   -5.3755 O   0  0  0  0  0  0  0  0  0  0  0  0
  128.5976   60.3197   -2.3264 N   0  0  0  0  0  0  0  0  0  0  0  0
  128.2273   61.5927   -2.0811 C   0  0  0  0  0  0  0  0  0  0  0  0
  129.0668   62.5272   -1.5896 N   0  0  0  0  0  0  0  0  0  0  0  0
  130.3640   62.2337   -1.3035 C   0  0  0  0  0  0  0  0  0  0  0  0
  130.8408   60.8608   -1.5463 C   0  0  0  0  0  0  0  0  0  0  0  0
  129.8596   59.8880   -2.0903 C   0  0  0  0  0  0  0  0  0  0  0  0
  130.2189   58.6060   -2.3384 N   0  0  0  0  0  0  0  0  0  0  0  0
  132.1368   60.8310   -1.1919 N   0  0  0  0  0  0  0  0  0  0  0  0
  132.4642   62.0730   -0.7567 C   0  0  0  0  0  0  0  0  0  0  0  0
  131.4129   62.9143   -0.8193 N   0  0  0  0  0  0  0  0  0  0  0  0
  2  1  1  6  0  0  0
  2  3  1  0  0  0  0
  2  5  1  0  0  0  0
  3  4  1  0  0  0  0
  3 16  1  0  0  0  0
  5  6  1  0  0  0  0
  6  7  1  0  0  0  0
  7  8  1  0  0  0  0
  9  8  1  6  0  0  0
  9 10  1  0  0  0  0
  9 11  1  0  0  0  0
 10 15  1  0  0  0  0
 11 12  1  1  0  0  0
 11 13  1  0  0  0  0
 13 14  1  1  0  0  0
 13 15  1  0  0  0  0
 15 26  1  6  0  0  0
 17 18  2  0  0  0  0
 17 22  1  0  0  0  0
 18 19  1  0  0  0  0
 19 20  2  0  0  0  0
 20 21  1  0  0  0  0
 20 26  1  0  0  0  0
 21 22  2  0  0  0  0
 21 24  1  0  0  0  0
 22 23  1  0  0  0  0
 24 25  2  0  0  0  0
 25 26  1  0  0  0  0
M  END
>  <CHROM.1>
11.60808911,-133.06969631,-76.94997813,-168.94628911,-57.95217136,167.34033248
18.50330966,129.40147782,65.09003030,-2.25073704,-2.05559389,0.51476705,3.09139208

>  <Name>
ligand

>  <RI>
0

>  <Rbt.Current_Directory>
/home/itssahil/PROJECTS/Mol_Feturizer/Test_systems_manuscript/rnas/3npn

>  <Rbt.Executable>
rbdock ($Id: //depot/dev/client3/rdock/2013.1/src/exe/rbdock.cxx#4 $)

>  <Rbt.Library>
libRbt.so (2013.1, Build901 2013/11/27)

>  <Rbt.Parameter_File>
/export/apps/rDock/src/rDock_2013.1_src/data/scripts/dock_solv.prm

>  <Rbt.Receptor>
prm/pocket_docking_3.prm

>  <SCORE>
-26.273

>  <SCORE.INTER>
-28.1945

>  <SCORE.INTER.CONST>
1

>  <SCORE.INTER.POLAR>
0

>  <SCORE.INTER.ROT>
7

>  <SCORE.INTER.SOLV>
20.4291

>  <SCORE.INTER.VDW>
-33.8727

>  <SCORE.INTER.norm>
-1.0844

>  <SCORE.INTRA>
1.9215

>  <SCORE.INTRA.DIHEDRAL>
5.23427

>  <SCORE.INTRA.DIHEDRAL.0>
4.37896

>  <SCORE.INTRA.POLAR>
0

>  <SCORE.INTRA.POLAR.0>
0

>  <SCORE.INTRA.REPUL>
0

>  <SCORE.INTRA.REPUL.0>
0

>  <SCORE.INTRA.SOLV>
-0.447886

>  <SCORE.INTRA.SOLV.lig_0>
-50.5538

>  <SCORE.INTRA.VDW>
-0.471696

>  <SCORE.INTRA.VDW.0>
-1.30673

>  <SCORE.INTRA.norm>
0.0739037

>  <SCORE.RESTR>
0

>  <SCORE.RESTR.CAVITY>
0

>  <SCORE.RESTR.norm>
0

>  <SCORE.SYSTEM>
0

>  <SCORE.SYSTEM.CONST>
0

>  <SCORE.SYSTEM.DIHEDRAL>
0

>  <SCORE.SYSTEM.SOLV>
0

>  <SCORE.SYSTEM.norm>
0

>  <SCORE.heavy>
26

>  <SCORE.norm>
-1.0105

>  <RMSD>
2.112

$$$$
ligand
 OpenBabel02271912153D
libRbt.so/2013.1/901 2013/11/27
 26 28  0  0  0  0  0  0  0  0999 V2000
  127.5471   69.4208   -4.6899 N   0  0  0  0  0  0  0  0  0  0  0  0
  126.7182   69.2716   -3.4570 C   0  0  2  0  0  0  0  0  0  0  0  0
  126.6718   70.5623   -2.6908 C   0  0  0  0  0  0  0  0  0  0  0  0
  127.6719   71.2683   -2.5685 O   0  0  0  0  0  0  0  0  0  0  0  0
  127.2875   68.1693   -2.5679 C   0  0  0  0  0  0  0  0  0  0  0  0
  127.4000   66.8212   -3.2731 C   0  0  0  0  0  0  0  0  0  0  0  0
  128.0060   65.6036   -2.1517 S   0  0  0  0  0  0  0  0  0  0  0  0
  129.7434   65.6456   -2.4529 C   0  0  0  0  0  0  0  0  0  0  0  0
  130.5205   66.0856   -1.2134 C   0  0  1  0  0  0  0  0  0  0  0  0
  130.4214   65.1040   -0.1794 O   0  0  0  0  0  0  0  0  0  0  0  0
  131.9952   66.2463   -1.5452 C   0  0  1  0  0  0  0  0  0  0  0  0
  132.4675   67.5092   -1.0665 O   0  0  0  0  0  0  0  0  0  0  0  0
  132.7066   65.0948   -0.8569 C   0  0  1  0  0  0  0  0  0  0  0  0
  133.7649   65.5629   -0.0136 O   0  0  0  0  0  0  0  0  0  0  0  0
  131.6500   64.3848   -0.0187 C   0  0  2  0  0  0  0  0  0  0  0  0
  125.6299   70.9401   -2.1569 O   0  0  0  0  0  0  0  0  0  0  0  0
  128.4926   60.8005   -2.2876 N   0  0  0  0  0  0  0  0  0  0  0  0
  128.2746   62.1089   -2.0460 C   0  0  0  0  0  0  0  0  0  0  0  0
  129.1801   62.9140   -1.4529 N   0  0  0  0  0  0  0  0  0  0  0  0
  130.3918   62.4428   -1.0523 C   0  0  0  0  0  0  0  0  0  0  0  0
  130.7011   61.0208   -1.2839 C   0  0  0  0  0  0  0  0  0  0  0  0
  129.6559   60.1978   -1.9437 C   0  0  0  0  0  0  0  0  0  0  0  0
  129.8621   58.8820   -2.1893 N   0  0  0  0  0  0  0  0  0  0  0  0
  131.9404   60.8101   -0.8087 N   0  0  0  0  0  0  0  0  0  0  0  0
  132.3877   61.9904   -0.3125 C   0  0  0  0  0  0  0  0  0  0  0  0
  131.4702   62.9679   -0.4531 N   0  0  0  0  0  0  0  0  0  0  0  0
  2  1  1  6  0  0  0
  2  3  1  0  0  0  0
  2  5  1  0  0  0  0
  3  4  1  0  0  0  0
  3 16  1  0  0  0  0
  5  6  1  0  0  0  0
  6  7  1  0  0  0  0
  7  8  1  0  0  0  0
  9  8  1  6  0  0  0
  9 10  1  0  0  0  0
  9 11  1  0  0  0  0
 10 15  1  0  0  0  0
 11 12  1  1  0  0  0
 11 13  1  0  0  0  0
 13 14  1  1  0  0  0
 13 15  1  0  0  0  0
 15 26  1  6  0  0  0
 17 18  2  0  0  0  0
 17 22  1  0  0  0  0
 18 19  1  0  0  0  0
 19 20  2  0  0  0  0
 20 21  1  0  0  0  0
 20 26  1  0  0  0  0
 21 22  2  0  0  0  0
 21 24  1  0  0  0  0
 22 23  1  0  0  0  0
 24 25  2  0  0  0  0
 25 26  1  0  0  0  0
M  END
>  <CHROM.1>
-40.37693607,-56.80539655,-177.82363875,-93.59603515,117.07787681,67.05036333
7.26371840,129.62660948,65.22523131,-1.73674640,2.02887967,-0.41142545,-0.00873685

>  <Name>
ligand

>  <RI>
0

>  <Rbt.Current_Directory>
/home/itssahil/PROJECTS/Mol_Feturizer/Test_systems_manuscript/rnas/3npn

>  <Rbt.Executable>
rbdock ($Id: //depot/dev/client3/rdock/2013.1/src/exe/rbdock.cxx#4 $)

>  <Rbt.Library>
libRbt.so (2013.1, Build901 2013/11/27)

>  <Rbt.Parameter_File>
/export/apps/rDock/src/rDock_2013.1_src/data/scripts/dock_solv.prm

>  <Rbt.Receptor>
prm/pocket_docking_2.prm

>  <SCORE>
-28.1252

>  <SCORE.INTER>
-27.5071

>  <SCORE.INTER.CONST>
1

>  <SCORE.INTER.POLAR>
0

>  <SCORE.INTER.ROT>
7

>  <SCORE.INTER.SOLV>
17.7272

>  <SCORE.INTER.VDW>
-32.5138

>  <SCORE.INTER.norm>
-1.05796

>  <SCORE.INTRA>
-0.618144

>  <SCORE.INTRA.DIHEDRAL>
2.30068

>  <SCORE.INTRA.DIHEDRAL.0>
4.37896

>  <SCORE.INTRA.POLAR>
0

>  <SCORE.INTRA.POLAR.0>
0

>  <SCORE.INTRA.REPUL>
0

>  <SCORE.INTRA.REPUL.0>
0

>  <SCORE.INTRA.SOLV>
-0.0798251

>  <SCORE.INTRA.SOLV.lig_0>
-50.5538

>  <SCORE.INTRA.VDW>
-1.72857

>  <SCORE.INTRA.VDW.0>
-1.30673

>  <SCORE.INTRA.norm>
-0.0237748

>  <SCORE.RESTR>
0

>  <SCORE.RESTR.CAVITY>
0

>  <SCORE.RESTR.norm>
0

>  <SCORE.SYSTEM>
0

>  <SCORE.SYSTEM.CONST>
0

>  <SCORE.SYSTEM.DIHEDRAL>
0

>  <SCORE.SYSTEM.SOLV>
0

>  <SCORE.SYSTEM.norm>
0

>  <SCORE.heavy>
26

>  <SCORE.norm>
-1.08174

>  <RMSD>
2.113

$$$$
ligand
 OpenBabel02271912153D
libRbt.so/2013.1/901 2013/11/27
 26 28  0  0  0  0  0  0  0  0999 V2000
  127.4667   69.6449   -4.9126 N   0  0  0  0  0  0  0  0  0  0  0  0
  126.4018   69.4913   -3.8774 C   0  0  2  0  0  0  0  0  0  0  0  0
  126.5764   70.5054   -2.7836 C   0  0  0  0  0  0  0  0  0  0  0  0
  127.6701   71.0235   -2.5623 O   0  0  0  0  0  0  0  0  0  0  0  0
  126.4415   68.0860   -3.2831 C   0  0  0  0  0  0  0  0  0  0  0  0
  127.8056   67.7087   -2.7135 C   0  0  0  0  0  0  0  0  0  0  0  0
  127.8215   66.0030   -2.2687 S   0  0  0  0  0  0  0  0  0  0  0  0
  129.5291   65.5892   -2.4235 C   0  0  0  0  0  0  0  0  0  0  0  0
  130.3374   66.0695   -1.2194 C   0  0  1  0  0  0  0  0  0  0  0  0
  130.3110   65.0973   -0.1722 O   0  0  0  0  0  0  0  0  0  0  0  0
  131.7921   66.2755   -1.6092 C   0  0  1  0  0  0  0  0  0  0  0  0
  132.2392   67.5590   -1.1622 O   0  0  0  0  0  0  0  0  0  0  0  0
  132.5678   65.1566   -0.9368 C   0  0  1  0  0  0  0  0  0  0  0  0
  133.6409   65.6697   -0.1397 O   0  0  0  0  0  0  0  0  0  0  0  0
  131.5685   64.4215   -0.0513 C   0  0  2  0  0  0  0  0  0  0  0  0
  125.6273   70.8353   -2.0740 O   0  0  0  0  0  0  0  0  0  0  0  0
  128.5167   60.7466   -2.3199 N   0  0  0  0  0  0  0  0  0  0  0  0
  128.2730   62.0554   -2.1065 C   0  0  0  0  0  0  0  0  0  0  0  0
  129.1529   62.8855   -1.5094 N   0  0  0  0  0  0  0  0  0  0  0  0
  130.3633   62.4412   -1.0755 C   0  0  0  0  0  0  0  0  0  0  0  0
  130.6999   61.0206   -1.2749 C   0  0  0  0  0  0  0  0  0  0  0  0
  129.6820   60.1691   -1.9412 C   0  0  0  0  0  0  0  0  0  0  0  0
  129.9142   58.8527   -2.1587 N   0  0  0  0  0  0  0  0  0  0  0  0
  131.9322   60.8386   -0.7704 N   0  0  0  0  0  0  0  0  0  0  0  0
  132.3502   62.0346   -0.2865 C   0  0  0  0  0  0  0  0  0  0  0  0
  131.4204   62.9943   -0.4637 N   0  0  0  0  0  0  0  0  0  0  0  0
  2  1  1  6  0  0  0
  2  3  1  0  0  0  0
  2  5  1  0  0  0  0
  3  4  1  0  0  0  0
  3 16  1  0  0  0  0
  5  6  1  0  0  0  0
  6  7  1  0  0  0  0
  7  8  1  0  0  0  0
  9  8  1  6  0  0  0
  9 10  1  0  0  0  0
  9 11  1  0  0  0  0
 10 15  1  0  0  0  0
 11 12  1  1  0  0  0
 11 13  1  0  0  0  0
 13 14  1  1  0  0  0
 13 15  1  0  0  0  0
 15 26  1  6  0  0  0
 17 18  2  0  0  0  0
 17 22  1  0  0  0  0
 18 19  1  0  0  0  0
 19 20  2  0  0  0  0
 20 21  1  0  0  0  0
 20 26  1  0  0  0  0
 21 22  2  0  0  0  0
 21 24  1  0  0  0  0
 22 23  1  0  0  0  0
 24 25  2  0  0  0  0
 25 26  1  0  0  0  0
M  END
>  <CHROM.1>
-23.15466939,55.27919558,-171.76342219,152.97574058,78.60382869,86.48407455
10.81562865,129.52669463,65.29341675,-1.79160908,2.04488985,-0.42192099,-0.01266322

>  <Name>
ligand

>  <RI>
0

>  <Rbt.Current_Directory>
/home/itssahil/PROJECTS/Mol_Feturizer/Test_systems_manuscript/rnas/3npn

>  <Rbt.Executable>
rbdock ($Id: //depot/dev/client3/rdock/2013.1/src/exe/rbdock.cxx#4 $)

>  <Rbt.Library>
libRbt.so (2013.1, Build901 2013/11/27)

>  <Rbt.Parameter_File>
/export/apps/rDock/src/rDock_2013.1_src/data/scripts/dock_solv.prm

>  <Rbt.Receptor>
prm/pocket_docking_7.prm

>  <SCORE>
-28.9488

>  <SCORE.INTER>
-28.8707

>  <SCORE.INTER.CONST>
1

>  <SCORE.INTER.POLAR>
0

>  <SCORE.INTER.ROT>
7

>  <SCORE.INTER.SOLV>
18.5831

>  <SCORE.INTER.VDW>
-33.7081

>  <SCORE.INTER.norm>
-1.11041

>  <SCORE.INTRA>
-0.0781018

>  <SCORE.INTRA.DIHEDRAL>
2.29677

>  <SCORE.INTRA.DIHEDRAL.0>
4.37896

>  <SCORE.INTRA.POLAR>
0

>  <SCORE.INTRA.POLAR.0>
0

>  <SCORE.INTRA.REPUL>
0

>  <SCORE.INTRA.REPUL.0>
0

>  <SCORE.INTRA.SOLV>
-0.0721437

>  <SCORE.INTRA.SOLV.lig_0>
-50.5538

>  <SCORE.INTRA.VDW>
-1.19042

>  <SCORE.INTRA.VDW.0>
-1.30673

>  <SCORE.INTRA.norm>
-0.00300392

>  <SCORE.RESTR>
0

>  <SCORE.RESTR.CAVITY>
0

>  <SCORE.RESTR.norm>
0

>  <SCORE.SYSTEM>
0

>  <SCORE.SYSTEM.CONST>
0

>  <SCORE.SYSTEM.DIHEDRAL>
0

>  <SCORE.SYSTEM.SOLV>
0

>  <SCORE.SYSTEM.norm>
0

>  <SCORE.heavy>
26

>  <SCORE.norm>
-1.11341

>  <RMSD>
2.115

$$$$
ligand
 OpenBabel02271912153D
libRbt.so/2013.1/901 2013/11/27
 26 28  0  0  0  0  0  0  0  0999 V2000
  125.9298   67.5258   -3.0475 N   0  0  0  0  0  0  0  0  0  0  0  0
  126.5728   68.7639   -2.5156 C   0  0  2  0  0  0  0  0  0  0  0  0
  126.2919   69.9342   -3.4137 C   0  0  0  0  0  0  0  0  0  0  0  0
  126.4333   69.8514   -4.6331 O   0  0  0  0  0  0  0  0  0  0  0  0
  128.0810   68.5645   -2.3920 C   0  0  0  0  0  0  0  0  0  0  0  0
  128.4731   67.5828   -1.2920 C   0  0  0  0  0  0  0  0  0  0  0  0
  128.3166   65.9278   -1.8782 S   0  0  0  0  0  0  0  0  0  0  0  0
  129.9898   65.4918   -2.2269 C   0  0  0  0  0  0  0  0  0  0  0  0
  130.9049   65.7687   -1.0354 C   0  0  1  0  0  0  0  0  0  0  0  0
  130.7798   64.7397   -0.0516 O   0  0  0  0  0  0  0  0  0  0  0  0
  132.3579   65.7942   -1.4814 C   0  0  1  0  0  0  0  0  0  0  0  0
  133.0021   66.9678   -0.9765 O   0  0  0  0  0  0  0  0  0  0  0  0
  132.9902   64.5333   -0.9193 C   0  0  1  0  0  0  0  0  0  0  0  0
  134.1561   64.8335   -0.1443 O   0  0  0  0  0  0  0  0  0  0  0  0
  131.9307   63.8867   -0.0346 C   0  0  2  0  0  0  0  0  0  0  0  0
  125.9217   71.0107   -2.9475 O   0  0  0  0  0  0  0  0  0  0  0  0
  128.2926   60.8428   -2.3719 N   0  0  0  0  0  0  0  0  0  0  0  0
  128.2476   62.1546   -2.0636 C   0  0  0  0  0  0  0  0  0  0  0  0
  129.2614   62.8096   -1.4611 N   0  0  0  0  0  0  0  0  0  0  0  0
  130.4130   62.1711   -1.1190 C   0  0  0  0  0  0  0  0  0  0  0  0
  130.5344   60.7349   -1.4252 C   0  0  0  0  0  0  0  0  0  0  0  0
  129.3782   60.0829   -2.0910 C   0  0  0  0  0  0  0  0  0  0  0  0
  129.4104   58.7655   -2.4033 N   0  0  0  0  0  0  0  0  0  0  0  0
  131.7480   60.3474   -0.9973 N   0  0  0  0  0  0  0  0  0  0  0  0
  132.3526   61.4363   -0.4606 C   0  0  0  0  0  0  0  0  0  0  0  0
  131.5630   62.5267   -0.5285 N   0  0  0  0  0  0  0  0  0  0  0  0
  2  1  1  6  0  0  0
  2  3  1  0  0  0  0
  2  5  1  0  0  0  0
  3  4  1  0  0  0  0
  3 16  1  0  0  0  0
  5  6  1  0  0  0  0
  6  7  1  0  0  0  0
  7  8  1  0  0  0  0
  9  8  1  6  0  0  0
  9 10  1  0  0  0  0
  9 11  1  0  0  0  0
 10 15  1  0  0  0  0
 11 12  1  1  0  0  0
 11 13  1  0  0  0  0
 13 14  1  1  0  0  0
 13 15  1  0  0  0  0
 15 26  1  6  0  0  0
 17 18  2  0  0  0  0
 17 22  1  0  0  0  0
 18 19  1  0  0  0  0
 19 20  2  0  0  0  0
 20 21  1  0  0  0  0
 20 26  1  0  0  0  0
 21 22  2  0  0  0  0
 21 24  1  0  0  0  0
 22 23  1  0  0  0  0
 24 25  2  0  0  0  0
 25 26  1  0  0  0  0
M  END
>  <CHROM.1>
-47.32213889,-69.38400236,81.50520031,101.77464894,51.78860380,78.59241958
10.63229209,129.67387947,64.91327559,-1.70380527,2.10777996,-0.38489318,-0.01465576

>  <Name>
ligand

>  <RI>
0

>  <Rbt.Current_Directory>
/home/itssahil/PROJECTS/Mol_Feturizer/Test_systems_manuscript/rnas/3npn

>  <Rbt.Executable>
rbdock ($Id: //depot/dev/client3/rdock/2013.1/src/exe/rbdock.cxx#4 $)

>  <Rbt.Library>
libRbt.so (2013.1, Build901 2013/11/27)

>  <Rbt.Parameter_File>
/export/apps/rDock/src/rDock_2013.1_src/data/scripts/dock_solv.prm

>  <Rbt.Receptor>
prm/pocket_docking_4.prm

>  <SCORE>
-25.2603

>  <SCORE.INTER>
-25.9799

>  <SCORE.INTER.CONST>
1

>  <SCORE.INTER.POLAR>
0

>  <SCORE.INTER.ROT>
7

>  <SCORE.INTER.SOLV>
23.3969

>  <SCORE.INTER.VDW>
-33.3855

>  <SCORE.INTER.norm>
-0.999225

>  <SCORE.INTRA>
0.719517

>  <SCORE.INTRA.DIHEDRAL>
3.3475

>  <SCORE.INTRA.DIHEDRAL.0>
4.37896

>  <SCORE.INTRA.POLAR>
0

>  <SCORE.INTRA.POLAR.0>
0

>  <SCORE.INTRA.REPUL>
0

>  <SCORE.INTRA.REPUL.0>
0

>  <SCORE.INTRA.SOLV>
1.09355

>  <SCORE.INTRA.SOLV.lig_0>
-50.5538

>  <SCORE.INTRA.VDW>
-1.50101

>  <SCORE.INTRA.VDW.0>
-1.30673

>  <SCORE.INTRA.norm>
0.0276737

>  <SCORE.RESTR>
0

>  <SCORE.RESTR.CAVITY>
0

>  <SCORE.RESTR.norm>
0

>  <SCORE.SYSTEM>
0

>  <SCORE.SYSTEM.CONST>
0

>  <SCORE.SYSTEM.DIHEDRAL>
0

>  <SCORE.SYSTEM.SOLV>
0

>  <SCORE.SYSTEM.norm>
0

>  <SCORE.heavy>
26

>  <SCORE.norm>
-0.971552

>  <RMSD>
2.132

$$$$
ligand
 OpenBabel02271912153D
libRbt.so/2013.1/901 2013/11/27
 26 28  0  0  0  0  0  0  0  0999 V2000
  125.6689   69.0108   -2.4406 N   0  0  0  0  0  0  0  0  0  0  0  0
  126.9359   69.7076   -2.8127 C   0  0  2  0  0  0  0  0  0  0  0  0
  126.7151   70.6161   -3.9879 C   0  0  0  0  0  0  0  0  0  0  0  0
  126.8832   71.8314   -3.8957 O   0  0  0  0  0  0  0  0  0  0  0  0
  128.0199   68.6878   -3.1513 C   0  0  0  0  0  0  0  0  0  0  0  0
  127.5471   67.5978   -4.1082 C   0  0  0  0  0  0  0  0  0  0  0  0
  128.8735   66.4930   -4.4651 S   0  0  0  0  0  0  0  0  0  0  0  0
  128.8975   65.4592   -3.0361 C   0  0  0  0  0  0  0  0  0  0  0  0
  129.4313   66.2011   -1.8120 C   0  0  1  0  0  0  0  0  0  0  0  0
  129.4782   65.3349   -0.6762 O   0  0  0  0  0  0  0  0  0  0  0  0
  130.8480   66.6893   -2.0677 C   0  0  1  0  0  0  0  0  0  0  0  0
  130.9581   68.0716   -1.7150 O   0  0  0  0  0  0  0  0  0  0  0  0
  131.7502   65.8263   -1.2035 C   0  0  1  0  0  0  0  0  0  0  0  0
  132.5847   66.6254   -0.3577 O   0  0  0  0  0  0  0  0  0  0  0  0
  130.8240   64.9638   -0.3541 C   0  0  2  0  0  0  0  0  0  0  0  0
  126.3497   70.1648   -5.0724 O   0  0  0  0  0  0  0  0  0  0  0  0
  128.7893   60.4692   -2.2574 N   0  0  0  0  0  0  0  0  0  0  0  0
  128.2361   61.6958   -2.1721 C   0  0  0  0  0  0  0  0  0  0  0  0
  128.8787   62.7646   -1.6578 N   0  0  0  0  0  0  0  0  0  0  0  0
  130.1494   62.6656   -1.1821 C   0  0  0  0  0  0  0  0  0  0  0  0
  130.8190   61.3544   -1.2426 C   0  0  0  0  0  0  0  0  0  0  0  0
  130.0492   60.2254   -1.8237 C   0  0  0  0  0  0  0  0  0  0  0  0
  130.5930   58.9883   -1.9125 N   0  0  0  0  0  0  0  0  0  0  0  0
  132.0469   61.5206   -0.7221 N   0  0  0  0  0  0  0  0  0  0  0  0
  132.1566   62.8219   -0.3562 C   0  0  0  0  0  0  0  0  0  0  0  0
  131.0297   63.5105   -0.6262 N   0  0  0  0  0  0  0  0  0  0  0  0
  2  1  1  6  0  0  0
  2  3  1  0  0  0  0
  2  5  1  0  0  0  0
  3  4  1  0  0  0  0
  3 16  1  0  0  0  0
  5  6  1  0  0  0  0
  6  7  1  0  0  0  0
  7  8  1  0  0  0  0
  9  8  1  6  0  0  0
  9 10  1  0  0  0  0
  9 11  1  0  0  0  0
 10 15  1  0  0  0  0
 11 12  1  1  0  0  0
 11 13  1  0  0  0  0
 13 14  1  1  0  0  0
 13 15  1  0  0  0  0
 15 26  1  6  0  0  0
 17 18  2  0  0  0  0
 17 22  1  0  0  0  0
 18 19  1  0  0  0  0
 19 20  2  0  0  0  0
 20 21  1  0  0  0  0
 20 26  1  0  0  0  0
 21 22  2  0  0  0  0
 21 24  1  0  0  0  0
 22 23  1  0  0  0  0
 24 25  2  0  0  0  0
 25 26  1  0  0  0  0
M  END
>  <CHROM.1>
117.97751675,47.91251631,178.77157482,79.54663797,-71.86575036,-178.33527075
4.74222730,129.35821378,65.54394128,-2.25511271,2.02756493,-0.58268208,-0.02447171

>  <Name>
ligand

>  <RI>
0

>  <Rbt.Current_Directory>
/home/itssahil/PROJECTS/Mol_Feturizer/Test_systems_manuscript/rnas/3npn

>  <Rbt.Executable>
rbdock ($Id: //depot/dev/client3/rdock/2013.1/src/exe/rbdock.cxx#4 $)

>  <Rbt.Library>
libRbt.so (2013.1, Build901 2013/11/27)

>  <Rbt.Parameter_File>
/export/apps/rDock/src/rDock_2013.1_src/data/scripts/dock_solv.prm

>  <Rbt.Receptor>
prm/pocket_docking_3.prm

>  <SCORE>
-26.8226

>  <SCORE.INTER>
-26.0677

>  <SCORE.INTER.CONST>
1

>  <SCORE.INTER.POLAR>
0

>  <SCORE.INTER.ROT>
7

>  <SCORE.INTER.SOLV>
19.2846

>  <SCORE.INTER.VDW>
-32.0733

>  <SCORE.INTER.norm>
-1.0026

>  <SCORE.INTRA>
-0.754949

>  <SCORE.INTRA.DIHEDRAL>
-0.334094

>  <SCORE.INTRA.DIHEDRAL.0>
4.37896

>  <SCORE.INTRA.POLAR>
0

>  <SCORE.INTRA.POLAR.0>
0

>  <SCORE.INTRA.REPUL>
0

>  <SCORE.INTRA.REPUL.0>
0

>  <SCORE.INTRA.SOLV>
0.335185

>  <SCORE.INTRA.SOLV.lig_0>
-50.5538

>  <SCORE.INTRA.VDW>
-0.755495

>  <SCORE.INTRA.VDW.0>
-1.30673

>  <SCORE.INTRA.norm>
-0.0290365

>  <SCORE.RESTR>
0

>  <SCORE.RESTR.CAVITY>
0

>  <SCORE.RESTR.norm>
0

>  <SCORE.SYSTEM>
0

>  <SCORE.SYSTEM.CONST>
0

>  <SCORE.SYSTEM.DIHEDRAL>
0

>  <SCORE.SYSTEM.SOLV>
0

>  <SCORE.SYSTEM.norm>
0

>  <SCORE.heavy>
26

>  <SCORE.norm>
-1.03164

>  <RMSD>
2.143

$$$$
ligand
 OpenBabel02271912153D
libRbt.so/2013.1/901 2013/11/27
 26 28  0  0  0  0  0  0  0  0999 V2000
  125.8683   67.5606   -3.0775 N   0  0  0  0  0  0  0  0  0  0  0  0
  126.5124   68.7851   -2.5163 C   0  0  2  0  0  0  0  0  0  0  0  0
  126.2563   69.9710   -3.4013 C   0  0  0  0  0  0  0  0  0  0  0  0
  126.3557   69.8878   -4.6247 O   0  0  0  0  0  0  0  0  0  0  0  0
  128.0166   68.5711   -2.3705 C   0  0  0  0  0  0  0  0  0  0  0  0
  128.3817   67.5639   -1.2843 C   0  0  0  0  0  0  0  0  0  0  0  0
  128.3422   65.9288   -1.9414 S   0  0  0  0  0  0  0  0  0  0  0  0
  130.0489   65.6041   -2.2466 C   0  0  0  0  0  0  0  0  0  0  0  0
  130.9067   65.8916   -1.0156 C   0  0  1  0  0  0  0  0  0  0  0  0
  130.7391   64.8684   -0.0320 O   0  0  0  0  0  0  0  0  0  0  0  0
  132.3788   65.9192   -1.3937 C   0  0  1  0  0  0  0  0  0  0  0  0
  132.9951   67.0981   -0.8669 O   0  0  0  0  0  0  0  0  0  0  0  0
  132.9881   64.6639   -0.7946 C   0  0  1  0  0  0  0  0  0  0  0  0
  134.1157   64.9730    0.0319 O   0  0  0  0  0  0  0  0  0  0  0  0
  131.8906   64.0194    0.0440 C   0  0  2  0  0  0  0  0  0  0  0  0
  125.9497   71.0608   -2.9200 O   0  0  0  0  0  0  0  0  0  0  0  0
  128.3297   60.9247   -2.3450 N   0  0  0  0  0  0  0  0  0  0  0  0
  128.2603   62.2348   -2.0342 C   0  0  0  0  0  0  0  0  0  0  0  0
  129.2562   62.9041   -1.4177 N   0  0  0  0  0  0  0  0  0  0  0  0
  130.4134   62.2830   -1.0631 C   0  0  0  0  0  0  0  0  0  0  0  0
  130.5612   60.8497   -1.3713 C   0  0  0  0  0  0  0  0  0  0  0  0
  129.4237   60.1813   -2.0527 C   0  0  0  0  0  0  0  0  0  0  0  0
  129.4806   58.8654   -2.3678 N   0  0  0  0  0  0  0  0  0  0  0  0
  131.7756   60.4802   -0.9295 N   0  0  0  0  0  0  0  0  0  0  0  0
  132.3563   61.5771   -0.3828 C   0  0  0  0  0  0  0  0  0  0  0  0
  131.5504   62.6551   -0.4577 N   0  0  0  0  0  0  0  0  0  0  0  0
  2  1  1  6  0  0  0
  2  3  1  0  0  0  0
  2  5  1  0  0  0  0
  3  4  1  0  0  0  0
  3 16  1  0  0  0  0
  5  6  1  0  0  0  0
  6  7  1  0  0  0  0
  7  8  1  0  0  0  0
  9  8  1  6  0  0  0
  9 10  1  0  0  0  0
  9 11  1  0  0  0  0
 10 15  1  0  0  0  0
 11 12  1  1  0  0  0
 11 13  1  0  0  0  0
 13 14  1  1  0  0  0
 13 15  1  0  0  0  0
 15 26  1  6  0  0  0
 17 18  2  0  0  0  0
 17 22  1  0  0  0  0
 18 19  1  0  0  0  0
 19 20  2  0  0  0  0
 20 21  1  0  0  0  0
 20 26  1  0  0  0  0
 21 22  2  0  0  0  0
 21 24  1  0  0  0  0
 22 23  1  0  0  0  0
 24 25  2  0  0  0  0
 25 26  1  0  0  0  0
M  END
>  <CHROM.1>
-43.80014943,-69.06523173,85.80988015,99.84014132,51.39958212,74.55245186
8.47457427,129.66759078,64.99623648,-1.66698284,2.12360066,-0.40095129,-0.01012302

>  <Name>
ligand

>  <RI>
0

>  <Rbt.Current_Directory>
/home/itssahil/PROJECTS/Mol_Feturizer/Test_systems_manuscript/rnas/3npn

>  <Rbt.Executable>
rbdock ($Id: //depot/dev/client3/rdock/2013.1/src/exe/rbdock.cxx#4 $)

>  <Rbt.Library>
libRbt.so (2013.1, Build901 2013/11/27)

>  <Rbt.Parameter_File>
/export/apps/rDock/src/rDock_2013.1_src/data/scripts/dock_solv.prm

>  <Rbt.Receptor>
prm/pocket_docking_4.prm

>  <SCORE>
-25.2732

>  <SCORE.INTER>
-25.7952

>  <SCORE.INTER.CONST>
1

>  <SCORE.INTER.POLAR>
0

>  <SCORE.INTER.ROT>
7

>  <SCORE.INTER.SOLV>
23.3019

>  <SCORE.INTER.VDW>
-33.2308

>  <SCORE.INTER.norm>
-0.992124

>  <SCORE.INTRA>
0.522001

>  <SCORE.INTRA.DIHEDRAL>
3.39236

>  <SCORE.INTRA.DIHEDRAL.0>
4.37896

>  <SCORE.INTRA.POLAR>
0

>  <SCORE.INTRA.POLAR.0>
0

>  <SCORE.INTRA.REPUL>
0

>  <SCORE.INTRA.REPUL.0>
0

>  <SCORE.INTRA.SOLV>
1.00092

>  <SCORE.INTRA.SOLV.lig_0>
-50.5538

>  <SCORE.INTRA.VDW>
-1.67464

>  <SCORE.INTRA.VDW.0>
-1.30673

>  <SCORE.INTRA.norm>
0.020077

>  <SCORE.RESTR>
0

>  <SCORE.RESTR.CAVITY>
0

>  <SCORE.RESTR.norm>
0

>  <SCORE.SYSTEM>
0

>  <SCORE.SYSTEM.CONST>
0

>  <SCORE.SYSTEM.DIHEDRAL>
0

>  <SCORE.SYSTEM.SOLV>
0

>  <SCORE.SYSTEM.norm>
0

>  <SCORE.heavy>
26

>  <SCORE.norm>
-0.972047

>  <RMSD>
2.144

$$$$
ligand
 OpenBabel02271912153D
libRbt.so/2013.1/901 2013/11/27
 26 28  0  0  0  0  0  0  0  0999 V2000
  127.3159   69.5440   -5.0361 N   0  0  0  0  0  0  0  0  0  0  0  0
  127.2471   69.7502   -3.5589 C   0  0  2  0  0  0  0  0  0  0  0  0
  128.0165   70.9762   -3.1590 C   0  0  0  0  0  0  0  0  0  0  0  0
  128.3724   71.8069   -3.9937 O   0  0  0  0  0  0  0  0  0  0  0  0
  127.8088   68.5331   -2.8289 C   0  0  0  0  0  0  0  0  0  0  0  0
  127.1501   67.2213   -3.2447 C   0  0  0  0  0  0  0  0  0  0  0  0
  127.6676   65.9213   -2.1724 S   0  0  0  0  0  0  0  0  0  0  0  0
  129.3994   65.8333   -2.4956 C   0  0  0  0  0  0  0  0  0  0  0  0
  130.2211   66.3238   -1.3049 C   0  0  1  0  0  0  0  0  0  0  0  0
  130.2208   65.3532   -0.2558 O   0  0  0  0  0  0  0  0  0  0  0  0
  131.6675   66.5439   -1.7174 C   0  0  1  0  0  0  0  0  0  0  0  0
  132.1083   67.8327   -1.2793 O   0  0  0  0  0  0  0  0  0  0  0  0
  132.4648   65.4342   -1.0553 C   0  0  1  0  0  0  0  0  0  0  0  0
  133.5448   65.9595   -0.2756 O   0  0  0  0  0  0  0  0  0  0  0  0
  131.4868   64.6904   -0.1533 C   0  0  2  0  0  0  0  0  0  0  0  0
  128.3185   71.1738   -1.9830 O   0  0  0  0  0  0  0  0  0  0  0  0
  128.3877   60.9500   -2.2436 N   0  0  0  0  0  0  0  0  0  0  0  0
  128.1271   62.2522   -2.0107 C   0  0  0  0  0  0  0  0  0  0  0  0
  129.0225   63.1014   -1.4658 N   0  0  0  0  0  0  0  0  0  0  0  0
  130.2674   62.6848   -1.1088 C   0  0  0  0  0  0  0  0  0  0  0  0
  130.6241   61.2729   -1.3338 C   0  0  0  0  0  0  0  0  0  0  0  0
  129.5873   60.3992   -1.9394 C   0  0  0  0  0  0  0  0  0  0  0  0
  129.8363   59.0892   -2.1757 N   0  0  0  0  0  0  0  0  0  0  0  0
  131.8891   61.1188   -0.9068 N   0  0  0  0  0  0  0  0  0  0  0  0
  132.3080   62.3231   -0.4450 C   0  0  0  0  0  0  0  0  0  0  0  0
  131.3470   63.2612   -0.5611 N   0  0  0  0  0  0  0  0  0  0  0  0
  2  1  1  6  0  0  0
  2  3  1  0  0  0  0
  2  5  1  0  0  0  0
  3  4  1  0  0  0  0
  3 16  1  0  0  0  0
  5  6  1  0  0  0  0
  6  7  1  0  0  0  0
  7  8  1  0  0  0  0
  9  8  1  6  0  0  0
  9 10  1  0  0  0  0
  9 11  1  0  0  0  0
 10 15  1  0  0  0  0
 11 12  1  1  0  0  0
 11 13  1  0  0  0  0
 13 14  1  1  0  0  0
 13 15  1  0  0  0  0
 15 26  1  6  0  0  0
 17 18  2  0  0  0  0
 17 22  1  0  0  0  0
 18 19  1  0  0  0  0
 19 20  2  0  0  0  0
 20 21  1  0  0  0  0
 20 26  1  0  0  0  0
 21 22  2  0  0  0  0
 21 24  1  0  0  0  0
 22 23  1  0  0  0  0
 24 25  2  0  0  0  0
 25 26  1  0  0  0  0
M  END
>  <CHROM.1>
14.55698903,-54.05158836,-170.72690317,-63.89836676,110.39378488,74.55192286
8.05066482,129.68998265,65.51782947,-1.89017698,1.87774981,-0.46021818,-0.08579924

>  <Name>
ligand

>  <RI>
0

>  <Rbt.Current_Directory>
/home/itssahil/PROJECTS/Mol_Feturizer/Test_systems_manuscript/rnas/3npn

>  <Rbt.Executable>
rbdock ($Id: //depot/dev/client3/rdock/2013.1/src/exe/rbdock.cxx#4 $)

>  <Rbt.Library>
libRbt.so (2013.1, Build901 2013/11/27)

>  <Rbt.Parameter_File>
/export/apps/rDock/src/rDock_2013.1_src/data/scripts/dock_solv.prm

>  <Rbt.Receptor>
prm/pocket_docking_4.prm

>  <SCORE>
-24.9938

>  <SCORE.INTER>
-24.9355

>  <SCORE.INTER.CONST>
1

>  <SCORE.INTER.POLAR>
0

>  <SCORE.INTER.ROT>
7

>  <SCORE.INTER.SOLV>
18.9723

>  <SCORE.INTER.VDW>
-31.2144

>  <SCORE.INTER.norm>
-0.959057

>  <SCORE.INTRA>
-0.0583526

>  <SCORE.INTRA.DIHEDRAL>
1.75022

>  <SCORE.INTRA.DIHEDRAL.0>
4.37896

>  <SCORE.INTRA.POLAR>
0

>  <SCORE.INTRA.POLAR.0>
0

>  <SCORE.INTRA.REPUL>
0

>  <SCORE.INTRA.REPUL.0>
0

>  <SCORE.INTRA.SOLV>
-0.0651579

>  <SCORE.INTRA.SOLV.lig_0>
-50.5538

>  <SCORE.INTRA.VDW>
-0.900881

>  <SCORE.INTRA.VDW.0>
-1.30673

>  <SCORE.INTRA.norm>
-0.00224433

>  <SCORE.RESTR>
0

>  <SCORE.RESTR.CAVITY>
0

>  <SCORE.RESTR.norm>
0

>  <SCORE.SYSTEM>
0

>  <SCORE.SYSTEM.CONST>
0

>  <SCORE.SYSTEM.DIHEDRAL>
0

>  <SCORE.SYSTEM.SOLV>
0

>  <SCORE.SYSTEM.norm>
0

>  <SCORE.heavy>
26

>  <SCORE.norm>
-0.961301

>  <RMSD>
2.145

$$$$
ligand
 OpenBabel02271912153D
libRbt.so/2013.1/901 2013/11/27
 26 28  0  0  0  0  0  0  0  0999 V2000
  125.9263   70.6547   -3.4272 N   0  0  0  0  0  0  0  0  0  0  0  0
  126.9600   69.9888   -2.5802 C   0  0  2  0  0  0  0  0  0  0  0  0
  128.3274   70.5238   -2.8951 C   0  0  0  0  0  0  0  0  0  0  0  0
  129.1936   70.6129   -2.0260 O   0  0  0  0  0  0  0  0  0  0  0  0
  126.9366   68.4796   -2.8069 C   0  0  0  0  0  0  0  0  0  0  0  0
  127.8720   67.7137   -1.8764 C   0  0  0  0  0  0  0  0  0  0  0  0
  127.8523   65.9982   -2.2814 S   0  0  0  0  0  0  0  0  0  0  0  0
  129.5690   65.6325   -2.4558 C   0  0  0  0  0  0  0  0  0  0  0  0
  130.3698   66.0902   -1.2381 C   0  0  1  0  0  0  0  0  0  0  0  0
  130.3166   65.1094   -0.1999 O   0  0  0  0  0  0  0  0  0  0  0  0
  131.8321   66.2778   -1.6089 C   0  0  1  0  0  0  0  0  0  0  0  0
  132.2928   67.5506   -1.1452 O   0  0  0  0  0  0  0  0  0  0  0  0
  132.5830   65.1417   -0.9374 C   0  0  1  0  0  0  0  0  0  0  0  0
  133.6540   65.6317   -0.1231 O   0  0  0  0  0  0  0  0  0  0  0  0
  131.5624   64.4139   -0.0702 C   0  0  2  0  0  0  0  0  0  0  0  0
  128.6109   70.8962   -4.0327 O   0  0  0  0  0  0  0  0  0  0  0  0
  128.4434   60.7826   -2.3174 N   0  0  0  0  0  0  0  0  0  0  0  0
  128.2111   62.0897   -2.0825 C   0  0  0  0  0  0  0  0  0  0  0  0
  129.1079   62.9080   -1.4945 N   0  0  0  0  0  0  0  0  0  0  0  0
  130.3252   62.4525   -1.0924 C   0  0  0  0  0  0  0  0  0  0  0  0
  130.6501   61.0329   -1.3167 C   0  0  0  0  0  0  0  0  0  0  0  0
  129.6137   60.1947   -1.9712 C   0  0  0  0  0  0  0  0  0  0  0  0
  129.8343   58.8800   -2.2101 N   0  0  0  0  0  0  0  0  0  0  0  0
  131.8921   60.8385   -0.8414 N   0  0  0  0  0  0  0  0  0  0  0  0
  132.3266   62.0263   -0.3519 C   0  0  0  0  0  0  0  0  0  0  0  0
  131.3981   62.9928   -0.4969 N   0  0  0  0  0  0  0  0  0  0  0  0
  2  1  1  6  0  0  0
  2  3  1  0  0  0  0
  2  5  1  0  0  0  0
  3  4  1  0  0  0  0
  3 16  1  0  0  0  0
  5  6  1  0  0  0  0
  6  7  1  0  0  0  0
  7  8  1  0  0  0  0
  9  8  1  6  0  0  0
  9 10  1  0  0  0  0
  9 11  1  0  0  0  0
 10 15  1  0  0  0  0
 11 12  1  1  0  0  0
 11 13  1  0  0  0  0
 13 14  1  1  0  0  0
 13 15  1  0  0  0  0
 15 26  1  6  0  0  0
 17 18  2  0  0  0  0
 17 22  1  0  0  0  0
 18 19  1  0  0  0  0
 19 20  2  0  0  0  0
 20 21  1  0  0  0  0
 20 26  1  0  0  0  0
 21 22  2  0  0  0  0
 21 24  1  0  0  0  0
 22 23  1  0  0  0  0
 24 25  2  0  0  0  0
 25 26  1  0  0  0  0
M  END
>  <CHROM.1>
147.26248170,-174.37380110,-176.41615651,128.18050752,51.96413695,83.62207984
8.80118261,129.75027556,65.35425783,-1.71899199,1.90033012,-0.39156776,-0.04997538

>  <Name>
ligand

>  <RI>
0

>  <Rbt.Current_Directory>
/home/itssahil/PROJECTS/Mol_Feturizer/Test_systems_manuscript/rnas/3npn

>  <Rbt.Executable>
rbdock ($Id: //depot/dev/client3/rdock/2013.1/src/exe/rbdock.cxx#4 $)

>  <Rbt.Library>
libRbt.so (2013.1, Build901 2013/11/27)

>  <Rbt.Parameter_File>
/export/apps/rDock/src/rDock_2013.1_src/data/scripts/dock_solv.prm

>  <Rbt.Receptor>
prm/pocket_docking_2.prm

>  <SCORE>
-25.3761

>  <SCORE.INTER>
-24.9979

>  <SCORE.INTER.CONST>
1

>  <SCORE.INTER.POLAR>
0

>  <SCORE.INTER.ROT>
7

>  <SCORE.INTER.SOLV>
21.3837

>  <SCORE.INTER.VDW>
-32.0599

>  <SCORE.INTER.norm>
-0.961459

>  <SCORE.INTRA>
-0.390077

>  <SCORE.INTRA.DIHEDRAL>
2.63594

>  <SCORE.INTRA.DIHEDRAL.0>
4.37896

>  <SCORE.INTRA.POLAR>
0

>  <SCORE.INTRA.POLAR.0>
0

>  <SCORE.INTRA.REPUL>
0

>  <SCORE.INTRA.REPUL.0>
0

>  <SCORE.INTRA.SOLV>
-0.804041

>  <SCORE.INTRA.SOLV.lig_0>
-50.5538

>  <SCORE.INTRA.VDW>
-1.30603

>  <SCORE.INTRA.VDW.0>
-1.30673

>  <SCORE.INTRA.norm>
-0.015003

>  <SCORE.RESTR>
0.0119335

>  <SCORE.RESTR.CAVITY>
0.0119335

>  <SCORE.RESTR.norm>
0.000458981

>  <SCORE.SYSTEM>
0

>  <SCORE.SYSTEM.CONST>
0

>  <SCORE.SYSTEM.DIHEDRAL>
0

>  <SCORE.SYSTEM.SOLV>
0

>  <SCORE.SYSTEM.norm>
0

>  <SCORE.heavy>
26

>  <SCORE.norm>
-0.976003

>  <RMSD>
2.146

$$$$
ligand
 OpenBabel02271912153D
libRbt.so/2013.1/901 2013/11/27
 26 28  0  0  0  0  0  0  0  0999 V2000
  127.5401   69.1213   -4.6508 N   0  0  0  0  0  0  0  0  0  0  0  0
  126.4320   68.9622   -3.6628 C   0  0  2  0  0  0  0  0  0  0  0  0
  126.5122   70.0221   -2.6020 C   0  0  0  0  0  0  0  0  0  0  0  0
  125.5277   70.3295   -1.9312 O   0  0  0  0  0  0  0  0  0  0  0  0
  126.4975   67.5825   -3.0132 C   0  0  0  0  0  0  0  0  0  0  0  0
  127.8206   67.3100   -2.3043 C   0  0  0  0  0  0  0  0  0  0  0  0
  128.1097   65.5734   -2.2156 S   0  0  0  0  0  0  0  0  0  0  0  0
  129.8555   65.4699   -2.4452 C   0  0  0  0  0  0  0  0  0  0  0  0
  130.6157   65.8919   -1.1892 C   0  0  1  0  0  0  0  0  0  0  0  0
  130.4737   64.9119   -0.1587 O   0  0  0  0  0  0  0  0  0  0  0  0
  132.1003   66.0207   -1.4898 C   0  0  1  0  0  0  0  0  0  0  0  0
  132.5898   67.2726   -0.9997 O   0  0  0  0  0  0  0  0  0  0  0  0
  132.7719   64.8534   -0.7882 C   0  0  1  0  0  0  0  0  0  0  0  0
  133.8221   65.2977    0.0777 O   0  0  0  0  0  0  0  0  0  0  0  0
  131.6826   64.1660    0.0268 C   0  0  2  0  0  0  0  0  0  0  0  0
  127.5668   70.6170   -2.3852 O   0  0  0  0  0  0  0  0  0  0  0  0
  128.4754   60.6418   -2.2662 N   0  0  0  0  0  0  0  0  0  0  0  0
  128.2782   61.9528   -2.0211 C   0  0  0  0  0  0  0  0  0  0  0  0
  129.1945   62.7409   -1.4218 N   0  0  0  0  0  0  0  0  0  0  0  0
  130.3967   62.2484   -1.0181 C   0  0  0  0  0  0  0  0  0  0  0  0
  130.6833   60.8223   -1.2532 C   0  0  0  0  0  0  0  0  0  0  0  0
  129.6273   60.0188   -1.9197 C   0  0  0  0  0  0  0  0  0  0  0  0
  129.8127   58.7006   -2.1689 N   0  0  0  0  0  0  0  0  0  0  0  0
  131.9171   60.5896   -0.7738 N   0  0  0  0  0  0  0  0  0  0  0  0
  132.3819   61.7607   -0.2720 C   0  0  0  0  0  0  0  0  0  0  0  0
  131.4812   62.7536   -0.4130 N   0  0  0  0  0  0  0  0  0  0  0  0
  2  1  1  6  0  0  0
  2  3  1  0  0  0  0
  2  5  1  0  0  0  0
  3  4  1  0  0  0  0
  3 16  1  0  0  0  0
  5  6  1  0  0  0  0
  6  7  1  0  0  0  0
  7  8  1  0  0  0  0
  9  8  1  6  0  0  0
  9 10  1  0  0  0  0
  9 11  1  0  0  0  0
 10 15  1  0  0  0  0
 11 12  1  1  0  0  0
 11 13  1  0  0  0  0
 13 14  1  1  0  0  0
 13 15  1  0  0  0  0
 15 26  1  6  0  0  0
 17 18  2  0  0  0  0
 17 22  1  0  0  0  0
 18 19  1  0  0  0  0
 19 20  2  0  0  0  0
 20 21  1  0  0  0  0
 20 26  1  0  0  0  0
 21 22  2  0  0  0  0
 21 24  1  0  0  0  0
 22 23  1  0  0  0  0
 24 25  2  0  0  0  0
 25 26  1  0  0  0  0
M  END
>  <CHROM.1>
158.64093692,58.16703303,-155.24501765,143.22277783,75.45418230,71.01374542
6.23301586,129.61813245,64.99332538,-1.68295443,2.06851854,-0.39935831,-0.00325613

>  <Name>
ligand

>  <RI>
0

>  <Rbt.Current_Directory>
/home/itssahil/PROJECTS/Mol_Feturizer/Test_systems_manuscript/rnas/3npn

>  <Rbt.Executable>
rbdock ($Id: //depot/dev/client3/rdock/2013.1/src/exe/rbdock.cxx#4 $)

>  <Rbt.Library>
libRbt.so (2013.1, Build901 2013/11/27)

>  <Rbt.Parameter_File>
/export/apps/rDock/src/rDock_2013.1_src/data/scripts/dock_solv.prm

>  <Rbt.Receptor>
prm/pocket_docking_2.prm

>  <SCORE>
-27.8758

>  <SCORE.INTER>
-27.82

>  <SCORE.INTER.CONST>
1

>  <SCORE.INTER.POLAR>
0

>  <SCORE.INTER.ROT>
7

>  <SCORE.INTER.SOLV>
18.5147

>  <SCORE.INTER.VDW>
-32.9849

>  <SCORE.INTER.norm>
-1.07

>  <SCORE.INTRA>
-0.0558486

>  <SCORE.INTRA.DIHEDRAL>
2.7375

>  <SCORE.INTRA.DIHEDRAL.0>
4.37896

>  <SCORE.INTRA.POLAR>
0

>  <SCORE.INTRA.POLAR.0>
0

>  <SCORE.INTRA.REPUL>
0

>  <SCORE.INTRA.REPUL.0>
0

>  <SCORE.INTRA.SOLV>
0.121803

>  <SCORE.INTRA.SOLV.lig_0>
-50.5538

>  <SCORE.INTRA.VDW>
-1.4855

>  <SCORE.INTRA.VDW.0>
-1.30673

>  <SCORE.INTRA.norm>
-0.00214802

>  <SCORE.RESTR>
0

>  <SCORE.RESTR.CAVITY>
0

>  <SCORE.RESTR.norm>
0

>  <SCORE.SYSTEM>
0

>  <SCORE.SYSTEM.CONST>
0

>  <SCORE.SYSTEM.DIHEDRAL>
0

>  <SCORE.SYSTEM.SOLV>
0

>  <SCORE.SYSTEM.norm>
0

>  <SCORE.heavy>
26

>  <SCORE.norm>
-1.07215

>  <RMSD>
2.152

$$$$
ligand
 OpenBabel02271912153D
libRbt.so/2013.1/901 2013/11/27
 26 28  0  0  0  0  0  0  0  0999 V2000
  127.6755   68.8774   -4.6489 N   0  0  0  0  0  0  0  0  0  0  0  0
  126.4653   69.1850   -3.8303 C   0  0  2  0  0  0  0  0  0  0  0  0
  126.7147   70.3688   -2.9406 C   0  0  0  0  0  0  0  0  0  0  0  0
  125.7899   71.0809   -2.5516 O   0  0  0  0  0  0  0  0  0  0  0  0
  126.0822   67.9773   -2.9793 C   0  0  0  0  0  0  0  0  0  0  0  0
  127.2598   67.3753   -2.2188 C   0  0  0  0  0  0  0  0  0  0  0  0
  128.1664   66.2914   -3.2726 S   0  0  0  0  0  0  0  0  0  0  0  0
  128.7595   65.0750   -2.1414 C   0  0  0  0  0  0  0  0  0  0  0  0
  129.7544   65.6682   -1.1454 C   0  0  1  0  0  0  0  0  0  0  0  0
  130.1178   64.7020   -0.1571 O   0  0  0  0  0  0  0  0  0  0  0  0
  131.0294   66.0867   -1.8596 C   0  0  1  0  0  0  0  0  0  0  0  0
  131.3820   67.4217   -1.4849 O   0  0  0  0  0  0  0  0  0  0  0  0
  132.0948   65.0938   -1.4297 C   0  0  1  0  0  0  0  0  0  0  0  0
  133.2423   65.7588   -0.8902 O   0  0  0  0  0  0  0  0  0  0  0  0
  131.4511   64.2188   -0.3605 C   0  0  2  0  0  0  0  0  0  0  0  0
  127.8561   70.6608   -2.5869 O   0  0  0  0  0  0  0  0  0  0  0  0
  128.5854   60.2401   -2.3408 N   0  0  0  0  0  0  0  0  0  0  0  0
  128.2259   61.5132   -2.0809 C   0  0  0  0  0  0  0  0  0  0  0  0
  129.0708   62.4325   -1.5703 N   0  0  0  0  0  0  0  0  0  0  0  0
  130.3628   62.1223   -1.2786 C   0  0  0  0  0  0  0  0  0  0  0  0
  130.8279   60.7481   -1.5366 C   0  0  0  0  0  0  0  0  0  0  0  0
  129.8413   59.7926   -2.1012 C   0  0  0  0  0  0  0  0  0  0  0  0
  130.1899   58.5106   -2.3642 N   0  0  0  0  0  0  0  0  0  0  0  0
  132.1208   60.7005   -1.1730 N   0  0  0  0  0  0  0  0  0  0  0  0
  132.4571   61.9332   -0.7183 C   0  0  0  0  0  0  0  0  0  0  0  0
  131.4146   62.7857   -0.7772 N   0  0  0  0  0  0  0  0  0  0  0  0
  2  1  1  1  0  0  0
  2  3  1  0  0  0  0
  2  5  1  0  0  0  0
  3  4  1  0  0  0  0
  3 16  1  0  0  0  0
  5  6  1  0  0  0  0
  6  7  1  0  0  0  0
  7  8  1  0  0  0  0
  9  8  1  6  0  0  0
  9 10  1  0  0  0  0
  9 11  1  0  0  0  0
 10 15  1  0  0  0  0
 11 12  1  1  0  0  0
 11 13  1  0  0  0  0
 13 14  1  1  0  0  0
 13 15  1  0  0  0  0
 15 26  1  6  0  0  0
 17 18  2  0  0  0  0
 17 22  1  0  0  0  0
 18 19  1  0  0  0  0
 19 20  2  0  0  0  0
 20 21  1  0  0  0  0
 20 26  1  0  0  0  0
 21 22  2  0  0  0  0
 21 24  1  0  0  0  0
 22 23  1  0  0  0  0
 24 25  2  0  0  0  0
 25 26  1  0  0  0  0
M  END
>  <CHROM.1>
153.98398161,48.48617805,-82.58697136,-147.97017874,-65.77956255,174.11917677
18.57605932,129.42163381,65.07202842,-2.00142614,2.01341316,-0.40723262,0.00258693

>  <Name>
ligand

>  <RI>
0

>  <Rbt.Current_Directory>
/home/itssahil/PROJECTS/Mol_Feturizer/Test_systems_manuscript/rnas/3npn

>  <Rbt.Executable>
rbdock ($Id: //depot/dev/client3/rdock/2013.1/src/exe/rbdock.cxx#4 $)

>  <Rbt.Library>
libRbt.so (2013.1, Build901 2013/11/27)

>  <Rbt.Parameter_File>
/export/apps/rDock/src/rDock_2013.1_src/data/scripts/dock_solv.prm

>  <Rbt.Receptor>
prm/pocket_docking_3.prm

>  <SCORE>
-28.2766

>  <SCORE.INTER>
-29.6225

>  <SCORE.INTER.CONST>
1

>  <SCORE.INTER.POLAR>
0

>  <SCORE.INTER.ROT>
7

>  <SCORE.INTER.SOLV>
17.3653

>  <SCORE.INTER.VDW>
-33.8035

>  <SCORE.INTER.norm>
-1.13933

>  <SCORE.INTRA>
1.34596

>  <SCORE.INTRA.DIHEDRAL>
2.03019

>  <SCORE.INTRA.DIHEDRAL.0>
4.37896

>  <SCORE.INTRA.POLAR>
0

>  <SCORE.INTRA.POLAR.0>
0

>  <SCORE.INTRA.REPUL>
0

>  <SCORE.INTRA.REPUL.0>
0

>  <SCORE.INTRA.SOLV>
1.36878

>  <SCORE.INTRA.SOLV.lig_0>
-50.5538

>  <SCORE.INTRA.VDW>
-0.353521

>  <SCORE.INTRA.VDW.0>
-1.30673

>  <SCORE.INTRA.norm>
0.0517678

>  <SCORE.RESTR>
0

>  <SCORE.RESTR.CAVITY>
0

>  <SCORE.RESTR.norm>
0

>  <SCORE.SYSTEM>
0

>  <SCORE.SYSTEM.CONST>
0

>  <SCORE.SYSTEM.DIHEDRAL>
0

>  <SCORE.SYSTEM.SOLV>
0

>  <SCORE.SYSTEM.norm>
0

>  <SCORE.heavy>
26

>  <SCORE.norm>
-1.08756

>  <RMSD>
2.152

$$$$
ligand
 OpenBabel02271912153D
libRbt.so/2013.1/901 2013/11/27
 26 28  0  0  0  0  0  0  0  0999 V2000
  125.5403   68.5413   -2.4222 N   0  0  0  0  0  0  0  0  0  0  0  0
  126.8465   68.9415   -3.0248 C   0  0  2  0  0  0  0  0  0  0  0  0
  126.6742   70.1381   -3.9156 C   0  0  0  0  0  0  0  0  0  0  0  0
  126.3373   70.0145   -5.0925 O   0  0  0  0  0  0  0  0  0  0  0  0
  127.4335   67.7851   -3.8296 C   0  0  0  0  0  0  0  0  0  0  0  0
  127.7772   66.5678   -2.9767 C   0  0  0  0  0  0  0  0  0  0  0  0
  128.9396   67.0153   -1.7294 S   0  0  0  0  0  0  0  0  0  0  0  0
  129.6656   65.4618   -1.3161 C   0  0  0  0  0  0  0  0  0  0  0  0
  130.8336   65.6254   -0.3452 C   0  0  1  0  0  0  0  0  0  0  0  0
  131.0012   64.4480    0.4475 O   0  0  0  0  0  0  0  0  0  0  0  0
  132.1287   65.8440   -1.1105 C   0  0  1  0  0  0  0  0  0  0  0  0
  132.8250   66.9744   -0.5771 O   0  0  0  0  0  0  0  0  0  0  0  0
  132.9355   64.5689   -0.9401 C   0  0  1  0  0  0  0  0  0  0  0  0
  134.2423   64.8420   -0.4226 O   0  0  0  0  0  0  0  0  0  0  0  0
  132.1573   63.7039    0.0445 C   0  0  2  0  0  0  0  0  0  0  0  0
  126.8766   71.2742   -3.4896 O   0  0  0  0  0  0  0  0  0  0  0  0
  128.3158   60.9537   -2.3312 N   0  0  0  0  0  0  0  0  0  0  0  0
  128.3067   62.2193   -1.8664 C   0  0  0  0  0  0  0  0  0  0  0  0
  129.3716   62.7996   -1.2756 N   0  0  0  0  0  0  0  0  0  0  0  0
  130.5422   62.1271   -1.1079 C   0  0  0  0  0  0  0  0  0  0  0  0
  130.6267   60.7379   -1.5917 C   0  0  0  0  0  0  0  0  0  0  0  0
  129.4147   60.1678   -2.2329 C   0  0  0  0  0  0  0  0  0  0  0  0
  129.4108   58.8971   -2.7014 N   0  0  0  0  0  0  0  0  0  0  0  0
  131.8682   60.3044   -1.3143 N   0  0  0  0  0  0  0  0  0  0  0  0
  132.5234   61.3227   -0.7033 C   0  0  0  0  0  0  0  0  0  0  0  0
  131.7395   62.4119   -0.5759 N   0  0  0  0  0  0  0  0  0  0  0  0
  2  1  1  6  0  0  0
  2  3  1  0  0  0  0
  2  5  1  0  0  0  0
  3  4  1  0  0  0  0
  3 16  1  0  0  0  0
  5  6  1  0  0  0  0
  6  7  1  0  0  0  0
  7  8  1  0  0  0  0
  9  8  1  6  0  0  0
  9 10  1  0  0  0  0
  9 11  1  0  0  0  0
 10 15  1  0  0  0  0
 11 12  1  1  0  0  0
 11 13  1  0  0  0  0
 13 14  1  1  0  0  0
 13 15  1  0  0  0  0
 15 26  1  6  0  0  0
 17 18  2  0  0  0  0
 17 22  1  0  0  0  0
 18 19  1  0  0  0  0
 19 20  2  0  0  0  0
 20 21  1  0  0  0  0
 20 26  1  0  0  0  0
 21 22  2  0  0  0  0
 21 24  1  0  0  0  0
 22 23  1  0  0  0  0
 24 25  2  0  0  0  0
 25 26  1  0  0  0  0
M  END
>  <CHROM.1>
-85.45778707,-63.84980993,-58.77487124,-158.37284527,173.60701653,152.80390821
21.13023797,129.74136822,64.98925484,-1.78880749,2.11854848,-0.47025462,-0.01355522

>  <Name>
ligand

>  <RI>
0

>  <Rbt.Current_Directory>
/home/itssahil/PROJECTS/Mol_Feturizer/Test_systems_manuscript/rnas/3npn

>  <Rbt.Executable>
rbdock ($Id: //depot/dev/client3/rdock/2013.1/src/exe/rbdock.cxx#4 $)

>  <Rbt.Library>
libRbt.so (2013.1, Build901 2013/11/27)

>  <Rbt.Parameter_File>
/export/apps/rDock/src/rDock_2013.1_src/data/scripts/dock_solv.prm

>  <Rbt.Receptor>
prm/pocket_docking_5.prm

>  <SCORE>
-23.2412

>  <SCORE.INTER>
-24.2546

>  <SCORE.INTER.CONST>
1

>  <SCORE.INTER.POLAR>
0

>  <SCORE.INTER.ROT>
7

>  <SCORE.INTER.SOLV>
24.5789

>  <SCORE.INTER.VDW>
-32.6294

>  <SCORE.INTER.norm>
-0.93287

>  <SCORE.INTRA>
1.01344

>  <SCORE.INTRA.DIHEDRAL>
1.35088

>  <SCORE.INTRA.DIHEDRAL.0>
4.37896

>  <SCORE.INTRA.POLAR>
0

>  <SCORE.INTRA.POLAR.0>
0

>  <SCORE.INTRA.REPUL>
0

>  <SCORE.INTRA.REPUL.0>
0

>  <SCORE.INTRA.SOLV>
0.453803

>  <SCORE.INTRA.SOLV.lig_0>
-50.5538

>  <SCORE.INTRA.VDW>
0.111098

>  <SCORE.INTRA.VDW.0>
-1.30673

>  <SCORE.INTRA.norm>
0.0389785

>  <SCORE.RESTR>
0

>  <SCORE.RESTR.CAVITY>
0

>  <SCORE.RESTR.norm>
0

>  <SCORE.SYSTEM>
0

>  <SCORE.SYSTEM.CONST>
0

>  <SCORE.SYSTEM.DIHEDRAL>
0

>  <SCORE.SYSTEM.SOLV>
0

>  <SCORE.SYSTEM.norm>
0

>  <SCORE.heavy>
26

>  <SCORE.norm>
-0.893891

>  <RMSD>
2.157

$$$$
ligand
 OpenBabel02271912153D
libRbt.so/2013.1/901 2013/11/27
 26 28  0  0  0  0  0  0  0  0999 V2000
  126.0153   69.5972   -2.8982 N   0  0  0  0  0  0  0  0  0  0  0  0
  127.4439   69.4866   -2.4784 C   0  0  2  0  0  0  0  0  0  0  0  0
  128.1845   70.7576   -2.7807 C   0  0  0  0  0  0  0  0  0  0  0  0
  129.3182   70.9547   -2.3454 O   0  0  0  0  0  0  0  0  0  0  0  0
  128.1166   68.3196   -3.1962 C   0  0  0  0  0  0  0  0  0  0  0  0
  127.7517   66.9586   -2.6114 C   0  0  0  0  0  0  0  0  0  0  0  0
  128.6501   65.6874   -3.4385 S   0  0  0  0  0  0  0  0  0  0  0  0
  128.9527   64.5335   -2.1393 C   0  0  0  0  0  0  0  0  0  0  0  0
  129.8726   65.1177   -1.0687 C   0  0  1  0  0  0  0  0  0  0  0  0
  130.1773   64.1379   -0.0740 O   0  0  0  0  0  0  0  0  0  0  0  0
  131.1890   65.5585   -1.6881 C   0  0  1  0  0  0  0  0  0  0  0  0
  131.5032   66.8898   -1.2686 O   0  0  0  0  0  0  0  0  0  0  0  0
  132.2320   64.5671   -1.2033 C   0  0  1  0  0  0  0  0  0  0  0  0
  133.3344   65.2321   -0.5766 O   0  0  0  0  0  0  0  0  0  0  0  0
  131.5257   63.6689   -0.1945 C   0  0  2  0  0  0  0  0  0  0  0  0
  127.6680   71.6392   -3.4657 O   0  0  0  0  0  0  0  0  0  0  0  0
  128.8624   59.7218   -2.4949 N   0  0  0  0  0  0  0  0  0  0  0  0
  128.4779   60.9904   -2.2485 C   0  0  0  0  0  0  0  0  0  0  0  0
  129.2704   61.9016   -1.6473 N   0  0  0  0  0  0  0  0  0  0  0  0
  130.5307   61.5872   -1.2430 C   0  0  0  0  0  0  0  0  0  0  0  0
  131.0203   60.2177   -1.4795 C   0  0  0  0  0  0  0  0  0  0  0  0
  130.0918   59.2711   -2.1480 C   0  0  0  0  0  0  0  0  0  0  0  0
  130.4657   57.9938   -2.3986 N   0  0  0  0  0  0  0  0  0  0  0  0
  132.2744   60.1648   -0.9991 N   0  0  0  0  0  0  0  0  0  0  0  0
  132.5649   61.3901   -0.4954 C   0  0  0  0  0  0  0  0  0  0  0  0
  131.5305   62.2429   -0.6362 N   0  0  0  0  0  0  0  0  0  0  0  0
  2  1  1  6  0  0  0
  2  3  1  0  0  0  0
  2  5  1  0  0  0  0
  3  4  1  0  0  0  0
  3 16  1  0  0  0  0
  5  6  1  0  0  0  0
  6  7  1  0  0  0  0
  7  8  1  0  0  0  0
  9  8  1  6  0  0  0
  9 10  1  0  0  0  0
  9 11  1  0  0  0  0
 10 15  1  0  0  0  0
 11 12  1  1  0  0  0
 11 13  1  0  0  0  0
 13 14  1  1  0  0  0
 13 15  1  0  0  0  0
 15 26  1  6  0  0  0
 17 18  2  0  0  0  0
 17 22  1  0  0  0  0
 18 19  1  0  0  0  0
 19 20  2  0  0  0  0
 20 21  1  0  0  0  0
 20 26  1  0  0  0  0
 21 22  2  0  0  0  0
 21 24  1  0  0  0  0
 22 23  1  0  0  0  0
 24 25  2  0  0  0  0
 25 26  1  0  0  0  0
M  END
>  <CHROM.1>
169.40848024,-77.10601982,-176.53430192,144.98884395,-65.49059991,-176.06307895
20.04523943,129.82378132,64.75600300,-1.89619174,1.89099385,-0.47280524,0.00669376

>  <Name>
ligand

>  <RI>
0

>  <Rbt.Current_Directory>
/home/itssahil/PROJECTS/Mol_Feturizer/Test_systems_manuscript/rnas/3npn

>  <Rbt.Executable>
rbdock ($Id: //depot/dev/client3/rdock/2013.1/src/exe/rbdock.cxx#4 $)

>  <Rbt.Library>
libRbt.so (2013.1, Build901 2013/11/27)

>  <Rbt.Parameter_File>
/export/apps/rDock/src/rDock_2013.1_src/data/scripts/dock_solv.prm

>  <Rbt.Receptor>
prm/pocket_docking_2.prm

>  <SCORE>
-25.0396

>  <SCORE.INTER>
-25.1598

>  <SCORE.INTER.CONST>
1

>  <SCORE.INTER.POLAR>
0

>  <SCORE.INTER.ROT>
7

>  <SCORE.INTER.SOLV>
18.0552

>  <SCORE.INTER.VDW>
-31.0583

>  <SCORE.INTER.norm>
-0.967685

>  <SCORE.INTRA>
0.120181

>  <SCORE.INTRA.DIHEDRAL>
1.0509

>  <SCORE.INTRA.DIHEDRAL.0>
4.37896

>  <SCORE.INTRA.POLAR>
0

>  <SCORE.INTRA.POLAR.0>
0

>  <SCORE.INTRA.REPUL>
0

>  <SCORE.INTRA.REPUL.0>
0

>  <SCORE.INTRA.SOLV>
-0.0470416

>  <SCORE.INTRA.SOLV.lig_0>
-50.5538

>  <SCORE.INTRA.VDW>
-0.381747

>  <SCORE.INTRA.VDW.0>
-1.30673

>  <SCORE.INTRA.norm>
0.00462237

>  <SCORE.RESTR>
0

>  <SCORE.RESTR.CAVITY>
0

>  <SCORE.RESTR.norm>
0

>  <SCORE.SYSTEM>
0

>  <SCORE.SYSTEM.CONST>
0

>  <SCORE.SYSTEM.DIHEDRAL>
0

>  <SCORE.SYSTEM.SOLV>
0

>  <SCORE.SYSTEM.norm>
0

>  <SCORE.heavy>
26

>  <SCORE.norm>
-0.963062

>  <RMSD>
2.160

$$$$
ligand
 OpenBabel02271912153D
libRbt.so/2013.1/901 2013/11/27
 26 28  0  0  0  0  0  0  0  0999 V2000
  126.7526   70.6375   -5.0122 N   0  0  0  0  0  0  0  0  0  0  0  0
  126.5117   69.4092   -4.1981 C   0  0  2  0  0  0  0  0  0  0  0  0
  126.2051   69.7702   -2.7730 C   0  0  0  0  0  0  0  0  0  0  0  0
  125.8816   68.9123   -1.9527 O   0  0  0  0  0  0  0  0  0  0  0  0
  127.7350   68.4975   -4.2428 C   0  0  0  0  0  0  0  0  0  0  0  0
  127.5136   67.1542   -3.5543 C   0  0  0  0  0  0  0  0  0  0  0  0
  128.8320   66.0519   -3.9468 S   0  0  0  0  0  0  0  0  0  0  0  0
  128.8958   65.0176   -2.5194 C   0  0  0  0  0  0  0  0  0  0  0  0
  129.6628   65.6801   -1.3765 C   0  0  1  0  0  0  0  0  0  0  0  0
  129.8533   64.7633   -0.2968 O   0  0  0  0  0  0  0  0  0  0  0  0
  131.0405   66.1157   -1.8488 C   0  0  1  0  0  0  0  0  0  0  0  0
  131.2783   67.4747   -1.4698 O   0  0  0  0  0  0  0  0  0  0  0  0
  132.0283   65.1760   -1.1803 C   0  0  1  0  0  0  0  0  0  0  0  0
  133.0316   65.8990   -0.4585 O   0  0  0  0  0  0  0  0  0  0  0  0
  131.2131   64.3188   -0.2191 C   0  0  2  0  0  0  0  0  0  0  0  0
  126.2609   70.9392   -2.3940 O   0  0  0  0  0  0  0  0  0  0  0  0
  128.8068   60.1258   -2.3621 N   0  0  0  0  0  0  0  0  0  0  0  0
  128.3584   61.3875   -2.2042 C   0  0  0  0  0  0  0  0  0  0  0  0
  129.0890   62.3678   -1.6340 N   0  0  0  0  0  0  0  0  0  0  0  0
  130.3474   62.1359   -1.1721 C   0  0  0  0  0  0  0  0  0  0  0  0
  130.9047   60.7790   -1.3107 C   0  0  0  0  0  0  0  0  0  0  0  0
  130.0423   59.7532   -1.9503 C   0  0  0  0  0  0  0  0  0  0  0  0
  130.4805   58.4820   -2.1122 N   0  0  0  0  0  0  0  0  0  0  0  0
  132.1427   60.8120   -0.7888 N   0  0  0  0  0  0  0  0  0  0  0  0
  132.3615   62.0766   -0.3503 C   0  0  0  0  0  0  0  0  0  0  0  0
  131.2959   62.8712   -0.5743 N   0  0  0  0  0  0  0  0  0  0  0  0
  2  1  1  6  0  0  0
  2  3  1  0  0  0  0
  2  5  1  0  0  0  0
  3  4  1  0  0  0  0
  3 16  1  0  0  0  0
  5  6  1  0  0  0  0
  6  7  1  0  0  0  0
  7  8  1  0  0  0  0
  9  8  1  6  0  0  0
  9 10  1  0  0  0  0
  9 11  1  0  0  0  0
 10 15  1  0  0  0  0
 11 12  1  1  0  0  0
 11 13  1  0  0  0  0
 13 14  1  1  0  0  0
 13 15  1  0  0  0  0
 15 26  1  6  0  0  0
 17 18  2  0  0  0  0
 17 22  1  0  0  0  0
 18 19  1  0  0  0  0
 19 20  2  0  0  0  0
 20 21  1  0  0  0  0
 20 26  1  0  0  0  0
 21 22  2  0  0  0  0
 21 24  1  0  0  0  0
 22 23  1  0  0  0  0
 24 25  2  0  0  0  0
 25 26  1  0  0  0  0
M  END
>  <CHROM.1>
174.78182757,-173.97914115,168.02568587,151.03555694,-81.05707537,-172.44247143
14.43209573,129.42931929,65.05325815,-2.08701524,2.06287582,-0.52700431,0.01689499

>  <Name>
ligand

>  <RI>
0

>  <Rbt.Current_Directory>
/home/itssahil/PROJECTS/Mol_Feturizer/Test_systems_manuscript/rnas/3npn

>  <Rbt.Executable>
rbdock ($Id: //depot/dev/client3/rdock/2013.1/src/exe/rbdock.cxx#4 $)

>  <Rbt.Library>
libRbt.so (2013.1, Build901 2013/11/27)

>  <Rbt.Parameter_File>
/export/apps/rDock/src/rDock_2013.1_src/data/scripts/dock_solv.prm

>  <Rbt.Receptor>
prm/pocket_docking_4.prm

>  <SCORE>
-27.0267

>  <SCORE.INTER>
-27.026

>  <SCORE.INTER.CONST>
1

>  <SCORE.INTER.POLAR>
0

>  <SCORE.INTER.ROT>
7

>  <SCORE.INTER.SOLV>
19.712

>  <SCORE.INTER.VDW>
-32.8547

>  <SCORE.INTER.norm>
-1.03946

>  <SCORE.INTRA>
-0.000715393

>  <SCORE.INTRA.DIHEDRAL>
0.935897

>  <SCORE.INTRA.DIHEDRAL.0>
4.37896

>  <SCORE.INTRA.POLAR>
0

>  <SCORE.INTRA.POLAR.0>
0

>  <SCORE.INTRA.REPUL>
0

>  <SCORE.INTRA.REPUL.0>
0

>  <SCORE.INTRA.SOLV>
-0.701473

>  <SCORE.INTRA.SOLV.lig_0>
-50.5538

>  <SCORE.INTRA.VDW>
-0.117928

>  <SCORE.INTRA.VDW.0>
-1.30673

>  <SCORE.INTRA.norm>
-2.75151e-05

>  <SCORE.RESTR>
0

>  <SCORE.RESTR.CAVITY>
0

>  <SCORE.RESTR.norm>
0

>  <SCORE.SYSTEM>
0

>  <SCORE.SYSTEM.CONST>
0

>  <SCORE.SYSTEM.DIHEDRAL>
0

>  <SCORE.SYSTEM.SOLV>
0

>  <SCORE.SYSTEM.norm>
0

>  <SCORE.heavy>
26

>  <SCORE.norm>
-1.03949

>  <RMSD>
2.166

$$$$
ligand
 OpenBabel02271912153D
libRbt.so/2013.1/901 2013/11/27
 26 28  0  0  0  0  0  0  0  0999 V2000
  125.9843   70.6646   -3.2851 N   0  0  0  0  0  0  0  0  0  0  0  0
  126.9991   69.8130   -2.5964 C   0  0  2  0  0  0  0  0  0  0  0  0
  128.3557   70.4545   -2.6539 C   0  0  0  0  0  0  0  0  0  0  0  0
  128.5681   71.4356   -3.3652 O   0  0  0  0  0  0  0  0  0  0  0  0
  127.0582   68.4326   -3.2451 C   0  0  0  0  0  0  0  0  0  0  0  0
  127.7083   67.3750   -2.3583 C   0  0  0  0  0  0  0  0  0  0  0  0
  128.2904   66.0361   -3.3461 S   0  0  0  0  0  0  0  0  0  0  0  0
  128.8090   64.8685   -2.1300 C   0  0  0  0  0  0  0  0  0  0  0  0
  129.7479   65.5013   -1.1045 C   0  0  1  0  0  0  0  0  0  0  0  0
  130.0935   64.5599   -0.0862 O   0  0  0  0  0  0  0  0  0  0  0  0
  131.0408   65.9395   -1.7733 C   0  0  1  0  0  0  0  0  0  0  0  0
  131.3460   67.2885   -1.4068 O   0  0  0  0  0  0  0  0  0  0  0  0
  132.1110   64.9798   -1.2840 C   0  0  1  0  0  0  0  0  0  0  0  0
  133.2194   65.6810   -0.7096 O   0  0  0  0  0  0  0  0  0  0  0  0
  131.4450   64.1062   -0.2273 C   0  0  2  0  0  0  0  0  0  0  0  0
  129.2927   70.0053   -1.9956 O   0  0  0  0  0  0  0  0  0  0  0  0
  128.7910   60.0539   -2.3484 N   0  0  0  0  0  0  0  0  0  0  0  0
  128.3954   61.3255   -2.1377 C   0  0  0  0  0  0  0  0  0  0  0  0
  129.1869   62.2654   -1.5811 N   0  0  0  0  0  0  0  0  0  0  0  0
  130.4576   61.9793   -1.1885 C   0  0  0  0  0  0  0  0  0  0  0  0
  130.9596   60.6083   -1.3877 C   0  0  0  0  0  0  0  0  0  0  0  0
  130.0315   59.6293   -2.0081 C   0  0  0  0  0  0  0  0  0  0  0  0
  130.4164   58.3486   -2.2225 N   0  0  0  0  0  0  0  0  0  0  0  0
  132.2222   60.5860   -0.9277 N   0  0  0  0  0  0  0  0  0  0  0  0
  132.5065   61.8307   -0.4702 C   0  0  0  0  0  0  0  0  0  0  0  0
  131.4596   62.6663   -0.6213 N   0  0  0  0  0  0  0  0  0  0  0  0
  2  1  1  6  0  0  0
  2  3  1  0  0  0  0
  2  5  1  0  0  0  0
  3  4  1  0  0  0  0
  3 16  1  0  0  0  0
  5  6  1  0  0  0  0
  6  7  1  0  0  0  0
  7  8  1  0  0  0  0
  9  8  1  6  0  0  0
  9 10  1  0  0  0  0
  9 11  1  0  0  0  0
 10 15  1  0  0  0  0
 11 12  1  1  0  0  0
 11 13  1  0  0  0  0
 13 14  1  1  0  0  0
 13 15  1  0  0  0  0
 15 26  1  6  0  0  0
 17 18  2  0  0  0  0
 17 22  1  0  0  0  0
 18 19  1  0  0  0  0
 19 20  2  0  0  0  0
 20 21  1  0  0  0  0
 20 26  1  0  0  0  0
 21 22  2  0  0  0  0
 21 24  1  0  0  0  0
 22 23  1  0  0  0  0
 24 25  2  0  0  0  0
 25 26  1  0  0  0  0
M  END
>  <CHROM.1>
-10.29022044,-161.31310243,-158.43738970,-173.34271861,-51.37487888,176.63417099
20.60713482,129.71811778,65.05258422,-1.86456733,1.90045811,-0.44202054,-0.01116451

>  <Name>
ligand

>  <RI>
0

>  <Rbt.Current_Directory>
/home/itssahil/PROJECTS/Mol_Feturizer/Test_systems_manuscript/rnas/3npn

>  <Rbt.Executable>
rbdock ($Id: //depot/dev/client3/rdock/2013.1/src/exe/rbdock.cxx#4 $)

>  <Rbt.Library>
libRbt.so (2013.1, Build901 2013/11/27)

>  <Rbt.Parameter_File>
/export/apps/rDock/src/rDock_2013.1_src/data/scripts/dock_solv.prm

>  <Rbt.Receptor>
prm/pocket_docking_2.prm

>  <SCORE>
-25.8653

>  <SCORE.INTER>
-26.0239

>  <SCORE.INTER.CONST>
1

>  <SCORE.INTER.POLAR>
0

>  <SCORE.INTER.ROT>
7

>  <SCORE.INTER.SOLV>
19.4543

>  <SCORE.INTER.VDW>
-32.1007

>  <SCORE.INTER.norm>
-1.00092

>  <SCORE.INTRA>
0.158602

>  <SCORE.INTRA.DIHEDRAL>
1.34229

>  <SCORE.INTRA.DIHEDRAL.0>
4.37896

>  <SCORE.INTRA.POLAR>
0

>  <SCORE.INTRA.POLAR.0>
0

>  <SCORE.INTRA.REPUL>
0

>  <SCORE.INTRA.REPUL.0>
0

>  <SCORE.INTRA.SOLV>
-0.584017

>  <SCORE.INTRA.SOLV.lig_0>
-50.5538

>  <SCORE.INTRA.VDW>
-0.220536

>  <SCORE.INTRA.VDW.0>
-1.30673

>  <SCORE.INTRA.norm>
0.00610009

>  <SCORE.RESTR>
0

>  <SCORE.RESTR.CAVITY>
0

>  <SCORE.RESTR.norm>
0

>  <SCORE.SYSTEM>
0

>  <SCORE.SYSTEM.CONST>
0

>  <SCORE.SYSTEM.DIHEDRAL>
0

>  <SCORE.SYSTEM.SOLV>
0

>  <SCORE.SYSTEM.norm>
0

>  <SCORE.heavy>
26

>  <SCORE.norm>
-0.994818

>  <RMSD>
2.193

$$$$
ligand
 OpenBabel02271912153D
libRbt.so/2013.1/901 2013/11/27
 26 28  0  0  0  0  0  0  0  0999 V2000
  126.0005   70.7834   -3.3210 N   0  0  0  0  0  0  0  0  0  0  0  0
  126.9648   69.8986   -2.6023 C   0  0  2  0  0  0  0  0  0  0  0  0
  128.3484   70.4811   -2.6414 C   0  0  0  0  0  0  0  0  0  0  0  0
  128.6009   71.4820   -3.3108 O   0  0  0  0  0  0  0  0  0  0  0  0
  126.9772   68.5086   -3.2328 C   0  0  0  0  0  0  0  0  0  0  0  0
  127.6526   67.4548   -2.3605 C   0  0  0  0  0  0  0  0  0  0  0  0
  128.1732   66.0946   -3.3536 S   0  0  0  0  0  0  0  0  0  0  0  0
  128.7613   64.9505   -2.1468 C   0  0  0  0  0  0  0  0  0  0  0  0
  129.7889   65.5912   -1.2156 C   0  0  1  0  0  0  0  0  0  0  0  0
  130.1983   64.6693   -0.2031 O   0  0  0  0  0  0  0  0  0  0  0  0
  131.0318   65.9883   -1.9954 C   0  0  1  0  0  0  0  0  0  0  0  0
  131.3874   67.3402   -1.6900 O   0  0  0  0  0  0  0  0  0  0  0  0
  132.1213   65.0214   -1.5667 C   0  0  1  0  0  0  0  0  0  0  0  0
  133.2832   65.7160   -1.1001 O   0  0  0  0  0  0  0  0  0  0  0  0
  131.5267   64.1871   -0.4381 C   0  0  2  0  0  0  0  0  0  0  0  0
  129.2677   69.9624   -2.0096 O   0  0  0  0  0  0  0  0  0  0  0  0
  128.6782   60.1575   -2.3387 N   0  0  0  0  0  0  0  0  0  0  0  0
  128.3260   61.4446   -2.1459 C   0  0  0  0  0  0  0  0  0  0  0  0
  129.1652   62.3760   -1.6478 N   0  0  0  0  0  0  0  0  0  0  0  0
  130.4431   62.0647   -1.3005 C   0  0  0  0  0  0  0  0  0  0  0  0
  130.8994   60.6756   -1.4836 C   0  0  0  0  0  0  0  0  0  0  0  0
  129.9200   59.7073   -2.0388 C   0  0  0  0  0  0  0  0  0  0  0  0
  130.2612   58.4113   -2.2346 N   0  0  0  0  0  0  0  0  0  0  0  0
  132.1792   60.6299   -1.0758 N   0  0  0  0  0  0  0  0  0  0  0  0
  132.5156   61.8774   -0.6638 C   0  0  0  0  0  0  0  0  0  0  0  0
  131.4861   62.7378   -0.7937 N   0  0  0  0  0  0  0  0  0  0  0  0
  2  1  1  6  0  0  0
  2  3  1  0  0  0  0
  2  5  1  0  0  0  0
  3  4  1  0  0  0  0
  3 16  1  0  0  0  0
  5  6  1  0  0  0  0
  6  7  1  0  0  0  0
  7  8  1  0  0  0  0
  9  8  1  6  0  0  0
  9 10  1  0  0  0  0
  9 11  1  0  0  0  0
 10 15  1  0  0  0  0
 11 12  1  1  0  0  0
 11 13  1  0  0  0  0
 13 14  1  1  0  0  0
 13 15  1  0  0  0  0
 15 26  1  6  0  0  0
 17 18  2  0  0  0  0
 17 22  1  0  0  0  0
 18 19  1  0  0  0  0
 19 20  2  0  0  0  0
 20 21  1  0  0  0  0
 20 26  1  0  0  0  0
 21 22  2  0  0  0  0
 21 24  1  0  0  0  0
 22 23  1  0  0  0  0
 24 25  2  0  0  0  0
 25 26  1  0  0  0  0
M  END
>  <CHROM.1>
-6.76144767,-165.33406354,-158.42590412,-174.46240488,-52.92602613,176.90193796
22.81775870,129.69467416,65.11961409,-1.95589248,1.88950163,-0.37919014,-0.02632946

>  <Name>
ligand

>  <RI>
0

>  <Rbt.Current_Directory>
/home/itssahil/PROJECTS/Mol_Feturizer/Test_systems_manuscript/rnas/3npn

>  <Rbt.Executable>
rbdock ($Id: //depot/dev/client3/rdock/2013.1/src/exe/rbdock.cxx#4 $)

>  <Rbt.Library>
libRbt.so (2013.1, Build901 2013/11/27)

>  <Rbt.Parameter_File>
/export/apps/rDock/src/rDock_2013.1_src/data/scripts/dock_solv.prm

>  <Rbt.Receptor>
prm/pocket_docking_2.prm

>  <SCORE>
-25.7353

>  <SCORE.INTER>
-25.9209

>  <SCORE.INTER.CONST>
1

>  <SCORE.INTER.POLAR>
0

>  <SCORE.INTER.ROT>
7

>  <SCORE.INTER.SOLV>
20.0684

>  <SCORE.INTER.VDW>
-32.2367

>  <SCORE.INTER.norm>
-0.996959

>  <SCORE.INTRA>
0.185624

>  <SCORE.INTRA.DIHEDRAL>
0.810279

>  <SCORE.INTRA.DIHEDRAL.0>
4.37896

>  <SCORE.INTRA.POLAR>
0

>  <SCORE.INTRA.POLAR.0>
0

>  <SCORE.INTRA.REPUL>
0

>  <SCORE.INTRA.REPUL.0>
0

>  <SCORE.INTRA.SOLV>
-0.58965

>  <SCORE.INTRA.SOLV.lig_0>
-50.5538

>  <SCORE.INTRA.VDW>
0.0753094

>  <SCORE.INTRA.VDW.0>
-1.30673

>  <SCORE.INTRA.norm>
0.00713937

>  <SCORE.RESTR>
0

>  <SCORE.RESTR.CAVITY>
0

>  <SCORE.RESTR.norm>
0

>  <SCORE.SYSTEM>
0

>  <SCORE.SYSTEM.CONST>
0

>  <SCORE.SYSTEM.DIHEDRAL>
0

>  <SCORE.SYSTEM.SOLV>
0

>  <SCORE.SYSTEM.norm>
0

>  <SCORE.heavy>
26

>  <SCORE.norm>
-0.989819

>  <RMSD>
2.196

$$$$
ligand
 OpenBabel02271912153D
libRbt.so/2013.1/901 2013/11/27
 26 28  0  0  0  0  0  0  0  0999 V2000
  128.4444   70.8341   -2.4210 N   0  0  0  0  0  0  0  0  0  0  0  0
  127.6523   69.8884   -3.2621 C   0  0  2  0  0  0  0  0  0  0  0  0
  126.5904   70.6234   -4.0284 C   0  0  0  0  0  0  0  0  0  0  0  0
  125.8693   71.4564   -3.4809 O   0  0  0  0  0  0  0  0  0  0  0  0
  127.0039   68.8191   -2.3870 C   0  0  0  0  0  0  0  0  0  0  0  0
  126.4468   67.6425   -3.1825 C   0  0  0  0  0  0  0  0  0  0  0  0
  127.7504   66.8280   -4.0454 S   0  0  0  0  0  0  0  0  0  0  0  0
  128.4110   65.7588   -2.8077 C   0  0  0  0  0  0  0  0  0  0  0  0
  129.0903   66.5446   -1.6876 C   0  0  1  0  0  0  0  0  0  0  0  0
  129.3401   65.7037   -0.5593 O   0  0  0  0  0  0  0  0  0  0  0  0
  130.4326   67.0806   -2.1585 C   0  0  1  0  0  0  0  0  0  0  0  0
  130.5382   68.4728   -1.8458 O   0  0  0  0  0  0  0  0  0  0  0  0
  131.4870   66.2695   -1.4264 C   0  0  1  0  0  0  0  0  0  0  0  0
  132.4051   67.1161   -0.7259 O   0  0  0  0  0  0  0  0  0  0  0  0
  130.7325   65.3900   -0.4362 C   0  0  2  0  0  0  0  0  0  0  0  0
  126.4097   70.4009   -5.2247 O   0  0  0  0  0  0  0  0  0  0  0  0
  128.6827   60.8393   -2.1836 N   0  0  0  0  0  0  0  0  0  0  0  0
  128.1079   62.0533   -2.0672 C   0  0  0  0  0  0  0  0  0  0  0  0
  128.7578   63.1394   -1.6006 N   0  0  0  0  0  0  0  0  0  0  0  0
  130.0588   63.0722   -1.2088 C   0  0  0  0  0  0  0  0  0  0  0  0
  130.7535   61.7765   -1.3078 C   0  0  0  0  0  0  0  0  0  0  0  0
  129.9737   60.6269   -1.8326 C   0  0  0  0  0  0  0  0  0  0  0  0
  130.5392   59.4021   -1.9518 N   0  0  0  0  0  0  0  0  0  0  0  0
  132.0086   61.9738   -0.8696 N   0  0  0  0  0  0  0  0  0  0  0  0
  132.1117   63.2793   -0.5170 C   0  0  0  0  0  0  0  0  0  0  0  0
  130.9537   63.9402   -0.7153 N   0  0  0  0  0  0  0  0  0  0  0  0
  2  1  1  1  0  0  0
  2  3  1  0  0  0  0
  2  5  1  0  0  0  0
  3  4  1  0  0  0  0
  3 16  1  0  0  0  0
  5  6  1  0  0  0  0
  6  7  1  0  0  0  0
  7  8  1  0  0  0  0
  9  8  1  6  0  0  0
  9 10  1  0  0  0  0
  9 11  1  0  0  0  0
 10 15  1  0  0  0  0
 11 12  1  1  0  0  0
 11 13  1  0  0  0  0
 13 14  1  1  0  0  0
 13 15  1  0  0  0  0
 15 26  1  6  0  0  0
 17 18  2  0  0  0  0
 17 22  1  0  0  0  0
 18 19  1  0  0  0  0
 19 20  2  0  0  0  0
 20 21  1  0  0  0  0
 20 26  1  0  0  0  0
 21 22  2  0  0  0  0
 21 24  1  0  0  0  0
 22 23  1  0  0  0  0
 24 25  2  0  0  0  0
 25 26  1  0  0  0  0
M  END
>  <CHROM.1>
-46.41295337,-166.85203999,61.89580745,83.23372941,-67.55309221,166.55266099
9.67844338,129.15109609,65.90996217,-2.18864288,-2.01732072,0.53980835,3.11853566

>  <Name>
ligand

>  <RI>
0

>  <Rbt.Current_Directory>
/home/itssahil/PROJECTS/Mol_Feturizer/Test_systems_manuscript/rnas/3npn

>  <Rbt.Executable>
rbdock ($Id: //depot/dev/client3/rdock/2013.1/src/exe/rbdock.cxx#4 $)

>  <Rbt.Library>
libRbt.so (2013.1, Build901 2013/11/27)

>  <Rbt.Parameter_File>
/export/apps/rDock/src/rDock_2013.1_src/data/scripts/dock_solv.prm

>  <Rbt.Receptor>
prm/pocket_docking_3.prm

>  <SCORE>
-29.5761

>  <SCORE.INTER>
-28.5931

>  <SCORE.INTER.CONST>
1

>  <SCORE.INTER.POLAR>
0

>  <SCORE.INTER.ROT>
7

>  <SCORE.INTER.SOLV>
18.5677

>  <SCORE.INTER.VDW>
-33.5179

>  <SCORE.INTER.norm>
-1.09973

>  <SCORE.INTRA>
-0.983081

>  <SCORE.INTRA.DIHEDRAL>
0.422309

>  <SCORE.INTRA.DIHEDRAL.0>
4.37896

>  <SCORE.INTRA.POLAR>
0

>  <SCORE.INTRA.POLAR.0>
0

>  <SCORE.INTRA.REPUL>
0

>  <SCORE.INTRA.REPUL.0>
0

>  <SCORE.INTRA.SOLV>
1.1461

>  <SCORE.INTRA.SOLV.lig_0>
-50.5538

>  <SCORE.INTRA.VDW>
-1.76729

>  <SCORE.INTRA.VDW.0>
-1.30673

>  <SCORE.INTRA.norm>
-0.0378108

>  <SCORE.RESTR>
0

>  <SCORE.RESTR.CAVITY>
0

>  <SCORE.RESTR.norm>
0

>  <SCORE.SYSTEM>
0

>  <SCORE.SYSTEM.CONST>
0

>  <SCORE.SYSTEM.DIHEDRAL>
0

>  <SCORE.SYSTEM.SOLV>
0

>  <SCORE.SYSTEM.norm>
0

>  <SCORE.heavy>
26

>  <SCORE.norm>
-1.13754

>  <RMSD>
2.202

$$$$
ligand
 OpenBabel02271912153D
libRbt.so/2013.1/901 2013/11/27
 26 28  0  0  0  0  0  0  0  0999 V2000
  126.2126   70.2741   -2.9280 N   0  0  0  0  0  0  0  0  0  0  0  0
  127.3504   69.3113   -2.8409 C   0  0  2  0  0  0  0  0  0  0  0  0
  128.6620   70.0263   -2.9944 C   0  0  0  0  0  0  0  0  0  0  0  0
  129.7305   69.4191   -2.9372 O   0  0  0  0  0  0  0  0  0  0  0  0
  127.2214   68.2418   -3.9222 C   0  0  0  0  0  0  0  0  0  0  0  0
  128.1018   67.0210   -3.6734 C   0  0  0  0  0  0  0  0  0  0  0  0
  127.5131   66.1297   -2.2711 S   0  0  0  0  0  0  0  0  0  0  0  0
  128.8070   64.9629   -1.9960 C   0  0  0  0  0  0  0  0  0  0  0  0
  129.9275   65.5538   -1.1423 C   0  0  1  0  0  0  0  0  0  0  0  0
  130.3880   64.6009   -0.1819 O   0  0  0  0  0  0  0  0  0  0  0  0
  131.1148   65.9267   -2.0152 C   0  0  1  0  0  0  0  0  0  0  0  0
  131.5378   67.2609   -1.7183 O   0  0  0  0  0  0  0  0  0  0  0  0
  132.2036   64.9186   -1.6933 C   0  0  1  0  0  0  0  0  0  0  0  0
  133.4217   65.5679   -1.3127 O   0  0  0  0  0  0  0  0  0  0  0  0
  131.6765   64.0822   -0.5332 C   0  0  2  0  0  0  0  0  0  0  0  0
  128.6985   71.2430   -3.1718 O   0  0  0  0  0  0  0  0  0  0  0  0
  128.5783   60.2016   -2.3517 N   0  0  0  0  0  0  0  0  0  0  0  0
  128.2885   61.4983   -2.1231 C   0  0  0  0  0  0  0  0  0  0  0  0
  129.1878   62.3871   -1.6528 N   0  0  0  0  0  0  0  0  0  0  0  0
  130.4673   62.0193   -1.3728 C   0  0  0  0  0  0  0  0  0  0  0  0
  130.8573   60.6163   -1.5982 C   0  0  0  0  0  0  0  0  0  0  0  0
  129.8138   59.6972   -2.1192 C   0  0  0  0  0  0  0  0  0  0  0  0
  130.0921   58.3921   -2.3503 N   0  0  0  0  0  0  0  0  0  0  0  0
  132.1523   60.5128   -1.2539 N   0  0  0  0  0  0  0  0  0  0  0  0
  132.5586   61.7389   -0.8406 C   0  0  0  0  0  0  0  0  0  0  0  0
  131.5599   62.6417   -0.9076 N   0  0  0  0  0  0  0  0  0  0  0  0
  2  1  1  6  0  0  0
  2  3  1  0  0  0  0
  2  5  1  0  0  0  0
  3  4  1  0  0  0  0
  3 16  1  0  0  0  0
  5  6  1  0  0  0  0
  6  7  1  0  0  0  0
  7  8  1  0  0  0  0
  9  8  1  6  0  0  0
  9 10  1  0  0  0  0
  9 11  1  0  0  0  0
 10 15  1  0  0  0  0
 11 12  1  1  0  0  0
 11 13  1  0  0  0  0
 13 14  1  1  0  0  0
 13 15  1  0  0  0  0
 15 26  1  6  0  0  0
 17 18  2  0  0  0  0
 17 22  1  0  0  0  0
 18 19  1  0  0  0  0
 19 20  2  0  0  0  0
 20 21  1  0  0  0  0
 20 26  1  0  0  0  0
 21 22  2  0  0  0  0
 21 24  1  0  0  0  0
 22 23  1  0  0  0  0
 24 25  2  0  0  0  0
 25 26  1  0  0  0  0
M  END
>  <CHROM.1>
179.09506226,-164.03950144,68.48260262,-170.34691172,85.27361358,138.56261888
24.81156475,129.74603432,64.97336699,-2.01570872,1.86822283,-0.31638996,-0.06678084

>  <Name>
ligand

>  <RI>
0

>  <Rbt.Current_Directory>
/home/itssahil/PROJECTS/Mol_Feturizer/Test_systems_manuscript/rnas/3npn

>  <Rbt.Executable>
rbdock ($Id: //depot/dev/client3/rdock/2013.1/src/exe/rbdock.cxx#4 $)

>  <Rbt.Library>
libRbt.so (2013.1, Build901 2013/11/27)

>  <Rbt.Parameter_File>
/export/apps/rDock/src/rDock_2013.1_src/data/scripts/dock_solv.prm

>  <Rbt.Receptor>
prm/pocket_docking_2.prm

>  <SCORE>
-23.3873

>  <SCORE.INTER>
-25.0086

>  <SCORE.INTER.CONST>
1

>  <SCORE.INTER.POLAR>
0

>  <SCORE.INTER.ROT>
7

>  <SCORE.INTER.SOLV>
19.4153

>  <SCORE.INTER.VDW>
-31.4108

>  <SCORE.INTER.norm>
-0.96187

>  <SCORE.INTRA>
1.60753

>  <SCORE.INTRA.DIHEDRAL>
4.65144

>  <SCORE.INTRA.DIHEDRAL.0>
4.37896

>  <SCORE.INTRA.POLAR>
0

>  <SCORE.INTRA.POLAR.0>
0

>  <SCORE.INTRA.REPUL>
0

>  <SCORE.INTRA.REPUL.0>
0

>  <SCORE.INTRA.SOLV>
-0.445499

>  <SCORE.INTRA.SOLV.lig_0>
-50.5538

>  <SCORE.INTRA.VDW>
-0.495445

>  <SCORE.INTRA.VDW.0>
-1.30673

>  <SCORE.INTRA.norm>
0.0618279

>  <SCORE.RESTR>
0.0137769

>  <SCORE.RESTR.CAVITY>
0.0137769

>  <SCORE.RESTR.norm>
0.000529882

>  <SCORE.SYSTEM>
0

>  <SCORE.SYSTEM.CONST>
0

>  <SCORE.SYSTEM.DIHEDRAL>
0

>  <SCORE.SYSTEM.SOLV>
0

>  <SCORE.SYSTEM.norm>
0

>  <SCORE.heavy>
26

>  <SCORE.norm>
-0.899512

>  <RMSD>
2.206

$$$$
ligand
 OpenBabel02271912153D
libRbt.so/2013.1/901 2013/11/27
 26 28  0  0  0  0  0  0  0  0999 V2000
  129.2893   70.0265   -4.0203 N   0  0  0  0  0  0  0  0  0  0  0  0
  129.8856   68.9201   -3.2142 C   0  0  2  0  0  0  0  0  0  0  0  0
  129.8922   69.2726   -1.7545 C   0  0  0  0  0  0  0  0  0  0  0  0
  129.6498   68.4285   -0.8929 O   0  0  0  0  0  0  0  0  0  0  0  0
  131.3119   68.6377   -3.6786 C   0  0  0  0  0  0  0  0  0  0  0  0
  131.3786   67.8018   -4.9531 C   0  0  0  0  0  0  0  0  0  0  0  0
  130.6006   66.2418   -4.6914 S   0  0  0  0  0  0  0  0  0  0  0  0
  131.6605   65.4873   -3.5003 C   0  0  0  0  0  0  0  0  0  0  0  0
  131.3553   65.9744   -2.0849 C   0  0  1  0  0  0  0  0  0  0  0  0
  130.0661   65.5252   -1.6622 O   0  0  0  0  0  0  0  0  0  0  0  0
  132.3734   65.4156   -1.1040 C   0  0  1  0  0  0  0  0  0  0  0  0
  132.8891   66.4687   -0.2842 O   0  0  0  0  0  0  0  0  0  0  0  0
  131.6312   64.3835   -0.2736 C   0  0  1  0  0  0  0  0  0  0  0  0
  131.7593   64.6493    1.1276 O   0  0  0  0  0  0  0  0  0  0  0  0
  130.1677   64.4790   -0.6887 C   0  0  2  0  0  0  0  0  0  0  0  0
  130.1315   70.4215   -1.3856 O   0  0  0  0  0  0  0  0  0  0  0  0
  131.1222   59.3504   -1.5550 N   0  0  0  0  0  0  0  0  0  0  0  0
  131.8841   60.2748   -0.9363 C   0  0  0  0  0  0  0  0  0  0  0  0
  131.5106   61.5622   -0.7847 N   0  0  0  0  0  0  0  0  0  0  0  0
  130.3186   62.0145   -1.2595 C   0  0  0  0  0  0  0  0  0  0  0  0
  129.4320   61.0599   -1.9478 C   0  0  0  0  0  0  0  0  0  0  0  0
  129.9101   59.6598   -2.0748 C   0  0  0  0  0  0  0  0  0  0  0  0
  129.1551   58.7229   -2.6962 N   0  0  0  0  0  0  0  0  0  0  0  0
  128.3334   61.7430   -2.3122 N   0  0  0  0  0  0  0  0  0  0  0  0
  128.4996   63.0237   -1.8982 C   0  0  0  0  0  0  0  0  0  0  0  0
  129.6805   63.1936   -1.2709 N   0  0  0  0  0  0  0  0  0  0  0  0
  2  1  1  6  0  0  0
  2  3  1  0  0  0  0
  2  5  1  0  0  0  0
  3  4  1  0  0  0  0
  3 16  1  0  0  0  0
  5  6  1  0  0  0  0
  6  7  1  0  0  0  0
  7  8  1  0  0  0  0
  9  8  1  6  0  0  0
  9 10  1  0  0  0  0
  9 11  1  0  0  0  0
 10 15  1  0  0  0  0
 11 12  1  1  0  0  0
 11 13  1  0  0  0  0
 13 14  1  1  0  0  0
 13 15  1  0  0  0  0
 15 26  1  6  0  0  0
 17 18  2  0  0  0  0
 17 22  1  0  0  0  0
 18 19  1  0  0  0  0
 19 20  2  0  0  0  0
 20 21  1  0  0  0  0
 20 26  1  0  0  0  0
 21 22  2  0  0  0  0
 21 24  1  0  0  0  0
 22 23  1  0  0  0  0
 24 25  2  0  0  0  0
 25 26  1  0  0  0  0
M  END
>  <CHROM.1>
141.35708848,-78.97167362,-60.17196270,-65.79147122,81.42344263,67.07435487
129.38432954,130.55736096,64.91197945,-2.02914900,1.50345732,-1.15186125
-0.21198462

>  <Name>
ligand

>  <RI>
0

>  <Rbt.Current_Directory>
/home/itssahil/PROJECTS/Mol_Feturizer/Test_systems_manuscript/rnas/3npn

>  <Rbt.Executable>
rbdock ($Id: //depot/dev/client3/rdock/2013.1/src/exe/rbdock.cxx#4 $)

>  <Rbt.Library>
libRbt.so (2013.1, Build901 2013/11/27)

>  <Rbt.Parameter_File>
/export/apps/rDock/src/rDock_2013.1_src/data/scripts/dock_solv.prm

>  <Rbt.Receptor>
prm/pocket_docking_4.prm

>  <SCORE>
-17.4096

>  <SCORE.INTER>
-16.3343

>  <SCORE.INTER.CONST>
1

>  <SCORE.INTER.POLAR>
0

>  <SCORE.INTER.ROT>
7

>  <SCORE.INTER.SOLV>
19.0793

>  <SCORE.INTER.VDW>
-25.516

>  <SCORE.INTER.norm>
-0.628243

>  <SCORE.INTRA>
-1.07526

>  <SCORE.INTRA.DIHEDRAL>
0.550014

>  <SCORE.INTRA.DIHEDRAL.0>
4.37896

>  <SCORE.INTRA.POLAR>
0

>  <SCORE.INTRA.POLAR.0>
0

>  <SCORE.INTRA.REPUL>
0

>  <SCORE.INTRA.REPUL.0>
0

>  <SCORE.INTRA.SOLV>
0.498439

>  <SCORE.INTRA.SOLV.lig_0>
-50.5538

>  <SCORE.INTRA.VDW>
-1.59949

>  <SCORE.INTRA.VDW.0>
-1.30673

>  <SCORE.INTRA.norm>
-0.0413563

>  <SCORE.RESTR>
0

>  <SCORE.RESTR.CAVITY>
0

>  <SCORE.RESTR.norm>
0

>  <SCORE.SYSTEM>
0

>  <SCORE.SYSTEM.CONST>
0

>  <SCORE.SYSTEM.DIHEDRAL>
0

>  <SCORE.SYSTEM.SOLV>
0

>  <SCORE.SYSTEM.norm>
0

>  <SCORE.heavy>
26

>  <SCORE.norm>
-0.669599

>  <RMSD>
2.214

$$$$
ligand
 OpenBabel02271912153D
libRbt.so/2013.1/901 2013/11/27
 26 28  0  0  0  0  0  0  0  0999 V2000
  127.5659   70.5868   -4.9745 N   0  0  0  0  0  0  0  0  0  0  0  0
  126.5639   69.7853   -4.2110 C   0  0  2  0  0  0  0  0  0  0  0  0
  126.5016   70.2390   -2.7808 C   0  0  0  0  0  0  0  0  0  0  0  0
  125.5533   69.9390   -2.0567 O   0  0  0  0  0  0  0  0  0  0  0  0
  126.9236   68.3028   -4.2621 C   0  0  0  0  0  0  0  0  0  0  0  0
  128.3274   68.0030   -3.7455 C   0  0  0  0  0  0  0  0  0  0  0  0
  128.8642   66.4319   -4.3378 S   0  0  0  0  0  0  0  0  0  0  0  0
  128.8489   65.4513   -2.8718 C   0  0  0  0  0  0  0  0  0  0  0  0
  129.5051   66.1788   -1.6996 C   0  0  1  0  0  0  0  0  0  0  0  0
  129.6136   65.3159   -0.5655 O   0  0  0  0  0  0  0  0  0  0  0  0
  130.9125   66.6163   -2.0718 C   0  0  1  0  0  0  0  0  0  0  0  0
  131.0983   67.9952   -1.7383 O   0  0  0  0  0  0  0  0  0  0  0  0
  131.8512   65.7256   -1.2774 C   0  0  1  0  0  0  0  0  0  0  0  0
  132.7784   66.4983   -0.5069 O   0  0  0  0  0  0  0  0  0  0  0  0
  130.9674   64.8993   -0.3504 C   0  0  2  0  0  0  0  0  0  0  0  0
  127.3971   70.9328   -2.3012 O   0  0  0  0  0  0  0  0  0  0  0  0
  128.7011   60.5146   -2.2484 N   0  0  0  0  0  0  0  0  0  0  0  0
  128.2086   61.7662   -2.1546 C   0  0  0  0  0  0  0  0  0  0  0  0
  128.9067   62.8009   -1.6430 N   0  0  0  0  0  0  0  0  0  0  0  0
  130.1752   62.6391   -1.1790 C   0  0  0  0  0  0  0  0  0  0  0  0
  130.7801   61.2973   -1.2492 C   0  0  0  0  0  0  0  0  0  0  0  0
  129.9515   60.2087   -1.8267 C   0  0  0  0  0  0  0  0  0  0  0  0
  130.4341   58.9471   -1.9239 N   0  0  0  0  0  0  0  0  0  0  0  0
  132.0191   61.4022   -0.7392 N   0  0  0  0  0  0  0  0  0  0  0  0
  132.1948   62.6955   -0.3705 C   0  0  0  0  0  0  0  0  0  0  0  0
  131.1001   63.4386   -0.6285 N   0  0  0  0  0  0  0  0  0  0  0  0
  2  1  1  6  0  0  0
  2  3  1  0  0  0  0
  2  5  1  0  0  0  0
  3  4  1  0  0  0  0
  3 16  1  0  0  0  0
  5  6  1  0  0  0  0
  6  7  1  0  0  0  0
  7  8  1  0  0  0  0
  9  8  1  6  0  0  0
  9 10  1  0  0  0  0
  9 11  1  0  0  0  0
 10 15  1  0  0  0  0
 11 12  1  1  0  0  0
 11 13  1  0  0  0  0
 13 14  1  1  0  0  0
 13 15  1  0  0  0  0
 15 26  1  6  0  0  0
 17 18  2  0  0  0  0
 17 22  1  0  0  0  0
 18 19  1  0  0  0  0
 19 20  2  0  0  0  0
 20 21  1  0  0  0  0
 20 26  1  0  0  0  0
 21 22  2  0  0  0  0
 21 24  1  0  0  0  0
 22 23  1  0  0  0  0
 24 25  2  0  0  0  0
 25 26  1  0  0  0  0
M  END
>  <CHROM.1>
163.29002097,56.44318631,-160.47848510,-109.71700766,-46.02741740,-173.67111368
8.96109123,129.40629978,65.51156956,-2.17564701,2.00861860,-0.54373806,-0.01371900

>  <Name>
ligand

>  <RI>
0

>  <Rbt.Current_Directory>
/home/itssahil/PROJECTS/Mol_Feturizer/Test_systems_manuscript/rnas/3npn

>  <Rbt.Executable>
rbdock ($Id: //depot/dev/client3/rdock/2013.1/src/exe/rbdock.cxx#4 $)

>  <Rbt.Library>
libRbt.so (2013.1, Build901 2013/11/27)

>  <Rbt.Parameter_File>
/export/apps/rDock/src/rDock_2013.1_src/data/scripts/dock_solv.prm

>  <Rbt.Receptor>
prm/pocket_docking_4.prm

>  <SCORE>
-24.9609

>  <SCORE.INTER>
-26.1105

>  <SCORE.INTER.CONST>
1

>  <SCORE.INTER.POLAR>
0

>  <SCORE.INTER.ROT>
7

>  <SCORE.INTER.SOLV>
17.8237

>  <SCORE.INTER.VDW>
-31.6149

>  <SCORE.INTER.norm>
-1.00425

>  <SCORE.INTRA>
1.14958

>  <SCORE.INTRA.DIHEDRAL>
2.34435

>  <SCORE.INTRA.DIHEDRAL.0>
4.37896

>  <SCORE.INTRA.POLAR>
0

>  <SCORE.INTRA.POLAR.0>
0

>  <SCORE.INTRA.REPUL>
0

>  <SCORE.INTRA.REPUL.0>
0

>  <SCORE.INTRA.SOLV>
0.314351

>  <SCORE.INTRA.SOLV.lig_0>
-50.5538

>  <SCORE.INTRA.VDW>
-0.179768

>  <SCORE.INTRA.VDW.0>
-1.30673

>  <SCORE.INTRA.norm>
0.0442148

>  <SCORE.RESTR>
0

>  <SCORE.RESTR.CAVITY>
0

>  <SCORE.RESTR.norm>
0

>  <SCORE.SYSTEM>
0

>  <SCORE.SYSTEM.CONST>
0

>  <SCORE.SYSTEM.DIHEDRAL>
0

>  <SCORE.SYSTEM.SOLV>
0

>  <SCORE.SYSTEM.norm>
0

>  <SCORE.heavy>
26

>  <SCORE.norm>
-0.960036

>  <RMSD>
2.218

$$$$
ligand
 OpenBabel02271912153D
libRbt.so/2013.1/901 2013/11/27
 26 28  0  0  0  0  0  0  0  0999 V2000
  127.4097   69.8774   -4.4204 N   0  0  0  0  0  0  0  0  0  0  0  0
  127.1878   68.6452   -3.6070 C   0  0  2  0  0  0  0  0  0  0  0  0
  125.9635   68.7900   -2.7495 C   0  0  0  0  0  0  0  0  0  0  0  0
  125.6730   69.8659   -2.2283 O   0  0  0  0  0  0  0  0  0  0  0  0
  128.4015   68.3698   -2.7234 C   0  0  0  0  0  0  0  0  0  0  0  0
  128.3106   67.0489   -1.9656 C   0  0  0  0  0  0  0  0  0  0  0  0
  128.5625   65.7008   -3.0730 S   0  0  0  0  0  0  0  0  0  0  0  0
  129.1204   64.4240   -1.9915 C   0  0  0  0  0  0  0  0  0  0  0  0
  130.1415   64.9458   -0.9821 C   0  0  1  0  0  0  0  0  0  0  0  0
  130.4867   63.9284   -0.0397 O   0  0  0  0  0  0  0  0  0  0  0  0
  131.4210   65.3583   -1.6918 C   0  0  1  0  0  0  0  0  0  0  0  0
  131.8152   66.6657   -1.2646 O   0  0  0  0  0  0  0  0  0  0  0  0
  132.4616   64.3184   -1.3160 C   0  0  1  0  0  0  0  0  0  0  0  0
  133.6329   64.9272   -0.7613 O   0  0  0  0  0  0  0  0  0  0  0  0
  131.8036   63.4169   -0.2779 C   0  0  2  0  0  0  0  0  0  0  0  0
  125.2250   67.8290   -2.5395 O   0  0  0  0  0  0  0  0  0  0  0  0
  128.8409   59.6432   -2.5017 N   0  0  0  0  0  0  0  0  0  0  0  0
  128.5251   60.9186   -2.1993 C   0  0  0  0  0  0  0  0  0  0  0  0
  129.3906   61.7808   -1.6274 N   0  0  0  0  0  0  0  0  0  0  0  0
  130.6599   61.4060   -1.3126 C   0  0  0  0  0  0  0  0  0  0  0  0
  131.0769   60.0253   -1.6142 C   0  0  0  0  0  0  0  0  0  0  0  0
  130.0701   59.1349   -2.2456 C   0  0  0  0  0  0  0  0  0  0  0  0
  130.3746   57.8512   -2.5516 N   0  0  0  0  0  0  0  0  0  0  0  0
  132.3555   59.9097   -1.2165 N   0  0  0  0  0  0  0  0  0  0  0  0
  132.7273   61.1081   -0.7018 C   0  0  0  0  0  0  0  0  0  0  0  0
  131.7220   62.0046   -0.7546 N   0  0  0  0  0  0  0  0  0  0  0  0
  2  1  1  1  0  0  0
  2  3  1  0  0  0  0
  2  5  1  0  0  0  0
  3  4  1  0  0  0  0
  3 16  1  0  0  0  0
  5  6  1  0  0  0  0
  6  7  1  0  0  0  0
  7  8  1  0  0  0  0
  9  8  1  6  0  0  0
  9 10  1  0  0  0  0
  9 11  1  0  0  0  0
 10 15  1  0  0  0  0
 11 12  1  1  0  0  0
 11 13  1  0  0  0  0
 13 14  1  1  0  0  0
 13 15  1  0  0  0  0
 15 26  1  6  0  0  0
 17 18  2  0  0  0  0
 17 22  1  0  0  0  0
 18 19  1  0  0  0  0
 19 20  2  0  0  0  0
 20 21  1  0  0  0  0
 20 26  1  0  0  0  0
 21 22  2  0  0  0  0
 21 24  1  0  0  0  0
 22 23  1  0  0  0  0
 24 25  2  0  0  0  0
 25 26  1  0  0  0  0
M  END
>  <CHROM.1>
-37.01277309,-174.15902641,73.32788605,156.11373720,-43.39298591,174.63599293
20.93799944,129.66326862,64.34721161,-1.91073471,2.06645266,-0.36208011,0.01968016

>  <Name>
ligand

>  <RI>
0

>  <Rbt.Current_Directory>
/home/itssahil/PROJECTS/Mol_Feturizer/Test_systems_manuscript/rnas/3npn

>  <Rbt.Executable>
rbdock ($Id: //depot/dev/client3/rdock/2013.1/src/exe/rbdock.cxx#4 $)

>  <Rbt.Library>
libRbt.so (2013.1, Build901 2013/11/27)

>  <Rbt.Parameter_File>
/export/apps/rDock/src/rDock_2013.1_src/data/scripts/dock_solv.prm

>  <Rbt.Receptor>
prm/pocket_docking_4.prm

>  <SCORE>
-27.1859

>  <SCORE.INTER>
-27.1885

>  <SCORE.INTER.CONST>
1

>  <SCORE.INTER.POLAR>
0

>  <SCORE.INTER.ROT>
7

>  <SCORE.INTER.SOLV>
15.9318

>  <SCORE.INTER.VDW>
-31.7029

>  <SCORE.INTER.norm>
-1.04571

>  <SCORE.INTRA>
0.0025341

>  <SCORE.INTRA.DIHEDRAL>
0.368483

>  <SCORE.INTRA.DIHEDRAL.0>
4.37896

>  <SCORE.INTRA.POLAR>
0

>  <SCORE.INTRA.POLAR.0>
0

>  <SCORE.INTRA.REPUL>
0

>  <SCORE.INTRA.REPUL.0>
0

>  <SCORE.INTRA.SOLV>
-0.434033

>  <SCORE.INTRA.SOLV.lig_0>
-50.5538

>  <SCORE.INTRA.VDW>
0.0353094

>  <SCORE.INTRA.VDW.0>
-1.30673

>  <SCORE.INTRA.norm>
9.74655e-05

>  <SCORE.RESTR>
0

>  <SCORE.RESTR.CAVITY>
0

>  <SCORE.RESTR.norm>
0

>  <SCORE.SYSTEM>
0

>  <SCORE.SYSTEM.CONST>
0

>  <SCORE.SYSTEM.DIHEDRAL>
0

>  <SCORE.SYSTEM.SOLV>
0

>  <SCORE.SYSTEM.norm>
0

>  <SCORE.heavy>
26

>  <SCORE.norm>
-1.04561

>  <RMSD>
2.228

$$$$
ligand
 OpenBabel02271912153D
libRbt.so/2013.1/901 2013/11/27
 26 28  0  0  0  0  0  0  0  0999 V2000
  125.5364   68.4351   -2.5385 N   0  0  0  0  0  0  0  0  0  0  0  0
  126.9488   68.9101   -2.4455 C   0  0  2  0  0  0  0  0  0  0  0  0
  127.0114   70.4073   -2.5429 C   0  0  0  0  0  0  0  0  0  0  0  0
  126.0128   71.0714   -2.8174 O   0  0  0  0  0  0  0  0  0  0  0  0
  127.7892   68.2896   -3.5583 C   0  0  0  0  0  0  0  0  0  0  0  0
  127.6233   66.7771   -3.6697 C   0  0  0  0  0  0  0  0  0  0  0  0
  128.1413   66.0027   -2.1733 S   0  0  0  0  0  0  0  0  0  0  0  0
  129.8946   65.9559   -2.3606 C   0  0  0  0  0  0  0  0  0  0  0  0
  130.6107   66.3108   -1.0587 C   0  0  1  0  0  0  0  0  0  0  0  0
  130.4346   65.2779   -0.0867 O   0  0  0  0  0  0  0  0  0  0  0  0
  132.1045   66.4545   -1.3009 C   0  0  1  0  0  0  0  0  0  0  0  0
  132.5752   67.6787   -0.7290 O   0  0  0  0  0  0  0  0  0  0  0  0
  132.7531   65.2516   -0.6391 C   0  0  1  0  0  0  0  0  0  0  0  0
  133.7725   65.6491    0.2846 O   0  0  0  0  0  0  0  0  0  0  0  0
  131.6375   64.5226    0.1006 C   0  0  2  0  0  0  0  0  0  0  0  0
  128.0702   71.0062   -2.3595 O   0  0  0  0  0  0  0  0  0  0  0  0
  128.4368   61.0702   -2.3077 N   0  0  0  0  0  0  0  0  0  0  0  0
  128.2187   62.3586   -1.9758 C   0  0  0  0  0  0  0  0  0  0  0  0
  129.1362   63.1301   -1.3570 N   0  0  0  0  0  0  0  0  0  0  0  0
  130.3612   62.6426   -1.0216 C   0  0  0  0  0  0  0  0  0  0  0  0
  130.6714   61.2409   -1.3533 C   0  0  0  0  0  0  0  0  0  0  0  0
  129.6125   60.4548   -2.0359 C   0  0  0  0  0  0  0  0  0  0  0  0
  129.8187   59.1592   -2.3720 N   0  0  0  0  0  0  0  0  0  0  0  0
  131.9246   61.0087   -0.9272 N   0  0  0  0  0  0  0  0  0  0  0  0
  132.3794   62.1576   -0.3681 C   0  0  0  0  0  0  0  0  0  0  0  0
  131.4531   63.1355   -0.4196 N   0  0  0  0  0  0  0  0  0  0  0  0
  2  1  1  6  0  0  0
  2  3  1  0  0  0  0
  2  5  1  0  0  0  0
  3  4  1  0  0  0  0
  3 16  1  0  0  0  0
  5  6  1  0  0  0  0
  6  7  1  0  0  0  0
  7  8  1  0  0  0  0
  9  8  1  6  0  0  0
  9 10  1  0  0  0  0
  9 11  1  0  0  0  0
 10 15  1  0  0  0  0
 11 12  1  1  0  0  0
 11 13  1  0  0  0  0
 13 14  1  1  0  0  0
 13 15  1  0  0  0  0
 15 26  1  6  0  0  0
 17 18  2  0  0  0  0
 17 22  1  0  0  0  0
 18 19  1  0  0  0  0
 19 20  2  0  0  0  0
 20 21  1  0  0  0  0
 20 26  1  0  0  0  0
 21 22  2  0  0  0  0
 21 24  1  0  0  0  0
 22 23  1  0  0  0  0
 24 25  2  0  0  0  0
 25 26  1  0  0  0  0
M  END
>  <CHROM.1>
-7.59311876,-49.44314924,-61.33387118,-80.78462600,138.53114103,69.36829375
2.22491934,129.64966459,65.33461302,-1.64041734,2.05352479,-0.42167640,0.02303297

>  <Name>
ligand

>  <RI>
0

>  <Rbt.Current_Directory>
/home/itssahil/PROJECTS/Mol_Feturizer/Test_systems_manuscript/rnas/3npn

>  <Rbt.Executable>
rbdock ($Id: //depot/dev/client3/rdock/2013.1/src/exe/rbdock.cxx#4 $)

>  <Rbt.Library>
libRbt.so (2013.1, Build901 2013/11/27)

>  <Rbt.Parameter_File>
/export/apps/rDock/src/rDock_2013.1_src/data/scripts/dock_solv.prm

>  <Rbt.Receptor>
prm/pocket_docking_5.prm

>  <SCORE>
-24.8289

>  <SCORE.INTER>
-24.593

>  <SCORE.INTER.CONST>
1

>  <SCORE.INTER.POLAR>
0

>  <SCORE.INTER.ROT>
7

>  <SCORE.INTER.SOLV>
22.3385

>  <SCORE.INTER.VDW>
-32.1082

>  <SCORE.INTER.norm>
-0.945886

>  <SCORE.INTRA>
-0.235891

>  <SCORE.INTRA.DIHEDRAL>
1.53646

>  <SCORE.INTRA.DIHEDRAL.0>
4.37896

>  <SCORE.INTRA.POLAR>
0

>  <SCORE.INTRA.POLAR.0>
0

>  <SCORE.INTRA.REPUL>
0

>  <SCORE.INTRA.REPUL.0>
0

>  <SCORE.INTRA.SOLV>
0.832409

>  <SCORE.INTRA.SOLV.lig_0>
-50.5538

>  <SCORE.INTRA.VDW>
-1.42032

>  <SCORE.INTRA.VDW.0>
-1.30673

>  <SCORE.INTRA.norm>
-0.00907272

>  <SCORE.RESTR>
0

>  <SCORE.RESTR.CAVITY>
0

>  <SCORE.RESTR.norm>
0

>  <SCORE.SYSTEM>
0

>  <SCORE.SYSTEM.CONST>
0

>  <SCORE.SYSTEM.DIHEDRAL>
0

>  <SCORE.SYSTEM.SOLV>
0

>  <SCORE.SYSTEM.norm>
0

>  <SCORE.heavy>
26

>  <SCORE.norm>
-0.954958

>  <RMSD>
2.230

$$$$
ligand
 OpenBabel02271912153D
libRbt.so/2013.1/901 2013/11/27
 26 28  0  0  0  0  0  0  0  0999 V2000
  126.9828   70.0203   -5.5011 N   0  0  0  0  0  0  0  0  0  0  0  0
  126.5785   69.4856   -4.1669 C   0  0  2  0  0  0  0  0  0  0  0  0
  126.7620   70.5275   -3.1011 C   0  0  0  0  0  0  0  0  0  0  0  0
  127.8161   71.1529   -2.9947 O   0  0  0  0  0  0  0  0  0  0  0  0
  127.4039   68.2492   -3.8210 C   0  0  0  0  0  0  0  0  0  0  0  0
  127.0966   67.6845   -2.4375 C   0  0  0  0  0  0  0  0  0  0  0  0
  127.6203   66.0040   -2.3431 S   0  0  0  0  0  0  0  0  0  0  0  0
  129.3657   66.1408   -2.5571 C   0  0  0  0  0  0  0  0  0  0  0  0
  130.0515   66.6475   -1.2896 C   0  0  1  0  0  0  0  0  0  0  0  0
  130.0051   65.6582   -0.2592 O   0  0  0  0  0  0  0  0  0  0  0  0
  131.5164   66.9450   -1.5657 C   0  0  1  0  0  0  0  0  0  0  0  0
  131.8513   68.2450   -1.0706 O   0  0  0  0  0  0  0  0  0  0  0  0
  132.3052   65.8626   -0.8502 C   0  0  1  0  0  0  0  0  0  0  0  0
  133.2830   66.4245    0.0320 O   0  0  0  0  0  0  0  0  0  0  0  0
  131.2881   65.0555   -0.0519 C   0  0  2  0  0  0  0  0  0  0  0  0
  125.8616   70.7735   -2.2999 O   0  0  0  0  0  0  0  0  0  0  0  0
  128.4762   61.1345   -2.2159 N   0  0  0  0  0  0  0  0  0  0  0  0
  128.1171   62.4071   -1.9526 C   0  0  0  0  0  0  0  0  0  0  0  0
  128.9471   63.3105   -1.3917 N   0  0  0  0  0  0  0  0  0  0  0  0
  130.2222   62.9834   -1.0485 C   0  0  0  0  0  0  0  0  0  0  0  0
  130.6857   61.6088   -1.3068 C   0  0  0  0  0  0  0  0  0  0  0  0
  129.7163   60.6714   -1.9285 C   0  0  0  0  0  0  0  0  0  0  0  0
  130.0644   59.3901   -2.1954 N   0  0  0  0  0  0  0  0  0  0  0  0
  131.9610   61.5433   -0.8877 N   0  0  0  0  0  0  0  0  0  0  0  0
  132.2881   62.7658   -0.4001 C   0  0  0  0  0  0  0  0  0  0  0  0
  131.2569   63.6291   -0.4916 N   0  0  0  0  0  0  0  0  0  0  0  0
  2  1  1  6  0  0  0
  2  3  1  0  0  0  0
  2  5  1  0  0  0  0
  3  4  1  0  0  0  0
  3 16  1  0  0  0  0
  5  6  1  0  0  0  0
  6  7  1  0  0  0  0
  7  8  1  0  0  0  0
  9  8  1  6  0  0  0
  9 10  1  0  0  0  0
  9 11  1  0  0  0  0
 10 15  1  0  0  0  0
 11 12  1  1  0  0  0
 11 13  1  0  0  0  0
 13 14  1  1  0  0  0
 13 15  1  0  0  0  0
 15 26  1  6  0  0  0
 17 18  2  0  0  0  0
 17 22  1  0  0  0  0
 18 19  1  0  0  0  0
 19 20  2  0  0  0  0
 20 21  1  0  0  0  0
 20 26  1  0  0  0  0
 21 22  2  0  0  0  0
 21 24  1  0  0  0  0
 22 23  1  0  0  0  0
 24 25  2  0  0  0  0
 25 26  1  0  0  0  0
M  END
>  <CHROM.1>
-49.48133406,177.10342962,159.77511290,63.40535391,76.15034823,69.52702385
2.36825644,129.42048960,65.69906825,-1.87038620,2.04164109,-0.48865507,-0.02881607

>  <Name>
ligand

>  <RI>
0

>  <Rbt.Current_Directory>
/home/itssahil/PROJECTS/Mol_Feturizer/Test_systems_manuscript/rnas/3npn

>  <Rbt.Executable>
rbdock ($Id: //depot/dev/client3/rdock/2013.1/src/exe/rbdock.cxx#4 $)

>  <Rbt.Library>
libRbt.so (2013.1, Build901 2013/11/27)

>  <Rbt.Parameter_File>
/export/apps/rDock/src/rDock_2013.1_src/data/scripts/dock_solv.prm

>  <Rbt.Receptor>
prm/pocket_docking_3.prm

>  <SCORE>
-27.9505

>  <SCORE.INTER>
-26.5989

>  <SCORE.INTER.CONST>
1

>  <SCORE.INTER.POLAR>
0

>  <SCORE.INTER.ROT>
7

>  <SCORE.INTER.SOLV>
22.218

>  <SCORE.INTER.VDW>
-33.4053

>  <SCORE.INTER.norm>
-1.02303

>  <SCORE.INTRA>
-1.35157

>  <SCORE.INTRA.DIHEDRAL>
0.4577

>  <SCORE.INTRA.DIHEDRAL.0>
4.37896

>  <SCORE.INTRA.POLAR>
0

>  <SCORE.INTRA.POLAR.0>
0

>  <SCORE.INTRA.REPUL>
0

>  <SCORE.INTRA.REPUL.0>
0

>  <SCORE.INTRA.SOLV>
-0.792684

>  <SCORE.INTRA.SOLV.lig_0>
-50.5538

>  <SCORE.INTRA.VDW>
-1.18408

>  <SCORE.INTRA.VDW.0>
-1.30673

>  <SCORE.INTRA.norm>
-0.0519834

>  <SCORE.RESTR>
0

>  <SCORE.RESTR.CAVITY>
0

>  <SCORE.RESTR.norm>
0

>  <SCORE.SYSTEM>
0

>  <SCORE.SYSTEM.CONST>
0

>  <SCORE.SYSTEM.DIHEDRAL>
0

>  <SCORE.SYSTEM.SOLV>
0

>  <SCORE.SYSTEM.norm>
0

>  <SCORE.heavy>
26

>  <SCORE.norm>
-1.07502

>  <RMSD>
2.233

$$$$
ligand
 OpenBabel02271912153D
libRbt.so/2013.1/901 2013/11/27
 26 28  0  0  0  0  0  0  0  0999 V2000
  127.2255   71.2930   -4.4172 N   0  0  0  0  0  0  0  0  0  0  0  0
  126.7405   69.9181   -4.0953 C   0  0  2  0  0  0  0  0  0  0  0  0
  126.1167   69.8828   -2.7297 C   0  0  0  0  0  0  0  0  0  0  0  0
  126.0223   70.9004   -2.0447 O   0  0  0  0  0  0  0  0  0  0  0  0
  127.8960   68.9226   -4.1556 C   0  0  0  0  0  0  0  0  0  0  0  0
  127.4418   67.4665   -4.1281 C   0  0  0  0  0  0  0  0  0  0  0  0
  128.7859   66.4083   -4.5535 S   0  0  0  0  0  0  0  0  0  0  0  0
  128.8924   65.3503   -3.1462 C   0  0  0  0  0  0  0  0  0  0  0  0
  129.3330   66.1138   -1.8985 C   0  0  1  0  0  0  0  0  0  0  0  0
  129.3660   65.2486   -0.7614 O   0  0  0  0  0  0  0  0  0  0  0  0
  130.7362   66.6671   -2.0871 C   0  0  1  0  0  0  0  0  0  0  0  0
  130.7657   68.0523   -1.7300 O   0  0  0  0  0  0  0  0  0  0  0  0
  131.6353   65.8449   -1.1808 C   0  0  1  0  0  0  0  0  0  0  0  0
  132.3912   66.6800   -0.2967 O   0  0  0  0  0  0  0  0  0  0  0  0
  130.7106   64.9392   -0.3758 C   0  0  2  0  0  0  0  0  0  0  0  0
  125.6929   68.8285   -2.2585 O   0  0  0  0  0  0  0  0  0  0  0  0
  128.9470   60.3404   -2.3005 N   0  0  0  0  0  0  0  0  0  0  0  0
  128.3305   61.5374   -2.2319 C   0  0  0  0  0  0  0  0  0  0  0  0
  128.9071   62.6393   -1.7093 N   0  0  0  0  0  0  0  0  0  0  0  0
  130.1711   62.6068   -1.2074 C   0  0  0  0  0  0  0  0  0  0  0  0
  130.9078   61.3313   -1.2485 C   0  0  0  0  0  0  0  0  0  0  0  0
  130.2086   60.1626   -1.8403 C   0  0  0  0  0  0  0  0  0  0  0  0
  130.8165   58.9546   -1.9125 N   0  0  0  0  0  0  0  0  0  0  0  0
  132.1146   61.5617   -0.7038 N   0  0  0  0  0  0  0  0  0  0  0  0
  132.1504   62.8681   -0.3414 C   0  0  0  0  0  0  0  0  0  0  0  0
  130.9956   63.4974   -0.6374 N   0  0  0  0  0  0  0  0  0  0  0  0
  2  1  1  1  0  0  0
  2  3  1  0  0  0  0
  2  5  1  0  0  0  0
  3  4  1  0  0  0  0
  3 16  1  0  0  0  0
  5  6  1  0  0  0  0
  6  7  1  0  0  0  0
  7  8  1  0  0  0  0
  9  8  1  6  0  0  0
  9 10  1  0  0  0  0
  9 11  1  0  0  0  0
 10 15  1  0  0  0  0
 11 12  1  1  0  0  0
 11 13  1  0  0  0  0
 13 14  1  1  0  0  0
 13 15  1  0  0  0  0
 15 26  1  6  0  0  0
 17 18  2  0  0  0  0
 17 22  1  0  0  0  0
 18 19  1  0  0  0  0
 19 20  2  0  0  0  0
 20 21  1  0  0  0  0
 20 26  1  0  0  0  0
 21 22  2  0  0  0  0
 21 24  1  0  0  0  0
 22 23  1  0  0  0  0
 24 25  2  0  0  0  0
 25 26  1  0  0  0  0
M  END
>  <CHROM.1>
1.81934183,-167.95016640,167.64301021,122.69721948,-66.90734669,177.90761015
3.15511421,129.30100994,65.48476990,-2.19573163,2.05410160,-0.57681440,0.03792549

>  <Name>
ligand

>  <RI>
0

>  <Rbt.Current_Directory>
/home/itssahil/PROJECTS/Mol_Feturizer/Test_systems_manuscript/rnas/3npn

>  <Rbt.Executable>
rbdock ($Id: //depot/dev/client3/rdock/2013.1/src/exe/rbdock.cxx#4 $)

>  <Rbt.Library>
libRbt.so (2013.1, Build901 2013/11/27)

>  <Rbt.Parameter_File>
/export/apps/rDock/src/rDock_2013.1_src/data/scripts/dock_solv.prm

>  <Rbt.Receptor>
prm/pocket_docking_4.prm

>  <SCORE>
-26.6087

>  <SCORE.INTER>
-26.4169

>  <SCORE.INTER.CONST>
1

>  <SCORE.INTER.POLAR>
0

>  <SCORE.INTER.ROT>
7

>  <SCORE.INTER.SOLV>
18.4836

>  <SCORE.INTER.VDW>
-32.0392

>  <SCORE.INTER.norm>
-1.01604

>  <SCORE.INTRA>
-0.191725

>  <SCORE.INTRA.DIHEDRAL>
1.86776

>  <SCORE.INTRA.DIHEDRAL.0>
4.37896

>  <SCORE.INTRA.POLAR>
0

>  <SCORE.INTRA.POLAR.0>
0

>  <SCORE.INTRA.REPUL>
0

>  <SCORE.INTRA.REPUL.0>
0

>  <SCORE.INTRA.SOLV>
-0.587136

>  <SCORE.INTRA.SOLV.lig_0>
-50.5538

>  <SCORE.INTRA.VDW>
-0.832038

>  <SCORE.INTRA.VDW.0>
-1.30673

>  <SCORE.INTRA.norm>
-0.00737404

>  <SCORE.RESTR>
0

>  <SCORE.RESTR.CAVITY>
0

>  <SCORE.RESTR.norm>
0

>  <SCORE.SYSTEM>
0

>  <SCORE.SYSTEM.CONST>
0

>  <SCORE.SYSTEM.DIHEDRAL>
0

>  <SCORE.SYSTEM.SOLV>
0

>  <SCORE.SYSTEM.norm>
0

>  <SCORE.heavy>
26

>  <SCORE.norm>
-1.02341

>  <RMSD>
2.234

$$$$
ligand
 OpenBabel02271912153D
libRbt.so/2013.1/901 2013/11/27
 26 28  0  0  0  0  0  0  0  0999 V2000
  126.8783   70.0272   -5.4831 N   0  0  0  0  0  0  0  0  0  0  0  0
  126.5056   69.4966   -4.1382 C   0  0  2  0  0  0  0  0  0  0  0  0
  126.7503   70.5288   -3.0753 C   0  0  0  0  0  0  0  0  0  0  0  0
  127.8049   71.1607   -3.0299 O   0  0  0  0  0  0  0  0  0  0  0  0
  127.3115   68.2388   -3.8247 C   0  0  0  0  0  0  0  0  0  0  0  0
  127.0323   67.6721   -2.4361 C   0  0  0  0  0  0  0  0  0  0  0  0
  127.6194   66.0131   -2.3335 S   0  0  0  0  0  0  0  0  0  0  0  0
  129.3603   66.2168   -2.5313 C   0  0  0  0  0  0  0  0  0  0  0  0
  130.0200   66.7125   -1.2457 C   0  0  1  0  0  0  0  0  0  0  0  0
  129.9646   65.7093   -0.2293 O   0  0  0  0  0  0  0  0  0  0  0  0
  131.4868   67.0259   -1.4928 C   0  0  1  0  0  0  0  0  0  0  0  0
  131.8020   68.3220   -0.9751 O   0  0  0  0  0  0  0  0  0  0  0  0
  132.2726   65.9408   -0.7782 C   0  0  1  0  0  0  0  0  0  0  0  0
  133.2304   66.4992    0.1279 O   0  0  0  0  0  0  0  0  0  0  0  0
  131.2491   65.1147   -0.0079 C   0  0  2  0  0  0  0  0  0  0  0  0
  125.9015   70.7601   -2.2155 O   0  0  0  0  0  0  0  0  0  0  0  0
  128.4918   61.1843   -2.2246 N   0  0  0  0  0  0  0  0  0  0  0  0
  128.1150   62.4482   -1.9443 C   0  0  0  0  0  0  0  0  0  0  0  0
  128.9324   63.3554   -1.3712 N   0  0  0  0  0  0  0  0  0  0  0  0
  130.2120   63.0416   -1.0323 C   0  0  0  0  0  0  0  0  0  0  0  0
  130.6946   61.6771   -1.3090 C   0  0  0  0  0  0  0  0  0  0  0  0
  129.7382   60.7347   -1.9432 C   0  0  0  0  0  0  0  0  0  0  0  0
  130.1041   59.4620   -2.2273 N   0  0  0  0  0  0  0  0  0  0  0  0
  131.9706   61.6237   -0.8907 N   0  0  0  0  0  0  0  0  0  0  0  0
  132.2808   62.8440   -0.3867 C   0  0  0  0  0  0  0  0  0  0  0  0
  131.2377   63.6941   -0.4667 N   0  0  0  0  0  0  0  0  0  0  0  0
  2  1  1  6  0  0  0
  2  3  1  0  0  0  0
  2  5  1  0  0  0  0
  3  4  1  0  0  0  0
  3 16  1  0  0  0  0
  5  6  1  0  0  0  0
  6  7  1  0  0  0  0
  7  8  1  0  0  0  0
  9  8  1  6  0  0  0
  9 10  1  0  0  0  0
  9 11  1  0  0  0  0
 10 15  1  0  0  0  0
 11 12  1  1  0  0  0
 11 13  1  0  0  0  0
 13 14  1  1  0  0  0
 13 15  1  0  0  0  0
 15 26  1  6  0  0  0
 17 18  2  0  0  0  0
 17 22  1  0  0  0  0
 18 19  1  0  0  0  0
 19 20  2  0  0  0  0
 20 21  1  0  0  0  0
 20 26  1  0  0  0  0
 21 22  2  0  0  0  0
 21 24  1  0  0  0  0
 22 23  1  0  0  0  0
 24 25  2  0  0  0  0
 25 26  1  0  0  0  0
M  END
>  <CHROM.1>
-46.94158055,177.34887518,163.64203688,64.27283380,77.82790925,67.70317968
1.34335294,129.39962375,65.74227177,-1.84584697,2.05366082,-0.50412535,-0.01585165

>  <Name>
ligand

>  <RI>
0

>  <Rbt.Current_Directory>
/home/itssahil/PROJECTS/Mol_Feturizer/Test_systems_manuscript/rnas/3npn

>  <Rbt.Executable>
rbdock ($Id: //depot/dev/client3/rdock/2013.1/src/exe/rbdock.cxx#4 $)

>  <Rbt.Library>
libRbt.so (2013.1, Build901 2013/11/27)

>  <Rbt.Parameter_File>
/export/apps/rDock/src/rDock_2013.1_src/data/scripts/dock_solv.prm

>  <Rbt.Receptor>
prm/pocket_docking_4.prm

>  <SCORE>
-27.9589

>  <SCORE.INTER>
-26.3493

>  <SCORE.INTER.CONST>
1

>  <SCORE.INTER.POLAR>
0

>  <SCORE.INTER.ROT>
7

>  <SCORE.INTER.SOLV>
22.6628

>  <SCORE.INTER.VDW>
-33.3871

>  <SCORE.INTER.norm>
-1.01344

>  <SCORE.INTRA>
-1.60956

>  <SCORE.INTRA.DIHEDRAL>
-0.0233437

>  <SCORE.INTRA.DIHEDRAL.0>
4.37896

>  <SCORE.INTRA.POLAR>
0

>  <SCORE.INTRA.POLAR.0>
0

>  <SCORE.INTRA.REPUL>
0

>  <SCORE.INTRA.REPUL.0>
0

>  <SCORE.INTRA.SOLV>
-0.784805

>  <SCORE.INTRA.SOLV.lig_0>
-50.5538

>  <SCORE.INTRA.VDW>
-1.20549

>  <SCORE.INTRA.VDW.0>
-1.30673

>  <SCORE.INTRA.norm>
-0.0619063

>  <SCORE.RESTR>
0

>  <SCORE.RESTR.CAVITY>
0

>  <SCORE.RESTR.norm>
0

>  <SCORE.SYSTEM>
0

>  <SCORE.SYSTEM.CONST>
0

>  <SCORE.SYSTEM.DIHEDRAL>
0

>  <SCORE.SYSTEM.SOLV>
0

>  <SCORE.SYSTEM.norm>
0

>  <SCORE.heavy>
26

>  <SCORE.norm>
-1.07534

>  <RMSD>
2.267

$$$$
ligand
 OpenBabel02271912153D
libRbt.so/2013.1/901 2013/11/27
 26 28  0  0  0  0  0  0  0  0999 V2000
  128.3910   69.0958   -4.3595 N   0  0  0  0  0  0  0  0  0  0  0  0
  127.5366   68.4071   -3.3472 C   0  0  2  0  0  0  0  0  0  0  0  0
  126.3350   69.2430   -3.0117 C   0  0  0  0  0  0  0  0  0  0  0  0
  125.4208   68.7976   -2.3192 O   0  0  0  0  0  0  0  0  0  0  0  0
  128.3387   68.1321   -2.0781 C   0  0  0  0  0  0  0  0  0  0  0  0
  129.2249   66.8943   -2.1790 C   0  0  0  0  0  0  0  0  0  0  0  0
  128.2265   65.4433   -2.2516 S   0  0  0  0  0  0  0  0  0  0  0  0
  129.4085   64.1596   -1.9945 C   0  0  0  0  0  0  0  0  0  0  0  0
  130.4456   64.5499   -0.9430 C   0  0  1  0  0  0  0  0  0  0  0  0
  130.7195   63.4515   -0.0705 O   0  0  0  0  0  0  0  0  0  0  0  0
  131.7555   64.9343   -1.6116 C   0  0  1  0  0  0  0  0  0  0  0  0
  132.2197   66.1838   -1.0915 O   0  0  0  0  0  0  0  0  0  0  0  0
  132.7293   63.8116   -1.3002 C   0  0  1  0  0  0  0  0  0  0  0  0
  133.9270   64.3110   -0.6949 O   0  0  0  0  0  0  0  0  0  0  0  0
  132.0073   62.8812   -0.3327 C   0  0  2  0  0  0  0  0  0  0  0  0
  126.2322   70.3944   -3.4321 O   0  0  0  0  0  0  0  0  0  0  0  0
  128.7903   59.3742   -2.6384 N   0  0  0  0  0  0  0  0  0  0  0  0
  128.5363   60.6314   -2.2228 C   0  0  0  0  0  0  0  0  0  0  0  0
  129.4633   61.4224   -1.6444 N   0  0  0  0  0  0  0  0  0  0  0  0
  130.7362   60.9885   -1.4393 C   0  0  0  0  0  0  0  0  0  0  0  0
  131.0878   59.6234   -1.8685 C   0  0  0  0  0  0  0  0  0  0  0  0
  130.0153   58.8129   -2.4992 C   0  0  0  0  0  0  0  0  0  0  0  0
  130.2576   57.5481   -2.9184 N   0  0  0  0  0  0  0  0  0  0  0  0
  132.3837   59.4413   -1.5623 N   0  0  0  0  0  0  0  0  0  0  0  0
  132.8259   60.5859   -0.9846 C   0  0  0  0  0  0  0  0  0  0  0  0
  131.8498   61.5122   -0.9069 N   0  0  0  0  0  0  0  0  0  0  0  0
  2  1  1  6  0  0  0
  2  3  1  0  0  0  0
  2  5  1  0  0  0  0
  3  4  1  0  0  0  0
  3 16  1  0  0  0  0
  5  6  1  0  0  0  0
  6  7  1  0  0  0  0
  7  8  1  0  0  0  0
  9  8  1  6  0  0  0
  9 10  1  0  0  0  0
  9 11  1  0  0  0  0
 10 15  1  0  0  0  0
 11 12  1  1  0  0  0
 11 13  1  0  0  0  0
 13 14  1  1  0  0  0
 13 15  1  0  0  0  0
 15 26  1  6  0  0  0
 17 18  2  0  0  0  0
 17 22  1  0  0  0  0
 18 19  1  0  0  0  0
 19 20  2  0  0  0  0
 20 21  1  0  0  0  0
 20 26  1  0  0  0  0
 21 22  2  0  0  0  0
 21 24  1  0  0  0  0
 22 23  1  0  0  0  0
 24 25  2  0  0  0  0
 25 26  1  0  0  0  0
M  END
>  <CHROM.1>
171.36795551,-80.63165342,-68.30109943,-167.70866885,39.35101993,138.01147251
16.47576348,129.85498199,64.07682648,-1.92001240,-2.02432024,0.36920058,-3.10902816

>  <Name>
ligand

>  <RI>
0

>  <Rbt.Current_Directory>
/home/itssahil/PROJECTS/Mol_Feturizer/Test_systems_manuscript/rnas/3npn

>  <Rbt.Executable>
rbdock ($Id: //depot/dev/client3/rdock/2013.1/src/exe/rbdock.cxx#4 $)

>  <Rbt.Library>
libRbt.so (2013.1, Build901 2013/11/27)

>  <Rbt.Parameter_File>
/export/apps/rDock/src/rDock_2013.1_src/data/scripts/dock_solv.prm

>  <Rbt.Receptor>
prm/pocket_docking_6.prm

>  <SCORE>
-22.2371

>  <SCORE.INTER>
-24.8995

>  <SCORE.INTER.CONST>
1

>  <SCORE.INTER.POLAR>
0

>  <SCORE.INTER.ROT>
7

>  <SCORE.INTER.SOLV>
15.7825

>  <SCORE.INTER.VDW>
-30.1271

>  <SCORE.INTER.norm>
-0.957672

>  <SCORE.INTRA>
2.60601

>  <SCORE.INTRA.DIHEDRAL>
5.14873

>  <SCORE.INTRA.DIHEDRAL.0>
4.37896

>  <SCORE.INTRA.POLAR>
0

>  <SCORE.INTRA.POLAR.0>
0

>  <SCORE.INTRA.REPUL>
0

>  <SCORE.INTRA.REPUL.0>
0

>  <SCORE.INTRA.SOLV>
0.232638

>  <SCORE.INTRA.SOLV.lig_0>
-50.5538

>  <SCORE.INTRA.VDW>
-0.0846694

>  <SCORE.INTRA.VDW.0>
-1.30673

>  <SCORE.INTRA.norm>
0.100231

>  <SCORE.RESTR>
0.0563738

>  <SCORE.RESTR.CAVITY>
0.0563738

>  <SCORE.RESTR.norm>
0.00216822

>  <SCORE.SYSTEM>
0

>  <SCORE.SYSTEM.CONST>
0

>  <SCORE.SYSTEM.DIHEDRAL>
0

>  <SCORE.SYSTEM.SOLV>
0

>  <SCORE.SYSTEM.norm>
0

>  <SCORE.heavy>
26

>  <SCORE.norm>
-0.855273

>  <RMSD>
2.274

$$$$
ligand
 OpenBabel02271912153D
libRbt.so/2013.1/901 2013/11/27
 26 28  0  0  0  0  0  0  0  0999 V2000
  126.4818   70.1338   -3.8724 N   0  0  0  0  0  0  0  0  0  0  0  0
  127.3091   69.7078   -2.7048 C   0  0  2  0  0  0  0  0  0  0  0  0
  128.7723   69.8391   -3.0165 C   0  0  0  0  0  0  0  0  0  0  0  0
  129.1872   69.7704   -4.1726 O   0  0  0  0  0  0  0  0  0  0  0  0
  126.9932   68.2616   -2.3329 C   0  0  0  0  0  0  0  0  0  0  0  0
  126.9649   67.3208   -3.5336 C   0  0  0  0  0  0  0  0  0  0  0  0
  128.6015   66.7971   -3.9269 S   0  0  0  0  0  0  0  0  0  0  0  0
  128.9345   65.6174   -2.6586 C   0  0  0  0  0  0  0  0  0  0  0  0
  129.6889   66.2454   -1.4880 C   0  0  1  0  0  0  0  0  0  0  0  0
  129.7864   65.3265   -0.3977 O   0  0  0  0  0  0  0  0  0  0  0  0
  131.1058   66.6042   -1.9055 C   0  0  1  0  0  0  0  0  0  0  0  0
  131.4002   67.9510   -1.5227 O   0  0  0  0  0  0  0  0  0  0  0  0
  132.0142   65.6176   -1.1935 C   0  0  1  0  0  0  0  0  0  0  0  0
  133.0246   66.2907   -0.4344 O   0  0  0  0  0  0  0  0  0  0  0  0
  131.1163   64.8109   -0.2629 C   0  0  2  0  0  0  0  0  0  0  0  0
  129.5945   70.0091   -2.1174 O   0  0  0  0  0  0  0  0  0  0  0  0
  128.4861   60.6861   -2.2709 N   0  0  0  0  0  0  0  0  0  0  0  0
  128.0870   61.9634   -2.1062 C   0  0  0  0  0  0  0  0  0  0  0  0
  128.8724   62.9225   -1.5743 N   0  0  0  0  0  0  0  0  0  0  0  0
  130.1400   62.6516   -1.1613 C   0  0  0  0  0  0  0  0  0  0  0  0
  130.6455   61.2756   -1.3103 C   0  0  0  0  0  0  0  0  0  0  0  0
  129.7241   60.2750   -1.9059 C   0  0  0  0  0  0  0  0  0  0  0  0
  130.1125   58.9885   -2.0742 N   0  0  0  0  0  0  0  0  0  0  0  0
  131.9040   61.2706   -0.8389 N   0  0  0  0  0  0  0  0  0  0  0  0
  132.1827   62.5302   -0.4206 C   0  0  0  0  0  0  0  0  0  0  0  0
  131.1361   63.3587   -0.6085 N   0  0  0  0  0  0  0  0  0  0  0  0
  2  1  1  6  0  0  0
  2  3  1  0  0  0  0
  2  5  1  0  0  0  0
  3  4  1  0  0  0  0
  3 16  1  0  0  0  0
  5  6  1  0  0  0  0
  6  7  1  0  0  0  0
  7  8  1  0  0  0  0
  9  8  1  6  0  0  0
  9 10  1  0  0  0  0
  9 11  1  0  0  0  0
 10 15  1  0  0  0  0
 11 12  1  1  0  0  0
 11 13  1  0  0  0  0
 13 14  1  1  0  0  0
 13 15  1  0  0  0  0
 15 26  1  6  0  0  0
 17 18  2  0  0  0  0
 17 22  1  0  0  0  0
 18 19  1  0  0  0  0
 19 20  2  0  0  0  0
 20 21  1  0  0  0  0
 20 26  1  0  0  0  0
 21 22  2  0  0  0  0
 21 24  1  0  0  0  0
 22 23  1  0  0  0  0
 24 25  2  0  0  0  0
 25 26  1  0  0  0  0
M  END
>  <CHROM.1>
-26.64348100,47.03789945,83.31450680,75.49805430,-95.46898031,172.01498529
9.65726943,129.65876279,65.43522765,-2.02143036,1.85907988,-0.50276615,-0.08035763

>  <Name>
ligand

>  <RI>
0

>  <Rbt.Current_Directory>
/home/itssahil/PROJECTS/Mol_Feturizer/Test_systems_manuscript/rnas/3npn

>  <Rbt.Executable>
rbdock ($Id: //depot/dev/client3/rdock/2013.1/src/exe/rbdock.cxx#4 $)

>  <Rbt.Library>
libRbt.so (2013.1, Build901 2013/11/27)

>  <Rbt.Parameter_File>
/export/apps/rDock/src/rDock_2013.1_src/data/scripts/dock_solv.prm

>  <Rbt.Receptor>
prm/pocket_docking_2.prm

>  <SCORE>
-23.0188

>  <SCORE.INTER>
-22.804

>  <SCORE.INTER.CONST>
1

>  <SCORE.INTER.POLAR>
0

>  <SCORE.INTER.ROT>
7

>  <SCORE.INTER.SOLV>
17.474

>  <SCORE.INTER.VDW>
-29.294

>  <SCORE.INTER.norm>
-0.877076

>  <SCORE.INTRA>
-0.214837

>  <SCORE.INTRA.DIHEDRAL>
2.86006

>  <SCORE.INTRA.DIHEDRAL.0>
4.37896

>  <SCORE.INTRA.POLAR>
0

>  <SCORE.INTRA.POLAR.0>
0

>  <SCORE.INTRA.REPUL>
0

>  <SCORE.INTRA.REPUL.0>
0

>  <SCORE.INTRA.SOLV>
0.875077

>  <SCORE.INTRA.SOLV.lig_0>
-50.5538

>  <SCORE.INTRA.VDW>
-2.0824

>  <SCORE.INTRA.VDW.0>
-1.30673

>  <SCORE.INTRA.norm>
-0.00826296

>  <SCORE.RESTR>
0

>  <SCORE.RESTR.CAVITY>
0

>  <SCORE.RESTR.norm>
0

>  <SCORE.SYSTEM>
0

>  <SCORE.SYSTEM.CONST>
0

>  <SCORE.SYSTEM.DIHEDRAL>
0

>  <SCORE.SYSTEM.SOLV>
0

>  <SCORE.SYSTEM.norm>
0

>  <SCORE.heavy>
26

>  <SCORE.norm>
-0.885339

>  <RMSD>
2.300

$$$$
ligand
 OpenBabel02271912153D
libRbt.so/2013.1/901 2013/11/27
 26 28  0  0  0  0  0  0  0  0999 V2000
  127.3026   70.6214   -5.0790 N   0  0  0  0  0  0  0  0  0  0  0  0
  126.4643   69.7391   -4.2140 C   0  0  2  0  0  0  0  0  0  0  0  0
  126.4943   70.2118   -2.7889 C   0  0  0  0  0  0  0  0  0  0  0  0
  125.5301   70.0494   -2.0422 O   0  0  0  0  0  0  0  0  0  0  0  0
  126.9651   68.2990   -4.2857 C   0  0  0  0  0  0  0  0  0  0  0  0
  128.4465   68.1564   -3.9503 C   0  0  0  0  0  0  0  0  0  0  0  0
  129.0303   66.5741   -4.4627 S   0  0  0  0  0  0  0  0  0  0  0  0
  128.8063   65.6009   -3.0088 C   0  0  0  0  0  0  0  0  0  0  0  0
  129.3047   66.3278   -1.7610 C   0  0  1  0  0  0  0  0  0  0  0  0
  129.3571   65.4377   -0.6440 O   0  0  0  0  0  0  0  0  0  0  0  0
  130.7125   66.8557   -1.9854 C   0  0  1  0  0  0  0  0  0  0  0  0
  130.7837   68.2320   -1.6007 O   0  0  0  0  0  0  0  0  0  0  0  0
  131.6234   65.9956   -1.1276 C   0  0  1  0  0  0  0  0  0  0  0  0
  132.4264   66.7954   -0.2524 O   0  0  0  0  0  0  0  0  0  0  0  0
  130.7069   65.0921   -0.3109 C   0  0  2  0  0  0  0  0  0  0  0  0
  127.4847   70.7840   -2.3364 O   0  0  0  0  0  0  0  0  0  0  0  0
  128.7859   60.5772   -2.2829 N   0  0  0  0  0  0  0  0  0  0  0  0
  128.1986   61.7855   -2.1701 C   0  0  0  0  0  0  0  0  0  0  0  0
  128.8146   62.8626   -1.6407 N   0  0  0  0  0  0  0  0  0  0  0  0
  130.0915   62.7913   -1.1769 C   0  0  0  0  0  0  0  0  0  0  0  0
  130.7979   61.5013   -1.2675 C   0  0  0  0  0  0  0  0  0  0  0  0
  130.0559   60.3617   -1.8638 C   0  0  0  0  0  0  0  0  0  0  0  0
  130.6342   59.1426   -1.9802 N   0  0  0  0  0  0  0  0  0  0  0  0
  132.0249   61.6931   -0.7535 N   0  0  0  0  0  0  0  0  0  0  0  0
  132.1003   62.9899   -0.3639 C   0  0  0  0  0  0  0  0  0  0  0  0
  130.9519   63.6506   -0.6120 N   0  0  0  0  0  0  0  0  0  0  0  0
  2  1  1  6  0  0  0
  2  3  1  0  0  0  0
  2  5  1  0  0  0  0
  3  4  1  0  0  0  0
  3 16  1  0  0  0  0
  5  6  1  0  0  0  0
  6  7  1  0  0  0  0
  7  8  1  0  0  0  0
  9  8  1  6  0  0  0
  9 10  1  0  0  0  0
  9 11  1  0  0  0  0
 10 15  1  0  0  0  0
 11 12  1  1  0  0  0
 11 13  1  0  0  0  0
 13 14  1  1  0  0  0
 13 15  1  0  0  0  0
 15 26  1  6  0  0  0
 17 18  2  0  0  0  0
 17 22  1  0  0  0  0
 18 19  1  0  0  0  0
 19 20  2  0  0  0  0
 20 21  1  0  0  0  0
 20 26  1  0  0  0  0
 21 22  2  0  0  0  0
 21 24  1  0  0  0  0
 22 23  1  0  0  0  0
 24 25  2  0  0  0  0
 25 26  1  0  0  0  0
M  END
>  <CHROM.1>
149.13677794,54.54016959,-165.10049427,-92.28207633,-45.58344088,-168.75307487
3.42800266,129.34373247,65.64659527,-2.18950887,2.03595840,-0.62649175,0.03137360

>  <Name>
ligand

>  <RI>
0

>  <Rbt.Current_Directory>
/home/itssahil/PROJECTS/Mol_Feturizer/Test_systems_manuscript/rnas/3npn

>  <Rbt.Executable>
rbdock ($Id: //depot/dev/client3/rdock/2013.1/src/exe/rbdock.cxx#4 $)

>  <Rbt.Library>
libRbt.so (2013.1, Build901 2013/11/27)

>  <Rbt.Parameter_File>
/export/apps/rDock/src/rDock_2013.1_src/data/scripts/dock_solv.prm

>  <Rbt.Receptor>
prm/pocket_docking_5.prm

>  <SCORE>
-24.7071

>  <SCORE.INTER>
-25.3859

>  <SCORE.INTER.CONST>
1

>  <SCORE.INTER.POLAR>
0

>  <SCORE.INTER.ROT>
7

>  <SCORE.INTER.SOLV>
18.5753

>  <SCORE.INTER.VDW>
-31.3823

>  <SCORE.INTER.norm>
-0.97638

>  <SCORE.INTRA>
0.678762

>  <SCORE.INTRA.DIHEDRAL>
1.33527

>  <SCORE.INTRA.DIHEDRAL.0>
4.37896

>  <SCORE.INTRA.POLAR>
0

>  <SCORE.INTRA.POLAR.0>
0

>  <SCORE.INTRA.REPUL>
0

>  <SCORE.INTRA.REPUL.0>
0

>  <SCORE.INTRA.SOLV>
0.331355

>  <SCORE.INTRA.SOLV.lig_0>
-50.5538

>  <SCORE.INTRA.VDW>
-0.154553

>  <SCORE.INTRA.VDW.0>
-1.30673

>  <SCORE.INTRA.norm>
0.0261062

>  <SCORE.RESTR>
0

>  <SCORE.RESTR.CAVITY>
0

>  <SCORE.RESTR.norm>
0

>  <SCORE.SYSTEM>
0

>  <SCORE.SYSTEM.CONST>
0

>  <SCORE.SYSTEM.DIHEDRAL>
0

>  <SCORE.SYSTEM.SOLV>
0

>  <SCORE.SYSTEM.norm>
0

>  <SCORE.heavy>
26

>  <SCORE.norm>
-0.950273

>  <RMSD>
2.310

$$$$
ligand
 OpenBabel02271912153D
libRbt.so/2013.1/901 2013/11/27
 26 28  0  0  0  0  0  0  0  0999 V2000
  128.7456   68.3861   -2.3938 N   0  0  0  0  0  0  0  0  0  0  0  0
  127.9452   68.0722   -3.6146 C   0  0  2  0  0  0  0  0  0  0  0  0
  126.5266   68.5375   -3.4518 C   0  0  0  0  0  0  0  0  0  0  0  0
  125.7672   68.0004   -2.6465 O   0  0  0  0  0  0  0  0  0  0  0  0
  127.9628   66.5704   -3.8862 C   0  0  0  0  0  0  0  0  0  0  0  0
  129.2678   66.0837   -4.5087 C   0  0  0  0  0  0  0  0  0  0  0  0
  130.5998   66.3225   -3.3789 S   0  0  0  0  0  0  0  0  0  0  0  0
  130.3365   65.0303   -2.2076 C   0  0  0  0  0  0  0  0  0  0  0  0
  131.1767   65.2312   -0.9476 C   0  0  1  0  0  0  0  0  0  0  0  0
  130.9808   64.1519   -0.0316 O   0  0  0  0  0  0  0  0  0  0  0  0
  132.6552   65.2636   -1.2995 C   0  0  1  0  0  0  0  0  0  0  0  0
  133.2759   66.4003   -0.6914 O   0  0  0  0  0  0  0  0  0  0  0  0
  133.2399   63.9665   -0.7689 C   0  0  1  0  0  0  0  0  0  0  0  0
  134.3569   64.2103    0.0931 O   0  0  0  0  0  0  0  0  0  0  0  0
  132.1211   63.2855    0.0107 C   0  0  2  0  0  0  0  0  0  0  0  0
  126.0865   69.4643   -4.1304 O   0  0  0  0  0  0  0  0  0  0  0  0
  128.5233   60.3573   -2.5281 N   0  0  0  0  0  0  0  0  0  0  0  0
  128.4578   61.6423   -2.1253 C   0  0  0  0  0  0  0  0  0  0  0  0
  129.4634   62.2691   -1.4805 N   0  0  0  0  0  0  0  0  0  0  0  0
  130.6272   61.6274   -1.1899 C   0  0  0  0  0  0  0  0  0  0  0  0
  130.7712   60.2194   -1.5999 C   0  0  0  0  0  0  0  0  0  0  0  0
  129.6229   59.5977   -2.3070 C   0  0  0  0  0  0  0  0  0  0  0  0
  129.6758   58.3072   -2.7142 N   0  0  0  0  0  0  0  0  0  0  0  0
  131.9933   59.8228   -1.2057 N   0  0  0  0  0  0  0  0  0  0  0  0
  132.5821   60.8801   -0.5935 C   0  0  0  0  0  0  0  0  0  0  0  0
  131.7739   61.9589   -0.5793 N   0  0  0  0  0  0  0  0  0  0  0  0
  2  1  1  1  0  0  0
  2  3  1  0  0  0  0
  2  5  1  0  0  0  0
  3  4  1  0  0  0  0
  3 16  1  0  0  0  0
  5  6  1  0  0  0  0
  6  7  1  0  0  0  0
  7  8  1  0  0  0  0
  9  8  1  6  0  0  0
  9 10  1  0  0  0  0
  9 11  1  0  0  0  0
 10 15  1  0  0  0  0
 11 12  1  1  0  0  0
 11 13  1  0  0  0  0
 13 14  1  1  0  0  0
 13 15  1  0  0  0  0
 15 26  1  6  0  0  0
 17 18  2  0  0  0  0
 17 22  1  0  0  0  0
 18 19  1  0  0  0  0
 19 20  2  0  0  0  0
 20 21  1  0  0  0  0
 20 26  1  0  0  0  0
 21 22  2  0  0  0  0
 21 24  1  0  0  0  0
 22 23  1  0  0  0  0
 24 25  2  0  0  0  0
 25 26  1  0  0  0  0
M  END
>  <CHROM.1>
-68.33136570,-76.90910606,64.31096543,74.98303004,-166.58118384,-178.13019958
6.34592464,130.18917577,64.28465533,-1.99756547,-2.09242345,0.45084075,3.08365609

>  <Name>
ligand

>  <RI>
0

>  <Rbt.Current_Directory>
/home/itssahil/PROJECTS/Mol_Feturizer/Test_systems_manuscript/rnas/3npn

>  <Rbt.Executable>
rbdock ($Id: //depot/dev/client3/rdock/2013.1/src/exe/rbdock.cxx#4 $)

>  <Rbt.Library>
libRbt.so (2013.1, Build901 2013/11/27)

>  <Rbt.Parameter_File>
/export/apps/rDock/src/rDock_2013.1_src/data/scripts/dock_solv.prm

>  <Rbt.Receptor>
prm/pocket_docking_5.prm

>  <SCORE>
-21.3375

>  <SCORE.INTER>
-21.5363

>  <SCORE.INTER.CONST>
1

>  <SCORE.INTER.POLAR>
0

>  <SCORE.INTER.ROT>
7

>  <SCORE.INTER.SOLV>
16.2739

>  <SCORE.INTER.VDW>
-28.0489

>  <SCORE.INTER.norm>
-0.82832

>  <SCORE.INTRA>
0.198817

>  <SCORE.INTRA.DIHEDRAL>
0.088769

>  <SCORE.INTRA.DIHEDRAL.0>
4.37896

>  <SCORE.INTRA.POLAR>
0

>  <SCORE.INTRA.POLAR.0>
0

>  <SCORE.INTRA.REPUL>
0

>  <SCORE.INTRA.REPUL.0>
0

>  <SCORE.INTRA.SOLV>
2.00624

>  <SCORE.INTRA.SOLV.lig_0>
-50.5538

>  <SCORE.INTRA.VDW>
-0.84869

>  <SCORE.INTRA.VDW.0>
-1.30673

>  <SCORE.INTRA.norm>
0.0076468

>  <SCORE.RESTR>
0

>  <SCORE.RESTR.CAVITY>
0

>  <SCORE.RESTR.norm>
0

>  <SCORE.SYSTEM>
0

>  <SCORE.SYSTEM.CONST>
0

>  <SCORE.SYSTEM.DIHEDRAL>
0

>  <SCORE.SYSTEM.SOLV>
0

>  <SCORE.SYSTEM.norm>
0

>  <SCORE.heavy>
26

>  <SCORE.norm>
-0.820673

>  <RMSD>
2.332

$$$$
ligand
 OpenBabel02271912153D
libRbt.so/2013.1/901 2013/11/27
 26 28  0  0  0  0  0  0  0  0999 V2000
  126.7995   70.1133   -3.9716 N   0  0  0  0  0  0  0  0  0  0  0  0
  126.7799   68.6212   -4.0222 C   0  0  2  0  0  0  0  0  0  0  0  0
  126.3136   68.0531   -2.7126 C   0  0  0  0  0  0  0  0  0  0  0  0
  125.3393   67.3043   -2.6525 O   0  0  0  0  0  0  0  0  0  0  0  0
  128.1721   68.0853   -4.3454 C   0  0  0  0  0  0  0  0  0  0  0  0
  128.2123   66.5697   -4.5151 C   0  0  0  0  0  0  0  0  0  0  0  0
  128.4081   65.7929   -2.9449 S   0  0  0  0  0  0  0  0  0  0  0  0
  130.1623   65.6954   -2.7890 C   0  0  0  0  0  0  0  0  0  0  0  0
  130.6320   66.1489   -1.4079 C   0  0  1  0  0  0  0  0  0  0  0  0
  130.2758   65.1880   -0.4117 O   0  0  0  0  0  0  0  0  0  0  0  0
  132.1458   66.2852   -1.3843 C   0  0  1  0  0  0  0  0  0  0  0  0
  132.5124   67.5510   -0.8270 O   0  0  0  0  0  0  0  0  0  0  0  0
  132.6559   65.1382   -0.5301 C   0  0  1  0  0  0  0  0  0  0  0  0
  133.4928   65.6089    0.5321 O   0  0  0  0  0  0  0  0  0  0  0  0
  131.4198   64.4569    0.0455 C   0  0  2  0  0  0  0  0  0  0  0  0
  126.8920   68.3329   -1.6636 O   0  0  0  0  0  0  0  0  0  0  0  0
  128.5185   60.7293   -2.3318 N   0  0  0  0  0  0  0  0  0  0  0  0
  128.2284   62.0245   -2.0947 C   0  0  0  0  0  0  0  0  0  0  0  0
  129.0733   62.8711   -1.4709 N   0  0  0  0  0  0  0  0  0  0  0  0
  130.2933   62.4589   -1.0323 C   0  0  0  0  0  0  0  0  0  0  0  0
  130.6799   61.0548   -1.2566 C   0  0  0  0  0  0  0  0  0  0  0  0
  129.6986   60.1836   -1.9516 C   0  0  0  0  0  0  0  0  0  0  0  0
  129.9774   58.8805   -2.1931 N   0  0  0  0  0  0  0  0  0  0  0  0
  131.9121   60.9039   -0.7419 N   0  0  0  0  0  0  0  0  0  0  0  0
  132.2843   62.1030   -0.2291 C   0  0  0  0  0  0  0  0  0  0  0  0
  131.3245   63.0344   -0.3974 N   0  0  0  0  0  0  0  0  0  0  0  0
  2  1  1  1  0  0  0
  2  3  1  0  0  0  0
  2  5  1  0  0  0  0
  3  4  1  0  0  0  0
  3 16  1  0  0  0  0
  5  6  1  0  0  0  0
  6  7  1  0  0  0  0
  7  8  1  0  0  0  0
  9  8  1  6  0  0  0
  9 10  1  0  0  0  0
  9 11  1  0  0  0  0
 10 15  1  0  0  0  0
 11 12  1  1  0  0  0
 11 13  1  0  0  0  0
 13 14  1  1  0  0  0
 13 15  1  0  0  0  0
 15 26  1  6  0  0  0
 17 18  2  0  0  0  0
 17 22  1  0  0  0  0
 18 19  1  0  0  0  0
 19 20  2  0  0  0  0
 20 21  1  0  0  0  0
 20 26  1  0  0  0  0
 21 22  2  0  0  0  0
 21 24  1  0  0  0  0
 22 23  1  0  0  0  0
 24 25  2  0  0  0  0
 25 26  1  0  0  0  0
M  END
>  <CHROM.1>
122.85736620,-175.78885203,-85.47925156,-89.89746223,133.92229987,71.21847412
-5.14500608,129.62815108,64.89218928,-1.86550040,-2.14380769,0.48743319,3.10643307

>  <Name>
ligand

>  <RI>
0

>  <Rbt.Current_Directory>
/home/itssahil/PROJECTS/Mol_Feturizer/Test_systems_manuscript/rnas/3npn

>  <Rbt.Executable>
rbdock ($Id: //depot/dev/client3/rdock/2013.1/src/exe/rbdock.cxx#4 $)

>  <Rbt.Library>
libRbt.so (2013.1, Build901 2013/11/27)

>  <Rbt.Parameter_File>
/export/apps/rDock/src/rDock_2013.1_src/data/scripts/dock_solv.prm

>  <Rbt.Receptor>
prm/pocket_docking_4.prm

>  <SCORE>
-24.8886

>  <SCORE.INTER>
-24.5304

>  <SCORE.INTER.CONST>
1

>  <SCORE.INTER.POLAR>
0

>  <SCORE.INTER.ROT>
7

>  <SCORE.INTER.SOLV>
17.7189

>  <SCORE.INTER.VDW>
-30.5265

>  <SCORE.INTER.norm>
-0.943475

>  <SCORE.INTRA>
-0.358225

>  <SCORE.INTRA.DIHEDRAL>
4.19924

>  <SCORE.INTRA.DIHEDRAL.0>
4.37896

>  <SCORE.INTRA.POLAR>
0

>  <SCORE.INTRA.POLAR.0>
0

>  <SCORE.INTRA.REPUL>
0

>  <SCORE.INTRA.REPUL.0>
0

>  <SCORE.INTRA.SOLV>
-0.67157

>  <SCORE.INTRA.SOLV.lig_0>
-50.5538

>  <SCORE.INTRA.VDW>
-2.12206

>  <SCORE.INTRA.VDW.0>
-1.30673

>  <SCORE.INTRA.norm>
-0.0137779

>  <SCORE.RESTR>
0

>  <SCORE.RESTR.CAVITY>
0

>  <SCORE.RESTR.norm>
0

>  <SCORE.SYSTEM>
0

>  <SCORE.SYSTEM.CONST>
0

>  <SCORE.SYSTEM.DIHEDRAL>
0

>  <SCORE.SYSTEM.SOLV>
0

>  <SCORE.SYSTEM.norm>
0

>  <SCORE.heavy>
26

>  <SCORE.norm>
-0.957253

>  <RMSD>
2.334

$$$$
ligand
 OpenBabel02271912153D
libRbt.so/2013.1/901 2013/11/27
 26 28  0  0  0  0  0  0  0  0999 V2000
  129.9433   71.0355   -3.3912 N   0  0  0  0  0  0  0  0  0  0  0  0
  131.2714   70.6642   -3.9636 C   0  0  2  0  0  0  0  0  0  0  0  0
  131.7078   71.6731   -4.9868 C   0  0  0  0  0  0  0  0  0  0  0  0
  130.9421   72.5496   -5.3859 O   0  0  0  0  0  0  0  0  0  0  0  0
  131.2018   69.2815   -4.6062 C   0  0  0  0  0  0  0  0  0  0  0  0
  130.6365   68.2110   -3.6778 C   0  0  0  0  0  0  0  0  0  0  0  0
  130.7160   66.6330   -4.4594 S   0  0  0  0  0  0  0  0  0  0  0  0
  129.6116   65.6701   -3.4773 C   0  0  0  0  0  0  0  0  0  0  0  0
  129.8863   65.8439   -1.9847 C   0  0  1  0  0  0  0  0  0  0  0  0
  129.0896   64.9407   -1.2152 O   0  0  0  0  0  0  0  0  0  0  0  0
  131.3431   65.5368   -1.6775 C   0  0  1  0  0  0  0  0  0  0  0  0
  131.9067   66.5886   -0.8880 O   0  0  0  0  0  0  0  0  0  0  0  0
  131.3425   64.2198   -0.9217 C   0  0  1  0  0  0  0  0  0  0  0  0
  132.0340   64.3331    0.3270 O   0  0  0  0  0  0  0  0  0  0  0  0
  129.8787   63.8738   -0.6753 C   0  0  2  0  0  0  0  0  0  0  0  0
  132.8432   71.6399   -5.4590 O   0  0  0  0  0  0  0  0  0  0  0  0
  131.2402   58.8764   -1.7415 N   0  0  0  0  0  0  0  0  0  0  0  0
  131.9137   59.8249   -1.0601 C   0  0  0  0  0  0  0  0  0  0  0  0
  131.4402   61.0725   -0.8620 N   0  0  0  0  0  0  0  0  0  0  0  0
  130.2302   61.4566   -1.3509 C   0  0  0  0  0  0  0  0  0  0  0  0
  129.4363   60.4720   -2.1070 C   0  0  0  0  0  0  0  0  0  0  0  0
  130.0221   59.1188   -2.2822 C   0  0  0  0  0  0  0  0  0  0  0  0
  129.3563   58.1585   -2.9669 N   0  0  0  0  0  0  0  0  0  0  0  0
  128.2991   61.0879   -2.4725 N   0  0  0  0  0  0  0  0  0  0  0  0
  128.3572   62.3567   -1.9971 C   0  0  0  0  0  0  0  0  0  0  0  0
  129.5053   62.5843   -1.3284 N   0  0  0  0  0  0  0  0  0  0  0  0
  2  1  1  6  0  0  0
  2  3  1  0  0  0  0
  2  5  1  0  0  0  0
  3  4  1  0  0  0  0
  3 16  1  0  0  0  0
  5  6  1  0  0  0  0
  6  7  1  0  0  0  0
  7  8  1  0  0  0  0
  9  8  1  6  0  0  0
  9 10  1  0  0  0  0
  9 11  1  0  0  0  0
 10 15  1  0  0  0  0
 11 12  1  1  0  0  0
 11 13  1  0  0  0  0
 13 14  1  1  0  0  0
 13 15  1  0  0  0  0
 15 26  1  6  0  0  0
 17 18  2  0  0  0  0
 17 22  1  0  0  0  0
 18 19  1  0  0  0  0
 19 20  2  0  0  0  0
 20 21  1  0  0  0  0
 20 26  1  0  0  0  0
 21 22  2  0  0  0  0
 21 24  1  0  0  0  0
 22 23  1  0  0  0  0
 24 25  2  0  0  0  0
 25 26  1  0  0  0  0
M  END
>  <CHROM.1>
-9.39965371,-52.39375653,-175.48126350,-163.62136749,-48.13911663,-173.21033578
161.43019672,130.58027542,65.13995727,-2.59568876,-1.36366404,1.02928836
2.69128123

>  <Name>
ligand

>  <RI>
0

>  <Rbt.Current_Directory>
/home/itssahil/PROJECTS/Mol_Feturizer/Test_systems_manuscript/rnas/3npn

>  <Rbt.Executable>
rbdock ($Id: //depot/dev/client3/rdock/2013.1/src/exe/rbdock.cxx#4 $)

>  <Rbt.Library>
libRbt.so (2013.1, Build901 2013/11/27)

>  <Rbt.Parameter_File>
/export/apps/rDock/src/rDock_2013.1_src/data/scripts/dock_solv.prm

>  <Rbt.Receptor>
prm/pocket_docking_6.prm

>  <SCORE>
-20.7689

>  <SCORE.INTER>
-20.6474

>  <SCORE.INTER.CONST>
1

>  <SCORE.INTER.POLAR>
0

>  <SCORE.INTER.ROT>
7

>  <SCORE.INTER.SOLV>
19.7158

>  <SCORE.INTER.VDW>
-28.6035

>  <SCORE.INTER.norm>
-0.794132

>  <SCORE.INTRA>
-0.121516

>  <SCORE.INTRA.DIHEDRAL>
-0.640252

>  <SCORE.INTRA.DIHEDRAL.0>
4.37896

>  <SCORE.INTRA.POLAR>
0

>  <SCORE.INTRA.POLAR.0>
0

>  <SCORE.INTRA.REPUL>
0

>  <SCORE.INTRA.REPUL.0>
0

>  <SCORE.INTRA.SOLV>
0.197861

>  <SCORE.INTRA.SOLV.lig_0>
-50.5538

>  <SCORE.INTRA.VDW>
0.0996796

>  <SCORE.INTRA.VDW.0>
-1.30673

>  <SCORE.INTRA.norm>
-0.00467369

>  <SCORE.RESTR>
0

>  <SCORE.RESTR.CAVITY>
0

>  <SCORE.RESTR.norm>
0

>  <SCORE.SYSTEM>
0

>  <SCORE.SYSTEM.CONST>
0

>  <SCORE.SYSTEM.DIHEDRAL>
0

>  <SCORE.SYSTEM.SOLV>
0

>  <SCORE.SYSTEM.norm>
0

>  <SCORE.heavy>
26

>  <SCORE.norm>
-0.798806

>  <RMSD>
2.344

$$$$
ligand
 OpenBabel02271912153D
libRbt.so/2013.1/901 2013/11/27
 26 28  0  0  0  0  0  0  0  0999 V2000
  127.4961   68.7618   -4.7265 N   0  0  0  0  0  0  0  0  0  0  0  0
  127.3377   67.7698   -3.6218 C   0  0  2  0  0  0  0  0  0  0  0  0
  126.0660   68.0204   -2.8635 C   0  0  0  0  0  0  0  0  0  0  0  0
  125.2693   67.1112   -2.6351 O   0  0  0  0  0  0  0  0  0  0  0  0
  128.5262   67.8478   -2.6673 C   0  0  0  0  0  0  0  0  0  0  0  0
  128.4125   66.8954   -1.4809 C   0  0  0  0  0  0  0  0  0  0  0  0
  128.4778   65.2253   -2.0411 S   0  0  0  0  0  0  0  0  0  0  0  0
  130.2046   64.9852   -2.3091 C   0  0  0  0  0  0  0  0  0  0  0  0
  131.0146   65.2509   -1.0415 C   0  0  1  0  0  0  0  0  0  0  0  0
  130.8259   64.2004   -0.0910 O   0  0  0  0  0  0  0  0  0  0  0  0
  132.4987   65.3063   -1.3661 C   0  0  1  0  0  0  0  0  0  0  0  0
  133.0805   66.4786   -0.7877 O   0  0  0  0  0  0  0  0  0  0  0  0
  133.1029   64.0435   -0.7781 C   0  0  1  0  0  0  0  0  0  0  0  0
  134.1965   64.3446    0.0957 O   0  0  0  0  0  0  0  0  0  0  0  0
  131.9850   63.3639    0.0042 C   0  0  2  0  0  0  0  0  0  0  0  0
  125.7857   69.1482   -2.4600 O   0  0  0  0  0  0  0  0  0  0  0  0
  128.5136   60.2652   -2.5082 N   0  0  0  0  0  0  0  0  0  0  0  0
  128.4109   61.5623   -2.1551 C   0  0  0  0  0  0  0  0  0  0  0  0
  129.3868   62.2346   -1.5105 N   0  0  0  0  0  0  0  0  0  0  0  0
  130.5566   61.6300   -1.1688 C   0  0  0  0  0  0  0  0  0  0  0  0
  130.7406   60.2115   -1.5228 C   0  0  0  0  0  0  0  0  0  0  0  0
  129.6235   59.5389   -2.2331 C   0  0  0  0  0  0  0  0  0  0  0  0
  129.7139   58.2358   -2.5907 N   0  0  0  0  0  0  0  0  0  0  0  0
  131.9609   59.8569   -1.0853 N   0  0  0  0  0  0  0  0  0  0  0  0
  132.5119   60.9488   -0.4992 C   0  0  0  0  0  0  0  0  0  0  0  0
  131.6808   62.0091   -0.5441 N   0  0  0  0  0  0  0  0  0  0  0  0
  2  1  1  6  0  0  0
  2  3  1  0  0  0  0
  2  5  1  0  0  0  0
  3  4  1  0  0  0  0
  3 16  1  0  0  0  0
  5  6  1  0  0  0  0
  6  7  1  0  0  0  0
  7  8  1  0  0  0  0
  9  8  1  6  0  0  0
  9 10  1  0  0  0  0
  9 11  1  0  0  0  0
 10 15  1  0  0  0  0
 11 12  1  1  0  0  0
 11 13  1  0  0  0  0
 13 14  1  1  0  0  0
 13 15  1  0  0  0  0
 15 26  1  6  0  0  0
 17 18  2  0  0  0  0
 17 22  1  0  0  0  0
 18 19  1  0  0  0  0
 19 20  2  0  0  0  0
 20 21  1  0  0  0  0
 20 26  1  0  0  0  0
 21 22  2  0  0  0  0
 21 24  1  0  0  0  0
 22 23  1  0  0  0  0
 24 25  2  0  0  0  0
 25 26  1  0  0  0  0
M  END
>  <CHROM.1>
129.98950832,177.95118563,65.80219102,78.75251739,57.50619483,72.52382527
6.63475687,129.81985418,64.21496313,-1.72019503,2.16455913,-0.38662680,0.00830288

>  <Name>
ligand

>  <RI>
0

>  <Rbt.Current_Directory>
/home/itssahil/PROJECTS/Mol_Feturizer/Test_systems_manuscript/rnas/3npn

>  <Rbt.Executable>
rbdock ($Id: //depot/dev/client3/rdock/2013.1/src/exe/rbdock.cxx#4 $)

>  <Rbt.Library>
libRbt.so (2013.1, Build901 2013/11/27)

>  <Rbt.Parameter_File>
/export/apps/rDock/src/rDock_2013.1_src/data/scripts/dock_solv.prm

>  <Rbt.Receptor>
prm/pocket_docking_8.prm

>  <SCORE>
-27.1506

>  <SCORE.INTER>
-25.1012

>  <SCORE.INTER.CONST>
1

>  <SCORE.INTER.POLAR>
0

>  <SCORE.INTER.ROT>
7

>  <SCORE.INTER.SOLV>
19.7676

>  <SCORE.INTER.VDW>
-31.59

>  <SCORE.INTER.norm>
-0.965432

>  <SCORE.INTRA>
-2.04933

>  <SCORE.INTRA.DIHEDRAL>
-0.476898

>  <SCORE.INTRA.DIHEDRAL.0>
4.37896

>  <SCORE.INTRA.POLAR>
0

>  <SCORE.INTRA.POLAR.0>
0

>  <SCORE.INTRA.REPUL>
0

>  <SCORE.INTRA.REPUL.0>
0

>  <SCORE.INTRA.SOLV>
-0.608339

>  <SCORE.INTRA.SOLV.lig_0>
-50.5538

>  <SCORE.INTRA.VDW>
-1.50671

>  <SCORE.INTRA.VDW.0>
-1.30673

>  <SCORE.INTRA.norm>
-0.0788203

>  <SCORE.RESTR>
0

>  <SCORE.RESTR.CAVITY>
0

>  <SCORE.RESTR.norm>
0

>  <SCORE.SYSTEM>
0

>  <SCORE.SYSTEM.CONST>
0

>  <SCORE.SYSTEM.DIHEDRAL>
0

>  <SCORE.SYSTEM.SOLV>
0

>  <SCORE.SYSTEM.norm>
0

>  <SCORE.heavy>
26

>  <SCORE.norm>
-1.04425

>  <RMSD>
2.375

$$$$
ligand
 OpenBabel02271912153D
libRbt.so/2013.1/901 2013/11/27
 26 28  0  0  0  0  0  0  0  0999 V2000
  125.7831   71.1437   -3.2320 N   0  0  0  0  0  0  0  0  0  0  0  0
  126.8661   70.1407   -3.0078 C   0  0  2  0  0  0  0  0  0  0  0  0
  128.2079   70.8129   -2.9554 C   0  0  0  0  0  0  0  0  0  0  0  0
  129.0246   70.5401   -2.0766 O   0  0  0  0  0  0  0  0  0  0  0  0
  126.8596   69.0981   -4.1226 C   0  0  0  0  0  0  0  0  0  0  0  0
  127.7287   67.8818   -3.8182 C   0  0  0  0  0  0  0  0  0  0  0  0
  126.9987   66.9279   -2.5280 S   0  0  0  0  0  0  0  0  0  0  0  0
  128.2938   65.8057   -2.1103 C   0  0  0  0  0  0  0  0  0  0  0  0
  129.3992   66.4924   -1.3103 C   0  0  1  0  0  0  0  0  0  0  0  0
  129.9779   65.5877   -0.3673 O   0  0  0  0  0  0  0  0  0  0  0  0
  130.5124   66.9533   -2.2372 C   0  0  1  0  0  0  0  0  0  0  0  0
  130.8382   68.3198   -1.9655 O   0  0  0  0  0  0  0  0  0  0  0  0
  131.6929   66.0394   -1.9599 C   0  0  1  0  0  0  0  0  0  0  0  0
  132.8698   66.7885   -1.6372 O   0  0  0  0  0  0  0  0  0  0  0  0
  131.2875   65.1724   -0.7737 C   0  0  2  0  0  0  0  0  0  0  0  0
  128.5188   71.6632   -3.7882 O   0  0  0  0  0  0  0  0  0  0  0  0
  128.3881   60.9635   -2.1311 N   0  0  0  0  0  0  0  0  0  0  0  0
  127.9977   62.2236   -1.8526 C   0  0  0  0  0  0  0  0  0  0  0  0
  128.8563   63.2085   -1.5171 N   0  0  0  0  0  0  0  0  0  0  0  0
  130.1955   62.9834   -1.4356 C   0  0  0  0  0  0  0  0  0  0  0  0
  130.6963   61.6285   -1.7268 C   0  0  0  0  0  0  0  0  0  0  0  0
  129.6917   60.5974   -2.0908 C   0  0  0  0  0  0  0  0  0  0  0  0
  130.0712   59.3277   -2.3702 N   0  0  0  0  0  0  0  0  0  0  0  0
  132.0318   61.6683   -1.5822 N   0  0  0  0  0  0  0  0  0  0  0  0
  132.3610   62.9350   -1.2264 C   0  0  0  0  0  0  0  0  0  0  0  0
  131.2721   63.7243   -1.1361 N   0  0  0  0  0  0  0  0  0  0  0  0
  2  1  1  6  0  0  0
  2  3  1  0  0  0  0
  2  5  1  0  0  0  0
  3  4  1  0  0  0  0
  3 16  1  0  0  0  0
  5  6  1  0  0  0  0
  6  7  1  0  0  0  0
  7  8  1  0  0  0  0
  9  8  1  6  0  0  0
  9 10  1  0  0  0  0
  9 11  1  0  0  0  0
 10 15  1  0  0  0  0
 11 12  1  1  0  0  0
 11 13  1  0  0  0  0
 13 14  1  1  0  0  0
 13 15  1  0  0  0  0
 15 26  1  6  0  0  0
 17 18  2  0  0  0  0
 17 22  1  0  0  0  0
 18 19  1  0  0  0  0
 19 20  2  0  0  0  0
 20 21  1  0  0  0  0
 20 26  1  0  0  0  0
 21 22  2  0  0  0  0
 21 24  1  0  0  0  0
 22 23  1  0  0  0  0
 24 25  2  0  0  0  0
 25 26  1  0  0  0  0
M  END
>  <CHROM.1>
133.90467582,-167.70601565,69.74962793,-168.53205479,74.77107328,146.60024473
18.49363669,129.36020967,65.90444608,-2.14083238,1.88698934,-0.28248712,-0.07571325

>  <Name>
ligand

>  <RI>
0

>  <Rbt.Current_Directory>
/home/itssahil/PROJECTS/Mol_Feturizer/Test_systems_manuscript/rnas/3npn

>  <Rbt.Executable>
rbdock ($Id: //depot/dev/client3/rdock/2013.1/src/exe/rbdock.cxx#4 $)

>  <Rbt.Library>
libRbt.so (2013.1, Build901 2013/11/27)

>  <Rbt.Parameter_File>
/export/apps/rDock/src/rDock_2013.1_src/data/scripts/dock_solv.prm

>  <Rbt.Receptor>
prm/pocket_docking_3.prm

>  <SCORE>
-25.5222

>  <SCORE.INTER>
-25.1636

>  <SCORE.INTER.CONST>
1

>  <SCORE.INTER.POLAR>
0

>  <SCORE.INTER.ROT>
7

>  <SCORE.INTER.SOLV>
24.0127

>  <SCORE.INTER.VDW>
-33.0466

>  <SCORE.INTER.norm>
-0.96783

>  <SCORE.INTRA>
-0.358632

>  <SCORE.INTRA.DIHEDRAL>
2.84975

>  <SCORE.INTRA.DIHEDRAL.0>
4.37896

>  <SCORE.INTRA.POLAR>
0

>  <SCORE.INTRA.POLAR.0>
0

>  <SCORE.INTRA.REPUL>
0

>  <SCORE.INTRA.REPUL.0>
0

>  <SCORE.INTRA.SOLV>
-0.399965

>  <SCORE.INTRA.SOLV.lig_0>
-50.5538

>  <SCORE.INTRA.VDW>
-1.58353

>  <SCORE.INTRA.VDW.0>
-1.30673

>  <SCORE.INTRA.norm>
-0.0137935

>  <SCORE.RESTR>
0

>  <SCORE.RESTR.CAVITY>
0

>  <SCORE.RESTR.norm>
0

>  <SCORE.SYSTEM>
0

>  <SCORE.SYSTEM.CONST>
0

>  <SCORE.SYSTEM.DIHEDRAL>
0

>  <SCORE.SYSTEM.SOLV>
0

>  <SCORE.SYSTEM.norm>
0

>  <SCORE.heavy>
26

>  <SCORE.norm>
-0.981624

>  <RMSD>
2.394

$$$$
ligand
 OpenBabel02271912153D
libRbt.so/2013.1/901 2013/11/27
 26 28  0  0  0  0  0  0  0  0999 V2000
  125.8199   71.1697   -3.2534 N   0  0  0  0  0  0  0  0  0  0  0  0
  126.9206   70.1809   -3.0526 C   0  0  2  0  0  0  0  0  0  0  0  0
  128.2545   70.8704   -3.0312 C   0  0  0  0  0  0  0  0  0  0  0  0
  128.5436   71.7272   -3.8654 O   0  0  0  0  0  0  0  0  0  0  0  0
  126.9024   69.1369   -4.1659 C   0  0  0  0  0  0  0  0  0  0  0  0
  127.7613   67.9133   -3.8616 C   0  0  0  0  0  0  0  0  0  0  0  0
  127.0133   66.9549   -2.5851 S   0  0  0  0  0  0  0  0  0  0  0  0
  128.3042   65.8346   -2.1497 C   0  0  0  0  0  0  0  0  0  0  0  0
  129.3936   66.5210   -1.3278 C   0  0  1  0  0  0  0  0  0  0  0  0
  129.9529   65.6163   -0.3732 O   0  0  0  0  0  0  0  0  0  0  0  0
  130.5254   66.9812   -2.2323 C   0  0  1  0  0  0  0  0  0  0  0  0
  130.8463   68.3476   -1.9544 O   0  0  0  0  0  0  0  0  0  0  0  0
  131.6997   66.0669   -1.9311 C   0  0  1  0  0  0  0  0  0  0  0  0
  132.8702   66.8155   -1.5850 O   0  0  0  0  0  0  0  0  0  0  0  0
  131.2702   65.2003   -0.7530 C   0  0  2  0  0  0  0  0  0  0  0  0
  129.0965   70.5857   -2.1808 O   0  0  0  0  0  0  0  0  0  0  0  0
  128.3913   60.9807   -2.1209 N   0  0  0  0  0  0  0  0  0  0  0  0
  127.9952   62.2394   -1.8440 C   0  0  0  0  0  0  0  0  0  0  0  0
  128.8490   63.2275   -1.5054 N   0  0  0  0  0  0  0  0  0  0  0  0
  130.1886   63.0072   -1.4188 C   0  0  0  0  0  0  0  0  0  0  0  0
  130.6955   61.6542   -1.7080 C   0  0  0  0  0  0  0  0  0  0  0  0
  129.6960   60.6194   -2.0757 C   0  0  0  0  0  0  0  0  0  0  0  0
  130.0812   59.3511   -2.3535 N   0  0  0  0  0  0  0  0  0  0  0  0
  132.0303   61.6989   -1.5584 N   0  0  0  0  0  0  0  0  0  0  0  0
  132.3535   62.9668   -1.2015 C   0  0  0  0  0  0  0  0  0  0  0  0
  131.2614   63.7521   -1.1153 N   0  0  0  0  0  0  0  0  0  0  0  0
  2  1  1  6  0  0  0
  2  3  1  0  0  0  0
  2  5  1  0  0  0  0
  3  4  1  0  0  0  0
  3 16  1  0  0  0  0
  5  6  1  0  0  0  0
  6  7  1  0  0  0  0
  7  8  1  0  0  0  0
  9  8  1  6  0  0  0
  9 10  1  0  0  0  0
  9 11  1  0  0  0  0
 10 15  1  0  0  0  0
 11 12  1  1  0  0  0
 11 13  1  0  0  0  0
 13 14  1  1  0  0  0
 13 15  1  0  0  0  0
 15 26  1  6  0  0  0
 17 18  2  0  0  0  0
 17 22  1  0  0  0  0
 18 19  1  0  0  0  0
 19 20  2  0  0  0  0
 20 21  1  0  0  0  0
 20 26  1  0  0  0  0
 21 22  2  0  0  0  0
 21 24  1  0  0  0  0
 22 23  1  0  0  0  0
 24 25  2  0  0  0  0
 25 26  1  0  0  0  0
M  END
>  <CHROM.1>
-45.36275761,-166.00077009,70.59448591,-167.89440106,74.92387789,146.24774986
17.52757487,129.37206126,65.93498855,-2.15340133,1.88117598,-0.29282017,-0.08256817

>  <Name>
ligand

>  <RI>
0

>  <Rbt.Current_Directory>
/home/itssahil/PROJECTS/Mol_Feturizer/Test_systems_manuscript/rnas/3npn

>  <Rbt.Executable>
rbdock ($Id: //depot/dev/client3/rdock/2013.1/src/exe/rbdock.cxx#4 $)

>  <Rbt.Library>
libRbt.so (2013.1, Build901 2013/11/27)

>  <Rbt.Parameter_File>
/export/apps/rDock/src/rDock_2013.1_src/data/scripts/dock_solv.prm

>  <Rbt.Receptor>
prm/pocket_docking_8.prm

>  <SCORE>
-25.5361

>  <SCORE.INTER>
-25.208

>  <SCORE.INTER.CONST>
1

>  <SCORE.INTER.POLAR>
0

>  <SCORE.INTER.ROT>
7

>  <SCORE.INTER.SOLV>
23.9258

>  <SCORE.INTER.VDW>
-33.0473

>  <SCORE.INTER.norm>
-0.969538

>  <SCORE.INTRA>
-0.328148

>  <SCORE.INTRA.DIHEDRAL>
3.12657

>  <SCORE.INTRA.DIHEDRAL.0>
4.37896

>  <SCORE.INTRA.POLAR>
0

>  <SCORE.INTRA.POLAR.0>
0

>  <SCORE.INTRA.REPUL>
0

>  <SCORE.INTRA.REPUL.0>
0

>  <SCORE.INTRA.SOLV>
-0.395217

>  <SCORE.INTRA.SOLV.lig_0>
-50.5538

>  <SCORE.INTRA.VDW>
-1.69383

>  <SCORE.INTRA.VDW.0>
-1.30673

>  <SCORE.INTRA.norm>
-0.0126211

>  <SCORE.RESTR>
0

>  <SCORE.RESTR.CAVITY>
0

>  <SCORE.RESTR.norm>
0

>  <SCORE.SYSTEM>
0

>  <SCORE.SYSTEM.CONST>
0

>  <SCORE.SYSTEM.DIHEDRAL>
0

>  <SCORE.SYSTEM.SOLV>
0

>  <SCORE.SYSTEM.norm>
0

>  <SCORE.heavy>
26

>  <SCORE.norm>
-0.982159

>  <RMSD>
2.395

$$$$
ligand
 OpenBabel02271912153D
libRbt.so/2013.1/901 2013/11/27
 26 28  0  0  0  0  0  0  0  0999 V2000
  127.1558   67.8324   -4.4698 N   0  0  0  0  0  0  0  0  0  0  0  0
  126.7181   68.4855   -3.2005 C   0  0  2  0  0  0  0  0  0  0  0  0
  126.2558   69.8906   -3.4600 C   0  0  0  0  0  0  0  0  0  0  0  0
  126.3676   70.4041   -4.5724 O   0  0  0  0  0  0  0  0  0  0  0  0
  127.8640   68.5021   -2.1925 C   0  0  0  0  0  0  0  0  0  0  0  0
  128.3648   67.1092   -1.8231 C   0  0  0  0  0  0  0  0  0  0  0  0
  129.7020   67.2332   -0.6813 S   0  0  0  0  0  0  0  0  0  0  0  0
  130.3085   65.5777   -0.6302 C   0  0  0  0  0  0  0  0  0  0  0  0
  131.6020   65.4754    0.1761 C   0  0  1  0  0  0  0  0  0  0  0  0
  131.6973   64.2032    0.8203 O   0  0  0  0  0  0  0  0  0  0  0  0
  132.8069   65.6097   -0.7410 C   0  0  1  0  0  0  0  0  0  0  0  0
  133.7216   66.5712   -0.2061 O   0  0  0  0  0  0  0  0  0  0  0  0
  133.4359   64.2294   -0.8101 C   0  0  1  0  0  0  0  0  0  0  0  0
  134.8237   64.2688   -0.4597 O   0  0  0  0  0  0  0  0  0  0  0  0
  132.6727   63.3660    0.1876 C   0  0  2  0  0  0  0  0  0  0  0  0
  125.7615   70.5669   -2.5593 O   0  0  0  0  0  0  0  0  0  0  0  0
  128.2925   61.5385   -2.1444 N   0  0  0  0  0  0  0  0  0  0  0  0
  128.5380   62.7484   -1.6025 C   0  0  0  0  0  0  0  0  0  0  0  0
  129.7156   63.0813   -1.0349 N   0  0  0  0  0  0  0  0  0  0  0  0
  130.7466   62.1961   -0.9718 C   0  0  0  0  0  0  0  0  0  0  0  0
  130.5514   60.8524   -1.5443 C   0  0  0  0  0  0  0  0  0  0  0  0
  129.2293   60.5600   -2.1537 C   0  0  0  0  0  0  0  0  0  0  0  0
  128.9699   59.3477   -2.6988 N   0  0  0  0  0  0  0  0  0  0  0  0
  131.7011   60.1810   -1.3608 N   0  0  0  0  0  0  0  0  0  0  0  0
  132.5587   61.0167   -0.7242 C   0  0  0  0  0  0  0  0  0  0  0  0
  131.9969   62.2191   -0.4880 N   0  0  0  0  0  0  0  0  0  0  0  0
  2  1  1  6  0  0  0
  2  3  1  0  0  0  0
  2  5  1  0  0  0  0
  3  4  1  0  0  0  0
  3 16  1  0  0  0  0
  5  6  1  0  0  0  0
  6  7  1  0  0  0  0
  7  8  1  0  0  0  0
  9  8  1  6  0  0  0
  9 10  1  0  0  0  0
  9 11  1  0  0  0  0
 10 15  1  0  0  0  0
 11 12  1  1  0  0  0
 11 13  1  0  0  0  0
 13 14  1  1  0  0  0
 13 15  1  0  0  0  0
 15 26  1  6  0  0  0
 17 18  2  0  0  0  0
 17 22  1  0  0  0  0
 18 19  1  0  0  0  0
 19 20  2  0  0  0  0
 20 21  1  0  0  0  0
 20 26  1  0  0  0  0
 21 22  2  0  0  0  0
 21 24  1  0  0  0  0
 22 23  1  0  0  0  0
 24 25  2  0  0  0  0
 25 26  1  0  0  0  0
M  END
>  <CHROM.1>
-5.97532143,-60.28082098,178.96824342,-169.88227775,172.75162110,148.45908349
27.28171115,130.04845513,64.96950558,-1.47119245,2.20801828,-0.46813624,0.03413736

>  <Name>
ligand

>  <RI>
0

>  <Rbt.Current_Directory>
/home/itssahil/PROJECTS/Mol_Feturizer/Test_systems_manuscript/rnas/3npn

>  <Rbt.Executable>
rbdock ($Id: //depot/dev/client3/rdock/2013.1/src/exe/rbdock.cxx#4 $)

>  <Rbt.Library>
libRbt.so (2013.1, Build901 2013/11/27)

>  <Rbt.Parameter_File>
/export/apps/rDock/src/rDock_2013.1_src/data/scripts/dock_solv.prm

>  <Rbt.Receptor>
prm/pocket_docking_3.prm

>  <SCORE>
-21.2206

>  <SCORE.INTER>
-22.1767

>  <SCORE.INTER.CONST>
1

>  <SCORE.INTER.POLAR>
0

>  <SCORE.INTER.ROT>
7

>  <SCORE.INTER.SOLV>
23.8725

>  <SCORE.INTER.VDW>
-31.0086

>  <SCORE.INTER.norm>
-0.85295

>  <SCORE.INTRA>
0.956113

>  <SCORE.INTRA.DIHEDRAL>
1.34918

>  <SCORE.INTRA.DIHEDRAL.0>
4.37896

>  <SCORE.INTRA.POLAR>
0

>  <SCORE.INTRA.POLAR.0>
0

>  <SCORE.INTRA.REPUL>
0

>  <SCORE.INTRA.REPUL.0>
0

>  <SCORE.INTRA.SOLV>
-0.202135

>  <SCORE.INTRA.SOLV.lig_0>
-50.5538

>  <SCORE.INTRA.VDW>
0.382592

>  <SCORE.INTRA.VDW.0>
-1.30673

>  <SCORE.INTRA.norm>
0.0367736

>  <SCORE.RESTR>
0

>  <SCORE.RESTR.CAVITY>
0

>  <SCORE.RESTR.norm>
0

>  <SCORE.SYSTEM>
0

>  <SCORE.SYSTEM.CONST>
0

>  <SCORE.SYSTEM.DIHEDRAL>
0

>  <SCORE.SYSTEM.SOLV>
0

>  <SCORE.SYSTEM.norm>
0

>  <SCORE.heavy>
26

>  <SCORE.norm>
-0.816177

>  <RMSD>
2.412

$$$$
ligand
 OpenBabel02271912153D
libRbt.so/2013.1/901 2013/11/27
 26 28  0  0  0  0  0  0  0  0999 V2000
  128.1830   68.3149   -4.1204 N   0  0  0  0  0  0  0  0  0  0  0  0
  127.2316   67.4674   -3.3419 C   0  0  2  0  0  0  0  0  0  0  0  0
  126.0517   68.2772   -2.8867 C   0  0  0  0  0  0  0  0  0  0  0  0
  126.1074   69.5044   -2.8199 O   0  0  0  0  0  0  0  0  0  0  0  0
  127.9342   66.8614   -2.1299 C   0  0  0  0  0  0  0  0  0  0  0  0
  129.1551   66.0228   -2.4953 C   0  0  0  0  0  0  0  0  0  0  0  0
  129.9494   65.4458   -1.0313 S   0  0  0  0  0  0  0  0  0  0  0  0
  131.5481   64.9934   -1.6234 C   0  0  0  0  0  0  0  0  0  0  0  0
  132.4109   64.3925   -0.5151 C   0  0  1  0  0  0  0  0  0  0  0  0
  131.7172   63.3336    0.1482 O   0  0  0  0  0  0  0  0  0  0  0  0
  133.6844   63.8029   -1.0995 C   0  0  1  0  0  0  0  0  0  0  0  0
  134.8194   64.2682   -0.3629 O   0  0  0  0  0  0  0  0  0  0  0  0
  133.5362   62.2957   -0.9899 C   0  0  1  0  0  0  0  0  0  0  0  0
  134.6461   61.7097   -0.3007 O   0  0  0  0  0  0  0  0  0  0  0  0
  132.2514   62.0526   -0.2067 C   0  0  2  0  0  0  0  0  0  0  0  0
  125.0006   67.7285   -2.5591 O   0  0  0  0  0  0  0  0  0  0  0  0
  130.6554   57.3451   -2.0112 N   0  0  0  0  0  0  0  0  0  0  0  0
  131.7117   57.6550   -1.2328 C   0  0  0  0  0  0  0  0  0  0  0  0
  132.0020   58.9138   -0.8443 N   0  0  0  0  0  0  0  0  0  0  0  0
  131.2313   59.9681   -1.2252 C   0  0  0  0  0  0  0  0  0  0  0  0
  130.0583   59.7057   -2.0775 C   0  0  0  0  0  0  0  0  0  0  0  0
  129.8015   58.2948   -2.4628 C   0  0  0  0  0  0  0  0  0  0  0  0
  128.7453   57.9713   -3.2463 N   0  0  0  0  0  0  0  0  0  0  0  0
  129.4713   60.8926   -2.3072 N   0  0  0  0  0  0  0  0  0  0  0  0
  130.2030   61.8354   -1.6630 C   0  0  0  0  0  0  0  0  0  0  0  0
  131.2540   61.2924   -1.0167 N   0  0  0  0  0  0  0  0  0  0  0  0
  2  1  1  1  0  0  0
  2  3  1  0  0  0  0
  2  5  1  0  0  0  0
  3  4  1  0  0  0  0
  3 16  1  0  0  0  0
  5  6  1  0  0  0  0
  6  7  1  0  0  0  0
  7  8  1  0  0  0  0
  9  8  1  6  0  0  0
  9 10  1  0  0  0  0
  9 11  1  0  0  0  0
 10 15  1  0  0  0  0
 11 12  1  1  0  0  0
 11 13  1  0  0  0  0
 13 14  1  1  0  0  0
 13 15  1  0  0  0  0
 15 26  1  6  0  0  0
 17 18  2  0  0  0  0
 17 22  1  0  0  0  0
 18 19  1  0  0  0  0
 19 20  2  0  0  0  0
 20 21  1  0  0  0  0
 20 26  1  0  0  0  0
 21 22  2  0  0  0  0
 21 24  1  0  0  0  0
 22 23  1  0  0  0  0
 24 25  2  0  0  0  0
 25 26  1  0  0  0  0
M  END
>  <CHROM.1>
-20.43988053,-57.71882190,176.73161315,-162.12102341,-177.36124411,51.88684989
-160.85858372,130.33998894,63.31896644,-1.66133716,2.11674162,-0.37163669
0.04973903

>  <Name>
ligand

>  <RI>
0

>  <Rbt.Current_Directory>
/home/itssahil/PROJECTS/Mol_Feturizer/Test_systems_manuscript/rnas/3npn

>  <Rbt.Executable>
rbdock ($Id: //depot/dev/client3/rdock/2013.1/src/exe/rbdock.cxx#4 $)

>  <Rbt.Library>
libRbt.so (2013.1, Build901 2013/11/27)

>  <Rbt.Parameter_File>
/export/apps/rDock/src/rDock_2013.1_src/data/scripts/dock_solv.prm

>  <Rbt.Receptor>
prm/pocket_docking_6.prm

>  <SCORE>
-21.7769

>  <SCORE.INTER>
-20.1147

>  <SCORE.INTER.CONST>
1

>  <SCORE.INTER.POLAR>
0

>  <SCORE.INTER.ROT>
7

>  <SCORE.INTER.SOLV>
20.9411

>  <SCORE.INTER.VDW>
-28.6568

>  <SCORE.INTER.norm>
-0.773642

>  <SCORE.INTRA>
-1.69511

>  <SCORE.INTRA.DIHEDRAL>
-0.938239

>  <SCORE.INTRA.DIHEDRAL.0>
4.37896

>  <SCORE.INTRA.POLAR>
0

>  <SCORE.INTRA.POLAR.0>
0

>  <SCORE.INTRA.REPUL>
0

>  <SCORE.INTRA.REPUL.0>
0

>  <SCORE.INTRA.SOLV>
-0.148072

>  <SCORE.INTRA.SOLV.lig_0>
-50.5538

>  <SCORE.INTRA.VDW>
-1.15195

>  <SCORE.INTRA.VDW.0>
-1.30673

>  <SCORE.INTRA.norm>
-0.0651964

>  <SCORE.RESTR>
0.0328893

>  <SCORE.RESTR.CAVITY>
0.0328893

>  <SCORE.RESTR.norm>
0.00126497

>  <SCORE.SYSTEM>
0

>  <SCORE.SYSTEM.CONST>
0

>  <SCORE.SYSTEM.DIHEDRAL>
0

>  <SCORE.SYSTEM.SOLV>
0

>  <SCORE.SYSTEM.norm>
0

>  <SCORE.heavy>
26

>  <SCORE.norm>
-0.837573

>  <RMSD>
2.465

$$$$
ligand
 OpenBabel02271912153D
libRbt.so/2013.1/901 2013/11/27
 26 28  0  0  0  0  0  0  0  0999 V2000
  127.1708   69.6780   -3.0026 N   0  0  0  0  0  0  0  0  0  0  0  0
  127.8981   68.3775   -2.9086 C   0  0  2  0  0  0  0  0  0  0  0  0
  127.1269   67.2885   -3.5974 C   0  0  0  0  0  0  0  0  0  0  0  0
  127.6707   66.5305   -4.3995 O   0  0  0  0  0  0  0  0  0  0  0  0
  128.1198   68.0007   -1.4462 C   0  0  0  0  0  0  0  0  0  0  0  0
  129.3280   67.0942   -1.2317 C   0  0  0  0  0  0  0  0  0  0  0  0
  128.9643   65.4633   -1.7931 S   0  0  0  0  0  0  0  0  0  0  0  0
  130.5704   64.8083   -2.1137 C   0  0  0  0  0  0  0  0  0  0  0  0
  131.4802   64.9218   -0.8918 C   0  0  1  0  0  0  0  0  0  0  0  0
  131.2436   63.8443    0.0169 O   0  0  0  0  0  0  0  0  0  0  0  0
  132.9392   64.8473   -1.3120 C   0  0  1  0  0  0  0  0  0  0  0  0
  133.6729   65.9222   -0.7175 O   0  0  0  0  0  0  0  0  0  0  0  0
  133.4456   63.5001   -0.8282 C   0  0  1  0  0  0  0  0  0  0  0  0
  134.6163   63.6423   -0.0160 O   0  0  0  0  0  0  0  0  0  0  0  0
  132.3143   62.8927   -0.0068 C   0  0  2  0  0  0  0  0  0  0  0  0
  125.9256   67.1350   -3.3816 O   0  0  0  0  0  0  0  0  0  0  0  0
  128.4258   60.3200   -2.5018 N   0  0  0  0  0  0  0  0  0  0  0  0
  128.4831   61.6026   -2.0901 C   0  0  0  0  0  0  0  0  0  0  0  0
  129.5516   62.1314   -1.4587 N   0  0  0  0  0  0  0  0  0  0  0  0
  130.6573   61.3852   -1.1918 C   0  0  0  0  0  0  0  0  0  0  0  0
  130.6670   59.9731   -1.6129 C   0  0  0  0  0  0  0  0  0  0  0  0
  129.4558   59.4628   -2.3041 C   0  0  0  0  0  0  0  0  0  0  0  0
  129.3854   58.1759   -2.7200 N   0  0  0  0  0  0  0  0  0  0  0  0
  131.8546   59.4650   -1.2419 N   0  0  0  0  0  0  0  0  0  0  0  0
  132.5463   60.4602   -0.6335 C   0  0  0  0  0  0  0  0  0  0  0  0
  131.8392   61.6073   -0.5989 N   0  0  0  0  0  0  0  0  0  0  0  0
  2  1  1  1  0  0  0
  2  3  1  0  0  0  0
  2  5  1  0  0  0  0
  3  4  1  0  0  0  0
  3 16  1  0  0  0  0
  5  6  1  0  0  0  0
  6  7  1  0  0  0  0
  7  8  1  0  0  0  0
  9  8  1  6  0  0  0
  9 10  1  0  0  0  0
  9 11  1  0  0  0  0
 10 15  1  0  0  0  0
 11 12  1  1  0  0  0
 11 13  1  0  0  0  0
 13 14  1  1  0  0  0
 13 15  1  0  0  0  0
 15 26  1  6  0  0  0
 17 18  2  0  0  0  0
 17 22  1  0  0  0  0
 18 19  1  0  0  0  0
 19 20  2  0  0  0  0
 20 21  1  0  0  0  0
 20 26  1  0  0  0  0
 21 22  2  0  0  0  0
 21 24  1  0  0  0  0
 22 23  1  0  0  0  0
 24 25  2  0  0  0  0
 25 26  1  0  0  0  0
M  END
>  <CHROM.1>
131.29217761,-154.12911940,-73.70192526,156.68784862,54.65661533,82.25666454
8.27934559,130.15084367,63.96581780,-1.69654361,-2.10743453,0.42994301,-3.12228767

>  <Name>
ligand

>  <RI>
0

>  <Rbt.Current_Directory>
/home/itssahil/PROJECTS/Mol_Feturizer/Test_systems_manuscript/rnas/3npn

>  <Rbt.Executable>
rbdock ($Id: //depot/dev/client3/rdock/2013.1/src/exe/rbdock.cxx#4 $)

>  <Rbt.Library>
libRbt.so (2013.1, Build901 2013/11/27)

>  <Rbt.Parameter_File>
/export/apps/rDock/src/rDock_2013.1_src/data/scripts/dock_solv.prm

>  <Rbt.Receptor>
prm/pocket_docking_5.prm

>  <SCORE>
-22.8362

>  <SCORE.INTER>
-22.4706

>  <SCORE.INTER.CONST>
1

>  <SCORE.INTER.POLAR>
0

>  <SCORE.INTER.ROT>
7

>  <SCORE.INTER.SOLV>
18.7879

>  <SCORE.INTER.VDW>
-29.5097

>  <SCORE.INTER.norm>
-0.864252

>  <SCORE.INTRA>
-0.365598

>  <SCORE.INTRA.DIHEDRAL>
3.68315

>  <SCORE.INTRA.DIHEDRAL.0>
4.37896

>  <SCORE.INTRA.POLAR>
0

>  <SCORE.INTRA.POLAR.0>
0

>  <SCORE.INTRA.REPUL>
0

>  <SCORE.INTRA.REPUL.0>
0

>  <SCORE.INTRA.SOLV>
-0.583773

>  <SCORE.INTRA.SOLV.lig_0>
-50.5538

>  <SCORE.INTRA.VDW>
-1.91529

>  <SCORE.INTRA.VDW.0>
-1.30673

>  <SCORE.INTRA.norm>
-0.0140615

>  <SCORE.RESTR>
0

>  <SCORE.RESTR.CAVITY>
0

>  <SCORE.RESTR.norm>
0

>  <SCORE.SYSTEM>
0

>  <SCORE.SYSTEM.CONST>
0

>  <SCORE.SYSTEM.DIHEDRAL>
0

>  <SCORE.SYSTEM.SOLV>
0

>  <SCORE.SYSTEM.norm>
0

>  <SCORE.heavy>
26

>  <SCORE.norm>
-0.878314

>  <RMSD>
2.539

$$$$
ligand
 OpenBabel02271912153D
libRbt.so/2013.1/901 2013/11/27
 26 28  0  0  0  0  0  0  0  0999 V2000
  126.7958   70.2555   -3.9456 N   0  0  0  0  0  0  0  0  0  0  0  0
  126.6431   68.7733   -4.0412 C   0  0  2  0  0  0  0  0  0  0  0  0
  126.2509   68.1945   -2.7122 C   0  0  0  0  0  0  0  0  0  0  0  0
  126.8425   68.5077   -1.6800 O   0  0  0  0  0  0  0  0  0  0  0  0
  127.9485   68.1370   -4.5110 C   0  0  0  0  0  0  0  0  0  0  0  0
  127.8998   66.6125   -4.5465 C   0  0  0  0  0  0  0  0  0  0  0  0
  129.4193   65.9760   -5.1736 S   0  0  0  0  0  0  0  0  0  0  0  0
  130.5401   66.3068   -3.8524 C   0  0  0  0  0  0  0  0  0  0  0  0
  129.8039   66.7049   -2.5744 C   0  0  1  0  0  0  0  0  0  0  0  0
  129.2063   65.5623   -1.9580 O   0  0  0  0  0  0  0  0  0  0  0  0
  130.7760   67.3039   -1.5708 C   0  0  1  0  0  0  0  0  0  0  0  0
  130.2576   68.5391   -1.0680 O   0  0  0  0  0  0  0  0  0  0  0  0
  130.9208   66.2752   -0.4634 C   0  0  1  0  0  0  0  0  0  0  0  0
  130.6400   66.8450    0.8198 O   0  0  0  0  0  0  0  0  0  0  0  0
  129.9139   65.1740   -0.7743 C   0  0  2  0  0  0  0  0  0  0  0  0
  125.3310   67.3823   -2.6263 O   0  0  0  0  0  0  0  0  0  0  0  0
  129.4322   60.1195   -2.2525 N   0  0  0  0  0  0  0  0  0  0  0  0
  128.4954   61.0860   -2.1740 C   0  0  0  0  0  0  0  0  0  0  0  0
  128.7630   62.3470   -1.7764 N   0  0  0  0  0  0  0  0  0  0  0  0
  130.0203   62.7259   -1.4210 C   0  0  0  0  0  0  0  0  0  0  0  0
  131.0972   61.7219   -1.4819 C   0  0  0  0  0  0  0  0  0  0  0  0
  130.7267   60.3558   -1.9307 C   0  0  0  0  0  0  0  0  0  0  0  0
  131.6582   59.3760   -2.0112 N   0  0  0  0  0  0  0  0  0  0  0  0
  132.2256   62.3381   -1.0907 N   0  0  0  0  0  0  0  0  0  0  0  0
  131.9033   63.6231   -0.8006 C   0  0  0  0  0  0  0  0  0  0  0  0
  130.5908   63.8616   -0.9941 N   0  0  0  0  0  0  0  0  0  0  0  0
  2  1  1  1  0  0  0
  2  3  1  0  0  0  0
  2  5  1  0  0  0  0
  3  4  1  0  0  0  0
  3 16  1  0  0  0  0
  5  6  1  0  0  0  0
  6  7  1  0  0  0  0
  7  8  1  0  0  0  0
  9  8  1  6  0  0  0
  9 10  1  0  0  0  0
  9 11  1  0  0  0  0
 10 15  1  0  0  0  0
 11 12  1  1  0  0  0
 11 13  1  0  0  0  0
 13 14  1  1  0  0  0
 13 15  1  0  0  0  0
 15 26  1  6  0  0  0
 17 18  2  0  0  0  0
 17 22  1  0  0  0  0
 18 19  1  0  0  0  0
 19 20  2  0  0  0  0
 20 21  1  0  0  0  0
 20 26  1  0  0  0  0
 21 22  2  0  0  0  0
 21 24  1  0  0  0  0
 22 23  1  0  0  0  0
 24 25  2  0  0  0  0
 25 26  1  0  0  0  0
M  END
>  <CHROM.1>
-47.67982548,176.23984562,177.25786954,71.05081788,12.61603113,75.10961303
-53.54911509,129.35071805,65.30436427,-2.31593685,2.19726390,-0.79685280
0.24699070

>  <Name>
ligand

>  <RI>
0

>  <Rbt.Current_Directory>
/home/itssahil/PROJECTS/Mol_Feturizer/Test_systems_manuscript/rnas/3npn

>  <Rbt.Executable>
rbdock ($Id: //depot/dev/client3/rdock/2013.1/src/exe/rbdock.cxx#4 $)

>  <Rbt.Library>
libRbt.so (2013.1, Build901 2013/11/27)

>  <Rbt.Parameter_File>
/export/apps/rDock/src/rDock_2013.1_src/data/scripts/dock_solv.prm

>  <Rbt.Receptor>
prm/pocket_docking_5.prm

>  <SCORE>
-21.6395

>  <SCORE.INTER>
-23.7899

>  <SCORE.INTER.CONST>
1

>  <SCORE.INTER.POLAR>
0

>  <SCORE.INTER.ROT>
7

>  <SCORE.INTER.SOLV>
16.5012

>  <SCORE.INTER.VDW>
-29.627

>  <SCORE.INTER.norm>
-0.914996

>  <SCORE.INTRA>
2.15036

>  <SCORE.INTRA.DIHEDRAL>
1.49005

>  <SCORE.INTRA.DIHEDRAL.0>
4.37896

>  <SCORE.INTRA.POLAR>
0

>  <SCORE.INTRA.POLAR.0>
0

>  <SCORE.INTRA.REPUL>
0

>  <SCORE.INTRA.REPUL.0>
0

>  <SCORE.INTRA.SOLV>
-0.595806

>  <SCORE.INTRA.SOLV.lig_0>
-50.5538

>  <SCORE.INTRA.VDW>
1.70324

>  <SCORE.INTRA.VDW.0>
-1.30673

>  <SCORE.INTRA.norm>
0.0827062

>  <SCORE.RESTR>
0

>  <SCORE.RESTR.CAVITY>
0

>  <SCORE.RESTR.norm>
0

>  <SCORE.SYSTEM>
0

>  <SCORE.SYSTEM.CONST>
0

>  <SCORE.SYSTEM.DIHEDRAL>
0

>  <SCORE.SYSTEM.SOLV>
0

>  <SCORE.SYSTEM.norm>
0

>  <SCORE.heavy>
26

>  <SCORE.norm>
-0.83229

>  <RMSD>
2.620

$$$$
ligand
 OpenBabel02271912153D
libRbt.so/2013.1/901 2013/11/27
 26 28  0  0  0  0  0  0  0  0999 V2000
  128.8287   67.6451   -4.2143 N   0  0  0  0  0  0  0  0  0  0  0  0
  127.6726   66.8088   -3.7744 C   0  0  2  0  0  0  0  0  0  0  0  0
  126.4711   67.6675   -3.5023 C   0  0  0  0  0  0  0  0  0  0  0  0
  125.5731   67.2894   -2.7511 O   0  0  0  0  0  0  0  0  0  0  0  0
  128.0363   66.0247   -2.5163 C   0  0  0  0  0  0  0  0  0  0  0  0
  128.3989   66.9156   -1.3321 C   0  0  0  0  0  0  0  0  0  0  0  0
  130.1475   66.9407   -1.1106 S   0  0  0  0  0  0  0  0  0  0  0  0
  130.4656   65.3393   -0.4430 C   0  0  0  0  0  0  0  0  0  0  0  0
  131.8788   65.2367    0.1279 C   0  0  1  0  0  0  0  0  0  0  0  0
  132.0753   63.9742    0.7681 O   0  0  0  0  0  0  0  0  0  0  0  0
  132.9068   65.3437   -0.9869 C   0  0  1  0  0  0  0  0  0  0  0  0
  133.9076   66.3042   -0.6362 O   0  0  0  0  0  0  0  0  0  0  0  0
  133.5040   63.9560   -1.1397 C   0  0  1  0  0  0  0  0  0  0  0  0
  134.9319   63.9868   -1.0366 O   0  0  0  0  0  0  0  0  0  0  0  0
  132.9196   63.1168   -0.0094 C   0  0  2  0  0  0  0  0  0  0  0  0
  126.3518   68.7700   -4.0349 O   0  0  0  0  0  0  0  0  0  0  0  0
  128.4560   61.4873   -2.3299 N   0  0  0  0  0  0  0  0  0  0  0  0
  128.8373   62.7312   -1.9762 C   0  0  0  0  0  0  0  0  0  0  0  0
  130.0186   63.0043   -1.3849 N   0  0  0  0  0  0  0  0  0  0  0  0
  130.9134   62.0194   -1.1018 C   0  0  0  0  0  0  0  0  0  0  0  0
  130.5649   60.6333   -1.4601 C   0  0  0  0  0  0  0  0  0  0  0  0
  129.2483   60.4109   -2.1099 C   0  0  0  0  0  0  0  0  0  0  0  0
  128.8531   59.1659   -2.4674 N   0  0  0  0  0  0  0  0  0  0  0  0
  131.6001   59.8628   -1.0848 N   0  0  0  0  0  0  0  0  0  0  0  0
  132.5305   60.6796   -0.5313 C   0  0  0  0  0  0  0  0  0  0  0  0
  132.1282   61.9662   -0.5369 N   0  0  0  0  0  0  0  0  0  0  0  0
  2  1  1  1  0  0  0
  2  3  1  0  0  0  0
  2  5  1  0  0  0  0
  3  4  1  0  0  0  0
  3 16  1  0  0  0  0
  5  6  1  0  0  0  0
  6  7  1  0  0  0  0
  7  8  1  0  0  0  0
  9  8  1  6  0  0  0
  9 10  1  0  0  0  0
  9 11  1  0  0  0  0
 10 15  1  0  0  0  0
 11 12  1  1  0  0  0
 11 13  1  0  0  0  0
 13 14  1  1  0  0  0
 13 15  1  0  0  0  0
 15 26  1  6  0  0  0
 17 18  2  0  0  0  0
 17 22  1  0  0  0  0
 18 19  1  0  0  0  0
 19 20  2  0  0  0  0
 20 21  1  0  0  0  0
 20 26  1  0  0  0  0
 21 22  2  0  0  0  0
 21 24  1  0  0  0  0
 22 23  1  0  0  0  0
 24 25  2  0  0  0  0
 25 26  1  0  0  0  0
M  END
>  <CHROM.1>
-156.60847046,60.84844400,-103.21191679,-73.12924122,-167.06114145,174.85647325
44.95760366,130.27568600,64.35969353,-1.57394751,-2.30522966,0.40562996,3.11279610

>  <Name>
ligand

>  <RI>
0

>  <Rbt.Current_Directory>
/home/itssahil/PROJECTS/Mol_Feturizer/Test_systems_manuscript/rnas/3npn

>  <Rbt.Executable>
rbdock ($Id: //depot/dev/client3/rdock/2013.1/src/exe/rbdock.cxx#4 $)

>  <Rbt.Library>
libRbt.so (2013.1, Build901 2013/11/27)

>  <Rbt.Parameter_File>
/export/apps/rDock/src/rDock_2013.1_src/data/scripts/dock_solv.prm

>  <Rbt.Receptor>
prm/pocket_docking_6.prm

>  <SCORE>
-18.3391

>  <SCORE.INTER>
-21.6738

>  <SCORE.INTER.CONST>
1

>  <SCORE.INTER.POLAR>
0

>  <SCORE.INTER.ROT>
7

>  <SCORE.INTER.SOLV>
20.0681

>  <SCORE.INTER.VDW>
-29.4052

>  <SCORE.INTER.norm>
-0.833606

>  <SCORE.INTRA>
3.33467

>  <SCORE.INTRA.DIHEDRAL>
3.39942

>  <SCORE.INTRA.DIHEDRAL.0>
4.37896

>  <SCORE.INTRA.POLAR>
0

>  <SCORE.INTRA.POLAR.0>
0

>  <SCORE.INTRA.REPUL>
0

>  <SCORE.INTRA.REPUL.0>
0

>  <SCORE.INTRA.SOLV>
0.794564

>  <SCORE.INTRA.SOLV.lig_0>
-50.5538

>  <SCORE.INTRA.VDW>
1.23768

>  <SCORE.INTRA.VDW.0>
-1.30673

>  <SCORE.INTRA.norm>
0.128257

>  <SCORE.RESTR>
0

>  <SCORE.RESTR.CAVITY>
0

>  <SCORE.RESTR.norm>
0

>  <SCORE.SYSTEM>
0

>  <SCORE.SYSTEM.CONST>
0

>  <SCORE.SYSTEM.DIHEDRAL>
0

>  <SCORE.SYSTEM.SOLV>
0

>  <SCORE.SYSTEM.norm>
0

>  <SCORE.heavy>
26

>  <SCORE.norm>
-0.705349

>  <RMSD>
2.730

$$$$
ligand
 OpenBabel02271912153D
libRbt.so/2013.1/901 2013/11/27
 26 28  0  0  0  0  0  0  0  0999 V2000
  128.8218   68.2901   -2.1518 N   0  0  0  0  0  0  0  0  0  0  0  0
  127.6825   67.5952   -2.8215 C   0  0  2  0  0  0  0  0  0  0  0  0
  126.4256   68.4092   -2.7083 C   0  0  0  0  0  0  0  0  0  0  0  0
  125.3184   67.8734   -2.6833 O   0  0  0  0  0  0  0  0  0  0  0  0
  127.4602   66.2212   -2.1952 C   0  0  0  0  0  0  0  0  0  0  0  0
  128.6624   65.2921   -2.3329 C   0  0  0  0  0  0  0  0  0  0  0  0
  129.9048   65.7378   -1.1646 S   0  0  0  0  0  0  0  0  0  0  0  0
  130.3704   64.1739   -0.4948 C   0  0  0  0  0  0  0  0  0  0  0  0
  131.8373   64.1569   -0.0685 C   0  0  1  0  0  0  0  0  0  0  0  0
  132.1920   62.8828    0.4732 O   0  0  0  0  0  0  0  0  0  0  0  0
  132.7378   64.4055   -1.2676 C   0  0  1  0  0  0  0  0  0  0  0  0
  133.6927   65.4247   -0.9569 O   0  0  0  0  0  0  0  0  0  0  0  0
  133.4204   63.0810   -1.5598 C   0  0  1  0  0  0  0  0  0  0  0  0
  134.8449   63.2226   -1.5916 O   0  0  0  0  0  0  0  0  0  0  0  0
  133.0172   62.1390   -0.4315 C   0  0  2  0  0  0  0  0  0  0  0  0
  126.4742   69.6369   -2.6479 O   0  0  0  0  0  0  0  0  0  0  0  0
  128.5214   60.2979   -2.5201 N   0  0  0  0  0  0  0  0  0  0  0  0
  128.8461   61.5518   -2.1460 C   0  0  0  0  0  0  0  0  0  0  0  0
  130.0443   61.8821   -1.6217 N   0  0  0  0  0  0  0  0  0  0  0  0
  131.0162   60.9491   -1.4329 C   0  0  0  0  0  0  0  0  0  0  0  0
  130.7329   59.5555   -1.8190 C   0  0  0  0  0  0  0  0  0  0  0  0
  129.3929   59.2689   -2.3910 C   0  0  0  0  0  0  0  0  0  0  0  0
  129.0542   58.0130   -2.7682 N   0  0  0  0  0  0  0  0  0  0  0  0
  131.8373   58.8425   -1.5394 N   0  0  0  0  0  0  0  0  0  0  0  0
  132.7489   59.6999   -1.0168 C   0  0  0  0  0  0  0  0  0  0  0  0
  132.2667   60.9569   -0.9493 N   0  0  0  0  0  0  0  0  0  0  0  0
  2  1  1  1  0  0  0
  2  3  1  0  0  0  0
  2  5  1  0  0  0  0
  3  4  1  0  0  0  0
  3 16  1  0  0  0  0
  5  6  1  0  0  0  0
  6  7  1  0  0  0  0
  7  8  1  0  0  0  0
  9  8  1  6  0  0  0
  9 10  1  0  0  0  0
  9 11  1  0  0  0  0
 10 15  1  0  0  0  0
 11 12  1  1  0  0  0
 11 13  1  0  0  0  0
 13 14  1  1  0  0  0
 13 15  1  0  0  0  0
 15 26  1  6  0  0  0
 17 18  2  0  0  0  0
 17 22  1  0  0  0  0
 18 19  1  0  0  0  0
 19 20  2  0  0  0  0
 20 21  1  0  0  0  0
 20 26  1  0  0  0  0
 21 22  2  0  0  0  0
 21 24  1  0  0  0  0
 22 23  1  0  0  0  0
 24 25  2  0  0  0  0
 25 26  1  0  0  0  0
M  END
>  <CHROM.1>
-150.64963584,-61.23043278,77.02235741,134.25682673,149.23165136,179.88231468
47.35289488,130.26348734,63.66675041,-1.61567316,-2.13264908,0.29520297,-3.08543037

>  <Name>
ligand

>  <RI>
0

>  <Rbt.Current_Directory>
/home/itssahil/PROJECTS/Mol_Feturizer/Test_systems_manuscript/rnas/3npn

>  <Rbt.Executable>
rbdock ($Id: //depot/dev/client3/rdock/2013.1/src/exe/rbdock.cxx#4 $)

>  <Rbt.Library>
libRbt.so (2013.1, Build901 2013/11/27)

>  <Rbt.Parameter_File>
/export/apps/rDock/src/rDock_2013.1_src/data/scripts/dock_solv.prm

>  <Rbt.Receptor>
prm/pocket_docking_5.prm

>  <SCORE>
-20.065

>  <SCORE.INTER>
-23.0343

>  <SCORE.INTER.CONST>
1

>  <SCORE.INTER.POLAR>
0

>  <SCORE.INTER.ROT>
7

>  <SCORE.INTER.SOLV>
19.2951

>  <SCORE.INTER.VDW>
-30.0546

>  <SCORE.INTER.norm>
-0.885936

>  <SCORE.INTRA>
2.9693

>  <SCORE.INTRA.DIHEDRAL>
2.60872

>  <SCORE.INTRA.DIHEDRAL.0>
4.37896

>  <SCORE.INTRA.POLAR>
0

>  <SCORE.INTRA.POLAR.0>
0

>  <SCORE.INTRA.REPUL>
0

>  <SCORE.INTRA.REPUL.0>
0

>  <SCORE.INTRA.SOLV>
1.23539

>  <SCORE.INTRA.SOLV.lig_0>
-50.5538

>  <SCORE.INTRA.VDW>
1.04725

>  <SCORE.INTRA.VDW.0>
-1.30673

>  <SCORE.INTRA.norm>
0.114204

>  <SCORE.RESTR>
0

>  <SCORE.RESTR.CAVITY>
0

>  <SCORE.RESTR.norm>
0

>  <SCORE.SYSTEM>
0

>  <SCORE.SYSTEM.CONST>
0

>  <SCORE.SYSTEM.DIHEDRAL>
0

>  <SCORE.SYSTEM.SOLV>
0

>  <SCORE.SYSTEM.norm>
0

>  <SCORE.heavy>
26

>  <SCORE.norm>
-0.771732

>  <RMSD>
2.809

$$$$
ligand
 OpenBabel02271912153D
libRbt.so/2013.1/901 2013/11/27
 26 28  0  0  0  0  0  0  0  0999 V2000
  131.1248   68.3855   -3.2706 N   0  0  0  0  0  0  0  0  0  0  0  0
  132.1565   68.3649   -4.3497 C   0  0  2  0  0  0  0  0  0  0  0  0
  132.3681   69.7434   -4.9065 C   0  0  0  0  0  0  0  0  0  0  0  0
  133.4634   70.0940   -5.3436 O   0  0  0  0  0  0  0  0  0  0  0  0
  131.7298   67.4206   -5.4704 C   0  0  0  0  0  0  0  0  0  0  0  0
  131.7128   65.9537   -5.0516 C   0  0  0  0  0  0  0  0  0  0  0  0
  133.3597   65.3843   -4.7854 S   0  0  0  0  0  0  0  0  0  0  0  0
  133.2446   64.6281   -3.1961 C   0  0  0  0  0  0  0  0  0  0  0  0
  132.6903   65.5941   -2.1505 C   0  0  1  0  0  0  0  0  0  0  0  0
  131.2614   65.5720   -2.1484 O   0  0  0  0  0  0  0  0  0  0  0  0
  133.1512   65.1874   -0.7602 C   0  0  1  0  0  0  0  0  0  0  0  0
  133.6886   66.3220   -0.0737 O   0  0  0  0  0  0  0  0  0  0  0  0
  131.9209   64.6470   -0.0531 C   0  0  1  0  0  0  0  0  0  0  0  0
  131.6970   65.3168    1.1925 O   0  0  0  0  0  0  0  0  0  0  0  0
  130.7483   64.8954   -0.9945 C   0  0  2  0  0  0  0  0  0  0  0  0
  131.4491   70.5608   -4.9292 O   0  0  0  0  0  0  0  0  0  0  0  0
  131.1682   59.6443   -1.4563 N   0  0  0  0  0  0  0  0  0  0  0  0
  132.0656   60.5426   -1.0032 C   0  0  0  0  0  0  0  0  0  0  0  0
  131.8207   61.8677   -0.9398 N   0  0  0  0  0  0  0  0  0  0  0  0
  130.6292   62.3876   -1.3404 C   0  0  0  0  0  0  0  0  0  0  0  0
  129.5983   61.4651   -1.8478 C   0  0  0  0  0  0  0  0  0  0  0  0
  129.9398   60.0205   -1.8860 C   0  0  0  0  0  0  0  0  0  0  0  0
  129.0478   59.1089   -2.3413 N   0  0  0  0  0  0  0  0  0  0  0  0
  128.5303   62.2148   -2.1697 N   0  0  0  0  0  0  0  0  0  0  0  0
  128.8466   63.5050   -1.8969 C   0  0  0  0  0  0  0  0  0  0  0  0
  130.0960   63.6163   -1.4033 N   0  0  0  0  0  0  0  0  0  0  0  0
  2  1  1  1  0  0  0
  2  3  1  0  0  0  0
  2  5  1  0  0  0  0
  3  4  1  0  0  0  0
  3 16  1  0  0  0  0
  5  6  1  0  0  0  0
  6  7  1  0  0  0  0
  7  8  1  0  0  0  0
  9  8  1  6  0  0  0
  9 10  1  0  0  0  0
  9 11  1  0  0  0  0
 10 15  1  0  0  0  0
 11 12  1  1  0  0  0
 11 13  1  0  0  0  0
 13 14  1  1  0  0  0
 13 15  1  0  0  0  0
 15 26  1  6  0  0  0
 17 18  2  0  0  0  0
 17 22  1  0  0  0  0
 18 19  1  0  0  0  0
 19 20  2  0  0  0  0
 20 21  1  0  0  0  0
 20 26  1  0  0  0  0
 21 22  2  0  0  0  0
 21 24  1  0  0  0  0
 22 23  1  0  0  0  0
 24 25  2  0  0  0  0
 25 26  1  0  0  0  0
M  END
>  <CHROM.1>
148.90159966,-67.47383858,-69.11328668,129.77190713,-55.15348099,86.20181164
99.49843336,131.57667503,64.86082488,-2.53572500,-0.94479822,1.13483934,2.16589825

>  <Name>
ligand

>  <RI>
0

>  <Rbt.Current_Directory>
/home/itssahil/PROJECTS/Mol_Feturizer/Test_systems_manuscript/rnas/3npn

>  <Rbt.Executable>
rbdock ($Id: //depot/dev/client3/rdock/2013.1/src/exe/rbdock.cxx#4 $)

>  <Rbt.Library>
libRbt.so (2013.1, Build901 2013/11/27)

>  <Rbt.Parameter_File>
/export/apps/rDock/src/rDock_2013.1_src/data/scripts/dock_solv.prm

>  <Rbt.Receptor>
prm/pocket_docking_6.prm

>  <SCORE>
-14.607

>  <SCORE.INTER>
-15.8603

>  <SCORE.INTER.CONST>
1

>  <SCORE.INTER.POLAR>
0

>  <SCORE.INTER.ROT>
7

>  <SCORE.INTER.SOLV>
16.9048

>  <SCORE.INTER.VDW>
-24.4751

>  <SCORE.INTER.norm>
-0.610012

>  <SCORE.INTRA>
1.25335

>  <SCORE.INTRA.DIHEDRAL>
3.25657

>  <SCORE.INTRA.DIHEDRAL.0>
4.37896

>  <SCORE.INTRA.POLAR>
0

>  <SCORE.INTRA.POLAR.0>
0

>  <SCORE.INTRA.REPUL>
0

>  <SCORE.INTRA.REPUL.0>
0

>  <SCORE.INTRA.SOLV>
2.71812

>  <SCORE.INTRA.SOLV.lig_0>
-50.5538

>  <SCORE.INTRA.VDW>
-1.734

>  <SCORE.INTRA.VDW.0>
-1.30673

>  <SCORE.INTRA.norm>
0.0482057

>  <SCORE.RESTR>
0

>  <SCORE.RESTR.CAVITY>
0

>  <SCORE.RESTR.norm>
0

>  <SCORE.SYSTEM>
0

>  <SCORE.SYSTEM.CONST>
0

>  <SCORE.SYSTEM.DIHEDRAL>
0

>  <SCORE.SYSTEM.SOLV>
0

>  <SCORE.SYSTEM.norm>
0

>  <SCORE.heavy>
26

>  <SCORE.norm>
-0.561806

>  <RMSD>
3.107

$$$$
ligand
 OpenBabel02271912153D
libRbt.so/2013.1/901 2013/11/27
 26 28  0  0  0  0  0  0  0  0999 V2000
  128.2415   68.4818   -1.8000 N   0  0  0  0  0  0  0  0  0  0  0  0
  127.7589   69.5892   -2.6775 C   0  0  2  0  0  0  0  0  0  0  0  0
  126.2790   69.7865   -2.5156 C   0  0  0  0  0  0  0  0  0  0  0  0
  125.5259   68.8338   -2.3184 O   0  0  0  0  0  0  0  0  0  0  0  0
  128.0771   69.2825   -4.1384 C   0  0  0  0  0  0  0  0  0  0  0  0
  127.3226   68.0724   -4.6805 C   0  0  0  0  0  0  0  0  0  0  0  0
  127.9379   66.5969   -3.9378 S   0  0  0  0  0  0  0  0  0  0  0  0
  129.4536   66.3431   -4.8036 C   0  0  0  0  0  0  0  0  0  0  0  0
  130.5519   67.2804   -4.3049 C   0  0  1  0  0  0  0  0  0  0  0  0
  130.8931   66.9839   -2.9491 O   0  0  0  0  0  0  0  0  0  0  0  0
  131.8120   67.1060   -5.1372 C   0  0  1  0  0  0  0  0  0  0  0  0
  132.2953   68.3835   -5.5631 O   0  0  0  0  0  0  0  0  0  0  0  0
  132.8157   66.4095   -4.2355 C   0  0  1  0  0  0  0  0  0  0  0  0
  134.0445   67.1405   -4.1578 O   0  0  0  0  0  0  0  0  0  0  0  0
  132.1674   66.3356   -2.8580 C   0  0  2  0  0  0  0  0  0  0  0  0
  125.7823   70.9096   -2.5867 O   0  0  0  0  0  0  0  0  0  0  0  0
  128.7858   62.4748   -1.5839 N   0  0  0  0  0  0  0  0  0  0  0  0
  128.5383   63.7436   -1.9668 C   0  0  0  0  0  0  0  0  0  0  0  0
  129.5099   64.6307   -2.2651 N   0  0  0  0  0  0  0  0  0  0  0  0
  130.8253   64.2911   -2.1933 C   0  0  0  0  0  0  0  0  0  0  0  0
  131.1725   62.9196   -1.7816 C   0  0  0  0  0  0  0  0  0  0  0  0
  130.0492   61.9994   -1.4712 C   0  0  0  0  0  0  0  0  0  0  0  0
  130.2851   60.7235   -1.0832 N   0  0  0  0  0  0  0  0  0  0  0  0
  132.5139   62.8381   -1.7932 N   0  0  0  0  0  0  0  0  0  0  0  0
  132.9880   64.0500   -2.1751 C   0  0  0  0  0  0  0  0  0  0  0  0
  131.9878   64.9215   -2.4144 N   0  0  0  0  0  0  0  0  0  0  0  0
  2  1  1  1  0  0  0
  2  3  1  0  0  0  0
  2  5  1  0  0  0  0
  3  4  1  0  0  0  0
  3 16  1  0  0  0  0
  5  6  1  0  0  0  0
  6  7  1  0  0  0  0
  7  8  1  0  0  0  0
  9  8  1  6  0  0  0
  9 10  1  0  0  0  0
  9 11  1  0  0  0  0
 10 15  1  0  0  0  0
 11 12  1  1  0  0  0
 11 13  1  0  0  0  0
 13 14  1  1  0  0  0
 13 15  1  0  0  0  0
 15 26  1  6  0  0  0
 17 18  2  0  0  0  0
 17 22  1  0  0  0  0
 18 19  1  0  0  0  0
 19 20  2  0  0  0  0
 20 21  1  0  0  0  0
 20 26  1  0  0  0  0
 21 22  2  0  0  0  0
 21 24  1  0  0  0  0
 22 23  1  0  0  0  0
 24 25  2  0  0  0  0
 25 26  1  0  0  0  0
M  END
>  <CHROM.1>
-35.21903729,65.52951380,-69.81516264,-76.82004743,77.01572158,65.42932988
3.37234439,129.79112499,66.27937410,-3.05660577,2.23801684,0.29706420,-0.40529082

>  <Name>
ligand

>  <RI>
0

>  <Rbt.Current_Directory>
/home/itssahil/PROJECTS/Mol_Feturizer/Test_systems_manuscript/rnas/3npn

>  <Rbt.Executable>
rbdock ($Id: //depot/dev/client3/rdock/2013.1/src/exe/rbdock.cxx#4 $)

>  <Rbt.Library>
libRbt.so (2013.1, Build901 2013/11/27)

>  <Rbt.Parameter_File>
/export/apps/rDock/src/rDock_2013.1_src/data/scripts/dock_solv.prm

>  <Rbt.Receptor>
prm/pocket_docking_6.prm

>  <SCORE>
-16.6671

>  <SCORE.INTER>
-16.5784

>  <SCORE.INTER.CONST>
1

>  <SCORE.INTER.POLAR>
0

>  <SCORE.INTER.ROT>
7

>  <SCORE.INTER.SOLV>
19.4185

>  <SCORE.INTER.VDW>
-25.7918

>  <SCORE.INTER.norm>
-0.637631

>  <SCORE.INTRA>
-0.10368

>  <SCORE.INTRA.DIHEDRAL>
-0.282478

>  <SCORE.INTRA.DIHEDRAL.0>
4.37896

>  <SCORE.INTRA.POLAR>
0

>  <SCORE.INTRA.POLAR.0>
0

>  <SCORE.INTRA.REPUL>
0

>  <SCORE.INTRA.REPUL.0>
0

>  <SCORE.INTRA.SOLV>
3.29696

>  <SCORE.INTRA.SOLV.lig_0>
-50.5538

>  <SCORE.INTRA.VDW>
-1.61092

>  <SCORE.INTRA.VDW.0>
-1.30673

>  <SCORE.INTRA.norm>
-0.0039877

>  <SCORE.RESTR>
0.0149635

>  <SCORE.RESTR.CAVITY>
0.0149635

>  <SCORE.RESTR.norm>
0.000575521

>  <SCORE.SYSTEM>
0

>  <SCORE.SYSTEM.CONST>
0

>  <SCORE.SYSTEM.DIHEDRAL>
0

>  <SCORE.SYSTEM.SOLV>
0

>  <SCORE.SYSTEM.norm>
0

>  <SCORE.heavy>
26

>  <SCORE.norm>
-0.641043

>  <RMSD>
3.203

$$$$
ligand
 OpenBabel02271912153D
libRbt.so/2013.1/901 2013/11/27
 26 28  0  0  0  0  0  0  0  0999 V2000
  128.7267   68.1554   -4.1301 N   0  0  0  0  0  0  0  0  0  0  0  0
  128.1176   66.9729   -3.4519 C   0  0  2  0  0  0  0  0  0  0  0  0
  126.9715   67.3957   -2.5784 C   0  0  0  0  0  0  0  0  0  0  0  0
  125.8231   67.0166   -2.8043 O   0  0  0  0  0  0  0  0  0  0  0  0
  129.1645   66.2506   -2.6080 C   0  0  0  0  0  0  0  0  0  0  0  0
  128.7417   64.8447   -2.1930 C   0  0  0  0  0  0  0  0  0  0  0  0
  129.7636   64.2729   -0.8754 S   0  0  0  0  0  0  0  0  0  0  0  0
  131.3076   64.0054   -1.6851 C   0  0  0  0  0  0  0  0  0  0  0  0
  132.4347   63.7599   -0.6835 C   0  0  1  0  0  0  0  0  0  0  0  0
  132.1898   62.5721    0.0725 O   0  0  0  0  0  0  0  0  0  0  0  0
  133.7551   63.5684   -1.4121 C   0  0  1  0  0  0  0  0  0  0  0  0
  134.7603   64.4007   -0.8257 O   0  0  0  0  0  0  0  0  0  0  0  0
  134.1034   62.0976   -1.2669 C   0  0  1  0  0  0  0  0  0  0  0  0
  135.4115   61.9222   -0.7117 O   0  0  0  0  0  0  0  0  0  0  0  0
  133.0576   61.5054   -0.3295 C   0  0  2  0  0  0  0  0  0  0  0  0
  127.1543   68.1425   -1.6181 O   0  0  0  0  0  0  0  0  0  0  0  0
  128.4732   60.1018   -2.5606 N   0  0  0  0  0  0  0  0  0  0  0  0
  128.8372   61.2767   -2.0084 C   0  0  0  0  0  0  0  0  0  0  0  0
  130.0544   61.4972   -1.4702 N   0  0  0  0  0  0  0  0  0  0  0  0
  131.0063   60.5256   -1.4498 C   0  0  0  0  0  0  0  0  0  0  0  0
  130.6799   59.2137   -2.0361 C   0  0  0  0  0  0  0  0  0  0  0  0
  129.3212   59.0467   -2.6113 C   0  0  0  0  0  0  0  0  0  0  0  0
  128.9430   57.8706   -3.1663 N   0  0  0  0  0  0  0  0  0  0  0  0
  131.7718   58.4427   -1.8958 N   0  0  0  0  0  0  0  0  0  0  0  0
  132.7156   59.1906   -1.2720 C   0  0  0  0  0  0  0  0  0  0  0  0
  132.2667   60.4326   -1.0021 N   0  0  0  0  0  0  0  0  0  0  0  0
  2  1  1  1  0  0  0
  2  3  1  0  0  0  0
  2  5  1  0  0  0  0
  3  4  1  0  0  0  0
  3 16  1  0  0  0  0
  5  6  1  0  0  0  0
  6  7  1  0  0  0  0
  7  8  1  0  0  0  0
  9  8  1  6  0  0  0
  9 10  1  0  0  0  0
  9 11  1  0  0  0  0
 10 15  1  0  0  0  0
 11 12  1  1  0  0  0
 11 13  1  0  0  0  0
 13 14  1  1  0  0  0
 13 15  1  0  0  0  0
 15 26  1  6  0  0  0
 17 18  2  0  0  0  0
 17 22  1  0  0  0  0
 18 19  1  0  0  0  0
 19 20  2  0  0  0  0
 20 21  1  0  0  0  0
 20 26  1  0  0  0  0
 21 22  2  0  0  0  0
 21 24  1  0  0  0  0
 22 23  1  0  0  0  0
 24 25  2  0  0  0  0
 25 26  1  0  0  0  0
M  END
>  <CHROM.1>
116.62290238,-164.30931744,-163.88565555,-70.88763476,168.94440260,62.78021585
13.87319738,130.56962555,63.03103908,-1.72935575,-2.18559230,0.30079412,-3.11166934

>  <Name>
ligand

>  <RI>
0

>  <Rbt.Current_Directory>
/home/itssahil/PROJECTS/Mol_Feturizer/Test_systems_manuscript/rnas/3npn

>  <Rbt.Executable>
rbdock ($Id: //depot/dev/client3/rdock/2013.1/src/exe/rbdock.cxx#4 $)

>  <Rbt.Library>
libRbt.so (2013.1, Build901 2013/11/27)

>  <Rbt.Parameter_File>
/export/apps/rDock/src/rDock_2013.1_src/data/scripts/dock_solv.prm

>  <Rbt.Receptor>
prm/pocket_docking_4.prm

>  <SCORE>
-23.2256

>  <SCORE.INTER>
-22.0654

>  <SCORE.INTER.CONST>
1

>  <SCORE.INTER.POLAR>
0

>  <SCORE.INTER.ROT>
7

>  <SCORE.INTER.SOLV>
20.4016

>  <SCORE.INTER.VDW>
-29.7775

>  <SCORE.INTER.norm>
-0.84867

>  <SCORE.INTRA>
-1.16021

>  <SCORE.INTRA.DIHEDRAL>
0.52322

>  <SCORE.INTRA.DIHEDRAL.0>
4.37896

>  <SCORE.INTRA.POLAR>
0

>  <SCORE.INTRA.POLAR.0>
0

>  <SCORE.INTRA.REPUL>
0

>  <SCORE.INTRA.REPUL.0>
0

>  <SCORE.INTRA.SOLV>
-0.786595

>  <SCORE.INTRA.SOLV.lig_0>
-50.5538

>  <SCORE.INTRA.VDW>
-1.02853

>  <SCORE.INTRA.VDW.0>
-1.30673

>  <SCORE.INTRA.norm>
-0.0446236

>  <SCORE.RESTR>
0

>  <SCORE.RESTR.CAVITY>
0

>  <SCORE.RESTR.norm>
0

>  <SCORE.SYSTEM>
0

>  <SCORE.SYSTEM.CONST>
0

>  <SCORE.SYSTEM.DIHEDRAL>
0

>  <SCORE.SYSTEM.SOLV>
0

>  <SCORE.SYSTEM.norm>
0

>  <SCORE.heavy>
26

>  <SCORE.norm>
-0.893294

>  <RMSD>
3.225

$$$$
ligand
 OpenBabel02271912153D
libRbt.so/2013.1/901 2013/11/27
 26 28  0  0  0  0  0  0  0  0999 V2000
  128.4370   67.0905   -4.2124 N   0  0  0  0  0  0  0  0  0  0  0  0
  127.5203   66.7584   -3.0816 C   0  0  2  0  0  0  0  0  0  0  0  0
  126.8229   67.9923   -2.5854 C   0  0  0  0  0  0  0  0  0  0  0  0
  127.4577   68.9603   -2.1687 O   0  0  0  0  0  0  0  0  0  0  0  0
  128.3026   66.1182   -1.9380 C   0  0  0  0  0  0  0  0  0  0  0  0
  128.8265   64.7242   -2.2695 C   0  0  0  0  0  0  0  0  0  0  0  0
  129.7536   64.0905   -0.9108 S   0  0  0  0  0  0  0  0  0  0  0  0
  131.3569   63.8786   -1.6148 C   0  0  0  0  0  0  0  0  0  0  0  0
  132.4143   63.6210   -0.5428 C   0  0  1  0  0  0  0  0  0  0  0  0
  132.1197   62.4245    0.1812 O   0  0  0  0  0  0  0  0  0  0  0  0
  133.7807   63.4376   -1.1832 C   0  0  1  0  0  0  0  0  0  0  0  0
  134.7439   64.2627   -0.5209 O   0  0  0  0  0  0  0  0  0  0  0  0
  134.1192   61.9651   -1.0322 C   0  0  1  0  0  0  0  0  0  0  0  0
  135.3871   61.7828   -0.3924 O   0  0  0  0  0  0  0  0  0  0  0  0
  133.0130   61.3623   -0.1741 C   0  0  2  0  0  0  0  0  0  0  0  0
  125.5947   68.0597   -2.5748 O   0  0  0  0  0  0  0  0  0  0  0  0
  128.5391   59.9422   -2.6096 N   0  0  0  0  0  0  0  0  0  0  0  0
  128.8578   61.1040   -2.0043 C   0  0  0  0  0  0  0  0  0  0  0  0
  130.0509   61.3310   -1.4171 N   0  0  0  0  0  0  0  0  0  0  0  0
  131.0233   60.3798   -1.3981 C   0  0  0  0  0  0  0  0  0  0  0  0
  130.7464   59.0831   -2.0410 C   0  0  0  0  0  0  0  0  0  0  0  0
  129.4119   58.9079   -2.6682 C   0  0  0  0  0  0  0  0  0  0  0  0
  129.0792   57.7447   -3.2769 N   0  0  0  0  0  0  0  0  0  0  0  0
  131.8500   58.3311   -1.8904 N   0  0  0  0  0  0  0  0  0  0  0  0
  132.7553   59.0760   -1.2086 C   0  0  0  0  0  0  0  0  0  0  0  0
  132.2696   60.2977   -0.9108 N   0  0  0  0  0  0  0  0  0  0  0  0
  2  1  1  6  0  0  0
  2  3  1  0  0  0  0
  2  5  1  0  0  0  0
  3  4  1  0  0  0  0
  3 16  1  0  0  0  0
  5  6  1  0  0  0  0
  6  7  1  0  0  0  0
  7  8  1  0  0  0  0
  9  8  1  6  0  0  0
  9 10  1  0  0  0  0
  9 11  1  0  0  0  0
 10 15  1  0  0  0  0
 11 12  1  1  0  0  0
 11 13  1  0  0  0  0
 13 14  1  1  0  0  0
 13 15  1  0  0  0  0
 15 26  1  6  0  0  0
 17 18  2  0  0  0  0
 17 22  1  0  0  0  0
 18 19  1  0  0  0  0
 19 20  2  0  0  0  0
 20 21  1  0  0  0  0
 20 26  1  0  0  0  0
 21 22  2  0  0  0  0
 21 24  1  0  0  0  0
 22 23  1  0  0  0  0
 24 25  2  0  0  0  0
 25 26  1  0  0  0  0
M  END
>  <CHROM.1>
-58.48021714,-68.95098096,178.30707518,-118.32890084,167.60519473,61.12340083
11.21808478,130.52087915,62.96692180,-1.65266176,2.20371731,-0.35017554,0.07447583

>  <Name>
ligand

>  <RI>
0

>  <Rbt.Current_Directory>
/home/itssahil/PROJECTS/Mol_Feturizer/Test_systems_manuscript/rnas/3npn

>  <Rbt.Executable>
rbdock ($Id: //depot/dev/client3/rdock/2013.1/src/exe/rbdock.cxx#4 $)

>  <Rbt.Library>
libRbt.so (2013.1, Build901 2013/11/27)

>  <Rbt.Parameter_File>
/export/apps/rDock/src/rDock_2013.1_src/data/scripts/dock_solv.prm

>  <Rbt.Receptor>
prm/pocket_docking_6.prm

>  <SCORE>
-24.1399

>  <SCORE.INTER>
-23.3476

>  <SCORE.INTER.CONST>
1

>  <SCORE.INTER.POLAR>
0

>  <SCORE.INTER.ROT>
7

>  <SCORE.INTER.SOLV>
21.6454

>  <SCORE.INTER.VDW>
-31.0469

>  <SCORE.INTER.norm>
-0.897986

>  <SCORE.INTRA>
-0.792273

>  <SCORE.INTRA.DIHEDRAL>
1.24664

>  <SCORE.INTRA.DIHEDRAL.0>
4.37896

>  <SCORE.INTRA.POLAR>
0

>  <SCORE.INTRA.POLAR.0>
0

>  <SCORE.INTRA.REPUL>
0

>  <SCORE.INTRA.REPUL.0>
0

>  <SCORE.INTRA.SOLV>
-0.173928

>  <SCORE.INTRA.SOLV.lig_0>
-50.5538

>  <SCORE.INTRA.VDW>
-1.32863

>  <SCORE.INTRA.VDW.0>
-1.30673

>  <SCORE.INTRA.norm>
-0.030472

>  <SCORE.RESTR>
0

>  <SCORE.RESTR.CAVITY>
0

>  <SCORE.RESTR.norm>
0

>  <SCORE.SYSTEM>
0

>  <SCORE.SYSTEM.CONST>
0

>  <SCORE.SYSTEM.DIHEDRAL>
0

>  <SCORE.SYSTEM.SOLV>
0

>  <SCORE.SYSTEM.norm>
0

>  <SCORE.heavy>
26

>  <SCORE.norm>
-0.928458

>  <RMSD>
3.291

$$$$
ligand
 OpenBabel02271912153D
libRbt.so/2013.1/901 2013/11/27
 26 28  0  0  0  0  0  0  0  0999 V2000
  133.6786   67.1066   -5.5849 N   0  0  0  0  0  0  0  0  0  0  0  0
  132.1984   67.3008   -5.6100 C   0  0  2  0  0  0  0  0  0  0  0  0
  131.7744   68.2772   -4.5507 C   0  0  0  0  0  0  0  0  0  0  0  0
  130.7619   68.9633   -4.6835 O   0  0  0  0  0  0  0  0  0  0  0  0
  131.4870   65.9682   -5.3914 C   0  0  0  0  0  0  0  0  0  0  0  0
  130.0458   65.9628   -5.8918 C   0  0  0  0  0  0  0  0  0  0  0  0
  128.9801   66.6470   -4.6657 S   0  0  0  0  0  0  0  0  0  0  0  0
  129.0892   65.4590   -3.3664 C   0  0  0  0  0  0  0  0  0  0  0  0
  129.2583   66.1276   -2.0034 C   0  0  1  0  0  0  0  0  0  0  0  0
  129.1393   65.1681   -0.9509 O   0  0  0  0  0  0  0  0  0  0  0  0
  130.6389   66.7538   -1.8909 C   0  0  1  0  0  0  0  0  0  0  0  0
  130.5258   68.1023   -1.4262 O   0  0  0  0  0  0  0  0  0  0  0  0
  131.4093   65.8937   -0.9049 C   0  0  1  0  0  0  0  0  0  0  0  0
  131.9484   66.6788    0.1643 O   0  0  0  0  0  0  0  0  0  0  0  0
  130.4102   64.8827   -0.3544 C   0  0  2  0  0  0  0  0  0  0  0  0
  132.4387   68.4212   -3.5254 O   0  0  0  0  0  0  0  0  0  0  0  0
  129.0170   60.2006   -2.3795 N   0  0  0  0  0  0  0  0  0  0  0  0
  128.2949   61.3320   -2.2517 C   0  0  0  0  0  0  0  0  0  0  0  0
  128.7841   62.4663   -1.7098 N   0  0  0  0  0  0  0  0  0  0  0  0
  130.0617   62.5369   -1.2477 C   0  0  0  0  0  0  0  0  0  0  0  0
  130.9115   61.3379   -1.3543 C   0  0  0  0  0  0  0  0  0  0  0  0
  130.3042   60.1277   -1.9639 C   0  0  0  0  0  0  0  0  0  0  0  0
  131.0186   58.9846   -2.0954 N   0  0  0  0  0  0  0  0  0  0  0  0
  132.1093   61.6633   -0.8389 N   0  0  0  0  0  0  0  0  0  0  0  0
  132.0359   62.9555   -0.4337 C   0  0  0  0  0  0  0  0  0  0  0  0
  130.8186   63.4826   -0.6731 N   0  0  0  0  0  0  0  0  0  0  0  0
  2  1  1  1  0  0  0
  2  3  1  0  0  0  0
  2  5  1  0  0  0  0
  3  4  1  0  0  0  0
  3 16  1  0  0  0  0
  5  6  1  0  0  0  0
  6  7  1  0  0  0  0
  7  8  1  0  0  0  0
  9  8  1  6  0  0  0
  9 10  1  0  0  0  0
  9 11  1  0  0  0  0
 10 15  1  0  0  0  0
 11 12  1  1  0  0  0
 11 13  1  0  0  0  0
 13 14  1  1  0  0  0
 13 15  1  0  0  0  0
 15 26  1  6  0  0  0
 17 18  2  0  0  0  0
 17 22  1  0  0  0  0
 18 19  1  0  0  0  0
 19 20  2  0  0  0  0
 20 21  1  0  0  0  0
 20 26  1  0  0  0  0
 21 22  2  0  0  0  0
 21 24  1  0  0  0  0
 22 23  1  0  0  0  0
 24 25  2  0  0  0  0
 25 26  1  0  0  0  0
M  END
>  <CHROM.1>
152.14905010,-159.04455612,-83.81986711,-66.19330396,135.24937700,171.12952785
-9.56962119,130.58787166,64.93190582,-2.63689380,1.04995028,-1.29135191,-0.90921774

>  <Name>
ligand

>  <RI>
0

>  <Rbt.Current_Directory>
/home/itssahil/PROJECTS/Mol_Feturizer/Test_systems_manuscript/rnas/3npn

>  <Rbt.Executable>
rbdock ($Id: //depot/dev/client3/rdock/2013.1/src/exe/rbdock.cxx#4 $)

>  <Rbt.Library>
libRbt.so (2013.1, Build901 2013/11/27)

>  <Rbt.Parameter_File>
/export/apps/rDock/src/rDock_2013.1_src/data/scripts/dock_solv.prm

>  <Rbt.Receptor>
prm/pocket_docking_5.prm

>  <SCORE>
-23.722

>  <SCORE.INTER>
-23.111

>  <SCORE.INTER.CONST>
1

>  <SCORE.INTER.POLAR>
0

>  <SCORE.INTER.ROT>
7

>  <SCORE.INTER.SOLV>
14.3884

>  <SCORE.INTER.VDW>
-28.4702

>  <SCORE.INTER.norm>
-0.888886

>  <SCORE.INTRA>
-0.611016

>  <SCORE.INTRA.DIHEDRAL>
4.13921

>  <SCORE.INTRA.DIHEDRAL.0>
4.37896

>  <SCORE.INTRA.POLAR>
0

>  <SCORE.INTRA.POLAR.0>
0

>  <SCORE.INTRA.REPUL>
0

>  <SCORE.INTRA.REPUL.0>
0

>  <SCORE.INTRA.SOLV>
-0.278643

>  <SCORE.INTRA.SOLV.lig_0>
-50.5538

>  <SCORE.INTRA.VDW>
-2.5413

>  <SCORE.INTRA.VDW.0>
-1.30673

>  <SCORE.INTRA.norm>
-0.0235006

>  <SCORE.RESTR>
0

>  <SCORE.RESTR.CAVITY>
0

>  <SCORE.RESTR.norm>
0

>  <SCORE.SYSTEM>
0

>  <SCORE.SYSTEM.CONST>
0

>  <SCORE.SYSTEM.DIHEDRAL>
0

>  <SCORE.SYSTEM.SOLV>
0

>  <SCORE.SYSTEM.norm>
0

>  <SCORE.heavy>
26

>  <SCORE.norm>
-0.912386

>  <RMSD>
3.468

$$$$
ligand
 OpenBabel02271912153D
libRbt.so/2013.1/901 2013/11/27
 26 28  0  0  0  0  0  0  0  0999 V2000
  133.6577   68.8336   -4.2269 N   0  0  0  0  0  0  0  0  0  0  0  0
  132.9131   67.5776   -4.5390 C   0  0  2  0  0  0  0  0  0  0  0  0
  133.4532   66.9376   -5.7854 C   0  0  0  0  0  0  0  0  0  0  0  0
  133.7604   65.7465   -5.8097 O   0  0  0  0  0  0  0  0  0  0  0  0
  131.4270   67.8756   -4.7198 C   0  0  0  0  0  0  0  0  0  0  0  0
  130.5853   66.6270   -4.9643 C   0  0  0  0  0  0  0  0  0  0  0  0
  128.9238   66.9102   -4.4478 S   0  0  0  0  0  0  0  0  0  0  0  0
  128.6340   65.5581   -3.3528 C   0  0  0  0  0  0  0  0  0  0  0  0
  129.3084   65.7739   -1.9991 C   0  0  1  0  0  0  0  0  0  0  0  0
  128.9076   64.7665   -1.0680 O   0  0  0  0  0  0  0  0  0  0  0  0
  130.8190   65.6827   -2.1421 C   0  0  1  0  0  0  0  0  0  0  0  0
  131.4371   66.8074   -1.5094 O   0  0  0  0  0  0  0  0  0  0  0  0
  131.2248   64.3817   -1.4726 C   0  0  1  0  0  0  0  0  0  0  0  0
  132.2299   64.5976   -0.4759 O   0  0  0  0  0  0  0  0  0  0  0  0
  129.9615   63.8271   -0.8247 C   0  0  2  0  0  0  0  0  0  0  0  0
  133.6110   67.5952   -6.8129 O   0  0  0  0  0  0  0  0  0  0  0  0
  131.3977   58.8049   -1.6485 N   0  0  0  0  0  0  0  0  0  0  0  0
  132.0707   59.8039   -1.0429 C   0  0  0  0  0  0  0  0  0  0  0  0
  131.5766   61.0511   -0.9011 N   0  0  0  0  0  0  0  0  0  0  0  0
  130.3446   61.3827   -1.3733 C   0  0  0  0  0  0  0  0  0  0  0  0
  129.5499   60.3410   -2.0476 C   0  0  0  0  0  0  0  0  0  0  0  0
  130.1591   58.9919   -2.1642 C   0  0  0  0  0  0  0  0  0  0  0  0
  129.4941   57.9811   -2.7726 N   0  0  0  0  0  0  0  0  0  0  0  0
  128.3894   60.9124   -2.4120 N   0  0  0  0  0  0  0  0  0  0  0  0
  128.4343   62.2072   -2.0110 C   0  0  0  0  0  0  0  0  0  0  0  0
  129.5966   62.4953   -1.3921 N   0  0  0  0  0  0  0  0  0  0  0  0
  2  1  1  6  0  0  0
  2  3  1  0  0  0  0
  2  5  1  0  0  0  0
  3  4  1  0  0  0  0
  3 16  1  0  0  0  0
  5  6  1  0  0  0  0
  6  7  1  0  0  0  0
  7  8  1  0  0  0  0
  9  8  1  6  0  0  0
  9 10  1  0  0  0  0
  9 11  1  0  0  0  0
 10 15  1  0  0  0  0
 11 12  1  1  0  0  0
 11 13  1  0  0  0  0
 13 14  1  1  0  0  0
 13 15  1  0  0  0  0
 15 26  1  6  0  0  0
 17 18  2  0  0  0  0
 17 22  1  0  0  0  0
 18 19  1  0  0  0  0
 19 20  2  0  0  0  0
 20 21  1  0  0  0  0
 20 26  1  0  0  0  0
 21 22  2  0  0  0  0
 21 24  1  0  0  0  0
 22 23  1  0  0  0  0
 24 25  2  0  0  0  0
 25 26  1  0  0  0  0
M  END
>  <CHROM.1>
129.70313943,-176.75087620,154.51048428,-126.45754698,76.45650673,171.75336515
178.89860913,130.78463996,64.22829089,-2.87598187,-1.29552199,-0.47973761
2.86232449

>  <Name>
ligand

>  <RI>
0

>  <Rbt.Current_Directory>
/home/itssahil/PROJECTS/Mol_Feturizer/Test_systems_manuscript/rnas/3npn

>  <Rbt.Executable>
rbdock ($Id: //depot/dev/client3/rdock/2013.1/src/exe/rbdock.cxx#4 $)

>  <Rbt.Library>
libRbt.so (2013.1, Build901 2013/11/27)

>  <Rbt.Parameter_File>
/export/apps/rDock/src/rDock_2013.1_src/data/scripts/dock_solv.prm

>  <Rbt.Receptor>
prm/pocket_docking_6.prm

>  <SCORE>
-22.4714

>  <SCORE.INTER>
-23.1739

>  <SCORE.INTER.CONST>
1

>  <SCORE.INTER.POLAR>
0

>  <SCORE.INTER.ROT>
7

>  <SCORE.INTER.SOLV>
17.0218

>  <SCORE.INTER.VDW>
-29.3899

>  <SCORE.INTER.norm>
-0.891305

>  <SCORE.INTRA>
0.686631

>  <SCORE.INTRA.DIHEDRAL>
3.42842

>  <SCORE.INTRA.DIHEDRAL.0>
4.37896

>  <SCORE.INTRA.POLAR>
0

>  <SCORE.INTRA.POLAR.0>
0

>  <SCORE.INTRA.REPUL>
0

>  <SCORE.INTRA.REPUL.0>
0

>  <SCORE.INTRA.SOLV>
-0.0805707

>  <SCORE.INTRA.SOLV.lig_0>
-50.5538

>  <SCORE.INTRA.VDW>
-0.987293

>  <SCORE.INTRA.VDW.0>
-1.30673

>  <SCORE.INTRA.norm>
0.0264089

>  <SCORE.RESTR>
0.015865

>  <SCORE.RESTR.CAVITY>
0.015865

>  <SCORE.RESTR.norm>
0.000610194

>  <SCORE.SYSTEM>
0

>  <SCORE.SYSTEM.CONST>
0

>  <SCORE.SYSTEM.DIHEDRAL>
0

>  <SCORE.SYSTEM.SOLV>
0

>  <SCORE.SYSTEM.norm>
0

>  <SCORE.heavy>
26

>  <SCORE.norm>
-0.864286

>  <RMSD>
3.495

$$$$
ligand
 OpenBabel02271912153D
libRbt.so/2013.1/901 2013/11/27
 26 28  0  0  0  0  0  0  0  0999 V2000
  126.8385   66.6641   -2.3165 N   0  0  0  0  0  0  0  0  0  0  0  0
  127.7253   67.7245   -2.8808 C   0  0  2  0  0  0  0  0  0  0  0  0
  127.3132   68.0683   -4.2834 C   0  0  0  0  0  0  0  0  0  0  0  0
  126.7140   69.1130   -4.5346 O   0  0  0  0  0  0  0  0  0  0  0  0
  129.1781   67.2564   -2.8748 C   0  0  0  0  0  0  0  0  0  0  0  0
  129.3654   65.8581   -3.4556 C   0  0  0  0  0  0  0  0  0  0  0  0
  129.3116   64.6581   -2.1655 S   0  0  0  0  0  0  0  0  0  0  0  0
  130.9190   64.7988   -1.4529 C   0  0  0  0  0  0  0  0  0  0  0  0
  131.0406   63.9799   -0.1690 C   0  0  1  0  0  0  0  0  0  0  0  0
  131.1894   62.5902   -0.4675 O   0  0  0  0  0  0  0  0  0  0  0  0
  132.2702   64.4086    0.6153 C   0  0  1  0  0  0  0  0  0  0  0  0
  131.9180   64.6470    1.9814 O   0  0  0  0  0  0  0  0  0  0  0  0
  133.2633   63.2664    0.4932 C   0  0  1  0  0  0  0  0  0  0  0  0
  133.7030   62.8159    1.7792 O   0  0  0  0  0  0  0  0  0  0  0  0
  132.5289   62.1422   -0.2279 C   0  0  2  0  0  0  0  0  0  0  0  0
  127.5579   67.3047   -5.2162 O   0  0  0  0  0  0  0  0  0  0  0  0
  133.8769   58.3553   -3.6640 N   0  0  0  0  0  0  0  0  0  0  0  0
  133.2253   58.2575   -2.4877 C   0  0  0  0  0  0  0  0  0  0  0  0
  132.9450   59.3199   -1.7051 N   0  0  0  0  0  0  0  0  0  0  0  0
  133.3134   60.5797   -2.0626 C   0  0  0  0  0  0  0  0  0  0  0  0
  134.0300   60.7642   -3.3368 C   0  0  0  0  0  0  0  0  0  0  0  0
  134.3010   59.5484   -4.1451 C   0  0  0  0  0  0  0  0  0  0  0  0
  134.9568   59.6335   -5.3270 N   0  0  0  0  0  0  0  0  0  0  0  0
  134.2742   62.0802   -3.4585 N   0  0  0  0  0  0  0  0  0  0  0  0
  133.7633   62.6881   -2.3591 C   0  0  0  0  0  0  0  0  0  0  0  0
  133.1899   61.8005   -1.5222 N   0  0  0  0  0  0  0  0  0  0  0  0
  2  1  1  6  0  0  0
  2  3  1  0  0  0  0
  2  5  1  0  0  0  0
  3  4  1  0  0  0  0
  3 16  1  0  0  0  0
  5  6  1  0  0  0  0
  6  7  1  0  0  0  0
  7  8  1  0  0  0  0
  9  8  1  6  0  0  0
  9 10  1  0  0  0  0
  9 11  1  0  0  0  0
 10 15  1  0  0  0  0
 11 12  1  1  0  0  0
 11 13  1  0  0  0  0
 13 14  1  1  0  0  0
 13 15  1  0  0  0  0
 15 26  1  6  0  0  0
 17 18  2  0  0  0  0
 17 22  1  0  0  0  0
 18 19  1  0  0  0  0
 19 20  2  0  0  0  0
 20 21  1  0  0  0  0
 20 26  1  0  0  0  0
 21 22  2  0  0  0  0
 21 24  1  0  0  0  0
 22 23  1  0  0  0  0
 24 25  2  0  0  0  0
 25 26  1  0  0  0  0
M  END
>  <CHROM.1>
105.06486047,48.45337762,-93.13499235,-78.18568807,171.84854602,76.84728209
-97.59451501,131.31448183,63.55225270,-2.09542267,-2.99762252,0.86448689
-1.91116752

>  <Name>
ligand

>  <RI>
0

>  <Rbt.Current_Directory>
/home/itssahil/PROJECTS/Mol_Feturizer/Test_systems_manuscript/rnas/3npn

>  <Rbt.Executable>
rbdock ($Id: //depot/dev/client3/rdock/2013.1/src/exe/rbdock.cxx#4 $)

>  <Rbt.Library>
libRbt.so (2013.1, Build901 2013/11/27)

>  <Rbt.Parameter_File>
/export/apps/rDock/src/rDock_2013.1_src/data/scripts/dock_solv.prm

>  <Rbt.Receptor>
prm/pocket_docking_8.prm

>  <SCORE>
-6.58702

>  <SCORE.INTER>
-8.60065

>  <SCORE.INTER.CONST>
1

>  <SCORE.INTER.POLAR>
0

>  <SCORE.INTER.ROT>
7

>  <SCORE.INTER.SOLV>
15.7472

>  <SCORE.INTER.VDW>
-19.2495

>  <SCORE.INTER.norm>
-0.330794

>  <SCORE.INTRA>
2.01363

>  <SCORE.INTRA.DIHEDRAL>
3.56798

>  <SCORE.INTRA.DIHEDRAL.0>
4.37896

>  <SCORE.INTRA.POLAR>
0

>  <SCORE.INTRA.POLAR.0>
0

>  <SCORE.INTRA.REPUL>
0

>  <SCORE.INTRA.REPUL.0>
0

>  <SCORE.INTRA.SOLV>
0.992966

>  <SCORE.INTRA.SOLV.lig_0>
-50.5538

>  <SCORE.INTRA.VDW>
-0.266843

>  <SCORE.INTRA.VDW.0>
-1.30673

>  <SCORE.INTRA.norm>
0.0774474

>  <SCORE.RESTR>
0

>  <SCORE.RESTR.CAVITY>
0

>  <SCORE.RESTR.norm>
0

>  <SCORE.SYSTEM>
0

>  <SCORE.SYSTEM.CONST>
0

>  <SCORE.SYSTEM.DIHEDRAL>
0

>  <SCORE.SYSTEM.SOLV>
0

>  <SCORE.SYSTEM.norm>
0

>  <SCORE.heavy>
26

>  <SCORE.norm>
-0.253347

>  <RMSD>
3.507

$$$$
ligand
 OpenBabel02271912153D
libRbt.so/2013.1/901 2013/11/27
 26 28  0  0  0  0  0  0  0  0999 V2000
  133.9284   66.7270   -5.2256 N   0  0  0  0  0  0  0  0  0  0  0  0
  132.5201   67.0755   -5.5787 C   0  0  2  0  0  0  0  0  0  0  0  0
  132.1362   68.3985   -4.9808 C   0  0  0  0  0  0  0  0  0  0  0  0
  130.9564   68.7071   -4.8180 O   0  0  0  0  0  0  0  0  0  0  0  0
  131.5670   65.9928   -5.0795 C   0  0  0  0  0  0  0  0  0  0  0  0
  130.2257   65.9860   -5.8064 C   0  0  0  0  0  0  0  0  0  0  0  0
  128.9548   66.5642   -4.7304 S   0  0  0  0  0  0  0  0  0  0  0  0
  129.1057   65.4762   -3.3503 C   0  0  0  0  0  0  0  0  0  0  0  0
  129.4614   66.2328   -2.0717 C   0  0  1  0  0  0  0  0  0  0  0  0
  129.3686   65.3739   -0.9332 O   0  0  0  0  0  0  0  0  0  0  0  0
  130.8926   66.7403   -2.1403 C   0  0  1  0  0  0  0  0  0  0  0  0
  130.9356   68.1261   -1.7865 O   0  0  0  0  0  0  0  0  0  0  0  0
  131.6835   65.8956   -1.1571 C   0  0  1  0  0  0  0  0  0  0  0  0
  132.3868   66.7116   -0.2139 O   0  0  0  0  0  0  0  0  0  0  0  0
  130.6644   65.0244   -0.4320 C   0  0  2  0  0  0  0  0  0  0  0  0
  132.9967   69.2120   -4.6477 O   0  0  0  0  0  0  0  0  0  0  0  0
  128.8317   60.4230   -2.2846 N   0  0  0  0  0  0  0  0  0  0  0  0
  128.2372   61.6324   -2.2445 C   0  0  0  0  0  0  0  0  0  0  0  0
  128.8298   62.7332   -1.7378 N   0  0  0  0  0  0  0  0  0  0  0  0
  130.0885   62.6869   -1.2238 C   0  0  0  0  0  0  0  0  0  0  0  0
  130.8014   61.3973   -1.2337 C   0  0  0  0  0  0  0  0  0  0  0  0
  130.0856   60.2307   -1.8094 C   0  0  0  0  0  0  0  0  0  0  0  0
  130.6712   59.0103   -1.8530 N   0  0  0  0  0  0  0  0  0  0  0  0
  132.0075   61.6156   -0.6825 N   0  0  0  0  0  0  0  0  0  0  0  0
  132.0646   62.9279   -0.3448 C   0  0  0  0  0  0  0  0  0  0  0  0
  130.9245   63.5727   -0.6633 N   0  0  0  0  0  0  0  0  0  0  0  0
  2  1  1  1  0  0  0
  2  3  1  0  0  0  0
  2  5  1  0  0  0  0
  3  4  1  0  0  0  0
  3 16  1  0  0  0  0
  5  6  1  0  0  0  0
  6  7  1  0  0  0  0
  7  8  1  0  0  0  0
  9  8  1  6  0  0  0
  9 10  1  0  0  0  0
  9 11  1  0  0  0  0
 10 15  1  0  0  0  0
 11 12  1  1  0  0  0
 11 13  1  0  0  0  0
 13 14  1  1  0  0  0
 13 15  1  0  0  0  0
 15 26  1  6  0  0  0
 17 18  2  0  0  0  0
 17 22  1  0  0  0  0
 18 19  1  0  0  0  0
 19 20  2  0  0  0  0
 20 21  1  0  0  0  0
 20 26  1  0  0  0  0
 21 22  2  0  0  0  0
 21 24  1  0  0  0  0
 22 23  1  0  0  0  0
 24 25  2  0  0  0  0
 25 26  1  0  0  0  0
M  END
>  <CHROM.1>
-159.39315807,-158.91479543,-109.05835495,-55.64071851,118.02690977,170.70265420
-1.41518999,130.71167037,64.99083463,-2.70261271,-1.20131327,0.99295574,2.38517502

>  <Name>
ligand

>  <RI>
0

>  <Rbt.Current_Directory>
/home/itssahil/PROJECTS/Mol_Feturizer/Test_systems_manuscript/rnas/3npn

>  <Rbt.Executable>
rbdock ($Id: //depot/dev/client3/rdock/2013.1/src/exe/rbdock.cxx#4 $)

>  <Rbt.Library>
libRbt.so (2013.1, Build901 2013/11/27)

>  <Rbt.Parameter_File>
/export/apps/rDock/src/rDock_2013.1_src/data/scripts/dock_solv.prm

>  <Rbt.Receptor>
prm/pocket_docking_5.prm

>  <SCORE>
-20.942

>  <SCORE.INTER>
-23.4098

>  <SCORE.INTER.CONST>
1

>  <SCORE.INTER.POLAR>
0

>  <SCORE.INTER.ROT>
7

>  <SCORE.INTER.SOLV>
13.3805

>  <SCORE.INTER.VDW>
-28.3334

>  <SCORE.INTER.norm>
-0.900378

>  <SCORE.INTRA>
2.46785

>  <SCORE.INTRA.DIHEDRAL>
7.66021

>  <SCORE.INTRA.DIHEDRAL.0>
4.37896

>  <SCORE.INTRA.POLAR>
0

>  <SCORE.INTRA.POLAR.0>
0

>  <SCORE.INTRA.REPUL>
0

>  <SCORE.INTRA.REPUL.0>
0

>  <SCORE.INTRA.SOLV>
-0.0461422

>  <SCORE.INTRA.SOLV.lig_0>
-50.5538

>  <SCORE.INTRA.VDW>
-1.33918

>  <SCORE.INTRA.VDW.0>
-1.30673

>  <SCORE.INTRA.norm>
0.0949173

>  <SCORE.RESTR>
0

>  <SCORE.RESTR.CAVITY>
0

>  <SCORE.RESTR.norm>
0

>  <SCORE.SYSTEM>
0

>  <SCORE.SYSTEM.CONST>
0

>  <SCORE.SYSTEM.DIHEDRAL>
0

>  <SCORE.SYSTEM.SOLV>
0

>  <SCORE.SYSTEM.norm>
0

>  <SCORE.heavy>
26

>  <SCORE.norm>
-0.805461

>  <RMSD>
3.554

$$$$
ligand
 OpenBabel02271912153D
libRbt.so/2013.1/901 2013/11/27
 26 28  0  0  0  0  0  0  0  0999 V2000
  128.8957   71.3674   -4.4686 N   0  0  0  0  0  0  0  0  0  0  0  0
  130.0179   71.0434   -3.5386 C   0  0  2  0  0  0  0  0  0  0  0  0
  131.0394   70.1803   -4.2218 C   0  0  0  0  0  0  0  0  0  0  0  0
  130.7675   69.0376   -4.5879 O   0  0  0  0  0  0  0  0  0  0  0  0
  129.4875   70.3253   -2.3005 C   0  0  0  0  0  0  0  0  0  0  0  0
  130.5780   69.9663   -1.2959 C   0  0  0  0  0  0  0  0  0  0  0  0
  131.3658   68.4635   -1.7737 S   0  0  0  0  0  0  0  0  0  0  0  0
  132.8609   68.5082   -0.8390 C   0  0  0  0  0  0  0  0  0  0  0  0
  134.0002   67.7922   -1.5623 C   0  0  1  0  0  0  0  0  0  0  0  0
  133.8506   66.3744   -1.4629 O   0  0  0  0  0  0  0  0  0  0  0  0
  133.9906   68.1458   -3.0408 C   0  0  1  0  0  0  0  0  0  0  0  0
  135.3026   68.5364   -3.4568 O   0  0  0  0  0  0  0  0  0  0  0  0
  133.5318   66.8938   -3.7672 C   0  0  1  0  0  0  0  0  0  0  0  0
  134.4639   66.5072   -4.7830 O   0  0  0  0  0  0  0  0  0  0  0  0
  133.4347   65.8016   -2.7085 C   0  0  2  0  0  0  0  0  0  0  0  0
  132.1801   70.5946   -4.4230 O   0  0  0  0  0  0  0  0  0  0  0  0
  130.2751   61.9212   -0.9986 N   0  0  0  0  0  0  0  0  0  0  0  0
  131.6158   62.0383   -0.9164 C   0  0  0  0  0  0  0  0  0  0  0  0
  132.2985   63.0960   -1.4011 N   0  0  0  0  0  0  0  0  0  0  0  0
  131.6614   64.1282   -2.0172 C   0  0  0  0  0  0  0  0  0  0  0  0
  130.1945   64.0695   -2.1439 C   0  0  0  0  0  0  0  0  0  0  0  0
  129.5124   62.8750   -1.5845 C   0  0  0  0  0  0  0  0  0  0  0  0
  128.1666   62.7448   -1.6633 N   0  0  0  0  0  0  0  0  0  0  0  0
  129.8138   65.1924   -2.7765 N   0  0  0  0  0  0  0  0  0  0  0  0
  130.9358   65.9085   -3.0368 C   0  0  0  0  0  0  0  0  0  0  0  0
  132.0409   65.2804   -2.5882 N   0  0  0  0  0  0  0  0  0  0  0  0
  2  1  1  6  0  0  0
  2  3  1  0  0  0  0
  2  5  1  0  0  0  0
  3  4  1  0  0  0  0
  3 16  1  0  0  0  0
  5  6  1  0  0  0  0
  6  7  1  0  0  0  0
  7  8  1  0  0  0  0
  9  8  1  1  0  0  0
  9 10  1  0  0  0  0
  9 11  1  0  0  0  0
 10 15  1  0  0  0  0
 11 12  1  6  0  0  0
 11 13  1  0  0  0  0
 13 14  1  6  0  0  0
 13 15  1  0  0  0  0
 15 26  1  1  0  0  0
 17 18  2  0  0  0  0
 17 22  1  0  0  0  0
 18 19  1  0  0  0  0
 19 20  2  0  0  0  0
 20 21  1  0  0  0  0
 20 26  1  0  0  0  0
 21 22  2  0  0  0  0
 21 24  1  0  0  0  0
 22 23  1  0  0  0  0
 24 25  2  0  0  0  0
 25 26  1  0  0  0  0
M  END
>  <CHROM.1>
-65.41353483,-179.70333023,-82.70846241,162.56580595,-149.50789573,-76.17277104
-78.63377558,131.66588294,66.96435649,-2.58602237,1.48603285,0.07493937,-0.24948164

>  <Name>
ligand

>  <RI>
0

>  <Rbt.Current_Directory>
/home/itssahil/PROJECTS/Mol_Feturizer/Test_systems_manuscript/rnas/3npn

>  <Rbt.Executable>
rbdock ($Id: //depot/dev/client3/rdock/2013.1/src/exe/rbdock.cxx#4 $)

>  <Rbt.Library>
libRbt.so (2013.1, Build901 2013/11/27)

>  <Rbt.Parameter_File>
/export/apps/rDock/src/rDock_2013.1_src/data/scripts/dock_solv.prm

>  <Rbt.Receptor>
prm/pocket_docking_7.prm

>  <SCORE>
1.74391

>  <SCORE.INTER>
1.28849

>  <SCORE.INTER.CONST>
1

>  <SCORE.INTER.POLAR>
0

>  <SCORE.INTER.ROT>
7

>  <SCORE.INTER.SOLV>
20.1391

>  <SCORE.INTER.VDW>
-14.1207

>  <SCORE.INTER.norm>
0.0495574

>  <SCORE.INTRA>
0.455419

>  <SCORE.INTRA.DIHEDRAL>
2.58218

>  <SCORE.INTRA.DIHEDRAL.0>
4.37896

>  <SCORE.INTRA.POLAR>
0

>  <SCORE.INTRA.POLAR.0>
0

>  <SCORE.INTRA.REPUL>
0

>  <SCORE.INTRA.REPUL.0>
0

>  <SCORE.INTRA.SOLV>
-0.350958

>  <SCORE.INTRA.SOLV.lig_0>
-50.5538

>  <SCORE.INTRA.VDW>
-0.660194

>  <SCORE.INTRA.VDW.0>
-1.30673

>  <SCORE.INTRA.norm>
0.0175161

>  <SCORE.RESTR>
0

>  <SCORE.RESTR.CAVITY>
0

>  <SCORE.RESTR.norm>
0

>  <SCORE.SYSTEM>
0

>  <SCORE.SYSTEM.CONST>
0

>  <SCORE.SYSTEM.DIHEDRAL>
0

>  <SCORE.SYSTEM.SOLV>
0

>  <SCORE.SYSTEM.norm>
0

>  <SCORE.heavy>
26

>  <SCORE.norm>
0.0670735

>  <RMSD>
3.613

$$$$
ligand
 OpenBabel02271912153D
libRbt.so/2013.1/901 2013/11/27
 26 28  0  0  0  0  0  0  0  0999 V2000
  132.6852   67.8161   -6.0357 N   0  0  0  0  0  0  0  0  0  0  0  0
  132.4570   66.9099   -4.8712 C   0  0  2  0  0  0  0  0  0  0  0  0
  133.7648   66.4469   -4.2964 C   0  0  0  0  0  0  0  0  0  0  0  0
  134.7139   66.1553   -5.0230 O   0  0  0  0  0  0  0  0  0  0  0  0
  131.6289   65.7006   -5.2972 C   0  0  0  0  0  0  0  0  0  0  0  0
  130.2452   66.0700   -5.8229 C   0  0  0  0  0  0  0  0  0  0  0  0
  129.3380   66.9286   -4.5790 S   0  0  0  0  0  0  0  0  0  0  0  0
  128.8876   65.6280   -3.4759 C   0  0  0  0  0  0  0  0  0  0  0  0
  129.4566   65.8531   -2.0762 C   0  0  1  0  0  0  0  0  0  0  0  0
  128.9499   64.8788   -1.1615 O   0  0  0  0  0  0  0  0  0  0  0  0
  130.9702   65.7135   -2.0936 C   0  0  1  0  0  0  0  0  0  0  0  0
  131.5703   66.8326   -1.4345 O   0  0  0  0  0  0  0  0  0  0  0  0
  131.2789   64.4158   -1.3681 C   0  0  1  0  0  0  0  0  0  0  0  0
  132.2064   64.6232   -0.2971 O   0  0  0  0  0  0  0  0  0  0  0  0
  129.9504   63.9137   -0.8149 C   0  0  2  0  0  0  0  0  0  0  0  0
  133.9145   66.3384   -3.0802 O   0  0  0  0  0  0  0  0  0  0  0  0
  131.4022   58.8960   -1.6387 N   0  0  0  0  0  0  0  0  0  0  0  0
  132.0709   59.8963   -1.0305 C   0  0  0  0  0  0  0  0  0  0  0  0
  131.5731   61.1421   -0.8891 N   0  0  0  0  0  0  0  0  0  0  0  0
  130.3415   61.4708   -1.3643 C   0  0  0  0  0  0  0  0  0  0  0  0
  129.5514   60.4275   -2.0415 C   0  0  0  0  0  0  0  0  0  0  0  0
  130.1645   59.0801   -2.1575 C   0  0  0  0  0  0  0  0  0  0  0  0
  129.5038   58.0679   -2.7685 N   0  0  0  0  0  0  0  0  0  0  0  0
  128.3903   60.9961   -2.4086 N   0  0  0  0  0  0  0  0  0  0  0  0
  128.4307   62.2907   -2.0065 C   0  0  0  0  0  0  0  0  0  0  0  0
  129.5906   62.5814   -1.3843 N   0  0  0  0  0  0  0  0  0  0  0  0
  2  1  1  6  0  0  0
  2  3  1  0  0  0  0
  2  5  1  0  0  0  0
  3  4  1  0  0  0  0
  3 16  1  0  0  0  0
  5  6  1  0  0  0  0
  6  7  1  0  0  0  0
  7  8  1  0  0  0  0
  9  8  1  6  0  0  0
  9 10  1  0  0  0  0
  9 11  1  0  0  0  0
 10 15  1  0  0  0  0
 11 12  1  1  0  0  0
 11 13  1  0  0  0  0
 13 14  1  1  0  0  0
 13 15  1  0  0  0  0
 15 26  1  6  0  0  0
 17 18  2  0  0  0  0
 17 22  1  0  0  0  0
 18 19  1  0  0  0  0
 19 20  2  0  0  0  0
 20 21  1  0  0  0  0
 20 26  1  0  0  0  0
 21 22  2  0  0  0  0
 21 24  1  0  0  0  0
 22 23  1  0  0  0  0
 24 25  2  0  0  0  0
 25 26  1  0  0  0  0
M  END
>  <CHROM.1>
-39.46908634,-61.24799940,-59.41503381,-75.14662445,119.54858598,173.02447488
173.84159822,130.85435397,64.06276317,-2.77177172,-1.32547081,-0.10088900
2.77405002

>  <Name>
ligand

>  <RI>
0

>  <Rbt.Current_Directory>
/home/itssahil/PROJECTS/Mol_Feturizer/Test_systems_manuscript/rnas/3npn

>  <Rbt.Executable>
rbdock ($Id: //depot/dev/client3/rdock/2013.1/src/exe/rbdock.cxx#4 $)

>  <Rbt.Library>
libRbt.so (2013.1, Build901 2013/11/27)

>  <Rbt.Parameter_File>
/export/apps/rDock/src/rDock_2013.1_src/data/scripts/dock_solv.prm

>  <Rbt.Receptor>
prm/pocket_docking_6.prm

>  <SCORE>
-22.716

>  <SCORE.INTER>
-21.7114

>  <SCORE.INTER.CONST>
1

>  <SCORE.INTER.POLAR>
0

>  <SCORE.INTER.ROT>
7

>  <SCORE.INTER.SOLV>
22.5432

>  <SCORE.INTER.VDW>
-30.2553

>  <SCORE.INTER.norm>
-0.835055

>  <SCORE.INTRA>
-1.00458

>  <SCORE.INTRA.DIHEDRAL>
1.19108

>  <SCORE.INTRA.DIHEDRAL.0>
4.37896

>  <SCORE.INTRA.POLAR>
0

>  <SCORE.INTRA.POLAR.0>
0

>  <SCORE.INTRA.REPUL>
0

>  <SCORE.INTRA.REPUL.0>
0

>  <SCORE.INTRA.SOLV>
1.14652

>  <SCORE.INTRA.SOLV.lig_0>
-50.5538

>  <SCORE.INTRA.VDW>
-2.17338

>  <SCORE.INTRA.VDW.0>
-1.30673

>  <SCORE.INTRA.norm>
-0.0386376

>  <SCORE.RESTR>
0

>  <SCORE.RESTR.CAVITY>
0

>  <SCORE.RESTR.norm>
0

>  <SCORE.SYSTEM>
0

>  <SCORE.SYSTEM.CONST>
0

>  <SCORE.SYSTEM.DIHEDRAL>
0

>  <SCORE.SYSTEM.SOLV>
0

>  <SCORE.SYSTEM.norm>
0

>  <SCORE.heavy>
26

>  <SCORE.norm>
-0.873693

>  <RMSD>
3.725

$$$$
ligand
 OpenBabel02271912153D
libRbt.so/2013.1/901 2013/11/27
 26 28  0  0  0  0  0  0  0  0999 V2000
  129.7828   66.1421   -4.7091 N   0  0  0  0  0  0  0  0  0  0  0  0
  130.8238   67.1811   -4.9667 C   0  0  2  0  0  0  0  0  0  0  0  0
  131.9505   66.6115   -5.7800 C   0  0  0  0  0  0  0  0  0  0  0  0
  132.8428   67.3313   -6.2263 O   0  0  0  0  0  0  0  0  0  0  0  0
  131.3679   67.7222   -3.6473 C   0  0  0  0  0  0  0  0  0  0  0  0
  132.3772   66.7913   -2.9822 C   0  0  0  0  0  0  0  0  0  0  0  0
  131.6326   65.2260   -2.6619 S   0  0  0  0  0  0  0  0  0  0  0  0
  133.0298   64.2101   -2.3055 C   0  0  0  0  0  0  0  0  0  0  0  0
  133.3217   64.1578   -0.8069 C   0  0  1  0  0  0  0  0  0  0  0  0
  132.2889   63.4530   -0.1147 O   0  0  0  0  0  0  0  0  0  0  0  0
  134.6250   63.4190   -0.5491 C   0  0  1  0  0  0  0  0  0  0  0  0
  135.4550   64.1869    0.3276 O   0  0  0  0  0  0  0  0  0  0  0  0
  134.2366   62.0929    0.0803 C   0  0  1  0  0  0  0  0  0  0  0  0
  134.9139   61.8863    1.3249 O   0  0  0  0  0  0  0  0  0  0  0  0
  132.7317   62.1592    0.3127 C   0  0  2  0  0  0  0  0  0  0  0  0
  132.0017   65.4077   -6.0280 O   0  0  0  0  0  0  0  0  0  0  0  0
  128.4381   60.8225   -2.4699 N   0  0  0  0  0  0  0  0  0  0  0  0
  128.7490   61.9925   -1.8765 C   0  0  0  0  0  0  0  0  0  0  0  0
  129.8933   62.1952   -1.1915 N   0  0  0  0  0  0  0  0  0  0  0  0
  130.8203   61.2092   -1.0536 C   0  0  0  0  0  0  0  0  0  0  0  0
  130.5489   59.9015   -1.6762 C   0  0  0  0  0  0  0  0  0  0  0  0
  129.2695   59.7544   -2.4154 C   0  0  0  0  0  0  0  0  0  0  0  0
  128.9450   58.5834   -3.0135 N   0  0  0  0  0  0  0  0  0  0  0  0
  131.6029   59.1141   -1.4018 N   0  0  0  0  0  0  0  0  0  0  0  0
  132.4736   59.8483   -0.6656 C   0  0  0  0  0  0  0  0  0  0  0  0
  132.0139   61.0976   -0.4531 N   0  0  0  0  0  0  0  0  0  0  0  0
  2  1  1  1  0  0  0
  2  3  1  0  0  0  0
  2  5  1  0  0  0  0
  3  4  1  0  0  0  0
  3 16  1  0  0  0  0
  5  6  1  0  0  0  0
  6  7  1  0  0  0  0
  7  8  1  0  0  0  0
  9  8  1  6  0  0  0
  9 10  1  0  0  0  0
  9 11  1  0  0  0  0
 10 15  1  0  0  0  0
 11 12  1  1  0  0  0
 11 13  1  0  0  0  0
 13 14  1  1  0  0  0
 13 15  1  0  0  0  0
 15 26  1  6  0  0  0
 17 18  2  0  0  0  0
 17 22  1  0  0  0  0
 18 19  1  0  0  0  0
 19 20  2  0  0  0  0
 20 21  1  0  0  0  0
 20 26  1  0  0  0  0
 21 22  2  0  0  0  0
 21 24  1  0  0  0  0
 22 23  1  0  0  0  0
 24 25  2  0  0  0  0
 25 26  1  0  0  0  0
M  END
>  <CHROM.1>
172.11594124,78.22661821,-59.04996299,165.92160884,93.09740884,68.31118315
-24.05542890,131.83181511,63.34959163,-2.14878251,1.52228991,-0.63777281
-0.58913644

>  <Name>
ligand

>  <RI>
0

>  <Rbt.Current_Directory>
/home/itssahil/PROJECTS/Mol_Feturizer/Test_systems_manuscript/rnas/3npn

>  <Rbt.Executable>
rbdock ($Id: //depot/dev/client3/rdock/2013.1/src/exe/rbdock.cxx#4 $)

>  <Rbt.Library>
libRbt.so (2013.1, Build901 2013/11/27)

>  <Rbt.Parameter_File>
/export/apps/rDock/src/rDock_2013.1_src/data/scripts/dock_solv.prm

>  <Rbt.Receptor>
prm/pocket_docking_6.prm

>  <SCORE>
-13.3644

>  <SCORE.INTER>
-14.2476

>  <SCORE.INTER.CONST>
1

>  <SCORE.INTER.POLAR>
0

>  <SCORE.INTER.ROT>
7

>  <SCORE.INTER.SOLV>
20.2763

>  <SCORE.INTER.VDW>
-24.5238

>  <SCORE.INTER.norm>
-0.547984

>  <SCORE.INTRA>
0.883182

>  <SCORE.INTRA.DIHEDRAL>
1.47839

>  <SCORE.INTRA.DIHEDRAL.0>
4.37896

>  <SCORE.INTRA.POLAR>
0

>  <SCORE.INTRA.POLAR.0>
0

>  <SCORE.INTRA.REPUL>
0

>  <SCORE.INTRA.REPUL.0>
0

>  <SCORE.INTRA.SOLV>
1.29606

>  <SCORE.INTRA.SOLV.lig_0>
-50.5538

>  <SCORE.INTRA.VDW>
-0.504043

>  <SCORE.INTRA.VDW.0>
-1.30673

>  <SCORE.INTRA.norm>
0.0339685

>  <SCORE.RESTR>
0

>  <SCORE.RESTR.CAVITY>
0

>  <SCORE.RESTR.norm>
0

>  <SCORE.SYSTEM>
0

>  <SCORE.SYSTEM.CONST>
0

>  <SCORE.SYSTEM.DIHEDRAL>
0

>  <SCORE.SYSTEM.SOLV>
0

>  <SCORE.SYSTEM.norm>
0

>  <SCORE.heavy>
26

>  <SCORE.norm>
-0.514016

>  <RMSD>
4.087

$$$$
ligand
 OpenBabel02271912153D
libRbt.so/2013.1/901 2013/11/27
 26 28  0  0  0  0  0  0  0  0999 V2000
  126.3143   67.7356   -3.8130 N   0  0  0  0  0  0  0  0  0  0  0  0
  126.5849   68.5263   -2.5758 C   0  0  2  0  0  0  0  0  0  0  0  0
  126.4215   69.9956   -2.8400 C   0  0  0  0  0  0  0  0  0  0  0  0
  125.7392   70.7049   -2.1018 O   0  0  0  0  0  0  0  0  0  0  0  0
  127.9992   68.2515   -2.0719 C   0  0  0  0  0  0  0  0  0  0  0  0
  128.2511   66.7820   -1.7483 C   0  0  0  0  0  0  0  0  0  0  0  0
  129.9270   66.5534   -1.2520 S   0  0  0  0  0  0  0  0  0  0  0  0
  129.9185   64.8958   -0.6490 C   0  0  0  0  0  0  0  0  0  0  0  0
  129.9549   63.8803   -1.7897 C   0  0  1  0  0  0  0  0  0  0  0  0
  131.2998   63.4936   -2.0799 O   0  0  0  0  0  0  0  0  0  0  0  0
  129.1962   62.6221   -1.3998 C   0  0  1  0  0  0  0  0  0  0  0  0
  128.2804   62.2637   -2.4391 O   0  0  0  0  0  0  0  0  0  0  0  0
  130.2478   61.5458   -1.1963 C   0  0  1  0  0  0  0  0  0  0  0  0
  129.9719   60.3878   -1.9921 O   0  0  0  0  0  0  0  0  0  0  0  0
  131.5744   62.1642   -1.6217 C   0  0  2  0  0  0  0  0  0  0  0  0
  126.9607   70.5241   -3.8111 O   0  0  0  0  0  0  0  0  0  0  0  0
  135.1372   59.5449    1.2783 N   0  0  0  0  0  0  0  0  0  0  0  0
  134.3923   59.1178    0.2388 C   0  0  0  0  0  0  0  0  0  0  0  0
  133.5130   59.9042   -0.4155 N   0  0  0  0  0  0  0  0  0  0  0  0
  133.3194   61.2019   -0.0560 C   0  0  0  0  0  0  0  0  0  0  0  0
  134.0996   61.7391    1.0728 C   0  0  0  0  0  0  0  0  0  0  0  0
  135.0491   60.8144    1.7424 C   0  0  0  0  0  0  0  0  0  0  0  0
  135.8008   61.2309    2.7891 N   0  0  0  0  0  0  0  0  0  0  0  0
  133.7324   63.0232    1.2229 N   0  0  0  0  0  0  0  0  0  0  0  0
  132.7970   63.2880    0.2773 C   0  0  0  0  0  0  0  0  0  0  0  0
  132.5448   62.2074   -0.4881 N   0  0  0  0  0  0  0  0  0  0  0  0
  2  1  1  6  0  0  0
  2  3  1  0  0  0  0
  2  5  1  0  0  0  0
  3  4  1  0  0  0  0
  3 16  1  0  0  0  0
  5  6  1  0  0  0  0
  6  7  1  0  0  0  0
  7  8  1  0  0  0  0
  9  8  1  1  0  0  0
  9 10  1  0  0  0  0
  9 11  1  0  0  0  0
 10 15  1  0  0  0  0
 11 12  1  6  0  0  0
 11 13  1  0  0  0  0
 13 14  1  6  0  0  0
 13 15  1  0  0  0  0
 15 26  1  1  0  0  0
 17 18  2  0  0  0  0
 17 22  1  0  0  0  0
 18 19  1  0  0  0  0
 19 20  2  0  0  0  0
 20 21  1  0  0  0  0
 20 26  1  0  0  0  0
 21 22  2  0  0  0  0
 21 24  1  0  0  0  0
 22 23  1  0  0  0  0
 24 25  2  0  0  0  0
 25 26  1  0  0  0  0
M  END
>  <CHROM.1>
130.45938528,-59.15422247,177.24468679,169.89445518,78.55225465,93.27458800
-159.56232094,130.58612705,64.14764991,-1.06594361,2.42798705,-0.61022181
0.19834773

>  <Name>
ligand

>  <RI>
0

>  <Rbt.Current_Directory>
/home/itssahil/PROJECTS/Mol_Feturizer/Test_systems_manuscript/rnas/3npn

>  <Rbt.Executable>
rbdock ($Id: //depot/dev/client3/rdock/2013.1/src/exe/rbdock.cxx#4 $)

>  <Rbt.Library>
libRbt.so (2013.1, Build901 2013/11/27)

>  <Rbt.Parameter_File>
/export/apps/rDock/src/rDock_2013.1_src/data/scripts/dock_solv.prm

>  <Rbt.Receptor>
prm/pocket_docking_8.prm

>  <SCORE>
-18.0317

>  <SCORE.INTER>
-17.8354

>  <SCORE.INTER.CONST>
1

>  <SCORE.INTER.POLAR>
0

>  <SCORE.INTER.ROT>
7

>  <SCORE.INTER.SOLV>
19.2923

>  <SCORE.INTER.VDW>
-26.5877

>  <SCORE.INTER.norm>
-0.685975

>  <SCORE.INTRA>
-0.196299

>  <SCORE.INTRA.DIHEDRAL>
2.113

>  <SCORE.INTRA.DIHEDRAL.0>
4.37896

>  <SCORE.INTRA.POLAR>
0

>  <SCORE.INTRA.POLAR.0>
0

>  <SCORE.INTRA.REPUL>
0

>  <SCORE.INTRA.REPUL.0>
0

>  <SCORE.INTRA.SOLV>
-0.266917

>  <SCORE.INTRA.SOLV.lig_0>
-50.5538

>  <SCORE.INTRA.VDW>
-1.11934

>  <SCORE.INTRA.VDW.0>
-1.30673

>  <SCORE.INTRA.norm>
-0.00754996

>  <SCORE.RESTR>
0

>  <SCORE.RESTR.CAVITY>
0

>  <SCORE.RESTR.norm>
0

>  <SCORE.SYSTEM>
0

>  <SCORE.SYSTEM.CONST>
0

>  <SCORE.SYSTEM.DIHEDRAL>
0

>  <SCORE.SYSTEM.SOLV>
0

>  <SCORE.SYSTEM.norm>
0

>  <SCORE.heavy>
26

>  <SCORE.norm>
-0.693525

>  <RMSD>
4.090

$$$$
ligand
 OpenBabel02271912153D
libRbt.so/2013.1/901 2013/11/27
 26 28  0  0  0  0  0  0  0  0999 V2000
  132.7224   67.9710   -5.9032 N   0  0  0  0  0  0  0  0  0  0  0  0
  132.2337   66.5605   -5.8693 C   0  0  2  0  0  0  0  0  0  0  0  0
  130.7449   66.5204   -5.6766 C   0  0  0  0  0  0  0  0  0  0  0  0
  130.2034   67.1351   -4.7587 O   0  0  0  0  0  0  0  0  0  0  0  0
  132.9164   65.7919   -4.7411 C   0  0  0  0  0  0  0  0  0  0  0  0
  134.3371   65.3526   -5.0819 C   0  0  0  0  0  0  0  0  0  0  0  0
  135.1409   64.7405   -3.6374 S   0  0  0  0  0  0  0  0  0  0  0  0
  133.9350   63.6375   -2.9740 C   0  0  0  0  0  0  0  0  0  0  0  0
  133.0434   64.3293   -1.9444 C   0  0  1  0  0  0  0  0  0  0  0  0
  131.7965   63.6435   -1.8127 O   0  0  0  0  0  0  0  0  0  0  0  0
  133.7109   64.3211   -0.5787 C   0  0  1  0  0  0  0  0  0  0  0  0
  133.6822   65.6357   -0.0144 O   0  0  0  0  0  0  0  0  0  0  0  0
  132.9190   63.3404    0.2680 C   0  0  1  0  0  0  0  0  0  0  0  0
  132.4681   63.9452    1.4850 O   0  0  0  0  0  0  0  0  0  0  0  0
  131.7225   62.9208   -0.5779 C   0  0  2  0  0  0  0  0  0  0  0  0
  130.0304   65.8606   -6.4298 O   0  0  0  0  0  0  0  0  0  0  0  0
  129.1367   58.7470   -2.5419 N   0  0  0  0  0  0  0  0  0  0  0  0
  128.7565   60.0385   -2.4693 C   0  0  0  0  0  0  0  0  0  0  0  0
  129.5270   61.0091   -1.9364 N   0  0  0  0  0  0  0  0  0  0  0  0
  130.7586   60.7363   -1.4273 C   0  0  0  0  0  0  0  0  0  0  0  0
  131.2418   59.3450   -1.4721 C   0  0  0  0  0  0  0  0  0  0  0  0
  130.3389   58.3321   -2.0753 C   0  0  0  0  0  0  0  0  0  0  0  0
  130.7085   57.0315   -2.1516 N   0  0  0  0  0  0  0  0  0  0  0  0
  132.4667   59.3408   -0.9189 N   0  0  0  0  0  0  0  0  0  0  0  0
  132.7456   60.6152   -0.5481 C   0  0  0  0  0  0  0  0  0  0  0  0
  131.7323   61.4524   -0.8468 N   0  0  0  0  0  0  0  0  0  0  0  0
  2  1  1  1  0  0  0
  2  3  1  0  0  0  0
  2  5  1  0  0  0  0
  3  4  1  0  0  0  0
  3 16  1  0  0  0  0
  5  6  1  0  0  0  0
  6  7  1  0  0  0  0
  7  8  1  0  0  0  0
  9  8  1  6  0  0  0
  9 10  1  0  0  0  0
  9 11  1  0  0  0  0
 10 15  1  0  0  0  0
 11 12  1  1  0  0  0
 11 13  1  0  0  0  0
 13 14  1  1  0  0  0
 13 15  1  0  0  0  0
 15 26  1  6  0  0  0
 17 18  2  0  0  0  0
 17 22  1  0  0  0  0
 18 19  1  0  0  0  0
 19 20  2  0  0  0  0
 20 21  1  0  0  0  0
 20 26  1  0  0  0  0
 21 22  2  0  0  0  0
 21 24  1  0  0  0  0
 22 23  1  0  0  0  0
 24 25  2  0  0  0  0
 25 26  1  0  0  0  0
M  END
>  <CHROM.1>
-51.87271577,-78.27558502,169.75738682,48.06616923,-93.15877587,157.08304030
-68.98487428,132.06031984,63.20578098,-2.55330056,1.23165388,-0.79769832
-0.70948863

>  <Name>
ligand

>  <RI>
0

>  <Rbt.Current_Directory>
/home/itssahil/PROJECTS/Mol_Feturizer/Test_systems_manuscript/rnas/3npn

>  <Rbt.Executable>
rbdock ($Id: //depot/dev/client3/rdock/2013.1/src/exe/rbdock.cxx#4 $)

>  <Rbt.Library>
libRbt.so (2013.1, Build901 2013/11/27)

>  <Rbt.Parameter_File>
/export/apps/rDock/src/rDock_2013.1_src/data/scripts/dock_solv.prm

>  <Rbt.Receptor>
prm/pocket_docking_5.prm

>  <SCORE>
-14.5435

>  <SCORE.INTER>
-16.3055

>  <SCORE.INTER.CONST>
1

>  <SCORE.INTER.POLAR>
0

>  <SCORE.INTER.ROT>
7

>  <SCORE.INTER.SOLV>
16.8885

>  <SCORE.INTER.VDW>
-24.7665

>  <SCORE.INTER.norm>
-0.627136

>  <SCORE.INTRA>
1.762

>  <SCORE.INTRA.DIHEDRAL>
3.2025

>  <SCORE.INTRA.DIHEDRAL.0>
4.37896

>  <SCORE.INTRA.POLAR>
0

>  <SCORE.INTRA.POLAR.0>
0

>  <SCORE.INTRA.REPUL>
0

>  <SCORE.INTRA.REPUL.0>
0

>  <SCORE.INTRA.SOLV>
-0.28074

>  <SCORE.INTRA.SOLV.lig_0>
-50.5538

>  <SCORE.INTRA.VDW>
0.301122

>  <SCORE.INTRA.VDW.0>
-1.30673

>  <SCORE.INTRA.norm>
0.0677693

>  <SCORE.RESTR>
0

>  <SCORE.RESTR.CAVITY>
0

>  <SCORE.RESTR.norm>
0

>  <SCORE.SYSTEM>
0

>  <SCORE.SYSTEM.CONST>
0

>  <SCORE.SYSTEM.DIHEDRAL>
0

>  <SCORE.SYSTEM.SOLV>
0

>  <SCORE.SYSTEM.norm>
0

>  <SCORE.heavy>
26

>  <SCORE.norm>
-0.559367

>  <RMSD>
4.175

$$$$
ligand
 OpenBabel02271912153D
libRbt.so/2013.1/901 2013/11/27
 26 28  0  0  0  0  0  0  0  0999 V2000
  125.7277   69.0973   -2.4337 N   0  0  0  0  0  0  0  0  0  0  0  0
  127.0541   69.5112   -2.9803 C   0  0  2  0  0  0  0  0  0  0  0  0
  127.0167   70.9423   -3.4339 C   0  0  0  0  0  0  0  0  0  0  0  0
  125.9496   71.5193   -3.6387 O   0  0  0  0  0  0  0  0  0  0  0  0
  127.4464   68.6138   -4.1510 C   0  0  0  0  0  0  0  0  0  0  0  0
  127.7349   67.1735   -3.7388 C   0  0  0  0  0  0  0  0  0  0  0  0
  128.9185   67.1466   -2.4327 S   0  0  0  0  0  0  0  0  0  0  0  0
  128.5224   65.6451   -1.5963 C   0  0  0  0  0  0  0  0  0  0  0  0
  129.0633   64.4253   -2.3401 C   0  0  1  0  0  0  0  0  0  0  0  0
  130.4853   64.4981   -2.4642 O   0  0  0  0  0  0  0  0  0  0  0  0
  128.7405   63.1537   -1.5723 C   0  0  1  0  0  0  0  0  0  0  0  0
  128.1565   62.1883   -2.4522 O   0  0  0  0  0  0  0  0  0  0  0  0
  130.0608   62.6586   -1.0090 C   0  0  1  0  0  0  0  0  0  0  0  0
  130.3138   61.3005   -1.3857 O   0  0  0  0  0  0  0  0  0  0  0  0
  131.1368   63.5680   -1.5907 C   0  0  2  0  0  0  0  0  0  0  0  0
  128.0576   71.5704   -3.6215 O   0  0  0  0  0  0  0  0  0  0  0  0
  134.4268   63.2887    2.5399 N   0  0  0  0  0  0  0  0  0  0  0  0
  133.9503   62.3043    1.7514 C   0  0  0  0  0  0  0  0  0  0  0  0
  133.1081   62.5226    0.7205 N   0  0  0  0  0  0  0  0  0  0  0  0
  132.6783   63.7755    0.4102 C   0  0  0  0  0  0  0  0  0  0  0  0
  133.1579   64.9027    1.2291 C   0  0  0  0  0  0  0  0  0  0  0  0
  134.0842   64.5847    2.3452 C   0  0  0  0  0  0  0  0  0  0  0  0
  134.5676   65.5644    3.1456 N   0  0  0  0  0  0  0  0  0  0  0  0
  132.5994   66.0157    0.7237 N   0  0  0  0  0  0  0  0  0  0  0  0
  131.8266   65.6382   -0.3250 C   0  0  0  0  0  0  0  0  0  0  0  0
  131.8676   64.3047   -0.5175 N   0  0  0  0  0  0  0  0  0  0  0  0
  2  1  1  6  0  0  0
  2  3  1  0  0  0  0
  2  5  1  0  0  0  0
  3  4  1  0  0  0  0
  3 16  1  0  0  0  0
  5  6  1  0  0  0  0
  6  7  1  0  0  0  0
  7  8  1  0  0  0  0
  9  8  1  1  0  0  0
  9 10  1  0  0  0  0
  9 11  1  0  0  0  0
 10 15  1  0  0  0  0
 11 12  1  6  0  0  0
 11 13  1  0  0  0  0
 13 14  1  6  0  0  0
 13 15  1  0  0  0  0
 15 26  1  1  0  0  0
 17 18  2  0  0  0  0
 17 22  1  0  0  0  0
 18 19  1  0  0  0  0
 19 20  2  0  0  0  0
 20 21  1  0  0  0  0
 20 26  1  0  0  0  0
 21 22  2  0  0  0  0
 21 24  1  0  0  0  0
 22 23  1  0  0  0  0
 24 25  2  0  0  0  0
 25 26  1  0  0  0  0
M  END
>  <CHROM.1>
-17.60662808,-67.48778999,-52.75917297,152.76256680,77.94152682,59.68796939
-174.08097454,130.10127931,65.72271017,-1.25047889,2.48407400,-0.68020236
0.06471125

>  <Name>
ligand

>  <RI>
0

>  <Rbt.Current_Directory>
/home/itssahil/PROJECTS/Mol_Feturizer/Test_systems_manuscript/rnas/3npn

>  <Rbt.Executable>
rbdock ($Id: //depot/dev/client3/rdock/2013.1/src/exe/rbdock.cxx#4 $)

>  <Rbt.Library>
libRbt.so (2013.1, Build901 2013/11/27)

>  <Rbt.Parameter_File>
/export/apps/rDock/src/rDock_2013.1_src/data/scripts/dock_solv.prm

>  <Rbt.Receptor>
prm/pocket_docking_8.prm

>  <SCORE>
-18.2589

>  <SCORE.INTER>
-17.7064

>  <SCORE.INTER.CONST>
1

>  <SCORE.INTER.POLAR>
0

>  <SCORE.INTER.ROT>
7

>  <SCORE.INTER.SOLV>
16.2766

>  <SCORE.INTER.VDW>
-25.4965

>  <SCORE.INTER.norm>
-0.681014

>  <SCORE.INTRA>
-0.552488

>  <SCORE.INTRA.DIHEDRAL>
0.209628

>  <SCORE.INTRA.DIHEDRAL.0>
4.37896

>  <SCORE.INTRA.POLAR>
0

>  <SCORE.INTRA.POLAR.0>
0

>  <SCORE.INTRA.REPUL>
0

>  <SCORE.INTRA.REPUL.0>
0

>  <SCORE.INTRA.SOLV>
0.671175

>  <SCORE.INTRA.SOLV.lig_0>
-50.5538

>  <SCORE.INTRA.VDW>
-0.99289

>  <SCORE.INTRA.VDW.0>
-1.30673

>  <SCORE.INTRA.norm>
-0.0212495

>  <SCORE.RESTR>
0

>  <SCORE.RESTR.CAVITY>
0

>  <SCORE.RESTR.norm>
0

>  <SCORE.SYSTEM>
0

>  <SCORE.SYSTEM.CONST>
0

>  <SCORE.SYSTEM.DIHEDRAL>
0

>  <SCORE.SYSTEM.SOLV>
0

>  <SCORE.SYSTEM.norm>
0

>  <SCORE.heavy>
26

>  <SCORE.norm>
-0.702264

>  <RMSD>
4.353

$$$$
ligand
 OpenBabel02271912153D
libRbt.so/2013.1/901 2013/11/27
 26 28  0  0  0  0  0  0  0  0999 V2000
  134.7281   69.7881    0.5922 N   0  0  0  0  0  0  0  0  0  0  0  0
  133.3342   69.5127    0.1334 C   0  0  2  0  0  0  0  0  0  0  0  0
  133.1767   69.8592   -1.3193 C   0  0  0  0  0  0  0  0  0  0  0  0
  133.6125   70.9159   -1.7743 O   0  0  0  0  0  0  0  0  0  0  0  0
  132.3366   70.3173    0.9622 C   0  0  0  0  0  0  0  0  0  0  0  0
  130.8826   69.9491    0.6833 C   0  0  0  0  0  0  0  0  0  0  0  0
  130.5157   68.3733    1.3830 S   0  0  0  0  0  0  0  0  0  0  0  0
  131.0443   67.2661    0.1156 C   0  0  0  0  0  0  0  0  0  0  0  0
  130.2112   67.4242   -1.1551 C   0  0  1  0  0  0  0  0  0  0  0  0
  130.7053   66.5748   -2.1928 O   0  0  0  0  0  0  0  0  0  0  0  0
  128.7680   67.0252   -0.8924 C   0  0  1  0  0  0  0  0  0  0  0  0
  127.8854   68.0400   -1.3806 O   0  0  0  0  0  0  0  0  0  0  0  0
  128.5571   65.7120   -1.6251 C   0  0  1  0  0  0  0  0  0  0  0  0
  127.4362   65.7828   -2.5132 O   0  0  0  0  0  0  0  0  0  0  0  0
  129.8338   65.4605   -2.4190 C   0  0  2  0  0  0  0  0  0  0  0  0
  132.5965   69.0951   -2.0892 O   0  0  0  0  0  0  0  0  0  0  0  0
  129.4196   60.2378   -1.7007 N   0  0  0  0  0  0  0  0  0  0  0  0
  128.5018   61.1209   -2.1428 C   0  0  0  0  0  0  0  0  0  0  0  0
  128.7480   62.4402   -2.2788 N   0  0  0  0  0  0  0  0  0  0  0  0
  129.9621   62.9698   -1.9688 C   0  0  0  0  0  0  0  0  0  0  0  0
  131.0161   62.0641   -1.4788 C   0  0  0  0  0  0  0  0  0  0  0  0
  130.6715   60.6248   -1.3573 C   0  0  0  0  0  0  0  0  0  0  0  0
  131.5840   59.7286   -0.9121 N   0  0  0  0  0  0  0  0  0  0  0  0
  132.1034   62.8203   -1.2506 N   0  0  0  0  0  0  0  0  0  0  0  0
  131.7774   64.0993   -1.5627 C   0  0  0  0  0  0  0  0  0  0  0  0
  130.5028   64.1965   -1.9905 N   0  0  0  0  0  0  0  0  0  0  0  0
  2  1  1  1  0  0  0
  2  3  1  0  0  0  0
  2  5  1  0  0  0  0
  3  4  1  0  0  0  0
  3 16  1  0  0  0  0
  5  6  1  0  0  0  0
  6  7  1  0  0  0  0
  7  8  1  0  0  0  0
  9  8  1  1  0  0  0
  9 10  1  0  0  0  0
  9 11  1  0  0  0  0
 10 15  1  0  0  0  0
 11 12  1  6  0  0  0
 11 13  1  0  0  0  0
 13 14  1  6  0  0  0
 13 15  1  0  0  0  0
 15 26  1  1  0  0  0
 17 18  2  0  0  0  0
 17 22  1  0  0  0  0
 18 19  1  0  0  0  0
 19 20  2  0  0  0  0
 20 21  1  0  0  0  0
 20 26  1  0  0  0  0
 21 22  2  0  0  0  0
 21 24  1  0  0  0  0
 22 23  1  0  0  0  0
 24 25  2  0  0  0  0
 25 26  1  0  0  0  0
M  END
>  <CHROM.1>
-45.72536042,-172.14341457,72.80242934,-85.27274640,-64.69918257,176.61764604
175.21309428,130.75093142,66.06584764,-1.04281718,-1.28302436,0.18564880
-3.00144034

>  <Name>
ligand

>  <RI>
0

>  <Rbt.Current_Directory>
/home/itssahil/PROJECTS/Mol_Feturizer/Test_systems_manuscript/rnas/3npn

>  <Rbt.Executable>
rbdock ($Id: //depot/dev/client3/rdock/2013.1/src/exe/rbdock.cxx#4 $)

>  <Rbt.Library>
libRbt.so (2013.1, Build901 2013/11/27)

>  <Rbt.Parameter_File>
/export/apps/rDock/src/rDock_2013.1_src/data/scripts/dock_solv.prm

>  <Rbt.Receptor>
prm/pocket_docking_6.prm

>  <SCORE>
-16.2047

>  <SCORE.INTER>
-14.5009

>  <SCORE.INTER.CONST>
1

>  <SCORE.INTER.POLAR>
0

>  <SCORE.INTER.ROT>
7

>  <SCORE.INTER.SOLV>
14.2361

>  <SCORE.INTER.VDW>
-22.6793

>  <SCORE.INTER.norm>
-0.557726

>  <SCORE.INTRA>
-1.70382

>  <SCORE.INTRA.DIHEDRAL>
0.0748709

>  <SCORE.INTRA.DIHEDRAL.0>
4.37896

>  <SCORE.INTRA.POLAR>
0

>  <SCORE.INTRA.POLAR.0>
0

>  <SCORE.INTRA.REPUL>
0

>  <SCORE.INTRA.REPUL.0>
0

>  <SCORE.INTRA.SOLV>
-0.294733

>  <SCORE.INTRA.SOLV.lig_0>
-50.5538

>  <SCORE.INTRA.VDW>
-1.59389

>  <SCORE.INTRA.VDW.0>
-1.30673

>  <SCORE.INTRA.norm>
-0.0655314

>  <SCORE.RESTR>
0

>  <SCORE.RESTR.CAVITY>
0

>  <SCORE.RESTR.norm>
0

>  <SCORE.SYSTEM>
0

>  <SCORE.SYSTEM.CONST>
0

>  <SCORE.SYSTEM.DIHEDRAL>
0

>  <SCORE.SYSTEM.SOLV>
0

>  <SCORE.SYSTEM.norm>
0

>  <SCORE.heavy>
26

>  <SCORE.norm>
-0.623258

>  <RMSD>
4.488

$$$$
ligand
 OpenBabel02271912153D
libRbt.so/2013.1/901 2013/11/27
 26 28  0  0  0  0  0  0  0  0999 V2000
  129.8639   67.4710    4.2639 N   0  0  0  0  0  0  0  0  0  0  0  0
  130.6410   68.4210    3.4136 C   0  0  2  0  0  0  0  0  0  0  0  0
  129.7603   69.5335    2.9217 C   0  0  0  0  0  0  0  0  0  0  0  0
  128.5812   69.6130    3.2640 O   0  0  0  0  0  0  0  0  0  0  0  0
  131.2504   67.6866    2.2224 C   0  0  0  0  0  0  0  0  0  0  0  0
  132.1573   66.5279    2.6259 C   0  0  0  0  0  0  0  0  0  0  0  0
  133.0600   65.9538    1.2249 S   0  0  0  0  0  0  0  0  0  0  0  0
  131.8312   65.0666    0.3226 C   0  0  0  0  0  0  0  0  0  0  0  0
  131.2299   65.9156   -0.7961 C   0  0  1  0  0  0  0  0  0  0  0  0
  131.1030   65.1524   -1.9978 O   0  0  0  0  0  0  0  0  0  0  0  0
  129.8372   66.3867   -0.4099 C   0  0  1  0  0  0  0  0  0  0  0  0
  129.7199   67.7951   -0.6333 O   0  0  0  0  0  0  0  0  0  0  0  0
  128.8737   65.6073   -1.2873 C   0  0  1  0  0  0  0  0  0  0  0  0
  127.9965   66.4815   -2.0059 O   0  0  0  0  0  0  0  0  0  0  0  0
  129.7359   64.8178   -2.2654 C   0  0  2  0  0  0  0  0  0  0  0  0
  130.1971   70.3893    2.1537 O   0  0  0  0  0  0  0  0  0  0  0  0
  131.9549   60.0885   -1.4442 N   0  0  0  0  0  0  0  0  0  0  0  0
  132.5299   61.3046   -1.5353 C   0  0  0  0  0  0  0  0  0  0  0  0
  131.8333   62.4398   -1.7491 N   0  0  0  0  0  0  0  0  0  0  0  0
  130.4804   62.4244   -1.8913 C   0  0  0  0  0  0  0  0  0  0  0  0
  129.7823   61.1298   -1.8033 C   0  0  0  0  0  0  0  0  0  0  0  0
  130.6157   59.9242   -1.5644 C   0  0  0  0  0  0  0  0  0  0  0  0
  130.0499   58.6971   -1.4736 N   0  0  0  0  0  0  0  0  0  0  0  0
  128.4729   61.3821   -1.9708 N   0  0  0  0  0  0  0  0  0  0  0  0
  128.3403   62.7193   -2.1535 C   0  0  0  0  0  0  0  0  0  0  0  0
  129.5323   63.3472   -2.1084 N   0  0  0  0  0  0  0  0  0  0  0  0
  2  1  1  6  0  0  0
  2  3  1  0  0  0  0
  2  5  1  0  0  0  0
  3  4  1  0  0  0  0
  3 16  1  0  0  0  0
  5  6  1  0  0  0  0
  6  7  1  0  0  0  0
  7  8  1  0  0  0  0
  9  8  1  1  0  0  0
  9 10  1  0  0  0  0
  9 11  1  0  0  0  0
 10 15  1  0  0  0  0
 11 12  1  6  0  0  0
 11 13  1  0  0  0  0
 13 14  1  6  0  0  0
 13 15  1  0  0  0  0
 15 26  1  1  0  0  0
 17 18  2  0  0  0  0
 17 22  1  0  0  0  0
 18 19  1  0  0  0  0
 19 20  2  0  0  0  0
 20 21  1  0  0  0  0
 20 26  1  0  0  0  0
 21 22  2  0  0  0  0
 21 24  1  0  0  0  0
 22 23  1  0  0  0  0
 24 25  2  0  0  0  0
 25 26  1  0  0  0  0
M  END
>  <CHROM.1>
2.79509683,-57.59146348,-168.66969753,-74.82516209,97.63018753,136.44017565
-6.63110324,130.47776742,65.03652586,-0.07561112,-1.58684521,0.62891672,-2.60956572

>  <Name>
ligand

>  <RI>
0

>  <Rbt.Current_Directory>
/home/itssahil/PROJECTS/Mol_Feturizer/Test_systems_manuscript/rnas/3npn

>  <Rbt.Executable>
rbdock ($Id: //depot/dev/client3/rdock/2013.1/src/exe/rbdock.cxx#4 $)

>  <Rbt.Library>
libRbt.so (2013.1, Build901 2013/11/27)

>  <Rbt.Parameter_File>
/export/apps/rDock/src/rDock_2013.1_src/data/scripts/dock_solv.prm

>  <Rbt.Receptor>
prm/pocket_docking_8.prm

>  <SCORE>
-14.2521

>  <SCORE.INTER>
-15.4912

>  <SCORE.INTER.CONST>
1

>  <SCORE.INTER.POLAR>
0

>  <SCORE.INTER.ROT>
7

>  <SCORE.INTER.SOLV>
18.1091

>  <SCORE.INTER.VDW>
-24.6305

>  <SCORE.INTER.norm>
-0.595815

>  <SCORE.INTRA>
1.23905

>  <SCORE.INTRA.DIHEDRAL>
5.13562

>  <SCORE.INTRA.DIHEDRAL.0>
4.37896

>  <SCORE.INTRA.POLAR>
0

>  <SCORE.INTRA.POLAR.0>
0

>  <SCORE.INTRA.REPUL>
0

>  <SCORE.INTRA.REPUL.0>
0

>  <SCORE.INTRA.SOLV>
0.156651

>  <SCORE.INTRA.SOLV.lig_0>
-50.5538

>  <SCORE.INTRA.VDW>
-1.40709

>  <SCORE.INTRA.VDW.0>
-1.30673

>  <SCORE.INTRA.norm>
0.0476557

>  <SCORE.RESTR>
0

>  <SCORE.RESTR.CAVITY>
0

>  <SCORE.RESTR.norm>
0

>  <SCORE.SYSTEM>
0

>  <SCORE.SYSTEM.CONST>
0

>  <SCORE.SYSTEM.DIHEDRAL>
0

>  <SCORE.SYSTEM.SOLV>
0

>  <SCORE.SYSTEM.norm>
0

>  <SCORE.heavy>
26

>  <SCORE.norm>
-0.548159

>  <RMSD>
4.518

$$$$
ligand
 OpenBabel02271912153D
libRbt.so/2013.1/901 2013/11/27
 26 28  0  0  0  0  0  0  0  0999 V2000
  128.2721   70.1850   -4.1176 N   0  0  0  0  0  0  0  0  0  0  0  0
  126.8565   69.8254   -3.8075 C   0  0  2  0  0  0  0  0  0  0  0  0
  126.1334   70.9945   -3.2029 C   0  0  0  0  0  0  0  0  0  0  0  0
  126.0262   72.0607   -3.8075 O   0  0  0  0  0  0  0  0  0  0  0  0
  126.8108   68.6422   -2.8444 C   0  0  0  0  0  0  0  0  0  0  0  0
  127.3651   67.3531   -3.4433 C   0  0  0  0  0  0  0  0  0  0  0  0
  127.4057   66.0880   -2.2165 S   0  0  0  0  0  0  0  0  0  0  0  0
  129.1307   65.9494   -1.8754 C   0  0  0  0  0  0  0  0  0  0  0  0
  129.7049   64.6331   -2.3964 C   0  0  1  0  0  0  0  0  0  0  0  0
  131.1319   64.6373   -2.3178 O   0  0  0  0  0  0  0  0  0  0  0  0
  129.2085   63.4705   -1.5521 C   0  0  1  0  0  0  0  0  0  0  0  0
  128.7036   62.4339   -2.3993 O   0  0  0  0  0  0  0  0  0  0  0  0
  130.4072   62.9933   -0.7515 C   0  0  1  0  0  0  0  0  0  0  0  0
  130.6373   61.5925   -0.9388 O   0  0  0  0  0  0  0  0  0  0  0  0
  131.6022   63.7890   -1.2634 C   0  0  2  0  0  0  0  0  0  0  0  0
  125.6381   70.9156   -2.0797 O   0  0  0  0  0  0  0  0  0  0  0  0
  134.4422   63.8697    3.1966 N   0  0  0  0  0  0  0  0  0  0  0  0
  134.0562   62.8217    2.4413 C   0  0  0  0  0  0  0  0  0  0  0  0
  133.3256   62.9494    1.3144 N   0  0  0  0  0  0  0  0  0  0  0  0
  132.9241   64.1691    0.8651 C   0  0  0  0  0  0  0  0  0  0  0  0
  133.3092   65.3618    1.6399 C   0  0  0  0  0  0  0  0  0  0  0  0
  134.1150   65.1424    2.8677 C   0  0  0  0  0  0  0  0  0  0  0  0
  134.5066   66.1867    3.6360 N   0  0  0  0  0  0  0  0  0  0  0  0
  132.8009   66.4255    0.9946 N   0  0  0  0  0  0  0  0  0  0  0  0
  132.1444   65.9588   -0.0965 C   0  0  0  0  0  0  0  0  0  0  0  0
  132.2124   64.6151   -0.1800 N   0  0  0  0  0  0  0  0  0  0  0  0
  2  1  1  1  0  0  0
  2  3  1  0  0  0  0
  2  5  1  0  0  0  0
  3  4  1  0  0  0  0
  3 16  1  0  0  0  0
  5  6  1  0  0  0  0
  6  7  1  0  0  0  0
  7  8  1  0  0  0  0
  9  8  1  1  0  0  0
  9 10  1  0  0  0  0
  9 11  1  0  0  0  0
 10 15  1  0  0  0  0
 11 12  1  6  0  0  0
 11 13  1  0  0  0  0
 13 14  1  6  0  0  0
 13 15  1  0  0  0  0
 15 26  1  1  0  0  0
 17 18  2  0  0  0  0
 17 22  1  0  0  0  0
 18 19  1  0  0  0  0
 19 20  2  0  0  0  0
 20 21  1  0  0  0  0
 20 26  1  0  0  0  0
 21 22  2  0  0  0  0
 21 24  1  0  0  0  0
 22 23  1  0  0  0  0
 24 25  2  0  0  0  0
 25 26  1  0  0  0  0
M  END
>  <CHROM.1>
59.08412836,-65.31964757,174.89162922,-107.28330732,-110.02347277,170.08727575
-169.69145442,130.10256006,65.92574198,-1.00011706,-2.63613658,0.71397696
-2.96189376

>  <Name>
ligand

>  <RI>
0

>  <Rbt.Current_Directory>
/home/itssahil/PROJECTS/Mol_Feturizer/Test_systems_manuscript/rnas/3npn

>  <Rbt.Executable>
rbdock ($Id: //depot/dev/client3/rdock/2013.1/src/exe/rbdock.cxx#4 $)

>  <Rbt.Library>
libRbt.so (2013.1, Build901 2013/11/27)

>  <Rbt.Parameter_File>
/export/apps/rDock/src/rDock_2013.1_src/data/scripts/dock_solv.prm

>  <Rbt.Receptor>
prm/pocket_docking_6.prm

>  <SCORE>
-17.7333

>  <SCORE.INTER>
-19.312

>  <SCORE.INTER.CONST>
1

>  <SCORE.INTER.POLAR>
0

>  <SCORE.INTER.ROT>
7

>  <SCORE.INTER.SOLV>
11.4159

>  <SCORE.INTER.VDW>
-24.9467

>  <SCORE.INTER.norm>
-0.742771

>  <SCORE.INTRA>
1.57876

>  <SCORE.INTRA.DIHEDRAL>
3.22883

>  <SCORE.INTRA.DIHEDRAL.0>
4.37896

>  <SCORE.INTRA.POLAR>
0

>  <SCORE.INTRA.POLAR.0>
0

>  <SCORE.INTRA.REPUL>
0

>  <SCORE.INTRA.REPUL.0>
0

>  <SCORE.INTRA.SOLV>
-0.224553

>  <SCORE.INTRA.SOLV.lig_0>
-50.5538

>  <SCORE.INTRA.VDW>
0.0766183

>  <SCORE.INTRA.VDW.0>
-1.30673

>  <SCORE.INTRA.norm>
0.0607215

>  <SCORE.RESTR>
0

>  <SCORE.RESTR.CAVITY>
0

>  <SCORE.RESTR.norm>
0

>  <SCORE.SYSTEM>
0

>  <SCORE.SYSTEM.CONST>
0

>  <SCORE.SYSTEM.DIHEDRAL>
0

>  <SCORE.SYSTEM.SOLV>
0

>  <SCORE.SYSTEM.norm>
0

>  <SCORE.heavy>
26

>  <SCORE.norm>
-0.682049

>  <RMSD>
4.554

$$$$
ligand
 OpenBabel02271912153D
libRbt.so/2013.1/901 2013/11/27
 26 28  0  0  0  0  0  0  0  0999 V2000
  132.8429   73.7248   -4.1567 N   0  0  0  0  0  0  0  0  0  0  0  0
  132.3524   72.3573   -3.8122 C   0  0  2  0  0  0  0  0  0  0  0  0
  132.7603   71.9847   -2.4158 C   0  0  0  0  0  0  0  0  0  0  0  0
  131.9422   71.5490   -1.6067 O   0  0  0  0  0  0  0  0  0  0  0  0
  132.9080   71.3329   -4.7979 C   0  0  0  0  0  0  0  0  0  0  0  0
  132.5187   69.8968   -4.4612 C   0  0  0  0  0  0  0  0  0  0  0  0
  130.7632   69.7409   -4.4273 S   0  0  0  0  0  0  0  0  0  0  0  0
  130.5431   68.0013   -4.2359 C   0  0  0  0  0  0  0  0  0  0  0  0
  129.0716   67.6041   -4.3393 C   0  0  1  0  0  0  0  0  0  0  0  0
  128.9324   66.1821   -4.3702 O   0  0  0  0  0  0  0  0  0  0  0  0
  128.3032   68.1078   -3.1282 C   0  0  1  0  0  0  0  0  0  0  0  0
  127.1187   68.7895   -3.5517 O   0  0  0  0  0  0  0  0  0  0  0  0
  127.9666   66.8771   -2.3049 C   0  0  1  0  0  0  0  0  0  0  0  0
  126.5617   66.7924   -2.0412 O   0  0  0  0  0  0  0  0  0  0  0  0
  128.4126   65.6783   -3.1339 C   0  0  2  0  0  0  0  0  0  0  0  0
  133.9255   72.1166   -2.0442 O   0  0  0  0  0  0  0  0  0  0  0  0
  129.9263   60.9577   -1.2929 N   0  0  0  0  0  0  0  0  0  0  0  0
  128.7932   61.3082   -1.9341 C   0  0  0  0  0  0  0  0  0  0  0  0
  128.5365   62.5647   -2.3524 N   0  0  0  0  0  0  0  0  0  0  0  0
  129.4236   63.5752   -2.1453 C   0  0  0  0  0  0  0  0  0  0  0  0
  130.6857   63.2668   -1.4501 C   0  0  0  0  0  0  0  0  0  0  0  0
  130.8984   61.8612   -1.0214 C   0  0  0  0  0  0  0  0  0  0  0  0
  132.0312   61.4975   -0.3744 N   0  0  0  0  0  0  0  0  0  0  0  0
  131.3788   64.4158   -1.3749 N   0  0  0  0  0  0  0  0  0  0  0  0
  130.6284   65.3785   -1.9660 C   0  0  0  0  0  0  0  0  0  0  0  0
  129.4614   64.8855   -2.4267 N   0  0  0  0  0  0  0  0  0  0  0  0
  2  1  1  6  0  0  0
  2  3  1  0  0  0  0
  2  5  1  0  0  0  0
  3  4  1  0  0  0  0
  3 16  1  0  0  0  0
  5  6  1  0  0  0  0
  6  7  1  0  0  0  0
  7  8  1  0  0  0  0
  9  8  1  1  0  0  0
  9 10  1  0  0  0  0
  9 11  1  0  0  0  0
 10 15  1  0  0  0  0
 11 12  1  6  0  0  0
 11 13  1  0  0  0  0
 13 14  1  6  0  0  0
 13 15  1  0  0  0  0
 15 26  1  1  0  0  0
 17 18  2  0  0  0  0
 17 22  1  0  0  0  0
 18 19  1  0  0  0  0
 19 20  2  0  0  0  0
 20 21  1  0  0  0  0
 20 26  1  0  0  0  0
 21 22  2  0  0  0  0
 21 24  1  0  0  0  0
 22 23  1  0  0  0  0
 24 25  2  0  0  0  0
 25 26  1  0  0  0  0
M  END
>  <CHROM.1>
129.75520426,176.50683781,58.48866875,172.96293714,-173.53744119,171.86208287
-116.08064443,130.34640749,67.19264497,-2.83954385,-1.28591240,0.28364568
2.85430171

>  <Name>
ligand

>  <RI>
0

>  <Rbt.Current_Directory>
/home/itssahil/PROJECTS/Mol_Feturizer/Test_systems_manuscript/rnas/3npn

>  <Rbt.Executable>
rbdock ($Id: //depot/dev/client3/rdock/2013.1/src/exe/rbdock.cxx#4 $)

>  <Rbt.Library>
libRbt.so (2013.1, Build901 2013/11/27)

>  <Rbt.Parameter_File>
/export/apps/rDock/src/rDock_2013.1_src/data/scripts/dock_solv.prm

>  <Rbt.Receptor>
prm/pocket_docking_6.prm

>  <SCORE>
-16.2489

>  <SCORE.INTER>
-14.5109

>  <SCORE.INTER.CONST>
1

>  <SCORE.INTER.POLAR>
0

>  <SCORE.INTER.ROT>
7

>  <SCORE.INTER.SOLV>
15.7666

>  <SCORE.INTER.VDW>
-23.1961

>  <SCORE.INTER.norm>
-0.558112

>  <SCORE.INTRA>
-1.73801

>  <SCORE.INTRA.DIHEDRAL>
-1.27404

>  <SCORE.INTRA.DIHEDRAL.0>
4.37896

>  <SCORE.INTRA.POLAR>
0

>  <SCORE.INTRA.POLAR.0>
0

>  <SCORE.INTRA.REPUL>
0

>  <SCORE.INTRA.REPUL.0>
0

>  <SCORE.INTRA.SOLV>
-0.684045

>  <SCORE.INTRA.SOLV.lig_0>
-50.5538

>  <SCORE.INTRA.VDW>
-0.758973

>  <SCORE.INTRA.VDW.0>
-1.30673

>  <SCORE.INTRA.norm>
-0.0668467

>  <SCORE.RESTR>
0

>  <SCORE.RESTR.CAVITY>
0

>  <SCORE.RESTR.norm>
0

>  <SCORE.SYSTEM>
0

>  <SCORE.SYSTEM.CONST>
0

>  <SCORE.SYSTEM.DIHEDRAL>
0

>  <SCORE.SYSTEM.SOLV>
0

>  <SCORE.SYSTEM.norm>
0

>  <SCORE.heavy>
26

>  <SCORE.norm>
-0.624959

>  <RMSD>
4.636

$$$$
ligand
 OpenBabel02271912153D
libRbt.so/2013.1/901 2013/11/27
 26 28  0  0  0  0  0  0  0  0999 V2000
  134.6617   64.6541   -3.6431 N   0  0  0  0  0  0  0  0  0  0  0  0
  134.4626   64.7475   -5.1199 C   0  0  2  0  0  0  0  0  0  0  0  0
  135.4436   65.7090   -5.7267 C   0  0  0  0  0  0  0  0  0  0  0  0
  135.7777   66.7365   -5.1382 O   0  0  0  0  0  0  0  0  0  0  0  0
  133.0398   65.2027   -5.4333 C   0  0  0  0  0  0  0  0  0  0  0  0
  132.6750   66.5356   -4.7871 C   0  0  0  0  0  0  0  0  0  0  0  0
  131.0489   67.0143   -5.2707 S   0  0  0  0  0  0  0  0  0  0  0  0
  130.0363   65.9834   -4.2592 C   0  0  0  0  0  0  0  0  0  0  0  0
  129.8505   66.5718   -2.8617 C   0  0  1  0  0  0  0  0  0  0  0  0
  128.9015   65.8087   -2.1136 O   0  0  0  0  0  0  0  0  0  0  0  0
  131.1633   66.5372   -2.0963 C   0  0  1  0  0  0  0  0  0  0  0  0
  131.4233   67.8193   -1.5167 O   0  0  0  0  0  0  0  0  0  0  0  0
  130.9960   65.4724   -1.0267 C   0  0  1  0  0  0  0  0  0  0  0  0
  131.2825   65.9909    0.2769 O   0  0  0  0  0  0  0  0  0  0  0  0
  129.5409   65.0246   -1.0993 C   0  0  2  0  0  0  0  0  0  0  0  0
  135.9303   65.4952   -6.8360 O   0  0  0  0  0  0  0  0  0  0  0  0
  131.8165   60.2530   -0.9684 N   0  0  0  0  0  0  0  0  0  0  0  0
  132.2795   61.4394   -0.5260 C   0  0  0  0  0  0  0  0  0  0  0  0
  131.5831   62.5905   -0.6252 N   0  0  0  0  0  0  0  0  0  0  0  0
  130.3468   62.6236   -1.1920 C   0  0  0  0  0  0  0  0  0  0  0  0
  129.7753   61.3636   -1.6987 C   0  0  0  0  0  0  0  0  0  0  0  0
  130.5999   60.1373   -1.5526 C   0  0  0  0  0  0  0  0  0  0  0  0
  130.1468   58.9403   -1.9954 N   0  0  0  0  0  0  0  0  0  0  0  0
  128.5638   61.6599   -2.1995 N   0  0  0  0  0  0  0  0  0  0  0  0
  128.3739   62.9923   -2.0330 C   0  0  0  0  0  0  0  0  0  0  0  0
  129.4324   63.5738   -1.4342 N   0  0  0  0  0  0  0  0  0  0  0  0
  2  1  1  1  0  0  0
  2  3  1  0  0  0  0
  2  5  1  0  0  0  0
  3  4  1  0  0  0  0
  3 16  1  0  0  0  0
  5  6  1  0  0  0  0
  6  7  1  0  0  0  0
  7  8  1  0  0  0  0
  9  8  1  6  0  0  0
  9 10  1  0  0  0  0
  9 11  1  0  0  0  0
 10 15  1  0  0  0  0
 11 12  1  1  0  0  0
 11 13  1  0  0  0  0
 13 14  1  1  0  0  0
 13 15  1  0  0  0  0
 15 26  1  6  0  0  0
 17 18  2  0  0  0  0
 17 22  1  0  0  0  0
 18 19  1  0  0  0  0
 19 20  2  0  0  0  0
 20 21  1  0  0  0  0
 20 26  1  0  0  0  0
 21 22  2  0  0  0  0
 21 24  1  0  0  0  0
 22 23  1  0  0  0  0
 24 25  2  0  0  0  0
 25 26  1  0  0  0  0
M  END
>  <CHROM.1>
-36.86111743,56.96207464,177.18558375,77.19638543,82.84917166,173.02379554
144.90976900,131.53042682,64.49461264,-2.88081178,-0.85747404,-0.59510527
2.87406806

>  <Name>
ligand

>  <RI>
0

>  <Rbt.Current_Directory>
/home/itssahil/PROJECTS/Mol_Feturizer/Test_systems_manuscript/rnas/3npn

>  <Rbt.Executable>
rbdock ($Id: //depot/dev/client3/rdock/2013.1/src/exe/rbdock.cxx#4 $)

>  <Rbt.Library>
libRbt.so (2013.1, Build901 2013/11/27)

>  <Rbt.Parameter_File>
/export/apps/rDock/src/rDock_2013.1_src/data/scripts/dock_solv.prm

>  <Rbt.Receptor>
prm/pocket_docking_7.prm

>  <SCORE>
-19.2883

>  <SCORE.INTER>
-18.8529

>  <SCORE.INTER.CONST>
1

>  <SCORE.INTER.POLAR>
0

>  <SCORE.INTER.ROT>
7

>  <SCORE.INTER.SOLV>
13.2213

>  <SCORE.INTER.VDW>
-25.2424

>  <SCORE.INTER.norm>
-0.725112

>  <SCORE.INTRA>
-0.435431

>  <SCORE.INTRA.DIHEDRAL>
-0.300999

>  <SCORE.INTRA.DIHEDRAL.0>
4.37896

>  <SCORE.INTRA.POLAR>
0

>  <SCORE.INTRA.POLAR.0>
0

>  <SCORE.INTRA.REPUL>
0

>  <SCORE.INTRA.REPUL.0>
0

>  <SCORE.INTRA.SOLV>
0.323465

>  <SCORE.INTRA.SOLV.lig_0>
-50.5538

>  <SCORE.INTRA.VDW>
-0.446664

>  <SCORE.INTRA.VDW.0>
-1.30673

>  <SCORE.INTRA.norm>
-0.0167473

>  <SCORE.RESTR>
0

>  <SCORE.RESTR.CAVITY>
0

>  <SCORE.RESTR.norm>
0

>  <SCORE.SYSTEM>
0

>  <SCORE.SYSTEM.CONST>
0

>  <SCORE.SYSTEM.DIHEDRAL>
0

>  <SCORE.SYSTEM.SOLV>
0

>  <SCORE.SYSTEM.norm>
0

>  <SCORE.heavy>
26

>  <SCORE.norm>
-0.741859

>  <RMSD>
4.771

$$$$
ligand
 OpenBabel02271912153D
libRbt.so/2013.1/901 2013/11/27
 26 28  0  0  0  0  0  0  0  0999 V2000
  125.3825   68.7062   -2.4226 N   0  0  0  0  0  0  0  0  0  0  0  0
  126.5868   69.5590   -2.6498 C   0  0  2  0  0  0  0  0  0  0  0  0
  126.3403   70.5378   -3.7617 C   0  0  0  0  0  0  0  0  0  0  0  0
  126.1445   71.7302   -3.5306 O   0  0  0  0  0  0  0  0  0  0  0  0
  127.7931   68.6889   -2.9925 C   0  0  0  0  0  0  0  0  0  0  0  0
  127.9876   67.5194   -2.0323 C   0  0  0  0  0  0  0  0  0  0  0  0
  129.3798   66.5585   -2.5278 S   0  0  0  0  0  0  0  0  0  0  0  0
  129.2152   65.1139   -1.5292 C   0  0  0  0  0  0  0  0  0  0  0  0
  129.9948   63.9352   -2.1093 C   0  0  1  0  0  0  0  0  0  0  0  0
  131.3810   64.2591   -2.2366 O   0  0  0  0  0  0  0  0  0  0  0  0
  129.8942   62.7312   -1.1868 C   0  0  1  0  0  0  0  0  0  0  0  0
  129.5253   61.5710   -1.9384 O   0  0  0  0  0  0  0  0  0  0  0  0
  131.2677   62.5685   -0.5601 C   0  0  1  0  0  0  0  0  0  0  0  0
  131.7802   61.2464   -0.7595 O   0  0  0  0  0  0  0  0  0  0  0  0
  132.1705   63.5850   -1.2492 C   0  0  2  0  0  0  0  0  0  0  0  0
  126.3186   70.1661   -4.9341 O   0  0  0  0  0  0  0  0  0  0  0  0
  133.8085   64.5170    3.6917 N   0  0  0  0  0  0  0  0  0  0  0  0
  133.3289   63.3822    3.1439 C   0  0  0  0  0  0  0  0  0  0  0  0
  132.9445   63.2865    1.8543 N   0  0  0  0  0  0  0  0  0  0  0  0
  133.0170   64.3529    1.0127 C   0  0  0  0  0  0  0  0  0  0  0  0
  133.5319   65.6281    1.5417 C   0  0  0  0  0  0  0  0  0  0  0  0
  133.9373   65.6560    2.9700 C   0  0  0  0  0  0  0  0  0  0  0  0
  134.4180   66.7904    3.5322 N   0  0  0  0  0  0  0  0  0  0  0  0
  133.5064   66.5086    0.5267 N   0  0  0  0  0  0  0  0  0  0  0  0
  133.0157   65.8591   -0.5580 C   0  0  0  0  0  0  0  0  0  0  0  0
  132.7208   64.5743   -0.2761 N   0  0  0  0  0  0  0  0  0  0  0  0
  2  1  1  6  0  0  0
  2  3  1  0  0  0  0
  2  5  1  0  0  0  0
  3  4  1  0  0  0  0
  3 16  1  0  0  0  0
  5  6  1  0  0  0  0
  6  7  1  0  0  0  0
  7  8  1  0  0  0  0
  9  8  1  1  0  0  0
  9 10  1  0  0  0  0
  9 11  1  0  0  0  0
 10 15  1  0  0  0  0
 11 12  1  6  0  0  0
 11 13  1  0  0  0  0
 13 14  1  6  0  0  0
 13 15  1  0  0  0  0
 15 26  1  1  0  0  0
 17 18  2  0  0  0  0
 17 22  1  0  0  0  0
 18 19  1  0  0  0  0
 19 20  2  0  0  0  0
 20 21  1  0  0  0  0
 20 26  1  0  0  0  0
 21 22  2  0  0  0  0
 21 24  1  0  0  0  0
 22 23  1  0  0  0  0
 24 25  2  0  0  0  0
 25 26  1  0  0  0  0
M  END
>  <CHROM.1>
105.48716097,-48.74011529,178.84778472,-168.36473450,159.71679017,58.25804264
150.88368860,130.44870107,65.78469681,-0.90412833,-2.69986840,0.75707750
-2.89139643

>  <Name>
ligand

>  <RI>
0

>  <Rbt.Current_Directory>
/home/itssahil/PROJECTS/Mol_Feturizer/Test_systems_manuscript/rnas/3npn

>  <Rbt.Executable>
rbdock ($Id: //depot/dev/client3/rdock/2013.1/src/exe/rbdock.cxx#4 $)

>  <Rbt.Library>
libRbt.so (2013.1, Build901 2013/11/27)

>  <Rbt.Parameter_File>
/export/apps/rDock/src/rDock_2013.1_src/data/scripts/dock_solv.prm

>  <Rbt.Receptor>
prm/pocket_docking_8.prm

>  <SCORE>
-13.0376

>  <SCORE.INTER>
-12.3589

>  <SCORE.INTER.CONST>
1

>  <SCORE.INTER.POLAR>
0

>  <SCORE.INTER.ROT>
7

>  <SCORE.INTER.SOLV>
15.1811

>  <SCORE.INTER.VDW>
-21.5663

>  <SCORE.INTER.norm>
-0.475342

>  <SCORE.INTRA>
-0.678683

>  <SCORE.INTRA.DIHEDRAL>
-0.422375

>  <SCORE.INTRA.DIHEDRAL.0>
4.37896

>  <SCORE.INTRA.POLAR>
0

>  <SCORE.INTRA.POLAR.0>
0

>  <SCORE.INTRA.REPUL>
0

>  <SCORE.INTRA.REPUL.0>
0

>  <SCORE.INTRA.SOLV>
-0.0551402

>  <SCORE.INTRA.SOLV.lig_0>
-50.5538

>  <SCORE.INTRA.VDW>
-0.439925

>  <SCORE.INTRA.VDW.0>
-1.30673

>  <SCORE.INTRA.norm>
-0.0261032

>  <SCORE.RESTR>
0

>  <SCORE.RESTR.CAVITY>
0

>  <SCORE.RESTR.norm>
0

>  <SCORE.SYSTEM>
0

>  <SCORE.SYSTEM.CONST>
0

>  <SCORE.SYSTEM.DIHEDRAL>
0

>  <SCORE.SYSTEM.SOLV>
0

>  <SCORE.SYSTEM.norm>
0

>  <SCORE.heavy>
26

>  <SCORE.norm>
-0.501446

>  <RMSD>
4.782

$$$$
ligand
 OpenBabel02271912153D
libRbt.so/2013.1/901 2013/11/27
 26 28  0  0  0  0  0  0  0  0999 V2000
  128.7707   69.6273   -3.5736 N   0  0  0  0  0  0  0  0  0  0  0  0
  127.4601   69.2188   -4.1607 C   0  0  2  0  0  0  0  0  0  0  0  0
  126.7256   70.4130   -4.6987 C   0  0  0  0  0  0  0  0  0  0  0  0
  126.3217   70.4438   -5.8604 O   0  0  0  0  0  0  0  0  0  0  0  0
  126.6029   68.5233   -3.1066 C   0  0  0  0  0  0  0  0  0  0  0  0
  127.0077   67.0735   -2.8582 C   0  0  0  0  0  0  0  0  0  0  0  0
  128.6665   67.0046   -2.2657 S   0  0  0  0  0  0  0  0  0  0  0  0
  128.6807   65.4907   -1.3607 C   0  0  0  0  0  0  0  0  0  0  0  0
  129.1825   64.3276   -2.2147 C   0  0  1  0  0  0  0  0  0  0  0  0
  130.6076   64.3543   -2.3186 O   0  0  0  0  0  0  0  0  0  0  0  0
  128.7999   63.0018   -1.5769 C   0  0  1  0  0  0  0  0  0  0  0  0
  128.1894   62.1505   -2.5515 O   0  0  0  0  0  0  0  0  0  0  0  0
  130.0924   62.4015   -1.0528 C   0  0  1  0  0  0  0  0  0  0  0  0
  130.2963   61.0770   -1.5573 O   0  0  0  0  0  0  0  0  0  0  0  0
  131.2108   63.3185   -1.5340 C   0  0  2  0  0  0  0  0  0  0  0  0
  126.5187   71.3966   -3.9895 O   0  0  0  0  0  0  0  0  0  0  0  0
  132.1412   67.6197    1.3983 N   0  0  0  0  0  0  0  0  0  0  0  0
  131.3213   67.4609    0.3398 C   0  0  0  0  0  0  0  0  0  0  0  0
  131.1808   66.2927   -0.3202 N   0  0  0  0  0  0  0  0  0  0  0  0
  131.8748   65.1826    0.0494 C   0  0  0  0  0  0  0  0  0  0  0  0
  132.7911   65.2806    1.1991 C   0  0  0  0  0  0  0  0  0  0  0  0
  132.8914   66.5983    1.8765 C   0  0  0  0  0  0  0  0  0  0  0  0
  133.7132   66.7709    2.9390 N   0  0  0  0  0  0  0  0  0  0  0  0
  133.3442   64.0664    1.3601 N   0  0  0  0  0  0  0  0  0  0  0  0
  132.8321   63.2596    0.3978 C   0  0  0  0  0  0  0  0  0  0  0  0
  131.9564   63.9177   -0.3878 N   0  0  0  0  0  0  0  0  0  0  0  0
  2  1  1  1  0  0  0
  2  3  1  0  0  0  0
  2  5  1  0  0  0  0
  3  4  1  0  0  0  0
  3 16  1  0  0  0  0
  5  6  1  0  0  0  0
  6  7  1  0  0  0  0
  7  8  1  0  0  0  0
  9  8  1  1  0  0  0
  9 10  1  0  0  0  0
  9 11  1  0  0  0  0
 10 15  1  0  0  0  0
 11 12  1  6  0  0  0
 11 13  1  0  0  0  0
 13 14  1  6  0  0  0
 13 15  1  0  0  0  0
 15 26  1  1  0  0  0
 17 18  2  0  0  0  0
 17 22  1  0  0  0  0
 18 19  1  0  0  0  0
 19 20  2  0  0  0  0
 20 21  1  0  0  0  0
 20 26  1  0  0  0  0
 21 22  2  0  0  0  0
 21 24  1  0  0  0  0
 22 23  1  0  0  0  0
 24 25  2  0  0  0  0
 25 26  1  0  0  0  0
M  END
>  <CHROM.1>
125.95117968,-78.33658696,61.32769151,154.44893697,94.55426414,78.31452828
13.29367215,129.82572836,66.06424854,-1.50063580,-2.49724511,0.76149800,-3.08955186

>  <Name>
ligand

>  <RI>
0

>  <Rbt.Current_Directory>
/home/itssahil/PROJECTS/Mol_Feturizer/Test_systems_manuscript/rnas/3npn

>  <Rbt.Executable>
rbdock ($Id: //depot/dev/client3/rdock/2013.1/src/exe/rbdock.cxx#4 $)

>  <Rbt.Library>
libRbt.so (2013.1, Build901 2013/11/27)

>  <Rbt.Parameter_File>
/export/apps/rDock/src/rDock_2013.1_src/data/scripts/dock_solv.prm

>  <Rbt.Receptor>
prm/pocket_docking_8.prm

>  <SCORE>
-18.4762

>  <SCORE.INTER>
-19.2546

>  <SCORE.INTER.CONST>
1

>  <SCORE.INTER.POLAR>
0

>  <SCORE.INTER.ROT>
7

>  <SCORE.INTER.SOLV>
11.393

>  <SCORE.INTER.VDW>
-24.9007

>  <SCORE.INTER.norm>
-0.740563

>  <SCORE.INTRA>
0.778402

>  <SCORE.INTRA.DIHEDRAL>
3.08003

>  <SCORE.INTRA.DIHEDRAL.0>
4.37896

>  <SCORE.INTRA.POLAR>
0

>  <SCORE.INTRA.POLAR.0>
0

>  <SCORE.INTRA.REPUL>
0

>  <SCORE.INTRA.REPUL.0>
0

>  <SCORE.INTRA.SOLV>
1.06364

>  <SCORE.INTRA.SOLV.lig_0>
-50.5538

>  <SCORE.INTRA.VDW>
-1.29343

>  <SCORE.INTRA.VDW.0>
-1.30673

>  <SCORE.INTRA.norm>
0.0299385

>  <SCORE.RESTR>
0

>  <SCORE.RESTR.CAVITY>
0

>  <SCORE.RESTR.norm>
0

>  <SCORE.SYSTEM>
0

>  <SCORE.SYSTEM.CONST>
0

>  <SCORE.SYSTEM.DIHEDRAL>
0

>  <SCORE.SYSTEM.SOLV>
0

>  <SCORE.SYSTEM.norm>
0

>  <SCORE.heavy>
26

>  <SCORE.norm>
-0.710624

>  <RMSD>
4.843

$$$$
ligand
 OpenBabel02271912153D
libRbt.so/2013.1/901 2013/11/27
 26 28  0  0  0  0  0  0  0  0999 V2000
  128.5534   69.1045   -2.3421 N   0  0  0  0  0  0  0  0  0  0  0  0
  128.7772   67.6416   -2.5399 C   0  0  2  0  0  0  0  0  0  0  0  0
  127.6158   67.0211   -3.2618 C   0  0  0  0  0  0  0  0  0  0  0  0
  126.4763   67.0730   -2.8008 O   0  0  0  0  0  0  0  0  0  0  0  0
  128.9709   66.9500   -1.1931 C   0  0  0  0  0  0  0  0  0  0  0  0
  129.6488   65.5878   -1.3048 C   0  0  0  0  0  0  0  0  0  0  0  0
  128.5612   64.4355   -2.0773 S   0  0  0  0  0  0  0  0  0  0  0  0
  128.9798   62.9236   -1.2710 C   0  0  0  0  0  0  0  0  0  0  0  0
  130.0657   62.1619   -2.0289 C   0  0  1  0  0  0  0  0  0  0  0  0
  131.3173   62.8466   -1.9436 O   0  0  0  0  0  0  0  0  0  0  0  0
  130.2625   60.7819   -1.4226 C   0  0  1  0  0  0  0  0  0  0  0  0
  130.2433   59.7897   -2.4533 O   0  0  0  0  0  0  0  0  0  0  0  0
  131.6084   60.8215   -0.7207 C   0  0  1  0  0  0  0  0  0  0  0  0
  132.4634   59.7640   -1.1687 O   0  0  0  0  0  0  0  0  0  0  0  0
  132.2266   62.1711   -1.0666 C   0  0  2  0  0  0  0  0  0  0  0  0
  127.7797   66.4351   -4.3309 O   0  0  0  0  0  0  0  0  0  0  0  0
  134.9421   62.7760    3.4306 N   0  0  0  0  0  0  0  0  0  0  0  0
  135.0232   61.8031    2.5008 C   0  0  0  0  0  0  0  0  0  0  0  0
  134.2602   61.7751    1.3887 N   0  0  0  0  0  0  0  0  0  0  0  0
  133.3420   62.7464    1.1352 C   0  0  0  0  0  0  0  0  0  0  0  0
  133.1972   63.8436    2.1081 C   0  0  0  0  0  0  0  0  0  0  0  0
  134.0728   63.8075    3.3068 C   0  0  0  0  0  0  0  0  0  0  0  0
  133.9989   64.7777    4.2489 N   0  0  0  0  0  0  0  0  0  0  0  0
  132.2431   64.6617    1.6322 N   0  0  0  0  0  0  0  0  0  0  0  0
  131.8100   64.1363    0.4593 C   0  0  0  0  0  0  0  0  0  0  0  0
  132.4594   62.9944    0.1568 N   0  0  0  0  0  0  0  0  0  0  0  0
  2  1  1  1  0  0  0
  2  3  1  0  0  0  0
  2  5  1  0  0  0  0
  3  4  1  0  0  0  0
  3 16  1  0  0  0  0
  5  6  1  0  0  0  0
  6  7  1  0  0  0  0
  7  8  1  0  0  0  0
  9  8  1  1  0  0  0
  9 10  1  0  0  0  0
  9 11  1  0  0  0  0
 10 15  1  0  0  0  0
 11 12  1  6  0  0  0
 11 13  1  0  0  0  0
 13 14  1  6  0  0  0
 13 15  1  0  0  0  0
 15 26  1  1  0  0  0
 17 18  2  0  0  0  0
 17 22  1  0  0  0  0
 18 19  1  0  0  0  0
 19 20  2  0  0  0  0
 20 21  1  0  0  0  0
 20 26  1  0  0  0  0
 21 22  2  0  0  0  0
 21 24  1  0  0  0  0
 22 23  1  0  0  0  0
 24 25  2  0  0  0  0
 25 26  1  0  0  0  0
M  END
>  <CHROM.1>
-58.93840009,-160.90206625,-69.35671431,-146.35694691,-91.63734671,69.36552336
-173.21834607,130.91215954,63.82681904,-0.61163389,-2.87205079,0.79070931
-2.77757554

>  <Name>
ligand

>  <RI>
0

>  <Rbt.Current_Directory>
/home/itssahil/PROJECTS/Mol_Feturizer/Test_systems_manuscript/rnas/3npn

>  <Rbt.Executable>
rbdock ($Id: //depot/dev/client3/rdock/2013.1/src/exe/rbdock.cxx#4 $)

>  <Rbt.Library>
libRbt.so (2013.1, Build901 2013/11/27)

>  <Rbt.Parameter_File>
/export/apps/rDock/src/rDock_2013.1_src/data/scripts/dock_solv.prm

>  <Rbt.Receptor>
prm/pocket_docking_7.prm

>  <SCORE>
-19.42

>  <SCORE.INTER>
-18.9037

>  <SCORE.INTER.CONST>
1

>  <SCORE.INTER.POLAR>
0

>  <SCORE.INTER.ROT>
7

>  <SCORE.INTER.SOLV>
10.8855

>  <SCORE.INTER.VDW>
-24.4976

>  <SCORE.INTER.norm>
-0.727064

>  <SCORE.INTRA>
-0.516289

>  <SCORE.INTRA.DIHEDRAL>
2.98101

>  <SCORE.INTRA.DIHEDRAL.0>
4.37896

>  <SCORE.INTRA.POLAR>
0

>  <SCORE.INTRA.POLAR.0>
0

>  <SCORE.INTRA.REPUL>
0

>  <SCORE.INTRA.REPUL.0>
0

>  <SCORE.INTRA.SOLV>
-0.62446

>  <SCORE.INTRA.SOLV.lig_0>
-50.5538

>  <SCORE.INTRA.VDW>
-1.69456

>  <SCORE.INTRA.VDW.0>
-1.30673

>  <SCORE.INTRA.norm>
-0.0198573

>  <SCORE.RESTR>
0

>  <SCORE.RESTR.CAVITY>
0

>  <SCORE.RESTR.norm>
0

>  <SCORE.SYSTEM>
0

>  <SCORE.SYSTEM.CONST>
0

>  <SCORE.SYSTEM.DIHEDRAL>
0

>  <SCORE.SYSTEM.SOLV>
0

>  <SCORE.SYSTEM.norm>
0

>  <SCORE.heavy>
26

>  <SCORE.norm>
-0.746922

>  <RMSD>
4.916

$$$$
ligand
 OpenBabel02271912153D
libRbt.so/2013.1/901 2013/11/27
 26 28  0  0  0  0  0  0  0  0999 V2000
  128.4816   70.2526   -4.2793 N   0  0  0  0  0  0  0  0  0  0  0  0
  127.0276   69.9133   -4.2950 C   0  0  2  0  0  0  0  0  0  0  0  0
  126.2712   70.7797   -3.3294 C   0  0  0  0  0  0  0  0  0  0  0  0
  125.9413   70.3619   -2.2202 O   0  0  0  0  0  0  0  0  0  0  0  0
  126.8239   68.4447   -3.9322 C   0  0  0  0  0  0  0  0  0  0  0  0
  127.6323   68.0046   -2.7156 C   0  0  0  0  0  0  0  0  0  0  0  0
  127.2578   66.3286   -2.3179 S   0  0  0  0  0  0  0  0  0  0  0  0
  128.7514   65.7790   -1.5576 C   0  0  0  0  0  0  0  0  0  0  0  0
  129.3259   64.5524   -2.2640 C   0  0  1  0  0  0  0  0  0  0  0  0
  130.7514   64.5322   -2.1638 O   0  0  0  0  0  0  0  0  0  0  0  0
  128.8085   63.2792   -1.6143 C   0  0  1  0  0  0  0  0  0  0  0  0
  128.3112   62.3879   -2.6169 O   0  0  0  0  0  0  0  0  0  0  0  0
  129.9908   62.6754   -0.8772 C   0  0  1  0  0  0  0  0  0  0  0  0
  130.2153   61.3175   -1.2721 O   0  0  0  0  0  0  0  0  0  0  0  0
  131.1990   63.5294   -1.2437 C   0  0  2  0  0  0  0  0  0  0  0  0
  125.9539   71.9294   -3.6308 O   0  0  0  0  0  0  0  0  0  0  0  0
  131.4230   67.8132    1.8487 N   0  0  0  0  0  0  0  0  0  0  0  0
  130.6934   67.5920    0.7367 C   0  0  0  0  0  0  0  0  0  0  0  0
  130.7355   66.4376    0.0401 N   0  0  0  0  0  0  0  0  0  0  0  0
  131.5358   65.4069    0.4248 C   0  0  0  0  0  0  0  0  0  0  0  0
  132.3630   65.5764    1.6324 C   0  0  0  0  0  0  0  0  0  0  0  0
  132.2618   66.8738    2.3476 C   0  0  0  0  0  0  0  0  0  0  0  0
  132.9915   67.1088    3.4641 N   0  0  0  0  0  0  0  0  0  0  0  0
  133.0488   64.4325    1.7975 N   0  0  0  0  0  0  0  0  0  0  0  0
  132.6969   63.6020    0.7847 C   0  0  0  0  0  0  0  0  0  0  0  0
  131.7964   64.1758   -0.0380 N   0  0  0  0  0  0  0  0  0  0  0  0
  2  1  1  1  0  0  0
  2  3  1  0  0  0  0
  2  5  1  0  0  0  0
  3  4  1  0  0  0  0
  3 16  1  0  0  0  0
  5  6  1  0  0  0  0
  6  7  1  0  0  0  0
  7  8  1  0  0  0  0
  9  8  1  1  0  0  0
  9 10  1  0  0  0  0
  9 11  1  0  0  0  0
 10 15  1  0  0  0  0
 11 12  1  6  0  0  0
 11 13  1  0  0  0  0
 13 14  1  6  0  0  0
 13 15  1  0  0  0  0
 15 26  1  1  0  0  0
 17 18  2  0  0  0  0
 17 22  1  0  0  0  0
 18 19  1  0  0  0  0
 19 20  2  0  0  0  0
 20 21  1  0  0  0  0
 20 26  1  0  0  0  0
 21 22  2  0  0  0  0
 21 24  1  0  0  0  0
 22 23  1  0  0  0  0
 24 25  2  0  0  0  0
 25 26  1  0  0  0  0
M  END
>  <CHROM.1>
-100.50716185,46.21055711,176.59745976,151.83693463,-123.44231095,149.45386836
24.44221877,129.51177445,66.27885429,-1.18030152,-2.57573064,0.79945302,-2.91735213

>  <Name>
ligand

>  <RI>
0

>  <Rbt.Current_Directory>
/home/itssahil/PROJECTS/Mol_Feturizer/Test_systems_manuscript/rnas/3npn

>  <Rbt.Executable>
rbdock ($Id: //depot/dev/client3/rdock/2013.1/src/exe/rbdock.cxx#4 $)

>  <Rbt.Library>
libRbt.so (2013.1, Build901 2013/11/27)

>  <Rbt.Parameter_File>
/export/apps/rDock/src/rDock_2013.1_src/data/scripts/dock_solv.prm

>  <Rbt.Receptor>
prm/pocket_docking_5.prm

>  <SCORE>
-17.7816

>  <SCORE.INTER>
-21.4514

>  <SCORE.INTER.CONST>
1

>  <SCORE.INTER.POLAR>
0

>  <SCORE.INTER.ROT>
7

>  <SCORE.INTER.SOLV>
13.5891

>  <SCORE.INTER.VDW>
-27.0973

>  <SCORE.INTER.norm>
-0.825054

>  <SCORE.INTRA>
3.66099

>  <SCORE.INTRA.DIHEDRAL>
5.23439

>  <SCORE.INTRA.DIHEDRAL.0>
4.37896

>  <SCORE.INTRA.POLAR>
0

>  <SCORE.INTRA.POLAR.0>
0

>  <SCORE.INTRA.REPUL>
0

>  <SCORE.INTRA.REPUL.0>
0

>  <SCORE.INTRA.SOLV>
-0.0893503

>  <SCORE.INTRA.SOLV.lig_0>
-50.5538

>  <SCORE.INTRA.VDW>
1.08847

>  <SCORE.INTRA.VDW.0>
-1.30673

>  <SCORE.INTRA.norm>
0.140807

>  <SCORE.RESTR>
0.00881569

>  <SCORE.RESTR.CAVITY>
0.00881569

>  <SCORE.RESTR.norm>
0.000339065

>  <SCORE.SYSTEM>
0

>  <SCORE.SYSTEM.CONST>
0

>  <SCORE.SYSTEM.DIHEDRAL>
0

>  <SCORE.SYSTEM.SOLV>
0

>  <SCORE.SYSTEM.norm>
0

>  <SCORE.heavy>
26

>  <SCORE.norm>
-0.683908

>  <RMSD>
4.952

$$$$
ligand
 OpenBabel02271912153D
libRbt.so/2013.1/901 2013/11/27
 26 28  0  0  0  0  0  0  0  0999 V2000
  126.0023   70.6880   -3.0834 N   0  0  0  0  0  0  0  0  0  0  0  0
  127.3524   70.2261   -3.5228 C   0  0  2  0  0  0  0  0  0  0  0  0
  127.6779   70.7634   -4.8868 C   0  0  0  0  0  0  0  0  0  0  0  0
  128.6634   71.4758   -5.0737 O   0  0  0  0  0  0  0  0  0  0  0  0
  127.4067   68.7009   -3.5476 C   0  0  0  0  0  0  0  0  0  0  0  0
  127.1669   68.0650   -2.1817 C   0  0  0  0  0  0  0  0  0  0  0  0
  127.3468   66.3149   -2.2924 S   0  0  0  0  0  0  0  0  0  0  0  0
  129.0543   66.0869   -1.9135 C   0  0  0  0  0  0  0  0  0  0  0  0
  129.5748   64.7497   -2.4375 C   0  0  1  0  0  0  0  0  0  0  0  0
  131.0038   64.7264   -2.4332 O   0  0  0  0  0  0  0  0  0  0  0  0
  129.1009   63.6135   -1.5459 C   0  0  1  0  0  0  0  0  0  0  0  0
  128.5324   62.5717   -2.3450 O   0  0  0  0  0  0  0  0  0  0  0  0
  130.3303   63.1270   -0.7992 C   0  0  1  0  0  0  0  0  0  0  0  0
  130.5232   61.7186   -0.9706 O   0  0  0  0  0  0  0  0  0  0  0  0
  131.5121   63.8885   -1.3881 C   0  0  2  0  0  0  0  0  0  0  0  0
  126.9575   70.5104   -5.8512 O   0  0  0  0  0  0  0  0  0  0  0  0
  134.8086   67.8990   -0.3818 N   0  0  0  0  0  0  0  0  0  0  0  0
  134.4049   67.3933   -1.5645 C   0  0  0  0  0  0  0  0  0  0  0  0
  133.5497   66.3557   -1.6738 N   0  0  0  0  0  0  0  0  0  0  0  0
  133.0349   65.7433   -0.5735 C   0  0  0  0  0  0  0  0  0  0  0  0
  133.4315   66.2423    0.7550 C   0  0  0  0  0  0  0  0  0  0  0  0
  134.3745   67.3886    0.7955 C   0  0  0  0  0  0  0  0  0  0  0  0
  134.7893   67.9038    1.9773 N   0  0  0  0  0  0  0  0  0  0  0  0
  132.7934   65.4830    1.6619 N   0  0  0  0  0  0  0  0  0  0  0  0
  132.0546   64.5741    0.9782 C   0  0  0  0  0  0  0  0  0  0  0  0
  132.1940   64.7222   -0.3544 N   0  0  0  0  0  0  0  0  0  0  0  0
  2  1  1  6  0  0  0
  2  3  1  0  0  0  0
  2  5  1  0  0  0  0
  3  4  1  0  0  0  0
  3 16  1  0  0  0  0
  5  6  1  0  0  0  0
  6  7  1  0  0  0  0
  7  8  1  0  0  0  0
  9  8  1  1  0  0  0
  9 10  1  0  0  0  0
  9 11  1  0  0  0  0
 10 15  1  0  0  0  0
 11 12  1  6  0  0  0
 11 13  1  0  0  0  0
 13 14  1  6  0  0  0
 13 15  1  0  0  0  0
 15 26  1  1  0  0  0
 17 18  2  0  0  0  0
 17 22  1  0  0  0  0
 18 19  1  0  0  0  0
 19 20  2  0  0  0  0
 20 21  1  0  0  0  0
 20 26  1  0  0  0  0
 21 22  2  0  0  0  0
 21 24  1  0  0  0  0
 22 23  1  0  0  0  0
 24 25  2  0  0  0  0
 25 26  1  0  0  0  0
M  END
>  <CHROM.1>
120.57426946,-61.28394395,-176.53998227,91.31530647,-158.80688813,165.11433058
-43.54252830,130.28412159,66.55706930,-1.74147901,-2.44537597,0.47671037
2.89987240

>  <Name>
ligand

>  <RI>
0

>  <Rbt.Current_Directory>
/home/itssahil/PROJECTS/Mol_Feturizer/Test_systems_manuscript/rnas/3npn

>  <Rbt.Executable>
rbdock ($Id: //depot/dev/client3/rdock/2013.1/src/exe/rbdock.cxx#4 $)

>  <Rbt.Library>
libRbt.so (2013.1, Build901 2013/11/27)

>  <Rbt.Parameter_File>
/export/apps/rDock/src/rDock_2013.1_src/data/scripts/dock_solv.prm

>  <Rbt.Receptor>
prm/pocket_docking_5.prm

>  <SCORE>
-16.9093

>  <SCORE.INTER>
-16.7676

>  <SCORE.INTER.CONST>
1

>  <SCORE.INTER.POLAR>
0

>  <SCORE.INTER.ROT>
7

>  <SCORE.INTER.SOLV>
15.924

>  <SCORE.INTER.VDW>
-24.7531

>  <SCORE.INTER.norm>
-0.644909

>  <SCORE.INTRA>
-0.141658

>  <SCORE.INTRA.DIHEDRAL>
1.04609

>  <SCORE.INTRA.DIHEDRAL.0>
4.37896

>  <SCORE.INTRA.POLAR>
0

>  <SCORE.INTRA.POLAR.0>
0

>  <SCORE.INTRA.REPUL>
0

>  <SCORE.INTRA.REPUL.0>
0

>  <SCORE.INTRA.SOLV>
-0.184218

>  <SCORE.INTRA.SOLV.lig_0>
-50.5538

>  <SCORE.INTRA.VDW>
-0.572592

>  <SCORE.INTRA.VDW.0>
-1.30673

>  <SCORE.INTRA.norm>
-0.00544839

>  <SCORE.RESTR>
0

>  <SCORE.RESTR.CAVITY>
0

>  <SCORE.RESTR.norm>
0

>  <SCORE.SYSTEM>
0

>  <SCORE.SYSTEM.CONST>
0

>  <SCORE.SYSTEM.DIHEDRAL>
0

>  <SCORE.SYSTEM.SOLV>
0

>  <SCORE.SYSTEM.norm>
0

>  <SCORE.heavy>
26

>  <SCORE.norm>
-0.650358

>  <RMSD>
5.063

$$$$
ligand
 OpenBabel02271912153D
libRbt.so/2013.1/901 2013/11/27
 26 28  0  0  0  0  0  0  0  0999 V2000
  126.8880   71.6424   -3.8295 N   0  0  0  0  0  0  0  0  0  0  0  0
  127.2453   70.3945   -3.0918 C   0  0  2  0  0  0  0  0  0  0  0  0
  128.6794   70.0246   -3.3403 C   0  0  0  0  0  0  0  0  0  0  0  0
  129.3761   69.5370   -2.4512 O   0  0  0  0  0  0  0  0  0  0  0  0
  126.3384   69.2461   -3.5260 C   0  0  0  0  0  0  0  0  0  0  0  0
  126.4908   67.9962   -2.6647 C   0  0  0  0  0  0  0  0  0  0  0  0
  127.7500   66.9569   -3.3292 S   0  0  0  0  0  0  0  0  0  0  0  0
  127.8405   65.6632   -2.1337 C   0  0  0  0  0  0  0  0  0  0  0  0
  128.7906   64.5517   -2.5760 C   0  0  1  0  0  0  0  0  0  0  0  0
  130.1324   65.0366   -2.6593 O   0  0  0  0  0  0  0  0  0  0  0  0
  128.7814   63.4168   -1.5647 C   0  0  1  0  0  0  0  0  0  0  0  0
  128.6016   62.1666   -2.2370 O   0  0  0  0  0  0  0  0  0  0  0  0
  130.1245   63.4748   -0.8586 C   0  0  1  0  0  0  0  0  0  0  0  0
  130.8045   62.2164   -0.9237 O   0  0  0  0  0  0  0  0  0  0  0  0
  130.9372   64.5424   -1.5819 C   0  0  2  0  0  0  0  0  0  0  0  0
  129.1957   70.2110   -4.4412 O   0  0  0  0  0  0  0  0  0  0  0  0
  134.7662   67.0166    1.0978 N   0  0  0  0  0  0  0  0  0  0  0  0
  134.8355   65.9267    0.3072 C   0  0  0  0  0  0  0  0  0  0  0  0
  133.7657   65.3980   -0.3219 N   0  0  0  0  0  0  0  0  0  0  0  0
  132.5262   65.9433   -0.1909 C   0  0  0  0  0  0  0  0  0  0  0  0
  132.3733   67.1377    0.6584 C   0  0  0  0  0  0  0  0  0  0  0  0
  133.5962   67.6634    1.3166 C   0  0  0  0  0  0  0  0  0  0  0  0
  133.5388   68.7559    2.1149 N   0  0  0  0  0  0  0  0  0  0  0  0
  131.0738   67.4782    0.6201 N   0  0  0  0  0  0  0  0  0  0  0  0
  130.4456   66.5810   -0.1798 C   0  0  0  0  0  0  0  0  0  0  0  0
  131.3043   65.6627   -0.6661 N   0  0  0  0  0  0  0  0  0  0  0  0
  2  1  1  6  0  0  0
  2  3  1  0  0  0  0
  2  5  1  0  0  0  0
  3  4  1  0  0  0  0
  3 16  1  0  0  0  0
  5  6  1  0  0  0  0
  6  7  1  0  0  0  0
  7  8  1  0  0  0  0
  9  8  1  1  0  0  0
  9 10  1  0  0  0  0
  9 11  1  0  0  0  0
 10 15  1  0  0  0  0
 11 12  1  6  0  0  0
 11 13  1  0  0  0  0
 13 14  1  6  0  0  0
 13 15  1  0  0  0  0
 15 26  1  1  0  0  0
 17 18  2  0  0  0  0
 17 22  1  0  0  0  0
 18 19  1  0  0  0  0
 19 20  2  0  0  0  0
 20 21  1  0  0  0  0
 20 26  1  0  0  0  0
 21 22  2  0  0  0  0
 21 24  1  0  0  0  0
 22 23  1  0  0  0  0
 24 25  2  0  0  0  0
 25 26  1  0  0  0  0
M  END
>  <CHROM.1>
143.23872688,-170.88902579,-89.40160145,175.86355748,174.38826682,64.73941160
-131.83385383,130.05729603,66.70833225,-1.55534148,-2.60944923,0.58420114
3.09495975

>  <Name>
ligand

>  <RI>
0

>  <Rbt.Current_Directory>
/home/itssahil/PROJECTS/Mol_Feturizer/Test_systems_manuscript/rnas/3npn

>  <Rbt.Executable>
rbdock ($Id: //depot/dev/client3/rdock/2013.1/src/exe/rbdock.cxx#4 $)

>  <Rbt.Library>
libRbt.so (2013.1, Build901 2013/11/27)

>  <Rbt.Parameter_File>
/export/apps/rDock/src/rDock_2013.1_src/data/scripts/dock_solv.prm

>  <Rbt.Receptor>
prm/pocket_docking_5.prm

>  <SCORE>
-16.1359

>  <SCORE.INTER>
-14.6636

>  <SCORE.INTER.CONST>
1

>  <SCORE.INTER.POLAR>
0

>  <SCORE.INTER.ROT>
7

>  <SCORE.INTER.SOLV>
17.3537

>  <SCORE.INTER.VDW>
-23.8269

>  <SCORE.INTER.norm>
-0.563983

>  <SCORE.INTRA>
-1.47228

>  <SCORE.INTRA.DIHEDRAL>
1.46

>  <SCORE.INTRA.DIHEDRAL.0>
4.37896

>  <SCORE.INTRA.POLAR>
0

>  <SCORE.INTRA.POLAR.0>
0

>  <SCORE.INTRA.REPUL>
0

>  <SCORE.INTRA.REPUL.0>
0

>  <SCORE.INTRA.SOLV>
-0.791502

>  <SCORE.INTRA.SOLV.lig_0>
-50.5538

>  <SCORE.INTRA.VDW>
-1.80653

>  <SCORE.INTRA.VDW.0>
-1.30673

>  <SCORE.INTRA.norm>
-0.0566262

>  <SCORE.RESTR>
0

>  <SCORE.RESTR.CAVITY>
0

>  <SCORE.RESTR.norm>
0

>  <SCORE.SYSTEM>
0

>  <SCORE.SYSTEM.CONST>
0

>  <SCORE.SYSTEM.DIHEDRAL>
0

>  <SCORE.SYSTEM.SOLV>
0

>  <SCORE.SYSTEM.norm>
0

>  <SCORE.heavy>
26

>  <SCORE.norm>
-0.62061

>  <RMSD>
5.075

$$$$
ligand
 OpenBabel02271912153D
libRbt.so/2013.1/901 2013/11/27
 26 28  0  0  0  0  0  0  0  0999 V2000
  127.9892   70.0183   -2.4017 N   0  0  0  0  0  0  0  0  0  0  0  0
  127.4398   69.5434   -3.7063 C   0  0  2  0  0  0  0  0  0  0  0  0
  126.9699   70.7031   -4.5366 C   0  0  0  0  0  0  0  0  0  0  0  0
  126.9213   70.6311   -5.7639 O   0  0  0  0  0  0  0  0  0  0  0  0
  126.2800   68.5793   -3.4715 C   0  0  0  0  0  0  0  0  0  0  0  0
  126.6260   67.4371   -2.5212 C   0  0  0  0  0  0  0  0  0  0  0  0
  127.9691   66.4987   -3.1714 S   0  0  0  0  0  0  0  0  0  0  0  0
  128.1040   65.1788   -2.0092 C   0  0  0  0  0  0  0  0  0  0  0  0
  129.0510   64.0866   -2.5032 C   0  0  1  0  0  0  0  0  0  0  0  0
  130.4098   64.5232   -2.4279 O   0  0  0  0  0  0  0  0  0  0  0  0
  128.9252   62.8465   -1.6331 C   0  0  1  0  0  0  0  0  0  0  0  0
  128.7606   61.6882   -2.4567 O   0  0  0  0  0  0  0  0  0  0  0  0
  130.2085   62.7705   -0.8251 C   0  0  1  0  0  0  0  0  0  0  0  0
  130.8517   61.5010   -0.9830 O   0  0  0  0  0  0  0  0  0  0  0  0
  131.1097   63.8789   -1.3566 C   0  0  2  0  0  0  0  0  0  0  0  0
  126.6307   71.7601   -4.0066 O   0  0  0  0  0  0  0  0  0  0  0  0
  130.0649   68.5994    0.7856 N   0  0  0  0  0  0  0  0  0  0  0  0
  129.5014   67.9941   -0.2792 C   0  0  0  0  0  0  0  0  0  0  0  0
  129.8710   66.7738   -0.7196 N   0  0  0  0  0  0  0  0  0  0  0  0
  130.8572   66.0674   -0.1038 C   0  0  0  0  0  0  0  0  0  0  0  0
  131.5194   66.6661    1.0685 C   0  0  0  0  0  0  0  0  0  0  0  0
  131.0575   68.0112    1.4954 C   0  0  0  0  0  0  0  0  0  0  0  0
  131.6174   68.6305    2.5618 N   0  0  0  0  0  0  0  0  0  0  0  0
  132.4394   65.7813    1.4893 N   0  0  0  0  0  0  0  0  0  0  0  0
  132.3771   64.7101    0.6599 C   0  0  0  0  0  0  0  0  0  0  0  0
  131.4373   64.8734   -0.2925 N   0  0  0  0  0  0  0  0  0  0  0  0
  2  1  1  1  0  0  0
  2  3  1  0  0  0  0
  2  5  1  0  0  0  0
  3  4  1  0  0  0  0
  3 16  1  0  0  0  0
  5  6  1  0  0  0  0
  6  7  1  0  0  0  0
  7  8  1  0  0  0  0
  9  8  1  1  0  0  0
  9 10  1  0  0  0  0
  9 11  1  0  0  0  0
 10 15  1  0  0  0  0
 11 12  1  6  0  0  0
 11 13  1  0  0  0  0
 13 14  1  6  0  0  0
 13 15  1  0  0  0  0
 15 26  1  1  0  0  0
 17 18  2  0  0  0  0
 17 22  1  0  0  0  0
 18 19  1  0  0  0  0
 19 20  2  0  0  0  0
 20 21  1  0  0  0  0
 20 26  1  0  0  0  0
 21 22  2  0  0  0  0
 21 24  1  0  0  0  0
 22 23  1  0  0  0  0
 24 25  2  0  0  0  0
 25 26  1  0  0  0  0
M  END
>  <CHROM.1>
154.45224628,-52.30156077,-59.73362927,-175.31951298,169.73749154,73.15386438
19.38304224,129.30400651,66.51264471,-1.58539341,-2.43125880,0.88121126,-2.94001532

>  <Name>
ligand

>  <RI>
0

>  <Rbt.Current_Directory>
/home/itssahil/PROJECTS/Mol_Feturizer/Test_systems_manuscript/rnas/3npn

>  <Rbt.Executable>
rbdock ($Id: //depot/dev/client3/rdock/2013.1/src/exe/rbdock.cxx#4 $)

>  <Rbt.Library>
libRbt.so (2013.1, Build901 2013/11/27)

>  <Rbt.Parameter_File>
/export/apps/rDock/src/rDock_2013.1_src/data/scripts/dock_solv.prm

>  <Rbt.Receptor>
prm/pocket_docking_7.prm

>  <SCORE>
-22.5846

>  <SCORE.INTER>
-21.6161

>  <SCORE.INTER.CONST>
1

>  <SCORE.INTER.POLAR>
0

>  <SCORE.INTER.ROT>
7

>  <SCORE.INTER.SOLV>
14.2585

>  <SCORE.INTER.VDW>
-27.4302

>  <SCORE.INTER.norm>
-0.831388

>  <SCORE.INTRA>
-0.968513

>  <SCORE.INTRA.DIHEDRAL>
-0.677186

>  <SCORE.INTRA.DIHEDRAL.0>
4.37896

>  <SCORE.INTRA.POLAR>
0

>  <SCORE.INTRA.POLAR.0>
0

>  <SCORE.INTRA.REPUL>
0

>  <SCORE.INTRA.REPUL.0>
0

>  <SCORE.INTRA.SOLV>
1.14923

>  <SCORE.INTRA.SOLV.lig_0>
-50.5538

>  <SCORE.INTRA.VDW>
-1.20453

>  <SCORE.INTRA.VDW.0>
-1.30673

>  <SCORE.INTRA.norm>
-0.0372505

>  <SCORE.RESTR>
0

>  <SCORE.RESTR.CAVITY>
0

>  <SCORE.RESTR.norm>
0

>  <SCORE.SYSTEM>
0

>  <SCORE.SYSTEM.CONST>
0

>  <SCORE.SYSTEM.DIHEDRAL>
0

>  <SCORE.SYSTEM.SOLV>
0

>  <SCORE.SYSTEM.norm>
0

>  <SCORE.heavy>
26

>  <SCORE.norm>
-0.868639

>  <RMSD>
5.122

$$$$
ligand
 OpenBabel02271912153D
libRbt.so/2013.1/901 2013/11/27
 26 28  0  0  0  0  0  0  0  0999 V2000
  125.8531   71.7753   -3.5774 N   0  0  0  0  0  0  0  0  0  0  0  0
  127.0024   70.8228   -3.5434 C   0  0  2  0  0  0  0  0  0  0  0  0
  127.6714   70.7522   -4.8861 C   0  0  0  0  0  0  0  0  0  0  0  0
  128.8498   71.0752   -5.0298 O   0  0  0  0  0  0  0  0  0  0  0  0
  126.5238   69.4317   -3.1367 C   0  0  0  0  0  0  0  0  0  0  0  0
  127.6636   68.4706   -2.8131 C   0  0  0  0  0  0  0  0  0  0  0  0
  127.0268   66.8480   -2.5503 S   0  0  0  0  0  0  0  0  0  0  0  0
  128.3499   66.0586   -1.6916 C   0  0  0  0  0  0  0  0  0  0  0  0
  128.7711   64.7594   -2.3761 C   0  0  1  0  0  0  0  0  0  0  0  0
  130.0715   64.8907   -2.9542 O   0  0  0  0  0  0  0  0  0  0  0  0
  128.8381   63.6277   -1.3634 C   0  0  1  0  0  0  0  0  0  0  0  0
  128.1251   62.4896   -1.8567 O   0  0  0  0  0  0  0  0  0  0  0  0
  130.3131   63.3172   -1.1802 C   0  0  1  0  0  0  0  0  0  0  0  0
  130.5882   61.9307   -1.4087 O   0  0  0  0  0  0  0  0  0  0  0  0
  131.0553   64.1694   -2.2030 C   0  0  2  0  0  0  0  0  0  0  0  0
  127.0505   70.3773   -5.8796 O   0  0  0  0  0  0  0  0  0  0  0  0
  131.6528   68.1234    1.2573 N   0  0  0  0  0  0  0  0  0  0  0  0
  130.5369   67.4603    0.8928 C   0  0  0  0  0  0  0  0  0  0  0  0
  130.5313   66.4603   -0.0126 N   0  0  0  0  0  0  0  0  0  0  0  0
  131.6754   66.0546   -0.6268 C   0  0  0  0  0  0  0  0  0  0  0  0
  132.9356   66.7340   -0.2782 C   0  0  0  0  0  0  0  0  0  0  0  0
  132.8631   67.8237    0.7279 C   0  0  0  0  0  0  0  0  0  0  0  0
  133.9766   68.4988    1.1003 N   0  0  0  0  0  0  0  0  0  0  0  0
  133.9042   66.1549   -1.0079 N   0  0  0  0  0  0  0  0  0  0  0  0
  133.3192   65.1909   -1.7614 C   0  0  0  0  0  0  0  0  0  0  0  0
  131.9911   65.1256   -1.5407 N   0  0  0  0  0  0  0  0  0  0  0  0
  2  1  1  6  0  0  0
  2  3  1  0  0  0  0
  2  5  1  0  0  0  0
  3  4  1  0  0  0  0
  3 16  1  0  0  0  0
  5  6  1  0  0  0  0
  6  7  1  0  0  0  0
  7  8  1  0  0  0  0
  9  8  1  1  0  0  0
  9 10  1  0  0  0  0
  9 11  1  0  0  0  0
 10 15  1  0  0  0  0
 11 12  1  6  0  0  0
 11 13  1  0  0  0  0
 13 14  1  6  0  0  0
 13 15  1  0  0  0  0
 15 26  1  1  0  0  0
 17 18  2  0  0  0  0
 17 22  1  0  0  0  0
 18 19  1  0  0  0  0
 19 20  2  0  0  0  0
 20 21  1  0  0  0  0
 20 26  1  0  0  0  0
 21 22  2  0  0  0  0
 21 24  1  0  0  0  0
 22 23  1  0  0  0  0
 24 25  2  0  0  0  0
 25 26  1  0  0  0  0
M  END
>  <CHROM.1>
118.70073504,-168.67990454,-173.05367557,-161.88819338,-126.30852212,111.16078797
61.70304949,129.68435972,66.84800773,-1.93445060,-2.34467471,0.55938292,3.04814699

>  <Name>
ligand

>  <RI>
0

>  <Rbt.Current_Directory>
/home/itssahil/PROJECTS/Mol_Feturizer/Test_systems_manuscript/rnas/3npn

>  <Rbt.Executable>
rbdock ($Id: //depot/dev/client3/rdock/2013.1/src/exe/rbdock.cxx#4 $)

>  <Rbt.Library>
libRbt.so (2013.1, Build901 2013/11/27)

>  <Rbt.Parameter_File>
/export/apps/rDock/src/rDock_2013.1_src/data/scripts/dock_solv.prm

>  <Rbt.Receptor>
prm/pocket_docking_4.prm

>  <SCORE>
-15.0335

>  <SCORE.INTER>
-16.6884

>  <SCORE.INTER.CONST>
1

>  <SCORE.INTER.POLAR>
0

>  <SCORE.INTER.ROT>
7

>  <SCORE.INTER.SOLV>
20.5308

>  <SCORE.INTER.VDW>
-26.2359

>  <SCORE.INTER.norm>
-0.641862

>  <SCORE.INTRA>
1.65469

>  <SCORE.INTRA.DIHEDRAL>
6.77941

>  <SCORE.INTRA.DIHEDRAL.0>
4.37896

>  <SCORE.INTRA.POLAR>
0

>  <SCORE.INTRA.POLAR.0>
0

>  <SCORE.INTRA.REPUL>
0

>  <SCORE.INTRA.REPUL.0>
0

>  <SCORE.INTRA.SOLV>
-0.975352

>  <SCORE.INTRA.SOLV.lig_0>
-50.5538

>  <SCORE.INTRA.VDW>
-1.24734

>  <SCORE.INTRA.VDW.0>
-1.30673

>  <SCORE.INTRA.norm>
0.0636418

>  <SCORE.RESTR>
0.000254506

>  <SCORE.RESTR.CAVITY>
0.000254506

>  <SCORE.RESTR.norm>
9.78871e-06

>  <SCORE.SYSTEM>
0

>  <SCORE.SYSTEM.CONST>
0

>  <SCORE.SYSTEM.DIHEDRAL>
0

>  <SCORE.SYSTEM.SOLV>
0

>  <SCORE.SYSTEM.norm>
0

>  <SCORE.heavy>
26

>  <SCORE.norm>
-0.57821

>  <RMSD>
5.127

$$$$
ligand
 OpenBabel02271912153D
libRbt.so/2013.1/901 2013/11/27
 26 28  0  0  0  0  0  0  0  0999 V2000
  128.5775   70.3159   -2.6001 N   0  0  0  0  0  0  0  0  0  0  0  0
  127.9290   69.6631   -3.7759 C   0  0  2  0  0  0  0  0  0  0  0  0
  127.6391   70.6728   -4.8490 C   0  0  0  0  0  0  0  0  0  0  0  0
  126.7774   70.4673   -5.7028 O   0  0  0  0  0  0  0  0  0  0  0  0
  126.6314   68.9803   -3.3520 C   0  0  0  0  0  0  0  0  0  0  0  0
  126.8515   67.7704   -2.4492 C   0  0  0  0  0  0  0  0  0  0  0  0
  127.9139   66.6106   -3.2451 S   0  0  0  0  0  0  0  0  0  0  0  0
  128.0198   65.3161   -2.0517 C   0  0  0  0  0  0  0  0  0  0  0  0
  128.9278   64.1833   -2.5272 C   0  0  1  0  0  0  0  0  0  0  0  0
  130.3022   64.5643   -2.4354 O   0  0  0  0  0  0  0  0  0  0  0  0
  128.7395   62.9543   -1.6527 C   0  0  1  0  0  0  0  0  0  0  0  0
  128.5385   61.7991   -2.4727 O   0  0  0  0  0  0  0  0  0  0  0  0
  130.0076   62.8303   -0.8267 C   0  0  1  0  0  0  0  0  0  0  0  0
  130.6001   61.5346   -0.9694 O   0  0  0  0  0  0  0  0  0  0  0  0
  130.9606   63.8978   -1.3514 C   0  0  2  0  0  0  0  0  0  0  0  0
  128.2665   71.7294   -4.9050 O   0  0  0  0  0  0  0  0  0  0  0  0
  130.2419   68.7502    0.6240 N   0  0  0  0  0  0  0  0  0  0  0  0
  129.6915   68.1737   -0.4634 C   0  0  0  0  0  0  0  0  0  0  0  0
  129.9689   66.9128   -0.8544 N   0  0  0  0  0  0  0  0  0  0  0  0
  130.8412   66.1321   -0.1613 C   0  0  0  0  0  0  0  0  0  0  0  0
  131.4823   66.6955    1.0399 C   0  0  0  0  0  0  0  0  0  0  0  0
  131.1261   68.0890    1.4089 C   0  0  0  0  0  0  0  0  0  0  0  0
  131.6742   68.6797    2.4974 N   0  0  0  0  0  0  0  0  0  0  0  0
  132.2841   65.7386    1.5376 N   0  0  0  0  0  0  0  0  0  0  0  0
  132.1716   64.6569    0.7273 C   0  0  0  0  0  0  0  0  0  0  0  0
  131.3143   64.8840   -0.2879 N   0  0  0  0  0  0  0  0  0  0  0  0
  2  1  1  1  0  0  0
  2  3  1  0  0  0  0
  2  5  1  0  0  0  0
  3  4  1  0  0  0  0
  3 16  1  0  0  0  0
  5  6  1  0  0  0  0
  6  7  1  0  0  0  0
  7  8  1  0  0  0  0
  9  8  1  1  0  0  0
  9 10  1  0  0  0  0
  9 11  1  0  0  0  0
 10 15  1  0  0  0  0
 11 12  1  6  0  0  0
 11 13  1  0  0  0  0
 13 14  1  6  0  0  0
 13 15  1  0  0  0  0
 15 26  1  1  0  0  0
 17 18  2  0  0  0  0
 17 22  1  0  0  0  0
 18 19  1  0  0  0  0
 19 20  2  0  0  0  0
 20 21  1  0  0  0  0
 20 26  1  0  0  0  0
 21 22  2  0  0  0  0
 21 24  1  0  0  0  0
 22 23  1  0  0  0  0
 24 25  2  0  0  0  0
 25 26  1  0  0  0  0
M  END
>  <CHROM.1>
-157.82220382,-68.25274112,-56.28828209,-179.65611736,-179.13326390,74.98818105
14.96803755,129.39600102,66.59950860,-1.66418958,-2.28618360,0.91973372,-3.08397641

>  <Name>
ligand

>  <RI>
0

>  <Rbt.Current_Directory>
/home/itssahil/PROJECTS/Mol_Feturizer/Test_systems_manuscript/rnas/3npn

>  <Rbt.Executable>
rbdock ($Id: //depot/dev/client3/rdock/2013.1/src/exe/rbdock.cxx#4 $)

>  <Rbt.Library>
libRbt.so (2013.1, Build901 2013/11/27)

>  <Rbt.Parameter_File>
/export/apps/rDock/src/rDock_2013.1_src/data/scripts/dock_solv.prm

>  <Rbt.Receptor>
prm/pocket_docking_6.prm

>  <SCORE>
-22.272

>  <SCORE.INTER>
-21.2353

>  <SCORE.INTER.CONST>
1

>  <SCORE.INTER.POLAR>
0

>  <SCORE.INTER.ROT>
7

>  <SCORE.INTER.SOLV>
14.1365

>  <SCORE.INTER.VDW>
-27.1357

>  <SCORE.INTER.norm>
-0.816741

>  <SCORE.INTRA>
-1.04384

>  <SCORE.INTRA.DIHEDRAL>
-0.645478

>  <SCORE.INTRA.DIHEDRAL.0>
4.37896

>  <SCORE.INTRA.POLAR>
0

>  <SCORE.INTRA.POLAR.0>
0

>  <SCORE.INTRA.REPUL>
0

>  <SCORE.INTRA.REPUL.0>
0

>  <SCORE.INTRA.SOLV>
0.933493

>  <SCORE.INTRA.SOLV.lig_0>
-50.5538

>  <SCORE.INTRA.VDW>
-1.18785

>  <SCORE.INTRA.VDW.0>
-1.30673

>  <SCORE.INTRA.norm>
-0.0401477

>  <SCORE.RESTR>
0.00709329

>  <SCORE.RESTR.CAVITY>
0.00709329

>  <SCORE.RESTR.norm>
0.000272819

>  <SCORE.SYSTEM>
0

>  <SCORE.SYSTEM.CONST>
0

>  <SCORE.SYSTEM.DIHEDRAL>
0

>  <SCORE.SYSTEM.SOLV>
0

>  <SCORE.SYSTEM.norm>
0

>  <SCORE.heavy>
26

>  <SCORE.norm>
-0.856616

>  <RMSD>
5.158

$$$$
ligand
 OpenBabel02271912153D
libRbt.so/2013.1/901 2013/11/27
 26 28  0  0  0  0  0  0  0  0999 V2000
  135.1789   64.4749   -4.9452 N   0  0  0  0  0  0  0  0  0  0  0  0
  133.9692   65.1925   -4.4442 C   0  0  2  0  0  0  0  0  0  0  0  0
  133.3698   64.4668   -3.2741 C   0  0  0  0  0  0  0  0  0  0  0  0
  133.8815   63.4400   -2.8296 O   0  0  0  0  0  0  0  0  0  0  0  0
  132.9305   65.3166   -5.5557 C   0  0  0  0  0  0  0  0  0  0  0  0
  132.2656   66.6886   -5.6116 C   0  0  0  0  0  0  0  0  0  0  0  0
  130.8662   66.7236   -4.5404 S   0  0  0  0  0  0  0  0  0  0  0  0
  131.4549   67.6836   -3.1828 C   0  0  0  0  0  0  0  0  0  0  0  0
  130.3169   68.1070   -2.2557 C   0  0  1  0  0  0  0  0  0  0  0  0
  129.4768   66.9935   -1.9447 O   0  0  0  0  0  0  0  0  0  0  0  0
  130.8744   68.6339   -0.9433 C   0  0  1  0  0  0  0  0  0  0  0  0
  130.2682   69.8906   -0.6260 O   0  0  0  0  0  0  0  0  0  0  0  0
  130.5454   67.5835    0.1026 C   0  0  1  0  0  0  0  0  0  0  0  0
  129.8361   68.1513    1.2092 O   0  0  0  0  0  0  0  0  0  0  0  0
  129.6730   66.5479   -0.5973 C   0  0  2  0  0  0  0  0  0  0  0  0
  132.3428   64.8789   -2.7369 O   0  0  0  0  0  0  0  0  0  0  0  0
  129.2973   61.4430   -1.9250 N   0  0  0  0  0  0  0  0  0  0  0  0
  128.4164   62.4470   -2.1092 C   0  0  0  0  0  0  0  0  0  0  0  0
  128.6467   63.7166   -1.7157 N   0  0  0  0  0  0  0  0  0  0  0  0
  129.8051   64.0663   -1.0939 C   0  0  0  0  0  0  0  0  0  0  0  0
  130.8161   63.0206   -0.8583 C   0  0  0  0  0  0  0  0  0  0  0  0
  130.4925   61.6472   -1.3210 C   0  0  0  0  0  0  0  0  0  0  0  0
  131.3679   60.6300   -1.1394 N   0  0  0  0  0  0  0  0  0  0  0  0
  131.8527   63.6138   -0.2421 N   0  0  0  0  0  0  0  0  0  0  0  0
  131.5358   64.9239   -0.0915 C   0  0  0  0  0  0  0  0  0  0  0  0
  130.3168   65.2011   -0.5957 N   0  0  0  0  0  0  0  0  0  0  0  0
  2  1  1  6  0  0  0
  2  3  1  0  0  0  0
  2  5  1  0  0  0  0
  3  4  1  0  0  0  0
  3 16  1  0  0  0  0
  5  6  1  0  0  0  0
  6  7  1  0  0  0  0
  7  8  1  0  0  0  0
  9  8  1  6  0  0  0
  9 10  1  0  0  0  0
  9 11  1  0  0  0  0
 10 15  1  0  0  0  0
 11 12  1  1  0  0  0
 11 13  1  0  0  0  0
 13 14  1  1  0  0  0
 13 15  1  0  0  0  0
 15 26  1  6  0  0  0
 17 18  2  0  0  0  0
 17 22  1  0  0  0  0
 18 19  1  0  0  0  0
 19 20  2  0  0  0  0
 20 21  1  0  0  0  0
 20 26  1  0  0  0  0
 21 22  2  0  0  0  0
 21 24  1  0  0  0  0
 22 23  1  0  0  0  0
 24 25  2  0  0  0  0
 25 26  1  0  0  0  0
M  END
>  <CHROM.1>
1.34944780,-137.57367968,-87.60642585,105.33593877,167.64157004,47.82870230
-62.96269637,131.14706850,65.35312225,-2.17582389,-1.17331428,0.89330428
-0.07384075

>  <Name>
ligand

>  <RI>
0

>  <Rbt.Current_Directory>
/home/itssahil/PROJECTS/Mol_Feturizer/Test_systems_manuscript/rnas/3npn

>  <Rbt.Executable>
rbdock ($Id: //depot/dev/client3/rdock/2013.1/src/exe/rbdock.cxx#4 $)

>  <Rbt.Library>
libRbt.so (2013.1, Build901 2013/11/27)

>  <Rbt.Parameter_File>
/export/apps/rDock/src/rDock_2013.1_src/data/scripts/dock_solv.prm

>  <Rbt.Receptor>
prm/pocket_docking_7.prm

>  <SCORE>
-11.8567

>  <SCORE.INTER>
-13.1285

>  <SCORE.INTER.CONST>
1

>  <SCORE.INTER.POLAR>
0

>  <SCORE.INTER.ROT>
7

>  <SCORE.INTER.SOLV>
15.9869

>  <SCORE.INTER.VDW>
-22.348

>  <SCORE.INTER.norm>
-0.504943

>  <SCORE.INTRA>
1.27185

>  <SCORE.INTRA.DIHEDRAL>
8.19618

>  <SCORE.INTRA.DIHEDRAL.0>
4.37896

>  <SCORE.INTRA.POLAR>
0

>  <SCORE.INTRA.POLAR.0>
0

>  <SCORE.INTRA.REPUL>
0

>  <SCORE.INTRA.REPUL.0>
0

>  <SCORE.INTRA.SOLV>
-0.592275

>  <SCORE.INTRA.SOLV.lig_0>
-50.5538

>  <SCORE.INTRA.VDW>
-2.5301

>  <SCORE.INTRA.VDW.0>
-1.30673

>  <SCORE.INTRA.norm>
0.0489174

>  <SCORE.RESTR>
0

>  <SCORE.RESTR.CAVITY>
0

>  <SCORE.RESTR.norm>
0

>  <SCORE.SYSTEM>
0

>  <SCORE.SYSTEM.CONST>
0

>  <SCORE.SYSTEM.DIHEDRAL>
0

>  <SCORE.SYSTEM.SOLV>
0

>  <SCORE.SYSTEM.norm>
0

>  <SCORE.heavy>
26

>  <SCORE.norm>
-0.456025

>  <RMSD>
5.169

$$$$
ligand
 OpenBabel02271912153D
libRbt.so/2013.1/901 2013/11/27
 26 28  0  0  0  0  0  0  0  0999 V2000
  127.7056   69.2293   -4.7286 N   0  0  0  0  0  0  0  0  0  0  0  0
  126.4248   69.5508   -4.0319 C   0  0  2  0  0  0  0  0  0  0  0  0
  126.5587   70.8167   -3.2351 C   0  0  0  0  0  0  0  0  0  0  0  0
  125.6517   71.2083   -2.5019 O   0  0  0  0  0  0  0  0  0  0  0  0
  126.0242   68.4044   -3.1072 C   0  0  0  0  0  0  0  0  0  0  0  0
  127.1544   67.9418   -2.1928 C   0  0  0  0  0  0  0  0  0  0  0  0
  128.1760   66.7805   -3.0385 S   0  0  0  0  0  0  0  0  0  0  0  0
  128.1179   65.3790   -1.9692 C   0  0  0  0  0  0  0  0  0  0  0  0
  129.0133   64.2481   -2.4723 C   0  0  1  0  0  0  0  0  0  0  0  0
  130.3920   64.6094   -2.3670 O   0  0  0  0  0  0  0  0  0  0  0  0
  128.8073   62.9987   -1.6312 C   0  0  1  0  0  0  0  0  0  0  0  0
  128.5946   61.8682   -2.4821 O   0  0  0  0  0  0  0  0  0  0  0  0
  130.0715   62.8371   -0.8057 C   0  0  1  0  0  0  0  0  0  0  0  0
  130.6484   61.5384   -0.9812 O   0  0  0  0  0  0  0  0  0  0  0  0
  131.0390   63.9064   -1.2994 C   0  0  2  0  0  0  0  0  0  0  0  0
  127.5795   71.4995   -3.3054 O   0  0  0  0  0  0  0  0  0  0  0  0
  130.4066   68.7276    0.7789 N   0  0  0  0  0  0  0  0  0  0  0  0
  129.8568   68.1890   -0.3280 C   0  0  0  0  0  0  0  0  0  0  0  0
  130.1102   66.9313   -0.7447 N   0  0  0  0  0  0  0  0  0  0  0  0
  130.9557   66.1150   -0.0595 C   0  0  0  0  0  0  0  0  0  0  0  0
  131.5945   66.6359    1.1620 C   0  0  0  0  0  0  0  0  0  0  0  0
  131.2655   68.0284    1.5589 C   0  0  0  0  0  0  0  0  0  0  0  0
  131.8134   68.5813    2.6672 N   0  0  0  0  0  0  0  0  0  0  0  0
  132.3679   65.6496    1.6470 N   0  0  0  0  0  0  0  0  0  0  0  0
  132.2409   64.5896    0.8106 C   0  0  0  0  0  0  0  0  0  0  0  0
  131.4018   64.8595   -0.2092 N   0  0  0  0  0  0  0  0  0  0  0  0
  2  1  1  1  0  0  0
  2  3  1  0  0  0  0
  2  5  1  0  0  0  0
  3  4  1  0  0  0  0
  3 16  1  0  0  0  0
  5  6  1  0  0  0  0
  6  7  1  0  0  0  0
  7  8  1  0  0  0  0
  9  8  1  1  0  0  0
  9 10  1  0  0  0  0
  9 11  1  0  0  0  0
 10 15  1  0  0  0  0
 11 12  1  6  0  0  0
 11 13  1  0  0  0  0
 13 14  1  6  0  0  0
 13 15  1  0  0  0  0
 15 26  1  1  0  0  0
 17 18  2  0  0  0  0
 17 22  1  0  0  0  0
 18 19  1  0  0  0  0
 19 20  2  0  0  0  0
 20 21  1  0  0  0  0
 20 26  1  0  0  0  0
 21 22  2  0  0  0  0
 21 24  1  0  0  0  0
 22 23  1  0  0  0  0
 24 25  2  0  0  0  0
 25 26  1  0  0  0  0
M  END
>  <CHROM.1>
-174.36818084,49.59057587,-84.45512711,-123.51472242,-176.82459540,68.48763468
14.12465826,129.27487810,66.57843636,-1.40736849,2.42451072,-0.81176206,0.25003708

>  <Name>
ligand

>  <RI>
0

>  <Rbt.Current_Directory>
/home/itssahil/PROJECTS/Mol_Feturizer/Test_systems_manuscript/rnas/3npn

>  <Rbt.Executable>
rbdock ($Id: //depot/dev/client3/rdock/2013.1/src/exe/rbdock.cxx#4 $)

>  <Rbt.Library>
libRbt.so (2013.1, Build901 2013/11/27)

>  <Rbt.Parameter_File>
/export/apps/rDock/src/rDock_2013.1_src/data/scripts/dock_solv.prm

>  <Rbt.Receptor>
prm/pocket_docking_8.prm

>  <SCORE>
-21.0493

>  <SCORE.INTER>
-22.2318

>  <SCORE.INTER.CONST>
1

>  <SCORE.INTER.POLAR>
0

>  <SCORE.INTER.ROT>
7

>  <SCORE.INTER.SOLV>
14.2097

>  <SCORE.INTER.VDW>
-27.8244

>  <SCORE.INTER.norm>
-0.855068

>  <SCORE.INTRA>
1.18249

>  <SCORE.INTRA.DIHEDRAL>
3.32072

>  <SCORE.INTRA.DIHEDRAL.0>
4.37896

>  <SCORE.INTRA.POLAR>
0

>  <SCORE.INTRA.POLAR.0>
0

>  <SCORE.INTRA.REPUL>
0

>  <SCORE.INTRA.REPUL.0>
0

>  <SCORE.INTRA.SOLV>
1.22131

>  <SCORE.INTRA.SOLV.lig_0>
-50.5538

>  <SCORE.INTRA.VDW>
-1.08853

>  <SCORE.INTRA.VDW.0>
-1.30673

>  <SCORE.INTRA.norm>
0.0454803

>  <SCORE.RESTR>
0

>  <SCORE.RESTR.CAVITY>
0

>  <SCORE.RESTR.norm>
0

>  <SCORE.SYSTEM>
0

>  <SCORE.SYSTEM.CONST>
0

>  <SCORE.SYSTEM.DIHEDRAL>
0

>  <SCORE.SYSTEM.SOLV>
0

>  <SCORE.SYSTEM.norm>
0

>  <SCORE.heavy>
26

>  <SCORE.norm>
-0.809588

>  <RMSD>
5.210

$$$$
ligand
 OpenBabel02271912153D
libRbt.so/2013.1/901 2013/11/27
 26 28  0  0  0  0  0  0  0  0999 V2000
  128.4432   70.9238   -2.4539 N   0  0  0  0  0  0  0  0  0  0  0  0
  127.6553   69.9745   -3.2949 C   0  0  2  0  0  0  0  0  0  0  0  0
  126.6963   70.7200   -4.1780 C   0  0  0  0  0  0  0  0  0  0  0  0
  126.0182   71.6495   -3.7423 O   0  0  0  0  0  0  0  0  0  0  0  0
  126.8832   69.0000   -2.4095 C   0  0  0  0  0  0  0  0  0  0  0  0
  126.3600   67.7817   -3.1642 C   0  0  0  0  0  0  0  0  0  0  0  0
  127.7086   66.7848   -3.7071 S   0  0  0  0  0  0  0  0  0  0  0  0
  127.8822   65.6325   -2.3830 C   0  0  0  0  0  0  0  0  0  0  0  0
  129.1434   64.7840   -2.5353 C   0  0  1  0  0  0  0  0  0  0  0  0
  130.3131   65.5675   -2.2893 O   0  0  0  0  0  0  0  0  0  0  0  0
  129.1393   63.6475   -1.5257 C   0  0  1  0  0  0  0  0  0  0  0  0
  129.4297   62.4105   -2.1835 O   0  0  0  0  0  0  0  0  0  0  0  0
  130.2078   63.9924   -0.5034 C   0  0  1  0  0  0  0  0  0  0  0  0
  131.1532   62.9273   -0.3553 O   0  0  0  0  0  0  0  0  0  0  0  0
  130.9088   65.2399   -1.0282 C   0  0  2  0  0  0  0  0  0  0  0  0
  126.5590   70.4103   -5.3605 O   0  0  0  0  0  0  0  0  0  0  0  0
  132.6949   67.6755    3.3125 N   0  0  0  0  0  0  0  0  0  0  0  0
  133.1312   66.5467    2.7182 C   0  0  0  0  0  0  0  0  0  0  0  0
  132.5746   66.0343    1.6013 N   0  0  0  0  0  0  0  0  0  0  0  0
  131.5156   66.6375    0.9969 C   0  0  0  0  0  0  0  0  0  0  0  0
  130.9839   67.8769    1.5905 C   0  0  0  0  0  0  0  0  0  0  0  0
  131.6496   68.3812    2.8184 C   0  0  0  0  0  0  0  0  0  0  0  0
  131.2188   69.5124    3.4258 N   0  0  0  0  0  0  0  0  0  0  0  0
  129.9583   68.2701    0.8160 N   0  0  0  0  0  0  0  0  0  0  0  0
  129.8385   67.3629   -0.1850 C   0  0  0  0  0  0  0  0  0  0  0  0
  130.7623   66.3865   -0.0835 N   0  0  0  0  0  0  0  0  0  0  0  0
  2  1  1  1  0  0  0
  2  3  1  0  0  0  0
  2  5  1  0  0  0  0
  3  4  1  0  0  0  0
  3 16  1  0  0  0  0
  5  6  1  0  0  0  0
  6  7  1  0  0  0  0
  7  8  1  0  0  0  0
  9  8  1  1  0  0  0
  9 10  1  0  0  0  0
  9 11  1  0  0  0  0
 10 15  1  0  0  0  0
 11 12  1  6  0  0  0
 11 13  1  0  0  0  0
 13 14  1  6  0  0  0
 13 15  1  0  0  0  0
 15 26  1  1  0  0  0
 17 18  2  0  0  0  0
 17 22  1  0  0  0  0
 18 19  1  0  0  0  0
 19 20  2  0  0  0  0
 20 21  1  0  0  0  0
 20 26  1  0  0  0  0
 21 22  2  0  0  0  0
 21 24  1  0  0  0  0
 22 23  1  0  0  0  0
 24 25  2  0  0  0  0
 25 26  1  0  0  0  0
M  END
>  <CHROM.1>
-44.37097872,-164.52918934,66.79640126,92.72639534,-171.35270729,71.26868786
-157.58076940,129.42525593,67.12303468,-1.14877408,-2.93306350,0.90462250
-2.82671871

>  <Name>
ligand

>  <RI>
0

>  <Rbt.Current_Directory>
/home/itssahil/PROJECTS/Mol_Feturizer/Test_systems_manuscript/rnas/3npn

>  <Rbt.Executable>
rbdock ($Id: //depot/dev/client3/rdock/2013.1/src/exe/rbdock.cxx#4 $)

>  <Rbt.Library>
libRbt.so (2013.1, Build901 2013/11/27)

>  <Rbt.Parameter_File>
/export/apps/rDock/src/rDock_2013.1_src/data/scripts/dock_solv.prm

>  <Rbt.Receptor>
prm/pocket_docking_8.prm

>  <SCORE>
-22.5658

>  <SCORE.INTER>
-21.1995

>  <SCORE.INTER.CONST>
1

>  <SCORE.INTER.POLAR>
0

>  <SCORE.INTER.ROT>
7

>  <SCORE.INTER.SOLV>
14.9899

>  <SCORE.INTER.VDW>
-27.3963

>  <SCORE.INTER.norm>
-0.815366

>  <SCORE.INTRA>
-1.36627

>  <SCORE.INTRA.DIHEDRAL>
1.28705

>  <SCORE.INTRA.DIHEDRAL.0>
4.37896

>  <SCORE.INTRA.POLAR>
0

>  <SCORE.INTRA.POLAR.0>
0

>  <SCORE.INTRA.REPUL>
0

>  <SCORE.INTRA.REPUL.0>
0

>  <SCORE.INTRA.SOLV>
-0.7091

>  <SCORE.INTRA.SOLV.lig_0>
-50.5538

>  <SCORE.INTRA.VDW>
-1.65525

>  <SCORE.INTRA.VDW.0>
-1.30673

>  <SCORE.INTRA.norm>
-0.052549

>  <SCORE.RESTR>
0

>  <SCORE.RESTR.CAVITY>
0

>  <SCORE.RESTR.norm>
0

>  <SCORE.SYSTEM>
0

>  <SCORE.SYSTEM.CONST>
0

>  <SCORE.SYSTEM.DIHEDRAL>
0

>  <SCORE.SYSTEM.SOLV>
0

>  <SCORE.SYSTEM.norm>
0

>  <SCORE.heavy>
26

>  <SCORE.norm>
-0.867915

>  <RMSD>
5.278

$$$$
ligand
 OpenBabel02271912153D
libRbt.so/2013.1/901 2013/11/27
 26 28  0  0  0  0  0  0  0  0999 V2000
  131.2532   68.0312   -3.8860 N   0  0  0  0  0  0  0  0  0  0  0  0
  131.2915   66.5842   -4.2521 C   0  0  2  0  0  0  0  0  0  0  0  0
  131.4844   66.4173   -5.7320 C   0  0  0  0  0  0  0  0  0  0  0  0
  132.6025   66.4819   -6.2412 O   0  0  0  0  0  0  0  0  0  0  0  0
  129.9977   65.8966   -3.8242 C   0  0  0  0  0  0  0  0  0  0  0  0
  130.0510   65.3360   -2.4063 C   0  0  0  0  0  0  0  0  0  0  0  0
  128.5550   64.4783   -2.0413 S   0  0  0  0  0  0  0  0  0  0  0  0
  129.1350   63.0729   -1.1470 C   0  0  0  0  0  0  0  0  0  0  0  0
  130.0053   62.1694   -2.0187 C   0  0  1  0  0  0  0  0  0  0  0  0
  131.3595   62.6261   -2.0268 O   0  0  0  0  0  0  0  0  0  0  0  0
  130.0091   60.7519   -1.4696 C   0  0  1  0  0  0  0  0  0  0  0  0
  129.7322   59.8215   -2.5207 O   0  0  0  0  0  0  0  0  0  0  0  0
  131.3949   60.5318   -0.8894 C   0  0  1  0  0  0  0  0  0  0  0  0
  132.0130   59.3634   -1.4400 O   0  0  0  0  0  0  0  0  0  0  0  0
  132.2073   61.7692   -1.2526 C   0  0  2  0  0  0  0  0  0  0  0  0
  130.5229   66.2212   -6.4738 O   0  0  0  0  0  0  0  0  0  0  0  0
  135.3180   61.6945    3.0232 N   0  0  0  0  0  0  0  0  0  0  0  0
  135.1467   60.7591    2.0674 C   0  0  0  0  0  0  0  0  0  0  0  0
  134.3104   60.9139    1.0203 N   0  0  0  0  0  0  0  0  0  0  0  0
  133.5724   62.0461    0.8646 C   0  0  0  0  0  0  0  0  0  0  0  0
  133.7077   63.1135    1.8713 C   0  0  0  0  0  0  0  0  0  0  0  0
  134.6488   62.8719    2.9942 C   0  0  0  0  0  0  0  0  0  0  0  0
  134.8276   63.8027    3.9616 N   0  0  0  0  0  0  0  0  0  0  0  0
  132.8893   64.1103    1.4934 N   0  0  0  0  0  0  0  0  0  0  0  0
  132.2792   63.7182    0.3474 C   0  0  0  0  0  0  0  0  0  0  0  0
  132.6804   62.4888   -0.0332 N   0  0  0  0  0  0  0  0  0  0  0  0
  2  1  1  6  0  0  0
  2  3  1  0  0  0  0
  2  5  1  0  0  0  0
  3  4  1  0  0  0  0
  3 16  1  0  0  0  0
  5  6  1  0  0  0  0
  6  7  1  0  0  0  0
  7  8  1  0  0  0  0
  9  8  1  1  0  0  0
  9 10  1  0  0  0  0
  9 11  1  0  0  0  0
 10 15  1  0  0  0  0
 11 12  1  6  0  0  0
 11 13  1  0  0  0  0
 13 14  1  6  0  0  0
 13 15  1  0  0  0  0
 15 26  1  1  0  0  0
 17 18  2  0  0  0  0
 17 22  1  0  0  0  0
 18 19  1  0  0  0  0
 19 20  2  0  0  0  0
 20 21  1  0  0  0  0
 20 26  1  0  0  0  0
 21 22  2  0  0  0  0
 21 24  1  0  0  0  0
 22 23  1  0  0  0  0
 24 25  2  0  0  0  0
 25 26  1  0  0  0  0
M  END
>  <CHROM.1>
82.16492711,-89.46216012,-176.51383353,139.91789306,-64.37066169,84.94317328
-174.10302180,131.74281705,63.33619136,-1.30465771,-2.20496381,0.79917174
2.62070444

>  <Name>
ligand

>  <RI>
0

>  <Rbt.Current_Directory>
/home/itssahil/PROJECTS/Mol_Feturizer/Test_systems_manuscript/rnas/3npn

>  <Rbt.Executable>
rbdock ($Id: //depot/dev/client3/rdock/2013.1/src/exe/rbdock.cxx#4 $)

>  <Rbt.Library>
libRbt.so (2013.1, Build901 2013/11/27)

>  <Rbt.Parameter_File>
/export/apps/rDock/src/rDock_2013.1_src/data/scripts/dock_solv.prm

>  <Rbt.Receptor>
prm/pocket_docking_8.prm

>  <SCORE>
-15.9165

>  <SCORE.INTER>
-17.4954

>  <SCORE.INTER.CONST>
1

>  <SCORE.INTER.POLAR>
0

>  <SCORE.INTER.ROT>
7

>  <SCORE.INTER.SOLV>
11.1346

>  <SCORE.INTER.VDW>
-23.6418

>  <SCORE.INTER.norm>
-0.672901

>  <SCORE.INTRA>
1.57894

>  <SCORE.INTRA.DIHEDRAL>
4.96322

>  <SCORE.INTRA.DIHEDRAL.0>
4.37896

>  <SCORE.INTRA.POLAR>
0

>  <SCORE.INTRA.POLAR.0>
0

>  <SCORE.INTRA.REPUL>
0

>  <SCORE.INTRA.REPUL.0>
0

>  <SCORE.INTRA.SOLV>
-0.371675

>  <SCORE.INTRA.SOLV.lig_0>
-50.5538

>  <SCORE.INTRA.VDW>
-0.716834

>  <SCORE.INTRA.VDW.0>
-1.30673

>  <SCORE.INTRA.norm>
0.0607284

>  <SCORE.RESTR>
0

>  <SCORE.RESTR.CAVITY>
0

>  <SCORE.RESTR.norm>
0

>  <SCORE.SYSTEM>
0

>  <SCORE.SYSTEM.CONST>
0

>  <SCORE.SYSTEM.DIHEDRAL>
0

>  <SCORE.SYSTEM.SOLV>
0

>  <SCORE.SYSTEM.norm>
0

>  <SCORE.heavy>
26

>  <SCORE.norm>
-0.612172

>  <RMSD>
5.345

$$$$
ligand
 OpenBabel02271912153D
libRbt.so/2013.1/901 2013/11/27
 26 28  0  0  0  0  0  0  0  0999 V2000
  126.3890   70.7280   -4.7302 N   0  0  0  0  0  0  0  0  0  0  0  0
  126.8506   70.6824   -3.3110 C   0  0  2  0  0  0  0  0  0  0  0  0
  128.3403   70.8554   -3.2329 C   0  0  0  0  0  0  0  0  0  0  0  0
  129.0237   70.9705   -4.2494 O   0  0  0  0  0  0  0  0  0  0  0  0
  126.4555   69.3550   -2.6694 C   0  0  0  0  0  0  0  0  0  0  0  0
  126.8908   68.1382   -3.4800 C   0  0  0  0  0  0  0  0  0  0  0  0
  127.0097   66.7267   -2.4308 S   0  0  0  0  0  0  0  0  0  0  0  0
  128.7515   66.5771   -2.1965 C   0  0  0  0  0  0  0  0  0  0  0  0
  129.2627   65.2034   -2.6272 C   0  0  1  0  0  0  0  0  0  0  0  0
  130.6862   65.2104   -2.7543 O   0  0  0  0  0  0  0  0  0  0  0  0
  128.9066   64.1573   -1.5833 C   0  0  1  0  0  0  0  0  0  0  0  0
  128.2998   63.0258   -2.2147 O   0  0  0  0  0  0  0  0  0  0  0  0
  130.2131   63.7775   -0.9091 C   0  0  1  0  0  0  0  0  0  0  0  0
  130.4323   62.3632   -0.9525 O   0  0  0  0  0  0  0  0  0  0  0  0
  131.3127   64.4975   -1.6810 C   0  0  2  0  0  0  0  0  0  0  0  0
  128.9153   70.8760   -2.1456 O   0  0  0  0  0  0  0  0  0  0  0  0
  131.0772   68.6438    1.5926 N   0  0  0  0  0  0  0  0  0  0  0  0
  130.0866   68.0137    0.9297 C   0  0  0  0  0  0  0  0  0  0  0  0
  130.2936   66.9557    0.1187 N   0  0  0  0  0  0  0  0  0  0  0  0
  131.5410   66.4527   -0.0849 C   0  0  0  0  0  0  0  0  0  0  0  0
  132.6745   67.0909    0.6075 C   0  0  0  0  0  0  0  0  0  0  0  0
  132.3685   68.2489    1.4851 C   0  0  0  0  0  0  0  0  0  0  0  0
  133.3551   68.8916    2.1541 N   0  0  0  0  0  0  0  0  0  0  0  0
  133.7796   66.4158    0.2479 N   0  0  0  0  0  0  0  0  0  0  0  0
  133.3925   65.4329   -0.6026 C   0  0  0  0  0  0  0  0  0  0  0  0
  132.0601   65.4490   -0.8066 N   0  0  0  0  0  0  0  0  0  0  0  0
  2  1  1  6  0  0  0
  2  3  1  0  0  0  0
  2  5  1  0  0  0  0
  3  4  1  0  0  0  0
  3 16  1  0  0  0  0
  5  6  1  0  0  0  0
  6  7  1  0  0  0  0
  7  8  1  0  0  0  0
  9  8  1  1  0  0  0
  9 10  1  0  0  0  0
  9 11  1  0  0  0  0
 10 15  1  0  0  0  0
 11 12  1  6  0  0  0
 11 13  1  0  0  0  0
 13 14  1  6  0  0  0
 13 15  1  0  0  0  0
 15 26  1  1  0  0  0
 17 18  2  0  0  0  0
 17 22  1  0  0  0  0
 18 19  1  0  0  0  0
 19 20  2  0  0  0  0
 20 21  1  0  0  0  0
 20 26  1  0  0  0  0
 21 22  2  0  0  0  0
 21 24  1  0  0  0  0
 22 23  1  0  0  0  0
 24 25  2  0  0  0  0
 25 26  1  0  0  0  0
M  END
>  <CHROM.1>
-2.10688205,52.04625758,156.90568031,-102.96081897,-123.10783722,165.28392584
62.95810237,129.74523137,67.07150306,-1.47713127,-2.51160749,0.66104120,-3.09107666

>  <Name>
ligand

>  <RI>
0

>  <Rbt.Current_Directory>
/home/itssahil/PROJECTS/Mol_Feturizer/Test_systems_manuscript/rnas/3npn

>  <Rbt.Executable>
rbdock ($Id: //depot/dev/client3/rdock/2013.1/src/exe/rbdock.cxx#4 $)

>  <Rbt.Library>
libRbt.so (2013.1, Build901 2013/11/27)

>  <Rbt.Parameter_File>
/export/apps/rDock/src/rDock_2013.1_src/data/scripts/dock_solv.prm

>  <Rbt.Receptor>
prm/pocket_docking_6.prm

>  <SCORE>
-17.0477

>  <SCORE.INTER>
-18.6166

>  <SCORE.INTER.CONST>
1

>  <SCORE.INTER.POLAR>
0

>  <SCORE.INTER.ROT>
7

>  <SCORE.INTER.SOLV>
15.7932

>  <SCORE.INTER.VDW>
-25.9421

>  <SCORE.INTER.norm>
-0.716022

>  <SCORE.INTRA>
1.56891

>  <SCORE.INTRA.DIHEDRAL>
5.39462

>  <SCORE.INTRA.DIHEDRAL.0>
4.37896

>  <SCORE.INTRA.POLAR>
0

>  <SCORE.INTRA.POLAR.0>
0

>  <SCORE.INTRA.REPUL>
0

>  <SCORE.INTRA.REPUL.0>
0

>  <SCORE.INTRA.SOLV>
-0.0861518

>  <SCORE.INTRA.SOLV.lig_0>
-50.5538

>  <SCORE.INTRA.VDW>
-1.08532

>  <SCORE.INTRA.VDW.0>
-1.30673

>  <SCORE.INTRA.norm>
0.0603427

>  <SCORE.RESTR>
0

>  <SCORE.RESTR.CAVITY>
0

>  <SCORE.RESTR.norm>
0

>  <SCORE.SYSTEM>
0

>  <SCORE.SYSTEM.CONST>
0

>  <SCORE.SYSTEM.DIHEDRAL>
0

>  <SCORE.SYSTEM.SOLV>
0

>  <SCORE.SYSTEM.norm>
0

>  <SCORE.heavy>
26

>  <SCORE.norm>
-0.655679

>  <RMSD>
5.364

$$$$
ligand
 OpenBabel02271912153D
libRbt.so/2013.1/901 2013/11/27
 26 28  0  0  0  0  0  0  0  0999 V2000
  136.0308   66.7307   -5.3634 N   0  0  0  0  0  0  0  0  0  0  0  0
  135.2058   65.6733   -4.7072 C   0  0  2  0  0  0  0  0  0  0  0  0
  135.1559   64.4367   -5.5578 C   0  0  0  0  0  0  0  0  0  0  0  0
  134.4181   63.4946   -5.2718 O   0  0  0  0  0  0  0  0  0  0  0  0
  133.7882   66.1842   -4.4640 C   0  0  0  0  0  0  0  0  0  0  0  0
  133.0878   66.6527   -5.7358 C   0  0  0  0  0  0  0  0  0  0  0  0
  131.5091   67.3294   -5.3394 S   0  0  0  0  0  0  0  0  0  0  0  0
  130.6343   65.9194   -4.7411 C   0  0  0  0  0  0  0  0  0  0  0  0
  129.4187   66.3214   -3.9078 C   0  0  1  0  0  0  0  0  0  0  0  0
  128.7842   65.1687   -3.3500 O   0  0  0  0  0  0  0  0  0  0  0  0
  129.8439   67.2092   -2.7494 C   0  0  1  0  0  0  0  0  0  0  0  0
  129.0163   68.3753   -2.6999 O   0  0  0  0  0  0  0  0  0  0  0  0
  129.6845   66.3665   -1.4963 C   0  0  1  0  0  0  0  0  0  0  0  0
  128.8608   67.0225   -0.5260 O   0  0  0  0  0  0  0  0  0  0  0  0
  129.0267   65.0657   -1.9418 C   0  0  2  0  0  0  0  0  0  0  0  0
  135.8625   64.3329   -6.5594 O   0  0  0  0  0  0  0  0  0  0  0  0
  129.5293   59.8016   -1.9628 N   0  0  0  0  0  0  0  0  0  0  0  0
  128.4784   60.5670   -2.3199 C   0  0  0  0  0  0  0  0  0  0  0  0
  128.4899   61.9147   -2.2634 N   0  0  0  0  0  0  0  0  0  0  0  0
  129.5850   62.5961   -1.8309 C   0  0  0  0  0  0  0  0  0  0  0  0
  130.7730   61.8254   -1.4236 C   0  0  0  0  0  0  0  0  0  0  0  0
  130.6862   60.3459   -1.5151 C   0  0  0  0  0  0  0  0  0  0  0  0
  131.7341   59.5664   -1.1570 N   0  0  0  0  0  0  0  0  0  0  0  0
  131.7047   62.7176   -1.0467 N   0  0  0  0  0  0  0  0  0  0  0  0
  131.1637   63.9523   -1.1951 C   0  0  0  0  0  0  0  0  0  0  0  0
  129.9004   63.8882   -1.6611 N   0  0  0  0  0  0  0  0  0  0  0  0
  2  1  1  6  0  0  0
  2  3  1  0  0  0  0
  2  5  1  0  0  0  0
  3  4  1  0  0  0  0
  3 16  1  0  0  0  0
  5  6  1  0  0  0  0
  6  7  1  0  0  0  0
  7  8  1  0  0  0  0
  9  8  1  1  0  0  0
  9 10  1  0  0  0  0
  9 11  1  0  0  0  0
 10 15  1  0  0  0  0
 11 12  1  1  0  0  0
 11 13  1  0  0  0  0
 13 14  1  1  0  0  0
 13 15  1  0  0  0  0
 15 26  1  6  0  0  0
 17 18  2  0  0  0  0
 17 22  1  0  0  0  0
 18 19  1  0  0  0  0
 19 20  2  0  0  0  0
 20 21  1  0  0  0  0
 20 26  1  0  0  0  0
 21 22  2  0  0  0  0
 21 24  1  0  0  0  0
 22 23  1  0  0  0  0
 24 25  2  0  0  0  0
 25 26  1  0  0  0  0
M  END
>  <CHROM.1>
-172.35444981,57.14271896,-175.93822160,-66.00057592,160.81669321,-175.60995835
-66.61734409,131.27847275,64.58468347,-3.25753882,-0.77822853,-0.52091658
2.85658298

>  <Name>
ligand

>  <RI>
0

>  <Rbt.Current_Directory>
/home/itssahil/PROJECTS/Mol_Feturizer/Test_systems_manuscript/rnas/3npn

>  <Rbt.Executable>
rbdock ($Id: //depot/dev/client3/rdock/2013.1/src/exe/rbdock.cxx#4 $)

>  <Rbt.Library>
libRbt.so (2013.1, Build901 2013/11/27)

>  <Rbt.Parameter_File>
/export/apps/rDock/src/rDock_2013.1_src/data/scripts/dock_solv.prm

>  <Rbt.Receptor>
prm/pocket_docking_8.prm

>  <SCORE>
-21.0194

>  <SCORE.INTER>
-20.9193

>  <SCORE.INTER.CONST>
1

>  <SCORE.INTER.POLAR>
0

>  <SCORE.INTER.ROT>
7

>  <SCORE.INTER.SOLV>
12.9113

>  <SCORE.INTER.VDW>
-26.5166

>  <SCORE.INTER.norm>
-0.804587

>  <SCORE.INTRA>
-0.100117

>  <SCORE.INTRA.DIHEDRAL>
-0.952536

>  <SCORE.INTRA.DIHEDRAL.0>
4.37896

>  <SCORE.INTRA.POLAR>
0

>  <SCORE.INTRA.POLAR.0>
0

>  <SCORE.INTRA.REPUL>
0

>  <SCORE.INTRA.REPUL.0>
0

>  <SCORE.INTRA.SOLV>
-0.0551671

>  <SCORE.INTRA.SOLV.lig_0>
-50.5538

>  <SCORE.INTRA.VDW>
0.403735

>  <SCORE.INTRA.VDW.0>
-1.30673

>  <SCORE.INTRA.norm>
-0.00385064

>  <SCORE.RESTR>
0

>  <SCORE.RESTR.CAVITY>
0

>  <SCORE.RESTR.norm>
0

>  <SCORE.SYSTEM>
0

>  <SCORE.SYSTEM.CONST>
0

>  <SCORE.SYSTEM.DIHEDRAL>
0

>  <SCORE.SYSTEM.SOLV>
0

>  <SCORE.SYSTEM.norm>
0

>  <SCORE.heavy>
26

>  <SCORE.norm>
-0.808438

>  <RMSD>
5.405

$$$$
ligand
 OpenBabel02271912153D
libRbt.so/2013.1/901 2013/11/27
 26 28  0  0  0  0  0  0  0  0999 V2000
  132.3012   72.0885   -4.4263 N   0  0  0  0  0  0  0  0  0  0  0  0
  130.9624   71.9153   -3.7884 C   0  0  2  0  0  0  0  0  0  0  0  0
  130.9553   70.7115   -2.8907 C   0  0  0  0  0  0  0  0  0  0  0  0
  131.5541   69.6819   -3.1990 O   0  0  0  0  0  0  0  0  0  0  0  0
  129.8837   71.7624   -4.8574 C   0  0  0  0  0  0  0  0  0  0  0  0
  128.4669   71.7653   -4.2917 C   0  0  0  0  0  0  0  0  0  0  0  0
  127.6220   70.2960   -4.7762 S   0  0  0  0  0  0  0  0  0  0  0  0
  128.4816   69.0508   -3.8697 C   0  0  0  0  0  0  0  0  0  0  0  0
  127.7503   67.7105   -3.9195 C   0  0  1  0  0  0  0  0  0  0  0  0
  128.2550   66.8980   -4.9814 O   0  0  0  0  0  0  0  0  0  0  0  0
  127.9634   66.9452   -2.6235 C   0  0  1  0  0  0  0  0  0  0  0  0
  126.7073   66.4807   -2.1198 O   0  0  0  0  0  0  0  0  0  0  0  0
  128.8816   65.7860   -2.9684 C   0  0  1  0  0  0  0  0  0  0  0  0
  128.3152   64.5332   -2.5688 O   0  0  0  0  0  0  0  0  0  0  0  0
  129.0541   65.8187   -4.4825 C   0  0  2  0  0  0  0  0  0  0  0  0
  130.3393   70.7240   -1.8260 O   0  0  0  0  0  0  0  0  0  0  0  0
  134.1355   65.3597   -3.0921 N   0  0  0  0  0  0  0  0  0  0  0  0
  133.0224   65.0364   -2.4033 C   0  0  0  0  0  0  0  0  0  0  0  0
  131.7750   65.2094   -2.8870 N   0  0  0  0  0  0  0  0  0  0  0  0
  131.5615   65.7339   -4.1239 C   0  0  0  0  0  0  0  0  0  0  0  0
  132.7319   66.1112   -4.9357 C   0  0  0  0  0  0  0  0  0  0  0  0
  134.0727   65.8896   -4.3372 C   0  0  0  0  0  0  0  0  0  0  0  0
  135.1979   66.2126   -5.0181 N   0  0  0  0  0  0  0  0  0  0  0  0
  132.2599   66.5934   -6.0979 N   0  0  0  0  0  0  0  0  0  0  0  0
  130.9062   66.5348   -6.0383 C   0  0  0  0  0  0  0  0  0  0  0  0
  130.4824   66.0246   -4.8648 N   0  0  0  0  0  0  0  0  0  0  0  0
  2  1  1  6  0  0  0
  2  3  1  0  0  0  0
  2  5  1  0  0  0  0
  3  4  1  0  0  0  0
  3 16  1  0  0  0  0
  5  6  1  0  0  0  0
  6  7  1  0  0  0  0
  7  8  1  0  0  0  0
  9  8  1  1  0  0  0
  9 10  1  0  0  0  0
  9 11  1  0  0  0  0
 10 15  1  0  0  0  0
 11 12  1  6  0  0  0
 11 13  1  0  0  0  0
 13 14  1  6  0  0  0
 13 15  1  0  0  0  0
 15 26  1  1  0  0  0
 17 18  2  0  0  0  0
 17 22  1  0  0  0  0
 18 19  1  0  0  0  0
 19 20  2  0  0  0  0
 20 21  1  0  0  0  0
 20 26  1  0  0  0  0
 21 22  2  0  0  0  0
 21 24  1  0  0  0  0
 22 23  1  0  0  0  0
 24 25  2  0  0  0  0
 25 26  1  0  0  0  0
M  END
>  <CHROM.1>
-38.12939319,-172.39109761,-123.74408380,68.51628739,168.87927497,94.01267657
142.91380605,130.31250881,67.88327053,-3.91368787,-2.18077565,-0.12517644
3.06107404

>  <Name>
ligand

>  <RI>
0

>  <Rbt.Current_Directory>
/home/itssahil/PROJECTS/Mol_Feturizer/Test_systems_manuscript/rnas/3npn

>  <Rbt.Executable>
rbdock ($Id: //depot/dev/client3/rdock/2013.1/src/exe/rbdock.cxx#4 $)

>  <Rbt.Library>
libRbt.so (2013.1, Build901 2013/11/27)

>  <Rbt.Parameter_File>
/export/apps/rDock/src/rDock_2013.1_src/data/scripts/dock_solv.prm

>  <Rbt.Receptor>
prm/pocket_docking_6.prm

>  <SCORE>
-14.5164

>  <SCORE.INTER>
-16.3261

>  <SCORE.INTER.CONST>
1

>  <SCORE.INTER.POLAR>
0

>  <SCORE.INTER.ROT>
7

>  <SCORE.INTER.SOLV>
11.4632

>  <SCORE.INTER.VDW>
-22.9718

>  <SCORE.INTER.norm>
-0.627927

>  <SCORE.INTRA>
1.80965

>  <SCORE.INTRA.DIHEDRAL>
7.44145

>  <SCORE.INTRA.DIHEDRAL.0>
4.37896

>  <SCORE.INTRA.POLAR>
0

>  <SCORE.INTRA.POLAR.0>
0

>  <SCORE.INTRA.REPUL>
0

>  <SCORE.INTRA.REPUL.0>
0

>  <SCORE.INTRA.SOLV>
-0.900806

>  <SCORE.INTRA.SOLV.lig_0>
-50.5538

>  <SCORE.INTRA.VDW>
-1.46067

>  <SCORE.INTRA.VDW.0>
-1.30673

>  <SCORE.INTRA.norm>
0.0696021

>  <SCORE.RESTR>
0

>  <SCORE.RESTR.CAVITY>
0

>  <SCORE.RESTR.norm>
0

>  <SCORE.SYSTEM>
0

>  <SCORE.SYSTEM.CONST>
0

>  <SCORE.SYSTEM.DIHEDRAL>
0

>  <SCORE.SYSTEM.SOLV>
0

>  <SCORE.SYSTEM.norm>
0

>  <SCORE.heavy>
26

>  <SCORE.norm>
-0.558324

>  <RMSD>
5.409

$$$$
ligand
 OpenBabel02271912153D
libRbt.so/2013.1/901 2013/11/27
 26 28  0  0  0  0  0  0  0  0999 V2000
  127.1063   70.5627   -5.8521 N   0  0  0  0  0  0  0  0  0  0  0  0
  126.8201   70.2775   -4.4147 C   0  0  2  0  0  0  0  0  0  0  0  0
  127.7829   71.0126   -3.5271 C   0  0  0  0  0  0  0  0  0  0  0  0
  127.5849   71.1148   -2.3171 O   0  0  0  0  0  0  0  0  0  0  0  0
  126.9175   68.7785   -4.1441 C   0  0  0  0  0  0  0  0  0  0  0  0
  126.6170   68.4047   -2.6958 C   0  0  0  0  0  0  0  0  0  0  0  0
  127.0232   66.7127   -2.4140 S   0  0  0  0  0  0  0  0  0  0  0  0
  128.7845   66.7274   -2.5074 C   0  0  0  0  0  0  0  0  0  0  0  0
  129.3460   65.3358   -2.7932 C   0  0  1  0  0  0  0  0  0  0  0  0
  130.7727   65.3716   -2.8686 O   0  0  0  0  0  0  0  0  0  0  0  0
  128.9759   64.3776   -1.6726 C   0  0  1  0  0  0  0  0  0  0  0  0
  128.4223   63.1775   -2.2206 O   0  0  0  0  0  0  0  0  0  0  0  0
  130.2644   64.0968   -0.9198 C   0  0  1  0  0  0  0  0  0  0  0  0
  130.5202   62.6910   -0.8271 O   0  0  0  0  0  0  0  0  0  0  0  0
  131.3747   64.7756   -1.7132 C   0  0  2  0  0  0  0  0  0  0  0  0
  128.7913   71.5406   -3.9934 O   0  0  0  0  0  0  0  0  0  0  0  0
  130.8804   68.9347    1.5150 N   0  0  0  0  0  0  0  0  0  0  0  0
  129.9274   68.1844    0.9264 C   0  0  0  0  0  0  0  0  0  0  0  0
  130.2006   67.1401    0.1173 N   0  0  0  0  0  0  0  0  0  0  0  0
  131.4815   66.7759   -0.1608 C   0  0  0  0  0  0  0  0  0  0  0  0
  132.5772   67.5508    0.4477 C   0  0  0  0  0  0  0  0  0  0  0  0
  132.1986   68.6848    1.3284 C   0  0  0  0  0  0  0  0  0  0  0  0
  133.1468   69.4473    1.9232 N   0  0  0  0  0  0  0  0  0  0  0  0
  133.7265   66.9966    0.0255 N   0  0  0  0  0  0  0  0  0  0  0  0
  133.3997   65.9595   -0.7851 C   0  0  0  0  0  0  0  0  0  0  0  0
  132.0638   65.8222   -0.9018 N   0  0  0  0  0  0  0  0  0  0  0  0
  2  1  1  6  0  0  0
  2  3  1  0  0  0  0
  2  5  1  0  0  0  0
  3  4  1  0  0  0  0
  3 16  1  0  0  0  0
  5  6  1  0  0  0  0
  6  7  1  0  0  0  0
  7  8  1  0  0  0  0
  9  8  1  1  0  0  0
  9 10  1  0  0  0  0
  9 11  1  0  0  0  0
 10 15  1  0  0  0  0
 11 12  1  6  0  0  0
 11 13  1  0  0  0  0
 13 14  1  6  0  0  0
 13 15  1  0  0  0  0
 15 26  1  1  0  0  0
 17 18  2  0  0  0  0
 17 22  1  0  0  0  0
 18 19  1  0  0  0  0
 19 20  2  0  0  0  0
 20 21  1  0  0  0  0
 20 26  1  0  0  0  0
 21 22  2  0  0  0  0
 21 24  1  0  0  0  0
 22 23  1  0  0  0  0
 24 25  2  0  0  0  0
 25 26  1  0  0  0  0
M  END
>  <CHROM.1>
166.78441885,-179.15885252,-170.21790639,69.47113959,-159.49454802,179.82861100
71.69583527,129.68205796,67.27929523,-1.65111050,-2.56426917,0.70457295,-3.10072826

>  <Name>
ligand

>  <RI>
0

>  <Rbt.Current_Directory>
/home/itssahil/PROJECTS/Mol_Feturizer/Test_systems_manuscript/rnas/3npn

>  <Rbt.Executable>
rbdock ($Id: //depot/dev/client3/rdock/2013.1/src/exe/rbdock.cxx#4 $)

>  <Rbt.Library>
libRbt.so (2013.1, Build901 2013/11/27)

>  <Rbt.Parameter_File>
/export/apps/rDock/src/rDock_2013.1_src/data/scripts/dock_solv.prm

>  <Rbt.Receptor>
prm/pocket_docking_5.prm

>  <SCORE>
-18.6131

>  <SCORE.INTER>
-17.1697

>  <SCORE.INTER.CONST>
1

>  <SCORE.INTER.POLAR>
0

>  <SCORE.INTER.ROT>
7

>  <SCORE.INTER.SOLV>
17.7553

>  <SCORE.INTER.VDW>
-25.6316

>  <SCORE.INTER.norm>
-0.660374

>  <SCORE.INTRA>
-1.44334

>  <SCORE.INTRA.DIHEDRAL>
-0.572211

>  <SCORE.INTRA.DIHEDRAL.0>
4.37896

>  <SCORE.INTRA.POLAR>
0

>  <SCORE.INTRA.POLAR.0>
0

>  <SCORE.INTRA.REPUL>
0

>  <SCORE.INTRA.REPUL.0>
0

>  <SCORE.INTRA.SOLV>
-0.798831

>  <SCORE.INTRA.SOLV.lig_0>
-50.5538

>  <SCORE.INTRA.VDW>
-0.757817

>  <SCORE.INTRA.VDW.0>
-1.30673

>  <SCORE.INTRA.norm>
-0.055513

>  <SCORE.RESTR>
0

>  <SCORE.RESTR.CAVITY>
0

>  <SCORE.RESTR.norm>
0

>  <SCORE.SYSTEM>
0

>  <SCORE.SYSTEM.CONST>
0

>  <SCORE.SYSTEM.DIHEDRAL>
0

>  <SCORE.SYSTEM.SOLV>
0

>  <SCORE.SYSTEM.norm>
0

>  <SCORE.heavy>
26

>  <SCORE.norm>
-0.715887

>  <RMSD>
5.471

$$$$
ligand
 OpenBabel02271912153D
libRbt.so/2013.1/901 2013/11/27
 26 28  0  0  0  0  0  0  0  0999 V2000
  129.5628   67.1111   -1.7838 N   0  0  0  0  0  0  0  0  0  0  0  0
  128.5117   66.5592   -2.6893 C   0  0  2  0  0  0  0  0  0  0  0  0
  127.3351   67.4894   -2.7634 C   0  0  0  0  0  0  0  0  0  0  0  0
  127.0462   68.2293   -1.8239 O   0  0  0  0  0  0  0  0  0  0  0  0
  128.0517   65.1912   -2.1926 C   0  0  0  0  0  0  0  0  0  0  0  0
  129.1754   64.1612   -2.1304 C   0  0  0  0  0  0  0  0  0  0  0  0
  128.5006   62.5457   -1.9253 S   0  0  0  0  0  0  0  0  0  0  0  0
  129.8887   61.6295   -1.3378 C   0  0  0  0  0  0  0  0  0  0  0  0
  130.2519   60.4867   -2.2842 C   0  0  1  0  0  0  0  0  0  0  0  0
  131.6611   60.4535   -2.5198 O   0  0  0  0  0  0  0  0  0  0  0  0
  129.8640   59.1509   -1.6711 C   0  0  1  0  0  0  0  0  0  0  0  0
  129.1254   58.3754   -2.6200 O   0  0  0  0  0  0  0  0  0  0  0  0
  131.1676   58.4682   -1.2966 C   0  0  1  0  0  0  0  0  0  0  0  0
  131.2585   57.1613   -1.8745 O   0  0  0  0  0  0  0  0  0  0  0  0
  132.2814   59.3553   -1.8404 C   0  0  2  0  0  0  0  0  0  0  0  0
  126.6238   67.5257   -3.7664 O   0  0  0  0  0  0  0  0  0  0  0  0
  133.7938   63.5007    1.0737 N   0  0  0  0  0  0  0  0  0  0  0  0
  132.8888   63.4343    0.0766 C   0  0  0  0  0  0  0  0  0  0  0  0
  132.5993   62.2961   -0.5871 N   0  0  0  0  0  0  0  0  0  0  0  0
  133.2186   61.1231   -0.2850 C   0  0  0  0  0  0  0  0  0  0  0  0
  134.2208   61.1188    0.7952 C   0  0  0  0  0  0  0  0  0  0  0  0
  134.4846   62.4090    1.4812 C   0  0  0  0  0  0  0  0  0  0  0  0
  135.3931   62.4889    2.4824 N   0  0  0  0  0  0  0  0  0  0  0  0
  134.6758   59.8584    0.8982 N   0  0  0  0  0  0  0  0  0  0  0  0
  134.0269   59.1182   -0.0346 C   0  0  0  0  0  0  0  0  0  0  0  0
  133.1575   59.8649   -0.7443 N   0  0  0  0  0  0  0  0  0  0  0  0
  2  1  1  1  0  0  0
  2  3  1  0  0  0  0
  2  5  1  0  0  0  0
  3  4  1  0  0  0  0
  3 16  1  0  0  0  0
  5  6  1  0  0  0  0
  6  7  1  0  0  0  0
  7  8  1  0  0  0  0
  9  8  1  1  0  0  0
  9 10  1  0  0  0  0
  9 11  1  0  0  0  0
 10 15  1  0  0  0  0
 11 12  1  6  0  0  0
 11 13  1  0  0  0  0
 13 14  1  6  0  0  0
 13 15  1  0  0  0  0
 15 26  1  1  0  0  0
 17 18  2  0  0  0  0
 17 22  1  0  0  0  0
 18 19  1  0  0  0  0
 19 20  2  0  0  0  0
 20 21  1  0  0  0  0
 20 26  1  0  0  0  0
 21 22  2  0  0  0  0
 21 24  1  0  0  0  0
 22 23  1  0  0  0  0
 24 25  2  0  0  0  0
 25 26  1  0  0  0  0
M  END
>  <CHROM.1>
-28.50149593,-59.97771963,-166.55979120,-161.54300220,-119.25558224,133.87209531
10.29855498,130.88694191,62.30237367,-1.22597674,-2.36008230,0.56306185,-2.96792659

>  <Name>
ligand

>  <RI>
0

>  <Rbt.Current_Directory>
/home/itssahil/PROJECTS/Mol_Feturizer/Test_systems_manuscript/rnas/3npn

>  <Rbt.Executable>
rbdock ($Id: //depot/dev/client3/rdock/2013.1/src/exe/rbdock.cxx#4 $)

>  <Rbt.Library>
libRbt.so (2013.1, Build901 2013/11/27)

>  <Rbt.Parameter_File>
/export/apps/rDock/src/rDock_2013.1_src/data/scripts/dock_solv.prm

>  <Rbt.Receptor>
prm/pocket_docking_4.prm

>  <SCORE>
-19.9238

>  <SCORE.INTER>
-22.265

>  <SCORE.INTER.CONST>
1

>  <SCORE.INTER.POLAR>
0

>  <SCORE.INTER.ROT>
7

>  <SCORE.INTER.SOLV>
12.2269

>  <SCORE.INTER.VDW>
-27.1856

>  <SCORE.INTER.norm>
-0.856345

>  <SCORE.INTRA>
1.78361

>  <SCORE.INTRA.DIHEDRAL>
6.42161

>  <SCORE.INTRA.DIHEDRAL.0>
4.37896

>  <SCORE.INTRA.POLAR>
0

>  <SCORE.INTRA.POLAR.0>
0

>  <SCORE.INTRA.REPUL>
0

>  <SCORE.INTRA.REPUL.0>
0

>  <SCORE.INTRA.SOLV>
-0.227787

>  <SCORE.INTRA.SOLV.lig_0>
-50.5538

>  <SCORE.INTRA.VDW>
-1.3133

>  <SCORE.INTRA.VDW.0>
-1.30673

>  <SCORE.INTRA.norm>
0.0686003

>  <SCORE.RESTR>
0.557562

>  <SCORE.RESTR.CAVITY>
0.557562

>  <SCORE.RESTR.norm>
0.0214447

>  <SCORE.SYSTEM>
0

>  <SCORE.SYSTEM.CONST>
0

>  <SCORE.SYSTEM.DIHEDRAL>
0

>  <SCORE.SYSTEM.SOLV>
0

>  <SCORE.SYSTEM.norm>
0

>  <SCORE.heavy>
26

>  <SCORE.norm>
-0.7663

>  <RMSD>
5.475

$$$$
ligand
 OpenBabel02271912153D
libRbt.so/2013.1/901 2013/11/27
 26 28  0  0  0  0  0  0  0  0999 V2000
  127.6450   68.7416   -4.5484 N   0  0  0  0  0  0  0  0  0  0  0  0
  126.4775   69.2136   -3.7463 C   0  0  2  0  0  0  0  0  0  0  0  0
  126.7485   70.5716   -3.1653 C   0  0  0  0  0  0  0  0  0  0  0  0
  125.8735   71.4356   -3.1267 O   0  0  0  0  0  0  0  0  0  0  0  0
  126.1758   68.2270   -2.6215 C   0  0  0  0  0  0  0  0  0  0  0  0
  127.4292   67.6610   -1.9611 C   0  0  0  0  0  0  0  0  0  0  0  0
  128.0210   66.2774   -2.8790 S   0  0  0  0  0  0  0  0  0  0  0  0
  129.0803   65.4792   -1.7163 C   0  0  0  0  0  0  0  0  0  0  0  0
  130.5542   65.7128   -2.0430 C   0  0  1  0  0  0  0  0  0  0  0  0
  130.9714   67.0064   -1.6014 O   0  0  0  0  0  0  0  0  0  0  0  0
  131.4214   64.6891   -1.3283 C   0  0  1  0  0  0  0  0  0  0  0  0
  132.3388   64.0971   -2.2529 O   0  0  0  0  0  0  0  0  0  0  0  0
  132.1529   65.4499   -0.2366 C   0  0  1  0  0  0  0  0  0  0  0  0
  133.5694   65.2618   -0.3271 O   0  0  0  0  0  0  0  0  0  0  0  0
  131.8099   66.9206   -0.4429 C   0  0  2  0  0  0  0  0  0  0  0  0
  127.8600   70.8558   -2.7215 O   0  0  0  0  0  0  0  0  0  0  0  0
  131.1911   66.8687    4.8086 N   0  0  0  0  0  0  0  0  0  0  0  0
  132.0097   66.1313    4.0314 C   0  0  0  0  0  0  0  0  0  0  0  0
  132.0642   66.2516    2.6889 N   0  0  0  0  0  0  0  0  0  0  0  0
  131.2776   67.1411    2.0250 C   0  0  0  0  0  0  0  0  0  0  0  0
  130.3566   67.9824    2.8094 C   0  0  0  0  0  0  0  0  0  0  0  0
  130.3542   67.7947    4.2824 C   0  0  0  0  0  0  0  0  0  0  0  0
  129.5347   68.5275    5.0734 N   0  0  0  0  0  0  0  0  0  0  0  0
  129.7049   68.7664    1.9337 N   0  0  0  0  0  0  0  0  0  0  0  0
  130.1631   68.4552    0.6958 C   0  0  0  0  0  0  0  0  0  0  0  0
  131.0997   67.4869    0.7418 N   0  0  0  0  0  0  0  0  0  0  0  0
  2  1  1  1  0  0  0
  2  3  1  0  0  0  0
  2  5  1  0  0  0  0
  3  4  1  0  0  0  0
  3 16  1  0  0  0  0
  5  6  1  0  0  0  0
  6  7  1  0  0  0  0
  7  8  1  0  0  0  0
  9  8  1  1  0  0  0
  9 10  1  0  0  0  0
  9 11  1  0  0  0  0
 10 15  1  0  0  0  0
 11 12  1  6  0  0  0
 11 13  1  0  0  0  0
 13 14  1  6  0  0  0
 13 15  1  0  0  0  0
 15 26  1  1  0  0  0
 17 18  2  0  0  0  0
 17 22  1  0  0  0  0
 18 19  1  0  0  0  0
 19 20  2  0  0  0  0
 20 21  1  0  0  0  0
 20 26  1  0  0  0  0
 21 22  2  0  0  0  0
 21 24  1  0  0  0  0
 22 23  1  0  0  0  0
 24 25  2  0  0  0  0
 25 26  1  0  0  0  0
M  END
>  <CHROM.1>
139.91787360,39.52600649,-84.80617289,-162.09503843,-105.09040646,79.30449814
151.69077794,129.74290137,67.37102676,-0.43835567,-2.50904467,-0.77619766
1.19910514

>  <Name>
ligand

>  <RI>
0

>  <Rbt.Current_Directory>
/home/itssahil/PROJECTS/Mol_Feturizer/Test_systems_manuscript/rnas/3npn

>  <Rbt.Executable>
rbdock ($Id: //depot/dev/client3/rdock/2013.1/src/exe/rbdock.cxx#4 $)

>  <Rbt.Library>
libRbt.so (2013.1, Build901 2013/11/27)

>  <Rbt.Parameter_File>
/export/apps/rDock/src/rDock_2013.1_src/data/scripts/dock_solv.prm

>  <Rbt.Receptor>
prm/pocket_docking_7.prm

>  <SCORE>
-13.2221

>  <SCORE.INTER>
-15.6397

>  <SCORE.INTER.CONST>
1

>  <SCORE.INTER.POLAR>
0

>  <SCORE.INTER.ROT>
7

>  <SCORE.INTER.SOLV>
9.15011

>  <SCORE.INTER.VDW>
-21.7432

>  <SCORE.INTER.norm>
-0.601526

>  <SCORE.INTRA>
2.41753

>  <SCORE.INTRA.DIHEDRAL>
5.62735

>  <SCORE.INTRA.DIHEDRAL.0>
4.37896

>  <SCORE.INTRA.POLAR>
0

>  <SCORE.INTRA.POLAR.0>
0

>  <SCORE.INTRA.REPUL>
0

>  <SCORE.INTRA.REPUL.0>
0

>  <SCORE.INTRA.SOLV>
1.36396

>  <SCORE.INTRA.SOLV.lig_0>
-50.5538

>  <SCORE.INTRA.VDW>
-1.07812

>  <SCORE.INTRA.VDW.0>
-1.30673

>  <SCORE.INTRA.norm>
0.0929821

>  <SCORE.RESTR>
0

>  <SCORE.RESTR.CAVITY>
0

>  <SCORE.RESTR.norm>
0

>  <SCORE.SYSTEM>
0

>  <SCORE.SYSTEM.CONST>
0

>  <SCORE.SYSTEM.DIHEDRAL>
0

>  <SCORE.SYSTEM.SOLV>
0

>  <SCORE.SYSTEM.norm>
0

>  <SCORE.heavy>
26

>  <SCORE.norm>
-0.508544

>  <RMSD>
5.490

$$$$
ligand
 OpenBabel02271912153D
libRbt.so/2013.1/901 2013/11/27
 26 28  0  0  0  0  0  0  0  0999 V2000
  126.7887   70.0337   -5.8606 N   0  0  0  0  0  0  0  0  0  0  0  0
  127.5406   70.2235   -4.5847 C   0  0  2  0  0  0  0  0  0  0  0  0
  126.6300   70.7308   -3.5038 C   0  0  0  0  0  0  0  0  0  0  0  0
  126.0055   71.7825   -3.6367 O   0  0  0  0  0  0  0  0  0  0  0  0
  128.6890   71.2079   -4.7898 C   0  0  0  0  0  0  0  0  0  0  0  0
  129.5317   71.4236   -3.5365 C   0  0  0  0  0  0  0  0  0  0  0  0
  130.5535   70.0164   -3.2484 S   0  0  0  0  0  0  0  0  0  0  0  0
  129.4920   68.9660   -2.3097 C   0  0  0  0  0  0  0  0  0  0  0  0
  129.2543   67.6306   -3.0126 C   0  0  1  0  0  0  0  0  0  0  0  0
  130.3969   66.7816   -2.8856 O   0  0  0  0  0  0  0  0  0  0  0  0
  128.0781   66.9041   -2.3804 C   0  0  1  0  0  0  0  0  0  0  0  0
  127.1726   66.4655   -3.3977 O   0  0  0  0  0  0  0  0  0  0  0  0
  128.6703   65.7276   -1.6249 C   0  0  1  0  0  0  0  0  0  0  0  0
  128.0661   64.4923   -2.0237 O   0  0  0  0  0  0  0  0  0  0  0  0
  130.1564   65.7120   -1.9633 C   0  0  2  0  0  0  0  0  0  0  0  0
  126.4946   70.1084   -2.4514 O   0  0  0  0  0  0  0  0  0  0  0  0
  130.9982   68.4524    2.4802 N   0  0  0  0  0  0  0  0  0  0  0  0
  130.0444   68.6092    1.5403 C   0  0  0  0  0  0  0  0  0  0  0  0
  129.9476   67.8278    0.4450 N   0  0  0  0  0  0  0  0  0  0  0  0
  130.8271   66.8152    0.2174 C   0  0  0  0  0  0  0  0  0  0  0  0
  131.8979   66.5837    1.2029 C   0  0  0  0  0  0  0  0  0  0  0  0
  131.9392   67.4828    2.3839 C   0  0  0  0  0  0  0  0  0  0  0  0
  132.8939   67.3368    3.3334 N   0  0  0  0  0  0  0  0  0  0  0  0
  132.6189   65.5413    0.7558 N   0  0  0  0  0  0  0  0  0  0  0  0
  132.0637   65.1398   -0.4146 C   0  0  0  0  0  0  0  0  0  0  0  0
  130.9961   65.8946   -0.7426 N   0  0  0  0  0  0  0  0  0  0  0  0
  2  1  1  6  0  0  0
  2  3  1  0  0  0  0
  2  5  1  0  0  0  0
  3  4  1  0  0  0  0
  3 16  1  0  0  0  0
  5  6  1  0  0  0  0
  6  7  1  0  0  0  0
  7  8  1  0  0  0  0
  9  8  1  1  0  0  0
  9 10  1  0  0  0  0
  9 11  1  0  0  0  0
 10 15  1  0  0  0  0
 11 12  1  6  0  0  0
 11 13  1  0  0  0  0
 13 14  1  6  0  0  0
 13 15  1  0  0  0  0
 15 26  1  1  0  0  0
 17 18  2  0  0  0  0
 17 22  1  0  0  0  0
 18 19  1  0  0  0  0
 19 20  2  0  0  0  0
 20 21  1  0  0  0  0
 20 26  1  0  0  0  0
 21 22  2  0  0  0  0
 21 24  1  0  0  0  0
 22 23  1  0  0  0  0
 24 25  2  0  0  0  0
 25 26  1  0  0  0  0
M  END
>  <CHROM.1>
-58.14467375,-178.32741697,74.11692973,-86.73023372,119.97113557,75.96390343
71.86436371,129.50476409,68.11536613,-1.69812676,2.63366806,-0.91601405,0.00807591

>  <Name>
ligand

>  <RI>
0

>  <Rbt.Current_Directory>
/home/itssahil/PROJECTS/Mol_Feturizer/Test_systems_manuscript/rnas/3npn

>  <Rbt.Executable>
rbdock ($Id: //depot/dev/client3/rdock/2013.1/src/exe/rbdock.cxx#4 $)

>  <Rbt.Library>
libRbt.so (2013.1, Build901 2013/11/27)

>  <Rbt.Parameter_File>
/export/apps/rDock/src/rDock_2013.1_src/data/scripts/dock_solv.prm

>  <Rbt.Receptor>
prm/pocket_docking_7.prm

>  <SCORE>
-13.2272

>  <SCORE.INTER>
-11.9548

>  <SCORE.INTER.CONST>
1

>  <SCORE.INTER.POLAR>
0

>  <SCORE.INTER.ROT>
7

>  <SCORE.INTER.SOLV>
16.1486

>  <SCORE.INTER.VDW>
-21.6194

>  <SCORE.INTER.norm>
-0.459802

>  <SCORE.INTRA>
-1.27236

>  <SCORE.INTRA.DIHEDRAL>
3.2842

>  <SCORE.INTRA.DIHEDRAL.0>
4.37896

>  <SCORE.INTRA.POLAR>
0

>  <SCORE.INTRA.POLAR.0>
0

>  <SCORE.INTRA.REPUL>
0

>  <SCORE.INTRA.REPUL.0>
0

>  <SCORE.INTRA.SOLV>
-0.437895

>  <SCORE.INTRA.SOLV.lig_0>
-50.5538

>  <SCORE.INTRA.VDW>
-2.69551

>  <SCORE.INTRA.VDW.0>
-1.30673

>  <SCORE.INTRA.norm>
-0.0489368

>  <SCORE.RESTR>
0

>  <SCORE.RESTR.CAVITY>
0

>  <SCORE.RESTR.norm>
0

>  <SCORE.SYSTEM>
0

>  <SCORE.SYSTEM.CONST>
0

>  <SCORE.SYSTEM.DIHEDRAL>
0

>  <SCORE.SYSTEM.SOLV>
0

>  <SCORE.SYSTEM.norm>
0

>  <SCORE.heavy>
26

>  <SCORE.norm>
-0.508738

>  <RMSD>
5.512

$$$$
ligand
 OpenBabel02271912153D
libRbt.so/2013.1/901 2013/11/27
 26 28  0  0  0  0  0  0  0  0999 V2000
  126.8910   66.6142   -2.2698 N   0  0  0  0  0  0  0  0  0  0  0  0
  128.3645   66.5827   -2.5090 C   0  0  2  0  0  0  0  0  0  0  0  0
  128.7350   67.4850   -3.6507 C   0  0  0  0  0  0  0  0  0  0  0  0
  128.0064   67.6008   -4.6353 O   0  0  0  0  0  0  0  0  0  0  0  0
  128.8197   65.1582   -2.8144 C   0  0  0  0  0  0  0  0  0  0  0  0
  128.9602   64.2881   -1.5691 C   0  0  0  0  0  0  0  0  0  0  0  0
  128.6811   62.5971   -1.9814 S   0  0  0  0  0  0  0  0  0  0  0  0
  130.1179   61.8084   -1.3298 C   0  0  0  0  0  0  0  0  0  0  0  0
  130.5816   60.6564   -2.2195 C   0  0  1  0  0  0  0  0  0  0  0  0
  132.0060   60.6488   -2.3358 O   0  0  0  0  0  0  0  0  0  0  0  0
  130.1698   59.3241   -1.6144 C   0  0  1  0  0  0  0  0  0  0  0  0
  129.5289   58.5160   -2.6060 O   0  0  0  0  0  0  0  0  0  0  0  0
  131.4505   58.6762   -1.1187 C   0  0  1  0  0  0  0  0  0  0  0  0
  131.6152   57.3612   -1.6608 O   0  0  0  0  0  0  0  0  0  0  0  0
  132.5885   59.5766   -1.5851 C   0  0  2  0  0  0  0  0  0  0  0  0
  129.7857   68.1246   -3.6320 O   0  0  0  0  0  0  0  0  0  0  0  0
  133.5422   63.7260    1.5512 N   0  0  0  0  0  0  0  0  0  0  0  0
  132.6932   63.6116    0.5101 C   0  0  0  0  0  0  0  0  0  0  0  0
  132.5504   62.4791   -0.2088 N   0  0  0  0  0  0  0  0  0  0  0  0
  133.2719   61.3622    0.0784 C   0  0  0  0  0  0  0  0  0  0  0  0
  134.2210   61.4125    1.2044 C   0  0  0  0  0  0  0  0  0  0  0  0
  134.3219   62.6927    1.9501 C   0  0  0  0  0  0  0  0  0  0  0  0
  135.1728   62.8207    2.9959 N   0  0  0  0  0  0  0  0  0  0  0  0
  134.7970   60.2007    1.2818 N   0  0  0  0  0  0  0  0  0  0  0  0
  134.2682   59.4393    0.2920 C   0  0  0  0  0  0  0  0  0  0  0  0
  133.3593   60.1246   -0.4301 N   0  0  0  0  0  0  0  0  0  0  0  0
  2  1  1  6  0  0  0
  2  3  1  0  0  0  0
  2  5  1  0  0  0  0
  3  4  1  0  0  0  0
  3 16  1  0  0  0  0
  5  6  1  0  0  0  0
  6  7  1  0  0  0  0
  7  8  1  0  0  0  0
  9  8  1  1  0  0  0
  9 10  1  0  0  0  0
  9 11  1  0  0  0  0
 10 15  1  0  0  0  0
 11 12  1  6  0  0  0
 11 13  1  0  0  0  0
 13 14  1  6  0  0  0
 13 15  1  0  0  0  0
 15 26  1  1  0  0  0
 17 18  2  0  0  0  0
 17 22  1  0  0  0  0
 18 19  1  0  0  0  0
 19 20  2  0  0  0  0
 20 21  1  0  0  0  0
 20 26  1  0  0  0  0
 21 22  2  0  0  0  0
 21 24  1  0  0  0  0
 22 23  1  0  0  0  0
 24 25  2  0  0  0  0
 25 26  1  0  0  0  0
M  END
>  <CHROM.1>
-36.72389599,-78.95489225,151.66130846,127.47710923,-143.80534070,138.75000455
16.42067401,131.12747798,62.43961123,-1.20912831,2.37530262,-0.67768230,0.10134117

>  <Name>
ligand

>  <RI>
0

>  <Rbt.Current_Directory>
/home/itssahil/PROJECTS/Mol_Feturizer/Test_systems_manuscript/rnas/3npn

>  <Rbt.Executable>
rbdock ($Id: //depot/dev/client3/rdock/2013.1/src/exe/rbdock.cxx#4 $)

>  <Rbt.Library>
libRbt.so (2013.1, Build901 2013/11/27)

>  <Rbt.Parameter_File>
/export/apps/rDock/src/rDock_2013.1_src/data/scripts/dock_solv.prm

>  <Rbt.Receptor>
prm/pocket_docking_8.prm

>  <SCORE>
-14.7434

>  <SCORE.INTER>
-18.4998

>  <SCORE.INTER.CONST>
1

>  <SCORE.INTER.POLAR>
0

>  <SCORE.INTER.ROT>
7

>  <SCORE.INTER.SOLV>
17.6386

>  <SCORE.INTER.VDW>
-26.4794

>  <SCORE.INTER.norm>
-0.711532

>  <SCORE.INTRA>
3.75641

>  <SCORE.INTRA.DIHEDRAL>
10.0939

>  <SCORE.INTRA.DIHEDRAL.0>
4.37896

>  <SCORE.INTRA.POLAR>
0

>  <SCORE.INTRA.POLAR.0>
0

>  <SCORE.INTRA.REPUL>
0

>  <SCORE.INTRA.REPUL.0>
0

>  <SCORE.INTRA.SOLV>
-0.247197

>  <SCORE.INTRA.SOLV.lig_0>
-50.5538

>  <SCORE.INTRA.VDW>
-1.16697

>  <SCORE.INTRA.VDW.0>
-1.30673

>  <SCORE.INTRA.norm>
0.144477

>  <SCORE.RESTR>
0

>  <SCORE.RESTR.CAVITY>
0

>  <SCORE.RESTR.norm>
0

>  <SCORE.SYSTEM>
0

>  <SCORE.SYSTEM.CONST>
0

>  <SCORE.SYSTEM.DIHEDRAL>
0

>  <SCORE.SYSTEM.SOLV>
0

>  <SCORE.SYSTEM.norm>
0

>  <SCORE.heavy>
26

>  <SCORE.norm>
-0.567055

>  <RMSD>
5.530

$$$$
ligand
 OpenBabel02271912153D
libRbt.so/2013.1/901 2013/11/27
 26 28  0  0  0  0  0  0  0  0999 V2000
  134.2860   67.2104   -6.3389 N   0  0  0  0  0  0  0  0  0  0  0  0
  133.3802   67.2733   -5.1537 C   0  0  2  0  0  0  0  0  0  0  0  0
  132.4646   66.0834   -5.1232 C   0  0  0  0  0  0  0  0  0  0  0  0
  132.2278   65.4870   -4.0735 O   0  0  0  0  0  0  0  0  0  0  0  0
  132.5521   68.5550   -5.1891 C   0  0  0  0  0  0  0  0  0  0  0  0
  131.6842   68.7488   -3.9495 C   0  0  0  0  0  0  0  0  0  0  0  0
  130.7539   70.2392   -4.0927 S   0  0  0  0  0  0  0  0  0  0  0  0
  129.4270   69.9650   -2.9634 C   0  0  0  0  0  0  0  0  0  0  0  0
  128.2558   69.2480   -3.6324 C   0  0  1  0  0  0  0  0  0  0  0  0
  128.6469   67.9479   -4.0789 O   0  0  0  0  0  0  0  0  0  0  0  0
  127.1164   69.0630   -2.6433 C   0  0  1  0  0  0  0  0  0  0  0  0
  125.8870   69.5029   -3.2285 O   0  0  0  0  0  0  0  0  0  0  0  0
  127.0755   67.5789   -2.3251 C   0  0  1  0  0  0  0  0  0  0  0  0
  125.7734   67.0299   -2.5566 O   0  0  0  0  0  0  0  0  0  0  0  0
  128.0896   66.9191   -3.2521 C   0  0  2  0  0  0  0  0  0  0  0  0
  131.9358   65.6697   -6.1539 O   0  0  0  0  0  0  0  0  0  0  0  0
  129.8846   62.4267   -1.1165 N   0  0  0  0  0  0  0  0  0  0  0  0
  128.7447   62.6602   -1.7977 C   0  0  0  0  0  0  0  0  0  0  0  0
  128.4112   63.8703   -2.2918 N   0  0  0  0  0  0  0  0  0  0  0  0
  129.2213   64.9507   -2.1262 C   0  0  0  0  0  0  0  0  0  0  0  0
  130.4856   64.7712   -1.3911 C   0  0  0  0  0  0  0  0  0  0  0  0
  130.7854   63.4101   -0.8788 C   0  0  0  0  0  0  0  0  0  0  0  0
  131.9257   63.1636   -0.1911 N   0  0  0  0  0  0  0  0  0  0  0  0
  131.0956   65.9685   -1.3687 N   0  0  0  0  0  0  0  0  0  0  0  0
  130.2938   66.8416   -2.0277 C   0  0  0  0  0  0  0  0  0  0  0  0
  129.1746   66.2428   -2.4813 N   0  0  0  0  0  0  0  0  0  0  0  0
  2  1  1  6  0  0  0
  2  3  1  0  0  0  0
  2  5  1  0  0  0  0
  3  4  1  0  0  0  0
  3 16  1  0  0  0  0
  5  6  1  0  0  0  0
  6  7  1  0  0  0  0
  7  8  1  0  0  0  0
  9  8  1  1  0  0  0
  9 10  1  0  0  0  0
  9 11  1  0  0  0  0
 10 15  1  0  0  0  0
 11 12  1  6  0  0  0
 11 13  1  0  0  0  0
 13 14  1  6  0  0  0
 13 15  1  0  0  0  0
 15 26  1  1  0  0  0
 17 18  2  0  0  0  0
 17 22  1  0  0  0  0
 18 19  1  0  0  0  0
 19 20  2  0  0  0  0
 20 21  1  0  0  0  0
 20 26  1  0  0  0  0
 21 22  2  0  0  0  0
 21 24  1  0  0  0  0
 22 23  1  0  0  0  0
 24 25  2  0  0  0  0
 25 26  1  0  0  0  0
M  END
>  <CHROM.1>
137.59534850,-175.20166393,-179.27394615,158.71423505,-87.75555624,62.95157959
-146.41079479,129.99677978,66.79982598,-3.18975097,-1.61085864,-0.39388493
2.68718645

>  <Name>
ligand

>  <RI>
0

>  <Rbt.Current_Directory>
/home/itssahil/PROJECTS/Mol_Feturizer/Test_systems_manuscript/rnas/3npn

>  <Rbt.Executable>
rbdock ($Id: //depot/dev/client3/rdock/2013.1/src/exe/rbdock.cxx#4 $)

>  <Rbt.Library>
libRbt.so (2013.1, Build901 2013/11/27)

>  <Rbt.Parameter_File>
/export/apps/rDock/src/rDock_2013.1_src/data/scripts/dock_solv.prm

>  <Rbt.Receptor>
prm/pocket_docking_6.prm

>  <SCORE>
-19.679

>  <SCORE.INTER>
-16.7637

>  <SCORE.INTER.CONST>
1

>  <SCORE.INTER.POLAR>
0

>  <SCORE.INTER.ROT>
7

>  <SCORE.INTER.SOLV>
14.6832

>  <SCORE.INTER.VDW>
-24.3368

>  <SCORE.INTER.norm>
-0.644756

>  <SCORE.INTRA>
-2.91531

>  <SCORE.INTRA.DIHEDRAL>
0.161683

>  <SCORE.INTRA.DIHEDRAL.0>
4.37896

>  <SCORE.INTRA.POLAR>
0

>  <SCORE.INTRA.POLAR.0>
0

>  <SCORE.INTRA.REPUL>
0

>  <SCORE.INTRA.REPUL.0>
0

>  <SCORE.INTRA.SOLV>
-0.808826

>  <SCORE.INTRA.SOLV.lig_0>
-50.5538

>  <SCORE.INTRA.VDW>
-2.59173

>  <SCORE.INTRA.VDW.0>
-1.30673

>  <SCORE.INTRA.norm>
-0.112127

>  <SCORE.RESTR>
0

>  <SCORE.RESTR.CAVITY>
0

>  <SCORE.RESTR.norm>
0

>  <SCORE.SYSTEM>
0

>  <SCORE.SYSTEM.CONST>
0

>  <SCORE.SYSTEM.DIHEDRAL>
0

>  <SCORE.SYSTEM.SOLV>
0

>  <SCORE.SYSTEM.norm>
0

>  <SCORE.heavy>
26

>  <SCORE.norm>
-0.756883

>  <RMSD>
5.537

$$$$
ligand
 OpenBabel02271912153D
libRbt.so/2013.1/901 2013/11/27
 26 28  0  0  0  0  0  0  0  0999 V2000
  133.8809   67.3382   -5.3287 N   0  0  0  0  0  0  0  0  0  0  0  0
  133.5799   68.5870   -4.5677 C   0  0  2  0  0  0  0  0  0  0  0  0
  133.8380   68.3890   -3.1016 C   0  0  0  0  0  0  0  0  0  0  0  0
  134.3165   69.2874   -2.4107 O   0  0  0  0  0  0  0  0  0  0  0  0
  132.1252   68.9974   -4.7801 C   0  0  0  0  0  0  0  0  0  0  0  0
  131.8023   70.3847   -4.2337 C   0  0  0  0  0  0  0  0  0  0  0  0
  130.1207   70.7894   -4.5738 S   0  0  0  0  0  0  0  0  0  0  0  0
  129.2655   69.9814   -3.2597 C   0  0  0  0  0  0  0  0  0  0  0  0
  127.9910   69.2981   -3.7520 C   0  0  1  0  0  0  0  0  0  0  0  0
  128.2993   68.0718   -4.4180 O   0  0  0  0  0  0  0  0  0  0  0  0
  127.0865   68.9605   -2.5778 C   0  0  1  0  0  0  0  0  0  0  0  0
  125.7556   69.4145   -2.8417 O   0  0  0  0  0  0  0  0  0  0  0  0
  127.1351   67.4497   -2.4333 C   0  0  1  0  0  0  0  0  0  0  0  0
  125.8217   66.8797   -2.4540 O   0  0  0  0  0  0  0  0  0  0  0  0
  127.9426   66.9367   -3.6200 C   0  0  2  0  0  0  0  0  0  0  0  0
  133.5848   67.3151   -2.5575 O   0  0  0  0  0  0  0  0  0  0  0  0
  129.9959   62.6683   -1.2687 N   0  0  0  0  0  0  0  0  0  0  0  0
  128.7065   62.9846   -1.5035 C   0  0  0  0  0  0  0  0  0  0  0  0
  128.3227   64.1208   -2.1212 N   0  0  0  0  0  0  0  0  0  0  0  0
  129.2332   65.0357   -2.5508 C   0  0  0  0  0  0  0  0  0  0  0  0
  130.6630   64.7576   -2.3285 C   0  0  0  0  0  0  0  0  0  0  0  0
  131.0086   63.4860   -1.6440 C   0  0  0  0  0  0  0  0  0  0  0  0
  132.2999   63.1584   -1.4003 N   0  0  0  0  0  0  0  0  0  0  0  0
  131.3452   65.7968   -2.8393 N   0  0  0  0  0  0  0  0  0  0  0  0
  130.4355   66.6677   -3.3425 C   0  0  0  0  0  0  0  0  0  0  0  0
  129.1747   66.2217   -3.1735 N   0  0  0  0  0  0  0  0  0  0  0  0
  2  1  1  6  0  0  0
  2  3  1  0  0  0  0
  2  5  1  0  0  0  0
  3  4  1  0  0  0  0
  3 16  1  0  0  0  0
  5  6  1  0  0  0  0
  6  7  1  0  0  0  0
  7  8  1  0  0  0  0
  9  8  1  1  0  0  0
  9 10  1  0  0  0  0
  9 11  1  0  0  0  0
 10 15  1  0  0  0  0
 11 12  1  6  0  0  0
 11 13  1  0  0  0  0
 13 14  1  6  0  0  0
 13 15  1  0  0  0  0
 15 26  1  1  0  0  0
 17 18  2  0  0  0  0
 17 22  1  0  0  0  0
 18 19  1  0  0  0  0
 19 20  2  0  0  0  0
 20 21  1  0  0  0  0
 20 26  1  0  0  0  0
 21 22  2  0  0  0  0
 21 24  1  0  0  0  0
 22 23  1  0  0  0  0
 24 25  2  0  0  0  0
 25 26  1  0  0  0  0
M  END
>  <CHROM.1>
142.62350284,-170.14091445,178.08511595,82.48645206,-138.17491956,77.40974609
-171.43951128,130.12923872,67.29128786,-3.12821211,-1.06531209,-0.07929491
2.79862899

>  <Name>
ligand

>  <RI>
0

>  <Rbt.Current_Directory>
/home/itssahil/PROJECTS/Mol_Feturizer/Test_systems_manuscript/rnas/3npn

>  <Rbt.Executable>
rbdock ($Id: //depot/dev/client3/rdock/2013.1/src/exe/rbdock.cxx#4 $)

>  <Rbt.Library>
libRbt.so (2013.1, Build901 2013/11/27)

>  <Rbt.Parameter_File>
/export/apps/rDock/src/rDock_2013.1_src/data/scripts/dock_solv.prm

>  <Rbt.Receptor>
prm/pocket_docking_5.prm

>  <SCORE>
-16.3574

>  <SCORE.INTER>
-14.8131

>  <SCORE.INTER.CONST>
1

>  <SCORE.INTER.POLAR>
0

>  <SCORE.INTER.ROT>
7

>  <SCORE.INTER.SOLV>
10.8239

>  <SCORE.INTER.VDW>
-21.75

>  <SCORE.INTER.norm>
-0.569735

>  <SCORE.INTRA>
-1.54428

>  <SCORE.INTRA.DIHEDRAL>
2.3535

>  <SCORE.INTRA.DIHEDRAL.0>
4.37896

>  <SCORE.INTRA.POLAR>
0

>  <SCORE.INTRA.POLAR.0>
0

>  <SCORE.INTRA.REPUL>
0

>  <SCORE.INTRA.REPUL.0>
0

>  <SCORE.INTRA.SOLV>
-0.79668

>  <SCORE.INTRA.SOLV.lig_0>
-50.5538

>  <SCORE.INTRA.VDW>
-2.32269

>  <SCORE.INTRA.VDW.0>
-1.30673

>  <SCORE.INTRA.norm>
-0.0593954

>  <SCORE.RESTR>
0

>  <SCORE.RESTR.CAVITY>
0

>  <SCORE.RESTR.norm>
0

>  <SCORE.SYSTEM>
0

>  <SCORE.SYSTEM.CONST>
0

>  <SCORE.SYSTEM.DIHEDRAL>
0

>  <SCORE.SYSTEM.SOLV>
0

>  <SCORE.SYSTEM.norm>
0

>  <SCORE.heavy>
26

>  <SCORE.norm>
-0.62913

>  <RMSD>
5.598

$$$$
ligand
 OpenBabel02271912153D
libRbt.so/2013.1/901 2013/11/27
 26 28  0  0  0  0  0  0  0  0999 V2000
  128.0759   67.2554   -2.2759 N   0  0  0  0  0  0  0  0  0  0  0  0
  128.8820   66.6148   -1.1947 C   0  0  2  0  0  0  0  0  0  0  0  0
  129.6860   67.6439   -0.4533 C   0  0  0  0  0  0  0  0  0  0  0  0
  130.1121   67.4259    0.6801 O   0  0  0  0  0  0  0  0  0  0  0  0
  129.8174   65.5634   -1.7856 C   0  0  0  0  0  0  0  0  0  0  0  0
  129.0813   64.4004   -2.4436 C   0  0  0  0  0  0  0  0  0  0  0  0
  128.9229   63.0655   -1.3033 S   0  0  0  0  0  0  0  0  0  0  0  0
  130.5992   62.5689   -1.0695 C   0  0  0  0  0  0  0  0  0  0  0  0
  130.9779   61.4100   -1.9899 C   0  0  1  0  0  0  0  0  0  0  0  0
  132.3973   61.2537   -2.0488 O   0  0  0  0  0  0  0  0  0  0  0  0
  130.4006   60.1068   -1.4616 C   0  0  1  0  0  0  0  0  0  0  0  0
  129.7229   59.4123   -2.5131 O   0  0  0  0  0  0  0  0  0  0  0  0
  131.5820   59.3056   -0.9437 C   0  0  1  0  0  0  0  0  0  0  0  0
  131.6308   58.0030   -1.5364 O   0  0  0  0  0  0  0  0  0  0  0  0
  132.8287   60.0961   -1.3234 C   0  0  2  0  0  0  0  0  0  0  0  0
  129.9296   68.7376   -0.9609 O   0  0  0  0  0  0  0  0  0  0  0  0
  135.9840   58.6223    2.6560 N   0  0  0  0  0  0  0  0  0  0  0  0
  135.4356   57.8805    1.6728 C   0  0  0  0  0  0  0  0  0  0  0  0
  134.6409   58.3947    0.7116 N   0  0  0  0  0  0  0  0  0  0  0  0
  134.3371   59.7203    0.6781 C   0  0  0  0  0  0  0  0  0  0  0  0
  134.9012   60.5942    1.7219 C   0  0  0  0  0  0  0  0  0  0  0  0
  135.7683   59.9567    2.7449 C   0  0  0  0  0  0  0  0  0  0  0  0
  136.3228   60.6908    3.7388 N   0  0  0  0  0  0  0  0  0  0  0  0
  134.4605   61.8381    1.4674 N   0  0  0  0  0  0  0  0  0  0  0  0
  133.6798   61.7704    0.3606 C   0  0  0  0  0  0  0  0  0  0  0  0
  133.6005   60.5116   -0.1151 N   0  0  0  0  0  0  0  0  0  0  0  0
  2  1  1  6  0  0  0
  2  3  1  0  0  0  0
  2  5  1  0  0  0  0
  3  4  1  0  0  0  0
  3 16  1  0  0  0  0
  5  6  1  0  0  0  0
  6  7  1  0  0  0  0
  7  8  1  0  0  0  0
  9  8  1  1  0  0  0
  9 10  1  0  0  0  0
  9 11  1  0  0  0  0
 10 15  1  0  0  0  0
 11 12  1  6  0  0  0
 11 13  1  0  0  0  0
 13 14  1  6  0  0  0
 13 15  1  0  0  0  0
 15 26  1  1  0  0  0
 17 18  2  0  0  0  0
 17 22  1  0  0  0  0
 18 19  1  0  0  0  0
 19 20  2  0  0  0  0
 20 21  1  0  0  0  0
 20 26  1  0  0  0  0
 21 22  2  0  0  0  0
 21 24  1  0  0  0  0
 22 23  1  0  0  0  0
 24 25  2  0  0  0  0
 25 26  1  0  0  0  0
M  END
>  <CHROM.1>
159.07459732,-63.59666795,-95.37154407,-65.95833633,-95.28181620,164.72340651
-168.46260868,131.83626059,62.13878371,-0.37512445,-2.43194779,0.68197392
-2.85708817

>  <Name>
ligand

>  <RI>
0

>  <Rbt.Current_Directory>
/home/itssahil/PROJECTS/Mol_Feturizer/Test_systems_manuscript/rnas/3npn

>  <Rbt.Executable>
rbdock ($Id: //depot/dev/client3/rdock/2013.1/src/exe/rbdock.cxx#4 $)

>  <Rbt.Library>
libRbt.so (2013.1, Build901 2013/11/27)

>  <Rbt.Parameter_File>
/export/apps/rDock/src/rDock_2013.1_src/data/scripts/dock_solv.prm

>  <Rbt.Receptor>
prm/pocket_docking_8.prm

>  <SCORE>
-16.3771

>  <SCORE.INTER>
-17.62

>  <SCORE.INTER.CONST>
1

>  <SCORE.INTER.POLAR>
0

>  <SCORE.INTER.ROT>
7

>  <SCORE.INTER.SOLV>
12.231

>  <SCORE.INTER.VDW>
-24.0903

>  <SCORE.INTER.norm>
-0.677691

>  <SCORE.INTRA>
1.24283

>  <SCORE.INTRA.DIHEDRAL>
4.26434

>  <SCORE.INTRA.DIHEDRAL.0>
4.37896

>  <SCORE.INTRA.POLAR>
0

>  <SCORE.INTRA.POLAR.0>
0

>  <SCORE.INTRA.REPUL>
0

>  <SCORE.INTRA.REPUL.0>
0

>  <SCORE.INTRA.SOLV>
0.0208577

>  <SCORE.INTRA.SOLV.lig_0>
-50.5538

>  <SCORE.INTRA.VDW>
-0.899767

>  <SCORE.INTRA.VDW.0>
-1.30673

>  <SCORE.INTRA.norm>
0.0478013

>  <SCORE.RESTR>
0

>  <SCORE.RESTR.CAVITY>
0

>  <SCORE.RESTR.norm>
0

>  <SCORE.SYSTEM>
0

>  <SCORE.SYSTEM.CONST>
0

>  <SCORE.SYSTEM.DIHEDRAL>
0

>  <SCORE.SYSTEM.SOLV>
0

>  <SCORE.SYSTEM.norm>
0

>  <SCORE.heavy>
26

>  <SCORE.norm>
-0.629889

>  <RMSD>
5.669

$$$$
ligand
 OpenBabel02271912153D
libRbt.so/2013.1/901 2013/11/27
 26 28  0  0  0  0  0  0  0  0999 V2000
  132.8187   70.2381    0.0989 N   0  0  0  0  0  0  0  0  0  0  0  0
  133.5774   70.2330   -1.1870 C   0  0  2  0  0  0  0  0  0  0  0  0
  134.3936   71.4860   -1.3252 C   0  0  0  0  0  0  0  0  0  0  0  0
  134.0435   72.5379   -0.7917 O   0  0  0  0  0  0  0  0  0  0  0  0
  132.6164   70.1160   -2.3670 C   0  0  0  0  0  0  0  0  0  0  0  0
  131.7605   71.3616   -2.5757 C   0  0  0  0  0  0  0  0  0  0  0  0
  130.4013   70.9878   -3.6341 S   0  0  0  0  0  0  0  0  0  0  0  0
  129.2997   70.1408   -2.5477 C   0  0  0  0  0  0  0  0  0  0  0  0
  128.1265   69.5208   -3.3047 C   0  0  1  0  0  0  0  0  0  0  0  0
  128.5506   68.3726   -4.0424 O   0  0  0  0  0  0  0  0  0  0  0  0
  127.0538   69.0619   -2.3303 C   0  0  1  0  0  0  0  0  0  0  0  0
  125.7750   69.5480   -2.7491 O   0  0  0  0  0  0  0  0  0  0  0  0
  127.0982   67.5441   -2.3438 C   0  0  1  0  0  0  0  0  0  0  0  0
  125.8114   66.9858   -2.6316 O   0  0  0  0  0  0  0  0  0  0  0  0
  128.0877   67.1593   -3.4374 C   0  0  2  0  0  0  0  0  0  0  0  0
  135.4308   71.4917   -1.9865 O   0  0  0  0  0  0  0  0  0  0  0  0
  129.8026   62.6489   -1.2742 N   0  0  0  0  0  0  0  0  0  0  0  0
  128.5621   62.9943   -1.6738 C   0  0  0  0  0  0  0  0  0  0  0  0
  128.2651   64.1933   -2.2159 N   0  0  0  0  0  0  0  0  0  0  0  0
  129.2194   65.1466   -2.3928 C   0  0  0  0  0  0  0  0  0  0  0  0
  130.6000   64.8399   -1.9792 C   0  0  0  0  0  0  0  0  0  0  0  0
  130.8506   63.4990   -1.3924 C   0  0  0  0  0  0  0  0  0  0  0  0
  132.0916   63.1414   -0.9850 N   0  0  0  0  0  0  0  0  0  0  0  0
  131.3399   65.9265   -2.2584 N   0  0  0  0  0  0  0  0  0  0  0  0
  130.5091   66.8513   -2.8004 C   0  0  0  0  0  0  0  0  0  0  0  0
  129.2436   66.3944   -2.8829 N   0  0  0  0  0  0  0  0  0  0  0  0
  2  1  1  1  0  0  0
  2  3  1  0  0  0  0
  2  5  1  0  0  0  0
  3  4  1  0  0  0  0
  3 16  1  0  0  0  0
  5  6  1  0  0  0  0
  6  7  1  0  0  0  0
  7  8  1  0  0  0  0
  9  8  1  1  0  0  0
  9 10  1  0  0  0  0
  9 11  1  0  0  0  0
 10 15  1  0  0  0  0
 11 12  1  6  0  0  0
 11 13  1  0  0  0  0
 13 14  1  6  0  0  0
 13 15  1  0  0  0  0
 15 26  1  1  0  0  0
 17 18  2  0  0  0  0
 17 22  1  0  0  0  0
 18 19  1  0  0  0  0
 19 20  2  0  0  0  0
 20 21  1  0  0  0  0
 20 26  1  0  0  0  0
 21 22  2  0  0  0  0
 21 24  1  0  0  0  0
 22 23  1  0  0  0  0
 24 25  2  0  0  0  0
 25 26  1  0  0  0  0
M  END
>  <CHROM.1>
-28.37397548,69.10210829,-164.26487885,77.49006521,-171.06055262,73.40796348
-171.29245325,130.21025865,68.04420363,-2.27279892,-0.93828982,0.26712273
3.00225771

>  <Name>
ligand

>  <RI>
0

>  <Rbt.Current_Directory>
/home/itssahil/PROJECTS/Mol_Feturizer/Test_systems_manuscript/rnas/3npn

>  <Rbt.Executable>
rbdock ($Id: //depot/dev/client3/rdock/2013.1/src/exe/rbdock.cxx#4 $)

>  <Rbt.Library>
libRbt.so (2013.1, Build901 2013/11/27)

>  <Rbt.Parameter_File>
/export/apps/rDock/src/rDock_2013.1_src/data/scripts/dock_solv.prm

>  <Rbt.Receptor>
prm/pocket_docking_6.prm

>  <SCORE>
-14.0668

>  <SCORE.INTER>
-13.4746

>  <SCORE.INTER.CONST>
1

>  <SCORE.INTER.POLAR>
0

>  <SCORE.INTER.ROT>
7

>  <SCORE.INTER.SOLV>
9.3622

>  <SCORE.INTER.VDW>
-20.3705

>  <SCORE.INTER.norm>
-0.518253

>  <SCORE.INTRA>
-0.594292

>  <SCORE.INTRA.DIHEDRAL>
0.692638

>  <SCORE.INTRA.DIHEDRAL.0>
4.37896

>  <SCORE.INTRA.POLAR>
0

>  <SCORE.INTRA.POLAR.0>
0

>  <SCORE.INTRA.REPUL>
0

>  <SCORE.INTRA.REPUL.0>
0

>  <SCORE.INTRA.SOLV>
-0.0528467

>  <SCORE.INTRA.SOLV.lig_0>
-50.5538

>  <SCORE.INTRA.VDW>
-0.914188

>  <SCORE.INTRA.VDW.0>
-1.30673

>  <SCORE.INTRA.norm>
-0.0228574

>  <SCORE.RESTR>
0.00208023

>  <SCORE.RESTR.CAVITY>
0.00208023

>  <SCORE.RESTR.norm>
8.00088e-05

>  <SCORE.SYSTEM>
0

>  <SCORE.SYSTEM.CONST>
0

>  <SCORE.SYSTEM.DIHEDRAL>
0

>  <SCORE.SYSTEM.SOLV>
0

>  <SCORE.SYSTEM.norm>
0

>  <SCORE.heavy>
26

>  <SCORE.norm>
-0.54103

>  <RMSD>
5.682

$$$$
ligand
 OpenBabel02271912153D
libRbt.so/2013.1/901 2013/11/27
 26 28  0  0  0  0  0  0  0  0999 V2000
  131.9314   67.9621   -2.3692 N   0  0  0  0  0  0  0  0  0  0  0  0
  132.5518   66.6074   -2.4653 C   0  0  2  0  0  0  0  0  0  0  0  0
  132.0898   65.9003   -3.7070 C   0  0  0  0  0  0  0  0  0  0  0  0
  130.8969   65.8427   -4.0023 O   0  0  0  0  0  0  0  0  0  0  0  0
  132.1925   65.7736   -1.2383 C   0  0  0  0  0  0  0  0  0  0  0  0
  132.8190   64.3827   -1.2478 C   0  0  0  0  0  0  0  0  0  0  0  0
  132.2407   63.4523    0.1333 S   0  0  0  0  0  0  0  0  0  0  0  0
  132.4252   61.7904   -0.4281 C   0  0  0  0  0  0  0  0  0  0  0  0
  131.6344   61.5370   -1.7103 C   0  0  1  0  0  0  0  0  0  0  0  0
  132.0802   60.3400   -2.3514 O   0  0  0  0  0  0  0  0  0  0  0  0
  130.1586   61.3577   -1.3929 C   0  0  1  0  0  0  0  0  0  0  0  0
  129.3710   62.1864   -2.2532 O   0  0  0  0  0  0  0  0  0  0  0  0
  129.8581   59.8864   -1.6180 C   0  0  1  0  0  0  0  0  0  0  0  0
  128.7654   59.7087   -2.5261 O   0  0  0  0  0  0  0  0  0  0  0  0
  131.1267   59.2805   -2.2069 C   0  0  2  0  0  0  0  0  0  0  0  0
  132.8969   65.3513   -4.4556 O   0  0  0  0  0  0  0  0  0  0  0  0
  135.3018   57.4719    0.4878 N   0  0  0  0  0  0  0  0  0  0  0  0
  135.1808   58.5816   -0.2684 C   0  0  0  0  0  0  0  0  0  0  0  0
  134.0421   58.9237   -0.9057 N   0  0  0  0  0  0  0  0  0  0  0  0
  132.9252   58.1514   -0.8238 C   0  0  0  0  0  0  0  0  0  0  0  0
  132.9826   56.9216   -0.0141 C   0  0  0  0  0  0  0  0  0  0  0  0
  134.2693   56.6120    0.6594 C   0  0  0  0  0  0  0  0  0  0  0  0
  134.4039   55.4992    1.4194 N   0  0  0  0  0  0  0  0  0  0  0  0
  131.7694   56.3485   -0.0911 N   0  0  0  0  0  0  0  0  0  0  0  0
  131.0007   57.1373   -0.8824 C   0  0  0  0  0  0  0  0  0  0  0  0
  131.6826   58.2130   -1.3237 N   0  0  0  0  0  0  0  0  0  0  0  0
  2  1  1  1  0  0  0
  2  3  1  0  0  0  0
  2  5  1  0  0  0  0
  3  4  1  0  0  0  0
  3 16  1  0  0  0  0
  5  6  1  0  0  0  0
  6  7  1  0  0  0  0
  7  8  1  0  0  0  0
  9  8  1  1  0  0  0
  9 10  1  0  0  0  0
  9 11  1  0  0  0  0
 10 15  1  0  0  0  0
 11 12  1  6  0  0  0
 11 13  1  0  0  0  0
 13 14  1  6  0  0  0
 13 15  1  0  0  0  0
 15 26  1  1  0  0  0
 17 18  2  0  0  0  0
 17 22  1  0  0  0  0
 18 19  1  0  0  0  0
 19 20  2  0  0  0  0
 20 21  1  0  0  0  0
 20 26  1  0  0  0  0
 21 22  2  0  0  0  0
 21 24  1  0  0  0  0
 22 23  1  0  0  0  0
 24 25  2  0  0  0  0
 25 26  1  0  0  0  0
M  END
>  <CHROM.1>
-48.71193454,-178.63493671,-175.27034610,154.83931951,-58.15203274,163.61117295
-5.96768112,132.12940156,61.19192555,-1.35285360,-1.72699734,0.45046355,2.92502729

>  <Name>
ligand

>  <RI>
0

>  <Rbt.Current_Directory>
/home/itssahil/PROJECTS/Mol_Feturizer/Test_systems_manuscript/rnas/3npn

>  <Rbt.Executable>
rbdock ($Id: //depot/dev/client3/rdock/2013.1/src/exe/rbdock.cxx#4 $)

>  <Rbt.Library>
libRbt.so (2013.1, Build901 2013/11/27)

>  <Rbt.Parameter_File>
/export/apps/rDock/src/rDock_2013.1_src/data/scripts/dock_solv.prm

>  <Rbt.Receptor>
prm/pocket_docking_7.prm

>  <SCORE>
-13.8264

>  <SCORE.INTER>
-12.3764

>  <SCORE.INTER.CONST>
1

>  <SCORE.INTER.POLAR>
0

>  <SCORE.INTER.ROT>
7

>  <SCORE.INTER.SOLV>
11.8505

>  <SCORE.INTER.VDW>
-20.4678

>  <SCORE.INTER.norm>
-0.476017

>  <SCORE.INTRA>
-1.44994

>  <SCORE.INTRA.DIHEDRAL>
0.171617

>  <SCORE.INTRA.DIHEDRAL.0>
4.37896

>  <SCORE.INTRA.POLAR>
0

>  <SCORE.INTRA.POLAR.0>
0

>  <SCORE.INTRA.REPUL>
0

>  <SCORE.INTRA.REPUL.0>
0

>  <SCORE.INTRA.SOLV>
-0.760576

>  <SCORE.INTRA.SOLV.lig_0>
-50.5538

>  <SCORE.INTRA.VDW>
-1.15546

>  <SCORE.INTRA.VDW.0>
-1.30673

>  <SCORE.INTRA.norm>
-0.055767

>  <SCORE.RESTR>
0

>  <SCORE.RESTR.CAVITY>
0

>  <SCORE.RESTR.norm>
0

>  <SCORE.SYSTEM>
0

>  <SCORE.SYSTEM.CONST>
0

>  <SCORE.SYSTEM.DIHEDRAL>
0

>  <SCORE.SYSTEM.SOLV>
0

>  <SCORE.SYSTEM.norm>
0

>  <SCORE.heavy>
26

>  <SCORE.norm>
-0.531784

>  <RMSD>
5.723

$$$$
ligand
 OpenBabel02271912153D
libRbt.so/2013.1/901 2013/11/27
 26 28  0  0  0  0  0  0  0  0999 V2000
  127.4622   67.4753   -2.9946 N   0  0  0  0  0  0  0  0  0  0  0  0
  128.6262   66.5402   -3.0080 C   0  0  2  0  0  0  0  0  0  0  0  0
  129.0466   66.2381   -4.4176 C   0  0  0  0  0  0  0  0  0  0  0  0
  128.2332   66.2407   -5.3407 O   0  0  0  0  0  0  0  0  0  0  0  0
  128.2682   65.2409   -2.2914 C   0  0  0  0  0  0  0  0  0  0  0  0
  129.4590   64.3058   -2.1040 C   0  0  0  0  0  0  0  0  0  0  0  0
  128.9039   62.7283   -1.5468 S   0  0  0  0  0  0  0  0  0  0  0  0
  130.4203   61.8665   -1.2843 C   0  0  0  0  0  0  0  0  0  0  0  0
  130.5866   60.7061   -2.2638 C   0  0  1  0  0  0  0  0  0  0  0  0
  131.9699   60.4089   -2.4659 O   0  0  0  0  0  0  0  0  0  0  0  0
  129.9303   59.4513   -1.7111 C   0  0  1  0  0  0  0  0  0  0  0  0
  129.0865   58.8640   -2.7063 O   0  0  0  0  0  0  0  0  0  0  0  0
  131.0660   58.5180   -1.3306 C   0  0  1  0  0  0  0  0  0  0  0  0
  130.9222   57.2375   -1.9549 O   0  0  0  0  0  0  0  0  0  0  0  0
  132.3460   59.1903   -1.8132 C   0  0  2  0  0  0  0  0  0  0  0  0
  130.2178   65.9701   -4.6813 O   0  0  0  0  0  0  0  0  0  0  0  0
  135.5005   57.2577    1.9654 N   0  0  0  0  0  0  0  0  0  0  0  0
  134.7585   56.6060    1.0475 C   0  0  0  0  0  0  0  0  0  0  0  0
  133.9918   57.2344    0.1325 N   0  0  0  0  0  0  0  0  0  0  0  0
  133.9181   58.5918    0.0823 C   0  0  0  0  0  0  0  0  0  0  0  0
  134.7029   59.3717    1.0555 C   0  0  0  0  0  0  0  0  0  0  0  0
  135.5244   58.6105    2.0305 C   0  0  0  0  0  0  0  0  0  0  0  0
  136.2719   59.2537    2.9588 N   0  0  0  0  0  0  0  0  0  0  0  0
  134.4637   60.6688    0.7975 N   0  0  0  0  0  0  0  0  0  0  0  0
  133.5995   60.7193   -0.2465 C   0  0  0  0  0  0  0  0  0  0  0  0
  133.2690   59.4856   -0.6776 N   0  0  0  0  0  0  0  0  0  0  0  0
  2  1  1  6  0  0  0
  2  3  1  0  0  0  0
  2  5  1  0  0  0  0
  3  4  1  0  0  0  0
  3 16  1  0  0  0  0
  5  6  1  0  0  0  0
  6  7  1  0  0  0  0
  7  8  1  0  0  0  0
  9  8  1  1  0  0  0
  9 10  1  0  0  0  0
  9 11  1  0  0  0  0
 10 15  1  0  0  0  0
 11 12  1  6  0  0  0
 11 13  1  0  0  0  0
 13 14  1  6  0  0  0
 13 15  1  0  0  0  0
 15 26  1  1  0  0  0
 17 18  2  0  0  0  0
 17 22  1  0  0  0  0
 18 19  1  0  0  0  0
 19 20  2  0  0  0  0
 20 21  1  0  0  0  0
 20 26  1  0  0  0  0
 21 22  2  0  0  0  0
 21 24  1  0  0  0  0
 22 23  1  0  0  0  0
 24 25  2  0  0  0  0
 25 26  1  0  0  0  0
M  END
>  <CHROM.1>
-29.98767952,-172.53060035,-169.58936400,-175.92210461,-113.63413242,154.11058558
-173.59493336,131.41583378,61.23987630,-1.35957151,-2.34314655,0.63920994
3.13906833

>  <Name>
ligand

>  <RI>
0

>  <Rbt.Current_Directory>
/home/itssahil/PROJECTS/Mol_Feturizer/Test_systems_manuscript/rnas/3npn

>  <Rbt.Executable>
rbdock ($Id: //depot/dev/client3/rdock/2013.1/src/exe/rbdock.cxx#4 $)

>  <Rbt.Library>
libRbt.so (2013.1, Build901 2013/11/27)

>  <Rbt.Parameter_File>
/export/apps/rDock/src/rDock_2013.1_src/data/scripts/dock_solv.prm

>  <Rbt.Receptor>
prm/pocket_docking_7.prm

>  <SCORE>
-21.4679

>  <SCORE.INTER>
-21.7001

>  <SCORE.INTER.CONST>
1

>  <SCORE.INTER.POLAR>
0

>  <SCORE.INTER.ROT>
7

>  <SCORE.INTER.SOLV>
13.315

>  <SCORE.INTER.VDW>
-27.1717

>  <SCORE.INTER.norm>
-0.834619

>  <SCORE.INTRA>
0.229077

>  <SCORE.INTRA.DIHEDRAL>
3.30085

>  <SCORE.INTRA.DIHEDRAL.0>
4.37896

>  <SCORE.INTRA.POLAR>
0

>  <SCORE.INTRA.POLAR.0>
0

>  <SCORE.INTRA.REPUL>
0

>  <SCORE.INTRA.REPUL.0>
0

>  <SCORE.INTRA.SOLV>
-0.915953

>  <SCORE.INTRA.SOLV.lig_0>
-50.5538

>  <SCORE.INTRA.VDW>
-0.963373

>  <SCORE.INTRA.VDW.0>
-1.30673

>  <SCORE.INTRA.norm>
0.00881067

>  <SCORE.RESTR>
0.00311919

>  <SCORE.RESTR.CAVITY>
0.00311919

>  <SCORE.RESTR.norm>
0.000119969

>  <SCORE.SYSTEM>
0

>  <SCORE.SYSTEM.CONST>
0

>  <SCORE.SYSTEM.DIHEDRAL>
0

>  <SCORE.SYSTEM.SOLV>
0

>  <SCORE.SYSTEM.norm>
0

>  <SCORE.heavy>
26

>  <SCORE.norm>
-0.825689

>  <RMSD>
5.748

$$$$
ligand
 OpenBabel02271912153D
libRbt.so/2013.1/901 2013/11/27
 26 28  0  0  0  0  0  0  0  0999 V2000
  133.1413   68.2355   -5.5500 N   0  0  0  0  0  0  0  0  0  0  0  0
  132.9832   67.1109   -4.5807 C   0  0  2  0  0  0  0  0  0  0  0  0
  134.3080   66.7414   -3.9778 C   0  0  0  0  0  0  0  0  0  0  0  0
  135.3401   66.7550   -4.6473 O   0  0  0  0  0  0  0  0  0  0  0  0
  132.3810   65.8936   -5.2773 C   0  0  0  0  0  0  0  0  0  0  0  0
  130.9636   66.1299   -5.7898 C   0  0  0  0  0  0  0  0  0  0  0  0
  129.8864   66.4834   -4.4401 S   0  0  0  0  0  0  0  0  0  0  0  0
  128.3070   66.5398   -5.2234 C   0  0  0  0  0  0  0  0  0  0  0  0
  127.3192   67.4025   -4.4400 C   0  0  1  0  0  0  0  0  0  0  0  0
  127.0816   66.8492   -3.1439 O   0  0  0  0  0  0  0  0  0  0  0  0
  127.8833   68.7997   -4.2392 C   0  0  1  0  0  0  0  0  0  0  0  0
  126.9072   69.7774   -4.6114 O   0  0  0  0  0  0  0  0  0  0  0  0
  128.2318   68.9022   -2.7648 C   0  0  1  0  0  0  0  0  0  0  0  0
  127.6064   70.0380   -2.1572 O   0  0  0  0  0  0  0  0  0  0  0  0
  127.7201   67.6200   -2.1188 C   0  0  2  0  0  0  0  0  0  0  0  0
  134.3904   66.4053   -2.7973 O   0  0  0  0  0  0  0  0  0  0  0  0
  129.8456   62.8526   -1.2720 N   0  0  0  0  0  0  0  0  0  0  0  0
  128.7158   63.1867   -1.9274 C   0  0  0  0  0  0  0  0  0  0  0  0
  128.2893   64.4587   -2.0684 N   0  0  0  0  0  0  0  0  0  0  0  0
  128.9875   65.5020   -1.5442 C   0  0  0  0  0  0  0  0  0  0  0  0
  130.2341   65.2131   -0.8136 C   0  0  0  0  0  0  0  0  0  0  0  0
  130.6405   63.7893   -0.7014 C   0  0  0  0  0  0  0  0  0  0  0  0
  131.7718   63.4409   -0.0434 N   0  0  0  0  0  0  0  0  0  0  0  0
  130.7278   66.3944   -0.4048 N   0  0  0  0  0  0  0  0  0  0  0  0
  129.8734   67.3574   -0.8313 C   0  0  0  0  0  0  0  0  0  0  0  0
  128.8334   66.8335   -1.5102 N   0  0  0  0  0  0  0  0  0  0  0  0
  2  1  1  6  0  0  0
  2  3  1  0  0  0  0
  2  5  1  0  0  0  0
  3  4  1  0  0  0  0
  3 16  1  0  0  0  0
  5  6  1  0  0  0  0
  6  7  1  0  0  0  0
  7  8  1  0  0  0  0
  9  8  1  1  0  0  0
  9 10  1  0  0  0  0
  9 11  1  0  0  0  0
 10 15  1  0  0  0  0
 11 12  1  1  0  0  0
 11 13  1  0  0  0  0
 13 14  1  1  0  0  0
 13 15  1  0  0  0  0
 15 26  1  6  0  0  0
 17 18  2  0  0  0  0
 17 22  1  0  0  0  0
 18 19  1  0  0  0  0
 19 20  2  0  0  0  0
 20 21  1  0  0  0  0
 20 26  1  0  0  0  0
 21 22  2  0  0  0  0
 21 24  1  0  0  0  0
 22 23  1  0  0  0  0
 24 25  2  0  0  0  0
 25 26  1  0  0  0  0
M  END
>  <CHROM.1>
-37.64704523,-64.29616020,-62.10002789,-173.96997048,-154.91292549,-62.82291699
-20.58579754,130.09086305,66.54635676,-3.07556577,-0.16797756,0.27398885
-0.75708500

>  <Name>
ligand

>  <RI>
0

>  <Rbt.Current_Directory>
/home/itssahil/PROJECTS/Mol_Feturizer/Test_systems_manuscript/rnas/3npn

>  <Rbt.Executable>
rbdock ($Id: //depot/dev/client3/rdock/2013.1/src/exe/rbdock.cxx#4 $)

>  <Rbt.Library>
libRbt.so (2013.1, Build901 2013/11/27)

>  <Rbt.Parameter_File>
/export/apps/rDock/src/rDock_2013.1_src/data/scripts/dock_solv.prm

>  <Rbt.Receptor>
prm/pocket_docking_8.prm

>  <SCORE>
-20.9334

>  <SCORE.INTER>
-18.7328

>  <SCORE.INTER.CONST>
1

>  <SCORE.INTER.POLAR>
0

>  <SCORE.INTER.ROT>
7

>  <SCORE.INTER.SOLV>
15.6728

>  <SCORE.INTER.VDW>
-25.9795

>  <SCORE.INTER.norm>
-0.720493

>  <SCORE.INTRA>
-2.20056

>  <SCORE.INTRA.DIHEDRAL>
-0.651758

>  <SCORE.INTRA.DIHEDRAL.0>
4.37896

>  <SCORE.INTRA.POLAR>
0

>  <SCORE.INTRA.POLAR.0>
0

>  <SCORE.INTRA.REPUL>
0

>  <SCORE.INTRA.REPUL.0>
0

>  <SCORE.INTRA.SOLV>
0.825585

>  <SCORE.INTRA.SOLV.lig_0>
-50.5538

>  <SCORE.INTRA.VDW>
-2.28748

>  <SCORE.INTRA.VDW.0>
-1.30673

>  <SCORE.INTRA.norm>
-0.0846371

>  <SCORE.RESTR>
0

>  <SCORE.RESTR.CAVITY>
0

>  <SCORE.RESTR.norm>
0

>  <SCORE.SYSTEM>
0

>  <SCORE.SYSTEM.CONST>
0

>  <SCORE.SYSTEM.DIHEDRAL>
0

>  <SCORE.SYSTEM.SOLV>
0

>  <SCORE.SYSTEM.norm>
0

>  <SCORE.heavy>
26

>  <SCORE.norm>
-0.805131

>  <RMSD>
5.765

$$$$
ligand
 OpenBabel02271912153D
libRbt.so/2013.1/901 2013/11/27
 26 28  0  0  0  0  0  0  0  0999 V2000
  134.2666   66.3728    3.3843 N   0  0  0  0  0  0  0  0  0  0  0  0
  133.0906   65.6424    2.8251 C   0  0  2  0  0  0  0  0  0  0  0  0
  133.4894   64.2693    2.3661 C   0  0  0  0  0  0  0  0  0  0  0  0
  132.8280   63.2775    2.6703 O   0  0  0  0  0  0  0  0  0  0  0  0
  132.4937   66.4195    1.6549 C   0  0  0  0  0  0  0  0  0  0  0  0
  132.0028   67.8115    2.0408 C   0  0  0  0  0  0  0  0  0  0  0  0
  131.4190   68.6619    0.6115 S   0  0  0  0  0  0  0  0  0  0  0  0
  129.9289   67.7945    0.2394 C   0  0  0  0  0  0  0  0  0  0  0  0
  129.4916   68.0189   -1.2070 C   0  0  1  0  0  0  0  0  0  0  0  0
  130.3746   67.3524   -2.1117 O   0  0  0  0  0  0  0  0  0  0  0  0
  128.0999   67.4500   -1.4313 C   0  0  1  0  0  0  0  0  0  0  0  0
  127.2744   68.4229   -2.0789 O   0  0  0  0  0  0  0  0  0  0  0  0
  128.2863   66.2189   -2.3003 C   0  0  1  0  0  0  0  0  0  0  0  0
  127.4756   66.2829   -3.4789 O   0  0  0  0  0  0  0  0  0  0  0  0
  129.7609   66.1917   -2.6851 C   0  0  2  0  0  0  0  0  0  0  0  0
  134.4970   64.1029    1.6804 O   0  0  0  0  0  0  0  0  0  0  0  0
  129.3313   61.0459   -1.5447 N   0  0  0  0  0  0  0  0  0  0  0  0
  128.4061   61.9008   -2.0253 C   0  0  0  0  0  0  0  0  0  0  0  0
  128.6576   63.2029   -2.2727 N   0  0  0  0  0  0  0  0  0  0  0  0
  129.8852   63.7429   -2.0444 C   0  0  0  0  0  0  0  0  0  0  0  0
  130.9478   62.8678   -1.5187 C   0  0  0  0  0  0  0  0  0  0  0  0
  130.5966   61.4461   -1.2732 C   0  0  0  0  0  0  0  0  0  0  0  0
  131.5164   60.5784   -0.7883 N   0  0  0  0  0  0  0  0  0  0  0  0
  132.0477   63.6287   -1.3857 N   0  0  0  0  0  0  0  0  0  0  0  0
  131.7212   64.8824   -1.7870 C   0  0  0  0  0  0  0  0  0  0  0  0
  130.4341   64.9586   -2.1800 N   0  0  0  0  0  0  0  0  0  0  0  0
  2  1  1  6  0  0  0
  2  3  1  0  0  0  0
  2  5  1  0  0  0  0
  3  4  1  0  0  0  0
  3 16  1  0  0  0  0
  5  6  1  0  0  0  0
  6  7  1  0  0  0  0
  7  8  1  0  0  0  0
  9  8  1  1  0  0  0
  9 10  1  0  0  0  0
  9 11  1  0  0  0  0
 10 15  1  0  0  0  0
 11 12  1  6  0  0  0
 11 13  1  0  0  0  0
 13 14  1  6  0  0  0
 13 15  1  0  0  0  0
 15 26  1  1  0  0  0
 17 18  2  0  0  0  0
 17 22  1  0  0  0  0
 18 19  1  0  0  0  0
 19 20  2  0  0  0  0
 20 21  1  0  0  0  0
 20 26  1  0  0  0  0
 21 22  2  0  0  0  0
 21 24  1  0  0  0  0
 22 23  1  0  0  0  0
 24 25  2  0  0  0  0
 25 26  1  0  0  0  0
M  END
>  <CHROM.1>
132.67487095,-60.44527637,176.75185595,70.71743045,-160.27113194,70.52079014
152.09410204,130.74178361,65.33051136,-0.48830513,0.13142925,-0.76418927
0.21123136

>  <Name>
ligand

>  <RI>
0

>  <Rbt.Current_Directory>
/home/itssahil/PROJECTS/Mol_Feturizer/Test_systems_manuscript/rnas/3npn

>  <Rbt.Executable>
rbdock ($Id: //depot/dev/client3/rdock/2013.1/src/exe/rbdock.cxx#4 $)

>  <Rbt.Library>
libRbt.so (2013.1, Build901 2013/11/27)

>  <Rbt.Parameter_File>
/export/apps/rDock/src/rDock_2013.1_src/data/scripts/dock_solv.prm

>  <Rbt.Receptor>
prm/pocket_docking_5.prm

>  <SCORE>
-14.2552

>  <SCORE.INTER>
-12.4805

>  <SCORE.INTER.CONST>
1

>  <SCORE.INTER.POLAR>
0

>  <SCORE.INTER.ROT>
7

>  <SCORE.INTER.SOLV>
14.9345

>  <SCORE.INTER.VDW>
-21.5652

>  <SCORE.INTER.norm>
-0.48002

>  <SCORE.INTRA>
-1.77468

>  <SCORE.INTRA.DIHEDRAL>
-0.520964

>  <SCORE.INTRA.DIHEDRAL.0>
4.37896

>  <SCORE.INTRA.POLAR>
0

>  <SCORE.INTRA.POLAR.0>
0

>  <SCORE.INTRA.REPUL>
0

>  <SCORE.INTRA.REPUL.0>
0

>  <SCORE.INTRA.SOLV>
-0.178458

>  <SCORE.INTRA.SOLV.lig_0>
-50.5538

>  <SCORE.INTRA.VDW>
-1.42497

>  <SCORE.INTRA.VDW.0>
-1.30673

>  <SCORE.INTRA.norm>
-0.068257

>  <SCORE.RESTR>
0

>  <SCORE.RESTR.CAVITY>
0

>  <SCORE.RESTR.norm>
0

>  <SCORE.SYSTEM>
0

>  <SCORE.SYSTEM.CONST>
0

>  <SCORE.SYSTEM.DIHEDRAL>
0

>  <SCORE.SYSTEM.SOLV>
0

>  <SCORE.SYSTEM.norm>
0

>  <SCORE.heavy>
26

>  <SCORE.norm>
-0.548277

>  <RMSD>
6.082

$$$$
ligand
 OpenBabel02271912153D
libRbt.so/2013.1/901 2013/11/27
 26 28  0  0  0  0  0  0  0  0999 V2000
  133.7921   73.0314   -2.7381 N   0  0  0  0  0  0  0  0  0  0  0  0
  132.5659   72.2096   -2.9627 C   0  0  2  0  0  0  0  0  0  0  0  0
  132.3417   71.2682   -1.8144 C   0  0  0  0  0  0  0  0  0  0  0  0
  131.2071   70.9969   -1.4235 O   0  0  0  0  0  0  0  0  0  0  0  0
  132.6933   71.4139   -4.2590 C   0  0  0  0  0  0  0  0  0  0  0  0
  131.4440   70.6069   -4.5985 C   0  0  0  0  0  0  0  0  0  0  0  0
  130.0939   71.6938   -4.9197 S   0  0  0  0  0  0  0  0  0  0  0  0
  129.0432   71.4100   -3.5317 C   0  0  0  0  0  0  0  0  0  0  0  0
  127.7452   70.7152   -3.9393 C   0  0  1  0  0  0  0  0  0  0  0  0
  128.0045   69.3856   -4.3946 O   0  0  0  0  0  0  0  0  0  0  0  0
  126.8065   70.6108   -2.7482 C   0  0  1  0  0  0  0  0  0  0  0  0
  125.5036   71.0767   -3.1123 O   0  0  0  0  0  0  0  0  0  0  0  0
  126.7795   69.1419   -2.3645 C   0  0  1  0  0  0  0  0  0  0  0  0
  125.4405   68.6360   -2.3255 O   0  0  0  0  0  0  0  0  0  0  0  0
  127.5803   68.4099   -3.4351 C   0  0  2  0  0  0  0  0  0  0  0  0
  133.2926   70.7520   -1.2290 O   0  0  0  0  0  0  0  0  0  0  0  0
  129.5939   63.9391   -1.4550 N   0  0  0  0  0  0  0  0  0  0  0  0
  128.3532   64.1931   -1.9176 C   0  0  0  0  0  0  0  0  0  0  0  0
  127.9735   65.3943   -2.4000 N   0  0  0  0  0  0  0  0  0  0  0  0
  128.8376   66.4439   -2.4469 C   0  0  0  0  0  0  0  0  0  0  0  0
  130.2127   66.2407   -1.9579 C   0  0  0  0  0  0  0  0  0  0  0  0
  130.5575   64.8911   -1.4436 C   0  0  0  0  0  0  0  0  0  0  0  0
  131.7995   64.6245   -0.9739 N   0  0  0  0  0  0  0  0  0  0  0  0
  130.8572   67.4098   -2.1129 N   0  0  0  0  0  0  0  0  0  0  0  0
  129.9747   68.2882   -2.6507 C   0  0  0  0  0  0  0  0  0  0  0  0
  128.7689   67.7203   -2.8517 N   0  0  0  0  0  0  0  0  0  0  0  0
  2  1  1  1  0  0  0
  2  3  1  0  0  0  0
  2  5  1  0  0  0  0
  3  4  1  0  0  0  0
  3 16  1  0  0  0  0
  5  6  1  0  0  0  0
  6  7  1  0  0  0  0
  7  8  1  0  0  0  0
  9  8  1  1  0  0  0
  9 10  1  0  0  0  0
  9 11  1  0  0  0  0
 10 15  1  0  0  0  0
 11 12  1  6  0  0  0
 11 13  1  0  0  0  0
 13 14  1  6  0  0  0
 13 15  1  0  0  0  0
 15 26  1  1  0  0  0
 17 18  2  0  0  0  0
 17 22  1  0  0  0  0
 18 19  1  0  0  0  0
 19 20  2  0  0  0  0
 20 21  1  0  0  0  0
 20 26  1  0  0  0  0
 21 22  2  0  0  0  0
 21 24  1  0  0  0  0
 22 23  1  0  0  0  0
 24 25  2  0  0  0  0
 25 26  1  0  0  0  0
M  END
>  <CHROM.1>
144.09545421,-176.77262628,64.90090205,-110.71851560,-112.00239642,66.98542640
-146.97093352,129.66479459,69.08186064,-2.81033977,-1.14580489,0.16662027
2.84624534

>  <Name>
ligand

>  <RI>
0

>  <Rbt.Current_Directory>
/home/itssahil/PROJECTS/Mol_Feturizer/Test_systems_manuscript/rnas/3npn

>  <Rbt.Executable>
rbdock ($Id: //depot/dev/client3/rdock/2013.1/src/exe/rbdock.cxx#4 $)

>  <Rbt.Library>
libRbt.so (2013.1, Build901 2013/11/27)

>  <Rbt.Parameter_File>
/export/apps/rDock/src/rDock_2013.1_src/data/scripts/dock_solv.prm

>  <Rbt.Receptor>
prm/pocket_docking_7.prm

>  <SCORE>
-17.8272

>  <SCORE.INTER>
-16.5843

>  <SCORE.INTER.CONST>
1

>  <SCORE.INTER.POLAR>
0

>  <SCORE.INTER.ROT>
7

>  <SCORE.INTER.SOLV>
9.88827

>  <SCORE.INTER.VDW>
-22.6189

>  <SCORE.INTER.norm>
-0.637857

>  <SCORE.INTRA>
-1.24289

>  <SCORE.INTRA.DIHEDRAL>
3.17613

>  <SCORE.INTRA.DIHEDRAL.0>
4.37896

>  <SCORE.INTRA.POLAR>
0

>  <SCORE.INTRA.POLAR.0>
0

>  <SCORE.INTRA.REPUL>
0

>  <SCORE.INTRA.REPUL.0>
0

>  <SCORE.INTRA.SOLV>
-0.67683

>  <SCORE.INTRA.SOLV.lig_0>
-50.5538

>  <SCORE.INTRA.VDW>
-2.49254

>  <SCORE.INTRA.VDW.0>
-1.30673

>  <SCORE.INTRA.norm>
-0.0478033

>  <SCORE.RESTR>
0

>  <SCORE.RESTR.CAVITY>
0

>  <SCORE.RESTR.norm>
0

>  <SCORE.SYSTEM>
0

>  <SCORE.SYSTEM.CONST>
0

>  <SCORE.SYSTEM.DIHEDRAL>
0

>  <SCORE.SYSTEM.SOLV>
0

>  <SCORE.SYSTEM.norm>
0

>  <SCORE.heavy>
26

>  <SCORE.norm>
-0.68566

>  <RMSD>
6.140

$$$$
ligand
 OpenBabel02271912153D
libRbt.so/2013.1/901 2013/11/27
 26 28  0  0  0  0  0  0  0  0999 V2000
  134.1198   70.1356   -2.5785 N   0  0  0  0  0  0  0  0  0  0  0  0
  133.3800   71.3932   -2.8952 C   0  0  2  0  0  0  0  0  0  0  0  0
  132.9412   72.0812   -1.6346 C   0  0  0  0  0  0  0  0  0  0  0  0
  133.1158   73.2882   -1.4722 O   0  0  0  0  0  0  0  0  0  0  0  0
  132.1611   71.0854   -3.7608 C   0  0  0  0  0  0  0  0  0  0  0  0
  131.4087   72.3336   -4.2116 C   0  0  0  0  0  0  0  0  0  0  0  0
  129.8474   71.8820   -4.8940 S   0  0  0  0  0  0  0  0  0  0  0  0
  128.9914   71.2472   -3.4885 C   0  0  0  0  0  0  0  0  0  0  0  0
  127.6658   70.5973   -3.8813 C   0  0  1  0  0  0  0  0  0  0  0  0
  127.8907   69.3618   -4.5635 O   0  0  0  0  0  0  0  0  0  0  0  0
  126.8432   70.2865   -2.6414 C   0  0  1  0  0  0  0  0  0  0  0  0
  125.5088   70.7756   -2.8068 O   0  0  0  0  0  0  0  0  0  0  0  0
  126.8622   68.7753   -2.4948 C   0  0  1  0  0  0  0  0  0  0  0  0
  125.5363   68.2408   -2.4148 O   0  0  0  0  0  0  0  0  0  0  0  0
  127.5647   68.2384   -3.7364 C   0  0  2  0  0  0  0  0  0  0  0  0
  132.4034   71.4486   -0.7269 O   0  0  0  0  0  0  0  0  0  0  0  0
  129.6734   63.8122   -1.7548 N   0  0  0  0  0  0  0  0  0  0  0  0
  128.3785   64.1468   -1.9257 C   0  0  0  0  0  0  0  0  0  0  0  0
  127.9801   65.3240   -2.4502 N   0  0  0  0  0  0  0  0  0  0  0  0
  128.8804   66.2648   -2.8439 C   0  0  0  0  0  0  0  0  0  0  0  0
  130.3154   65.9689   -2.6874 C   0  0  0  0  0  0  0  0  0  0  0  0
  130.6771   64.6520   -2.1044 C   0  0  0  0  0  0  0  0  0  0  0  0
  131.9741   64.3056   -1.9255 N   0  0  0  0  0  0  0  0  0  0  0  0
  130.9854   67.0398   -3.1461 N   0  0  0  0  0  0  0  0  0  0  0  0
  130.0639   67.9456   -3.5581 C   0  0  0  0  0  0  0  0  0  0  0  0
  128.8072   67.4914   -3.3804 N   0  0  0  0  0  0  0  0  0  0  0  0
  2  1  1  1  0  0  0
  2  3  1  0  0  0  0
  2  5  1  0  0  0  0
  3  4  1  0  0  0  0
  3 16  1  0  0  0  0
  5  6  1  0  0  0  0
  6  7  1  0  0  0  0
  7  8  1  0  0  0  0
  9  8  1  1  0  0  0
  9 10  1  0  0  0  0
  9 11  1  0  0  0  0
 10 15  1  0  0  0  0
 11 12  1  6  0  0  0
 11 13  1  0  0  0  0
 13 14  1  6  0  0  0
 13 15  1  0  0  0  0
 15 26  1  1  0  0  0
 17 18  2  0  0  0  0
 17 22  1  0  0  0  0
 18 19  1  0  0  0  0
 19 20  2  0  0  0  0
 20 21  1  0  0  0  0
 20 26  1  0  0  0  0
 21 22  2  0  0  0  0
 21 24  1  0  0  0  0
 22 23  1  0  0  0  0
 24 25  2  0  0  0  0
 25 26  1  0  0  0  0
M  END
>  <CHROM.1>
132.94896937,-175.80991102,-167.72308183,66.67315227,-171.63321305,71.46440857
-166.40809748,129.75209370,69.02028378,-2.94067179,-1.09416031,0.17550775
2.97675106

>  <Name>
ligand

>  <RI>
0

>  <Rbt.Current_Directory>
/home/itssahil/PROJECTS/Mol_Feturizer/Test_systems_manuscript/rnas/3npn

>  <Rbt.Executable>
rbdock ($Id: //depot/dev/client3/rdock/2013.1/src/exe/rbdock.cxx#4 $)

>  <Rbt.Library>
libRbt.so (2013.1, Build901 2013/11/27)

>  <Rbt.Parameter_File>
/export/apps/rDock/src/rDock_2013.1_src/data/scripts/dock_solv.prm

>  <Rbt.Receptor>
prm/pocket_docking_8.prm

>  <SCORE>
-19.5226

>  <SCORE.INTER>
-17.5347

>  <SCORE.INTER.CONST>
1

>  <SCORE.INTER.POLAR>
0

>  <SCORE.INTER.ROT>
7

>  <SCORE.INTER.SOLV>
10.8272

>  <SCORE.INTER.VDW>
-23.5655

>  <SCORE.INTER.norm>
-0.67441

>  <SCORE.INTRA>
-1.98791

>  <SCORE.INTRA.DIHEDRAL>
-0.431397

>  <SCORE.INTRA.DIHEDRAL.0>
4.37896

>  <SCORE.INTRA.POLAR>
0

>  <SCORE.INTRA.POLAR.0>
0

>  <SCORE.INTRA.REPUL>
0

>  <SCORE.INTRA.REPUL.0>
0

>  <SCORE.INTRA.SOLV>
-0.957031

>  <SCORE.INTRA.SOLV.lig_0>
-50.5538

>  <SCORE.INTRA.VDW>
-1.2937

>  <SCORE.INTRA.VDW.0>
-1.30673

>  <SCORE.INTRA.norm>
-0.0764581

>  <SCORE.RESTR>
0

>  <SCORE.RESTR.CAVITY>
0

>  <SCORE.RESTR.norm>
0

>  <SCORE.SYSTEM>
0

>  <SCORE.SYSTEM.CONST>
0

>  <SCORE.SYSTEM.DIHEDRAL>
0

>  <SCORE.SYSTEM.SOLV>
0

>  <SCORE.SYSTEM.norm>
0

>  <SCORE.heavy>
26

>  <SCORE.norm>
-0.750868

>  <RMSD>
6.164

$$$$
ligand
 OpenBabel02271912153D
libRbt.so/2013.1/901 2013/11/27
 26 28  0  0  0  0  0  0  0  0999 V2000
  133.7496   70.6244   -3.0635 N   0  0  0  0  0  0  0  0  0  0  0  0
  132.6090   71.3329   -2.4106 C   0  0  2  0  0  0  0  0  0  0  0  0
  131.4580   70.3935   -2.1911 C   0  0  0  0  0  0  0  0  0  0  0  0
  131.4294   69.2841   -2.7222 O   0  0  0  0  0  0  0  0  0  0  0  0
  132.1535   72.5072   -3.2726 C   0  0  0  0  0  0  0  0  0  0  0  0
  131.6734   72.0893   -4.6591 C   0  0  0  0  0  0  0  0  0  0  0  0
  129.9190   72.2294   -4.7565 S   0  0  0  0  0  0  0  0  0  0  0  0
  129.3983   70.5505   -4.6112 C   0  0  0  0  0  0  0  0  0  0  0  0
  127.8759   70.4275   -4.6391 C   0  0  1  0  0  0  0  0  0  0  0  0
  127.4802   69.0557   -4.7034 O   0  0  0  0  0  0  0  0  0  0  0  0
  127.2764   71.0125   -3.3705 C   0  0  1  0  0  0  0  0  0  0  0  0
  126.2141   71.9114   -3.7032 O   0  0  0  0  0  0  0  0  0  0  0  0
  126.7665   69.8304   -2.5652 C   0  0  1  0  0  0  0  0  0  0  0  0
  125.3854   69.9883   -2.2217 O   0  0  0  0  0  0  0  0  0  0  0  0
  126.9438   68.6048   -3.4538 C   0  0  2  0  0  0  0  0  0  0  0  0
  130.5081   70.7175   -1.4798 O   0  0  0  0  0  0  0  0  0  0  0  0
  131.3304   65.6956   -3.9623 N   0  0  0  0  0  0  0  0  0  0  0  0
  130.7626   66.5554   -4.8319 C   0  0  0  0  0  0  0  0  0  0  0  0
  129.6298   67.2381   -4.5664 N   0  0  0  0  0  0  0  0  0  0  0  0
  128.9775   67.0944   -3.3813 C   0  0  0  0  0  0  0  0  0  0  0  0
  129.5399   66.1706   -2.3805 C   0  0  0  0  0  0  0  0  0  0  0  0
  130.7901   65.4562   -2.7434 C   0  0  0  0  0  0  0  0  0  0  0  0
  131.3684   64.5882   -1.8795 N   0  0  0  0  0  0  0  0  0  0  0  0
  128.7243   66.2103   -1.3131 N   0  0  0  0  0  0  0  0  0  0  0  0
  127.7243   67.0796   -1.6022 C   0  0  0  0  0  0  0  0  0  0  0  0
  127.8677   67.6098   -2.8333 N   0  0  0  0  0  0  0  0  0  0  0  0
  2  1  1  6  0  0  0
  2  3  1  0  0  0  0
  2  5  1  0  0  0  0
  3  4  1  0  0  0  0
  3 16  1  0  0  0  0
  5  6  1  0  0  0  0
  6  7  1  0  0  0  0
  7  8  1  0  0  0  0
  9  8  1  1  0  0  0
  9 10  1  0  0  0  0
  9 11  1  0  0  0  0
 10 15  1  0  0  0  0
 11 12  1  6  0  0  0
 11 13  1  0  0  0  0
 13 14  1  6  0  0  0
 13 15  1  0  0  0  0
 15 26  1  1  0  0  0
 17 18  2  0  0  0  0
 17 22  1  0  0  0  0
 18 19  1  0  0  0  0
 19 20  2  0  0  0  0
 20 21  1  0  0  0  0
 20 26  1  0  0  0  0
 21 22  2  0  0  0  0
 21 24  1  0  0  0  0
 22 23  1  0  0  0  0
 24 25  2  0  0  0  0
 25 26  1  0  0  0  0
M  END
>  <CHROM.1>
-12.24692838,60.49548928,107.11884723,-102.95519991,178.72125698,172.13585243
-5.79906765,129.51060655,69.24048879,-3.28304888,-1.53321625,0.00729370,2.95449863

>  <Name>
ligand

>  <RI>
0

>  <Rbt.Current_Directory>
/home/itssahil/PROJECTS/Mol_Feturizer/Test_systems_manuscript/rnas/3npn

>  <Rbt.Executable>
rbdock ($Id: //depot/dev/client3/rdock/2013.1/src/exe/rbdock.cxx#4 $)

>  <Rbt.Library>
libRbt.so (2013.1, Build901 2013/11/27)

>  <Rbt.Parameter_File>
/export/apps/rDock/src/rDock_2013.1_src/data/scripts/dock_solv.prm

>  <Rbt.Receptor>
prm/pocket_docking_7.prm

>  <SCORE>
-16.5623

>  <SCORE.INTER>
-16.4874

>  <SCORE.INTER.CONST>
1

>  <SCORE.INTER.POLAR>
0

>  <SCORE.INTER.ROT>
7

>  <SCORE.INTER.SOLV>
11.8642

>  <SCORE.INTER.VDW>
-23.213

>  <SCORE.INTER.norm>
-0.634132

>  <SCORE.INTRA>
-0.0748764

>  <SCORE.INTRA.DIHEDRAL>
5.35844

>  <SCORE.INTRA.DIHEDRAL.0>
4.37896

>  <SCORE.INTRA.POLAR>
0

>  <SCORE.INTRA.POLAR.0>
0

>  <SCORE.INTRA.REPUL>
0

>  <SCORE.INTRA.REPUL.0>
0

>  <SCORE.INTRA.SOLV>
0.146166

>  <SCORE.INTRA.SOLV.lig_0>
-50.5538

>  <SCORE.INTRA.VDW>
-2.82718

>  <SCORE.INTRA.VDW.0>
-1.30673

>  <SCORE.INTRA.norm>
-0.00287986

>  <SCORE.RESTR>
0

>  <SCORE.RESTR.CAVITY>
0

>  <SCORE.RESTR.norm>
0

>  <SCORE.SYSTEM>
0

>  <SCORE.SYSTEM.CONST>
0

>  <SCORE.SYSTEM.DIHEDRAL>
0

>  <SCORE.SYSTEM.SOLV>
0

>  <SCORE.SYSTEM.norm>
0

>  <SCORE.heavy>
26

>  <SCORE.norm>
-0.637012

>  <RMSD>
6.275

$$$$
ligand
 OpenBabel02271912153D
libRbt.so/2013.1/901 2013/11/27
 26 28  0  0  0  0  0  0  0  0999 V2000
  133.4085   70.7695   -2.3037 N   0  0  0  0  0  0  0  0  0  0  0  0
  133.2952   72.1759   -2.7922 C   0  0  2  0  0  0  0  0  0  0  0  0
  133.6140   73.1462   -1.6912 C   0  0  0  0  0  0  0  0  0  0  0  0
  134.1980   74.2041   -1.9221 O   0  0  0  0  0  0  0  0  0  0  0  0
  131.8862   72.4414   -3.3157 C   0  0  0  0  0  0  0  0  0  0  0  0
  131.5088   71.5661   -4.5070 C   0  0  0  0  0  0  0  0  0  0  0  0
  129.8351   71.8686   -4.9701 S   0  0  0  0  0  0  0  0  0  0  0  0
  128.9460   71.3205   -3.5487 C   0  0  0  0  0  0  0  0  0  0  0  0
  127.6037   70.6980   -3.9283 C   0  0  1  0  0  0  0  0  0  0  0  0
  127.7971   69.4820   -4.6539 O   0  0  0  0  0  0  0  0  0  0  0  0
  126.8081   70.3575   -2.6785 C   0  0  1  0  0  0  0  0  0  0  0  0
  125.4759   70.8662   -2.7953 O   0  0  0  0  0  0  0  0  0  0  0  0
  126.8130   68.8423   -2.5794 C   0  0  1  0  0  0  0  0  0  0  0  0
  125.4832   68.3201   -2.4830 O   0  0  0  0  0  0  0  0  0  0  0  0
  127.4783   68.3369   -3.8542 C   0  0  2  0  0  0  0  0  0  0  0  0
  133.3059   72.8994   -0.5262 O   0  0  0  0  0  0  0  0  0  0  0  0
  129.5908   63.9343   -1.8247 N   0  0  0  0  0  0  0  0  0  0  0  0
  128.2975   64.3037   -1.9191 C   0  0  0  0  0  0  0  0  0  0  0  0
  127.8978   65.4694   -2.4678 N   0  0  0  0  0  0  0  0  0  0  0  0
  128.7952   66.3618   -2.9669 C   0  0  0  0  0  0  0  0  0  0  0  0
  130.2283   66.0257   -2.8985 C   0  0  0  0  0  0  0  0  0  0  0  0
  130.5914   64.7243   -2.2825 C   0  0  0  0  0  0  0  0  0  0  0  0
  131.8869   64.3433   -2.1798 N   0  0  0  0  0  0  0  0  0  0  0  0
  130.8953   67.0527   -3.4522 N   0  0  0  0  0  0  0  0  0  0  0  0
  129.9740   67.9696   -3.8394 C   0  0  0  0  0  0  0  0  0  0  0  0
  128.7204   67.5655   -3.5528 N   0  0  0  0  0  0  0  0  0  0  0  0
  2  1  1  1  0  0  0
  2  3  1  0  0  0  0
  2  5  1  0  0  0  0
  3  4  1  0  0  0  0
  3 16  1  0  0  0  0
  5  6  1  0  0  0  0
  6  7  1  0  0  0  0
  7  8  1  0  0  0  0
  9  8  1  1  0  0  0
  9 10  1  0  0  0  0
  9 11  1  0  0  0  0
 10 15  1  0  0  0  0
 11 12  1  6  0  0  0
 11 13  1  0  0  0  0
 13 14  1  6  0  0  0
 13 15  1  0  0  0  0
 15 26  1  1  0  0  0
 17 18  2  0  0  0  0
 17 22  1  0  0  0  0
 18 19  1  0  0  0  0
 19 20  2  0  0  0  0
 20 21  1  0  0  0  0
 20 26  1  0  0  0  0
 21 22  2  0  0  0  0
 21 24  1  0  0  0  0
 22 23  1  0  0  0  0
 24 25  2  0  0  0  0
 25 26  1  0  0  0  0
M  END
>  <CHROM.1>
144.64160278,-62.07820621,176.26045545,-64.22649026,-145.79582374,66.70121839
-171.65132822,129.77400050,69.28135317,-3.01442693,-1.00566156,0.21078420
3.00938626

>  <Name>
ligand

>  <RI>
0

>  <Rbt.Current_Directory>
/home/itssahil/PROJECTS/Mol_Feturizer/Test_systems_manuscript/rnas/3npn

>  <Rbt.Executable>
rbdock ($Id: //depot/dev/client3/rdock/2013.1/src/exe/rbdock.cxx#4 $)

>  <Rbt.Library>
libRbt.so (2013.1, Build901 2013/11/27)

>  <Rbt.Parameter_File>
/export/apps/rDock/src/rDock_2013.1_src/data/scripts/dock_solv.prm

>  <Rbt.Receptor>
prm/pocket_docking_8.prm

>  <SCORE>
-18.3517

>  <SCORE.INTER>
-17.1527

>  <SCORE.INTER.CONST>
1

>  <SCORE.INTER.POLAR>
0

>  <SCORE.INTER.ROT>
7

>  <SCORE.INTER.SOLV>
12.0442

>  <SCORE.INTER.VDW>
-23.7166

>  <SCORE.INTER.norm>
-0.659721

>  <SCORE.INTRA>
-1.19891

>  <SCORE.INTRA.DIHEDRAL>
0.0304776

>  <SCORE.INTRA.DIHEDRAL.0>
4.37896

>  <SCORE.INTRA.POLAR>
0

>  <SCORE.INTRA.POLAR.0>
0

>  <SCORE.INTRA.REPUL>
0

>  <SCORE.INTRA.REPUL.0>
0

>  <SCORE.INTRA.SOLV>
-0.186853

>  <SCORE.INTRA.SOLV.lig_0>
-50.5538

>  <SCORE.INTRA.VDW>
-1.12072

>  <SCORE.INTRA.VDW.0>
-1.30673

>  <SCORE.INTRA.norm>
-0.0461118

>  <SCORE.RESTR>
0

>  <SCORE.RESTR.CAVITY>
0

>  <SCORE.RESTR.norm>
0

>  <SCORE.SYSTEM>
0

>  <SCORE.SYSTEM.CONST>
0

>  <SCORE.SYSTEM.DIHEDRAL>
0

>  <SCORE.SYSTEM.SOLV>
0

>  <SCORE.SYSTEM.norm>
0

>  <SCORE.heavy>
26

>  <SCORE.norm>
-0.705833

>  <RMSD>
6.366

$$$$
ligand
 OpenBabel02271912153D
libRbt.so/2013.1/901 2013/11/27
 26 28  0  0  0  0  0  0  0  0999 V2000
  130.6943   71.9420   -3.6962 N   0  0  0  0  0  0  0  0  0  0  0  0
  131.0425   70.6120   -3.1139 C   0  0  2  0  0  0  0  0  0  0  0  0
  129.8350   69.7202   -3.0711 C   0  0  0  0  0  0  0  0  0  0  0  0
  128.7816   70.0963   -2.5588 O   0  0  0  0  0  0  0  0  0  0  0  0
  131.6024   70.7827   -1.7043 C   0  0  0  0  0  0  0  0  0  0  0  0
  132.1078   69.4797   -1.0924 C   0  0  0  0  0  0  0  0  0  0  0  0
  130.7533   68.5479   -0.4566 S   0  0  0  0  0  0  0  0  0  0  0  0
  131.0062   66.9652   -1.1930 C   0  0  0  0  0  0  0  0  0  0  0  0
  129.9991   65.9371   -0.6806 C   0  0  1  0  0  0  0  0  0  0  0  0
  128.6613   66.4074   -0.8583 O   0  0  0  0  0  0  0  0  0  0  0  0
  130.1294   64.6380   -1.4592 C   0  0  1  0  0  0  0  0  0  0  0  0
  130.2125   63.5335   -0.5536 O   0  0  0  0  0  0  0  0  0  0  0  0
  128.8883   64.5455   -2.3291 C   0  0  1  0  0  0  0  0  0  0  0  0
  128.1963   63.3090   -2.1235 O   0  0  0  0  0  0  0  0  0  0  0  0
  127.9975   65.7132   -1.9214 C   0  0  2  0  0  0  0  0  0  0  0  0
  129.8749   68.5839   -3.5407 O   0  0  0  0  0  0  0  0  0  0  0  0
  126.0470   70.3540   -3.5409 N   0  0  0  0  0  0  0  0  0  0  0  0
  126.0719   69.8153   -2.3052 C   0  0  0  0  0  0  0  0  0  0  0  0
  126.6087   68.6079   -2.0336 N   0  0  0  0  0  0  0  0  0  0  0  0
  127.1664   67.8446   -3.0119 C   0  0  0  0  0  0  0  0  0  0  0  0
  127.1756   68.3690   -4.3889 C   0  0  0  0  0  0  0  0  0  0  0  0
  126.5683   69.7058   -4.6100 C   0  0  0  0  0  0  0  0  0  0  0  0
  126.5350   70.2563   -5.8470 N   0  0  0  0  0  0  0  0  0  0  0  0
  127.7762   67.4416   -5.1541 N   0  0  0  0  0  0  0  0  0  0  0  0
  128.1199   66.4107   -4.3426 C   0  0  0  0  0  0  0  0  0  0  0  0
  127.7590   66.6430   -3.0647 N   0  0  0  0  0  0  0  0  0  0  0  0
  2  1  1  1  0  0  0
  2  3  1  0  0  0  0
  2  5  1  0  0  0  0
  3  4  1  0  0  0  0
  3 16  1  0  0  0  0
  5  6  1  0  0  0  0
  6  7  1  0  0  0  0
  7  8  1  0  0  0  0
  9  8  1  6  0  0  0
  9 10  1  0  0  0  0
  9 11  1  0  0  0  0
 10 15  1  0  0  0  0
 11 12  1  1  0  0  0
 11 13  1  0  0  0  0
 13 14  1  1  0  0  0
 13 15  1  0  0  0  0
 15 26  1  6  0  0  0
 17 18  2  0  0  0  0
 17 22  1  0  0  0  0
 18 19  1  0  0  0  0
 19 20  2  0  0  0  0
 20 21  1  0  0  0  0
 20 26  1  0  0  0  0
 21 22  2  0  0  0  0
 21 24  1  0  0  0  0
 22 23  1  0  0  0  0
 24 25  2  0  0  0  0
 25 26  1  0  0  0  0
M  END
>  <CHROM.1>
-51.99734996,-174.42306044,-80.44050300,128.64627045,175.01185753,54.21311390
-52.11119716,128.96493457,67.92076120,-2.49467871,-1.79458013,0.56577084
2.85718700

>  <Name>
ligand

>  <RI>
0

>  <Rbt.Current_Directory>
/home/itssahil/PROJECTS/Mol_Feturizer/Test_systems_manuscript/rnas/3npn

>  <Rbt.Executable>
rbdock ($Id: //depot/dev/client3/rdock/2013.1/src/exe/rbdock.cxx#4 $)

>  <Rbt.Library>
libRbt.so (2013.1, Build901 2013/11/27)

>  <Rbt.Parameter_File>
/export/apps/rDock/src/rDock_2013.1_src/data/scripts/dock_solv.prm

>  <Rbt.Receptor>
prm/pocket_docking_4.prm

>  <SCORE>
-16.5272

>  <SCORE.INTER>
-14.3426

>  <SCORE.INTER.CONST>
1

>  <SCORE.INTER.POLAR>
0

>  <SCORE.INTER.ROT>
7

>  <SCORE.INTER.SOLV>
25.5528

>  <SCORE.INTER.VDW>
-26.346

>  <SCORE.INTER.norm>
-0.551639

>  <SCORE.INTRA>
-2.2652

>  <SCORE.INTRA.DIHEDRAL>
2.26625

>  <SCORE.INTRA.DIHEDRAL.0>
4.37896

>  <SCORE.INTRA.POLAR>
0

>  <SCORE.INTRA.POLAR.0>
0

>  <SCORE.INTRA.REPUL>
0

>  <SCORE.INTRA.REPUL.0>
0

>  <SCORE.INTRA.SOLV>
-0.661966

>  <SCORE.INTRA.SOLV.lig_0>
-50.5538

>  <SCORE.INTRA.VDW>
-3.06734

>  <SCORE.INTRA.VDW.0>
-1.30673

>  <SCORE.INTRA.norm>
-0.0871229

>  <SCORE.RESTR>
0.0806139

>  <SCORE.RESTR.CAVITY>
0.0806139

>  <SCORE.RESTR.norm>
0.00310054

>  <SCORE.SYSTEM>
0

>  <SCORE.SYSTEM.CONST>
0

>  <SCORE.SYSTEM.DIHEDRAL>
0

>  <SCORE.SYSTEM.SOLV>
0

>  <SCORE.SYSTEM.norm>
0

>  <SCORE.heavy>
26

>  <SCORE.norm>
-0.635661

>  <RMSD>
6.379

$$$$
ligand
 OpenBabel02271912153D
libRbt.so/2013.1/901 2013/11/27
 26 28  0  0  0  0  0  0  0  0999 V2000
  134.1115   67.6870   -3.9662 N   0  0  0  0  0  0  0  0  0  0  0  0
  132.7645   67.2148   -3.5280 C   0  0  2  0  0  0  0  0  0  0  0  0
  132.5584   65.7764   -3.9070 C   0  0  0  0  0  0  0  0  0  0  0  0
  132.1700   64.9488   -3.0837 O   0  0  0  0  0  0  0  0  0  0  0  0
  131.6722   68.0722   -4.1617 C   0  0  0  0  0  0  0  0  0  0  0  0
  131.7169   69.5319   -3.7205 C   0  0  0  0  0  0  0  0  0  0  0  0
  130.3956   70.4277   -4.4680 S   0  0  0  0  0  0  0  0  0  0  0  0
  129.1927   70.4706   -3.1787 C   0  0  0  0  0  0  0  0  0  0  0  0
  127.8039   70.0918   -3.6900 C   0  0  1  0  0  0  0  0  0  0  0  0
  127.8161   68.7837   -4.2656 O   0  0  0  0  0  0  0  0  0  0  0  0
  126.8069   70.0720   -2.5426 C   0  0  1  0  0  0  0  0  0  0  0  0
  125.6412   70.8222   -2.8971 O   0  0  0  0  0  0  0  0  0  0  0  0
  126.4709   68.6103   -2.3056 C   0  0  1  0  0  0  0  0  0  0  0  0
  125.0579   68.3837   -2.3553 O   0  0  0  0  0  0  0  0  0  0  0  0
  127.1613   67.8313   -3.4191 C   0  0  2  0  0  0  0  0  0  0  0  0
  132.7840   65.3889   -5.0525 O   0  0  0  0  0  0  0  0  0  0  0  0
  130.6568   66.7415    0.3965 N   0  0  0  0  0  0  0  0  0  0  0  0
  129.8746   67.8271    0.2307 C   0  0  0  0  0  0  0  0  0  0  0  0
  129.0186   67.9732   -0.8016 N   0  0  0  0  0  0  0  0  0  0  0  0
  128.8929   67.0145   -1.7586 C   0  0  0  0  0  0  0  0  0  0  0  0
  129.7169   65.7983   -1.6433 C   0  0  0  0  0  0  0  0  0  0  0  0
  130.6342   65.7081   -0.4791 C   0  0  0  0  0  0  0  0  0  0  0  0
  131.4266   64.6240   -0.3031 N   0  0  0  0  0  0  0  0  0  0  0  0
  129.4084   65.0187   -2.6936 N   0  0  0  0  0  0  0  0  0  0  0  0
  128.4719   65.6759   -3.4219 C   0  0  0  0  0  0  0  0  0  0  0  0
  128.1602   66.8663   -2.8717 N   0  0  0  0  0  0  0  0  0  0  0  0
  2  1  1  6  0  0  0
  2  3  1  0  0  0  0
  2  5  1  0  0  0  0
  3  4  1  0  0  0  0
  3 16  1  0  0  0  0
  5  6  1  0  0  0  0
  6  7  1  0  0  0  0
  7  8  1  0  0  0  0
  9  8  1  1  0  0  0
  9 10  1  0  0  0  0
  9 11  1  0  0  0  0
 10 15  1  0  0  0  0
 11 12  1  6  0  0  0
 11 13  1  0  0  0  0
 13 14  1  6  0  0  0
 13 15  1  0  0  0  0
 15 26  1  1  0  0  0
 17 18  2  0  0  0  0
 17 22  1  0  0  0  0
 18 19  1  0  0  0  0
 19 20  2  0  0  0  0
 20 21  1  0  0  0  0
 20 26  1  0  0  0  0
 21 22  2  0  0  0  0
 21 24  1  0  0  0  0
 22 23  1  0  0  0  0
 24 25  2  0  0  0  0
 25 26  1  0  0  0  0
M  END
>  <CHROM.1>
129.69987749,-63.72485724,-178.45694008,98.88018118,-132.94559911,58.56775059
87.21697776,129.64855839,67.75526062,-2.81812268,-0.45421719,0.36413353,-0.62527420

>  <Name>
ligand

>  <RI>
0

>  <Rbt.Current_Directory>
/home/itssahil/PROJECTS/Mol_Feturizer/Test_systems_manuscript/rnas/3npn

>  <Rbt.Executable>
rbdock ($Id: //depot/dev/client3/rdock/2013.1/src/exe/rbdock.cxx#4 $)

>  <Rbt.Library>
libRbt.so (2013.1, Build901 2013/11/27)

>  <Rbt.Parameter_File>
/export/apps/rDock/src/rDock_2013.1_src/data/scripts/dock_solv.prm

>  <Rbt.Receptor>
prm/pocket_docking_4.prm

>  <SCORE>
-16.1669

>  <SCORE.INTER>
-13.7626

>  <SCORE.INTER.CONST>
1

>  <SCORE.INTER.POLAR>
0

>  <SCORE.INTER.ROT>
7

>  <SCORE.INTER.SOLV>
11.5033

>  <SCORE.INTER.VDW>
-21.2762

>  <SCORE.INTER.norm>
-0.529332

>  <SCORE.INTRA>
-2.40425

>  <SCORE.INTRA.DIHEDRAL>
2.25053

>  <SCORE.INTRA.DIHEDRAL.0>
4.37896

>  <SCORE.INTRA.POLAR>
0

>  <SCORE.INTRA.POLAR.0>
0

>  <SCORE.INTRA.REPUL>
0

>  <SCORE.INTRA.REPUL.0>
0

>  <SCORE.INTRA.SOLV>
1.1775

>  <SCORE.INTRA.SOLV.lig_0>
-50.5538

>  <SCORE.INTRA.VDW>
-4.11827

>  <SCORE.INTRA.VDW.0>
-1.30673

>  <SCORE.INTRA.norm>
-0.0924712

>  <SCORE.RESTR>
0

>  <SCORE.RESTR.CAVITY>
0

>  <SCORE.RESTR.norm>
0

>  <SCORE.SYSTEM>
0

>  <SCORE.SYSTEM.CONST>
0

>  <SCORE.SYSTEM.DIHEDRAL>
0

>  <SCORE.SYSTEM.SOLV>
0

>  <SCORE.SYSTEM.norm>
0

>  <SCORE.heavy>
26

>  <SCORE.norm>
-0.621803

>  <RMSD>
6.400

$$$$
ligand
 OpenBabel02271912153D
libRbt.so/2013.1/901 2013/11/27
 26 28  0  0  0  0  0  0  0  0999 V2000
  132.9574   71.0407   -4.5337 N   0  0  0  0  0  0  0  0  0  0  0  0
  131.8352   71.9783   -4.8352 C   0  0  2  0  0  0  0  0  0  0  0  0
  132.1185   73.3415   -4.2725 C   0  0  0  0  0  0  0  0  0  0  0  0
  132.8470   73.4885   -3.2920 O   0  0  0  0  0  0  0  0  0  0  0  0
  130.5298   71.4451   -4.2510 C   0  0  0  0  0  0  0  0  0  0  0  0
  129.3160   72.2994   -4.6036 C   0  0  0  0  0  0  0  0  0  0  0  0
  127.8504   71.5552   -3.9667 S   0  0  0  0  0  0  0  0  0  0  0  0
  127.6616   70.1438   -5.0076 C   0  0  0  0  0  0  0  0  0  0  0  0
  126.7955   69.0703   -4.3510 C   0  0  1  0  0  0  0  0  0  0  0  0
  126.9781   67.8083   -4.9963 O   0  0  0  0  0  0  0  0  0  0  0  0
  127.1889   68.8944   -2.8932 C   0  0  1  0  0  0  0  0  0  0  0  0
  126.0220   68.9296   -2.0660 O   0  0  0  0  0  0  0  0  0  0  0  0
  127.8850   67.5476   -2.8075 C   0  0  1  0  0  0  0  0  0  0  0  0
  127.2819   66.7093   -1.8156 O   0  0  0  0  0  0  0  0  0  0  0  0
  127.7421   66.9088   -4.1840 C   0  0  2  0  0  0  0  0  0  0  0  0
  131.6181   74.3464   -4.7755 O   0  0  0  0  0  0  0  0  0  0  0  0
  132.9233   67.9666   -4.1726 N   0  0  0  0  0  0  0  0  0  0  0  0
  131.9475   68.4363   -3.3694 C   0  0  0  0  0  0  0  0  0  0  0  0
  130.6529   68.0758   -3.4872 N   0  0  0  0  0  0  0  0  0  0  0  0
  130.2459   67.2004   -4.4457 C   0  0  0  0  0  0  0  0  0  0  0  0
  131.2580   66.6448   -5.3612 C   0  0  0  0  0  0  0  0  0  0  0  0
  132.6626   67.0867   -5.1689 C   0  0  0  0  0  0  0  0  0  0  0  0
  133.6510   66.6240   -5.9708 N   0  0  0  0  0  0  0  0  0  0  0  0
  130.6114   65.8165   -6.1991 N   0  0  0  0  0  0  0  0  0  0  0  0
  129.2996   65.8395   -5.8557 C   0  0  0  0  0  0  0  0  0  0  0  0
  129.0737   66.6626   -4.8123 N   0  0  0  0  0  0  0  0  0  0  0  0
  2  1  1  1  0  0  0
  2  3  1  0  0  0  0
  2  5  1  0  0  0  0
  3  4  1  0  0  0  0
  3 16  1  0  0  0  0
  5  6  1  0  0  0  0
  6  7  1  0  0  0  0
  7  8  1  0  0  0  0
  9  8  1  6  0  0  0
  9 10  1  0  0  0  0
  9 11  1  0  0  0  0
 10 15  1  0  0  0  0
 11 12  1  1  0  0  0
 11 13  1  0  0  0  0
 13 14  1  1  0  0  0
 13 15  1  0  0  0  0
 15 26  1  6  0  0  0
 17 18  2  0  0  0  0
 17 22  1  0  0  0  0
 18 19  1  0  0  0  0
 19 20  2  0  0  0  0
 20 21  1  0  0  0  0
 20 26  1  0  0  0  0
 21 22  2  0  0  0  0
 21 24  1  0  0  0  0
 22 23  1  0  0  0  0
 24 25  2  0  0  0  0
 25 26  1  0  0  0  0
M  END
>  <CHROM.1>
-26.83359424,-175.86208197,176.70642233,-70.96512564,158.45880215,-162.44602527
102.69444476,129.81199824,69.25661718,-4.24061632,-0.99212080,-0.25314549
-3.02390176

>  <Name>
ligand

>  <RI>
0

>  <Rbt.Current_Directory>
/home/itssahil/PROJECTS/Mol_Feturizer/Test_systems_manuscript/rnas/3npn

>  <Rbt.Executable>
rbdock ($Id: //depot/dev/client3/rdock/2013.1/src/exe/rbdock.cxx#4 $)

>  <Rbt.Library>
libRbt.so (2013.1, Build901 2013/11/27)

>  <Rbt.Parameter_File>
/export/apps/rDock/src/rDock_2013.1_src/data/scripts/dock_solv.prm

>  <Rbt.Receptor>
prm/pocket_docking_7.prm

>  <SCORE>
-20.0175

>  <SCORE.INTER>
-19.4242

>  <SCORE.INTER.CONST>
1

>  <SCORE.INTER.POLAR>
0

>  <SCORE.INTER.ROT>
7

>  <SCORE.INTER.SOLV>
17.074

>  <SCORE.INTER.VDW>
-26.9075

>  <SCORE.INTER.norm>
-0.747085

>  <SCORE.INTRA>
-0.593272

>  <SCORE.INTRA.DIHEDRAL>
0.296502

>  <SCORE.INTRA.DIHEDRAL.0>
4.37896

>  <SCORE.INTRA.POLAR>
0

>  <SCORE.INTRA.POLAR.0>
0

>  <SCORE.INTRA.REPUL>
0

>  <SCORE.INTRA.REPUL.0>
0

>  <SCORE.INTRA.SOLV>
0.41824

>  <SCORE.INTRA.SOLV.lig_0>
-50.5538

>  <SCORE.INTRA.VDW>
-0.950644

>  <SCORE.INTRA.VDW.0>
-1.30673

>  <SCORE.INTRA.norm>
-0.0228182

>  <SCORE.RESTR>
0

>  <SCORE.RESTR.CAVITY>
0

>  <SCORE.RESTR.norm>
0

>  <SCORE.SYSTEM>
0

>  <SCORE.SYSTEM.CONST>
0

>  <SCORE.SYSTEM.DIHEDRAL>
0

>  <SCORE.SYSTEM.SOLV>
0

>  <SCORE.SYSTEM.norm>
0

>  <SCORE.heavy>
26

>  <SCORE.norm>
-0.769903

>  <RMSD>
6.443

$$$$
ligand
 OpenBabel02271912153D
libRbt.so/2013.1/901 2013/11/27
 26 28  0  0  0  0  0  0  0  0999 V2000
  134.1757   72.9785   -3.0612 N   0  0  0  0  0  0  0  0  0  0  0  0
  133.0234   72.6443   -2.1725 C   0  0  2  0  0  0  0  0  0  0  0  0
  133.5073   72.0802   -0.8676 C   0  0  0  0  0  0  0  0  0  0  0  0
  134.6514   71.6446   -0.7456 O   0  0  0  0  0  0  0  0  0  0  0  0
  132.1041   71.6357   -2.8562 C   0  0  0  0  0  0  0  0  0  0  0  0
  131.4333   72.1833   -4.1122 C   0  0  0  0  0  0  0  0  0  0  0  0
  130.2796   71.0077   -4.7400 S   0  0  0  0  0  0  0  0  0  0  0  0
  129.1845   70.7884   -3.3748 C   0  0  0  0  0  0  0  0  0  0  0  0
  127.8048   70.3151   -3.8286 C   0  0  1  0  0  0  0  0  0  0  0  0
  127.8753   68.9930   -4.3669 O   0  0  0  0  0  0  0  0  0  0  0  0
  126.8474   70.2729   -2.6486 C   0  0  1  0  0  0  0  0  0  0  0  0
  125.6293   70.9437   -2.9853 O   0  0  0  0  0  0  0  0  0  0  0  0
  126.6050   68.8021   -2.3591 C   0  0  1  0  0  0  0  0  0  0  0  0
  125.2068   68.4933   -2.3553 O   0  0  0  0  0  0  0  0  0  0  0  0
  127.3043   68.0307   -3.4723 C   0  0  2  0  0  0  0  0  0  0  0  0
  132.7638   72.0315    0.1112 O   0  0  0  0  0  0  0  0  0  0  0  0
  131.9473   65.6454   -4.3190 N   0  0  0  0  0  0  0  0  0  0  0  0
  131.2285   66.4431   -5.1343 C   0  0  0  0  0  0  0  0  0  0  0  0
  130.0463   66.9896   -4.7830 N   0  0  0  0  0  0  0  0  0  0  0  0
  129.4960   66.7613   -3.5600 C   0  0  0  0  0  0  0  0  0  0  0  0
  130.2256   65.8982   -2.6145 C   0  0  0  0  0  0  0  0  0  0  0  0
  131.5212   65.3344   -3.0713 C   0  0  0  0  0  0  0  0  0  0  0  0
  132.2510   64.5299   -2.2625 N   0  0  0  0  0  0  0  0  0  0  0  0
  129.4847   65.8347   -1.4950 N   0  0  0  0  0  0  0  0  0  0  0  0
  128.3756   66.5870   -1.7026 C   0  0  0  0  0  0  0  0  0  0  0  0
  128.3746   67.1417   -2.9311 N   0  0  0  0  0  0  0  0  0  0  0  0
  2  1  1  6  0  0  0
  2  3  1  0  0  0  0
  2  5  1  0  0  0  0
  3  4  1  0  0  0  0
  3 16  1  0  0  0  0
  5  6  1  0  0  0  0
  6  7  1  0  0  0  0
  7  8  1  0  0  0  0
  9  8  1  1  0  0  0
  9 10  1  0  0  0  0
  9 11  1  0  0  0  0
 10 15  1  0  0  0  0
 11 12  1  6  0  0  0
 11 13  1  0  0  0  0
 13 14  1  6  0  0  0
 13 15  1  0  0  0  0
 15 26  1  1  0  0  0
 17 18  2  0  0  0  0
 17 22  1  0  0  0  0
 18 19  1  0  0  0  0
 19 20  2  0  0  0  0
 20 21  1  0  0  0  0
 20 26  1  0  0  0  0
 21 22  2  0  0  0  0
 21 24  1  0  0  0  0
 22 23  1  0  0  0  0
 24 25  2  0  0  0  0
 25 26  1  0  0  0  0
M  END
>  <CHROM.1>
-17.64123263,-64.69165232,-174.58316490,58.34709593,155.28364083,67.12324467
-31.88348302,130.04228449,69.17969248,-2.98045801,-0.75900476,0.13792351
-3.07169512

>  <Name>
ligand

>  <RI>
0

>  <Rbt.Current_Directory>
/home/itssahil/PROJECTS/Mol_Feturizer/Test_systems_manuscript/rnas/3npn

>  <Rbt.Executable>
rbdock ($Id: //depot/dev/client3/rdock/2013.1/src/exe/rbdock.cxx#4 $)

>  <Rbt.Library>
libRbt.so (2013.1, Build901 2013/11/27)

>  <Rbt.Parameter_File>
/export/apps/rDock/src/rDock_2013.1_src/data/scripts/dock_solv.prm

>  <Rbt.Receptor>
prm/pocket_docking_8.prm

>  <SCORE>
-15.8252

>  <SCORE.INTER>
-15.0071

>  <SCORE.INTER.CONST>
1

>  <SCORE.INTER.POLAR>
0

>  <SCORE.INTER.ROT>
7

>  <SCORE.INTER.SOLV>
11.1682

>  <SCORE.INTER.VDW>
-21.9942

>  <SCORE.INTER.norm>
-0.577197

>  <SCORE.INTRA>
-0.818103

>  <SCORE.INTRA.DIHEDRAL>
-0.459916

>  <SCORE.INTRA.DIHEDRAL.0>
4.37896

>  <SCORE.INTRA.POLAR>
0

>  <SCORE.INTRA.POLAR.0>
0

>  <SCORE.INTRA.REPUL>
0

>  <SCORE.INTRA.REPUL.0>
0

>  <SCORE.INTRA.SOLV>
-0.227436

>  <SCORE.INTRA.SOLV.lig_0>
-50.5538

>  <SCORE.INTRA.VDW>
-0.474428

>  <SCORE.INTRA.VDW.0>
-1.30673

>  <SCORE.INTRA.norm>
-0.0314655

>  <SCORE.RESTR>
0

>  <SCORE.RESTR.CAVITY>
0

>  <SCORE.RESTR.norm>
0

>  <SCORE.SYSTEM>
0

>  <SCORE.SYSTEM.CONST>
0

>  <SCORE.SYSTEM.DIHEDRAL>
0

>  <SCORE.SYSTEM.SOLV>
0

>  <SCORE.SYSTEM.norm>
0

>  <SCORE.heavy>
26

>  <SCORE.norm>
-0.608663

>  <RMSD>
6.443

$$$$
ligand
 OpenBabel02271912153D
libRbt.so/2013.1/901 2013/11/27
 26 28  0  0  0  0  0  0  0  0999 V2000
  127.9390   66.2113   -2.4710 N   0  0  0  0  0  0  0  0  0  0  0  0
  128.8844   65.3834   -1.6647 C   0  0  2  0  0  0  0  0  0  0  0  0
  130.2885   65.8979   -1.8023 C   0  0  0  0  0  0  0  0  0  0  0  0
  130.7839   66.1136   -2.9076 O   0  0  0  0  0  0  0  0  0  0  0  0
  128.8272   63.9263   -2.1155 C   0  0  0  0  0  0  0  0  0  0  0  0
  129.7295   63.0051   -1.3001 C   0  0  0  0  0  0  0  0  0  0  0  0
  129.6908   61.3757   -1.9714 S   0  0  0  0  0  0  0  0  0  0  0  0
  130.9724   60.5662   -1.0695 C   0  0  0  0  0  0  0  0  0  0  0  0
  131.3147   59.2055   -1.6739 C   0  0  1  0  0  0  0  0  0  0  0  0
  132.0914   59.3613   -2.8634 O   0  0  0  0  0  0  0  0  0  0  0  0
  132.1432   58.3878   -0.6963 C   0  0  1  0  0  0  0  0  0  0  0  0
  131.5876   57.0757   -0.5654 O   0  0  0  0  0  0  0  0  0  0  0  0
  133.5455   58.3374   -1.2764 C   0  0  1  0  0  0  0  0  0  0  0  0
  134.0084   56.9889   -1.4094 O   0  0  0  0  0  0  0  0  0  0  0  0
  133.4596   58.9948   -2.6489 C   0  0  2  0  0  0  0  0  0  0  0  0
  130.9824   66.1071   -0.8083 O   0  0  0  0  0  0  0  0  0  0  0  0
  135.7691   62.6077   -5.7436 N   0  0  0  0  0  0  0  0  0  0  0  0
  134.9859   61.5625   -6.0781 C   0  0  0  0  0  0  0  0  0  0  0  0
  134.4583   60.7122   -5.1735 N   0  0  0  0  0  0  0  0  0  0  0  0
  134.6923   60.8605   -3.8416 C   0  0  0  0  0  0  0  0  0  0  0  0
  135.5403   61.9819   -3.4006 C   0  0  0  0  0  0  0  0  0  0  0  0
  136.0836   62.8768   -4.4538 C   0  0  0  0  0  0  0  0  0  0  0  0
  136.8734   63.9284   -4.1304 N   0  0  0  0  0  0  0  0  0  0  0  0
  135.6131   61.9108   -2.0605 N   0  0  0  0  0  0  0  0  0  0  0  0
  134.8800   60.8374   -1.6736 C   0  0  0  0  0  0  0  0  0  0  0  0
  134.3290   60.2058   -2.7293 N   0  0  0  0  0  0  0  0  0  0  0  0
  2  1  1  6  0  0  0
  2  3  1  0  0  0  0
  2  5  1  0  0  0  0
  3  4  1  0  0  0  0
  3 16  1  0  0  0  0
  5  6  1  0  0  0  0
  6  7  1  0  0  0  0
  7  8  1  0  0  0  0
  9  8  1  1  0  0  0
  9 10  1  0  0  0  0
  9 11  1  0  0  0  0
 10 15  1  0  0  0  0
 11 12  1  6  0  0  0
 11 13  1  0  0  0  0
 13 14  1  6  0  0  0
 13 15  1  0  0  0  0
 15 26  1  1  0  0  0
 17 18  2  0  0  0  0
 17 22  1  0  0  0  0
 18 19  1  0  0  0  0
 19 20  2  0  0  0  0
 20 21  1  0  0  0  0
 20 26  1  0  0  0  0
 21 22  2  0  0  0  0
 21 24  1  0  0  0  0
 22 23  1  0  0  0  0
 24 25  2  0  0  0  0
 25 26  1  0  0  0  0
M  END
>  <CHROM.1>
-50.36124967,-177.79360049,-175.64115051,171.11869185,-168.67561884,75.91859212
-75.05824138,132.46252763,61.67892400,-2.48923566,2.37524147,0.44299011,-0.26499892

>  <Name>
ligand

>  <RI>
0

>  <Rbt.Current_Directory>
/home/itssahil/PROJECTS/Mol_Feturizer/Test_systems_manuscript/rnas/3npn

>  <Rbt.Executable>
rbdock ($Id: //depot/dev/client3/rdock/2013.1/src/exe/rbdock.cxx#4 $)

>  <Rbt.Library>
libRbt.so (2013.1, Build901 2013/11/27)

>  <Rbt.Parameter_File>
/export/apps/rDock/src/rDock_2013.1_src/data/scripts/dock_solv.prm

>  <Rbt.Receptor>
prm/pocket_docking_7.prm

>  <SCORE>
-15.3465

>  <SCORE.INTER>
-14.0892

>  <SCORE.INTER.CONST>
1

>  <SCORE.INTER.POLAR>
0

>  <SCORE.INTER.ROT>
7

>  <SCORE.INTER.SOLV>
12.2207

>  <SCORE.INTER.VDW>
-21.7331

>  <SCORE.INTER.norm>
-0.541893

>  <SCORE.INTRA>
-1.25723

>  <SCORE.INTRA.DIHEDRAL>
-0.452935

>  <SCORE.INTRA.DIHEDRAL.0>
4.37896

>  <SCORE.INTRA.POLAR>
0

>  <SCORE.INTRA.POLAR.0>
0

>  <SCORE.INTRA.REPUL>
0

>  <SCORE.INTRA.REPUL.0>
0

>  <SCORE.INTRA.SOLV>
-0.992254

>  <SCORE.INTRA.SOLV.lig_0>
-50.5538

>  <SCORE.INTRA.VDW>
-0.53464

>  <SCORE.INTRA.VDW.0>
-1.30673

>  <SCORE.INTRA.norm>
-0.0483552

>  <SCORE.RESTR>
0

>  <SCORE.RESTR.CAVITY>
0

>  <SCORE.RESTR.norm>
0

>  <SCORE.SYSTEM>
0

>  <SCORE.SYSTEM.CONST>
0

>  <SCORE.SYSTEM.DIHEDRAL>
0

>  <SCORE.SYSTEM.SOLV>
0

>  <SCORE.SYSTEM.norm>
0

>  <SCORE.heavy>
26

>  <SCORE.norm>
-0.590249

>  <RMSD>
6.556

$$$$
ligand
 OpenBabel02271912153D
libRbt.so/2013.1/901 2013/11/27
 26 28  0  0  0  0  0  0  0  0999 V2000
  134.7259   65.5311    2.5344 N   0  0  0  0  0  0  0  0  0  0  0  0
  134.4777   64.3079    3.3538 C   0  0  2  0  0  0  0  0  0  0  0  0
  135.6625   63.3866    3.3025 C   0  0  0  0  0  0  0  0  0  0  0  0
  135.7610   62.4300    4.0698 O   0  0  0  0  0  0  0  0  0  0  0  0
  133.2380   63.5754    2.8474 C   0  0  0  0  0  0  0  0  0  0  0  0
  133.3838   63.0547    1.4208 C   0  0  0  0  0  0  0  0  0  0  0  0
  133.3073   64.3960    0.2795 S   0  0  0  0  0  0  0  0  0  0  0  0
  131.6794   65.0220    0.5427 C   0  0  0  0  0  0  0  0  0  0  0  0
  131.2078   65.8786   -0.6311 C   0  0  1  0  0  0  0  0  0  0  0  0
  131.1778   65.1120   -1.8369 O   0  0  0  0  0  0  0  0  0  0  0  0
  129.7963   66.3844   -0.3810 C   0  0  1  0  0  0  0  0  0  0  0  0
  129.7345   67.7939   -0.6192 O   0  0  0  0  0  0  0  0  0  0  0  0
  128.9024   65.6229   -1.3437 C   0  0  1  0  0  0  0  0  0  0  0  0
  128.1188   66.5135   -2.1456 O   0  0  0  0  0  0  0  0  0  0  0  0
  129.8348   64.8080   -2.2325 C   0  0  2  0  0  0  0  0  0  0  0  0
  136.5711   63.5743    2.4947 O   0  0  0  0  0  0  0  0  0  0  0  0
  131.8993   59.9930   -1.5130 N   0  0  0  0  0  0  0  0  0  0  0  0
  132.5154   61.1892   -1.5989 C   0  0  0  0  0  0  0  0  0  0  0  0
  131.8556   62.3510   -1.7853 N   0  0  0  0  0  0  0  0  0  0  0  0
  130.5007   62.3851   -1.9029 C   0  0  0  0  0  0  0  0  0  0  0  0
  129.7589   61.1147   -1.8190 C   0  0  0  0  0  0  0  0  0  0  0  0
  130.5532   59.8775   -1.6108 C   0  0  0  0  0  0  0  0  0  0  0  0
  129.9462   58.6699   -1.5255 N   0  0  0  0  0  0  0  0  0  0  0  0
  128.4565   61.4151   -1.9592 N   0  0  0  0  0  0  0  0  0  0  0  0
  128.3681   62.7585   -2.1223 C   0  0  0  0  0  0  0  0  0  0  0  0
  129.5821   63.3435   -2.0908 N   0  0  0  0  0  0  0  0  0  0  0  0
  2  1  1  6  0  0  0
  2  3  1  0  0  0  0
  2  5  1  0  0  0  0
  3  4  1  0  0  0  0
  3 16  1  0  0  0  0
  5  6  1  0  0  0  0
  6  7  1  0  0  0  0
  7  8  1  0  0  0  0
  9  8  1  1  0  0  0
  9 10  1  0  0  0  0
  9 11  1  0  0  0  0
 10 15  1  0  0  0  0
 11 12  1  6  0  0  0
 11 13  1  0  0  0  0
 13 14  1  6  0  0  0
 13 15  1  0  0  0  0
 15 26  1  1  0  0  0
 17 18  2  0  0  0  0
 17 22  1  0  0  0  0
 18 19  1  0  0  0  0
 19 20  2  0  0  0  0
 20 21  1  0  0  0  0
 20 26  1  0  0  0  0
 21 22  2  0  0  0  0
 21 24  1  0  0  0  0
 22 23  1  0  0  0  0
 24 25  2  0  0  0  0
 25 26  1  0  0  0  0
M  END
>  <CHROM.1>
168.19508584,63.32306726,-73.12481547,-62.65320014,-161.03748475,60.53257837
-13.24447321,131.70020342,63.59584843,-0.17611010,0.16639375,-0.67241950
0.19643683

>  <Name>
ligand

>  <RI>
0

>  <Rbt.Current_Directory>
/home/itssahil/PROJECTS/Mol_Feturizer/Test_systems_manuscript/rnas/3npn

>  <Rbt.Executable>
rbdock ($Id: //depot/dev/client3/rdock/2013.1/src/exe/rbdock.cxx#4 $)

>  <Rbt.Library>
libRbt.so (2013.1, Build901 2013/11/27)

>  <Rbt.Parameter_File>
/export/apps/rDock/src/rDock_2013.1_src/data/scripts/dock_solv.prm

>  <Rbt.Receptor>
prm/pocket_docking_7.prm

>  <SCORE>
-14.024

>  <SCORE.INTER>
-13.5014

>  <SCORE.INTER.CONST>
1

>  <SCORE.INTER.POLAR>
0

>  <SCORE.INTER.ROT>
7

>  <SCORE.INTER.SOLV>
14.6689

>  <SCORE.INTER.VDW>
-22.1572

>  <SCORE.INTER.norm>
-0.519283

>  <SCORE.INTRA>
-0.522659

>  <SCORE.INTRA.DIHEDRAL>
-0.475872

>  <SCORE.INTRA.DIHEDRAL.0>
4.37896

>  <SCORE.INTRA.POLAR>
0

>  <SCORE.INTRA.POLAR.0>
0

>  <SCORE.INTRA.REPUL>
0

>  <SCORE.INTRA.REPUL.0>
0

>  <SCORE.INTRA.SOLV>
1.952

>  <SCORE.INTRA.SOLV.lig_0>
-50.5538

>  <SCORE.INTRA.VDW>
-1.26072

>  <SCORE.INTRA.VDW.0>
-1.30673

>  <SCORE.INTRA.norm>
-0.0201023

>  <SCORE.RESTR>
0

>  <SCORE.RESTR.CAVITY>
0

>  <SCORE.RESTR.norm>
0

>  <SCORE.SYSTEM>
0

>  <SCORE.SYSTEM.CONST>
0

>  <SCORE.SYSTEM.DIHEDRAL>
0

>  <SCORE.SYSTEM.SOLV>
0

>  <SCORE.SYSTEM.norm>
0

>  <SCORE.heavy>
26

>  <SCORE.norm>
-0.539386

>  <RMSD>
6.595

$$$$
ligand
 OpenBabel02271912153D
libRbt.so/2013.1/901 2013/11/27
 26 28  0  0  0  0  0  0  0  0999 V2000
  128.3467   66.6588   -2.5629 N   0  0  0  0  0  0  0  0  0  0  0  0
  128.9377   65.7188   -1.5646 C   0  0  2  0  0  0  0  0  0  0  0  0
  130.3494   66.1129   -1.2374 C   0  0  0  0  0  0  0  0  0  0  0  0
  130.7629   66.1015   -0.0787 O   0  0  0  0  0  0  0  0  0  0  0  0
  128.9175   64.2919   -2.1061 C   0  0  0  0  0  0  0  0  0  0  0  0
  129.5330   63.2739   -1.1510 C   0  0  0  0  0  0  0  0  0  0  0  0
  129.4053   61.6538   -1.8337 S   0  0  0  0  0  0  0  0  0  0  0  0
  130.9950   60.9725   -1.4871 C   0  0  0  0  0  0  0  0  0  0  0  0
  131.2364   59.6796   -2.2642 C   0  0  1  0  0  0  0  0  0  0  0  0
  132.6281   59.3553   -2.2868 O   0  0  0  0  0  0  0  0  0  0  0  0
  130.5124   58.5209   -1.5979 C   0  0  1  0  0  0  0  0  0  0  0  0
  129.7582   57.7929   -2.5717 O   0  0  0  0  0  0  0  0  0  0  0  0
  131.5933   57.6540   -0.9768 C   0  0  1  0  0  0  0  0  0  0  0  0
  131.4906   56.2950   -1.4163 O   0  0  0  0  0  0  0  0  0  0  0  0
  132.9229   58.2468   -1.4284 C   0  0  2  0  0  0  0  0  0  0  0  0
  131.1253   66.4675   -2.1236 O   0  0  0  0  0  0  0  0  0  0  0  0
  135.7504   56.8893    2.8291 N   0  0  0  0  0  0  0  0  0  0  0  0
  135.0996   56.1082    1.9436 C   0  0  0  0  0  0  0  0  0  0  0  0
  134.4104   56.5958    0.8914 N   0  0  0  0  0  0  0  0  0  0  0  0
  134.3270   57.9334    0.6579 C   0  0  0  0  0  0  0  0  0  0  0  0
  135.0141   58.8498    1.5850 C   0  0  0  0  0  0  0  0  0  0  0  0
  135.7541   58.2394    2.7185 C   0  0  0  0  0  0  0  0  0  0  0  0
  136.4094   59.0136    3.6159 N   0  0  0  0  0  0  0  0  0  0  0  0
  134.7850   60.0970    1.1398 N   0  0  0  0  0  0  0  0  0  0  0  0
  134.0163   59.9929    0.0273 C   0  0  0  0  0  0  0  0  0  0  0  0
  133.7384   58.7068   -0.2657 N   0  0  0  0  0  0  0  0  0  0  0  0
  2  1  1  6  0  0  0
  2  3  1  0  0  0  0
  2  5  1  0  0  0  0
  3  4  1  0  0  0  0
  3 16  1  0  0  0  0
  5  6  1  0  0  0  0
  6  7  1  0  0  0  0
  7  8  1  0  0  0  0
  9  8  1  1  0  0  0
  9 10  1  0  0  0  0
  9 11  1  0  0  0  0
 10 15  1  0  0  0  0
 11 12  1  6  0  0  0
 11 13  1  0  0  0  0
 13 14  1  6  0  0  0
 13 15  1  0  0  0  0
 15 26  1  1  0  0  0
 17 18  2  0  0  0  0
 17 22  1  0  0  0  0
 18 19  1  0  0  0  0
 19 20  2  0  0  0  0
 20 21  1  0  0  0  0
 20 26  1  0  0  0  0
 21 22  2  0  0  0  0
 21 24  1  0  0  0  0
 22 23  1  0  0  0  0
 24 25  2  0  0  0  0
 25 26  1  0  0  0  0
M  END
>  <CHROM.1>
137.05894234,178.82682993,177.74368138,136.99404086,-166.98556923,163.05622131
-171.82166172,132.01536389,60.54587817,-0.57394241,-2.32520383,0.69303345
-2.97939048

>  <Name>
ligand

>  <RI>
0

>  <Rbt.Current_Directory>
/home/itssahil/PROJECTS/Mol_Feturizer/Test_systems_manuscript/rnas/3npn

>  <Rbt.Executable>
rbdock ($Id: //depot/dev/client3/rdock/2013.1/src/exe/rbdock.cxx#4 $)

>  <Rbt.Library>
libRbt.so (2013.1, Build901 2013/11/27)

>  <Rbt.Parameter_File>
/export/apps/rDock/src/rDock_2013.1_src/data/scripts/dock_solv.prm

>  <Rbt.Receptor>
prm/pocket_docking_8.prm

>  <SCORE>
-21.4469

>  <SCORE.INTER>
-20.9525

>  <SCORE.INTER.CONST>
1

>  <SCORE.INTER.POLAR>
0

>  <SCORE.INTER.ROT>
7

>  <SCORE.INTER.SOLV>
11.5612

>  <SCORE.INTER.VDW>
-26.0887

>  <SCORE.INTER.norm>
-0.805865

>  <SCORE.INTRA>
-0.494384

>  <SCORE.INTRA.DIHEDRAL>
1.51336

>  <SCORE.INTRA.DIHEDRAL.0>
4.37896

>  <SCORE.INTRA.POLAR>
0

>  <SCORE.INTRA.POLAR.0>
0

>  <SCORE.INTRA.REPUL>
0

>  <SCORE.INTRA.REPUL.0>
0

>  <SCORE.INTRA.SOLV>
-0.901674

>  <SCORE.INTRA.SOLV.lig_0>
-50.5538

>  <SCORE.INTRA.VDW>
-0.800227

>  <SCORE.INTRA.VDW.0>
-1.30673

>  <SCORE.INTRA.norm>
-0.0190148

>  <SCORE.RESTR>
0

>  <SCORE.RESTR.CAVITY>
0

>  <SCORE.RESTR.norm>
0

>  <SCORE.SYSTEM>
0

>  <SCORE.SYSTEM.CONST>
0

>  <SCORE.SYSTEM.DIHEDRAL>
0

>  <SCORE.SYSTEM.SOLV>
0

>  <SCORE.SYSTEM.norm>
0

>  <SCORE.heavy>
26

>  <SCORE.norm>
-0.82488

>  <RMSD>
6.626

$$$$
ligand
 OpenBabel02271912153D
libRbt.so/2013.1/901 2013/11/27
 26 28  0  0  0  0  0  0  0  0999 V2000
  134.1713   73.3746   -4.4194 N   0  0  0  0  0  0  0  0  0  0  0  0
  133.8059   71.9600   -4.7273 C   0  0  2  0  0  0  0  0  0  0  0  0
  134.7582   71.3733   -5.7294 C   0  0  0  0  0  0  0  0  0  0  0  0
  135.1517   70.2117   -5.6319 O   0  0  0  0  0  0  0  0  0  0  0  0
  132.3820   71.8889   -5.2724 C   0  0  0  0  0  0  0  0  0  0  0  0
  131.3155   72.1559   -4.2147 C   0  0  0  0  0  0  0  0  0  0  0  0
  129.7193   71.7781   -4.8602 S   0  0  0  0  0  0  0  0  0  0  0  0
  128.9408   70.9772   -3.4950 C   0  0  0  0  0  0  0  0  0  0  0  0
  127.4967   70.5946   -3.8141 C   0  0  1  0  0  0  0  0  0  0  0  0
  127.4531   69.4342   -4.6473 O   0  0  0  0  0  0  0  0  0  0  0  0
  126.7445   70.2622   -2.5356 C   0  0  1  0  0  0  0  0  0  0  0  0
  125.5007   70.9687   -2.5044 O   0  0  0  0  0  0  0  0  0  0  0  0
  126.5249   68.7599   -2.5580 C   0  0  1  0  0  0  0  0  0  0  0  0
  125.1405   68.4313   -2.3971 O   0  0  0  0  0  0  0  0  0  0  0  0
  127.0179   68.2803   -3.9182 C   0  0  2  0  0  0  0  0  0  0  0  0
  135.1764   72.0472   -6.6697 O   0  0  0  0  0  0  0  0  0  0  0  0
  130.5976   66.0576   -0.7230 N   0  0  0  0  0  0  0  0  0  0  0  0
  129.6623   66.9897   -0.4506 C   0  0  0  0  0  0  0  0  0  0  0  0
  128.8049   67.4713   -1.3741 N   0  0  0  0  0  0  0  0  0  0  0  0
  128.8354   67.0377   -2.6632 C   0  0  0  0  0  0  0  0  0  0  0  0
  129.8323   66.0183   -3.0351 C   0  0  0  0  0  0  0  0  0  0  0  0
  130.7404   65.5348   -1.9644 C   0  0  0  0  0  0  0  0  0  0  0  0
  131.6855   64.6007   -2.2262 N   0  0  0  0  0  0  0  0  0  0  0  0
  129.6561   65.7611   -4.3424 N   0  0  0  0  0  0  0  0  0  0  0  0
  128.6388   66.5472   -4.7742 C   0  0  0  0  0  0  0  0  0  0  0  0
  128.1452   67.3115   -3.7796 N   0  0  0  0  0  0  0  0  0  0  0  0
  2  1  1  6  0  0  0
  2  3  1  0  0  0  0
  2  5  1  0  0  0  0
  3  4  1  0  0  0  0
  3 16  1  0  0  0  0
  5  6  1  0  0  0  0
  6  7  1  0  0  0  0
  7  8  1  0  0  0  0
  9  8  1  1  0  0  0
  9 10  1  0  0  0  0
  9 11  1  0  0  0  0
 10 15  1  0  0  0  0
 11 12  1  6  0  0  0
 11 13  1  0  0  0  0
 13 14  1  6  0  0  0
 13 15  1  0  0  0  0
 15 26  1  1  0  0  0
 17 18  2  0  0  0  0
 17 22  1  0  0  0  0
 18 19  1  0  0  0  0
 19 20  2  0  0  0  0
 20 21  1  0  0  0  0
 20 26  1  0  0  0  0
 21 22  2  0  0  0  0
 21 24  1  0  0  0  0
 22 23  1  0  0  0  0
 24 25  2  0  0  0  0
 25 26  1  0  0  0  0
M  END
>  <CHROM.1>
140.46127407,-71.38569671,-170.13757057,138.97801790,177.98545370,76.70877318
107.62004908,129.90883456,69.27766043,-3.66566205,0.66640602,0.19338159,-0.34973382

>  <Name>
ligand

>  <RI>
0

>  <Rbt.Current_Directory>
/home/itssahil/PROJECTS/Mol_Feturizer/Test_systems_manuscript/rnas/3npn

>  <Rbt.Executable>
rbdock ($Id: //depot/dev/client3/rdock/2013.1/src/exe/rbdock.cxx#4 $)

>  <Rbt.Library>
libRbt.so (2013.1, Build901 2013/11/27)

>  <Rbt.Parameter_File>
/export/apps/rDock/src/rDock_2013.1_src/data/scripts/dock_solv.prm

>  <Rbt.Receptor>
prm/pocket_docking_8.prm

>  <SCORE>
-17.8347

>  <SCORE.INTER>
-17.6927

>  <SCORE.INTER.CONST>
1

>  <SCORE.INTER.POLAR>
0

>  <SCORE.INTER.ROT>
7

>  <SCORE.INTER.SOLV>
13.0999

>  <SCORE.INTER.VDW>
-24.4284

>  <SCORE.INTER.norm>
-0.680488

>  <SCORE.INTRA>
-0.142014

>  <SCORE.INTRA.DIHEDRAL>
1.99449

>  <SCORE.INTRA.DIHEDRAL.0>
4.37896

>  <SCORE.INTRA.POLAR>
0

>  <SCORE.INTRA.POLAR.0>
0

>  <SCORE.INTRA.REPUL>
0

>  <SCORE.INTRA.REPUL.0>
0

>  <SCORE.INTRA.SOLV>
-0.364759

>  <SCORE.INTRA.SOLV.lig_0>
-50.5538

>  <SCORE.INTRA.VDW>
-0.95688

>  <SCORE.INTRA.VDW.0>
-1.30673

>  <SCORE.INTRA.norm>
-0.00546208

>  <SCORE.RESTR>
0

>  <SCORE.RESTR.CAVITY>
0

>  <SCORE.RESTR.norm>
0

>  <SCORE.SYSTEM>
0

>  <SCORE.SYSTEM.CONST>
0

>  <SCORE.SYSTEM.DIHEDRAL>
0

>  <SCORE.SYSTEM.SOLV>
0

>  <SCORE.SYSTEM.norm>
0

>  <SCORE.heavy>
26

>  <SCORE.norm>
-0.68595

>  <RMSD>
6.709

$$$$
ligand
 OpenBabel02271912153D
libRbt.so/2013.1/901 2013/11/27
 26 28  0  0  0  0  0  0  0  0999 V2000
  134.6850   69.8380   -4.4588 N   0  0  0  0  0  0  0  0  0  0  0  0
  133.7416   70.6861   -3.6713 C   0  0  2  0  0  0  0  0  0  0  0  0
  133.4176   70.0370   -2.3565 C   0  0  0  0  0  0  0  0  0  0  0  0
  133.4292   68.8134   -2.2287 O   0  0  0  0  0  0  0  0  0  0  0  0
  132.4547   70.9160   -4.4591 C   0  0  0  0  0  0  0  0  0  0  0  0
  131.5171   71.9258   -3.8044 C   0  0  0  0  0  0  0  0  0  0  0  0
  129.9860   71.9792   -4.6762 S   0  0  0  0  0  0  0  0  0  0  0  0
  129.3841   70.3326   -4.4817 C   0  0  0  0  0  0  0  0  0  0  0  0
  127.8575   70.2830   -4.5095 C   0  0  1  0  0  0  0  0  0  0  0  0
  127.3951   68.9308   -4.5036 O   0  0  0  0  0  0  0  0  0  0  0  0
  127.2854   70.9624   -3.2758 C   0  0  1  0  0  0  0  0  0  0  0  0
  126.2690   71.8935   -3.6595 O   0  0  0  0  0  0  0  0  0  0  0  0
  126.7168   69.8506   -2.4119 C   0  0  1  0  0  0  0  0  0  0  0  0
  125.3446   70.0937   -2.0828 O   0  0  0  0  0  0  0  0  0  0  0  0
  126.8351   68.5728   -3.2343 C   0  0  2  0  0  0  0  0  0  0  0  0
  133.1220   70.7170   -1.3749 O   0  0  0  0  0  0  0  0  0  0  0  0
  131.1506   67.6895   -0.3085 N   0  0  0  0  0  0  0  0  0  0  0  0
  130.6446   68.8524   -0.7662 C   0  0  0  0  0  0  0  0  0  0  0  0
  129.5221   68.9305   -1.5102 N   0  0  0  0  0  0  0  0  0  0  0  0
  128.8204   67.8165   -1.8526 C   0  0  0  0  0  0  0  0  0  0  0  0
  129.3138   66.5082   -1.3875 C   0  0  0  0  0  0  0  0  0  0  0  0
  130.5544   66.5019   -0.5714 C   0  0  0  0  0  0  0  0  0  0  0  0
  131.0737   65.3401   -0.1082 N   0  0  0  0  0  0  0  0  0  0  0  0
  128.4556   65.5826   -1.8489 N   0  0  0  0  0  0  0  0  0  0  0  0
  127.4970   66.2364   -2.5511 C   0  0  0  0  0  0  0  0  0  0  0  0
  127.7081   67.5678   -2.5587 N   0  0  0  0  0  0  0  0  0  0  0  0
  2  1  1  6  0  0  0
  2  3  1  0  0  0  0
  2  5  1  0  0  0  0
  3  4  1  0  0  0  0
  3 16  1  0  0  0  0
  5  6  1  0  0  0  0
  6  7  1  0  0  0  0
  7  8  1  0  0  0  0
  9  8  1  1  0  0  0
  9 10  1  0  0  0  0
  9 11  1  0  0  0  0
 10 15  1  0  0  0  0
 11 12  1  6  0  0  0
 11 13  1  0  0  0  0
 13 14  1  6  0  0  0
 13 15  1  0  0  0  0
 15 26  1  1  0  0  0
 17 18  2  0  0  0  0
 17 22  1  0  0  0  0
 18 19  1  0  0  0  0
 19 20  2  0  0  0  0
 20 21  1  0  0  0  0
 20 26  1  0  0  0  0
 21 22  2  0  0  0  0
 21 24  1  0  0  0  0
 22 23  1  0  0  0  0
 24 25  2  0  0  0  0
 25 26  1  0  0  0  0
M  END
>  <CHROM.1>
-29.10239793,-172.22574132,-173.20766553,61.80594424,151.40381076,173.41455102
81.76195123,129.77736513,69.30789642,-2.76562429,0.17183650,-0.07622240,-0.57170171

>  <Name>
ligand

>  <RI>
0

>  <Rbt.Current_Directory>
/home/itssahil/PROJECTS/Mol_Feturizer/Test_systems_manuscript/rnas/3npn

>  <Rbt.Executable>
rbdock ($Id: //depot/dev/client3/rdock/2013.1/src/exe/rbdock.cxx#4 $)

>  <Rbt.Library>
libRbt.so (2013.1, Build901 2013/11/27)

>  <Rbt.Parameter_File>
/export/apps/rDock/src/rDock_2013.1_src/data/scripts/dock_solv.prm

>  <Rbt.Receptor>
prm/pocket_docking_8.prm

>  <SCORE>
-17.2768

>  <SCORE.INTER>
-14.7801

>  <SCORE.INTER.CONST>
1

>  <SCORE.INTER.POLAR>
0

>  <SCORE.INTER.ROT>
7

>  <SCORE.INTER.SOLV>
13.1309

>  <SCORE.INTER.VDW>
-22.497

>  <SCORE.INTER.norm>
-0.568466

>  <SCORE.INTRA>
-2.50204

>  <SCORE.INTRA.DIHEDRAL>
-0.0553152

>  <SCORE.INTRA.DIHEDRAL.0>
4.37896

>  <SCORE.INTRA.POLAR>
0

>  <SCORE.INTRA.POLAR.0>
0

>  <SCORE.INTRA.REPUL>
0

>  <SCORE.INTRA.REPUL.0>
0

>  <SCORE.INTRA.SOLV>
-0.835904

>  <SCORE.INTRA.SOLV.lig_0>
-50.5538

>  <SCORE.INTRA.VDW>
-2.05643

>  <SCORE.INTRA.VDW.0>
-1.30673

>  <SCORE.INTRA.norm>
-0.0962324

>  <SCORE.RESTR>
0.00537004

>  <SCORE.RESTR.CAVITY>
0.00537004

>  <SCORE.RESTR.norm>
0.00020654

>  <SCORE.SYSTEM>
0

>  <SCORE.SYSTEM.CONST>
0

>  <SCORE.SYSTEM.DIHEDRAL>
0

>  <SCORE.SYSTEM.SOLV>
0

>  <SCORE.SYSTEM.norm>
0

>  <SCORE.heavy>
26

>  <SCORE.norm>
-0.664492

>  <RMSD>
6.775

$$$$
ligand
 OpenBabel02271912153D
libRbt.so/2013.1/901 2013/11/27
 26 28  0  0  0  0  0  0  0  0999 V2000
  130.9675   64.2515   -1.4417 N   0  0  0  0  0  0  0  0  0  0  0  0
  129.5729   63.7282   -1.3383 C   0  0  2  0  0  0  0  0  0  0  0  0
  129.5184   62.2828   -1.7421 C   0  0  0  0  0  0  0  0  0  0  0  0
  128.4472   61.7264   -1.9797 O   0  0  0  0  0  0  0  0  0  0  0  0
  128.6358   64.5429   -2.2259 C   0  0  0  0  0  0  0  0  0  0  0  0
  128.5644   66.0166   -1.8378 C   0  0  0  0  0  0  0  0  0  0  0  0
  127.0654   66.7249   -2.4365 S   0  0  0  0  0  0  0  0  0  0  0  0
  127.6381   67.7865   -3.7235 C   0  0  0  0  0  0  0  0  0  0  0  0
  127.9025   69.2014   -3.2120 C   0  0  1  0  0  0  0  0  0  0  0  0
  129.0243   69.2180   -2.3268 O   0  0  0  0  0  0  0  0  0  0  0  0
  128.2272   70.1292   -4.3716 C   0  0  1  0  0  0  0  0  0  0  0  0
  127.4339   71.3166   -4.2825 O   0  0  0  0  0  0  0  0  0  0  0  0
  129.7077   70.4450   -4.2526 C   0  0  1  0  0  0  0  0  0  0  0  0
  129.9407   71.8575   -4.2268 O   0  0  0  0  0  0  0  0  0  0  0  0
  130.1703   69.8182   -2.9425 C   0  0  2  0  0  0  0  0  0  0  0  0
  130.5481   61.6162   -1.8353 O   0  0  0  0  0  0  0  0  0  0  0  0
  131.6759   65.5412   -5.6636 N   0  0  0  0  0  0  0  0  0  0  0  0
  130.5369   66.2575   -5.7478 C   0  0  0  0  0  0  0  0  0  0  0  0
  130.2833   67.3393   -4.9828 N   0  0  0  0  0  0  0  0  0  0  0  0
  131.1799   67.7795   -4.0592 C   0  0  0  0  0  0  0  0  0  0  0  0
  132.4490   67.0456   -3.9108 C   0  0  0  0  0  0  0  0  0  0  0  0
  132.6577   65.8665   -4.7888 C   0  0  0  0  0  0  0  0  0  0  0  0
  133.7965   65.1375   -4.7118 N   0  0  0  0  0  0  0  0  0  0  0  0
  133.1509   67.6729   -2.9516 N   0  0  0  0  0  0  0  0  0  0  0  0
  132.3993   68.7156   -2.5189 C   0  0  0  0  0  0  0  0  0  0  0  0
  131.2229   68.7852   -3.1735 N   0  0  0  0  0  0  0  0  0  0  0  0
  2  1  1  6  0  0  0
  2  3  1  0  0  0  0
  2  5  1  0  0  0  0
  3  4  1  0  0  0  0
  3 16  1  0  0  0  0
  5  6  1  0  0  0  0
  6  7  1  0  0  0  0
  7  8  1  0  0  0  0
  9  8  1  6  0  0  0
  9 10  1  0  0  0  0
  9 11  1  0  0  0  0
 10 15  1  0  0  0  0
 11 12  1  1  0  0  0
 11 13  1  0  0  0  0
 13 14  1  1  0  0  0
 13 15  1  0  0  0  0
 15 26  1  6  0  0  0
 17 18  2  0  0  0  0
 17 22  1  0  0  0  0
 18 19  1  0  0  0  0
 19 20  2  0  0  0  0
 20 21  1  0  0  0  0
 20 26  1  0  0  0  0
 21 22  2  0  0  0  0
 21 24  1  0  0  0  0
 22 23  1  0  0  0  0
 24 25  2  0  0  0  0
 25 26  1  0  0  0  0
M  END
>  <CHROM.1>
-165.77758219,-61.23801849,-157.76792366,-109.57313208,-92.04888555,68.33678281
69.81682079,129.90064904,66.94548657,-3.26677663,-1.46023324,0.31664808,-0.25688483

>  <Name>
ligand

>  <RI>
0

>  <Rbt.Current_Directory>
/home/itssahil/PROJECTS/Mol_Feturizer/Test_systems_manuscript/rnas/3npn

>  <Rbt.Executable>
rbdock ($Id: //depot/dev/client3/rdock/2013.1/src/exe/rbdock.cxx#4 $)

>  <Rbt.Library>
libRbt.so (2013.1, Build901 2013/11/27)

>  <Rbt.Parameter_File>
/export/apps/rDock/src/rDock_2013.1_src/data/scripts/dock_solv.prm

>  <Rbt.Receptor>
prm/pocket_docking_5.prm

>  <SCORE>
-21.5393

>  <SCORE.INTER>
-20.877

>  <SCORE.INTER.CONST>
1

>  <SCORE.INTER.POLAR>
0

>  <SCORE.INTER.ROT>
7

>  <SCORE.INTER.SOLV>
12.8793

>  <SCORE.INTER.VDW>
-26.4778

>  <SCORE.INTER.norm>
-0.802963

>  <SCORE.INTRA>
-0.662278

>  <SCORE.INTRA.DIHEDRAL>
3.751

>  <SCORE.INTRA.DIHEDRAL.0>
4.37896

>  <SCORE.INTRA.POLAR>
0

>  <SCORE.INTRA.POLAR.0>
0

>  <SCORE.INTRA.REPUL>
0

>  <SCORE.INTRA.REPUL.0>
0

>  <SCORE.INTRA.SOLV>
-0.120785

>  <SCORE.INTRA.SOLV.lig_0>
-50.5538

>  <SCORE.INTRA.VDW>
-2.47739

>  <SCORE.INTRA.VDW.0>
-1.30673

>  <SCORE.INTRA.norm>
-0.0254722

>  <SCORE.RESTR>
0

>  <SCORE.RESTR.CAVITY>
0

>  <SCORE.RESTR.norm>
0

>  <SCORE.SYSTEM>
0

>  <SCORE.SYSTEM.CONST>
0

>  <SCORE.SYSTEM.DIHEDRAL>
0

>  <SCORE.SYSTEM.SOLV>
0

>  <SCORE.SYSTEM.norm>
0

>  <SCORE.heavy>
26

>  <SCORE.norm>
-0.828435

>  <RMSD>
6.974

$$$$
ligand
 OpenBabel02271912153D
libRbt.so/2013.1/901 2013/11/27
 26 28  0  0  0  0  0  0  0  0999 V2000
  133.5205   63.3536   -0.5554 N   0  0  0  0  0  0  0  0  0  0  0  0
  132.7563   64.3138   -1.4058 C   0  0  2  0  0  0  0  0  0  0  0  0
  133.1316   65.7296   -1.0743 C   0  0  0  0  0  0  0  0  0  0  0  0
  132.9270   66.1989    0.0444 O   0  0  0  0  0  0  0  0  0  0  0  0
  131.2559   64.1215   -1.2022 C   0  0  0  0  0  0  0  0  0  0  0  0
  130.4044   65.0186   -2.0954 C   0  0  0  0  0  0  0  0  0  0  0  0
  128.6965   64.6443   -1.8717 S   0  0  0  0  0  0  0  0  0  0  0  0
  127.9087   65.8723   -2.8630 C   0  0  0  0  0  0  0  0  0  0  0  0
  127.6027   67.1350   -2.0594 C   0  0  1  0  0  0  0  0  0  0  0  0
  128.7940   67.6610   -1.4706 O   0  0  0  0  0  0  0  0  0  0  0  0
  127.0327   68.2126   -2.9675 C   0  0  1  0  0  0  0  0  0  0  0  0
  125.8423   68.7570   -2.3897 O   0  0  0  0  0  0  0  0  0  0  0  0
  128.1164   69.2685   -3.0950 C   0  0  1  0  0  0  0  0  0  0  0  0
  127.6264   70.5664   -2.7406 O   0  0  0  0  0  0  0  0  0  0  0  0
  129.2268   68.8531   -2.1370 C   0  0  2  0  0  0  0  0  0  0  0  0
  133.6457   66.4591   -1.9210 O   0  0  0  0  0  0  0  0  0  0  0  0
  131.6805   66.2216   -6.0124 N   0  0  0  0  0  0  0  0  0  0  0  0
  130.3897   66.1773   -5.6256 C   0  0  0  0  0  0  0  0  0  0  0  0
  129.8951   66.9125   -4.6084 N   0  0  0  0  0  0  0  0  0  0  0  0
  130.6869   67.7584   -3.8955 C   0  0  0  0  0  0  0  0  0  0  0  0
  132.1107   67.8596   -4.2616 C   0  0  0  0  0  0  0  0  0  0  0  0
  132.5816   67.0213   -5.3931 C   0  0  0  0  0  0  0  0  0  0  0  0
  133.8763   67.0551   -5.7892 N   0  0  0  0  0  0  0  0  0  0  0  0
  132.6656   68.7502   -3.4219 N   0  0  0  0  0  0  0  0  0  0  0  0
  131.6871   69.1813   -2.5876 C   0  0  0  0  0  0  0  0  0  0  0  0
  130.5054   68.5942   -2.8629 N   0  0  0  0  0  0  0  0  0  0  0  0
  2  1  1  1  0  0  0
  2  3  1  0  0  0  0
  2  5  1  0  0  0  0
  3  4  1  0  0  0  0
  3 16  1  0  0  0  0
  5  6  1  0  0  0  0
  6  7  1  0  0  0  0
  7  8  1  0  0  0  0
  9  8  1  6  0  0  0
  9 10  1  0  0  0  0
  9 11  1  0  0  0  0
 10 15  1  0  0  0  0
 11 12  1  1  0  0  0
 11 13  1  0  0  0  0
 13 14  1  1  0  0  0
 13 15  1  0  0  0  0
 15 26  1  6  0  0  0
 17 18  2  0  0  0  0
 17 22  1  0  0  0  0
 18 19  1  0  0  0  0
 19 20  2  0  0  0  0
 20 21  1  0  0  0  0
 20 26  1  0  0  0  0
 21 22  2  0  0  0  0
 21 24  1  0  0  0  0
 22 23  1  0  0  0  0
 24 25  2  0  0  0  0
 25 26  1  0  0  0  0
M  END
>  <CHROM.1>
-62.41779116,-176.91883799,175.99624386,175.02436175,-90.40838027,56.61697406
64.56788675,130.43224845,66.88320097,-2.75451940,0.42717733,-0.30333492,2.41174436

>  <Name>
ligand

>  <RI>
0

>  <Rbt.Current_Directory>
/home/itssahil/PROJECTS/Mol_Feturizer/Test_systems_manuscript/rnas/3npn

>  <Rbt.Executable>
rbdock ($Id: //depot/dev/client3/rdock/2013.1/src/exe/rbdock.cxx#4 $)

>  <Rbt.Library>
libRbt.so (2013.1, Build901 2013/11/27)

>  <Rbt.Parameter_File>
/export/apps/rDock/src/rDock_2013.1_src/data/scripts/dock_solv.prm

>  <Rbt.Receptor>
prm/pocket_docking_8.prm

>  <SCORE>
-16.5944

>  <SCORE.INTER>
-12.5391

>  <SCORE.INTER.CONST>
1

>  <SCORE.INTER.POLAR>
0

>  <SCORE.INTER.ROT>
7

>  <SCORE.INTER.SOLV>
10.0618

>  <SCORE.INTER.VDW>
-19.98

>  <SCORE.INTER.norm>
-0.482271

>  <SCORE.INTRA>
-4.05538

>  <SCORE.INTRA.DIHEDRAL>
-0.315331

>  <SCORE.INTRA.DIHEDRAL.0>
4.37896

>  <SCORE.INTRA.POLAR>
0

>  <SCORE.INTRA.POLAR.0>
0

>  <SCORE.INTRA.REPUL>
0

>  <SCORE.INTRA.REPUL.0>
0

>  <SCORE.INTRA.SOLV>
-0.692902

>  <SCORE.INTRA.SOLV.lig_0>
-50.5538

>  <SCORE.INTRA.VDW>
-3.55126

>  <SCORE.INTRA.VDW.0>
-1.30673

>  <SCORE.INTRA.norm>
-0.155976

>  <SCORE.RESTR>
0

>  <SCORE.RESTR.CAVITY>
0

>  <SCORE.RESTR.norm>
0

>  <SCORE.SYSTEM>
0

>  <SCORE.SYSTEM.CONST>
0

>  <SCORE.SYSTEM.DIHEDRAL>
0

>  <SCORE.SYSTEM.SOLV>
0

>  <SCORE.SYSTEM.norm>
0

>  <SCORE.heavy>
26

>  <SCORE.norm>
-0.638247

>  <RMSD>
7.072

$$$$
ligand
 OpenBabel02271912153D
libRbt.so/2013.1/901 2013/11/27
 26 28  0  0  0  0  0  0  0  0999 V2000
  134.1523   65.3205   -3.9043 N   0  0  0  0  0  0  0  0  0  0  0  0
  132.7432   65.7817   -3.7282 C   0  0  2  0  0  0  0  0  0  0  0  0
  132.0337   64.9390   -2.7077 C   0  0  0  0  0  0  0  0  0  0  0  0
  132.6549   64.1878   -1.9570 O   0  0  0  0  0  0  0  0  0  0  0  0
  131.9951   65.7137   -5.0570 C   0  0  0  0  0  0  0  0  0  0  0  0
  131.2487   67.0000   -5.3973 C   0  0  0  0  0  0  0  0  0  0  0  0
  130.0468   67.3454   -4.1550 S   0  0  0  0  0  0  0  0  0  0  0  0
  128.5535   66.7878   -4.9102 C   0  0  0  0  0  0  0  0  0  0  0  0
  127.3231   67.4193   -4.2613 C   0  0  1  0  0  0  0  0  0  0  0  0
  127.1729   66.9664   -2.9142 O   0  0  0  0  0  0  0  0  0  0  0  0
  127.4684   68.9319   -4.2167 C   0  0  1  0  0  0  0  0  0  0  0  0
  126.2840   69.5504   -4.7283 O   0  0  0  0  0  0  0  0  0  0  0  0
  127.6900   69.2879   -2.7573 C   0  0  1  0  0  0  0  0  0  0  0  0
  126.7424   70.2623   -2.3069 O   0  0  0  0  0  0  0  0  0  0  0  0
  127.5147   67.9921   -1.9742 C   0  0  2  0  0  0  0  0  0  0  0  0
  130.8083   64.9732   -2.6052 O   0  0  0  0  0  0  0  0  0  0  0  0
  132.1555   69.5946   -0.0098 N   0  0  0  0  0  0  0  0  0  0  0  0
  131.2116   70.2966   -0.6687 C   0  0  0  0  0  0  0  0  0  0  0  0
  130.0617   69.7526   -1.1177 N   0  0  0  0  0  0  0  0  0  0  0  0
  129.7815   68.4345   -0.9309 C   0  0  0  0  0  0  0  0  0  0  0  0
  130.7677   67.6036   -0.2179 C   0  0  0  0  0  0  0  0  0  0  0  0
  132.0085   68.2730    0.2483 C   0  0  0  0  0  0  0  0  0  0  0  0
  132.9650   67.5781    0.9089 N   0  0  0  0  0  0  0  0  0  0  0  0
  130.2605   66.3604   -0.1618 N   0  0  0  0  0  0  0  0  0  0  0  0
  129.0567   66.3877   -0.7859 C   0  0  0  0  0  0  0  0  0  0  0  0
  128.7647   67.6200   -1.2477 N   0  0  0  0  0  0  0  0  0  0  0  0
  2  1  1  6  0  0  0
  2  3  1  0  0  0  0
  2  5  1  0  0  0  0
  3  4  1  0  0  0  0
  3 16  1  0  0  0  0
  5  6  1  0  0  0  0
  6  7  1  0  0  0  0
  7  8  1  0  0  0  0
  9  8  1  1  0  0  0
  9 10  1  0  0  0  0
  9 11  1  0  0  0  0
 10 15  1  0  0  0  0
 11 12  1  1  0  0  0
 11 13  1  0  0  0  0
 13 14  1  1  0  0  0
 13 15  1  0  0  0  0
 15 26  1  6  0  0  0
 17 18  2  0  0  0  0
 17 22  1  0  0  0  0
 18 19  1  0  0  0  0
 19 20  2  0  0  0  0
 20 21  1  0  0  0  0
 20 26  1  0  0  0  0
 21 22  2  0  0  0  0
 21 24  1  0  0  0  0
 22 23  1  0  0  0  0
 24 25  2  0  0  0  0
 25 26  1  0  0  0  0
M  END
>  <CHROM.1>
14.03577225,-130.44038980,-60.60604210,-100.68672934,-159.54887335,-66.60195485
138.83389005,130.01664230,67.45024424,-2.50363444,0.08007931,0.53001134,-2.12392766

>  <Name>
ligand

>  <RI>
0

>  <Rbt.Current_Directory>
/home/itssahil/PROJECTS/Mol_Feturizer/Test_systems_manuscript/rnas/3npn

>  <Rbt.Executable>
rbdock ($Id: //depot/dev/client3/rdock/2013.1/src/exe/rbdock.cxx#4 $)

>  <Rbt.Library>
libRbt.so (2013.1, Build901 2013/11/27)

>  <Rbt.Parameter_File>
/export/apps/rDock/src/rDock_2013.1_src/data/scripts/dock_solv.prm

>  <Rbt.Receptor>
prm/pocket_docking_5.prm

>  <SCORE>
-10.7515

>  <SCORE.INTER>
-11.3171

>  <SCORE.INTER.CONST>
1

>  <SCORE.INTER.POLAR>
0

>  <SCORE.INTER.ROT>
7

>  <SCORE.INTER.SOLV>
9.16556

>  <SCORE.INTER.VDW>
-18.8666

>  <SCORE.INTER.norm>
-0.435274

>  <SCORE.INTRA>
0.565674

>  <SCORE.INTRA.DIHEDRAL>
6.31432

>  <SCORE.INTRA.DIHEDRAL.0>
4.37896

>  <SCORE.INTRA.POLAR>
0

>  <SCORE.INTRA.POLAR.0>
0

>  <SCORE.INTRA.REPUL>
0

>  <SCORE.INTRA.REPUL.0>
0

>  <SCORE.INTRA.SOLV>
-0.174369

>  <SCORE.INTRA.SOLV.lig_0>
-50.5538

>  <SCORE.INTRA.VDW>
-2.5043

>  <SCORE.INTRA.VDW.0>
-1.30673

>  <SCORE.INTRA.norm>
0.0217567

>  <SCORE.RESTR>
0

>  <SCORE.RESTR.CAVITY>
0

>  <SCORE.RESTR.norm>
0

>  <SCORE.SYSTEM>
0

>  <SCORE.SYSTEM.CONST>
0

>  <SCORE.SYSTEM.DIHEDRAL>
0

>  <SCORE.SYSTEM.SOLV>
0

>  <SCORE.SYSTEM.norm>
0

>  <SCORE.heavy>
26

>  <SCORE.norm>
-0.413517

>  <RMSD>
7.107

$$$$
ligand
 OpenBabel02271912153D
libRbt.so/2013.1/901 2013/11/27
 26 28  0  0  0  0  0  0  0  0999 V2000
  131.8876   58.5337   -1.7595 N   0  0  0  0  0  0  0  0  0  0  0  0
  130.4223   58.8032   -1.8579 C   0  0  2  0  0  0  0  0  0  0  0  0
  129.8035   57.9745   -2.9468 C   0  0  0  0  0  0  0  0  0  0  0  0
  128.7441   58.3060   -3.4773 O   0  0  0  0  0  0  0  0  0  0  0  0
  130.1751   60.2830   -2.1383 C   0  0  0  0  0  0  0  0  0  0  0  0
  128.7221   60.7023   -1.9365 C   0  0  0  0  0  0  0  0  0  0  0  0
  128.5708   62.4503   -2.1056 S   0  0  0  0  0  0  0  0  0  0  0  0
  129.8504   63.0435   -1.0463 C   0  0  0  0  0  0  0  0  0  0  0  0
  129.8303   64.5670   -0.9358 C   0  0  1  0  0  0  0  0  0  0  0  0
  130.7815   65.0166    0.0315 O   0  0  0  0  0  0  0  0  0  0  0  0
  130.2063   65.1972   -2.2671 C   0  0  1  0  0  0  0  0  0  0  0  0
  129.2523   66.2050   -2.6157 O   0  0  0  0  0  0  0  0  0  0  0  0
  131.5900   65.7915   -2.0726 C   0  0  1  0  0  0  0  0  0  0  0  0
  131.6180   67.1786   -2.4268 O   0  0  0  0  0  0  0  0  0  0  0  0
  131.9175   65.6264   -0.5932 C   0  0  2  0  0  0  0  0  0  0  0  0
  130.3392   56.9348   -3.3279 O   0  0  0  0  0  0  0  0  0  0  0  0
  134.4108   61.1116   -1.7610 N   0  0  0  0  0  0  0  0  0  0  0  0
  133.2109   61.5643   -2.1771 C   0  0  0  0  0  0  0  0  0  0  0  0
  132.6927   62.7496   -1.7946 N   0  0  0  0  0  0  0  0  0  0  0  0
  133.3631   63.5749   -0.9461 C   0  0  0  0  0  0  0  0  0  0  0  0
  134.6824   63.1461   -0.4494 C   0  0  0  0  0  0  0  0  0  0  0  0
  135.1881   61.8302   -0.9158 C   0  0  0  0  0  0  0  0  0  0  0  0
  136.3906   61.3635   -0.5029 N   0  0  0  0  0  0  0  0  0  0  0  0
  135.1308   64.1235    0.3567 N   0  0  0  0  0  0  0  0  0  0  0  0
  134.1833   65.0935    0.3794 C   0  0  0  0  0  0  0  0  0  0  0  0
  133.1264   64.7735   -0.3937 N   0  0  0  0  0  0  0  0  0  0  0  0
  2  1  1  6  0  0  0
  2  3  1  0  0  0  0
  2  5  1  0  0  0  0
  3  4  1  0  0  0  0
  3 16  1  0  0  0  0
  5  6  1  0  0  0  0
  6  7  1  0  0  0  0
  7  8  1  0  0  0  0
  9  8  1  6  0  0  0
  9 10  1  0  0  0  0
  9 11  1  0  0  0  0
 10 15  1  0  0  0  0
 11 12  1  1  0  0  0
 11 13  1  0  0  0  0
 13 14  1  1  0  0  0
 13 15  1  0  0  0  0
 15 26  1  6  0  0  0
 17 18  2  0  0  0  0
 17 22  1  0  0  0  0
 18 19  1  0  0  0  0
 19 20  2  0  0  0  0
 20 21  1  0  0  0  0
 20 26  1  0  0  0  0
 21 22  2  0  0  0  0
 21 24  1  0  0  0  0
 22 23  1  0  0  0  0
 24 25  2  0  0  0  0
 25 26  1  0  0  0  0
M  END
>  <CHROM.1>
-157.51014320,-166.71511206,173.67185162,-49.85288764,-174.92339067,173.97421734
69.41748245,131.53598744,62.52867388,-1.58720460,-1.96980232,-0.27352584
0.14733724

>  <Name>
ligand

>  <RI>
0

>  <Rbt.Current_Directory>
/home/itssahil/PROJECTS/Mol_Feturizer/Test_systems_manuscript/rnas/3npn

>  <Rbt.Executable>
rbdock ($Id: //depot/dev/client3/rdock/2013.1/src/exe/rbdock.cxx#4 $)

>  <Rbt.Library>
libRbt.so (2013.1, Build901 2013/11/27)

>  <Rbt.Parameter_File>
/export/apps/rDock/src/rDock_2013.1_src/data/scripts/dock_solv.prm

>  <Rbt.Receptor>
prm/pocket_docking_7.prm

>  <SCORE>
-17.0434

>  <SCORE.INTER>
-16.5189

>  <SCORE.INTER.CONST>
1

>  <SCORE.INTER.POLAR>
0

>  <SCORE.INTER.ROT>
7

>  <SCORE.INTER.SOLV>
9.82722

>  <SCORE.INTER.VDW>
-22.555

>  <SCORE.INTER.norm>
-0.635342

>  <SCORE.INTRA>
-0.524553

>  <SCORE.INTRA.DIHEDRAL>
-0.581312

>  <SCORE.INTRA.DIHEDRAL.0>
4.37896

>  <SCORE.INTRA.POLAR>
0

>  <SCORE.INTRA.POLAR.0>
0

>  <SCORE.INTRA.REPUL>
0

>  <SCORE.INTRA.REPUL.0>
0

>  <SCORE.INTRA.SOLV>
-0.163866

>  <SCORE.INTRA.SOLV.lig_0>
-50.5538

>  <SCORE.INTRA.VDW>
-0.151965

>  <SCORE.INTRA.VDW.0>
-1.30673

>  <SCORE.INTRA.norm>
-0.0201751

>  <SCORE.RESTR>
0

>  <SCORE.RESTR.CAVITY>
0

>  <SCORE.RESTR.norm>
0

>  <SCORE.SYSTEM>
0

>  <SCORE.SYSTEM.CONST>
0

>  <SCORE.SYSTEM.DIHEDRAL>
0

>  <SCORE.SYSTEM.SOLV>
0

>  <SCORE.SYSTEM.norm>
0

>  <SCORE.heavy>
26

>  <SCORE.norm>
-0.655517

>  <RMSD>
7.133

$$$$
ligand
 OpenBabel02271912153D
libRbt.so/2013.1/901 2013/11/27
 26 28  0  0  0  0  0  0  0  0999 V2000
  131.2564   63.0997   -0.9184 N   0  0  0  0  0  0  0  0  0  0  0  0
  129.8221   63.4293   -1.1703 C   0  0  2  0  0  0  0  0  0  0  0  0
  129.1154   62.2666   -1.8060 C   0  0  0  0  0  0  0  0  0  0  0  0
  127.8891   62.2396   -1.9012 O   0  0  0  0  0  0  0  0  0  0  0  0
  129.7125   64.6522   -2.0771 C   0  0  0  0  0  0  0  0  0  0  0  0
  128.3110   65.2538   -2.1142 C   0  0  0  0  0  0  0  0  0  0  0  0
  128.2951   66.6798   -3.1503 S   0  0  0  0  0  0  0  0  0  0  0  0
  126.7325   67.4043   -2.7701 C   0  0  0  0  0  0  0  0  0  0  0  0
  126.7668   68.9251   -2.9098 C   0  0  1  0  0  0  0  0  0  0  0  0
  127.8026   69.4844   -2.0992 O   0  0  0  0  0  0  0  0  0  0  0  0
  127.0581   69.3159   -4.3497 C   0  0  1  0  0  0  0  0  0  0  0  0
  126.1110   70.2936   -4.7903 O   0  0  0  0  0  0  0  0  0  0  0  0
  128.4699   69.8749   -4.3539 C   0  0  1  0  0  0  0  0  0  0  0  0
  128.5123   71.1843   -4.9318 O   0  0  0  0  0  0  0  0  0  0  0  0
  128.9050   69.9370   -2.8944 C   0  0  2  0  0  0  0  0  0  0  0  0
  129.7492   61.3054   -2.2391 O   0  0  0  0  0  0  0  0  0  0  0  0
  131.4617   66.7551    0.4675 N   0  0  0  0  0  0  0  0  0  0  0  0
  130.2948   67.4122    0.6236 C   0  0  0  0  0  0  0  0  0  0  0  0
  129.7538   68.1987   -0.3296 N   0  0  0  0  0  0  0  0  0  0  0  0
  130.3680   68.3814   -1.5297 C   0  0  0  0  0  0  0  0  0  0  0  0
  131.6485   67.6939   -1.7723 C   0  0  0  0  0  0  0  0  0  0  0  0
  132.1805   66.8438   -0.6772 C   0  0  0  0  0  0  0  0  0  0  0  0
  133.3526   66.1809   -0.8211 N   0  0  0  0  0  0  0  0  0  0  0  0
  132.0412   68.0301   -3.0129 N   0  0  0  0  0  0  0  0  0  0  0  0
  131.0992   68.8623   -3.5221 C   0  0  0  0  0  0  0  0  0  0  0  0
  130.0995   69.0773   -2.6439 N   0  0  0  0  0  0  0  0  0  0  0  0
  2  1  1  6  0  0  0
  2  3  1  0  0  0  0
  2  5  1  0  0  0  0
  3  4  1  0  0  0  0
  3 16  1  0  0  0  0
  5  6  1  0  0  0  0
  6  7  1  0  0  0  0
  7  8  1  0  0  0  0
  9  8  1  6  0  0  0
  9 10  1  0  0  0  0
  9 11  1  0  0  0  0
 10 15  1  0  0  0  0
 11 12  1  1  0  0  0
 11 13  1  0  0  0  0
 13 14  1  1  0  0  0
 13 15  1  0  0  0  0
 15 26  1  6  0  0  0
 17 18  2  0  0  0  0
 17 22  1  0  0  0  0
 18 19  1  0  0  0  0
 19 20  2  0  0  0  0
 20 21  1  0  0  0  0
 20 26  1  0  0  0  0
 21 22  2  0  0  0  0
 21 24  1  0  0  0  0
 22 23  1  0  0  0  0
 24 25  2  0  0  0  0
 25 26  1  0  0  0  0
M  END
>  <CHROM.1>
168.09960920,-166.18627670,178.52903928,-167.85305973,149.22803787,-55.69763064
-26.34453786,129.37131131,66.99677070,-2.30218172,-1.22492741,-0.48939768
-0.19059277

>  <Name>
ligand

>  <RI>
0

>  <Rbt.Current_Directory>
/home/itssahil/PROJECTS/Mol_Feturizer/Test_systems_manuscript/rnas/3npn

>  <Rbt.Executable>
rbdock ($Id: //depot/dev/client3/rdock/2013.1/src/exe/rbdock.cxx#4 $)

>  <Rbt.Library>
libRbt.so (2013.1, Build901 2013/11/27)

>  <Rbt.Parameter_File>
/export/apps/rDock/src/rDock_2013.1_src/data/scripts/dock_solv.prm

>  <Rbt.Receptor>
prm/pocket_docking_4.prm

>  <SCORE>
-21.492

>  <SCORE.INTER>
-19.2135

>  <SCORE.INTER.CONST>
1

>  <SCORE.INTER.POLAR>
0

>  <SCORE.INTER.ROT>
7

>  <SCORE.INTER.SOLV>
11.8916

>  <SCORE.INTER.VDW>
-25.0395

>  <SCORE.INTER.norm>
-0.73898

>  <SCORE.INTRA>
-2.27852

>  <SCORE.INTRA.DIHEDRAL>
0.58521

>  <SCORE.INTRA.DIHEDRAL.0>
4.37896

>  <SCORE.INTRA.POLAR>
0

>  <SCORE.INTRA.POLAR.0>
0

>  <SCORE.INTRA.REPUL>
0

>  <SCORE.INTRA.REPUL.0>
0

>  <SCORE.INTRA.SOLV>
1.60835

>  <SCORE.INTRA.SOLV.lig_0>
-50.5538

>  <SCORE.INTRA.VDW>
-3.3753

>  <SCORE.INTRA.VDW.0>
-1.30673

>  <SCORE.INTRA.norm>
-0.0876355

>  <SCORE.RESTR>
0

>  <SCORE.RESTR.CAVITY>
0

>  <SCORE.RESTR.norm>
0

>  <SCORE.SYSTEM>
0

>  <SCORE.SYSTEM.CONST>
0

>  <SCORE.SYSTEM.DIHEDRAL>
0

>  <SCORE.SYSTEM.SOLV>
0

>  <SCORE.SYSTEM.norm>
0

>  <SCORE.heavy>
26

>  <SCORE.norm>
-0.826615

>  <RMSD>
7.166

$$$$
ligand
 OpenBabel02271912153D
libRbt.so/2013.1/901 2013/11/27
 26 28  0  0  0  0  0  0  0  0999 V2000
  131.1977   62.7667   -1.0180 N   0  0  0  0  0  0  0  0  0  0  0  0
  130.7955   64.0332   -1.6987 C   0  0  2  0  0  0  0  0  0  0  0  0
  131.9735   64.6626   -2.3852 C   0  0  0  0  0  0  0  0  0  0  0  0
  133.1036   64.1885   -2.2769 O   0  0  0  0  0  0  0  0  0  0  0  0
  130.2095   65.0139   -0.6865 C   0  0  0  0  0  0  0  0  0  0  0  0
  129.5151   66.2082   -1.3337 C   0  0  0  0  0  0  0  0  0  0  0  0
  128.0344   65.6832   -2.1334 S   0  0  0  0  0  0  0  0  0  0  0  0
  127.8975   66.8322   -3.4646 C   0  0  0  0  0  0  0  0  0  0  0  0
  127.6404   68.2513   -2.9609 C   0  0  1  0  0  0  0  0  0  0  0  0
  128.8320   68.8163   -2.4102 O   0  0  0  0  0  0  0  0  0  0  0  0
  127.2032   69.1470   -4.1087 C   0  0  1  0  0  0  0  0  0  0  0  0
  126.0255   69.8711   -3.7402 O   0  0  0  0  0  0  0  0  0  0  0  0
  128.3672   70.0856   -4.3735 C   0  0  1  0  0  0  0  0  0  0  0  0
  127.9547   71.4560   -4.3284 O   0  0  0  0  0  0  0  0  0  0  0  0
  129.3883   69.8140   -3.2749 C   0  0  2  0  0  0  0  0  0  0  0  0
  131.8364   65.6775   -3.0668 O   0  0  0  0  0  0  0  0  0  0  0  0
  131.9188   66.0634   -6.0123 N   0  0  0  0  0  0  0  0  0  0  0  0
  130.6177   66.1482   -5.6692 C   0  0  0  0  0  0  0  0  0  0  0  0
  130.1034   67.1746   -4.9609 N   0  0  0  0  0  0  0  0  0  0  0  0
  130.8841   68.2059   -4.5394 C   0  0  0  0  0  0  0  0  0  0  0  0
  132.3181   68.1816   -4.8776 C   0  0  0  0  0  0  0  0  0  0  0  0
  132.8109   67.0205   -5.6612 C   0  0  0  0  0  0  0  0  0  0  0  0
  134.1160   66.9228   -6.0096 N   0  0  0  0  0  0  0  0  0  0  0  0
  132.8591   69.2966   -4.3576 N   0  0  0  0  0  0  0  0  0  0  0  0
  131.8629   69.9763   -3.7372 C   0  0  0  0  0  0  0  0  0  0  0  0
  130.6832   69.3322   -3.8403 N   0  0  0  0  0  0  0  0  0  0  0  0
  2  1  1  1  0  0  0
  2  3  1  0  0  0  0
  2  5  1  0  0  0  0
  3  4  1  0  0  0  0
  3 16  1  0  0  0  0
  5  6  1  0  0  0  0
  6  7  1  0  0  0  0
  7  8  1  0  0  0  0
  9  8  1  6  0  0  0
  9 10  1  0  0  0  0
  9 11  1  0  0  0  0
 10 15  1  0  0  0  0
 11 12  1  1  0  0  0
 11 13  1  0  0  0  0
 13 14  1  1  0  0  0
 13 15  1  0  0  0  0
 15 26  1  6  0  0  0
 17 18  2  0  0  0  0
 17 22  1  0  0  0  0
 18 19  1  0  0  0  0
 19 20  2  0  0  0  0
 20 21  1  0  0  0  0
 20 26  1  0  0  0  0
 21 22  2  0  0  0  0
 21 24  1  0  0  0  0
 22 23  1  0  0  0  0
 24 25  2  0  0  0  0
 25 26  1  0  0  0  0
M  END
>  <CHROM.1>
-4.58314971,-168.12542710,69.29161290,-149.67209076,-66.37999457,74.74203054
56.46737393,130.15921690,67.26427547,-3.46860488,0.87237114,-0.41285387,2.59191659

>  <Name>
ligand

>  <RI>
0

>  <Rbt.Current_Directory>
/home/itssahil/PROJECTS/Mol_Feturizer/Test_systems_manuscript/rnas/3npn

>  <Rbt.Executable>
rbdock ($Id: //depot/dev/client3/rdock/2013.1/src/exe/rbdock.cxx#4 $)

>  <Rbt.Library>
libRbt.so (2013.1, Build901 2013/11/27)

>  <Rbt.Parameter_File>
/export/apps/rDock/src/rDock_2013.1_src/data/scripts/dock_solv.prm

>  <Rbt.Receptor>
prm/pocket_docking_6.prm

>  <SCORE>
-16.4499

>  <SCORE.INTER>
-14.6148

>  <SCORE.INTER.CONST>
1

>  <SCORE.INTER.POLAR>
0

>  <SCORE.INTER.ROT>
7

>  <SCORE.INTER.SOLV>
14.9081

>  <SCORE.INTER.VDW>
-22.9792

>  <SCORE.INTER.norm>
-0.562109

>  <SCORE.INTRA>
-1.83506

>  <SCORE.INTRA.DIHEDRAL>
1.16619

>  <SCORE.INTRA.DIHEDRAL.0>
4.37896

>  <SCORE.INTRA.POLAR>
0

>  <SCORE.INTRA.POLAR.0>
0

>  <SCORE.INTRA.REPUL>
0

>  <SCORE.INTRA.REPUL.0>
0

>  <SCORE.INTRA.SOLV>
-0.451587

>  <SCORE.INTRA.SOLV.lig_0>
-50.5538

>  <SCORE.INTRA.VDW>
-2.19236

>  <SCORE.INTRA.VDW.0>
-1.30673

>  <SCORE.INTRA.norm>
-0.0705791

>  <SCORE.RESTR>
0

>  <SCORE.RESTR.CAVITY>
0

>  <SCORE.RESTR.norm>
0

>  <SCORE.SYSTEM>
0

>  <SCORE.SYSTEM.CONST>
0

>  <SCORE.SYSTEM.DIHEDRAL>
0

>  <SCORE.SYSTEM.SOLV>
0

>  <SCORE.SYSTEM.norm>
0

>  <SCORE.heavy>
26

>  <SCORE.norm>
-0.632688

>  <RMSD>
7.300

$$$$
ligand
 OpenBabel02271912153D
libRbt.so/2013.1/901 2013/11/27
 26 28  0  0  0  0  0  0  0  0999 V2000
  131.3971   62.9470   -0.6332 N   0  0  0  0  0  0  0  0  0  0  0  0
  130.0046   63.2673   -1.0665 C   0  0  2  0  0  0  0  0  0  0  0  0
  129.3471   62.0599   -1.6706 C   0  0  0  0  0  0  0  0  0  0  0  0
  128.1223   61.9699   -1.7442 O   0  0  0  0  0  0  0  0  0  0  0  0
  130.0164   64.4057   -2.0832 C   0  0  0  0  0  0  0  0  0  0  0  0
  128.6226   64.9158   -2.4361 C   0  0  0  0  0  0  0  0  0  0  0  0
  128.2954   66.4186   -1.5749 S   0  0  0  0  0  0  0  0  0  0  0  0
  127.3542   67.3316   -2.7547 C   0  0  0  0  0  0  0  0  0  0  0  0
  127.3879   68.8311   -2.4646 C   0  0  1  0  0  0  0  0  0  0  0  0
  128.7048   69.2454   -2.0953 O   0  0  0  0  0  0  0  0  0  0  0  0
  126.9975   69.6170   -3.7059 C   0  0  1  0  0  0  0  0  0  0  0  0
  125.9986   70.5864   -3.3746 O   0  0  0  0  0  0  0  0  0  0  0  0
  128.2707   70.2831   -4.1968 C   0  0  1  0  0  0  0  0  0  0  0  0
  128.0994   71.6975   -4.3399 O   0  0  0  0  0  0  0  0  0  0  0  0
  129.3336   69.9925   -3.1437 C   0  0  2  0  0  0  0  0  0  0  0  0
  130.0213   61.1242   -2.0986 O   0  0  0  0  0  0  0  0  0  0  0  0
  130.8752   65.6413   -5.7234 N   0  0  0  0  0  0  0  0  0  0  0  0
  129.6386   66.0272   -5.3497 C   0  0  0  0  0  0  0  0  0  0  0  0
  129.3888   67.1768   -4.6894 N   0  0  0  0  0  0  0  0  0  0  0  0
  130.3915   68.0320   -4.3519 C   0  0  0  0  0  0  0  0  0  0  0  0
  131.7711   67.6761   -4.7281 C   0  0  0  0  0  0  0  0  0  0  0  0
  131.9675   66.3961   -5.4548 C   0  0  0  0  0  0  0  0  0  0  0  0
  133.2049   65.9965   -5.8333 N   0  0  0  0  0  0  0  0  0  0  0  0
  132.5622   68.6705   -4.2906 N   0  0  0  0  0  0  0  0  0  0  0  0
  131.7635   69.5835   -3.6839 C   0  0  0  0  0  0  0  0  0  0  0  0
  130.4688   69.2096   -3.7156 N   0  0  0  0  0  0  0  0  0  0  0  0
  2  1  1  6  0  0  0
  2  3  1  0  0  0  0
  2  5  1  0  0  0  0
  3  4  1  0  0  0  0
  3 16  1  0  0  0  0
  5  6  1  0  0  0  0
  6  7  1  0  0  0  0
  7  8  1  0  0  0  0
  9  8  1  6  0  0  0
  9 10  1  0  0  0  0
  9 11  1  0  0  0  0
 10 15  1  0  0  0  0
 11 12  1  1  0  0  0
 11 13  1  0  0  0  0
 13 14  1  1  0  0  0
 13 15  1  0  0  0  0
 15 26  1  6  0  0  0
 17 18  2  0  0  0  0
 17 22  1  0  0  0  0
 18 19  1  0  0  0  0
 19 20  2  0  0  0  0
 20 21  1  0  0  0  0
 20 26  1  0  0  0  0
 21 22  2  0  0  0  0
 21 24  1  0  0  0  0
 22 23  1  0  0  0  0
 24 25  2  0  0  0  0
 25 26  1  0  0  0  0
M  END
>  <CHROM.1>
159.06641707,-172.36898236,101.60580418,143.95283578,-158.83848647,42.06533124
63.17677559,129.49188286,66.85510976,-3.23027951,-1.37899491,0.53023653,-0.34559002

>  <Name>
ligand

>  <RI>
0

>  <Rbt.Current_Directory>
/home/itssahil/PROJECTS/Mol_Feturizer/Test_systems_manuscript/rnas/3npn

>  <Rbt.Executable>
rbdock ($Id: //depot/dev/client3/rdock/2013.1/src/exe/rbdock.cxx#4 $)

>  <Rbt.Library>
libRbt.so (2013.1, Build901 2013/11/27)

>  <Rbt.Parameter_File>
/export/apps/rDock/src/rDock_2013.1_src/data/scripts/dock_solv.prm

>  <Rbt.Receptor>
prm/pocket_docking_5.prm

>  <SCORE>
-22.1227

>  <SCORE.INTER>
-22.5485

>  <SCORE.INTER.CONST>
1

>  <SCORE.INTER.POLAR>
0

>  <SCORE.INTER.ROT>
7

>  <SCORE.INTER.SOLV>
18.5904

>  <SCORE.INTER.VDW>
-29.4958

>  <SCORE.INTER.norm>
-0.867251

>  <SCORE.INTRA>
0.367596

>  <SCORE.INTRA.DIHEDRAL>
6.16734

>  <SCORE.INTRA.DIHEDRAL.0>
4.37896

>  <SCORE.INTRA.POLAR>
0

>  <SCORE.INTRA.POLAR.0>
0

>  <SCORE.INTRA.REPUL>
0

>  <SCORE.INTRA.REPUL.0>
0

>  <SCORE.INTRA.SOLV>
-0.726745

>  <SCORE.INTRA.SOLV.lig_0>
-50.5538

>  <SCORE.INTRA.VDW>
-2.3527

>  <SCORE.INTRA.VDW.0>
-1.30673

>  <SCORE.INTRA.norm>
0.0141383

>  <SCORE.RESTR>
0.0581804

>  <SCORE.RESTR.CAVITY>
0.0581804

>  <SCORE.RESTR.norm>
0.00223771

>  <SCORE.SYSTEM>
0

>  <SCORE.SYSTEM.CONST>
0

>  <SCORE.SYSTEM.DIHEDRAL>
0

>  <SCORE.SYSTEM.SOLV>
0

>  <SCORE.SYSTEM.norm>
0

>  <SCORE.heavy>
26

>  <SCORE.norm>
-0.850875

>  <RMSD>
7.357

$$$$
ligand
 OpenBabel02271912153D
libRbt.so/2013.1/901 2013/11/27
 26 28  0  0  0  0  0  0  0  0999 V2000
  131.1626   63.4656   -0.9911 N   0  0  0  0  0  0  0  0  0  0  0  0
  129.7178   63.7391   -1.2502 C   0  0  2  0  0  0  0  0  0  0  0  0
  129.0346   62.5136   -1.7855 C   0  0  0  0  0  0  0  0  0  0  0  0
  127.8076   62.4298   -1.8182 O   0  0  0  0  0  0  0  0  0  0  0  0
  129.5676   64.8850   -2.2473 C   0  0  0  0  0  0  0  0  0  0  0  0
  128.1579   65.4665   -2.2924 C   0  0  0  0  0  0  0  0  0  0  0  0
  128.1008   66.8202   -3.4201 S   0  0  0  0  0  0  0  0  0  0  0  0
  126.5322   67.5430   -3.0618 C   0  0  0  0  0  0  0  0  0  0  0  0
  126.5739   69.0659   -3.1742 C   0  0  1  0  0  0  0  0  0  0  0  0
  127.5144   69.6159   -2.2493 O   0  0  0  0  0  0  0  0  0  0  0  0
  127.0155   69.4798   -4.5686 C   0  0  1  0  0  0  0  0  0  0  0  0
  126.1162   70.4611   -5.0934 O   0  0  0  0  0  0  0  0  0  0  0  0
  128.4170   70.0433   -4.4136 C   0  0  1  0  0  0  0  0  0  0  0  0
  128.5146   71.3615   -4.9640 O   0  0  0  0  0  0  0  0  0  0  0  0
  128.6933   70.0843   -2.9152 C   0  0  2  0  0  0  0  0  0  0  0  0
  129.6895   61.5568   -2.1963 O   0  0  0  0  0  0  0  0  0  0  0  0
  133.0924   67.6424   -4.5430 N   0  0  0  0  0  0  0  0  0  0  0  0
  132.2174   68.3944   -5.2406 C   0  0  0  0  0  0  0  0  0  0  0  0
  131.1251   68.9632   -4.6900 N   0  0  0  0  0  0  0  0  0  0  0  0
  130.8338   68.8061   -3.3704 C   0  0  0  0  0  0  0  0  0  0  0  0
  131.7461   67.9962   -2.5440 C   0  0  0  0  0  0  0  0  0  0  0  0
  132.9284   67.4040   -3.2197 C   0  0  0  0  0  0  0  0  0  0  0  0
  133.8129   66.6447   -2.5302 N   0  0  0  0  0  0  0  0  0  0  0  0
  131.2459   67.9983   -1.2966 N   0  0  0  0  0  0  0  0  0  0  0  0
  130.1111   68.7406   -1.3188 C   0  0  0  0  0  0  0  0  0  0  0  0
  129.8583   69.2246   -2.5513 N   0  0  0  0  0  0  0  0  0  0  0  0
  2  1  1  6  0  0  0
  2  3  1  0  0  0  0
  2  5  1  0  0  0  0
  3  4  1  0  0  0  0
  3 16  1  0  0  0  0
  5  6  1  0  0  0  0
  6  7  1  0  0  0  0
  7  8  1  0  0  0  0
  9  8  1  6  0  0  0
  9 10  1  0  0  0  0
  9 11  1  0  0  0  0
 10 15  1  0  0  0  0
 11 12  1  1  0  0  0
 11 13  1  0  0  0  0
 13 14  1  1  0  0  0
 13 15  1  0  0  0  0
 15 26  1  6  0  0  0
 17 18  2  0  0  0  0
 17 22  1  0  0  0  0
 18 19  1  0  0  0  0
 19 20  2  0  0  0  0
 20 21  1  0  0  0  0
 20 26  1  0  0  0  0
 21 22  2  0  0  0  0
 21 24  1  0  0  0  0
 22 23  1  0  0  0  0
 24 25  2  0  0  0  0
 25 26  1  0  0  0  0
M  END
>  <CHROM.1>
165.42730877,-164.97718376,177.73200778,-168.25681196,143.82961866,-60.59150257
139.97220202,129.45342666,67.27552053,-3.01694143,-1.34957078,-0.01138950
-0.32185693

>  <Name>
ligand

>  <RI>
0

>  <Rbt.Current_Directory>
/home/itssahil/PROJECTS/Mol_Feturizer/Test_systems_manuscript/rnas/3npn

>  <Rbt.Executable>
rbdock ($Id: //depot/dev/client3/rdock/2013.1/src/exe/rbdock.cxx#4 $)

>  <Rbt.Library>
libRbt.so (2013.1, Build901 2013/11/27)

>  <Rbt.Parameter_File>
/export/apps/rDock/src/rDock_2013.1_src/data/scripts/dock_solv.prm

>  <Rbt.Receptor>
prm/pocket_docking_6.prm

>  <SCORE>
-21.9913

>  <SCORE.INTER>
-19.794

>  <SCORE.INTER.CONST>
1

>  <SCORE.INTER.POLAR>
0

>  <SCORE.INTER.ROT>
7

>  <SCORE.INTER.SOLV>
12.1676

>  <SCORE.INTER.VDW>
-25.5186

>  <SCORE.INTER.norm>
-0.761309

>  <SCORE.INTRA>
-2.19727

>  <SCORE.INTRA.DIHEDRAL>
0.946041

>  <SCORE.INTRA.DIHEDRAL.0>
4.37896

>  <SCORE.INTRA.POLAR>
0

>  <SCORE.INTRA.POLAR.0>
0

>  <SCORE.INTRA.REPUL>
0

>  <SCORE.INTRA.REPUL.0>
0

>  <SCORE.INTRA.SOLV>
-0.332305

>  <SCORE.INTRA.SOLV.lig_0>
-50.5538

>  <SCORE.INTRA.VDW>
-2.50414

>  <SCORE.INTRA.VDW.0>
-1.30673

>  <SCORE.INTRA.norm>
-0.0845104

>  <SCORE.RESTR>
0

>  <SCORE.RESTR.CAVITY>
0

>  <SCORE.RESTR.norm>
0

>  <SCORE.SYSTEM>
0

>  <SCORE.SYSTEM.CONST>
0

>  <SCORE.SYSTEM.DIHEDRAL>
0

>  <SCORE.SYSTEM.SOLV>
0

>  <SCORE.SYSTEM.norm>
0

>  <SCORE.heavy>
26

>  <SCORE.norm>
-0.84582

>  <RMSD>
7.388

$$$$
ligand
 OpenBabel02271912153D
libRbt.so/2013.1/901 2013/11/27
 26 28  0  0  0  0  0  0  0  0999 V2000
  133.6592   60.4787   -0.3325 N   0  0  0  0  0  0  0  0  0  0  0  0
  132.9816   61.3602   -1.3290 C   0  0  2  0  0  0  0  0  0  0  0  0
  133.9544   62.3429   -1.9146 C   0  0  0  0  0  0  0  0  0  0  0  0
  134.8608   62.8250   -1.2367 O   0  0  0  0  0  0  0  0  0  0  0  0
  131.8283   62.1127   -0.6706 C   0  0  0  0  0  0  0  0  0  0  0  0
  130.8904   62.7788   -1.6727 C   0  0  0  0  0  0  0  0  0  0  0  0
  129.7921   63.8731   -0.8341 S   0  0  0  0  0  0  0  0  0  0  0  0
  128.8670   64.5707   -2.1641 C   0  0  0  0  0  0  0  0  0  0  0  0
  128.2419   65.9092   -1.7754 C   0  0  1  0  0  0  0  0  0  0  0  0
  129.2495   66.8422   -1.3794 O   0  0  0  0  0  0  0  0  0  0  0  0
  127.5077   66.5126   -2.9619 C   0  0  1  0  0  0  0  0  0  0  0  0
  126.1931   66.9166   -2.5672 O   0  0  0  0  0  0  0  0  0  0  0  0
  128.3395   67.7022   -3.4076 C   0  0  1  0  0  0  0  0  0  0  0  0
  127.5557   68.8995   -3.4568 O   0  0  0  0  0  0  0  0  0  0  0  0
  129.4516   67.8514   -2.3760 C   0  0  2  0  0  0  0  0  0  0  0  0
  133.8607   62.6977   -3.0888 O   0  0  0  0  0  0  0  0  0  0  0  0
  134.2297   65.6025   -2.1017 N   0  0  0  0  0  0  0  0  0  0  0  0
  133.1800   65.4977   -1.2621 C   0  0  0  0  0  0  0  0  0  0  0  0
  132.0074   66.1349   -1.4585 N   0  0  0  0  0  0  0  0  0  0  0  0
  131.8110   66.9404   -2.5370 C   0  0  0  0  0  0  0  0  0  0  0  0
  132.9151   67.1033   -3.4991 C   0  0  0  0  0  0  0  0  0  0  0  0
  134.1746   66.3690   -3.2172 C   0  0  0  0  0  0  0  0  0  0  0  0
  135.2367   66.4683   -4.0516 N   0  0  0  0  0  0  0  0  0  0  0  0
  132.4740   67.9324   -4.4605 N   0  0  0  0  0  0  0  0  0  0  0  0
  131.2006   68.2753   -4.1437 C   0  0  0  0  0  0  0  0  0  0  0  0
  130.7987   67.6889   -2.9984 N   0  0  0  0  0  0  0  0  0  0  0  0
  2  1  1  1  0  0  0
  2  3  1  0  0  0  0
  2  5  1  0  0  0  0
  3  4  1  0  0  0  0
  3 16  1  0  0  0  0
  5  6  1  0  0  0  0
  6  7  1  0  0  0  0
  7  8  1  0  0  0  0
  9  8  1  6  0  0  0
  9 10  1  0  0  0  0
  9 11  1  0  0  0  0
 10 15  1  0  0  0  0
 11 12  1  1  0  0  0
 11 13  1  0  0  0  0
 13 14  1  1  0  0  0
 13 15  1  0  0  0  0
 15 26  1  6  0  0  0
 17 18  2  0  0  0  0
 17 22  1  0  0  0  0
 18 19  1  0  0  0  0
 19 20  2  0  0  0  0
 20 21  1  0  0  0  0
 20 26  1  0  0  0  0
 21 22  2  0  0  0  0
 21 24  1  0  0  0  0
 22 23  1  0  0  0  0
 24 25  2  0  0  0  0
 25 26  1  0  0  0  0
M  END
>  <CHROM.1>
-35.19378864,-166.62328112,-168.88389971,177.66500147,-157.89616466,58.72017986
-14.23999985,131.23258782,65.35235701,-2.25586196,0.73468184,-0.16243680
2.70595610

>  <Name>
ligand

>  <RI>
0

>  <Rbt.Current_Directory>
/home/itssahil/PROJECTS/Mol_Feturizer/Test_systems_manuscript/rnas/3npn

>  <Rbt.Executable>
rbdock ($Id: //depot/dev/client3/rdock/2013.1/src/exe/rbdock.cxx#4 $)

>  <Rbt.Library>
libRbt.so (2013.1, Build901 2013/11/27)

>  <Rbt.Parameter_File>
/export/apps/rDock/src/rDock_2013.1_src/data/scripts/dock_solv.prm

>  <Rbt.Receptor>
prm/pocket_docking_4.prm

>  <SCORE>
-11.9839

>  <SCORE.INTER>
-8.27731

>  <SCORE.INTER.CONST>
1

>  <SCORE.INTER.POLAR>
0

>  <SCORE.INTER.ROT>
7

>  <SCORE.INTER.SOLV>
8.39806

>  <SCORE.INTER.VDW>
-16.5842

>  <SCORE.INTER.norm>
-0.318358

>  <SCORE.INTRA>
-3.70658

>  <SCORE.INTRA.DIHEDRAL>
0.131894

>  <SCORE.INTRA.DIHEDRAL.0>
4.37896

>  <SCORE.INTRA.POLAR>
0

>  <SCORE.INTRA.POLAR.0>
0

>  <SCORE.INTRA.REPUL>
0

>  <SCORE.INTRA.REPUL.0>
0

>  <SCORE.INTRA.SOLV>
-0.796205

>  <SCORE.INTRA.SOLV.lig_0>
-50.5538

>  <SCORE.INTRA.VDW>
-3.37443

>  <SCORE.INTRA.VDW.0>
-1.30673

>  <SCORE.INTRA.norm>
-0.142561

>  <SCORE.RESTR>
0

>  <SCORE.RESTR.CAVITY>
0

>  <SCORE.RESTR.norm>
0

>  <SCORE.SYSTEM>
0

>  <SCORE.SYSTEM.CONST>
0

>  <SCORE.SYSTEM.DIHEDRAL>
0

>  <SCORE.SYSTEM.SOLV>
0

>  <SCORE.SYSTEM.norm>
0

>  <SCORE.heavy>
26

>  <SCORE.norm>
-0.460919

>  <RMSD>
7.413

$$$$
ligand
 OpenBabel02271912153D
libRbt.so/2013.1/901 2013/11/27
 26 28  0  0  0  0  0  0  0  0999 V2000
  128.3336   62.8367   -1.8614 N   0  0  0  0  0  0  0  0  0  0  0  0
  128.9808   64.1006   -2.3231 C   0  0  2  0  0  0  0  0  0  0  0  0
  130.2618   64.3424   -1.5777 C   0  0  0  0  0  0  0  0  0  0  0  0
  131.2939   64.6583   -2.1682 O   0  0  0  0  0  0  0  0  0  0  0  0
  128.0378   65.2829   -2.1164 C   0  0  0  0  0  0  0  0  0  0  0  0
  128.5823   66.5950   -2.6726 C   0  0  0  0  0  0  0  0  0  0  0  0
  128.0212   67.9453   -1.6881 S   0  0  0  0  0  0  0  0  0  0  0  0
  126.5027   68.3790   -2.4739 C   0  0  0  0  0  0  0  0  0  0  0  0
  126.5438   69.7989   -3.0359 C   0  0  1  0  0  0  0  0  0  0  0  0
  127.4149   70.6250   -2.2604 O   0  0  0  0  0  0  0  0  0  0  0  0
  127.0788   69.7875   -4.4587 C   0  0  1  0  0  0  0  0  0  0  0  0
  126.2126   70.5428   -5.3110 O   0  0  0  0  0  0  0  0  0  0  0  0
  128.4630   70.4079   -4.3901 C   0  0  1  0  0  0  0  0  0  0  0  0
  128.5913   71.5029   -5.3038 O   0  0  0  0  0  0  0  0  0  0  0  0
  128.6345   70.9030   -2.9588 C   0  0  2  0  0  0  0  0  0  0  0  0
  130.3111   64.2198   -0.3547 O   0  0  0  0  0  0  0  0  0  0  0  0
  132.4058   67.2065   -3.2374 N   0  0  0  0  0  0  0  0  0  0  0  0
  131.4715   67.5526   -4.1457 C   0  0  0  0  0  0  0  0  0  0  0  0
  130.5615   68.5267   -3.9388 N   0  0  0  0  0  0  0  0  0  0  0  0
  130.5301   69.2310   -2.7752 C   0  0  0  0  0  0  0  0  0  0  0  0
  131.5221   68.9078   -1.7347 C   0  0  0  0  0  0  0  0  0  0  0  0
  132.4929   67.8252   -2.0354 C   0  0  0  0  0  0  0  0  0  0  0  0
  133.4343   67.4668   -1.1302 N   0  0  0  0  0  0  0  0  0  0  0  0
  131.2849   69.7340   -0.7015 N   0  0  0  0  0  0  0  0  0  0  0  0
  130.2321   70.5168   -1.0451 C   0  0  0  0  0  0  0  0  0  0  0  0
  129.7761   70.2224   -2.2790 N   0  0  0  0  0  0  0  0  0  0  0  0
  2  1  1  1  0  0  0
  2  3  1  0  0  0  0
  2  5  1  0  0  0  0
  3  4  1  0  0  0  0
  3 16  1  0  0  0  0
  5  6  1  0  0  0  0
  6  7  1  0  0  0  0
  7  8  1  0  0  0  0
  9  8  1  1  0  0  0
  9 10  1  0  0  0  0
  9 11  1  0  0  0  0
 10 15  1  0  0  0  0
 11 12  1  6  0  0  0
 11 13  1  0  0  0  0
 13 14  1  6  0  0  0
 13 15  1  0  0  0  0
 15 26  1  1  0  0  0
 17 18  2  0  0  0  0
 17 22  1  0  0  0  0
 18 19  1  0  0  0  0
 19 20  2  0  0  0  0
 20 21  1  0  0  0  0
 20 26  1  0  0  0  0
 21 22  2  0  0  0  0
 21 24  1  0  0  0  0
 22 23  1  0  0  0  0
 24 25  2  0  0  0  0
 25 26  1  0  0  0  0
M  END
>  <CHROM.1>
133.07839386,-175.14631701,-147.80676511,-89.60692149,-117.49003210,-29.69347243
114.45308635,129.37810672,68.03196038,-2.58414644,1.14082039,0.23418123,2.89181152

>  <Name>
ligand

>  <RI>
0

>  <Rbt.Current_Directory>
/home/itssahil/PROJECTS/Mol_Feturizer/Test_systems_manuscript/rnas/3npn

>  <Rbt.Executable>
rbdock ($Id: //depot/dev/client3/rdock/2013.1/src/exe/rbdock.cxx#4 $)

>  <Rbt.Library>
libRbt.so (2013.1, Build901 2013/11/27)

>  <Rbt.Parameter_File>
/export/apps/rDock/src/rDock_2013.1_src/data/scripts/dock_solv.prm

>  <Rbt.Receptor>
prm/pocket_docking_4.prm

>  <SCORE>
-13.1586

>  <SCORE.INTER>
-14.2189

>  <SCORE.INTER.CONST>
1

>  <SCORE.INTER.POLAR>
0

>  <SCORE.INTER.ROT>
7

>  <SCORE.INTER.SOLV>
18.3963

>  <SCORE.INTER.VDW>
-23.878

>  <SCORE.INTER.norm>
-0.54688

>  <SCORE.INTRA>
1.06024

>  <SCORE.INTRA.DIHEDRAL>
7.71178

>  <SCORE.INTRA.DIHEDRAL.0>
4.37896

>  <SCORE.INTRA.POLAR>
0

>  <SCORE.INTRA.POLAR.0>
0

>  <SCORE.INTRA.REPUL>
0

>  <SCORE.INTRA.REPUL.0>
0

>  <SCORE.INTRA.SOLV>
-0.135576

>  <SCORE.INTRA.SOLV.lig_0>
-50.5538

>  <SCORE.INTRA.VDW>
-2.72786

>  <SCORE.INTRA.VDW.0>
-1.30673

>  <SCORE.INTRA.norm>
0.0407784

>  <SCORE.RESTR>
0

>  <SCORE.RESTR.CAVITY>
0

>  <SCORE.RESTR.norm>
0

>  <SCORE.SYSTEM>
0

>  <SCORE.SYSTEM.CONST>
0

>  <SCORE.SYSTEM.DIHEDRAL>
0

>  <SCORE.SYSTEM.SOLV>
0

>  <SCORE.SYSTEM.norm>
0

>  <SCORE.heavy>
26

>  <SCORE.norm>
-0.506102

>  <RMSD>
7.435

$$$$
ligand
 OpenBabel02271912153D
libRbt.so/2013.1/901 2013/11/27
 26 28  0  0  0  0  0  0  0  0999 V2000
  133.1910   60.8143   -2.2028 N   0  0  0  0  0  0  0  0  0  0  0  0
  133.3993   61.6858   -1.0085 C   0  0  2  0  0  0  0  0  0  0  0  0
  134.1292   60.9393    0.0709 C   0  0  0  0  0  0  0  0  0  0  0  0
  134.8813   61.5203    0.8521 O   0  0  0  0  0  0  0  0  0  0  0  0
  132.0573   62.1774   -0.4727 C   0  0  0  0  0  0  0  0  0  0  0  0
  131.2804   63.0262   -1.4745 C   0  0  0  0  0  0  0  0  0  0  0  0
  129.7072   63.4571   -0.8063 S   0  0  0  0  0  0  0  0  0  0  0  0
  128.8766   64.1364   -2.2062 C   0  0  0  0  0  0  0  0  0  0  0  0
  128.7017   65.6487   -2.0795 C   0  0  1  0  0  0  0  0  0  0  0  0
  129.9646   66.3126   -2.1623 O   0  0  0  0  0  0  0  0  0  0  0  0
  127.8377   66.1764   -3.2134 C   0  0  1  0  0  0  0  0  0  0  0  0
  126.8042   67.0153   -2.6887 O   0  0  0  0  0  0  0  0  0  0  0  0
  128.7713   66.9551   -4.1231 C   0  0  1  0  0  0  0  0  0  0  0  0
  128.2992   68.2897   -4.3383 O   0  0  0  0  0  0  0  0  0  0  0  0
  130.1208   66.9894   -3.4154 C   0  0  2  0  0  0  0  0  0  0  0  0
  133.9987   59.7222    0.1929 O   0  0  0  0  0  0  0  0  0  0  0  0
  134.6826   64.3147   -3.4259 N   0  0  0  0  0  0  0  0  0  0  0  0
  133.9728   64.8010   -2.3879 C   0  0  0  0  0  0  0  0  0  0  0  0
  132.8113   65.4715   -2.5336 N   0  0  0  0  0  0  0  0  0  0  0  0
  132.2771   65.7040   -3.7629 C   0  0  0  0  0  0  0  0  0  0  0  0
  132.9980   65.2013   -4.9456 C   0  0  0  0  0  0  0  0  0  0  0  0
  134.2686   64.4710   -4.7062 C   0  0  0  0  0  0  0  0  0  0  0  0
  134.9917   63.9801   -5.7407 N   0  0  0  0  0  0  0  0  0  0  0  0
  132.2727   65.5523   -6.0212 N   0  0  0  0  0  0  0  0  0  0  0  0
  131.1838   66.2239   -5.5712 C   0  0  0  0  0  0  0  0  0  0  0  0
  131.1797   66.3192   -4.2266 N   0  0  0  0  0  0  0  0  0  0  0  0
  2  1  1  6  0  0  0
  2  3  1  0  0  0  0
  2  5  1  0  0  0  0
  3  4  1  0  0  0  0
  3 16  1  0  0  0  0
  5  6  1  0  0  0  0
  6  7  1  0  0  0  0
  7  8  1  0  0  0  0
  9  8  1  6  0  0  0
  9 10  1  0  0  0  0
  9 11  1  0  0  0  0
 10 15  1  0  0  0  0
 11 12  1  1  0  0  0
 11 13  1  0  0  0  0
 13 14  1  1  0  0  0
 13 15  1  0  0  0  0
 15 26  1  6  0  0  0
 17 18  2  0  0  0  0
 17 22  1  0  0  0  0
 18 19  1  0  0  0  0
 19 20  2  0  0  0  0
 20 21  1  0  0  0  0
 20 26  1  0  0  0  0
 21 22  2  0  0  0  0
 21 24  1  0  0  0  0
 22 23  1  0  0  0  0
 24 25  2  0  0  0  0
 25 26  1  0  0  0  0
M  END
>  <CHROM.1>
149.03112165,-61.67012497,176.34822838,-169.32003580,-109.07864150,68.26067201
-32.69223460,131.50187245,64.43313498,-2.63425220,0.80985749,-0.39497312
2.29301363

>  <Name>
ligand

>  <RI>
0

>  <Rbt.Current_Directory>
/home/itssahil/PROJECTS/Mol_Feturizer/Test_systems_manuscript/rnas/3npn

>  <Rbt.Executable>
rbdock ($Id: //depot/dev/client3/rdock/2013.1/src/exe/rbdock.cxx#4 $)

>  <Rbt.Library>
libRbt.so (2013.1, Build901 2013/11/27)

>  <Rbt.Parameter_File>
/export/apps/rDock/src/rDock_2013.1_src/data/scripts/dock_solv.prm

>  <Rbt.Receptor>
prm/pocket_docking_7.prm

>  <SCORE>
-14.4095

>  <SCORE.INTER>
-12.4877

>  <SCORE.INTER.CONST>
1

>  <SCORE.INTER.POLAR>
0

>  <SCORE.INTER.ROT>
7

>  <SCORE.INTER.SOLV>
14.3612

>  <SCORE.INTER.VDW>
-21.3789

>  <SCORE.INTER.norm>
-0.480296

>  <SCORE.INTRA>
-1.92183

>  <SCORE.INTRA.DIHEDRAL>
1.01471

>  <SCORE.INTRA.DIHEDRAL.0>
4.37896

>  <SCORE.INTRA.POLAR>
0

>  <SCORE.INTRA.POLAR.0>
0

>  <SCORE.INTRA.REPUL>
0

>  <SCORE.INTRA.REPUL.0>
0

>  <SCORE.INTRA.SOLV>
-0.119129

>  <SCORE.INTRA.SOLV.lig_0>
-50.5538

>  <SCORE.INTRA.VDW>
-2.36962

>  <SCORE.INTRA.VDW.0>
-1.30673

>  <SCORE.INTRA.norm>
-0.0739164

>  <SCORE.RESTR>
0

>  <SCORE.RESTR.CAVITY>
0

>  <SCORE.RESTR.norm>
0

>  <SCORE.SYSTEM>
0

>  <SCORE.SYSTEM.CONST>
0

>  <SCORE.SYSTEM.DIHEDRAL>
0

>  <SCORE.SYSTEM.SOLV>
0

>  <SCORE.SYSTEM.norm>
0

>  <SCORE.heavy>
26

>  <SCORE.norm>
-0.554213

>  <RMSD>
7.452

$$$$
ligand
 OpenBabel02271912153D
libRbt.so/2013.1/901 2013/11/27
 26 28  0  0  0  0  0  0  0  0999 V2000
  130.0340   69.2553    4.2938 N   0  0  0  0  0  0  0  0  0  0  0  0
  130.8622   69.2380    3.0516 C   0  0  2  0  0  0  0  0  0  0  0  0
  131.2060   70.6361    2.6249 C   0  0  0  0  0  0  0  0  0  0  0  0
  131.7025   70.8631    1.5223 O   0  0  0  0  0  0  0  0  0  0  0  0
  130.1123   68.5297    1.9265 C   0  0  0  0  0  0  0  0  0  0  0  0
  131.0068   68.1444    0.7523 C   0  0  0  0  0  0  0  0  0  0  0  0
  130.1525   67.0328   -0.3162 S   0  0  0  0  0  0  0  0  0  0  0  0
  131.0820   67.1570   -1.8101 C   0  0  0  0  0  0  0  0  0  0  0  0
  130.7493   66.0225   -2.7775 C   0  0  1  0  0  0  0  0  0  0  0  0
  129.3664   65.6723   -2.6901 O   0  0  0  0  0  0  0  0  0  0  0  0
  131.0169   66.4554   -4.2099 C   0  0  1  0  0  0  0  0  0  0  0  0
  131.7983   65.4624   -4.8811 O   0  0  0  0  0  0  0  0  0  0  0  0
  129.6540   66.6166   -4.8597 C   0  0  1  0  0  0  0  0  0  0  0  0
  129.5518   65.8421   -6.0597 O   0  0  0  0  0  0  0  0  0  0  0  0
  128.6365   66.1258   -3.8365 C   0  0  2  0  0  0  0  0  0  0  0  0
  131.0073   71.5901    3.3757 O   0  0  0  0  0  0  0  0  0  0  0  0
  127.5414   71.2989   -3.8971 N   0  0  0  0  0  0  0  0  0  0  0  0
  128.5995   70.6375   -4.4074 C   0  0  0  0  0  0  0  0  0  0  0  0
  128.7510   69.3000   -4.3180 N   0  0  0  0  0  0  0  0  0  0  0  0
  127.8266   68.5228   -3.6918 C   0  0  0  0  0  0  0  0  0  0  0  0
  126.6418   69.1769   -3.1090 C   0  0  0  0  0  0  0  0  0  0  0  0
  126.5434   70.6519   -3.2487 C   0  0  0  0  0  0  0  0  0  0  0  0
  125.4866   71.3278   -2.7381 N   0  0  0  0  0  0  0  0  0  0  0  0
  125.8923   68.2058   -2.5600 N   0  0  0  0  0  0  0  0  0  0  0  0
  126.5386   67.0318   -2.7680 C   0  0  0  0  0  0  0  0  0  0  0  0
  127.6925   67.2126   -3.4409 N   0  0  0  0  0  0  0  0  0  0  0  0
  2  1  1  1  0  0  0
  2  3  1  0  0  0  0
  2  5  1  0  0  0  0
  3  4  1  0  0  0  0
  3 16  1  0  0  0  0
  5  6  1  0  0  0  0
  6  7  1  0  0  0  0
  7  8  1  0  0  0  0
  9  8  1  1  0  0  0
  9 10  1  0  0  0  0
  9 11  1  0  0  0  0
 10 15  1  0  0  0  0
 11 12  1  6  0  0  0
 11 13  1  0  0  0  0
 13 14  1  6  0  0  0
 13 15  1  0  0  0  0
 15 26  1  1  0  0  0
 17 18  2  0  0  0  0
 17 22  1  0  0  0  0
 18 19  1  0  0  0  0
 19 20  2  0  0  0  0
 20 21  1  0  0  0  0
 20 26  1  0  0  0  0
 21 22  2  0  0  0  0
 21 24  1  0  0  0  0
 22 23  1  0  0  0  0
 24 25  2  0  0  0  0
 25 26  1  0  0  0  0
M  END
>  <CHROM.1>
-168.65821884,-164.82916594,167.41337928,161.38688021,165.47897630,35.26601517
105.73360938,129.32367907,68.29253528,-1.74459989,-1.19952547,0.73560367
-2.17615191

>  <Name>
ligand

>  <RI>
0

>  <Rbt.Current_Directory>
/home/itssahil/PROJECTS/Mol_Feturizer/Test_systems_manuscript/rnas/3npn

>  <Rbt.Executable>
rbdock ($Id: //depot/dev/client3/rdock/2013.1/src/exe/rbdock.cxx#4 $)

>  <Rbt.Library>
libRbt.so (2013.1, Build901 2013/11/27)

>  <Rbt.Parameter_File>
/export/apps/rDock/src/rDock_2013.1_src/data/scripts/dock_solv.prm

>  <Rbt.Receptor>
prm/pocket_docking_8.prm

>  <SCORE>
-11.2143

>  <SCORE.INTER>
-11.8237

>  <SCORE.INTER.CONST>
1

>  <SCORE.INTER.POLAR>
0

>  <SCORE.INTER.ROT>
7

>  <SCORE.INTER.SOLV>
22.4503

>  <SCORE.INTER.VDW>
-23.6326

>  <SCORE.INTER.norm>
-0.454757

>  <SCORE.INTRA>
0.60935

>  <SCORE.INTRA.DIHEDRAL>
2.48367

>  <SCORE.INTRA.DIHEDRAL.0>
4.37896

>  <SCORE.INTRA.POLAR>
0

>  <SCORE.INTRA.POLAR.0>
0

>  <SCORE.INTRA.REPUL>
0

>  <SCORE.INTRA.REPUL.0>
0

>  <SCORE.INTRA.SOLV>
-0.814951

>  <SCORE.INTRA.SOLV.lig_0>
-50.5538

>  <SCORE.INTRA.VDW>
-0.225008

>  <SCORE.INTRA.VDW.0>
-1.30673

>  <SCORE.INTRA.norm>
0.0234366

>  <SCORE.RESTR>
0

>  <SCORE.RESTR.CAVITY>
0

>  <SCORE.RESTR.norm>
0

>  <SCORE.SYSTEM>
0

>  <SCORE.SYSTEM.CONST>
0

>  <SCORE.SYSTEM.DIHEDRAL>
0

>  <SCORE.SYSTEM.SOLV>
0

>  <SCORE.SYSTEM.norm>
0

>  <SCORE.heavy>
26

>  <SCORE.norm>
-0.431321

>  <RMSD>
7.454

$$$$
ligand
 OpenBabel02271912153D
libRbt.so/2013.1/901 2013/11/27
 26 28  0  0  0  0  0  0  0  0999 V2000
  131.2504   57.8290   -2.3542 N   0  0  0  0  0  0  0  0  0  0  0  0
  130.4231   58.9450   -1.8070 C   0  0  2  0  0  0  0  0  0  0  0  0
  129.1569   59.1030   -2.5986 C   0  0  0  0  0  0  0  0  0  0  0  0
  128.7718   58.2243   -3.3688 O   0  0  0  0  0  0  0  0  0  0  0  0
  131.2118   60.2514   -1.8376 C   0  0  0  0  0  0  0  0  0  0  0  0
  132.5058   60.1957   -1.0315 C   0  0  0  0  0  0  0  0  0  0  0  0
  133.3375   61.7475   -1.1196 S   0  0  0  0  0  0  0  0  0  0  0  0
  132.2338   62.8161   -0.2529 C   0  0  0  0  0  0  0  0  0  0  0  0
  132.9644   64.0175    0.3443 C   0  0  1  0  0  0  0  0  0  0  0  0
  133.4764   64.8626   -0.6882 O   0  0  0  0  0  0  0  0  0  0  0  0
  132.0090   64.8530    1.1809 C   0  0  1  0  0  0  0  0  0  0  0  0
  132.5913   65.1253    2.4592 O   0  0  0  0  0  0  0  0  0  0  0  0
  131.7763   66.1326    0.3972 C   0  0  1  0  0  0  0  0  0  0  0  0
  132.0630   67.2905    1.1893 O   0  0  0  0  0  0  0  0  0  0  0  0
  132.7200   66.0743   -0.7983 C   0  0  2  0  0  0  0  0  0  0  0  0
  128.4776   60.1240   -2.5021 O   0  0  0  0  0  0  0  0  0  0  0  0
  128.0051   66.0700   -3.1927 N   0  0  0  0  0  0  0  0  0  0  0  0
  128.3023   66.0444   -1.8779 C   0  0  0  0  0  0  0  0  0  0  0  0
  129.5650   66.0497   -1.4032 N   0  0  0  0  0  0  0  0  0  0  0  0
  130.6365   66.0792   -2.2410 C   0  0  0  0  0  0  0  0  0  0  0  0
  130.3886   66.1085   -3.6932 C   0  0  0  0  0  0  0  0  0  0  0  0
  128.9726   66.1027   -4.1402 C   0  0  0  0  0  0  0  0  0  0  0  0
  128.6614   66.1257   -5.4581 N   0  0  0  0  0  0  0  0  0  0  0  0
  131.5913   66.1377   -4.2923 N   0  0  0  0  0  0  0  0  0  0  0  0
  132.5296   66.1250   -3.3132 C   0  0  0  0  0  0  0  0  0  0  0  0
  131.9685   66.0892   -2.0881 N   0  0  0  0  0  0  0  0  0  0  0  0
  2  1  1  6  0  0  0
  2  3  1  0  0  0  0
  2  5  1  0  0  0  0
  3  4  1  0  0  0  0
  3 16  1  0  0  0  0
  5  6  1  0  0  0  0
  6  7  1  0  0  0  0
  7  8  1  0  0  0  0
  9  8  1  6  0  0  0
  9 10  1  0  0  0  0
  9 11  1  0  0  0  0
 10 15  1  0  0  0  0
 11 12  1  1  0  0  0
 11 13  1  0  0  0  0
 13 14  1  1  0  0  0
 13 15  1  0  0  0  0
 15 26  1  6  0  0  0
 17 18  2  0  0  0  0
 17 22  1  0  0  0  0
 18 19  1  0  0  0  0
 19 20  2  0  0  0  0
 20 21  1  0  0  0  0
 20 26  1  0  0  0  0
 21 22  2  0  0  0  0
 21 24  1  0  0  0  0
 22 23  1  0  0  0  0
 24 25  2  0  0  0  0
 25 26  1  0  0  0  0
M  END
>  <CHROM.1>
14.97566638,-59.21899913,-179.66468004,66.49455837,154.50821461,66.13929415
115.40532127,131.11840628,63.63397902,-1.63286638,-1.73574859,-0.82534523
0.00144581

>  <Name>
ligand

>  <RI>
0

>  <Rbt.Current_Directory>
/home/itssahil/PROJECTS/Mol_Feturizer/Test_systems_manuscript/rnas/3npn

>  <Rbt.Executable>
rbdock ($Id: //depot/dev/client3/rdock/2013.1/src/exe/rbdock.cxx#4 $)

>  <Rbt.Library>
libRbt.so (2013.1, Build901 2013/11/27)

>  <Rbt.Parameter_File>
/export/apps/rDock/src/rDock_2013.1_src/data/scripts/dock_solv.prm

>  <Rbt.Receptor>
prm/pocket_docking_4.prm

>  <SCORE>
-12.4163

>  <SCORE.INTER>
-12.0911

>  <SCORE.INTER.CONST>
1

>  <SCORE.INTER.POLAR>
0

>  <SCORE.INTER.ROT>
7

>  <SCORE.INTER.SOLV>
17.0804

>  <SCORE.INTER.VDW>
-22.0209

>  <SCORE.INTER.norm>
-0.465042

>  <SCORE.INTRA>
-0.325148

>  <SCORE.INTRA.DIHEDRAL>
-0.576369

>  <SCORE.INTRA.DIHEDRAL.0>
4.37896

>  <SCORE.INTRA.POLAR>
0

>  <SCORE.INTRA.POLAR.0>
0

>  <SCORE.INTRA.REPUL>
0

>  <SCORE.INTRA.REPUL.0>
0

>  <SCORE.INTRA.SOLV>
-0.213838

>  <SCORE.INTRA.SOLV.lig_0>
-50.5538

>  <SCORE.INTRA.VDW>
0.0699554

>  <SCORE.INTRA.VDW.0>
-1.30673

>  <SCORE.INTRA.norm>
-0.0125057

>  <SCORE.RESTR>
0

>  <SCORE.RESTR.CAVITY>
0

>  <SCORE.RESTR.norm>
0

>  <SCORE.SYSTEM>
0

>  <SCORE.SYSTEM.CONST>
0

>  <SCORE.SYSTEM.DIHEDRAL>
0

>  <SCORE.SYSTEM.SOLV>
0

>  <SCORE.SYSTEM.norm>
0

>  <SCORE.heavy>
26

>  <SCORE.norm>
-0.477548

>  <RMSD>
7.466

$$$$
ligand
 OpenBabel02271912153D
libRbt.so/2013.1/901 2013/11/27
 26 28  0  0  0  0  0  0  0  0999 V2000
  132.0766   58.1418   -1.3282 N   0  0  0  0  0  0  0  0  0  0  0  0
  130.7786   58.8606   -1.4955 C   0  0  2  0  0  0  0  0  0  0  0  0
  130.0273   58.3277   -2.6816 C   0  0  0  0  0  0  0  0  0  0  0  0
  130.4810   57.4110   -3.3653 O   0  0  0  0  0  0  0  0  0  0  0  0
  131.0224   60.3566   -1.6746 C   0  0  0  0  0  0  0  0  0  0  0  0
  129.7373   61.1774   -1.7218 C   0  0  0  0  0  0  0  0  0  0  0  0
  130.0798   62.8566   -1.3088 S   0  0  0  0  0  0  0  0  0  0  0  0
  128.8236   63.7252   -2.1912 C   0  0  0  0  0  0  0  0  0  0  0  0
  128.7248   65.1825   -1.7436 C   0  0  1  0  0  0  0  0  0  0  0  0
  130.0227   65.7747   -1.6586 O   0  0  0  0  0  0  0  0  0  0  0  0
  127.9237   65.9905   -2.7517 C   0  0  1  0  0  0  0  0  0  0  0  0
  126.9207   66.7553   -2.0763 O   0  0  0  0  0  0  0  0  0  0  0  0
  128.9236   66.8913   -3.4549 C   0  0  1  0  0  0  0  0  0  0  0  0
  128.5288   68.2659   -3.3847 O   0  0  0  0  0  0  0  0  0  0  0  0
  130.2514   66.6947   -2.7327 C   0  0  2  0  0  0  0  0  0  0  0  0
  128.9403   58.8048   -3.0042 O   0  0  0  0  0  0  0  0  0  0  0  0
  134.5299   63.6359   -3.2824 N   0  0  0  0  0  0  0  0  0  0  0  0
  133.7973   63.9009   -2.1820 C   0  0  0  0  0  0  0  0  0  0  0  0
  132.7174   64.7094   -2.1875 N   0  0  0  0  0  0  0  0  0  0  0  0
  132.2961   65.3206   -3.3274 C   0  0  0  0  0  0  0  0  0  0  0  0
  133.0485   65.0777   -4.5709 C   0  0  0  0  0  0  0  0  0  0  0  0
  134.2243   64.1747   -4.4871 C   0  0  0  0  0  0  0  0  0  0  0  0
  134.9694   63.9029   -5.5849 N   0  0  0  0  0  0  0  0  0  0  0  0
  132.4376   65.7820   -5.5388 N   0  0  0  0  0  0  0  0  0  0  0  0
  131.3876   66.4237   -4.9686 C   0  0  0  0  0  0  0  0  0  0  0  0
  131.2973   66.1546   -3.6509 N   0  0  0  0  0  0  0  0  0  0  0  0
  2  1  1  6  0  0  0
  2  3  1  0  0  0  0
  2  5  1  0  0  0  0
  3  4  1  0  0  0  0
  3 16  1  0  0  0  0
  5  6  1  0  0  0  0
  6  7  1  0  0  0  0
  7  8  1  0  0  0  0
  9  8  1  6  0  0  0
  9 10  1  0  0  0  0
  9 11  1  0  0  0  0
 10 15  1  0  0  0  0
 11 12  1  1  0  0  0
 11 13  1  0  0  0  0
 13 14  1  1  0  0  0
 13 15  1  0  0  0  0
 15 26  1  6  0  0  0
 17 18  2  0  0  0  0
 17 22  1  0  0  0  0
 18 19  1  0  0  0  0
 19 20  2  0  0  0  0
 20 21  1  0  0  0  0
 20 26  1  0  0  0  0
 21 22  2  0  0  0  0
 21 24  1  0  0  0  0
 22 23  1  0  0  0  0
 24 25  2  0  0  0  0
 25 26  1  0  0  0  0
M  END
>  <CHROM.1>
0.69571194,-174.62409355,158.31705768,151.56759994,167.36241394,46.05516048
-27.96301310,130.80147220,63.56136015,-2.83404060,-1.49060187,0.36185948
-0.16806784

>  <Name>
ligand

>  <RI>
0

>  <Rbt.Current_Directory>
/home/itssahil/PROJECTS/Mol_Feturizer/Test_systems_manuscript/rnas/3npn

>  <Rbt.Executable>
rbdock ($Id: //depot/dev/client3/rdock/2013.1/src/exe/rbdock.cxx#4 $)

>  <Rbt.Library>
libRbt.so (2013.1, Build901 2013/11/27)

>  <Rbt.Parameter_File>
/export/apps/rDock/src/rDock_2013.1_src/data/scripts/dock_solv.prm

>  <Rbt.Receptor>
prm/pocket_docking_6.prm

>  <SCORE>
-20.9455

>  <SCORE.INTER>
-20.998

>  <SCORE.INTER.CONST>
1

>  <SCORE.INTER.POLAR>
0

>  <SCORE.INTER.ROT>
7

>  <SCORE.INTER.SOLV>
14.3538

>  <SCORE.INTER.VDW>
-27.0499

>  <SCORE.INTER.norm>
-0.807615

>  <SCORE.INTRA>
0.0525093

>  <SCORE.INTRA.DIHEDRAL>
2.02033

>  <SCORE.INTRA.DIHEDRAL.0>
4.37896

>  <SCORE.INTRA.POLAR>
0

>  <SCORE.INTRA.POLAR.0>
0

>  <SCORE.INTRA.REPUL>
0

>  <SCORE.INTRA.REPUL.0>
0

>  <SCORE.INTRA.SOLV>
-0.773917

>  <SCORE.INTRA.SOLV.lig_0>
-50.5538

>  <SCORE.INTRA.VDW>
-0.570695

>  <SCORE.INTRA.VDW.0>
-1.30673

>  <SCORE.INTRA.norm>
0.00201959

>  <SCORE.RESTR>
0

>  <SCORE.RESTR.CAVITY>
0

>  <SCORE.RESTR.norm>
0

>  <SCORE.SYSTEM>
0

>  <SCORE.SYSTEM.CONST>
0

>  <SCORE.SYSTEM.DIHEDRAL>
0

>  <SCORE.SYSTEM.SOLV>
0

>  <SCORE.SYSTEM.norm>
0

>  <SCORE.heavy>
26

>  <SCORE.norm>
-0.805595

>  <RMSD>
7.500

$$$$
ligand
 OpenBabel02271912153D
libRbt.so/2013.1/901 2013/11/27
 26 28  0  0  0  0  0  0  0  0999 V2000
  131.5670   58.9584   -2.5138 N   0  0  0  0  0  0  0  0  0  0  0  0
  130.3947   59.4931   -1.7594 C   0  0  2  0  0  0  0  0  0  0  0  0
  129.1475   59.4116   -2.5919 C   0  0  0  0  0  0  0  0  0  0  0  0
  128.3353   60.3355   -2.6169 O   0  0  0  0  0  0  0  0  0  0  0  0
  130.6446   60.9430   -1.3532 C   0  0  0  0  0  0  0  0  0  0  0  0
  131.9300   61.1341   -0.5540 C   0  0  0  0  0  0  0  0  0  0  0  0
  133.2638   61.5167   -1.6412 S   0  0  0  0  0  0  0  0  0  0  0  0
  132.8868   63.1681   -2.1331 C   0  0  0  0  0  0  0  0  0  0  0  0
  133.5877   64.1951   -1.2455 C   0  0  1  0  0  0  0  0  0  0  0  0
  133.1173   65.5143   -1.5299 O   0  0  0  0  0  0  0  0  0  0  0  0
  133.2922   63.9151    0.2191 C   0  0  1  0  0  0  0  0  0  0  0  0
  134.5103   63.9113    0.9697 O   0  0  0  0  0  0  0  0  0  0  0  0
  132.3650   65.0264    0.6786 C   0  0  1  0  0  0  0  0  0  0  0  0
  132.8809   65.6930    1.8360 O   0  0  0  0  0  0  0  0  0  0  0  0
  132.2689   66.0058   -0.4853 C   0  0  2  0  0  0  0  0  0  0  0  0
  128.9032   58.4102   -3.2632 O   0  0  0  0  0  0  0  0  0  0  0  0
  128.7576   68.8528   -3.2294 N   0  0  0  0  0  0  0  0  0  0  0  0
  130.0574   69.1041   -2.9738 C   0  0  0  0  0  0  0  0  0  0  0  0
  130.8435   68.2797   -2.2511 N   0  0  0  0  0  0  0  0  0  0  0  0
  130.3605   67.1224   -1.7238 C   0  0  0  0  0  0  0  0  0  0  0  0
  128.9470   66.7812   -1.9622 C   0  0  0  0  0  0  0  0  0  0  0  0
  128.1450   67.7361   -2.7683 C   0  0  0  0  0  0  0  0  0  0  0  0
  126.8380   67.4960   -3.0296 N   0  0  0  0  0  0  0  0  0  0  0  0
  128.7219   65.6066   -1.3491 N   0  0  0  0  0  0  0  0  0  0  0  0
  129.8858   65.2272   -0.7653 C   0  0  0  0  0  0  0  0  0  0  0  0
  130.8667   66.1258   -0.9833 N   0  0  0  0  0  0  0  0  0  0  0  0
  2  1  1  6  0  0  0
  2  3  1  0  0  0  0
  2  5  1  0  0  0  0
  3  4  1  0  0  0  0
  3 16  1  0  0  0  0
  5  6  1  0  0  0  0
  6  7  1  0  0  0  0
  7  8  1  0  0  0  0
  9  8  1  6  0  0  0
  9 10  1  0  0  0  0
  9 11  1  0  0  0  0
 10 15  1  0  0  0  0
 11 12  1  1  0  0  0
 11 13  1  0  0  0  0
 13 14  1  1  0  0  0
 13 15  1  0  0  0  0
 15 26  1  6  0  0  0
 17 18  2  0  0  0  0
 17 22  1  0  0  0  0
 18 19  1  0  0  0  0
 19 20  2  0  0  0  0
 20 21  1  0  0  0  0
 20 26  1  0  0  0  0
 21 22  2  0  0  0  0
 21 24  1  0  0  0  0
 22 23  1  0  0  0  0
 24 25  2  0  0  0  0
 25 26  1  0  0  0  0
M  END
>  <CHROM.1>
-137.94166086,-55.39335840,92.02644036,72.12432932,93.52549209,-171.38418472
-80.21863411,131.02578690,64.01323586,-1.48491863,1.39772786,0.49744623,-3.05710023

>  <Name>
ligand

>  <RI>
0

>  <Rbt.Current_Directory>
/home/itssahil/PROJECTS/Mol_Feturizer/Test_systems_manuscript/rnas/3npn

>  <Rbt.Executable>
rbdock ($Id: //depot/dev/client3/rdock/2013.1/src/exe/rbdock.cxx#4 $)

>  <Rbt.Library>
libRbt.so (2013.1, Build901 2013/11/27)

>  <Rbt.Parameter_File>
/export/apps/rDock/src/rDock_2013.1_src/data/scripts/dock_solv.prm

>  <Rbt.Receptor>
prm/pocket_docking_2.prm

>  <SCORE>
-4.32491

>  <SCORE.INTER>
-8.74914

>  <SCORE.INTER.CONST>
1

>  <SCORE.INTER.POLAR>
0

>  <SCORE.INTER.ROT>
7

>  <SCORE.INTER.SOLV>
14.8351

>  <SCORE.INTER.VDW>
-19.0445

>  <SCORE.INTER.norm>
-0.336505

>  <SCORE.INTRA>
2.76356

>  <SCORE.INTRA.DIHEDRAL>
3.30065

>  <SCORE.INTRA.DIHEDRAL.0>
4.37896

>  <SCORE.INTRA.POLAR>
0

>  <SCORE.INTRA.POLAR.0>
0

>  <SCORE.INTRA.REPUL>
0

>  <SCORE.INTRA.REPUL.0>
0

>  <SCORE.INTRA.SOLV>
1.33615

>  <SCORE.INTRA.SOLV.lig_0>
-50.5538

>  <SCORE.INTRA.VDW>
0.445165

>  <SCORE.INTRA.VDW.0>
-1.30673

>  <SCORE.INTRA.norm>
0.106291

>  <SCORE.RESTR>
1.66067

>  <SCORE.RESTR.CAVITY>
1.66067

>  <SCORE.RESTR.norm>
0.0638719

>  <SCORE.SYSTEM>
0

>  <SCORE.SYSTEM.CONST>
0

>  <SCORE.SYSTEM.DIHEDRAL>
0

>  <SCORE.SYSTEM.SOLV>
0

>  <SCORE.SYSTEM.norm>
0

>  <SCORE.heavy>
26

>  <SCORE.norm>
-0.166343

>  <RMSD>
7.513

$$$$
ligand
 OpenBabel02271912153D
libRbt.so/2013.1/901 2013/11/27
 26 28  0  0  0  0  0  0  0  0999 V2000
  131.7447   60.9028   -1.4754 N   0  0  0  0  0  0  0  0  0  0  0  0
  130.2594   61.0008   -1.3589 C   0  0  2  0  0  0  0  0  0  0  0  0
  129.5925   59.9306   -2.1744 C   0  0  0  0  0  0  0  0  0  0  0  0
  130.1677   58.8745   -2.4342 O   0  0  0  0  0  0  0  0  0  0  0  0
  129.7822   62.3728   -1.8274 C   0  0  0  0  0  0  0  0  0  0  0  0
  130.1954   63.5077   -0.8953 C   0  0  0  0  0  0  0  0  0  0  0  0
  129.9113   65.0622   -1.6764 S   0  0  0  0  0  0  0  0  0  0  0  0
  128.1943   64.9771   -2.0713 C   0  0  0  0  0  0  0  0  0  0  0  0
  127.6384   66.3435   -2.4684 C   0  0  1  0  0  0  0  0  0  0  0  0
  127.8018   67.2845   -1.4053 O   0  0  0  0  0  0  0  0  0  0  0  0
  128.3879   66.8876   -3.6738 C   0  0  1  0  0  0  0  0  0  0  0  0
  127.4578   67.3300   -4.6669 O   0  0  0  0  0  0  0  0  0  0  0  0
  129.2317   68.0393   -3.1567 C   0  0  1  0  0  0  0  0  0  0  0  0
  128.9833   69.2417   -3.8934 O   0  0  0  0  0  0  0  0  0  0  0  0
  128.8352   68.2328   -1.6977 C   0  0  2  0  0  0  0  0  0  0  0  0
  128.4540   60.0904   -2.6119 O   0  0  0  0  0  0  0  0  0  0  0  0
  134.0454   67.4518   -1.2414 N   0  0  0  0  0  0  0  0  0  0  0  0
  133.2929   67.6108   -2.3488 C   0  0  0  0  0  0  0  0  0  0  0  0
  131.9583   67.8047   -2.3166 N   0  0  0  0  0  0  0  0  0  0  0  0
  131.2774   67.8497   -1.1397 C   0  0  0  0  0  0  0  0  0  0  0  0
  132.0344   67.6836    0.1135 C   0  0  0  0  0  0  0  0  0  0  0  0
  133.5003   67.4763   -0.0015 C   0  0  0  0  0  0  0  0  0  0  0  0
  134.2663   67.3129    1.1033 N   0  0  0  0  0  0  0  0  0  0  0  0
  131.1463   67.7699    1.1185 N   0  0  0  0  0  0  0  0  0  0  0  0
  129.9260   67.9704    0.5617 C   0  0  0  0  0  0  0  0  0  0  0  0
  129.9958   68.0181   -0.7836 N   0  0  0  0  0  0  0  0  0  0  0  0
  2  1  1  6  0  0  0
  2  3  1  0  0  0  0
  2  5  1  0  0  0  0
  3  4  1  0  0  0  0
  3 16  1  0  0  0  0
  5  6  1  0  0  0  0
  6  7  1  0  0  0  0
  7  8  1  0  0  0  0
  9  8  1  1  0  0  0
  9 10  1  0  0  0  0
  9 11  1  0  0  0  0
 10 15  1  0  0  0  0
 11 12  1  6  0  0  0
 11 13  1  0  0  0  0
 13 14  1  6  0  0  0
 13 15  1  0  0  0  0
 15 26  1  1  0  0  0
 17 18  2  0  0  0  0
 17 22  1  0  0  0  0
 18 19  1  0  0  0  0
 19 20  2  0  0  0  0
 20 21  1  0  0  0  0
 20 26  1  0  0  0  0
 21 22  2  0  0  0  0
 21 24  1  0  0  0  0
 22 23  1  0  0  0  0
 24 25  2  0  0  0  0
 25 26  1  0  0  0  0
M  END
>  <CHROM.1>
25.69842776,-68.89432982,167.90863486,56.30964453,166.75612732,-59.55774783
127.32080685,130.22299138,65.56678502,-1.68462910,-1.74784715,-0.54233304
0.00257370

>  <Name>
ligand

>  <RI>
0

>  <Rbt.Current_Directory>
/home/itssahil/PROJECTS/Mol_Feturizer/Test_systems_manuscript/rnas/3npn

>  <Rbt.Executable>
rbdock ($Id: //depot/dev/client3/rdock/2013.1/src/exe/rbdock.cxx#4 $)

>  <Rbt.Library>
libRbt.so (2013.1, Build901 2013/11/27)

>  <Rbt.Parameter_File>
/export/apps/rDock/src/rDock_2013.1_src/data/scripts/dock_solv.prm

>  <Rbt.Receptor>
prm/pocket_docking_5.prm

>  <SCORE>
-17.3755

>  <SCORE.INTER>
-16.7814

>  <SCORE.INTER.CONST>
1

>  <SCORE.INTER.POLAR>
0

>  <SCORE.INTER.ROT>
7

>  <SCORE.INTER.SOLV>
11.8396

>  <SCORE.INTER.VDW>
-23.4008

>  <SCORE.INTER.norm>
-0.645437

>  <SCORE.INTRA>
-0.594092

>  <SCORE.INTRA.DIHEDRAL>
-0.552652

>  <SCORE.INTRA.DIHEDRAL.0>
4.37896

>  <SCORE.INTRA.POLAR>
0

>  <SCORE.INTRA.POLAR.0>
0

>  <SCORE.INTRA.REPUL>
0

>  <SCORE.INTRA.REPUL.0>
0

>  <SCORE.INTRA.SOLV>
0.201249

>  <SCORE.INTRA.SOLV.lig_0>
-50.5538

>  <SCORE.INTRA.VDW>
-0.41839

>  <SCORE.INTRA.VDW.0>
-1.30673

>  <SCORE.INTRA.norm>
-0.0228497

>  <SCORE.RESTR>
0

>  <SCORE.RESTR.CAVITY>
0

>  <SCORE.RESTR.norm>
0

>  <SCORE.SYSTEM>
0

>  <SCORE.SYSTEM.CONST>
0

>  <SCORE.SYSTEM.DIHEDRAL>
0

>  <SCORE.SYSTEM.SOLV>
0

>  <SCORE.SYSTEM.norm>
0

>  <SCORE.heavy>
26

>  <SCORE.norm>
-0.668287

>  <RMSD>
7.521

$$$$
ligand
 OpenBabel02271912153D
libRbt.so/2013.1/901 2013/11/27
 26 28  0  0  0  0  0  0  0  0999 V2000
  131.3184   64.0604   -2.1845 N   0  0  0  0  0  0  0  0  0  0  0  0
  130.1786   63.7538   -1.2702 C   0  0  2  0  0  0  0  0  0  0  0  0
  129.4169   62.5547   -1.7572 C   0  0  0  0  0  0  0  0  0  0  0  0
  129.9963   61.5191   -2.0817 O   0  0  0  0  0  0  0  0  0  0  0  0
  129.2391   64.9531   -1.1765 C   0  0  0  0  0  0  0  0  0  0  0  0
  128.6928   65.4004   -2.5289 C   0  0  0  0  0  0  0  0  0  0  0  0
  127.4331   66.6118   -2.2986 S   0  0  0  0  0  0  0  0  0  0  0  0
  127.5916   67.6007   -3.7506 C   0  0  0  0  0  0  0  0  0  0  0  0
  127.1546   69.0431   -3.5012 C   0  0  1  0  0  0  0  0  0  0  0  0
  127.8131   69.5797   -2.3519 O   0  0  0  0  0  0  0  0  0  0  0  0
  127.5270   69.9192   -4.6864 C   0  0  1  0  0  0  0  0  0  0  0  0
  126.3968   70.6977   -5.0909 O   0  0  0  0  0  0  0  0  0  0  0  0
  128.6648   70.8050   -4.2106 C   0  0  1  0  0  0  0  0  0  0  0  0
  128.3726   72.1907   -4.4224 O   0  0  0  0  0  0  0  0  0  0  0  0
  128.8210   70.5291   -2.7197 C   0  0  2  0  0  0  0  0  0  0  0  0
  128.1908   62.5842   -1.8527 O   0  0  0  0  0  0  0  0  0  0  0  0
  132.7124   67.2291   -4.1094 N   0  0  0  0  0  0  0  0  0  0  0  0
  131.5256   67.4596   -4.7062 C   0  0  0  0  0  0  0  0  0  0  0  0
  130.6184   68.3405   -4.2363 N   0  0  0  0  0  0  0  0  0  0  0  0
  130.8510   69.0621   -3.1067 C   0  0  0  0  0  0  0  0  0  0  0  0
  132.1285   68.8630   -2.3998 C   0  0  0  0  0  0  0  0  0  0  0  0
  133.0777   67.8783   -2.9780 C   0  0  0  0  0  0  0  0  0  0  0  0
  134.2717   67.6363   -2.3864 N   0  0  0  0  0  0  0  0  0  0  0  0
  132.1151   69.6823   -1.3345 N   0  0  0  0  0  0  0  0  0  0  0  0
  130.9331   70.3470   -1.3523 C   0  0  0  0  0  0  0  0  0  0  0  0
  130.1739   69.9821   -2.4047 N   0  0  0  0  0  0  0  0  0  0  0  0
  2  1  1  6  0  0  0
  2  3  1  0  0  0  0
  2  5  1  0  0  0  0
  3  4  1  0  0  0  0
  3 16  1  0  0  0  0
  5  6  1  0  0  0  0
  6  7  1  0  0  0  0
  7  8  1  0  0  0  0
  9  8  1  6  0  0  0
  9 10  1  0  0  0  0
  9 11  1  0  0  0  0
 10 15  1  0  0  0  0
 11 12  1  1  0  0  0
 11 13  1  0  0  0  0
 13 14  1  1  0  0  0
 13 15  1  0  0  0  0
 15 26  1  6  0  0  0
 17 18  2  0  0  0  0
 17 22  1  0  0  0  0
 18 19  1  0  0  0  0
 19 20  2  0  0  0  0
 20 21  1  0  0  0  0
 20 26  1  0  0  0  0
 21 22  2  0  0  0  0
 21 24  1  0  0  0  0
 22 23  1  0  0  0  0
 24 25  2  0  0  0  0
 25 26  1  0  0  0  0
M  END
>  <CHROM.1>
48.40006726,57.17575307,171.08605410,149.23924522,-151.22162543,51.51793071
77.03900522,129.62668001,67.55118704,-2.86006346,-1.42819035,-0.12057301
-0.22474590

>  <Name>
ligand

>  <RI>
0

>  <Rbt.Current_Directory>
/home/itssahil/PROJECTS/Mol_Feturizer/Test_systems_manuscript/rnas/3npn

>  <Rbt.Executable>
rbdock ($Id: //depot/dev/client3/rdock/2013.1/src/exe/rbdock.cxx#4 $)

>  <Rbt.Library>
libRbt.so (2013.1, Build901 2013/11/27)

>  <Rbt.Parameter_File>
/export/apps/rDock/src/rDock_2013.1_src/data/scripts/dock_solv.prm

>  <Rbt.Receptor>
prm/pocket_docking_4.prm

>  <SCORE>
-19.0108

>  <SCORE.INTER>
-18.7082

>  <SCORE.INTER.CONST>
1

>  <SCORE.INTER.POLAR>
0

>  <SCORE.INTER.ROT>
7

>  <SCORE.INTER.SOLV>
12.5458

>  <SCORE.INTER.VDW>
-24.9207

>  <SCORE.INTER.norm>
-0.719546

>  <SCORE.INTRA>
-0.330015

>  <SCORE.INTRA.DIHEDRAL>
1.25419

>  <SCORE.INTRA.DIHEDRAL.0>
4.37896

>  <SCORE.INTRA.POLAR>
0

>  <SCORE.INTRA.POLAR.0>
0

>  <SCORE.INTRA.REPUL>
0

>  <SCORE.INTRA.REPUL.0>
0

>  <SCORE.INTRA.SOLV>
-0.122537

>  <SCORE.INTRA.SOLV.lig_0>
-50.5538

>  <SCORE.INTRA.VDW>
-0.895843

>  <SCORE.INTRA.VDW.0>
-1.30673

>  <SCORE.INTRA.norm>
-0.0126929

>  <SCORE.RESTR>
0.0273729

>  <SCORE.RESTR.CAVITY>
0.0273729

>  <SCORE.RESTR.norm>
0.0010528

>  <SCORE.SYSTEM>
0

>  <SCORE.SYSTEM.CONST>
0

>  <SCORE.SYSTEM.DIHEDRAL>
0

>  <SCORE.SYSTEM.SOLV>
0

>  <SCORE.SYSTEM.norm>
0

>  <SCORE.heavy>
26

>  <SCORE.norm>
-0.731186

>  <RMSD>
7.576

$$$$
ligand
 OpenBabel02271912153D
libRbt.so/2013.1/901 2013/11/27
 26 28  0  0  0  0  0  0  0  0999 V2000
  130.9930   64.1809   -1.6328 N   0  0  0  0  0  0  0  0  0  0  0  0
  129.6061   63.6849   -1.3880 C   0  0  2  0  0  0  0  0  0  0  0  0
  129.4892   62.2345   -1.7594 C   0  0  0  0  0  0  0  0  0  0  0  0
  128.3912   61.6922   -1.8766 O   0  0  0  0  0  0  0  0  0  0  0  0
  128.6023   64.5024   -2.1966 C   0  0  0  0  0  0  0  0  0  0  0  0
  128.5812   65.9801   -1.8180 C   0  0  0  0  0  0  0  0  0  0  0  0
  127.0578   66.7093   -2.3227 S   0  0  0  0  0  0  0  0  0  0  0  0
  127.5446   67.6704   -3.7193 C   0  0  0  0  0  0  0  0  0  0  0  0
  127.0931   69.1240   -3.5889 C   0  0  1  0  0  0  0  0  0  0  0  0
  127.5768   69.6967   -2.3721 O   0  0  0  0  0  0  0  0  0  0  0  0
  127.6517   69.9543   -4.7332 C   0  0  1  0  0  0  0  0  0  0  0  0
  126.6056   70.7260   -5.3311 O   0  0  0  0  0  0  0  0  0  0  0  0
  128.7154   70.8483   -4.1210 C   0  0  1  0  0  0  0  0  0  0  0  0
  128.4761   72.2276   -4.4221 O   0  0  0  0  0  0  0  0  0  0  0  0
  128.6406   70.6250   -2.6151 C   0  0  2  0  0  0  0  0  0  0  0  0
  130.4939   61.5497   -1.9461 O   0  0  0  0  0  0  0  0  0  0  0  0
  132.5646   67.1270   -3.1900 N   0  0  0  0  0  0  0  0  0  0  0  0
  131.4720   67.3276   -3.9540 C   0  0  0  0  0  0  0  0  0  0  0  0
  130.5423   68.2675   -3.6857 N   0  0  0  0  0  0  0  0  0  0  0  0
  130.6531   69.0847   -2.6037 C   0  0  0  0  0  0  0  0  0  0  0  0
  131.8226   68.9236   -1.7220 C   0  0  0  0  0  0  0  0  0  0  0  0
  132.8043   67.8694   -2.0826 C   0  0  0  0  0  0  0  0  0  0  0  0
  133.9043   67.6568   -1.3217 N   0  0  0  0  0  0  0  0  0  0  0  0
  131.7010   69.8374   -0.7441 N   0  0  0  0  0  0  0  0  0  0  0  0
  130.5538   70.5233   -0.9740 C   0  0  0  0  0  0  0  0  0  0  0  0
  129.9232   70.0799   -2.0798 N   0  0  0  0  0  0  0  0  0  0  0  0
  2  1  1  6  0  0  0
  2  3  1  0  0  0  0
  2  5  1  0  0  0  0
  3  4  1  0  0  0  0
  3 16  1  0  0  0  0
  5  6  1  0  0  0  0
  6  7  1  0  0  0  0
  7  8  1  0  0  0  0
  9  8  1  6  0  0  0
  9 10  1  0  0  0  0
  9 11  1  0  0  0  0
 10 15  1  0  0  0  0
 11 12  1  1  0  0  0
 11 13  1  0  0  0  0
 13 14  1  1  0  0  0
 13 15  1  0  0  0  0
 15 26  1  6  0  0  0
 17 18  2  0  0  0  0
 17 22  1  0  0  0  0
 18 19  1  0  0  0  0
 19 20  2  0  0  0  0
 20 21  1  0  0  0  0
 20 26  1  0  0  0  0
 21 22  2  0  0  0  0
 21 24  1  0  0  0  0
 22 23  1  0  0  0  0
 24 25  2  0  0  0  0
 25 26  1  0  0  0  0
M  END
>  <CHROM.1>
-166.20556427,-61.91876939,-159.12200966,-106.09427243,-126.94881356,55.43463845
73.46575930,129.48030399,67.54616788,-2.62896457,-1.41568514,-0.29349612
-0.17704085

>  <Name>
ligand

>  <RI>
0

>  <Rbt.Current_Directory>
/home/itssahil/PROJECTS/Mol_Feturizer/Test_systems_manuscript/rnas/3npn

>  <Rbt.Executable>
rbdock ($Id: //depot/dev/client3/rdock/2013.1/src/exe/rbdock.cxx#4 $)

>  <Rbt.Library>
libRbt.so (2013.1, Build901 2013/11/27)

>  <Rbt.Parameter_File>
/export/apps/rDock/src/rDock_2013.1_src/data/scripts/dock_solv.prm

>  <Rbt.Receptor>
prm/pocket_docking_5.prm

>  <SCORE>
-20.8621

>  <SCORE.INTER>
-20.7169

>  <SCORE.INTER.CONST>
1

>  <SCORE.INTER.POLAR>
0

>  <SCORE.INTER.ROT>
7

>  <SCORE.INTER.SOLV>
11.754

>  <SCORE.INTER.VDW>
-25.9959

>  <SCORE.INTER.norm>
-0.796802

>  <SCORE.INTRA>
-0.145281

>  <SCORE.INTRA.DIHEDRAL>
4.27161

>  <SCORE.INTRA.DIHEDRAL.0>
4.37896

>  <SCORE.INTRA.POLAR>
0

>  <SCORE.INTRA.POLAR.0>
0

>  <SCORE.INTRA.REPUL>
0

>  <SCORE.INTRA.REPUL.0>
0

>  <SCORE.INTRA.SOLV>
0.0750884

>  <SCORE.INTRA.SOLV.lig_0>
-50.5538

>  <SCORE.INTRA.VDW>
-2.31863

>  <SCORE.INTRA.VDW.0>
-1.30673

>  <SCORE.INTRA.norm>
-0.00558774

>  <SCORE.RESTR>
0

>  <SCORE.RESTR.CAVITY>
0

>  <SCORE.RESTR.norm>
0

>  <SCORE.SYSTEM>
0

>  <SCORE.SYSTEM.CONST>
0

>  <SCORE.SYSTEM.DIHEDRAL>
0

>  <SCORE.SYSTEM.SOLV>
0

>  <SCORE.SYSTEM.norm>
0

>  <SCORE.heavy>
26

>  <SCORE.norm>
-0.80239

>  <RMSD>
7.587

$$$$
ligand
 OpenBabel02271912153D
libRbt.so/2013.1/901 2013/11/27
 26 28  0  0  0  0  0  0  0  0999 V2000
  133.0427   61.8029   -1.7369 N   0  0  0  0  0  0  0  0  0  0  0  0
  132.0767   62.8381   -1.2630 C   0  0  2  0  0  0  0  0  0  0  0  0
  132.3028   63.1481    0.1889 C   0  0  0  0  0  0  0  0  0  0  0  0
  131.9370   64.2161    0.6779 O   0  0  0  0  0  0  0  0  0  0  0  0
  130.6431   62.3551   -1.4657 C   0  0  0  0  0  0  0  0  0  0  0  0
  129.5944   63.3761   -1.0352 C   0  0  0  0  0  0  0  0  0  0  0  0
  129.9479   64.9441   -1.7588 S   0  0  0  0  0  0  0  0  0  0  0  0
  128.4571   65.3012   -2.6311 C   0  0  0  0  0  0  0  0  0  0  0  0
  127.7655   66.5469   -2.0800 C   0  0  1  0  0  0  0  0  0  0  0  0
  128.7241   67.4654   -1.5509 O   0  0  0  0  0  0  0  0  0  0  0  0
  127.0133   67.2660   -3.1881 C   0  0  1  0  0  0  0  0  0  0  0  0
  125.6777   67.5536   -2.7632 O   0  0  0  0  0  0  0  0  0  0  0  0
  127.7911   68.5410   -3.4624 C   0  0  1  0  0  0  0  0  0  0  0  0
  126.9514   69.6969   -3.3662 O   0  0  0  0  0  0  0  0  0  0  0  0
  128.8861   68.6048   -2.4041 C   0  0  2  0  0  0  0  0  0  0  0  0
  132.8706   62.3413    0.9236 O   0  0  0  0  0  0  0  0  0  0  0  0
  132.1181   66.4073   -5.9662 N   0  0  0  0  0  0  0  0  0  0  0  0
  130.8352   66.1147   -5.6725 C   0  0  0  0  0  0  0  0  0  0  0  0
  130.1240   66.7652   -4.7287 N   0  0  0  0  0  0  0  0  0  0  0  0
  130.6715   67.7750   -3.9999 C   0  0  0  0  0  0  0  0  0  0  0  0
  132.0712   68.1509   -4.2660 C   0  0  0  0  0  0  0  0  0  0  0  0
  132.7891   67.3912   -5.3206 C   0  0  0  0  0  0  0  0  0  0  0  0
  134.0785   67.6741   -5.6230 N   0  0  0  0  0  0  0  0  0  0  0  0
  132.3682   69.1605   -3.4300 N   0  0  0  0  0  0  0  0  0  0  0  0
  131.2597   69.4100   -2.6897 C   0  0  0  0  0  0  0  0  0  0  0  0
  130.2447   68.5879   -3.0227 N   0  0  0  0  0  0  0  0  0  0  0  0
  2  1  1  1  0  0  0
  2  3  1  0  0  0  0
  2  5  1  0  0  0  0
  3  4  1  0  0  0  0
  3 16  1  0  0  0  0
  5  6  1  0  0  0  0
  6  7  1  0  0  0  0
  7  8  1  0  0  0  0
  9  8  1  6  0  0  0
  9 10  1  0  0  0  0
  9 11  1  0  0  0  0
 10 15  1  0  0  0  0
 11 12  1  1  0  0  0
 11 13  1  0  0  0  0
 13 14  1  1  0  0  0
 13 15  1  0  0  0  0
 15 26  1  6  0  0  0
 17 18  2  0  0  0  0
 17 22  1  0  0  0  0
 18 19  1  0  0  0  0
 19 20  2  0  0  0  0
 20 21  1  0  0  0  0
 20 26  1  0  0  0  0
 21 22  2  0  0  0  0
 21 24  1  0  0  0  0
 22 23  1  0  0  0  0
 24 25  2  0  0  0  0
 25 26  1  0  0  0  0
M  END
>  <CHROM.1>
157.19770721,-178.58933915,50.33284165,123.29129910,116.67893505,30.26752821
73.33007760,130.32345400,66.19118534,-2.64203524,-1.10086552,0.32897559,-0.67042205

>  <Name>
ligand

>  <RI>
0

>  <Rbt.Current_Directory>
/home/itssahil/PROJECTS/Mol_Feturizer/Test_systems_manuscript/rnas/3npn

>  <Rbt.Executable>
rbdock ($Id: //depot/dev/client3/rdock/2013.1/src/exe/rbdock.cxx#4 $)

>  <Rbt.Library>
libRbt.so (2013.1, Build901 2013/11/27)

>  <Rbt.Parameter_File>
/export/apps/rDock/src/rDock_2013.1_src/data/scripts/dock_solv.prm

>  <Rbt.Receptor>
prm/pocket_docking_5.prm

>  <SCORE>
-15.9134

>  <SCORE.INTER>
-17.3305

>  <SCORE.INTER.CONST>
1

>  <SCORE.INTER.POLAR>
0

>  <SCORE.INTER.ROT>
7

>  <SCORE.INTER.SOLV>
11.7851

>  <SCORE.INTER.VDW>
-23.7487

>  <SCORE.INTER.norm>
-0.666559

>  <SCORE.INTRA>
1.40678

>  <SCORE.INTRA.DIHEDRAL>
6.01326

>  <SCORE.INTRA.DIHEDRAL.0>
4.37896

>  <SCORE.INTRA.POLAR>
0

>  <SCORE.INTRA.POLAR.0>
0

>  <SCORE.INTRA.REPUL>
0

>  <SCORE.INTRA.REPUL.0>
0

>  <SCORE.INTRA.SOLV>
-0.396467

>  <SCORE.INTRA.SOLV.lig_0>
-50.5538

>  <SCORE.INTRA.VDW>
-1.40161

>  <SCORE.INTRA.VDW.0>
-1.30673

>  <SCORE.INTRA.norm>
0.054107

>  <SCORE.RESTR>
0.0103701

>  <SCORE.RESTR.CAVITY>
0.0103701

>  <SCORE.RESTR.norm>
0.000398851

>  <SCORE.SYSTEM>
0

>  <SCORE.SYSTEM.CONST>
0

>  <SCORE.SYSTEM.DIHEDRAL>
0

>  <SCORE.SYSTEM.SOLV>
0

>  <SCORE.SYSTEM.norm>
0

>  <SCORE.heavy>
26

>  <SCORE.norm>
-0.612053

>  <RMSD>
7.592

$$$$
ligand
 OpenBabel02271912153D
libRbt.so/2013.1/901 2013/11/27
 26 28  0  0  0  0  0  0  0  0999 V2000
  133.7932   63.7080   -1.2104 N   0  0  0  0  0  0  0  0  0  0  0  0
  132.8820   63.4629   -0.0533 C   0  0  2  0  0  0  0  0  0  0  0  0
  133.4097   62.3536    0.8105 C   0  0  0  0  0  0  0  0  0  0  0  0
  133.5673   62.5071    2.0210 O   0  0  0  0  0  0  0  0  0  0  0  0
  131.4836   63.1042   -0.5488 C   0  0  0  0  0  0  0  0  0  0  0  0
  130.7583   64.2722   -1.2100 C   0  0  0  0  0  0  0  0  0  0  0  0
  129.2007   63.7361   -1.8376 S   0  0  0  0  0  0  0  0  0  0  0  0
  128.7280   65.0834   -2.8733 C   0  0  0  0  0  0  0  0  0  0  0  0
  127.7458   66.0182   -2.1696 C   0  0  1  0  0  0  0  0  0  0  0  0
  128.3398   66.5906   -1.0025 O   0  0  0  0  0  0  0  0  0  0  0  0
  127.3586   67.1651   -3.0892 C   0  0  1  0  0  0  0  0  0  0  0  0
  125.9354   67.3103   -3.1142 O   0  0  0  0  0  0  0  0  0  0  0  0
  128.0291   68.4026   -2.5195 C   0  0  1  0  0  0  0  0  0  0  0  0
  127.0817   69.4511   -2.2878 O   0  0  0  0  0  0  0  0  0  0  0  0
  128.6608   67.9727   -1.2007 C   0  0  2  0  0  0  0  0  0  0  0  0
  133.7072   61.2639    0.3234 O   0  0  0  0  0  0  0  0  0  0  0  0
  133.3158   66.7412    0.9854 N   0  0  0  0  0  0  0  0  0  0  0  0
  132.0735   66.3413    1.3240 C   0  0  0  0  0  0  0  0  0  0  0  0
  130.9627   66.7391    0.6701 N   0  0  0  0  0  0  0  0  0  0  0  0
  131.0312   67.5877   -0.3910 C   0  0  0  0  0  0  0  0  0  0  0  0
  132.3571   68.0672   -0.8191 C   0  0  0  0  0  0  0  0  0  0  0  0
  133.5335   67.5845   -0.0521 C   0  0  0  0  0  0  0  0  0  0  0  0
  134.7859   67.9812   -0.3810 N   0  0  0  0  0  0  0  0  0  0  0  0
  132.1561   68.8769   -1.8727 N   0  0  0  0  0  0  0  0  0  0  0  0
  130.8198   68.9176   -2.1005 C   0  0  0  0  0  0  0  0  0  0  0  0
  130.1427   68.1526   -1.2211 N   0  0  0  0  0  0  0  0  0  0  0  0
  2  1  1  6  0  0  0
  2  3  1  0  0  0  0
  2  5  1  0  0  0  0
  3  4  1  0  0  0  0
  3 16  1  0  0  0  0
  5  6  1  0  0  0  0
  6  7  1  0  0  0  0
  7  8  1  0  0  0  0
  9  8  1  6  0  0  0
  9 10  1  0  0  0  0
  9 11  1  0  0  0  0
 10 15  1  0  0  0  0
 11 12  1  1  0  0  0
 11 13  1  0  0  0  0
 13 14  1  1  0  0  0
 13 15  1  0  0  0  0
 15 26  1  6  0  0  0
 17 18  2  0  0  0  0
 17 22  1  0  0  0  0
 18 19  1  0  0  0  0
 19 20  2  0  0  0  0
 20 21  1  0  0  0  0
 20 26  1  0  0  0  0
 21 22  2  0  0  0  0
 21 24  1  0  0  0  0
 22 23  1  0  0  0  0
 24 25  2  0  0  0  0
 25 26  1  0  0  0  0
M  END
>  <CHROM.1>
126.95138425,-69.00462245,176.43204750,-166.74882778,-98.81658181,61.42558156
-43.37117191,130.71377408,65.96833743,-0.96878997,0.63186565,0.42288674,3.07176990

>  <Name>
ligand

>  <RI>
0

>  <Rbt.Current_Directory>
/home/itssahil/PROJECTS/Mol_Feturizer/Test_systems_manuscript/rnas/3npn

>  <Rbt.Executable>
rbdock ($Id: //depot/dev/client3/rdock/2013.1/src/exe/rbdock.cxx#4 $)

>  <Rbt.Library>
libRbt.so (2013.1, Build901 2013/11/27)

>  <Rbt.Parameter_File>
/export/apps/rDock/src/rDock_2013.1_src/data/scripts/dock_solv.prm

>  <Rbt.Receptor>
prm/pocket_docking_7.prm

>  <SCORE>
-14.431

>  <SCORE.INTER>
-11.9847

>  <SCORE.INTER.CONST>
1

>  <SCORE.INTER.POLAR>
0

>  <SCORE.INTER.ROT>
7

>  <SCORE.INTER.SOLV>
8.92564

>  <SCORE.INTER.VDW>
-19.2316

>  <SCORE.INTER.norm>
-0.460948

>  <SCORE.INTRA>
-2.44634

>  <SCORE.INTRA.DIHEDRAL>
0.692461

>  <SCORE.INTRA.DIHEDRAL.0>
4.37896

>  <SCORE.INTRA.POLAR>
0

>  <SCORE.INTRA.POLAR.0>
0

>  <SCORE.INTRA.REPUL>
0

>  <SCORE.INTRA.REPUL.0>
0

>  <SCORE.INTRA.SOLV>
-0.02547

>  <SCORE.INTRA.SOLV.lig_0>
-50.5538

>  <SCORE.INTRA.VDW>
-2.77984

>  <SCORE.INTRA.VDW.0>
-1.30673

>  <SCORE.INTRA.norm>
-0.0940901

>  <SCORE.RESTR>
0

>  <SCORE.RESTR.CAVITY>
0

>  <SCORE.RESTR.norm>
0

>  <SCORE.SYSTEM>
0

>  <SCORE.SYSTEM.CONST>
0

>  <SCORE.SYSTEM.DIHEDRAL>
0

>  <SCORE.SYSTEM.SOLV>
0

>  <SCORE.SYSTEM.norm>
0

>  <SCORE.heavy>
26

>  <SCORE.norm>
-0.555038

>  <RMSD>
7.613

$$$$
ligand
 OpenBabel02271912153D
libRbt.so/2013.1/901 2013/11/27
 26 28  0  0  0  0  0  0  0  0999 V2000
  130.2217   57.5583   -1.0997 N   0  0  0  0  0  0  0  0  0  0  0  0
  131.0191   58.2063   -2.1830 C   0  0  2  0  0  0  0  0  0  0  0  0
  132.3627   57.5490   -2.3170 C   0  0  0  0  0  0  0  0  0  0  0  0
  132.8970   56.9881   -1.3612 O   0  0  0  0  0  0  0  0  0  0  0  0
  131.2040   59.6921   -1.8862 C   0  0  0  0  0  0  0  0  0  0  0  0
  129.8954   60.4763   -1.8865 C   0  0  0  0  0  0  0  0  0  0  0  0
  130.2165   62.1837   -1.5886 S   0  0  0  0  0  0  0  0  0  0  0  0
  128.6288   62.9133   -1.8296 C   0  0  0  0  0  0  0  0  0  0  0  0
  128.6808   64.4343   -1.6970 C   0  0  1  0  0  0  0  0  0  0  0  0
  129.6330   64.8233   -0.7048 O   0  0  0  0  0  0  0  0  0  0  0  0
  129.1139   65.0636   -3.0112 C   0  0  1  0  0  0  0  0  0  0  0  0
  128.2175   66.1217   -3.3635 O   0  0  0  0  0  0  0  0  0  0  0  0
  130.5207   65.5866   -2.7810 C   0  0  1  0  0  0  0  0  0  0  0  0
  130.6235   66.9754   -3.1140 O   0  0  0  0  0  0  0  0  0  0  0  0
  130.8098   65.3853   -1.2981 C   0  0  2  0  0  0  0  0  0  0  0  0
  132.9671   57.5652   -3.3883 O   0  0  0  0  0  0  0  0  0  0  0  0
  133.9268   62.8888    2.1684 N   0  0  0  0  0  0  0  0  0  0  0  0
  132.8819   63.7120    2.3882 C   0  0  0  0  0  0  0  0  0  0  0  0
  132.1683   64.2850    1.3971 N   0  0  0  0  0  0  0  0  0  0  0  0
  132.4686   64.0634    0.0889 C   0  0  0  0  0  0  0  0  0  0  0  0
  133.5992   63.1734   -0.2285 C   0  0  0  0  0  0  0  0  0  0  0  0
  134.3360   62.5781    0.9150 C   0  0  0  0  0  0  0  0  0  0  0  0
  135.3887   61.7518    0.7069 N   0  0  0  0  0  0  0  0  0  0  0  0
  133.6853   63.1171   -1.5685 N   0  0  0  0  0  0  0  0  0  0  0  0
  132.7001   63.9033   -2.0690 C   0  0  0  0  0  0  0  0  0  0  0  0
  131.9714   64.4715   -1.0875 N   0  0  0  0  0  0  0  0  0  0  0  0
  2  1  1  1  0  0  0
  2  3  1  0  0  0  0
  2  5  1  0  0  0  0
  3  4  1  0  0  0  0
  3 16  1  0  0  0  0
  5  6  1  0  0  0  0
  6  7  1  0  0  0  0
  7  8  1  0  0  0  0
  9  8  1  6  0  0  0
  9 10  1  0  0  0  0
  9 11  1  0  0  0  0
 10 15  1  0  0  0  0
 11 12  1  1  0  0  0
 11 13  1  0  0  0  0
 13 14  1  1  0  0  0
 13 15  1  0  0  0  0
 15 26  1  6  0  0  0
 17 18  2  0  0  0  0
 17 22  1  0  0  0  0
 18 19  1  0  0  0  0
 19 20  2  0  0  0  0
 20 21  1  0  0  0  0
 20 26  1  0  0  0  0
 21 22  2  0  0  0  0
 21 24  1  0  0  0  0
 22 23  1  0  0  0  0
 24 25  2  0  0  0  0
 25 26  1  0  0  0  0
M  END
>  <CHROM.1>
-27.05099238,-64.40546306,-178.13114520,173.25272668,-176.75737811,-34.91507927
-59.52178390,131.43334638,62.48568638,-1.25401967,1.20120394,0.65810120,-2.94396263

>  <Name>
ligand

>  <RI>
0

>  <Rbt.Current_Directory>
/home/itssahil/PROJECTS/Mol_Feturizer/Test_systems_manuscript/rnas/3npn

>  <Rbt.Executable>
rbdock ($Id: //depot/dev/client3/rdock/2013.1/src/exe/rbdock.cxx#4 $)

>  <Rbt.Library>
libRbt.so (2013.1, Build901 2013/11/27)

>  <Rbt.Parameter_File>
/export/apps/rDock/src/rDock_2013.1_src/data/scripts/dock_solv.prm

>  <Rbt.Receptor>
prm/pocket_docking_5.prm

>  <SCORE>
-16.0495

>  <SCORE.INTER>
-15.1159

>  <SCORE.INTER.CONST>
1

>  <SCORE.INTER.POLAR>
0

>  <SCORE.INTER.ROT>
7

>  <SCORE.INTER.SOLV>
14.4183

>  <SCORE.INTER.VDW>
-23.1501

>  <SCORE.INTER.norm>
-0.581381

>  <SCORE.INTRA>
-0.933568

>  <SCORE.INTRA.DIHEDRAL>
0.416292

>  <SCORE.INTRA.DIHEDRAL.0>
4.37896

>  <SCORE.INTRA.POLAR>
0

>  <SCORE.INTRA.POLAR.0>
0

>  <SCORE.INTRA.REPUL>
0

>  <SCORE.INTRA.REPUL.0>
0

>  <SCORE.INTRA.SOLV>
0.174602

>  <SCORE.INTRA.SOLV.lig_0>
-50.5538

>  <SCORE.INTRA.VDW>
-1.22901

>  <SCORE.INTRA.VDW.0>
-1.30673

>  <SCORE.INTRA.norm>
-0.0359065

>  <SCORE.RESTR>
0

>  <SCORE.RESTR.CAVITY>
0

>  <SCORE.RESTR.norm>
0

>  <SCORE.SYSTEM>
0

>  <SCORE.SYSTEM.CONST>
0

>  <SCORE.SYSTEM.DIHEDRAL>
0

>  <SCORE.SYSTEM.SOLV>
0

>  <SCORE.SYSTEM.norm>
0

>  <SCORE.heavy>
26

>  <SCORE.norm>
-0.617287

>  <RMSD>
7.675

$$$$
ligand
 OpenBabel02271912153D
libRbt.so/2013.1/901 2013/11/27
 26 28  0  0  0  0  0  0  0  0999 V2000
  132.4889   61.6287   -0.2668 N   0  0  0  0  0  0  0  0  0  0  0  0
  131.1113   61.8876   -0.7812 C   0  0  2  0  0  0  0  0  0  0  0  0
  130.7829   60.9525   -1.9095 C   0  0  0  0  0  0  0  0  0  0  0  0
  129.6430   60.8792   -2.3665 O   0  0  0  0  0  0  0  0  0  0  0  0
  130.9894   63.3313   -1.2616 C   0  0  0  0  0  0  0  0  0  0  0  0
  129.5556   63.7434   -1.5807 C   0  0  0  0  0  0  0  0  0  0  0  0
  129.3456   65.4688   -1.2875 S   0  0  0  0  0  0  0  0  0  0  0  0
  127.9299   65.8482   -2.2689 C   0  0  0  0  0  0  0  0  0  0  0  0
  127.4170   67.2611   -1.9967 C   0  0  1  0  0  0  0  0  0  0  0  0
  128.5047   68.1573   -1.7596 O   0  0  0  0  0  0  0  0  0  0  0  0
  126.6527   67.7858   -3.2015 C   0  0  1  0  0  0  0  0  0  0  0  0
  125.3932   68.3210   -2.7842 O   0  0  0  0  0  0  0  0  0  0  0  0
  127.5309   68.8598   -3.8187 C   0  0  1  0  0  0  0  0  0  0  0  0
  126.8244   70.0975   -3.9572 O   0  0  0  0  0  0  0  0  0  0  0  0
  128.7107   69.0385   -2.8703 C   0  0  2  0  0  0  0  0  0  0  0  0
  131.6483   60.2276   -2.3981 O   0  0  0  0  0  0  0  0  0  0  0  0
  131.3318   65.8308   -6.1572 N   0  0  0  0  0  0  0  0  0  0  0  0
  130.0453   65.7870   -5.7562 C   0  0  0  0  0  0  0  0  0  0  0  0
  129.5037   66.6816   -4.9040 N   0  0  0  0  0  0  0  0  0  0  0  0
  130.2399   67.7013   -4.3854 C   0  0  0  0  0  0  0  0  0  0  0  0
  131.6555   67.8130   -4.7790 C   0  0  0  0  0  0  0  0  0  0  0  0
  132.1802   66.7930   -5.7221 C   0  0  0  0  0  0  0  0  0  0  0  0
  133.4711   66.8249   -6.1301 N   0  0  0  0  0  0  0  0  0  0  0  0
  132.1522   68.8876   -4.1429 N   0  0  0  0  0  0  0  0  0  0  0  0
  131.1469   69.4184   -3.4033 C   0  0  0  0  0  0  0  0  0  0  0  0
  130.0045   68.7164   -3.5418 N   0  0  0  0  0  0  0  0  0  0  0  0
  2  1  1  6  0  0  0
  2  3  1  0  0  0  0
  2  5  1  0  0  0  0
  3  4  1  0  0  0  0
  3 16  1  0  0  0  0
  5  6  1  0  0  0  0
  6  7  1  0  0  0  0
  7  8  1  0  0  0  0
  9  8  1  6  0  0  0
  9 10  1  0  0  0  0
  9 11  1  0  0  0  0
 10 15  1  0  0  0  0
 11 12  1  1  0  0  0
 11 13  1  0  0  0  0
 13 14  1  1  0  0  0
 13 15  1  0  0  0  0
 15 26  1  6  0  0  0
 17 18  2  0  0  0  0
 17 22  1  0  0  0  0
 18 19  1  0  0  0  0
 19 20  2  0  0  0  0
 20 21  1  0  0  0  0
 20 26  1  0  0  0  0
 21 22  2  0  0  0  0
 21 24  1  0  0  0  0
 22 23  1  0  0  0  0
 24 25  2  0  0  0  0
 25 26  1  0  0  0  0
M  END
>  <CHROM.1>
170.73955671,-170.22194035,150.04101646,158.77004890,170.78254579,36.45645931
78.00193335,129.77686457,66.00853061,-3.07472504,1.18318572,-0.53009715,2.65909868

>  <Name>
ligand

>  <RI>
0

>  <Rbt.Current_Directory>
/home/itssahil/PROJECTS/Mol_Feturizer/Test_systems_manuscript/rnas/3npn

>  <Rbt.Executable>
rbdock ($Id: //depot/dev/client3/rdock/2013.1/src/exe/rbdock.cxx#4 $)

>  <Rbt.Library>
libRbt.so (2013.1, Build901 2013/11/27)

>  <Rbt.Parameter_File>
/export/apps/rDock/src/rDock_2013.1_src/data/scripts/dock_solv.prm

>  <Rbt.Receptor>
prm/pocket_docking_6.prm

>  <SCORE>
-20.9019

>  <SCORE.INTER>
-21.0451

>  <SCORE.INTER.CONST>
1

>  <SCORE.INTER.POLAR>
0

>  <SCORE.INTER.ROT>
7

>  <SCORE.INTER.SOLV>
19.6975

>  <SCORE.INTER.VDW>
-28.8626

>  <SCORE.INTER.norm>
-0.809428

>  <SCORE.INTRA>
0.143226

>  <SCORE.INTRA.DIHEDRAL>
3.97831

>  <SCORE.INTRA.DIHEDRAL.0>
4.37896

>  <SCORE.INTRA.POLAR>
0

>  <SCORE.INTRA.POLAR.0>
0

>  <SCORE.INTRA.REPUL>
0

>  <SCORE.INTRA.REPUL.0>
0

>  <SCORE.INTRA.SOLV>
-0.770025

>  <SCORE.INTRA.SOLV.lig_0>
-50.5538

>  <SCORE.INTRA.VDW>
-1.46092

>  <SCORE.INTRA.VDW.0>
-1.30673

>  <SCORE.INTRA.norm>
0.00550868

>  <SCORE.RESTR>
0

>  <SCORE.RESTR.CAVITY>
0

>  <SCORE.RESTR.norm>
0

>  <SCORE.SYSTEM>
0

>  <SCORE.SYSTEM.CONST>
0

>  <SCORE.SYSTEM.DIHEDRAL>
0

>  <SCORE.SYSTEM.SOLV>
0

>  <SCORE.SYSTEM.norm>
0

>  <SCORE.heavy>
26

>  <SCORE.norm>
-0.80392

>  <RMSD>
7.685

$$$$
ligand
 OpenBabel02271912153D
libRbt.so/2013.1/901 2013/11/27
 26 28  0  0  0  0  0  0  0  0999 V2000
  131.6131   63.3998   -1.9422 N   0  0  0  0  0  0  0  0  0  0  0  0
  130.3788   63.0295   -1.1881 C   0  0  2  0  0  0  0  0  0  0  0  0
  129.6574   61.9045   -1.8730 C   0  0  0  0  0  0  0  0  0  0  0  0
  130.2487   60.8809   -2.2141 O   0  0  0  0  0  0  0  0  0  0  0  0
  129.4504   64.2352   -1.0695 C   0  0  0  0  0  0  0  0  0  0  0  0
  129.1168   64.8761   -2.4131 C   0  0  0  0  0  0  0  0  0  0  0  0
  127.7755   66.0044   -2.2256 S   0  0  0  0  0  0  0  0  0  0  0  0
  128.0128   67.1012   -3.5864 C   0  0  0  0  0  0  0  0  0  0  0  0
  127.2085   68.3893   -3.4197 C   0  0  1  0  0  0  0  0  0  0  0  0
  127.5638   69.0539   -2.2054 O   0  0  0  0  0  0  0  0  0  0  0  0
  127.5037   69.3468   -4.5628 C   0  0  1  0  0  0  0  0  0  0  0  0
  126.2786   69.8312   -5.1213 O   0  0  0  0  0  0  0  0  0  0  0  0
  128.3203   70.4770   -3.9615 C   0  0  1  0  0  0  0  0  0  0  0  0
  127.7280   71.7521   -4.2328 O   0  0  0  0  0  0  0  0  0  0  0  0
  128.3477   70.2262   -2.4584 C   0  0  2  0  0  0  0  0  0  0  0  0
  128.4548   61.9853   -2.1189 O   0  0  0  0  0  0  0  0  0  0  0  0
  131.6602   67.2445    0.3879 N   0  0  0  0  0  0  0  0  0  0  0  0
  130.3403   67.0881    0.1616 C   0  0  0  0  0  0  0  0  0  0  0  0
  129.6123   67.9356   -0.5943 N   0  0  0  0  0  0  0  0  0  0  0  0
  130.1783   69.0233   -1.1837 C   0  0  0  0  0  0  0  0  0  0  0  0
  131.6186   69.2590   -0.9808 C   0  0  0  0  0  0  0  0  0  0  0  0
  132.3539   68.2822   -0.1382 C   0  0  0  0  0  0  0  0  0  0  0  0
  133.6792   68.4300    0.0984 N   0  0  0  0  0  0  0  0  0  0  0  0
  131.9288   70.3770   -1.6591 N   0  0  0  0  0  0  0  0  0  0  0  0
  130.7893   70.8229   -2.2438 C   0  0  0  0  0  0  0  0  0  0  0  0
  129.7416   70.0221   -1.9644 N   0  0  0  0  0  0  0  0  0  0  0  0
  2  1  1  6  0  0  0
  2  3  1  0  0  0  0
  2  5  1  0  0  0  0
  3  4  1  0  0  0  0
  3 16  1  0  0  0  0
  5  6  1  0  0  0  0
  6  7  1  0  0  0  0
  7  8  1  0  0  0  0
  9  8  1  6  0  0  0
  9 10  1  0  0  0  0
  9 11  1  0  0  0  0
 10 15  1  0  0  0  0
 11 12  1  1  0  0  0
 11 13  1  0  0  0  0
 13 14  1  1  0  0  0
 13 15  1  0  0  0  0
 15 26  1  6  0  0  0
 17 18  2  0  0  0  0
 17 22  1  0  0  0  0
 18 19  1  0  0  0  0
 19 20  2  0  0  0  0
 20 21  1  0  0  0  0
 20 26  1  0  0  0  0
 21 22  2  0  0  0  0
 21 24  1  0  0  0  0
 22 23  1  0  0  0  0
 24 25  2  0  0  0  0
 25 26  1  0  0  0  0
M  END
>  <CHROM.1>
50.03415470,54.07122319,167.16493431,155.93143360,-164.07344954,57.76481984
-11.51548913,129.44705400,67.23863267,-2.08447213,-1.37968935,-0.61129372
-0.07499821

>  <Name>
ligand

>  <RI>
0

>  <Rbt.Current_Directory>
/home/itssahil/PROJECTS/Mol_Feturizer/Test_systems_manuscript/rnas/3npn

>  <Rbt.Executable>
rbdock ($Id: //depot/dev/client3/rdock/2013.1/src/exe/rbdock.cxx#4 $)

>  <Rbt.Library>
libRbt.so (2013.1, Build901 2013/11/27)

>  <Rbt.Parameter_File>
/export/apps/rDock/src/rDock_2013.1_src/data/scripts/dock_solv.prm

>  <Rbt.Receptor>
prm/pocket_docking_7.prm

>  <SCORE>
-20.6375

>  <SCORE.INTER>
-19.9692

>  <SCORE.INTER.CONST>
1

>  <SCORE.INTER.POLAR>
0

>  <SCORE.INTER.ROT>
7

>  <SCORE.INTER.SOLV>
12.8821

>  <SCORE.INTER.VDW>
-25.8735

>  <SCORE.INTER.norm>
-0.768045

>  <SCORE.INTRA>
-0.747034

>  <SCORE.INTRA.DIHEDRAL>
0.286471

>  <SCORE.INTRA.DIHEDRAL.0>
4.37896

>  <SCORE.INTRA.POLAR>
0

>  <SCORE.INTRA.POLAR.0>
0

>  <SCORE.INTRA.REPUL>
0

>  <SCORE.INTRA.REPUL.0>
0

>  <SCORE.INTRA.SOLV>
-0.0539449

>  <SCORE.INTRA.SOLV.lig_0>
-50.5538

>  <SCORE.INTRA.VDW>
-0.863298

>  <SCORE.INTRA.VDW.0>
-1.30673

>  <SCORE.INTRA.norm>
-0.0287321

>  <SCORE.RESTR>
0.0787611

>  <SCORE.RESTR.CAVITY>
0.0787611

>  <SCORE.RESTR.norm>
0.00302927

>  <SCORE.SYSTEM>
0

>  <SCORE.SYSTEM.CONST>
0

>  <SCORE.SYSTEM.DIHEDRAL>
0

>  <SCORE.SYSTEM.SOLV>
0

>  <SCORE.SYSTEM.norm>
0

>  <SCORE.heavy>
26

>  <SCORE.norm>
-0.793748

>  <RMSD>
7.715

$$$$
ligand
 OpenBabel02271912153D
libRbt.so/2013.1/901 2013/11/27
 26 28  0  0  0  0  0  0  0  0999 V2000
  131.8056   62.0806   -1.9107 N   0  0  0  0  0  0  0  0  0  0  0  0
  130.5573   61.9928   -1.0963 C   0  0  2  0  0  0  0  0  0  0  0  0
  129.4808   61.2695   -1.8533 C   0  0  0  0  0  0  0  0  0  0  0  0
  129.7121   60.2120   -2.4379 O   0  0  0  0  0  0  0  0  0  0  0  0
  130.0699   63.3906   -0.7243 C   0  0  0  0  0  0  0  0  0  0  0  0
  129.6922   64.2410   -1.9333 C   0  0  0  0  0  0  0  0  0  0  0  0
  129.0572   65.7968   -1.4005 S   0  0  0  0  0  0  0  0  0  0  0  0
  128.3226   66.4286   -2.8744 C   0  0  0  0  0  0  0  0  0  0  0  0
  127.7643   67.8355   -2.6681 C   0  0  1  0  0  0  0  0  0  0  0  0
  128.8111   68.7527   -2.3436 O   0  0  0  0  0  0  0  0  0  0  0  0
  127.1055   68.3336   -3.9444 C   0  0  1  0  0  0  0  0  0  0  0  0
  125.8045   68.8517   -3.6509 O   0  0  0  0  0  0  0  0  0  0  0  0
  128.0193   69.4157   -4.4919 C   0  0  1  0  0  0  0  0  0  0  0  0
  127.3087   70.6394   -4.7100 O   0  0  0  0  0  0  0  0  0  0  0  0
  129.1040   69.6250   -3.4417 C   0  0  2  0  0  0  0  0  0  0  0  0
  128.3399   61.7253   -1.9149 O   0  0  0  0  0  0  0  0  0  0  0  0
  132.2123   66.1274   -5.9051 N   0  0  0  0  0  0  0  0  0  0  0  0
  130.9163   66.0248   -5.5479 C   0  0  0  0  0  0  0  0  0  0  0  0
  130.2412   67.0080   -4.9175 N   0  0  0  0  0  0  0  0  0  0  0  0
  130.8416   68.1855   -4.5955 C   0  0  0  0  0  0  0  0  0  0  0  0
  132.2586   68.3698   -4.9550 C   0  0  0  0  0  0  0  0  0  0  0  0
  132.9345   67.2444   -5.6490 C   0  0  0  0  0  0  0  0  0  0  0  0
  134.2366   67.3345   -6.0106 N   0  0  0  0  0  0  0  0  0  0  0  0
  132.6090   69.5983   -4.5376 N   0  0  0  0  0  0  0  0  0  0  0  0
  131.5159   70.1539   -3.9580 C   0  0  0  0  0  0  0  0  0  0  0  0
  130.4590   69.3178   -3.9878 N   0  0  0  0  0  0  0  0  0  0  0  0
  2  1  1  6  0  0  0
  2  3  1  0  0  0  0
  2  5  1  0  0  0  0
  3  4  1  0  0  0  0
  3 16  1  0  0  0  0
  5  6  1  0  0  0  0
  6  7  1  0  0  0  0
  7  8  1  0  0  0  0
  9  8  1  6  0  0  0
  9 10  1  0  0  0  0
  9 11  1  0  0  0  0
 10 15  1  0  0  0  0
 11 12  1  1  0  0  0
 11 13  1  0  0  0  0
 13 14  1  1  0  0  0
 13 15  1  0  0  0  0
 15 26  1  6  0  0  0
 17 18  2  0  0  0  0
 17 22  1  0  0  0  0
 18 19  1  0  0  0  0
 19 20  2  0  0  0  0
 20 21  1  0  0  0  0
 20 26  1  0  0  0  0
 21 22  2  0  0  0  0
 21 24  1  0  0  0  0
 22 23  1  0  0  0  0
 24 25  2  0  0  0  0
 25 26  1  0  0  0  0
M  END
>  <CHROM.1>
46.68183692,62.68600267,176.77925549,-166.29042474,-176.73049421,62.92230155
65.49450940,129.84807227,66.46488457,-3.37829207,-1.55380801,0.40937761,-0.35835333

>  <Name>
ligand

>  <RI>
0

>  <Rbt.Current_Directory>
/home/itssahil/PROJECTS/Mol_Feturizer/Test_systems_manuscript/rnas/3npn

>  <Rbt.Executable>
rbdock ($Id: //depot/dev/client3/rdock/2013.1/src/exe/rbdock.cxx#4 $)

>  <Rbt.Library>
libRbt.so (2013.1, Build901 2013/11/27)

>  <Rbt.Parameter_File>
/export/apps/rDock/src/rDock_2013.1_src/data/scripts/dock_solv.prm

>  <Rbt.Receptor>
prm/pocket_docking_8.prm

>  <SCORE>
-22.0458

>  <SCORE.INTER>
-21.3346

>  <SCORE.INTER.CONST>
1

>  <SCORE.INTER.POLAR>
0

>  <SCORE.INTER.ROT>
7

>  <SCORE.INTER.SOLV>
15.7211

>  <SCORE.INTER.VDW>
-27.7301

>  <SCORE.INTER.norm>
-0.820562

>  <SCORE.INTRA>
-0.711227

>  <SCORE.INTRA.DIHEDRAL>
-1.29405

>  <SCORE.INTRA.DIHEDRAL.0>
4.37896

>  <SCORE.INTRA.POLAR>
0

>  <SCORE.INTRA.POLAR.0>
0

>  <SCORE.INTRA.REPUL>
0

>  <SCORE.INTRA.REPUL.0>
0

>  <SCORE.INTRA.SOLV>
-0.226799

>  <SCORE.INTRA.SOLV.lig_0>
-50.5538

>  <SCORE.INTRA.VDW>
0.0491969

>  <SCORE.INTRA.VDW.0>
-1.30673

>  <SCORE.INTRA.norm>
-0.0273549

>  <SCORE.RESTR>
0

>  <SCORE.RESTR.CAVITY>
0

>  <SCORE.RESTR.norm>
0

>  <SCORE.SYSTEM>
0

>  <SCORE.SYSTEM.CONST>
0

>  <SCORE.SYSTEM.DIHEDRAL>
0

>  <SCORE.SYSTEM.SOLV>
0

>  <SCORE.SYSTEM.norm>
0

>  <SCORE.heavy>
26

>  <SCORE.norm>
-0.847917

>  <RMSD>
7.741

$$$$
ligand
 OpenBabel02271912153D
libRbt.so/2013.1/901 2013/11/27
 26 28  0  0  0  0  0  0  0  0999 V2000
  130.4412   66.2044   -0.2565 N   0  0  0  0  0  0  0  0  0  0  0  0
  130.9345   65.0076   -1.0005 C   0  0  2  0  0  0  0  0  0  0  0  0
  131.6006   65.4184   -2.2822 C   0  0  0  0  0  0  0  0  0  0  0  0
  132.3274   64.6423   -2.9011 O   0  0  0  0  0  0  0  0  0  0  0  0
  129.7766   64.0613   -1.3063 C   0  0  0  0  0  0  0  0  0  0  0  0
  128.8367   64.5854   -2.3877 C   0  0  0  0  0  0  0  0  0  0  0  0
  128.0787   66.0839   -1.8521 S   0  0  0  0  0  0  0  0  0  0  0  0
  128.4367   67.1841   -3.1835 C   0  0  0  0  0  0  0  0  0  0  0  0
  127.6534   68.4900   -3.0624 C   0  0  1  0  0  0  0  0  0  0  0  0
  128.3122   69.3946   -2.1735 O   0  0  0  0  0  0  0  0  0  0  0  0
  127.5577   69.1749   -4.4162 C   0  0  1  0  0  0  0  0  0  0  0  0
  126.2014   69.5465   -4.6794 O   0  0  0  0  0  0  0  0  0  0  0  0
  128.4573   70.3953   -4.3320 C   0  0  1  0  0  0  0  0  0  0  0  0
  127.7504   71.5912   -4.6788 O   0  0  0  0  0  0  0  0  0  0  0  0
  128.9311   70.4730   -2.8854 C   0  0  2  0  0  0  0  0  0  0  0  0
  131.4419   66.5493   -2.7395 O   0  0  0  0  0  0  0  0  0  0  0  0
  133.3827   68.5550   -4.9993 N   0  0  0  0  0  0  0  0  0  0  0  0
  132.1070   68.4257   -5.4161 C   0  0  0  0  0  0  0  0  0  0  0  0
  131.0573   68.9756   -4.7714 N   0  0  0  0  0  0  0  0  0  0  0  0
  131.2269   69.7066   -3.6368 C   0  0  0  0  0  0  0  0  0  0  0  0
  132.5948   69.8910   -3.1210 C   0  0  0  0  0  0  0  0  0  0  0  0
  133.6993   69.2577   -3.8853 C   0  0  0  0  0  0  0  0  0  0  0  0
  134.9844   69.3784   -3.4753 N   0  0  0  0  0  0  0  0  0  0  0  0
  132.4938   70.6413   -2.0106 N   0  0  0  0  0  0  0  0  0  0  0  0
  131.1779   70.9129   -1.8262 C   0  0  0  0  0  0  0  0  0  0  0  0
  130.4165   70.3586   -2.7906 N   0  0  0  0  0  0  0  0  0  0  0  0
  2  1  1  6  0  0  0
  2  3  1  0  0  0  0
  2  5  1  0  0  0  0
  3  4  1  0  0  0  0
  3 16  1  0  0  0  0
  5  6  1  0  0  0  0
  6  7  1  0  0  0  0
  7  8  1  0  0  0  0
  9  8  1  6  0  0  0
  9 10  1  0  0  0  0
  9 11  1  0  0  0  0
 10 15  1  0  0  0  0
 11 12  1  1  0  0  0
 11 13  1  0  0  0  0
 13 14  1  1  0  0  0
 13 15  1  0  0  0  0
 15 26  1  6  0  0  0
 17 18  2  0  0  0  0
 17 22  1  0  0  0  0
 18 19  1  0  0  0  0
 19 20  2  0  0  0  0
 20 21  1  0  0  0  0
 20 26  1  0  0  0  0
 21 22  2  0  0  0  0
 21 24  1  0  0  0  0
 22 23  1  0  0  0  0
 24 25  2  0  0  0  0
 25 26  1  0  0  0  0
M  END
>  <CHROM.1>
163.90124393,72.22849679,-62.59938829,126.90039819,169.43012762,82.60858432
90.36192483,130.20605419,68.13506996,-3.02008550,-1.50669716,0.01824074,-0.37242727

>  <Name>
ligand

>  <RI>
0

>  <Rbt.Current_Directory>
/home/itssahil/PROJECTS/Mol_Feturizer/Test_systems_manuscript/rnas/3npn

>  <Rbt.Executable>
rbdock ($Id: //depot/dev/client3/rdock/2013.1/src/exe/rbdock.cxx#4 $)

>  <Rbt.Library>
libRbt.so (2013.1, Build901 2013/11/27)

>  <Rbt.Parameter_File>
/export/apps/rDock/src/rDock_2013.1_src/data/scripts/dock_solv.prm

>  <Rbt.Receptor>
prm/pocket_docking_6.prm

>  <SCORE>
-11.2289

>  <SCORE.INTER>
-11.7136

>  <SCORE.INTER.CONST>
1

>  <SCORE.INTER.POLAR>
0

>  <SCORE.INTER.ROT>
7

>  <SCORE.INTER.SOLV>
10.797

>  <SCORE.INTER.VDW>
-19.6747

>  <SCORE.INTER.norm>
-0.450523

>  <SCORE.INTRA>
0.484663

>  <SCORE.INTRA.DIHEDRAL>
3.05297

>  <SCORE.INTRA.DIHEDRAL.0>
4.37896

>  <SCORE.INTRA.POLAR>
0

>  <SCORE.INTRA.POLAR.0>
0

>  <SCORE.INTRA.REPUL>
0.00132454

>  <SCORE.INTRA.REPUL.0>
0

>  <SCORE.INTRA.SOLV>
1.84891

>  <SCORE.INTRA.SOLV.lig_0>
-50.5538

>  <SCORE.INTRA.VDW>
-1.9729

>  <SCORE.INTRA.VDW.0>
-1.30673

>  <SCORE.INTRA.norm>
0.0186409

>  <SCORE.RESTR>
0

>  <SCORE.RESTR.CAVITY>
0

>  <SCORE.RESTR.norm>
0

>  <SCORE.SYSTEM>
0

>  <SCORE.SYSTEM.CONST>
0

>  <SCORE.SYSTEM.DIHEDRAL>
0

>  <SCORE.SYSTEM.SOLV>
0

>  <SCORE.SYSTEM.norm>
0

>  <SCORE.heavy>
26

>  <SCORE.norm>
-0.431882

>  <RMSD>
7.742

$$$$
ligand
 OpenBabel02271912153D
libRbt.so/2013.1/901 2013/11/27
 26 28  0  0  0  0  0  0  0  0999 V2000
  131.9896   59.8461   -2.3850 N   0  0  0  0  0  0  0  0  0  0  0  0
  130.7786   59.5558   -1.5614 C   0  0  2  0  0  0  0  0  0  0  0  0
  130.2918   58.1571   -1.8103 C   0  0  0  0  0  0  0  0  0  0  0  0
  130.3782   57.2876   -0.9441 O   0  0  0  0  0  0  0  0  0  0  0  0
  129.6671   60.5498   -1.8876 C   0  0  0  0  0  0  0  0  0  0  0  0
  130.0319   61.9942   -1.5587 C   0  0  0  0  0  0  0  0  0  0  0  0
  128.6318   63.0382   -1.7979 S   0  0  0  0  0  0  0  0  0  0  0  0
  129.3662   64.5168   -2.4188 C   0  0  0  0  0  0  0  0  0  0  0  0
  128.3449   65.6466   -2.5389 C   0  0  1  0  0  0  0  0  0  0  0  0
  128.0733   66.2211   -1.2588 O   0  0  0  0  0  0  0  0  0  0  0  0
  128.8869   66.7551   -3.4266 C   0  0  1  0  0  0  0  0  0  0  0  0
  127.9121   67.1111   -4.4116 O   0  0  0  0  0  0  0  0  0  0  0  0
  129.1882   67.9215   -2.5024 C   0  0  1  0  0  0  0  0  0  0  0  0
  128.5317   69.1172   -2.9379 O   0  0  0  0  0  0  0  0  0  0  0  0
  128.6709   67.5164   -1.1270 C   0  0  2  0  0  0  0  0  0  0  0  0
  129.8022   57.8448   -2.8947 O   0  0  0  0  0  0  0  0  0  0  0  0
  133.2492   65.3152    0.3421 N   0  0  0  0  0  0  0  0  0  0  0  0
  132.4797   65.0624   -0.7357 C   0  0  0  0  0  0  0  0  0  0  0  0
  131.3227   65.7083   -0.9884 N   0  0  0  0  0  0  0  0  0  0  0  0
  130.8521   66.6719   -0.1513 C   0  0  0  0  0  0  0  0  0  0  0  0
  131.6407   67.0025    1.0487 C   0  0  0  0  0  0  0  0  0  0  0  0
  132.9040   66.2509    1.2588 C   0  0  0  0  0  0  0  0  0  0  0  0
  133.6840   66.4941    2.3389 N   0  0  0  0  0  0  0  0  0  0  0  0
  130.9733   67.9719    1.6976 N   0  0  0  0  0  0  0  0  0  0  0  0
  129.8533   68.2391    0.9809 C   0  0  0  0  0  0  0  0  0  0  0  0
  129.7735   67.4678   -0.1218 N   0  0  0  0  0  0  0  0  0  0  0  0
  2  1  1  6  0  0  0
  2  3  1  0  0  0  0
  2  5  1  0  0  0  0
  3  4  1  0  0  0  0
  3 16  1  0  0  0  0
  5  6  1  0  0  0  0
  6  7  1  0  0  0  0
  7  8  1  0  0  0  0
  9  8  1  1  0  0  0
  9 10  1  0  0  0  0
  9 11  1  0  0  0  0
 10 15  1  0  0  0  0
 11 12  1  6  0  0  0
 11 13  1  0  0  0  0
 13 14  1  6  0  0  0
 13 15  1  0  0  0  0
 15 26  1  1  0  0  0
 17 18  2  0  0  0  0
 17 22  1  0  0  0  0
 18 19  1  0  0  0  0
 19 20  2  0  0  0  0
 20 21  1  0  0  0  0
 20 26  1  0  0  0  0
 21 22  2  0  0  0  0
 21 24  1  0  0  0  0
 22 23  1  0  0  0  0
 24 25  2  0  0  0  0
 25 26  1  0  0  0  0
M  END
>  <CHROM.1>
110.93691665,-62.60611686,-173.69087778,-144.16665625,-172.81634674,77.49429680
57.28193945,130.14579756,64.45149511,-1.23842507,-1.53405878,-0.76623202
0.16217182

>  <Name>
ligand

>  <RI>
0

>  <Rbt.Current_Directory>
/home/itssahil/PROJECTS/Mol_Feturizer/Test_systems_manuscript/rnas/3npn

>  <Rbt.Executable>
rbdock ($Id: //depot/dev/client3/rdock/2013.1/src/exe/rbdock.cxx#4 $)

>  <Rbt.Library>
libRbt.so (2013.1, Build901 2013/11/27)

>  <Rbt.Parameter_File>
/export/apps/rDock/src/rDock_2013.1_src/data/scripts/dock_solv.prm

>  <Rbt.Receptor>
prm/pocket_docking_5.prm

>  <SCORE>
-22.0622

>  <SCORE.INTER>
-21.5585

>  <SCORE.INTER.CONST>
1

>  <SCORE.INTER.POLAR>
0

>  <SCORE.INTER.ROT>
7

>  <SCORE.INTER.SOLV>
13.0366

>  <SCORE.INTER.VDW>
-26.9845

>  <SCORE.INTER.norm>
-0.829171

>  <SCORE.INTRA>
-0.503723

>  <SCORE.INTRA.DIHEDRAL>
1.12628

>  <SCORE.INTRA.DIHEDRAL.0>
4.37896

>  <SCORE.INTRA.POLAR>
0

>  <SCORE.INTRA.POLAR.0>
0

>  <SCORE.INTRA.REPUL>
0

>  <SCORE.INTRA.REPUL.0>
0

>  <SCORE.INTRA.SOLV>
-0.25685

>  <SCORE.INTRA.SOLV.lig_0>
-50.5538

>  <SCORE.INTRA.VDW>
-0.938437

>  <SCORE.INTRA.VDW.0>
-1.30673

>  <SCORE.INTRA.norm>
-0.019374

>  <SCORE.RESTR>
0

>  <SCORE.RESTR.CAVITY>
0

>  <SCORE.RESTR.norm>
0

>  <SCORE.SYSTEM>
0

>  <SCORE.SYSTEM.CONST>
0

>  <SCORE.SYSTEM.DIHEDRAL>
0

>  <SCORE.SYSTEM.SOLV>
0

>  <SCORE.SYSTEM.norm>
0

>  <SCORE.heavy>
26

>  <SCORE.norm>
-0.848545

>  <RMSD>
7.765

$$$$
ligand
 OpenBabel02271912153D
libRbt.so/2013.1/901 2013/11/27
 26 28  0  0  0  0  0  0  0  0999 V2000
  128.3219   61.3047   -2.0171 N   0  0  0  0  0  0  0  0  0  0  0  0
  129.8119   61.3159   -2.1130 C   0  0  2  0  0  0  0  0  0  0  0  0
  130.3749   59.9675   -1.7665 C   0  0  0  0  0  0  0  0  0  0  0  0
  131.5627   59.8266   -1.4784 O   0  0  0  0  0  0  0  0  0  0  0  0
  130.3938   62.3696   -1.1745 C   0  0  0  0  0  0  0  0  0  0  0  0
  130.2287   63.7959   -1.6901 C   0  0  0  0  0  0  0  0  0  0  0  0
  128.5300   64.1202   -2.0310 S   0  0  0  0  0  0  0  0  0  0  0  0
  128.4445   65.8758   -1.8830 C   0  0  0  0  0  0  0  0  0  0  0  0
  128.6072   66.5647   -3.2367 C   0  0  1  0  0  0  0  0  0  0  0  0
  128.4941   67.9827   -3.0995 O   0  0  0  0  0  0  0  0  0  0  0  0
  129.9831   66.2741   -3.8141 C   0  0  1  0  0  0  0  0  0  0  0  0
  129.8597   65.8374   -5.1710 O   0  0  0  0  0  0  0  0  0  0  0  0
  130.7587   67.5763   -3.7224 C   0  0  1  0  0  0  0  0  0  0  0  0
  131.2909   67.9589   -4.9954 O   0  0  0  0  0  0  0  0  0  0  0  0
  129.7664   68.6267   -3.2373 C   0  0  2  0  0  0  0  0  0  0  0  0
  129.6599   58.9665   -1.7725 O   0  0  0  0  0  0  0  0  0  0  0  0
  131.2625   67.7237    1.7537 N   0  0  0  0  0  0  0  0  0  0  0  0
  130.9311   66.8485    0.7831 C   0  0  0  0  0  0  0  0  0  0  0  0
  130.5648   67.2238   -0.4598 N   0  0  0  0  0  0  0  0  0  0  0  0
  130.5042   68.5357   -0.8145 C   0  0  0  0  0  0  0  0  0  0  0  0
  130.8530   69.5505    0.1954 C   0  0  0  0  0  0  0  0  0  0  0  0
  131.2484   69.0613    1.5405 C   0  0  0  0  0  0  0  0  0  0  0  0
  131.5809   69.9306    2.5243 N   0  0  0  0  0  0  0  0  0  0  0  0
  130.7189   70.7498   -0.3962 N   0  0  0  0  0  0  0  0  0  0  0  0
  130.3165   70.5270   -1.6720 C   0  0  0  0  0  0  0  0  0  0  0  0
  130.1854   69.2102   -1.9286 N   0  0  0  0  0  0  0  0  0  0  0  0
  2  1  1  1  0  0  0
  2  3  1  0  0  0  0
  2  5  1  0  0  0  0
  3  4  1  0  0  0  0
  3 16  1  0  0  0  0
  5  6  1  0  0  0  0
  6  7  1  0  0  0  0
  7  8  1  0  0  0  0
  9  8  1  1  0  0  0
  9 10  1  0  0  0  0
  9 11  1  0  0  0  0
 10 15  1  0  0  0  0
 11 12  1  6  0  0  0
 11 13  1  0  0  0  0
 13 14  1  6  0  0  0
 13 15  1  0  0  0  0
 15 26  1  1  0  0  0
 17 18  2  0  0  0  0
 17 22  1  0  0  0  0
 18 19  1  0  0  0  0
 19 20  2  0  0  0  0
 20 21  1  0  0  0  0
 20 26  1  0  0  0  0
 21 22  2  0  0  0  0
 21 24  1  0  0  0  0
 22 23  1  0  0  0  0
 24 25  2  0  0  0  0
 25 26  1  0  0  0  0
M  END
>  <CHROM.1>
-162.89398682,-75.44530118,55.01411791,155.34361337,94.59930131,178.23498747
66.62936810,130.07294730,65.87748006,-1.68925521,-1.92531386,-1.29723384
-0.19404251

>  <Name>
ligand

>  <RI>
0

>  <Rbt.Current_Directory>
/home/itssahil/PROJECTS/Mol_Feturizer/Test_systems_manuscript/rnas/3npn

>  <Rbt.Executable>
rbdock ($Id: //depot/dev/client3/rdock/2013.1/src/exe/rbdock.cxx#4 $)

>  <Rbt.Library>
libRbt.so (2013.1, Build901 2013/11/27)

>  <Rbt.Parameter_File>
/export/apps/rDock/src/rDock_2013.1_src/data/scripts/dock_solv.prm

>  <Rbt.Receptor>
prm/pocket_docking_7.prm

>  <SCORE>
-15.1013

>  <SCORE.INTER>
-16.0026

>  <SCORE.INTER.CONST>
1

>  <SCORE.INTER.POLAR>
0

>  <SCORE.INTER.ROT>
7

>  <SCORE.INTER.SOLV>
16.6637

>  <SCORE.INTER.VDW>
-24.4896

>  <SCORE.INTER.norm>
-0.615485

>  <SCORE.INTRA>
0.901285

>  <SCORE.INTRA.DIHEDRAL>
1.64521

>  <SCORE.INTRA.DIHEDRAL.0>
4.37896

>  <SCORE.INTRA.POLAR>
0

>  <SCORE.INTRA.POLAR.0>
0

>  <SCORE.INTRA.REPUL>
0

>  <SCORE.INTRA.REPUL.0>
0

>  <SCORE.INTRA.SOLV>
1.41317

>  <SCORE.INTRA.SOLV.lig_0>
-50.5538

>  <SCORE.INTRA.VDW>
-0.627907

>  <SCORE.INTRA.VDW.0>
-1.30673

>  <SCORE.INTRA.norm>
0.0346648

>  <SCORE.RESTR>
0

>  <SCORE.RESTR.CAVITY>
0

>  <SCORE.RESTR.norm>
0

>  <SCORE.SYSTEM>
0

>  <SCORE.SYSTEM.CONST>
0

>  <SCORE.SYSTEM.DIHEDRAL>
0

>  <SCORE.SYSTEM.SOLV>
0

>  <SCORE.SYSTEM.norm>
0

>  <SCORE.heavy>
26

>  <SCORE.norm>
-0.58082

>  <RMSD>
7.870

$$$$
ligand
 OpenBabel02271912153D
libRbt.so/2013.1/901 2013/11/27
 26 28  0  0  0  0  0  0  0  0999 V2000
  129.6071   57.5227   -3.1479 N   0  0  0  0  0  0  0  0  0  0  0  0
  130.2222   58.7390   -2.5384 C   0  0  2  0  0  0  0  0  0  0  0  0
  130.9286   58.3910   -1.2596 C   0  0  0  0  0  0  0  0  0  0  0  0
  130.6816   57.3467   -0.6578 O   0  0  0  0  0  0  0  0  0  0  0  0
  129.1510   59.7903   -2.2611 C   0  0  0  0  0  0  0  0  0  0  0  0
  129.7240   61.1506   -1.8755 C   0  0  0  0  0  0  0  0  0  0  0  0
  128.4480   62.3666   -1.8865 S   0  0  0  0  0  0  0  0  0  0  0  0
  129.3626   63.8731   -1.8158 C   0  0  0  0  0  0  0  0  0  0  0  0
  128.5475   65.0533   -2.3417 C   0  0  1  0  0  0  0  0  0  0  0  0
  128.2036   65.9443   -1.2785 O   0  0  0  0  0  0  0  0  0  0  0  0
  129.3600   65.8467   -3.3522 C   0  0  1  0  0  0  0  0  0  0  0  0
  128.5846   66.0691   -4.5339 O   0  0  0  0  0  0  0  0  0  0  0  0
  129.7126   67.1564   -2.6695 C   0  0  1  0  0  0  0  0  0  0  0  0
  129.3054   68.2820   -3.4553 O   0  0  0  0  0  0  0  0  0  0  0  0
  128.9679   67.1545   -1.3397 C   0  0  2  0  0  0  0  0  0  0  0  0
  131.7672   59.1507   -0.7770 O   0  0  0  0  0  0  0  0  0  0  0  0
  133.0576   64.9451    1.1817 N   0  0  0  0  0  0  0  0  0  0  0  0
  132.4211   64.5479    0.0614 C   0  0  0  0  0  0  0  0  0  0  0  0
  131.3804   65.2166   -0.4765 N   0  0  0  0  0  0  0  0  0  0  0  0
  130.8991   66.3545    0.0931 C   0  0  0  0  0  0  0  0  0  0  0  0
  131.5456   66.8497    1.3212 C   0  0  0  0  0  0  0  0  0  0  0  0
  132.6863   66.0616    1.8528 C   0  0  0  0  0  0  0  0  0  0  0  0
  133.3319   66.4490    2.9785 N   0  0  0  0  0  0  0  0  0  0  0  0
  130.8967   67.9717    1.6767 N   0  0  0  0  0  0  0  0  0  0  0  0
  129.9178   68.1783    0.7611 C   0  0  0  0  0  0  0  0  0  0  0  0
  129.9122   67.2183   -0.1852 N   0  0  0  0  0  0  0  0  0  0  0  0
  2  1  1  1  0  0  0
  2  3  1  0  0  0  0
  2  5  1  0  0  0  0
  3  4  1  0  0  0  0
  3 16  1  0  0  0  0
  5  6  1  0  0  0  0
  6  7  1  0  0  0  0
  7  8  1  0  0  0  0
  9  8  1  1  0  0  0
  9 10  1  0  0  0  0
  9 11  1  0  0  0  0
 10 15  1  0  0  0  0
 11 12  1  6  0  0  0
 11 13  1  0  0  0  0
 13 14  1  6  0  0  0
 13 15  1  0  0  0  0
 15 26  1  1  0  0  0
 17 18  2  0  0  0  0
 17 22  1  0  0  0  0
 18 19  1  0  0  0  0
 19 20  2  0  0  0  0
 20 21  1  0  0  0  0
 20 26  1  0  0  0  0
 21 22  2  0  0  0  0
 21 24  1  0  0  0  0
 22 23  1  0  0  0  0
 24 25  2  0  0  0  0
 25 26  1  0  0  0  0
M  END
>  <CHROM.1>
-18.78268058,-169.56565103,168.89544019,-166.69519760,158.12201275,110.67242464
61.07229967,130.20302665,63.99512769,-1.09819164,1.64284036,0.88858903,-3.01132139

>  <Name>
ligand

>  <RI>
0

>  <Rbt.Current_Directory>
/home/itssahil/PROJECTS/Mol_Feturizer/Test_systems_manuscript/rnas/3npn

>  <Rbt.Executable>
rbdock ($Id: //depot/dev/client3/rdock/2013.1/src/exe/rbdock.cxx#4 $)

>  <Rbt.Library>
libRbt.so (2013.1, Build901 2013/11/27)

>  <Rbt.Parameter_File>
/export/apps/rDock/src/rDock_2013.1_src/data/scripts/dock_solv.prm

>  <Rbt.Receptor>
prm/pocket_docking_7.prm

>  <SCORE>
-22.2472

>  <SCORE.INTER>
-23.3208

>  <SCORE.INTER.CONST>
1

>  <SCORE.INTER.POLAR>
0

>  <SCORE.INTER.ROT>
7

>  <SCORE.INTER.SOLV>
18.0043

>  <SCORE.INTER.VDW>
-29.8153

>  <SCORE.INTER.norm>
-0.896953

>  <SCORE.INTRA>
1.07353

>  <SCORE.INTRA.DIHEDRAL>
5.08194

>  <SCORE.INTRA.DIHEDRAL.0>
4.37896

>  <SCORE.INTRA.POLAR>
0

>  <SCORE.INTRA.POLAR.0>
0

>  <SCORE.INTRA.REPUL>
0

>  <SCORE.INTRA.REPUL.0>
0

>  <SCORE.INTRA.SOLV>
-0.982206

>  <SCORE.INTRA.SOLV.lig_0>
-50.5538

>  <SCORE.INTRA.VDW>
-0.976331

>  <SCORE.INTRA.VDW.0>
-1.30673

>  <SCORE.INTRA.norm>
0.0412898

>  <SCORE.RESTR>
0

>  <SCORE.RESTR.CAVITY>
0

>  <SCORE.RESTR.norm>
0

>  <SCORE.SYSTEM>
0

>  <SCORE.SYSTEM.CONST>
0

>  <SCORE.SYSTEM.DIHEDRAL>
0

>  <SCORE.SYSTEM.SOLV>
0

>  <SCORE.SYSTEM.norm>
0

>  <SCORE.heavy>
26

>  <SCORE.norm>
-0.855663

>  <RMSD>
7.881

$$$$
ligand
 OpenBabel02271912153D
libRbt.so/2013.1/901 2013/11/27
 26 28  0  0  0  0  0  0  0  0999 V2000
  129.6130   57.5484   -3.1454 N   0  0  0  0  0  0  0  0  0  0  0  0
  130.2357   58.7535   -2.5216 C   0  0  2  0  0  0  0  0  0  0  0  0
  130.9620   58.3817   -1.2608 C   0  0  0  0  0  0  0  0  0  0  0  0
  131.8592   59.0914   -0.8081 O   0  0  0  0  0  0  0  0  0  0  0  0
  129.1673   59.7974   -2.2074 C   0  0  0  0  0  0  0  0  0  0  0  0
  129.7442   61.1568   -1.8244 C   0  0  0  0  0  0  0  0  0  0  0  0
  128.4770   62.3816   -1.8645 S   0  0  0  0  0  0  0  0  0  0  0  0
  129.4034   63.8825   -1.8526 C   0  0  0  0  0  0  0  0  0  0  0  0
  128.5782   65.0589   -2.3712 C   0  0  1  0  0  0  0  0  0  0  0  0
  128.2160   65.9337   -1.3007 O   0  0  0  0  0  0  0  0  0  0  0  0
  129.3886   65.8732   -3.3667 C   0  0  1  0  0  0  0  0  0  0  0  0
  128.6193   66.0998   -4.5516 O   0  0  0  0  0  0  0  0  0  0  0  0
  129.7207   67.1791   -2.6668 C   0  0  1  0  0  0  0  0  0  0  0  0
  129.3059   68.3087   -3.4428 O   0  0  0  0  0  0  0  0  0  0  0  0
  128.9664   67.1534   -1.3426 C   0  0  2  0  0  0  0  0  0  0  0  0
  130.6818   57.3488   -0.6545 O   0  0  0  0  0  0  0  0  0  0  0  0
  133.0364   64.9402    1.2070 N   0  0  0  0  0  0  0  0  0  0  0  0
  132.4091   64.5451    0.0810 C   0  0  0  0  0  0  0  0  0  0  0  0
  131.3724   65.2146   -0.4639 N   0  0  0  0  0  0  0  0  0  0  0  0
  130.8863   66.3511    0.1041 C   0  0  0  0  0  0  0  0  0  0  0  0
  131.5228   66.8442    1.3382 C   0  0  0  0  0  0  0  0  0  0  0  0
  132.6594   66.0553    1.8774 C   0  0  0  0  0  0  0  0  0  0  0  0
  133.2959   66.4407    3.0090 N   0  0  0  0  0  0  0  0  0  0  0  0
  130.8707   67.9652    1.6907 N   0  0  0  0  0  0  0  0  0  0  0  0
  129.8991   68.1734    0.7677 C   0  0  0  0  0  0  0  0  0  0  0  0
  129.9014   67.2153   -0.1805 N   0  0  0  0  0  0  0  0  0  0  0  0
  2  1  1  1  0  0  0
  2  3  1  0  0  0  0
  2  5  1  0  0  0  0
  3  4  1  0  0  0  0
  3 16  1  0  0  0  0
  5  6  1  0  0  0  0
  6  7  1  0  0  0  0
  7  8  1  0  0  0  0
  9  8  1  1  0  0  0
  9 10  1  0  0  0  0
  9 11  1  0  0  0  0
 10 15  1  0  0  0  0
 11 12  1  6  0  0  0
 11 13  1  0  0  0  0
 13 14  1  6  0  0  0
 13 15  1  0  0  0  0
 15 26  1  1  0  0  0
 17 18  2  0  0  0  0
 17 22  1  0  0  0  0
 18 19  1  0  0  0  0
 19 20  2  0  0  0  0
 20 21  1  0  0  0  0
 20 26  1  0  0  0  0
 21 22  2  0  0  0  0
 21 24  1  0  0  0  0
 22 23  1  0  0  0  0
 24 25  2  0  0  0  0
 25 26  1  0  0  0  0
M  END
>  <CHROM.1>
157.77308456,-168.69275984,166.27948951,-164.69048823,159.82602300,107.55292532
60.22314019,130.21161677,63.99819417,-1.09123877,1.63205547,0.89675883,-3.00718211

>  <Name>
ligand

>  <RI>
0

>  <Rbt.Current_Directory>
/home/itssahil/PROJECTS/Mol_Feturizer/Test_systems_manuscript/rnas/3npn

>  <Rbt.Executable>
rbdock ($Id: //depot/dev/client3/rdock/2013.1/src/exe/rbdock.cxx#4 $)

>  <Rbt.Library>
libRbt.so (2013.1, Build901 2013/11/27)

>  <Rbt.Parameter_File>
/export/apps/rDock/src/rDock_2013.1_src/data/scripts/dock_solv.prm

>  <Rbt.Receptor>
prm/pocket_docking_5.prm

>  <SCORE>
-22.2719

>  <SCORE.INTER>
-23.3834

>  <SCORE.INTER.CONST>
1

>  <SCORE.INTER.POLAR>
0

>  <SCORE.INTER.ROT>
7

>  <SCORE.INTER.SOLV>
17.9015

>  <SCORE.INTER.VDW>
-29.8228

>  <SCORE.INTER.norm>
-0.899361

>  <SCORE.INTRA>
1.11154

>  <SCORE.INTRA.DIHEDRAL>
5.17693

>  <SCORE.INTRA.DIHEDRAL.0>
4.37896

>  <SCORE.INTRA.POLAR>
0

>  <SCORE.INTRA.POLAR.0>
0

>  <SCORE.INTRA.REPUL>
0

>  <SCORE.INTRA.REPUL.0>
0

>  <SCORE.INTRA.SOLV>
-0.974157

>  <SCORE.INTRA.SOLV.lig_0>
-50.5538

>  <SCORE.INTRA.VDW>
-0.98985

>  <SCORE.INTRA.VDW.0>
-1.30673

>  <SCORE.INTRA.norm>
0.0427514

>  <SCORE.RESTR>
0

>  <SCORE.RESTR.CAVITY>
0

>  <SCORE.RESTR.norm>
0

>  <SCORE.SYSTEM>
0

>  <SCORE.SYSTEM.CONST>
0

>  <SCORE.SYSTEM.DIHEDRAL>
0

>  <SCORE.SYSTEM.SOLV>
0

>  <SCORE.SYSTEM.norm>
0

>  <SCORE.heavy>
26

>  <SCORE.norm>
-0.85661

>  <RMSD>
7.884

$$$$
ligand
 OpenBabel02271912153D
libRbt.so/2013.1/901 2013/11/27
 26 28  0  0  0  0  0  0  0  0999 V2000
  129.4992   57.5705   -3.1631 N   0  0  0  0  0  0  0  0  0  0  0  0
  130.1995   58.7379   -2.5499 C   0  0  2  0  0  0  0  0  0  0  0  0
  130.9205   58.3254   -1.2988 C   0  0  0  0  0  0  0  0  0  0  0  0
  130.6269   57.2885   -0.7053 O   0  0  0  0  0  0  0  0  0  0  0  0
  129.1981   59.8424   -2.2225 C   0  0  0  0  0  0  0  0  0  0  0  0
  129.8580   61.1713   -1.8676 C   0  0  0  0  0  0  0  0  0  0  0  0
  128.6555   62.4602   -1.8693 S   0  0  0  0  0  0  0  0  0  0  0  0
  129.6101   63.8666   -1.3984 C   0  0  0  0  0  0  0  0  0  0  0  0
  128.8260   65.1656   -1.5755 C   0  0  1  0  0  0  0  0  0  0  0  0
  129.2779   66.1591   -0.6528 O   0  0  0  0  0  0  0  0  0  0  0  0
  129.0338   65.7202   -2.9755 C   0  0  1  0  0  0  0  0  0  0  0  0
  127.7703   66.0444   -3.5636 O   0  0  0  0  0  0  0  0  0  0  0  0
  129.8991   66.9572   -2.8113 C   0  0  1  0  0  0  0  0  0  0  0  0
  129.2917   68.1044   -3.4156 O   0  0  0  0  0  0  0  0  0  0  0  0
  130.0436   67.1763   -1.3098 C   0  0  2  0  0  0  0  0  0  0  0  0
  131.8188   59.0235   -0.8309 O   0  0  0  0  0  0  0  0  0  0  0  0
  133.7090   64.5506    1.4531 N   0  0  0  0  0  0  0  0  0  0  0  0
  132.3957   64.2877    1.2990 C   0  0  0  0  0  0  0  0  0  0  0  0
  131.5691   65.0520    0.5558 N   0  0  0  0  0  0  0  0  0  0  0  0
  132.0206   66.1586   -0.0940 C   0  0  0  0  0  0  0  0  0  0  0  0
  133.4467   66.5088    0.0284 C   0  0  0  0  0  0  0  0  0  0  0  0
  134.2948   65.6192    0.8616 C   0  0  0  0  0  0  0  0  0  0  0  0
  135.6146   65.8742    1.0261 N   0  0  0  0  0  0  0  0  0  0  0  0
  133.6370   67.6233   -0.6981 N   0  0  0  0  0  0  0  0  0  0  0  0
  132.4396   67.9621   -1.2374 C   0  0  0  0  0  0  0  0  0  0  0  0
  131.4713   67.0946   -0.8813 N   0  0  0  0  0  0  0  0  0  0  0  0
  2  1  1  1  0  0  0
  2  3  1  0  0  0  0
  2  5  1  0  0  0  0
  3  4  1  0  0  0  0
  3 16  1  0  0  0  0
  5  6  1  0  0  0  0
  6  7  1  0  0  0  0
  7  8  1  0  0  0  0
  9  8  1  6  0  0  0
  9 10  1  0  0  0  0
  9 11  1  0  0  0  0
 10 15  1  0  0  0  0
 11 12  1  1  0  0  0
 11 13  1  0  0  0  0
 13 14  1  6  0  0  0
 13 15  1  0  0  0  0
 15 26  1  1  0  0  0
 17 18  2  0  0  0  0
 17 22  1  0  0  0  0
 18 19  1  0  0  0  0
 19 20  2  0  0  0  0
 20 21  1  0  0  0  0
 20 26  1  0  0  0  0
 21 22  2  0  0  0  0
 21 24  1  0  0  0  0
 22 23  1  0  0  0  0
 24 25  2  0  0  0  0
 25 26  1  0  0  0  0
M  END
>  <CHROM.1>
-19.15108150,-167.93469790,167.08322924,178.48231894,169.67319932,151.95283256
5.38525290,130.78925368,63.88473460,-1.22267659,1.82119261,0.58856042,3.11620389

>  <Name>
ligand

>  <RI>
0

>  <Rbt.Current_Directory>
/home/itssahil/PROJECTS/Mol_Feturizer/Test_systems_manuscript/rnas/3npn

>  <Rbt.Executable>
rbdock ($Id: //depot/dev/client3/rdock/2013.1/src/exe/rbdock.cxx#4 $)

>  <Rbt.Library>
libRbt.so (2013.1, Build901 2013/11/27)

>  <Rbt.Parameter_File>
/export/apps/rDock/src/rDock_2013.1_src/data/scripts/dock_solv.prm

>  <Rbt.Receptor>
prm/pocket_docking_7.prm

>  <SCORE>
-18.7995

>  <SCORE.INTER>
-18.1739

>  <SCORE.INTER.CONST>
1

>  <SCORE.INTER.POLAR>
0

>  <SCORE.INTER.ROT>
7

>  <SCORE.INTER.SOLV>
16.7672

>  <SCORE.INTER.VDW>
-25.9717

>  <SCORE.INTER.norm>
-0.698998

>  <SCORE.INTRA>
-0.625554

>  <SCORE.INTRA.DIHEDRAL>
1.95005

>  <SCORE.INTRA.DIHEDRAL.0>
4.37896

>  <SCORE.INTRA.POLAR>
0

>  <SCORE.INTRA.POLAR.0>
0

>  <SCORE.INTRA.REPUL>
0

>  <SCORE.INTRA.REPUL.0>
0

>  <SCORE.INTRA.SOLV>
-0.8824

>  <SCORE.INTRA.SOLV.lig_0>
-50.5538

>  <SCORE.INTRA.VDW>
-1.15938

>  <SCORE.INTRA.VDW.0>
-1.30673

>  <SCORE.INTRA.norm>
-0.0240598

>  <SCORE.RESTR>
0

>  <SCORE.RESTR.CAVITY>
0

>  <SCORE.RESTR.norm>
0

>  <SCORE.SYSTEM>
0

>  <SCORE.SYSTEM.CONST>
0

>  <SCORE.SYSTEM.DIHEDRAL>
0

>  <SCORE.SYSTEM.SOLV>
0

>  <SCORE.SYSTEM.norm>
0

>  <SCORE.heavy>
26

>  <SCORE.norm>
-0.723058

>  <RMSD>
7.884

$$$$
ligand
 OpenBabel02271912153D
libRbt.so/2013.1/901 2013/11/27
 26 28  0  0  0  0  0  0  0  0999 V2000
  136.9585   63.8121   -4.3098 N   0  0  0  0  0  0  0  0  0  0  0  0
  136.4906   62.5904   -5.0293 C   0  0  2  0  0  0  0  0  0  0  0  0
  135.0535   62.7356   -5.4403 C   0  0  0  0  0  0  0  0  0  0  0  0
  134.4664   63.8120   -5.3389 O   0  0  0  0  0  0  0  0  0  0  0  0
  136.6460   61.3607   -4.1386 C   0  0  0  0  0  0  0  0  0  0  0  0
  135.8805   61.4661   -2.8232 C   0  0  0  0  0  0  0  0  0  0  0  0
  135.7568   59.8775   -2.0694 S   0  0  0  0  0  0  0  0  0  0  0  0
  134.4146   59.1463   -2.9497 C   0  0  0  0  0  0  0  0  0  0  0  0
  133.6181   58.1861   -2.0681 C   0  0  1  0  0  0  0  0  0  0  0  0
  133.2008   58.8329   -0.8640 O   0  0  0  0  0  0  0  0  0  0  0  0
  132.3637   57.7236   -2.7916 C   0  0  1  0  0  0  0  0  0  0  0  0
  132.2574   56.2985   -2.7201 O   0  0  0  0  0  0  0  0  0  0  0  0
  131.2010   58.3992   -2.0862 C   0  0  1  0  0  0  0  0  0  0  0  0
  130.2239   57.4447   -1.6565 O   0  0  0  0  0  0  0  0  0  0  0  0
  131.7959   59.1132   -0.8782 C   0  0  2  0  0  0  0  0  0  0  0  0
  134.4247   61.7744   -5.8805 O   0  0  0  0  0  0  0  0  0  0  0  0
  128.4500   63.0483   -2.0114 N   0  0  0  0  0  0  0  0  0  0  0  0
  128.2659   61.7146   -2.0840 C   0  0  0  0  0  0  0  0  0  0  0  0
  129.2184   60.8162   -1.7595 N   0  0  0  0  0  0  0  0  0  0  0  0
  130.4484   61.2109   -1.3330 C   0  0  0  0  0  0  0  0  0  0  0  0
  130.7227   62.6548   -1.2284 C   0  0  0  0  0  0  0  0  0  0  0  0
  129.6250   63.5828   -1.6010 C   0  0  0  0  0  0  0  0  0  0  0  0
  129.7986   64.9243   -1.5346 N   0  0  0  0  0  0  0  0  0  0  0  0
  131.9865   62.7796   -0.7885 N   0  0  0  0  0  0  0  0  0  0  0  0
  132.4825   61.5276   -0.6275 C   0  0  0  0  0  0  0  0  0  0  0  0
  131.5723   60.5875   -0.9508 N   0  0  0  0  0  0  0  0  0  0  0  0
  2  1  1  1  0  0  0
  2  3  1  0  0  0  0
  2  5  1  0  0  0  0
  3  4  1  0  0  0  0
  3 16  1  0  0  0  0
  5  6  1  0  0  0  0
  6  7  1  0  0  0  0
  7  8  1  0  0  0  0
  9  8  1  6  0  0  0
  9 10  1  0  0  0  0
  9 11  1  0  0  0  0
 10 15  1  0  0  0  0
 11 12  1  1  0  0  0
 11 13  1  0  0  0  0
 13 14  1  1  0  0  0
 13 15  1  0  0  0  0
 15 26  1  6  0  0  0
 17 18  2  0  0  0  0
 17 22  1  0  0  0  0
 18 19  1  0  0  0  0
 19 20  2  0  0  0  0
 20 21  1  0  0  0  0
 20 26  1  0  0  0  0
 21 22  2  0  0  0  0
 21 24  1  0  0  0  0
 22 23  1  0  0  0  0
 24 25  2  0  0  0  0
 25 26  1  0  0  0  0
M  END
>  <CHROM.1>
9.52010971,58.34604780,164.90197623,-80.59238408,-148.12572625,53.52679451
160.93949513,132.79169418,60.87216939,-2.51242238,0.25858148,0.38833978,-0.22762006

>  <Name>
ligand

>  <RI>
0

>  <Rbt.Current_Directory>
/home/itssahil/PROJECTS/Mol_Feturizer/Test_systems_manuscript/rnas/3npn

>  <Rbt.Executable>
rbdock ($Id: //depot/dev/client3/rdock/2013.1/src/exe/rbdock.cxx#4 $)

>  <Rbt.Library>
libRbt.so (2013.1, Build901 2013/11/27)

>  <Rbt.Parameter_File>
/export/apps/rDock/src/rDock_2013.1_src/data/scripts/dock_solv.prm

>  <Rbt.Receptor>
prm/pocket_docking_7.prm

>  <SCORE>
-15.932

>  <SCORE.INTER>
-15.7954

>  <SCORE.INTER.CONST>
1

>  <SCORE.INTER.POLAR>
0

>  <SCORE.INTER.ROT>
7

>  <SCORE.INTER.SOLV>
8.90557

>  <SCORE.INTER.VDW>
-21.7655

>  <SCORE.INTER.norm>
-0.607516

>  <SCORE.INTRA>
-0.136536

>  <SCORE.INTRA.DIHEDRAL>
1.20202

>  <SCORE.INTRA.DIHEDRAL.0>
4.37896

>  <SCORE.INTRA.POLAR>
0

>  <SCORE.INTRA.POLAR.0>
0

>  <SCORE.INTRA.REPUL>
0

>  <SCORE.INTRA.REPUL.0>
0

>  <SCORE.INTRA.SOLV>
-0.112909

>  <SCORE.INTRA.SOLV.lig_0>
-50.5538

>  <SCORE.INTRA.VDW>
-0.68109

>  <SCORE.INTRA.VDW.0>
-1.30673

>  <SCORE.INTRA.norm>
-0.00525137

>  <SCORE.RESTR>
0

>  <SCORE.RESTR.CAVITY>
0

>  <SCORE.RESTR.norm>
0

>  <SCORE.SYSTEM>
0

>  <SCORE.SYSTEM.CONST>
0

>  <SCORE.SYSTEM.DIHEDRAL>
0

>  <SCORE.SYSTEM.SOLV>
0

>  <SCORE.SYSTEM.norm>
0

>  <SCORE.heavy>
26

>  <SCORE.norm>
-0.612768

>  <RMSD>
7.893

$$$$
ligand
 OpenBabel02271912153D
libRbt.so/2013.1/901 2013/11/27
 26 28  0  0  0  0  0  0  0  0999 V2000
  130.6454   65.0744   -1.8947 N   0  0  0  0  0  0  0  0  0  0  0  0
  129.3170   64.5331   -1.4803 C   0  0  2  0  0  0  0  0  0  0  0  0
  129.2806   63.0402   -1.6387 C   0  0  0  0  0  0  0  0  0  0  0  0
  128.2153   62.4370   -1.7604 O   0  0  0  0  0  0  0  0  0  0  0  0
  128.2058   65.1633   -2.3157 C   0  0  0  0  0  0  0  0  0  0  0  0
  128.0387   66.6596   -2.0697 C   0  0  0  0  0  0  0  0  0  0  0  0
  126.4661   67.1948   -2.6594 S   0  0  0  0  0  0  0  0  0  0  0  0
  126.9084   68.3634   -3.9043 C   0  0  0  0  0  0  0  0  0  0  0  0
  127.2946   69.7124   -3.3002 C   0  0  1  0  0  0  0  0  0  0  0  0
  128.5911   69.6464   -2.7026 O   0  0  0  0  0  0  0  0  0  0  0  0
  127.3487   70.7786   -4.3824 C   0  0  1  0  0  0  0  0  0  0  0  0
  126.6065   71.9300   -3.9694 O   0  0  0  0  0  0  0  0  0  0  0  0
  128.8187   71.1088   -4.5711 C   0  0  1  0  0  0  0  0  0  0  0  0
  129.0619   72.5127   -4.4289 O   0  0  0  0  0  0  0  0  0  0  0  0
  129.5676   70.3397   -3.4890 C   0  0  2  0  0  0  0  0  0  0  0  0
  130.3199   62.3821   -1.6403 O   0  0  0  0  0  0  0  0  0  0  0  0
  134.2723   69.5725   -5.7784 N   0  0  0  0  0  0  0  0  0  0  0  0
  133.7004   70.7156   -5.3495 C   0  0  0  0  0  0  0  0  0  0  0  0
  132.4800   70.7643   -4.7767 N   0  0  0  0  0  0  0  0  0  0  0  0
  131.7369   69.6392   -4.5963 C   0  0  0  0  0  0  0  0  0  0  0  0
  132.2980   68.3512   -5.0409 C   0  0  0  0  0  0  0  0  0  0  0  0
  133.6472   68.3766   -5.6606 C   0  0  0  0  0  0  0  0  0  0  0  0
  134.2310   67.2353   -6.0975 N   0  0  0  0  0  0  0  0  0  0  0  0
  131.3846   67.4087   -4.7517 N   0  0  0  0  0  0  0  0  0  0  0  0
  130.3284   68.0346   -4.1753 C   0  0  0  0  0  0  0  0  0  0  0  0
  130.5304   69.3639   -4.0801 N   0  0  0  0  0  0  0  0  0  0  0  0
  2  1  1  6  0  0  0
  2  3  1  0  0  0  0
  2  5  1  0  0  0  0
  3  4  1  0  0  0  0
  3 16  1  0  0  0  0
  5  6  1  0  0  0  0
  6  7  1  0  0  0  0
  7  8  1  0  0  0  0
  9  8  1  6  0  0  0
  9 10  1  0  0  0  0
  9 11  1  0  0  0  0
 10 15  1  0  0  0  0
 11 12  1  1  0  0  0
 11 13  1  0  0  0  0
 13 14  1  1  0  0  0
 13 15  1  0  0  0  0
 15 26  1  6  0  0  0
 17 18  2  0  0  0  0
 17 22  1  0  0  0  0
 18 19  1  0  0  0  0
 19 20  2  0  0  0  0
 20 21  1  0  0  0  0
 20 26  1  0  0  0  0
 21 22  2  0  0  0  0
 21 24  1  0  0  0  0
 22 23  1  0  0  0  0
 24 25  2  0  0  0  0
 25 26  1  0  0  0  0
M  END
>  <CHROM.1>
-157.24824162,-65.98790197,-162.40836274,-118.31928563,-79.29778967,74.72862986
-162.95002291,129.72680063,68.02467099,-3.62098969,-1.91800516,0.32066891
-0.31951240

>  <Name>
ligand

>  <RI>
0

>  <Rbt.Current_Directory>
/home/itssahil/PROJECTS/Mol_Feturizer/Test_systems_manuscript/rnas/3npn

>  <Rbt.Executable>
rbdock ($Id: //depot/dev/client3/rdock/2013.1/src/exe/rbdock.cxx#4 $)

>  <Rbt.Library>
libRbt.so (2013.1, Build901 2013/11/27)

>  <Rbt.Parameter_File>
/export/apps/rDock/src/rDock_2013.1_src/data/scripts/dock_solv.prm

>  <Rbt.Receptor>
prm/pocket_docking_8.prm

>  <SCORE>
-23.4068

>  <SCORE.INTER>
-23.792

>  <SCORE.INTER.CONST>
1

>  <SCORE.INTER.POLAR>
0

>  <SCORE.INTER.ROT>
7

>  <SCORE.INTER.SOLV>
15.405

>  <SCORE.INTER.VDW>
-29.263

>  <SCORE.INTER.norm>
-0.915075

>  <SCORE.INTRA>
0.385191

>  <SCORE.INTRA.DIHEDRAL>
3.21812

>  <SCORE.INTRA.DIHEDRAL.0>
4.37896

>  <SCORE.INTRA.POLAR>
0

>  <SCORE.INTRA.POLAR.0>
0

>  <SCORE.INTRA.REPUL>
0

>  <SCORE.INTRA.REPUL.0>
0

>  <SCORE.INTRA.SOLV>
0.0933074

>  <SCORE.INTRA.SOLV.lig_0>
-50.5538

>  <SCORE.INTRA.VDW>
-1.27052

>  <SCORE.INTRA.VDW.0>
-1.30673

>  <SCORE.INTRA.norm>
0.014815

>  <SCORE.RESTR>
0

>  <SCORE.RESTR.CAVITY>
0

>  <SCORE.RESTR.norm>
0

>  <SCORE.SYSTEM>
0

>  <SCORE.SYSTEM.CONST>
0

>  <SCORE.SYSTEM.DIHEDRAL>
0

>  <SCORE.SYSTEM.SOLV>
0

>  <SCORE.SYSTEM.norm>
0

>  <SCORE.heavy>
26

>  <SCORE.norm>
-0.90026

>  <RMSD>
7.908

$$$$
ligand
 OpenBabel02271912153D
libRbt.so/2013.1/901 2013/11/27
 26 28  0  0  0  0  0  0  0  0999 V2000
  132.9758   61.2364   -2.2899 N   0  0  0  0  0  0  0  0  0  0  0  0
  132.1743   60.7771   -1.1169 C   0  0  2  0  0  0  0  0  0  0  0  0
  131.6485   59.3892   -1.3457 C   0  0  0  0  0  0  0  0  0  0  0  0
  131.6809   58.5397   -0.4563 O   0  0  0  0  0  0  0  0  0  0  0  0
  131.0090   61.7308   -0.8673 C   0  0  0  0  0  0  0  0  0  0  0  0
  129.9816   61.7385   -1.9950 C   0  0  0  0  0  0  0  0  0  0  0  0
  128.7477   62.9566   -1.6771 S   0  0  0  0  0  0  0  0  0  0  0  0
  129.6577   64.4608   -1.8197 C   0  0  0  0  0  0  0  0  0  0  0  0
  128.8069   65.6727   -1.4439 C   0  0  1  0  0  0  0  0  0  0  0  0
  129.6352   66.7901   -1.1157 O   0  0  0  0  0  0  0  0  0  0  0  0
  127.9321   66.0866   -2.6162 C   0  0  1  0  0  0  0  0  0  0  0  0
  126.5796   66.2528   -2.1801 O   0  0  0  0  0  0  0  0  0  0  0  0
  128.5106   67.3937   -3.1287 C   0  0  1  0  0  0  0  0  0  0  0  0
  127.5153   68.4218   -3.1799 O   0  0  0  0  0  0  0  0  0  0  0  0
  129.6101   67.7835   -2.1478 C   0  0  2  0  0  0  0  0  0  0  0  0
  131.1802   59.0654   -2.4362 O   0  0  0  0  0  0  0  0  0  0  0  0
  132.6747   66.1084   -6.1185 N   0  0  0  0  0  0  0  0  0  0  0  0
  131.4031   65.7788   -5.8150 C   0  0  0  0  0  0  0  0  0  0  0  0
  130.7366   66.2900   -4.7595 N   0  0  0  0  0  0  0  0  0  0  0  0
  131.3213   67.1857   -3.9190 C   0  0  0  0  0  0  0  0  0  0  0  0
  132.7114   67.5937   -4.1882 C   0  0  0  0  0  0  0  0  0  0  0  0
  133.3791   66.9900   -5.3692 C   0  0  0  0  0  0  0  0  0  0  0  0
  134.6569   67.3112   -5.6827 N   0  0  0  0  0  0  0  0  0  0  0  0
  133.0504   68.4742   -3.2312 N   0  0  0  0  0  0  0  0  0  0  0  0
  131.9755   68.6178   -2.4167 C   0  0  0  0  0  0  0  0  0  0  0  0
  130.9415   67.8525   -2.8195 N   0  0  0  0  0  0  0  0  0  0  0  0
  2  1  1  6  0  0  0
  2  3  1  0  0  0  0
  2  5  1  0  0  0  0
  3  4  1  0  0  0  0
  3 16  1  0  0  0  0
  5  6  1  0  0  0  0
  6  7  1  0  0  0  0
  7  8  1  0  0  0  0
  9  8  1  6  0  0  0
  9 10  1  0  0  0  0
  9 11  1  0  0  0  0
 10 15  1  0  0  0  0
 11 12  1  1  0  0  0
 11 13  1  0  0  0  0
 13 14  1  1  0  0  0
 13 15  1  0  0  0  0
 15 26  1  6  0  0  0
 17 18  2  0  0  0  0
 17 22  1  0  0  0  0
 18 19  1  0  0  0  0
 19 20  2  0  0  0  0
 20 21  1  0  0  0  0
 20 26  1  0  0  0  0
 21 22  2  0  0  0  0
 21 24  1  0  0  0  0
 22 23  1  0  0  0  0
 24 25  2  0  0  0  0
 25 26  1  0  0  0  0
M  END
>  <CHROM.1>
136.80965339,65.44052137,-175.54534961,67.16355932,-174.38540298,159.96269072
92.82510256,130.62822720,64.85175837,-2.74713255,-1.53988594,0.44021529,-0.31641719

>  <Name>
ligand

>  <RI>
0

>  <Rbt.Current_Directory>
/home/itssahil/PROJECTS/Mol_Feturizer/Test_systems_manuscript/rnas/3npn

>  <Rbt.Executable>
rbdock ($Id: //depot/dev/client3/rdock/2013.1/src/exe/rbdock.cxx#4 $)

>  <Rbt.Library>
libRbt.so (2013.1, Build901 2013/11/27)

>  <Rbt.Parameter_File>
/export/apps/rDock/src/rDock_2013.1_src/data/scripts/dock_solv.prm

>  <Rbt.Receptor>
prm/pocket_docking_7.prm

>  <SCORE>
-18.6916

>  <SCORE.INTER>
-18.1437

>  <SCORE.INTER.CONST>
1

>  <SCORE.INTER.POLAR>
0

>  <SCORE.INTER.ROT>
7

>  <SCORE.INTER.SOLV>
12.0913

>  <SCORE.INTER.VDW>
-24.3929

>  <SCORE.INTER.norm>
-0.697835

>  <SCORE.INTRA>
-0.547862

>  <SCORE.INTRA.DIHEDRAL>
-0.0541112

>  <SCORE.INTRA.DIHEDRAL.0>
4.37896

>  <SCORE.INTRA.POLAR>
0

>  <SCORE.INTRA.POLAR.0>
0

>  <SCORE.INTRA.REPUL>
0

>  <SCORE.INTRA.REPUL.0>
0

>  <SCORE.INTRA.SOLV>
-0.217103

>  <SCORE.INTRA.SOLV.lig_0>
-50.5538

>  <SCORE.INTRA.VDW>
-0.412255

>  <SCORE.INTRA.VDW.0>
-1.30673

>  <SCORE.INTRA.norm>
-0.0210716

>  <SCORE.RESTR>
0

>  <SCORE.RESTR.CAVITY>
0

>  <SCORE.RESTR.norm>
0

>  <SCORE.SYSTEM>
0

>  <SCORE.SYSTEM.CONST>
0

>  <SCORE.SYSTEM.DIHEDRAL>
0

>  <SCORE.SYSTEM.SOLV>
0

>  <SCORE.SYSTEM.norm>
0

>  <SCORE.heavy>
26

>  <SCORE.norm>
-0.718906

>  <RMSD>
7.911

$$$$
ligand
 OpenBabel02271912153D
libRbt.so/2013.1/901 2013/11/27
 26 28  0  0  0  0  0  0  0  0999 V2000
  131.3385   58.5873   -1.0678 N   0  0  0  0  0  0  0  0  0  0  0  0
  131.4227   59.9145   -1.7467 C   0  0  2  0  0  0  0  0  0  0  0  0
  132.7834   60.5208   -1.5574 C   0  0  0  0  0  0  0  0  0  0  0  0
  133.3692   60.4499   -0.4778 O   0  0  0  0  0  0  0  0  0  0  0  0
  130.3600   60.8597   -1.1926 C   0  0  0  0  0  0  0  0  0  0  0  0
  130.1618   62.1114   -2.0420 C   0  0  0  0  0  0  0  0  0  0  0  0
  129.2499   63.3166   -1.1347 S   0  0  0  0  0  0  0  0  0  0  0  0
  128.8324   64.4911   -2.3826 C   0  0  0  0  0  0  0  0  0  0  0  0
  128.1928   65.7440   -1.7868 C   0  0  1  0  0  0  0  0  0  0  0  0
  129.1907   66.6147   -1.2495 O   0  0  0  0  0  0  0  0  0  0  0  0
  127.4482   66.5182   -2.8624 C   0  0  1  0  0  0  0  0  0  0  0  0
  126.1301   66.8390   -2.4075 O   0  0  0  0  0  0  0  0  0  0  0  0
  128.2647   67.7731   -3.1156 C   0  0  1  0  0  0  0  0  0  0  0  0
  127.4668   68.9537   -2.9743 O   0  0  0  0  0  0  0  0  0  0  0  0
  129.3780   67.7710   -2.0745 C   0  0  2  0  0  0  0  0  0  0  0  0
  133.3419   61.1139   -2.4791 O   0  0  0  0  0  0  0  0  0  0  0  0
  132.3087   66.0723   -6.1352 N   0  0  0  0  0  0  0  0  0  0  0  0
  130.9973   65.8863   -5.8835 C   0  0  0  0  0  0  0  0  0  0  0  0
  130.3736   66.3836   -4.7956 N   0  0  0  0  0  0  0  0  0  0  0  0
  131.0457   67.1157   -3.8667 C   0  0  0  0  0  0  0  0  0  0  0  0
  132.4837   67.3604   -4.0752 C   0  0  0  0  0  0  0  0  0  0  0  0
  133.1002   66.7831   -5.2966 C   0  0  0  0  0  0  0  0  0  0  0  0
  134.4169   66.9609   -5.5590 N   0  0  0  0  0  0  0  0  0  0  0  0
  132.9071   68.0994   -3.0356 N   0  0  0  0  0  0  0  0  0  0  0  0
  131.8378   68.3088   -2.2281 C   0  0  0  0  0  0  0  0  0  0  0  0
  130.7251   67.7250   -2.7161 N   0  0  0  0  0  0  0  0  0  0  0  0
  2  1  1  1  0  0  0
  2  3  1  0  0  0  0
  2  5  1  0  0  0  0
  3  4  1  0  0  0  0
  3 16  1  0  0  0  0
  5  6  1  0  0  0  0
  6  7  1  0  0  0  0
  7  8  1  0  0  0  0
  9  8  1  6  0  0  0
  9 10  1  0  0  0  0
  9 11  1  0  0  0  0
 10 15  1  0  0  0  0
 11 12  1  1  0  0  0
 11 13  1  0  0  0  0
 13 14  1  1  0  0  0
 13 15  1  0  0  0  0
 15 26  1  6  0  0  0
 17 18  2  0  0  0  0
 17 22  1  0  0  0  0
 18 19  1  0  0  0  0
 19 20  2  0  0  0  0
 20 21  1  0  0  0  0
 20 26  1  0  0  0  0
 21 22  2  0  0  0  0
 21 24  1  0  0  0  0
 22 23  1  0  0  0  0
 24 25  2  0  0  0  0
 25 26  1  0  0  0  0
M  END
>  <CHROM.1>
-40.71370402,-166.60899432,-165.40572206,-167.98064853,-172.06696361,79.64413845
86.55747726,130.54917888,64.95909576,-2.72032427,1.29745500,-0.40746133,2.75225184

>  <Name>
ligand

>  <RI>
0

>  <Rbt.Current_Directory>
/home/itssahil/PROJECTS/Mol_Feturizer/Test_systems_manuscript/rnas/3npn

>  <Rbt.Executable>
rbdock ($Id: //depot/dev/client3/rdock/2013.1/src/exe/rbdock.cxx#4 $)

>  <Rbt.Library>
libRbt.so (2013.1, Build901 2013/11/27)

>  <Rbt.Parameter_File>
/export/apps/rDock/src/rDock_2013.1_src/data/scripts/dock_solv.prm

>  <Rbt.Receptor>
prm/pocket_docking_6.prm

>  <SCORE>
-16.9142

>  <SCORE.INTER>
-15.5233

>  <SCORE.INTER.CONST>
1

>  <SCORE.INTER.POLAR>
0

>  <SCORE.INTER.ROT>
7

>  <SCORE.INTER.SOLV>
13.7337

>  <SCORE.INTER.VDW>
-23.1934

>  <SCORE.INTER.norm>
-0.59705

>  <SCORE.INTRA>
-1.39089

>  <SCORE.INTRA.DIHEDRAL>
1.33572

>  <SCORE.INTRA.DIHEDRAL.0>
4.37896

>  <SCORE.INTRA.POLAR>
0

>  <SCORE.INTRA.POLAR.0>
0

>  <SCORE.INTRA.REPUL>
0

>  <SCORE.INTRA.REPUL.0>
0

>  <SCORE.INTRA.SOLV>
-0.957846

>  <SCORE.INTRA.SOLV.lig_0>
-50.5538

>  <SCORE.INTRA.VDW>
-1.57982

>  <SCORE.INTRA.VDW.0>
-1.30673

>  <SCORE.INTRA.norm>
-0.0534957

>  <SCORE.RESTR>
0

>  <SCORE.RESTR.CAVITY>
0

>  <SCORE.RESTR.norm>
0

>  <SCORE.SYSTEM>
0

>  <SCORE.SYSTEM.CONST>
0

>  <SCORE.SYSTEM.DIHEDRAL>
0

>  <SCORE.SYSTEM.SOLV>
0

>  <SCORE.SYSTEM.norm>
0

>  <SCORE.heavy>
26

>  <SCORE.norm>
-0.650546

>  <RMSD>
7.914

$$$$
ligand
 OpenBabel02271912153D
libRbt.so/2013.1/901 2013/11/27
 26 28  0  0  0  0  0  0  0  0999 V2000
  131.0993   64.9128   -2.6150 N   0  0  0  0  0  0  0  0  0  0  0  0
  130.1591   64.5404   -1.5165 C   0  0  2  0  0  0  0  0  0  0  0  0
  129.5654   63.1836   -1.7648 C   0  0  0  0  0  0  0  0  0  0  0  0
  128.4146   63.0569   -2.1811 O   0  0  0  0  0  0  0  0  0  0  0  0
  129.0422   65.5746   -1.4039 C   0  0  0  0  0  0  0  0  0  0  0  0
  128.3795   65.8969   -2.7398 C   0  0  0  0  0  0  0  0  0  0  0  0
  126.9205   66.8496   -2.4738 S   0  0  0  0  0  0  0  0  0  0  0  0
  127.0209   68.0580   -3.7548 C   0  0  0  0  0  0  0  0  0  0  0  0
  127.3195   69.4484   -3.1967 C   0  0  1  0  0  0  0  0  0  0  0  0
  128.6399   69.5022   -2.6526 O   0  0  0  0  0  0  0  0  0  0  0  0
  127.2431   70.4881   -4.3030 C   0  0  1  0  0  0  0  0  0  0  0  0
  126.4264   71.5858   -3.8844 O   0  0  0  0  0  0  0  0  0  0  0  0
  128.6726   70.9311   -4.5601 C   0  0  1  0  0  0  0  0  0  0  0  0
  128.8058   72.3531   -4.4586 O   0  0  0  0  0  0  0  0  0  0  0  0
  129.5243   70.2522   -3.4938 C   0  0  2  0  0  0  0  0  0  0  0  0
  130.2160   62.1626   -1.5471 O   0  0  0  0  0  0  0  0  0  0  0  0
  134.2748   69.7873   -5.7699 N   0  0  0  0  0  0  0  0  0  0  0  0
  133.6426   70.8879   -5.3155 C   0  0  0  0  0  0  0  0  0  0  0  0
  132.4181   70.8590   -4.7500 N   0  0  0  0  0  0  0  0  0  0  0  0
  131.7328   69.6929   -4.6040 C   0  0  0  0  0  0  0  0  0  0  0  0
  132.3618   68.4475   -5.0779 C   0  0  0  0  0  0  0  0  0  0  0  0
  133.7113   68.5582   -5.6874 C   0  0  0  0  0  0  0  0  0  0  0  0
  134.3555   67.4602   -6.1497 N   0  0  0  0  0  0  0  0  0  0  0  0
  131.4965   67.4522   -4.8195 N   0  0  0  0  0  0  0  0  0  0  0  0
  130.4064   68.0078   -4.2344 C   0  0  0  0  0  0  0  0  0  0  0  0
  130.5393   69.3428   -4.1034 N   0  0  0  0  0  0  0  0  0  0  0  0
  2  1  1  6  0  0  0
  2  3  1  0  0  0  0
  2  5  1  0  0  0  0
  3  4  1  0  0  0  0
  3 16  1  0  0  0  0
  5  6  1  0  0  0  0
  6  7  1  0  0  0  0
  7  8  1  0  0  0  0
  9  8  1  6  0  0  0
  9 10  1  0  0  0  0
  9 11  1  0  0  0  0
 10 15  1  0  0  0  0
 11 12  1  1  0  0  0
 11 13  1  0  0  0  0
 13 14  1  1  0  0  0
 13 15  1  0  0  0  0
 15 26  1  6  0  0  0
 17 18  2  0  0  0  0
 17 22  1  0  0  0  0
 18 19  1  0  0  0  0
 19 20  2  0  0  0  0
 20 21  1  0  0  0  0
 20 26  1  0  0  0  0
 21 22  2  0  0  0  0
 21 24  1  0  0  0  0
 22 23  1  0  0  0  0
 24 25  2  0  0  0  0
 25 26  1  0  0  0  0
M  END
>  <CHROM.1>
-103.21275363,49.39687566,169.21794116,138.05906988,-109.72287273,67.76884765
-158.67820323,129.85880857,67.96651570,-3.63273769,-1.89545902,0.32058285
-0.32970655

>  <Name>
ligand

>  <RI>
0

>  <Rbt.Current_Directory>
/home/itssahil/PROJECTS/Mol_Feturizer/Test_systems_manuscript/rnas/3npn

>  <Rbt.Executable>
rbdock ($Id: //depot/dev/client3/rdock/2013.1/src/exe/rbdock.cxx#4 $)

>  <Rbt.Library>
libRbt.so (2013.1, Build901 2013/11/27)

>  <Rbt.Parameter_File>
/export/apps/rDock/src/rDock_2013.1_src/data/scripts/dock_solv.prm

>  <Rbt.Receptor>
prm/pocket_docking_7.prm

>  <SCORE>
-20.6987

>  <SCORE.INTER>
-22.0187

>  <SCORE.INTER.CONST>
1

>  <SCORE.INTER.POLAR>
0

>  <SCORE.INTER.ROT>
7

>  <SCORE.INTER.SOLV>
14.8971

>  <SCORE.INTER.VDW>
-27.9115

>  <SCORE.INTER.norm>
-0.846872

>  <SCORE.INTRA>
1.31992

>  <SCORE.INTRA.DIHEDRAL>
3.5364

>  <SCORE.INTRA.DIHEDRAL.0>
4.37896

>  <SCORE.INTRA.POLAR>
0

>  <SCORE.INTRA.POLAR.0>
0

>  <SCORE.INTRA.REPUL>
0

>  <SCORE.INTRA.REPUL.0>
0

>  <SCORE.INTRA.SOLV>
0.514926

>  <SCORE.INTRA.SOLV.lig_0>
-50.5538

>  <SCORE.INTRA.VDW>
-0.705744

>  <SCORE.INTRA.VDW.0>
-1.30673

>  <SCORE.INTRA.norm>
0.0507662

>  <SCORE.RESTR>
0

>  <SCORE.RESTR.CAVITY>
0

>  <SCORE.RESTR.norm>
0

>  <SCORE.SYSTEM>
0

>  <SCORE.SYSTEM.CONST>
0

>  <SCORE.SYSTEM.DIHEDRAL>
0

>  <SCORE.SYSTEM.SOLV>
0

>  <SCORE.SYSTEM.norm>
0

>  <SCORE.heavy>
26

>  <SCORE.norm>
-0.796106

>  <RMSD>
7.933

$$$$
ligand
 OpenBabel02271912153D
libRbt.so/2013.1/901 2013/11/27
 26 28  0  0  0  0  0  0  0  0999 V2000
  132.1056   59.9019   -2.3732 N   0  0  0  0  0  0  0  0  0  0  0  0
  130.8777   59.8666   -1.5244 C   0  0  2  0  0  0  0  0  0  0  0  0
  129.9662   58.7546   -1.9577 C   0  0  0  0  0  0  0  0  0  0  0  0
  129.9966   57.6539   -1.4089 O   0  0  0  0  0  0  0  0  0  0  0  0
  130.1370   61.1983   -1.6113 C   0  0  0  0  0  0  0  0  0  0  0  0
  131.0165   62.4019   -1.2866 C   0  0  0  0  0  0  0  0  0  0  0  0
  130.0357   63.6975   -0.6034 S   0  0  0  0  0  0  0  0  0  0  0  0
  129.0608   64.2004   -1.9846 C   0  0  0  0  0  0  0  0  0  0  0  0
  128.7681   65.6994   -1.9527 C   0  0  1  0  0  0  0  0  0  0  0  0
  129.9789   66.4488   -1.8312 O   0  0  0  0  0  0  0  0  0  0  0  0
  128.0952   66.1328   -3.2450 C   0  0  1  0  0  0  0  0  0  0  0  0
  126.9308   66.9105   -2.9510 O   0  0  0  0  0  0  0  0  0  0  0  0
  129.1280   66.9504   -4.0005 C   0  0  1  0  0  0  0  0  0  0  0  0
  128.6181   68.2417   -4.3513 O   0  0  0  0  0  0  0  0  0  0  0  0
  130.3190   67.1000   -3.0612 C   0  0  2  0  0  0  0  0  0  0  0  0
  129.1714   58.9166   -2.8825 O   0  0  0  0  0  0  0  0  0  0  0  0
  134.3244   67.5507   -6.4843 N   0  0  0  0  0  0  0  0  0  0  0  0
  133.3088   68.4007   -6.2317 C   0  0  0  0  0  0  0  0  0  0  0  0
  132.3456   68.1544   -5.3199 N   0  0  0  0  0  0  0  0  0  0  0  0
  132.3402   67.0081   -4.5873 C   0  0  0  0  0  0  0  0  0  0  0  0
  133.4204   66.0308   -4.8092 C   0  0  0  0  0  0  0  0  0  0  0  0
  134.4458   66.3722   -5.8276 C   0  0  0  0  0  0  0  0  0  0  0  0
  135.4692   65.5255   -6.0920 N   0  0  0  0  0  0  0  0  0  0  0  0
  133.1926   65.0032   -3.9735 N   0  0  0  0  0  0  0  0  0  0  0  0
  132.0647   65.2918   -3.2781 C   0  0  0  0  0  0  0  0  0  0  0  0
  131.5503   66.4844   -3.6389 N   0  0  0  0  0  0  0  0  0  0  0  0
  2  1  1  6  0  0  0
  2  3  1  0  0  0  0
  2  5  1  0  0  0  0
  3  4  1  0  0  0  0
  3 16  1  0  0  0  0
  5  6  1  0  0  0  0
  6  7  1  0  0  0  0
  7  8  1  0  0  0  0
  9  8  1  6  0  0  0
  9 10  1  0  0  0  0
  9 11  1  0  0  0  0
 10 15  1  0  0  0  0
 11 12  1  1  0  0  0
 11 13  1  0  0  0  0
 13 14  1  1  0  0  0
 13 15  1  0  0  0  0
 15 26  1  6  0  0  0
 17 18  2  0  0  0  0
 17 22  1  0  0  0  0
 18 19  1  0  0  0  0
 19 20  2  0  0  0  0
 20 21  1  0  0  0  0
 20 26  1  0  0  0  0
 21 22  2  0  0  0  0
 21 24  1  0  0  0  0
 22 23  1  0  0  0  0
 24 25  2  0  0  0  0
 25 26  1  0  0  0  0
M  END
>  <CHROM.1>
95.12681622,-53.78280637,-150.88217393,-68.71162133,-146.49948805,53.57485318
-163.14098185,130.89346330,64.51184552,-3.17898772,-1.85789836,0.47427965
-0.28801383

>  <Name>
ligand

>  <RI>
0

>  <Rbt.Current_Directory>
/home/itssahil/PROJECTS/Mol_Feturizer/Test_systems_manuscript/rnas/3npn

>  <Rbt.Executable>
rbdock ($Id: //depot/dev/client3/rdock/2013.1/src/exe/rbdock.cxx#4 $)

>  <Rbt.Library>
libRbt.so (2013.1, Build901 2013/11/27)

>  <Rbt.Parameter_File>
/export/apps/rDock/src/rDock_2013.1_src/data/scripts/dock_solv.prm

>  <Rbt.Receptor>
prm/pocket_docking_8.prm

>  <SCORE>
-18.9756

>  <SCORE.INTER>
-19.6934

>  <SCORE.INTER.CONST>
1

>  <SCORE.INTER.POLAR>
0

>  <SCORE.INTER.ROT>
7

>  <SCORE.INTER.SOLV>
14.2475

>  <SCORE.INTER.VDW>
-26.1448

>  <SCORE.INTER.norm>
-0.757439

>  <SCORE.INTRA>
0.717805

>  <SCORE.INTRA.DIHEDRAL>
2.73586

>  <SCORE.INTRA.DIHEDRAL.0>
4.37896

>  <SCORE.INTRA.POLAR>
0

>  <SCORE.INTRA.POLAR.0>
0

>  <SCORE.INTRA.REPUL>
0

>  <SCORE.INTRA.REPUL.0>
0

>  <SCORE.INTRA.SOLV>
-0.136204

>  <SCORE.INTRA.SOLV.lig_0>
-50.5538

>  <SCORE.INTRA.VDW>
-0.582025

>  <SCORE.INTRA.VDW.0>
-1.30673

>  <SCORE.INTRA.norm>
0.0276079

>  <SCORE.RESTR>
0

>  <SCORE.RESTR.CAVITY>
0

>  <SCORE.RESTR.norm>
0

>  <SCORE.SYSTEM>
0

>  <SCORE.SYSTEM.CONST>
0

>  <SCORE.SYSTEM.DIHEDRAL>
0

>  <SCORE.SYSTEM.SOLV>
0

>  <SCORE.SYSTEM.norm>
0

>  <SCORE.heavy>
26

>  <SCORE.norm>
-0.729832

>  <RMSD>
7.979

$$$$
ligand
 OpenBabel02271912153D
libRbt.so/2013.1/901 2013/11/27
 26 28  0  0  0  0  0  0  0  0999 V2000
  131.7116   60.3405   -2.1907 N   0  0  0  0  0  0  0  0  0  0  0  0
  130.3751   60.0725   -1.5815 C   0  0  2  0  0  0  0  0  0  0  0  0
  129.8379   58.7488   -2.0444 C   0  0  0  0  0  0  0  0  0  0  0  0
  129.1705   58.6554   -3.0738 O   0  0  0  0  0  0  0  0  0  0  0  0
  129.3935   61.1808   -1.9529 C   0  0  0  0  0  0  0  0  0  0  0  0
  129.8598   62.5695   -1.5266 C   0  0  0  0  0  0  0  0  0  0  0  0
  128.6210   63.7641   -1.9082 S   0  0  0  0  0  0  0  0  0  0  0  0
  129.4956   65.2850   -1.7263 C   0  0  0  0  0  0  0  0  0  0  0  0
  128.5433   66.4758   -1.6333 C   0  0  1  0  0  0  0  0  0  0  0  0
  129.2730   67.7004   -1.5309 O   0  0  0  0  0  0  0  0  0  0  0  0
  127.6850   66.5637   -2.8849 C   0  0  1  0  0  0  0  0  0  0  0  0
  126.3084   66.7074   -2.5226 O   0  0  0  0  0  0  0  0  0  0  0  0
  128.1835   67.7771   -3.6495 C   0  0  1  0  0  0  0  0  0  0  0  0
  127.1170   68.6881   -3.9379 O   0  0  0  0  0  0  0  0  0  0  0  0
  129.2130   68.4508   -2.7498 C   0  0  2  0  0  0  0  0  0  0  0  0
  130.0456   57.7240   -1.3964 O   0  0  0  0  0  0  0  0  0  0  0  0
  132.6501   66.0770   -5.9926 N   0  0  0  0  0  0  0  0  0  0  0  0
  131.4115   65.6944   -5.6224 C   0  0  0  0  0  0  0  0  0  0  0  0
  130.6371   66.4066   -4.7780 N   0  0  0  0  0  0  0  0  0  0  0  0
  131.0703   67.5768   -4.2362 C   0  0  0  0  0  0  0  0  0  0  0  0
  132.4156   68.0586   -4.5955 C   0  0  0  0  0  0  0  0  0  0  0  0
  133.2084   67.2221   -5.5319 C   0  0  0  0  0  0  0  0  0  0  0  0
  134.4546   67.5945   -5.9091 N   0  0  0  0  0  0  0  0  0  0  0  0
  132.6009   69.2181   -3.9416 N   0  0  0  0  0  0  0  0  0  0  0  0
  131.4764   69.4594   -3.2229 C   0  0  0  0  0  0  0  0  0  0  0  0
  130.5601   68.4854   -3.3924 N   0  0  0  0  0  0  0  0  0  0  0  0
  2  1  1  6  0  0  0
  2  3  1  0  0  0  0
  2  5  1  0  0  0  0
  3  4  1  0  0  0  0
  3 16  1  0  0  0  0
  5  6  1  0  0  0  0
  6  7  1  0  0  0  0
  7  8  1  0  0  0  0
  9  8  1  6  0  0  0
  9 10  1  0  0  0  0
  9 11  1  0  0  0  0
 10 15  1  0  0  0  0
 11 12  1  1  0  0  0
 11 13  1  0  0  0  0
 13 14  1  1  0  0  0
 13 15  1  0  0  0  0
 15 26  1  6  0  0  0
 17 18  2  0  0  0  0
 17 22  1  0  0  0  0
 18 19  1  0  0  0  0
 19 20  2  0  0  0  0
 20 21  1  0  0  0  0
 20 26  1  0  0  0  0
 21 22  2  0  0  0  0
 21 24  1  0  0  0  0
 22 23  1  0  0  0  0
 24 25  2  0  0  0  0
 25 26  1  0  0  0  0
M  END
>  <CHROM.1>
-88.20527083,-57.70923276,-176.53897237,-166.35830387,-164.37687099,-178.08849567
87.00691684,130.05485740,65.10597567,-3.10827536,-1.69590672,0.47315959,-0.18555680

>  <Name>
ligand

>  <RI>
0

>  <Rbt.Current_Directory>
/home/itssahil/PROJECTS/Mol_Feturizer/Test_systems_manuscript/rnas/3npn

>  <Rbt.Executable>
rbdock ($Id: //depot/dev/client3/rdock/2013.1/src/exe/rbdock.cxx#4 $)

>  <Rbt.Library>
libRbt.so (2013.1, Build901 2013/11/27)

>  <Rbt.Parameter_File>
/export/apps/rDock/src/rDock_2013.1_src/data/scripts/dock_solv.prm

>  <Rbt.Receptor>
prm/pocket_docking_5.prm

>  <SCORE>
-25.8132

>  <SCORE.INTER>
-24.6694

>  <SCORE.INTER.CONST>
1

>  <SCORE.INTER.POLAR>
0

>  <SCORE.INTER.ROT>
7

>  <SCORE.INTER.SOLV>
15.8165

>  <SCORE.INTER.VDW>
-29.9851

>  <SCORE.INTER.norm>
-0.948824

>  <SCORE.INTRA>
-1.15121

>  <SCORE.INTRA.DIHEDRAL>
-0.935745

>  <SCORE.INTRA.DIHEDRAL.0>
4.37896

>  <SCORE.INTRA.POLAR>
0

>  <SCORE.INTRA.POLAR.0>
0

>  <SCORE.INTRA.REPUL>
0

>  <SCORE.INTRA.REPUL.0>
0

>  <SCORE.INTRA.SOLV>
-0.127695

>  <SCORE.INTRA.SOLV.lig_0>
-50.5538

>  <SCORE.INTRA.VDW>
-0.619493

>  <SCORE.INTRA.VDW.0>
-1.30673

>  <SCORE.INTRA.norm>
-0.0442774

>  <SCORE.RESTR>
0.00743622

>  <SCORE.RESTR.CAVITY>
0.00743622

>  <SCORE.RESTR.norm>
0.000286008

>  <SCORE.SYSTEM>
0

>  <SCORE.SYSTEM.CONST>
0

>  <SCORE.SYSTEM.DIHEDRAL>
0

>  <SCORE.SYSTEM.SOLV>
0

>  <SCORE.SYSTEM.norm>
0

>  <SCORE.heavy>
26

>  <SCORE.norm>
-0.992815

>  <RMSD>
8.073

$$$$
ligand
 OpenBabel02271912153D
libRbt.so/2013.1/901 2013/11/27
 26 28  0  0  0  0  0  0  0  0999 V2000
  131.7468   60.2739   -2.1834 N   0  0  0  0  0  0  0  0  0  0  0  0
  130.4162   60.0348   -1.5497 C   0  0  2  0  0  0  0  0  0  0  0  0
  129.8582   58.7070   -1.9747 C   0  0  0  0  0  0  0  0  0  0  0  0
  130.0689   57.6870   -1.3199 O   0  0  0  0  0  0  0  0  0  0  0  0
  129.4416   61.1453   -1.9325 C   0  0  0  0  0  0  0  0  0  0  0  0
  129.9090   62.5336   -1.5065 C   0  0  0  0  0  0  0  0  0  0  0  0
  128.6613   63.7258   -1.8662 S   0  0  0  0  0  0  0  0  0  0  0  0
  129.5236   65.2496   -1.6527 C   0  0  0  0  0  0  0  0  0  0  0  0
  128.5619   66.4315   -1.5431 C   0  0  1  0  0  0  0  0  0  0  0  0
  129.2816   67.6577   -1.3983 O   0  0  0  0  0  0  0  0  0  0  0  0
  127.7217   66.5462   -2.8048 C   0  0  1  0  0  0  0  0  0  0  0  0
  126.3388   66.6717   -2.4595 O   0  0  0  0  0  0  0  0  0  0  0  0
  128.2231   67.7823   -3.5303 C   0  0  1  0  0  0  0  0  0  0  0  0
  127.1548   68.6935   -3.8109 O   0  0  0  0  0  0  0  0  0  0  0  0
  129.2346   68.4391   -2.5982 C   0  0  2  0  0  0  0  0  0  0  0  0
  129.1826   58.6066   -2.9978 O   0  0  0  0  0  0  0  0  0  0  0  0
  132.6661   66.2756   -5.9905 N   0  0  0  0  0  0  0  0  0  0  0  0
  131.4149   65.8898   -5.6690 C   0  0  0  0  0  0  0  0  0  0  0  0
  130.6439   66.5442   -4.7762 N   0  0  0  0  0  0  0  0  0  0  0  0
  131.0936   67.6545   -4.1315 C   0  0  0  0  0  0  0  0  0  0  0  0
  132.4534   68.1359   -4.4325 C   0  0  0  0  0  0  0  0  0  0  0  0
  133.2415   67.3649   -5.4273 C   0  0  0  0  0  0  0  0  0  0  0  0
  134.5002   67.7410   -5.7565 N   0  0  0  0  0  0  0  0  0  0  0  0
  132.6535   69.2312   -3.6799 N   0  0  0  0  0  0  0  0  0  0  0  0
  131.5245   69.4349   -2.9566 C   0  0  0  0  0  0  0  0  0  0  0  0
  130.5907   68.4989   -3.2195 N   0  0  0  0  0  0  0  0  0  0  0  0
  2  1  1  6  0  0  0
  2  3  1  0  0  0  0
  2  5  1  0  0  0  0
  3  4  1  0  0  0  0
  3 16  1  0  0  0  0
  5  6  1  0  0  0  0
  6  7  1  0  0  0  0
  7  8  1  0  0  0  0
  9  8  1  6  0  0  0
  9 10  1  0  0  0  0
  9 11  1  0  0  0  0
 10 15  1  0  0  0  0
 11 12  1  1  0  0  0
 11 13  1  0  0  0  0
 13 14  1  1  0  0  0
 13 15  1  0  0  0  0
 15 26  1  6  0  0  0
 17 18  2  0  0  0  0
 17 22  1  0  0  0  0
 18 19  1  0  0  0  0
 19 20  2  0  0  0  0
 20 21  1  0  0  0  0
 20 26  1  0  0  0  0
 21 22  2  0  0  0  0
 21 24  1  0  0  0  0
 22 23  1  0  0  0  0
 24 25  2  0  0  0  0
 25 26  1  0  0  0  0
M  END
>  <CHROM.1>
91.65537644,-59.47957046,-175.16766835,-167.62095733,-164.60930179,-178.81708145
90.76398411,130.08551474,65.11844482,-3.02025273,-1.70172960,0.46827326,-0.17586363

>  <Name>
ligand

>  <RI>
0

>  <Rbt.Current_Directory>
/home/itssahil/PROJECTS/Mol_Feturizer/Test_systems_manuscript/rnas/3npn

>  <Rbt.Executable>
rbdock ($Id: //depot/dev/client3/rdock/2013.1/src/exe/rbdock.cxx#4 $)

>  <Rbt.Library>
libRbt.so (2013.1, Build901 2013/11/27)

>  <Rbt.Parameter_File>
/export/apps/rDock/src/rDock_2013.1_src/data/scripts/dock_solv.prm

>  <Rbt.Receptor>
prm/pocket_docking_5.prm

>  <SCORE>
-25.818

>  <SCORE.INTER>
-24.7868

>  <SCORE.INTER.CONST>
1

>  <SCORE.INTER.POLAR>
0

>  <SCORE.INTER.ROT>
7

>  <SCORE.INTER.SOLV>
15.0402

>  <SCORE.INTER.VDW>
-29.8046

>  <SCORE.INTER.norm>
-0.953337

>  <SCORE.INTRA>
-1.05489

>  <SCORE.INTRA.DIHEDRAL>
-1.02133

>  <SCORE.INTRA.DIHEDRAL.0>
4.37896

>  <SCORE.INTRA.POLAR>
0

>  <SCORE.INTRA.POLAR.0>
0

>  <SCORE.INTRA.REPUL>
0

>  <SCORE.INTRA.REPUL.0>
0

>  <SCORE.INTRA.SOLV>
-0.14318

>  <SCORE.INTRA.SOLV.lig_0>
-50.5538

>  <SCORE.INTRA.VDW>
-0.472641

>  <SCORE.INTRA.VDW.0>
-1.30673

>  <SCORE.INTRA.norm>
-0.0405729

>  <SCORE.RESTR>
0.0236865

>  <SCORE.RESTR.CAVITY>
0.0236865

>  <SCORE.RESTR.norm>
0.000911018

>  <SCORE.SYSTEM>
0

>  <SCORE.SYSTEM.CONST>
0

>  <SCORE.SYSTEM.DIHEDRAL>
0

>  <SCORE.SYSTEM.SOLV>
0

>  <SCORE.SYSTEM.norm>
0

>  <SCORE.heavy>
26

>  <SCORE.norm>
-0.992999

>  <RMSD>
8.108

$$$$
ligand
 OpenBabel02271912153D
libRbt.so/2013.1/901 2013/11/27
 26 28  0  0  0  0  0  0  0  0999 V2000
  131.7022   56.6254   -2.2211 N   0  0  0  0  0  0  0  0  0  0  0  0
  131.8511   58.1077   -2.3201 C   0  0  2  0  0  0  0  0  0  0  0  0
  133.0783   58.4652   -3.1084 C   0  0  0  0  0  0  0  0  0  0  0  0
  133.3797   59.6386   -3.3230 O   0  0  0  0  0  0  0  0  0  0  0  0
  131.9410   58.7239   -0.9265 C   0  0  0  0  0  0  0  0  0  0  0  0
  131.8421   60.2463   -0.9308 C   0  0  0  0  0  0  0  0  0  0  0  0
  130.2144   60.7427   -1.3905 S   0  0  0  0  0  0  0  0  0  0  0  0
  130.4653   62.4031   -1.9302 C   0  0  0  0  0  0  0  0  0  0  0  0
  129.5271   63.3757   -1.2178 C   0  0  1  0  0  0  0  0  0  0  0  0
  130.1257   63.8682   -0.0171 O   0  0  0  0  0  0  0  0  0  0  0  0
  129.2391   64.5759   -2.1051 C   0  0  1  0  0  0  0  0  0  0  0  0
  127.8293   64.8146   -2.1594 O   0  0  0  0  0  0  0  0  0  0  0  0
  129.9727   65.7470   -1.4758 C   0  0  1  0  0  0  0  0  0  0  0  0
  129.0891   66.8466   -1.2300 O   0  0  0  0  0  0  0  0  0  0  0  0
  130.5403   65.2323   -0.1582 C   0  0  2  0  0  0  0  0  0  0  0  0
  133.8083   57.5885   -3.5683 O   0  0  0  0  0  0  0  0  0  0  0  0
  135.0354   63.7952    2.2278 N   0  0  0  0  0  0  0  0  0  0  0  0
  133.7598   63.4902    2.5403 C   0  0  0  0  0  0  0  0  0  0  0  0
  132.6980   63.9313    1.8347 N   0  0  0  0  0  0  0  0  0  0  0  0
  132.8545   64.7294    0.7442 C   0  0  0  0  0  0  0  0  0  0  0  0
  134.2214   65.1047    0.3420 C   0  0  0  0  0  0  0  0  0  0  0  0
  135.3396   64.5794    1.1659 C   0  0  0  0  0  0  0  0  0  0  0  0
  136.6248   64.8808    0.8636 N   0  0  0  0  0  0  0  0  0  0  0  0
  134.1063   65.8816   -0.7486 N   0  0  0  0  0  0  0  0  0  0  0  0
  132.7831   65.9987   -1.0220 C   0  0  0  0  0  0  0  0  0  0  0  0
  132.0307   65.3156   -0.1364 N   0  0  0  0  0  0  0  0  0  0  0  0
  2  1  1  1  0  0  0
  2  3  1  0  0  0  0
  2  5  1  0  0  0  0
  3  4  1  0  0  0  0
  3 16  1  0  0  0  0
  5  6  1  0  0  0  0
  6  7  1  0  0  0  0
  7  8  1  0  0  0  0
  9  8  1  6  0  0  0
  9 10  1  0  0  0  0
  9 11  1  0  0  0  0
 10 15  1  0  0  0  0
 11 12  1  1  0  0  0
 11 13  1  0  0  0  0
 13 14  1  1  0  0  0
 13 15  1  0  0  0  0
 15 26  1  6  0  0  0
 17 18  2  0  0  0  0
 17 22  1  0  0  0  0
 18 19  1  0  0  0  0
 19 20  2  0  0  0  0
 20 21  1  0  0  0  0
 20 26  1  0  0  0  0
 21 22  2  0  0  0  0
 21 24  1  0  0  0  0
 22 23  1  0  0  0  0
 24 25  2  0  0  0  0
 25 26  1  0  0  0  0
M  END
>  <CHROM.1>
179.15500698,-169.62294459,68.64549378,-159.15497337,-126.96283370,89.74513648
-47.67703806,131.93021944,62.72769517,-0.86257982,-1.56434115,-0.39316477
0.34146766

>  <Name>
ligand

>  <RI>
0

>  <Rbt.Current_Directory>
/home/itssahil/PROJECTS/Mol_Feturizer/Test_systems_manuscript/rnas/3npn

>  <Rbt.Executable>
rbdock ($Id: //depot/dev/client3/rdock/2013.1/src/exe/rbdock.cxx#4 $)

>  <Rbt.Library>
libRbt.so (2013.1, Build901 2013/11/27)

>  <Rbt.Parameter_File>
/export/apps/rDock/src/rDock_2013.1_src/data/scripts/dock_solv.prm

>  <Rbt.Receptor>
prm/pocket_docking_8.prm

>  <SCORE>
-7.73499

>  <SCORE.INTER>
-9.16575

>  <SCORE.INTER.CONST>
1

>  <SCORE.INTER.POLAR>
0

>  <SCORE.INTER.ROT>
7

>  <SCORE.INTER.SOLV>
11.3063

>  <SCORE.INTER.VDW>
-18.1459

>  <SCORE.INTER.norm>
-0.352529

>  <SCORE.INTRA>
1.43076

>  <SCORE.INTRA.DIHEDRAL>
4.55385

>  <SCORE.INTRA.DIHEDRAL.0>
4.37896

>  <SCORE.INTRA.POLAR>
0

>  <SCORE.INTRA.POLAR.0>
0

>  <SCORE.INTRA.REPUL>
0

>  <SCORE.INTRA.REPUL.0>
0

>  <SCORE.INTRA.SOLV>
-0.702424

>  <SCORE.INTRA.SOLV.lig_0>
-50.5538

>  <SCORE.INTRA.VDW>
-0.494957

>  <SCORE.INTRA.VDW.0>
-1.30673

>  <SCORE.INTRA.norm>
0.0550292

>  <SCORE.RESTR>
0

>  <SCORE.RESTR.CAVITY>
0

>  <SCORE.RESTR.norm>
0

>  <SCORE.SYSTEM>
0

>  <SCORE.SYSTEM.CONST>
0

>  <SCORE.SYSTEM.DIHEDRAL>
0

>  <SCORE.SYSTEM.SOLV>
0

>  <SCORE.SYSTEM.norm>
0

>  <SCORE.heavy>
26

>  <SCORE.norm>
-0.2975

>  <RMSD>
8.146

$$$$
ligand
 OpenBabel02271912153D
libRbt.so/2013.1/901 2013/11/27
 26 28  0  0  0  0  0  0  0  0999 V2000
  132.5331   61.9214    0.2151 N   0  0  0  0  0  0  0  0  0  0  0  0
  131.9176   61.1588   -0.9114 C   0  0  2  0  0  0  0  0  0  0  0  0
  132.8349   61.1379   -2.1002 C   0  0  0  0  0  0  0  0  0  0  0  0
  133.0058   60.1115   -2.7566 O   0  0  0  0  0  0  0  0  0  0  0  0
  130.5829   61.7851   -1.3063 C   0  0  0  0  0  0  0  0  0  0  0  0
  130.6483   63.3015   -1.4600 C   0  0  0  0  0  0  0  0  0  0  0  0
  129.0703   63.9273   -1.9351 S   0  0  0  0  0  0  0  0  0  0  0  0
  129.1615   65.6111   -1.4179 C   0  0  0  0  0  0  0  0  0  0  0  0
  128.0821   66.4644   -2.0816 C   0  0  1  0  0  0  0  0  0  0  0  0
  127.9216   67.7049   -1.3903 O   0  0  0  0  0  0  0  0  0  0  0  0
  128.4750   66.7917   -3.5132 C   0  0  1  0  0  0  0  0  0  0  0  0
  127.3857   66.5043   -4.3952 O   0  0  0  0  0  0  0  0  0  0  0  0
  128.8184   68.2707   -3.5250 C   0  0  1  0  0  0  0  0  0  0  0  0
  128.0647   68.9749   -4.5181 O   0  0  0  0  0  0  0  0  0  0  0  0
  128.4693   68.7974   -2.1379 C   0  0  2  0  0  0  0  0  0  0  0  0
  133.4470   62.1492   -2.4406 O   0  0  0  0  0  0  0  0  0  0  0  0
  131.9546   68.2235    1.7975 N   0  0  0  0  0  0  0  0  0  0  0  0
  130.9001   67.4529    1.4629 C   0  0  0  0  0  0  0  0  0  0  0  0
  130.0865   67.7218    0.4211 N   0  0  0  0  0  0  0  0  0  0  0  0
  130.2843   68.8113   -0.3692 C   0  0  0  0  0  0  0  0  0  0  0  0
  131.4189   69.7006   -0.0638 C   0  0  0  0  0  0  0  0  0  0  0  0
  132.2713   69.3387    1.0970 C   0  0  0  0  0  0  0  0  0  0  0  0
  133.3317   70.1062    1.4444 N   0  0  0  0  0  0  0  0  0  0  0  0
  131.3983   70.6850   -0.9784 N   0  0  0  0  0  0  0  0  0  0  0  0
  130.3428   70.4521   -1.7975 C   0  0  0  0  0  0  0  0  0  0  0  0
  129.6735   69.3379   -1.4403 N   0  0  0  0  0  0  0  0  0  0  0  0
  2  1  1  1  0  0  0
  2  3  1  0  0  0  0
  2  5  1  0  0  0  0
  3  4  1  0  0  0  0
  3 16  1  0  0  0  0
  5  6  1  0  0  0  0
  6  7  1  0  0  0  0
  7  8  1  0  0  0  0
  9  8  1  1  0  0  0
  9 10  1  0  0  0  0
  9 11  1  0  0  0  0
 10 15  1  0  0  0  0
 11 12  1  6  0  0  0
 11 13  1  0  0  0  0
 13 14  1  6  0  0  0
 13 15  1  0  0  0  0
 15 26  1  1  0  0  0
 17 18  2  0  0  0  0
 17 22  1  0  0  0  0
 18 19  1  0  0  0  0
 19 20  2  0  0  0  0
 20 21  1  0  0  0  0
 20 26  1  0  0  0  0
 21 22  2  0  0  0  0
 21 24  1  0  0  0  0
 22 23  1  0  0  0  0
 24 25  2  0  0  0  0
 25 26  1  0  0  0  0
M  END
>  <CHROM.1>
137.34816132,47.08819873,179.29600703,157.55462844,163.17389835,163.63139159
7.86402527,130.37352314,66.20357385,-1.40670515,-1.27167053,-0.71930753,0.28739841

>  <Name>
ligand

>  <RI>
0

>  <Rbt.Current_Directory>
/home/itssahil/PROJECTS/Mol_Feturizer/Test_systems_manuscript/rnas/3npn

>  <Rbt.Executable>
rbdock ($Id: //depot/dev/client3/rdock/2013.1/src/exe/rbdock.cxx#4 $)

>  <Rbt.Library>
libRbt.so (2013.1, Build901 2013/11/27)

>  <Rbt.Parameter_File>
/export/apps/rDock/src/rDock_2013.1_src/data/scripts/dock_solv.prm

>  <Rbt.Receptor>
prm/pocket_docking_7.prm

>  <SCORE>
-14.2709

>  <SCORE.INTER>
-13.8018

>  <SCORE.INTER.CONST>
1

>  <SCORE.INTER.POLAR>
0

>  <SCORE.INTER.ROT>
7

>  <SCORE.INTER.SOLV>
13.0671

>  <SCORE.INTER.VDW>
-21.8235

>  <SCORE.INTER.norm>
-0.530837

>  <SCORE.INTRA>
-0.469096

>  <SCORE.INTRA.DIHEDRAL>
1.02291

>  <SCORE.INTRA.DIHEDRAL.0>
4.37896

>  <SCORE.INTRA.POLAR>
0

>  <SCORE.INTRA.POLAR.0>
0

>  <SCORE.INTRA.REPUL>
0

>  <SCORE.INTRA.REPUL.0>
0

>  <SCORE.INTRA.SOLV>
-0.0147602

>  <SCORE.INTRA.SOLV.lig_0>
-50.5538

>  <SCORE.INTRA.VDW>
-0.973172

>  <SCORE.INTRA.VDW.0>
-1.30673

>  <SCORE.INTRA.norm>
-0.0180422

>  <SCORE.RESTR>
0

>  <SCORE.RESTR.CAVITY>
0

>  <SCORE.RESTR.norm>
0

>  <SCORE.SYSTEM>
0

>  <SCORE.SYSTEM.CONST>
0

>  <SCORE.SYSTEM.DIHEDRAL>
0

>  <SCORE.SYSTEM.SOLV>
0

>  <SCORE.SYSTEM.norm>
0

>  <SCORE.heavy>
26

>  <SCORE.norm>
-0.548879

>  <RMSD>
8.187

$$$$
ligand
 OpenBabel02271912153D
libRbt.so/2013.1/901 2013/11/27
 26 28  0  0  0  0  0  0  0  0999 V2000
  132.9433   57.5896   -2.7605 N   0  0  0  0  0  0  0  0  0  0  0  0
  131.6768   57.3768   -1.9989 C   0  0  2  0  0  0  0  0  0  0  0  0
  130.5487   57.0395   -2.9310 C   0  0  0  0  0  0  0  0  0  0  0  0
  130.5831   56.0321   -3.6364 O   0  0  0  0  0  0  0  0  0  0  0  0
  131.3237   58.6290   -1.2007 C   0  0  0  0  0  0  0  0  0  0  0  0
  131.1441   59.8697   -2.0700 C   0  0  0  0  0  0  0  0  0  0  0  0
  130.8531   61.2802   -1.0536 S   0  0  0  0  0  0  0  0  0  0  0  0
  129.5521   62.1031   -1.9146 C   0  0  0  0  0  0  0  0  0  0  0  0
  129.2758   63.4871   -1.3300 C   0  0  1  0  0  0  0  0  0  0  0  0
  130.4684   64.0517   -0.7809 O   0  0  0  0  0  0  0  0  0  0  0  0
  128.7873   64.4307   -2.4171 C   0  0  1  0  0  0  0  0  0  0  0  0
  127.6034   65.1054   -1.9808 O   0  0  0  0  0  0  0  0  0  0  0  0
  129.9216   65.4101   -2.6616 C   0  0  1  0  0  0  0  0  0  0  0  0
  129.4789   66.7658   -2.5335 O   0  0  0  0  0  0  0  0  0  0  0  0
  130.9779   65.1067   -1.6055 C   0  0  2  0  0  0  0  0  0  0  0  0
  129.5642   57.7718   -3.0182 O   0  0  0  0  0  0  0  0  0  0  0  0
  134.1679   65.3616   -5.8154 N   0  0  0  0  0  0  0  0  0  0  0  0
  132.9624   65.9306   -5.6137 C   0  0  0  0  0  0  0  0  0  0  0  0
  132.2520   65.7790   -4.4769 N   0  0  0  0  0  0  0  0  0  0  0  0
  132.7187   65.0246   -3.4455 C   0  0  0  0  0  0  0  0  0  0  0  0
  134.0310   64.3712   -3.5942 C   0  0  0  0  0  0  0  0  0  0  0  0
  134.7549   64.5858   -4.8728 C   0  0  0  0  0  0  0  0  0  0  0  0
  135.9652   64.0175   -5.0882 N   0  0  0  0  0  0  0  0  0  0  0  0
  134.2620   63.6988   -2.4536 N   0  0  0  0  0  0  0  0  0  0  0  0
  133.1923   63.8989   -1.6443 C   0  0  0  0  0  0  0  0  0  0  0  0
  132.2680   64.6871   -2.2287 N   0  0  0  0  0  0  0  0  0  0  0  0
  2  1  1  6  0  0  0
  2  3  1  0  0  0  0
  2  5  1  0  0  0  0
  3  4  1  0  0  0  0
  3 16  1  0  0  0  0
  5  6  1  0  0  0  0
  6  7  1  0  0  0  0
  7  8  1  0  0  0  0
  9  8  1  6  0  0  0
  9 10  1  0  0  0  0
  9 11  1  0  0  0  0
 10 15  1  0  0  0  0
 11 12  1  1  0  0  0
 11 13  1  0  0  0  0
 13 14  1  1  0  0  0
 13 15  1  0  0  0  0
 15 26  1  6  0  0  0
 17 18  2  0  0  0  0
 17 22  1  0  0  0  0
 18 19  1  0  0  0  0
 19 20  2  0  0  0  0
 20 21  1  0  0  0  0
 20 26  1  0  0  0  0
 21 22  2  0  0  0  0
 21 24  1  0  0  0  0
 22 23  1  0  0  0  0
 24 25  2  0  0  0  0
 25 26  1  0  0  0  0
M  END
>  <CHROM.1>
61.44475043,58.97963545,-176.00092111,-136.99725318,-170.95974192,30.42096793
145.86190793,131.47076741,62.55077264,-2.69943392,-1.75499461,0.48225822
-0.05686423

>  <Name>
ligand

>  <RI>
0

>  <Rbt.Current_Directory>
/home/itssahil/PROJECTS/Mol_Feturizer/Test_systems_manuscript/rnas/3npn

>  <Rbt.Executable>
rbdock ($Id: //depot/dev/client3/rdock/2013.1/src/exe/rbdock.cxx#4 $)

>  <Rbt.Library>
libRbt.so (2013.1, Build901 2013/11/27)

>  <Rbt.Parameter_File>
/export/apps/rDock/src/rDock_2013.1_src/data/scripts/dock_solv.prm

>  <Rbt.Receptor>
prm/pocket_docking_6.prm

>  <SCORE>
-15.9578

>  <SCORE.INTER>
-18.473

>  <SCORE.INTER.CONST>
1

>  <SCORE.INTER.POLAR>
0

>  <SCORE.INTER.ROT>
7

>  <SCORE.INTER.SOLV>
9.81149

>  <SCORE.INTER.VDW>
-23.8525

>  <SCORE.INTER.norm>
-0.710501

>  <SCORE.INTRA>
2.51518

>  <SCORE.INTRA.DIHEDRAL>
2.98197

>  <SCORE.INTRA.DIHEDRAL.0>
4.37896

>  <SCORE.INTRA.POLAR>
0

>  <SCORE.INTRA.POLAR.0>
0

>  <SCORE.INTRA.REPUL>
0

>  <SCORE.INTRA.REPUL.0>
0

>  <SCORE.INTRA.SOLV>
-0.023012

>  <SCORE.INTRA.SOLV.lig_0>
-50.5538

>  <SCORE.INTRA.VDW>
1.0357

>  <SCORE.INTRA.VDW.0>
-1.30673

>  <SCORE.INTRA.norm>
0.0967378

>  <SCORE.RESTR>
0

>  <SCORE.RESTR.CAVITY>
0

>  <SCORE.RESTR.norm>
0

>  <SCORE.SYSTEM>
0

>  <SCORE.SYSTEM.CONST>
0

>  <SCORE.SYSTEM.DIHEDRAL>
0

>  <SCORE.SYSTEM.SOLV>
0

>  <SCORE.SYSTEM.norm>
0

>  <SCORE.heavy>
26

>  <SCORE.norm>
-0.613763

>  <RMSD>
8.198

$$$$
ligand
 OpenBabel02271912153D
libRbt.so/2013.1/901 2013/11/27
 26 28  0  0  0  0  0  0  0  0999 V2000
  130.7345   64.1526    0.0835 N   0  0  0  0  0  0  0  0  0  0  0  0
  129.7261   64.3043   -1.0071 C   0  0  2  0  0  0  0  0  0  0  0  0
  129.3987   62.9706   -1.6149 C   0  0  0  0  0  0  0  0  0  0  0  0
  128.2559   62.6993   -1.9810 O   0  0  0  0  0  0  0  0  0  0  0  0
  130.2545   65.2431   -2.0884 C   0  0  0  0  0  0  0  0  0  0  0  0
  129.2987   65.4081   -3.2659 C   0  0  0  0  0  0  0  0  0  0  0  0
  127.8793   66.3257   -2.7654 S   0  0  0  0  0  0  0  0  0  0  0  0
  127.5273   67.2881   -4.2010 C   0  0  0  0  0  0  0  0  0  0  0  0
  126.7945   68.5811   -3.8477 C   0  0  1  0  0  0  0  0  0  0  0  0
  127.1186   68.9997   -2.5202 O   0  0  0  0  0  0  0  0  0  0  0  0
  127.2129   69.6985   -4.7895 C   0  0  1  0  0  0  0  0  0  0  0  0
  126.0539   70.3564   -5.3102 O   0  0  0  0  0  0  0  0  0  0  0  0
  128.0604   70.6481   -3.9614 C   0  0  1  0  0  0  0  0  0  0  0  0
  127.5632   71.9891   -4.0312 O   0  0  0  0  0  0  0  0  0  0  0  0
  127.9854   70.1403   -2.5262 C   0  0  2  0  0  0  0  0  0  0  0  0
  130.2679   62.1111   -1.7519 O   0  0  0  0  0  0  0  0  0  0  0  0
  133.1288   71.3318   -2.2251 N   0  0  0  0  0  0  0  0  0  0  0  0
  132.1286   71.9880   -2.8470 C   0  0  0  0  0  0  0  0  0  0  0  0
  130.8478   71.5645   -2.8409 N   0  0  0  0  0  0  0  0  0  0  0  0
  130.4820   70.4242   -2.1954 C   0  0  0  0  0  0  0  0  0  0  0  0
  131.5226   69.6534   -1.4925 C   0  0  0  0  0  0  0  0  0  0  0  0
  132.9090   70.1830   -1.5418 C   0  0  0  0  0  0  0  0  0  0  0  0
  133.9225   69.5315   -0.9232 N   0  0  0  0  0  0  0  0  0  0  0  0
  130.9131   68.5898   -0.9416 N   0  0  0  0  0  0  0  0  0  0  0  0
  129.5981   68.6673   -1.2639 C   0  0  0  0  0  0  0  0  0  0  0  0
  129.3335   69.7572   -2.0118 N   0  0  0  0  0  0  0  0  0  0  0  0
  2  1  1  1  0  0  0
  2  3  1  0  0  0  0
  2  5  1  0  0  0  0
  3  4  1  0  0  0  0
  3 16  1  0  0  0  0
  5  6  1  0  0  0  0
  6  7  1  0  0  0  0
  7  8  1  0  0  0  0
  9  8  1  6  0  0  0
  9 10  1  0  0  0  0
  9 11  1  0  0  0  0
 10 15  1  0  0  0  0
 11 12  1  1  0  0  0
 11 13  1  0  0  0  0
 13 14  1  1  0  0  0
 13 15  1  0  0  0  0
 15 26  1  6  0  0  0
 17 18  2  0  0  0  0
 17 22  1  0  0  0  0
 18 19  1  0  0  0  0
 19 20  2  0  0  0  0
 20 21  1  0  0  0  0
 20 26  1  0  0  0  0
 21 22  2  0  0  0  0
 21 24  1  0  0  0  0
 22 23  1  0  0  0  0
 24 25  2  0  0  0  0
 25 26  1  0  0  0  0
M  END
>  <CHROM.1>
143.05711669,177.85084792,69.99441743,143.63109058,-153.66914766,27.32779949
160.75798344,129.42204270,68.03048264,-2.49878156,-1.62799320,-0.45506500
-0.20575690

>  <Name>
ligand

>  <RI>
0

>  <Rbt.Current_Directory>
/home/itssahil/PROJECTS/Mol_Feturizer/Test_systems_manuscript/rnas/3npn

>  <Rbt.Executable>
rbdock ($Id: //depot/dev/client3/rdock/2013.1/src/exe/rbdock.cxx#4 $)

>  <Rbt.Library>
libRbt.so (2013.1, Build901 2013/11/27)

>  <Rbt.Parameter_File>
/export/apps/rDock/src/rDock_2013.1_src/data/scripts/dock_solv.prm

>  <Rbt.Receptor>
prm/pocket_docking_6.prm

>  <SCORE>
-16.4874

>  <SCORE.INTER>
-16.8226

>  <SCORE.INTER.CONST>
1

>  <SCORE.INTER.POLAR>
0

>  <SCORE.INTER.ROT>
7

>  <SCORE.INTER.SOLV>
15.6839

>  <SCORE.INTER.VDW>
-24.7097

>  <SCORE.INTER.norm>
-0.647023

>  <SCORE.INTRA>
0.33518

>  <SCORE.INTRA.DIHEDRAL>
4.23144

>  <SCORE.INTRA.DIHEDRAL.0>
4.37896

>  <SCORE.INTRA.POLAR>
0

>  <SCORE.INTRA.POLAR.0>
0

>  <SCORE.INTRA.REPUL>
0

>  <SCORE.INTRA.REPUL.0>
0

>  <SCORE.INTRA.SOLV>
-0.587126

>  <SCORE.INTRA.SOLV.lig_0>
-50.5538

>  <SCORE.INTRA.VDW>
-1.48698

>  <SCORE.INTRA.VDW.0>
-1.30673

>  <SCORE.INTRA.norm>
0.0128916

>  <SCORE.RESTR>
0

>  <SCORE.RESTR.CAVITY>
0

>  <SCORE.RESTR.norm>
0

>  <SCORE.SYSTEM>
0

>  <SCORE.SYSTEM.CONST>
0

>  <SCORE.SYSTEM.DIHEDRAL>
0

>  <SCORE.SYSTEM.SOLV>
0

>  <SCORE.SYSTEM.norm>
0

>  <SCORE.heavy>
26

>  <SCORE.norm>
-0.634132

>  <RMSD>
8.200

$$$$
ligand
 OpenBabel02271912153D
libRbt.so/2013.1/901 2013/11/27
 26 28  0  0  0  0  0  0  0  0999 V2000
  136.3821   59.6605   -3.8908 N   0  0  0  0  0  0  0  0  0  0  0  0
  135.1792   60.5450   -3.8953 C   0  0  2  0  0  0  0  0  0  0  0  0
  135.3211   61.6266   -4.9274 C   0  0  0  0  0  0  0  0  0  0  0  0
  134.4653   61.7977   -5.7946 O   0  0  0  0  0  0  0  0  0  0  0  0
  134.9810   61.1743   -2.5189 C   0  0  0  0  0  0  0  0  0  0  0  0
  133.7245   62.0341   -2.4223 C   0  0  0  0  0  0  0  0  0  0  0  0
  133.7039   62.8999   -0.8870 S   0  0  0  0  0  0  0  0  0  0  0  0
  132.3243   63.9814   -1.0829 C   0  0  0  0  0  0  0  0  0  0  0  0
  131.0333   63.3480   -0.5673 C   0  0  1  0  0  0  0  0  0  0  0  0
  130.0414   64.3477   -0.3240 O   0  0  0  0  0  0  0  0  0  0  0  0
  130.4661   62.3900   -1.6023 C   0  0  1  0  0  0  0  0  0  0  0  0
  130.1524   61.1372   -0.9865 O   0  0  0  0  0  0  0  0  0  0  0  0
  129.2203   63.0602   -2.1542 C   0  0  1  0  0  0  0  0  0  0  0  0
  128.0759   62.2064   -2.0470 O   0  0  0  0  0  0  0  0  0  0  0  0
  129.0105   64.3175   -1.3184 C   0  0  2  0  0  0  0  0  0  0  0  0
  136.3061   62.3635   -4.9354 O   0  0  0  0  0  0  0  0  0  0  0  0
  126.3892   68.3652   -3.4884 N   0  0  0  0  0  0  0  0  0  0  0  0
  125.9306   67.3548   -2.7225 C   0  0  0  0  0  0  0  0  0  0  0  0
  126.7220   66.3792   -2.2310 N   0  0  0  0  0  0  0  0  0  0  0  0
  128.0579   66.3548   -2.4867 C   0  0  0  0  0  0  0  0  0  0  0  0
  128.6311   67.4281   -3.3178 C   0  0  0  0  0  0  0  0  0  0  0  0
  127.6983   68.4680   -3.8211 C   0  0  0  0  0  0  0  0  0  0  0  0
  128.1464   69.4863   -4.5934 N   0  0  0  0  0  0  0  0  0  0  0  0
  129.9484   67.1813   -3.4173 N   0  0  0  0  0  0  0  0  0  0  0  0
  130.2002   66.0483   -2.7157 C   0  0  0  0  0  0  0  0  0  0  0  0
  129.0785   65.5493   -2.1590 N   0  0  0  0  0  0  0  0  0  0  0  0
  2  1  1  1  0  0  0
  2  3  1  0  0  0  0
  2  5  1  0  0  0  0
  3  4  1  0  0  0  0
  3 16  1  0  0  0  0
  5  6  1  0  0  0  0
  6  7  1  0  0  0  0
  7  8  1  0  0  0  0
  9  8  1  6  0  0  0
  9 10  1  0  0  0  0
  9 11  1  0  0  0  0
 10 15  1  0  0  0  0
 11 12  1  1  0  0  0
 11 13  1  0  0  0  0
 13 14  1  1  0  0  0
 13 15  1  0  0  0  0
 15 26  1  6  0  0  0
 17 18  2  0  0  0  0
 17 22  1  0  0  0  0
 18 19  1  0  0  0  0
 19 20  2  0  0  0  0
 20 21  1  0  0  0  0
 20 26  1  0  0  0  0
 21 22  2  0  0  0  0
 21 24  1  0  0  0  0
 22 23  1  0  0  0  0
 24 25  2  0  0  0  0
 25 26  1  0  0  0  0
M  END
>  <CHROM.1>
125.27352024,-176.83572394,-171.79584575,172.23765216,91.34295636,161.06529440
-131.67824466,131.02670063,64.05508644,-2.61008617,-0.45111583,0.51813072
-0.71390027

>  <Name>
ligand

>  <RI>
0

>  <Rbt.Current_Directory>
/home/itssahil/PROJECTS/Mol_Feturizer/Test_systems_manuscript/rnas/3npn

>  <Rbt.Executable>
rbdock ($Id: //depot/dev/client3/rdock/2013.1/src/exe/rbdock.cxx#4 $)

>  <Rbt.Library>
libRbt.so (2013.1, Build901 2013/11/27)

>  <Rbt.Parameter_File>
/export/apps/rDock/src/rDock_2013.1_src/data/scripts/dock_solv.prm

>  <Rbt.Receptor>
prm/pocket_docking_7.prm

>  <SCORE>
-13.6553

>  <SCORE.INTER>
-12.6057

>  <SCORE.INTER.CONST>
1

>  <SCORE.INTER.POLAR>
0

>  <SCORE.INTER.ROT>
7

>  <SCORE.INTER.SOLV>
13.3585

>  <SCORE.INTER.VDW>
-21.1233

>  <SCORE.INTER.norm>
-0.484834

>  <SCORE.INTRA>
-1.04958

>  <SCORE.INTRA.DIHEDRAL>
1.14725

>  <SCORE.INTRA.DIHEDRAL.0>
4.37896

>  <SCORE.INTRA.POLAR>
0

>  <SCORE.INTRA.POLAR.0>
0

>  <SCORE.INTRA.REPUL>
0

>  <SCORE.INTRA.REPUL.0>
0

>  <SCORE.INTRA.SOLV>
-0.823549

>  <SCORE.INTRA.SOLV.lig_0>
-50.5538

>  <SCORE.INTRA.VDW>
-1.21143

>  <SCORE.INTRA.VDW.0>
-1.30673

>  <SCORE.INTRA.norm>
-0.0403685

>  <SCORE.RESTR>
0

>  <SCORE.RESTR.CAVITY>
0

>  <SCORE.RESTR.norm>
0

>  <SCORE.SYSTEM>
0

>  <SCORE.SYSTEM.CONST>
0

>  <SCORE.SYSTEM.DIHEDRAL>
0

>  <SCORE.SYSTEM.SOLV>
0

>  <SCORE.SYSTEM.norm>
0

>  <SCORE.heavy>
26

>  <SCORE.norm>
-0.525202

>  <RMSD>
8.227

$$$$
ligand
 OpenBabel02271912153D
libRbt.so/2013.1/901 2013/11/27
 26 28  0  0  0  0  0  0  0  0999 V2000
  132.0864   59.9790   -2.3522 N   0  0  0  0  0  0  0  0  0  0  0  0
  130.8643   59.6380   -1.5651 C   0  0  2  0  0  0  0  0  0  0  0  0
  130.4383   58.2234   -1.8350 C   0  0  0  0  0  0  0  0  0  0  0  0
  130.3931   57.3874   -0.9335 O   0  0  0  0  0  0  0  0  0  0  0  0
  129.7256   60.5912   -1.9180 C   0  0  0  0  0  0  0  0  0  0  0  0
  130.0666   62.0578   -1.6724 C   0  0  0  0  0  0  0  0  0  0  0  0
  128.6005   63.0347   -1.7308 S   0  0  0  0  0  0  0  0  0  0  0  0
  129.1931   64.5650   -2.3777 C   0  0  0  0  0  0  0  0  0  0  0  0
  130.5861   64.8999   -1.8477 C   0  0  1  0  0  0  0  0  0  0  0  0
  131.0748   66.1069   -2.4366 O   0  0  0  0  0  0  0  0  0  0  0  0
  130.5400   65.1165   -0.3438 C   0  0  1  0  0  0  0  0  0  0  0  0
  131.5706   64.3529    0.2903 O   0  0  0  0  0  0  0  0  0  0  0  0
  130.7459   66.6055   -0.1291 C   0  0  1  0  0  0  0  0  0  0  0  0
  131.8315   66.8593    0.7693 O   0  0  0  0  0  0  0  0  0  0  0  0
  131.0590   67.1916   -1.5009 C   0  0  2  0  0  0  0  0  0  0  0  0
  130.1329   57.8641   -2.9711 O   0  0  0  0  0  0  0  0  0  0  0  0
  125.9974   68.1597   -2.6867 N   0  0  0  0  0  0  0  0  0  0  0  0
  126.5927   67.0019   -2.3363 C   0  0  0  0  0  0  0  0  0  0  0  0
  127.9086   66.8997   -2.0578 N   0  0  0  0  0  0  0  0  0  0  0  0
  128.7313   67.9815   -2.1176 C   0  0  0  0  0  0  0  0  0  0  0  0
  128.1505   69.2824   -2.4940 C   0  0  0  0  0  0  0  0  0  0  0  0
  126.6946   69.3170   -2.7842 C   0  0  0  0  0  0  0  0  0  0  0  0
  126.0858   70.4734   -3.1395 N   0  0  0  0  0  0  0  0  0  0  0  0
  129.1543   70.1758   -2.4769 N   0  0  0  0  0  0  0  0  0  0  0  0
  130.2813   69.5090   -2.1242 C   0  0  0  0  0  0  0  0  0  0  0  0
  130.0376   68.2007   -1.9094 N   0  0  0  0  0  0  0  0  0  0  0  0
  2  1  1  6  0  0  0
  2  3  1  0  0  0  0
  2  5  1  0  0  0  0
  3  4  1  0  0  0  0
  3 16  1  0  0  0  0
  5  6  1  0  0  0  0
  6  7  1  0  0  0  0
  7  8  1  0  0  0  0
  9  8  1  6  0  0  0
  9 10  1  0  0  0  0
  9 11  1  0  0  0  0
 10 15  1  0  0  0  0
 11 12  1  1  0  0  0
 11 13  1  0  0  0  0
 13 14  1  1  0  0  0
 13 15  1  0  0  0  0
 15 26  1  6  0  0  0
 17 18  2  0  0  0  0
 17 22  1  0  0  0  0
 18 19  1  0  0  0  0
 19 20  2  0  0  0  0
 20 21  1  0  0  0  0
 20 26  1  0  0  0  0
 21 22  2  0  0  0  0
 21 24  1  0  0  0  0
 22 23  1  0  0  0  0
 24 25  2  0  0  0  0
 25 26  1  0  0  0  0
M  END
>  <CHROM.1>
119.06255485,-58.12809386,-166.44977888,-147.81411646,-36.76498168,177.01915731
56.25095847,129.57010121,64.83797887,-1.76665027,-1.32052640,-0.46140392
0.06526505

>  <Name>
ligand

>  <RI>
0

>  <Rbt.Current_Directory>
/home/itssahil/PROJECTS/Mol_Feturizer/Test_systems_manuscript/rnas/3npn

>  <Rbt.Executable>
rbdock ($Id: //depot/dev/client3/rdock/2013.1/src/exe/rbdock.cxx#4 $)

>  <Rbt.Library>
libRbt.so (2013.1, Build901 2013/11/27)

>  <Rbt.Parameter_File>
/export/apps/rDock/src/rDock_2013.1_src/data/scripts/dock_solv.prm

>  <Rbt.Receptor>
prm/pocket_docking_3.prm

>  <SCORE>
-22.1204

>  <SCORE.INTER>
-23.1607

>  <SCORE.INTER.CONST>
1

>  <SCORE.INTER.POLAR>
0

>  <SCORE.INTER.ROT>
7

>  <SCORE.INTER.SOLV>
20.6398

>  <SCORE.INTER.VDW>
-30.5871

>  <SCORE.INTER.norm>
-0.890797

>  <SCORE.INTRA>
1.02772

>  <SCORE.INTRA.DIHEDRAL>
1.10264

>  <SCORE.INTRA.DIHEDRAL.0>
4.37896

>  <SCORE.INTRA.POLAR>
0

>  <SCORE.INTRA.POLAR.0>
0

>  <SCORE.INTRA.REPUL>
0

>  <SCORE.INTRA.REPUL.0>
0

>  <SCORE.INTRA.SOLV>
0.1232

>  <SCORE.INTRA.SOLV.lig_0>
-50.5538

>  <SCORE.INTRA.VDW>
0.414803

>  <SCORE.INTRA.VDW.0>
-1.30673

>  <SCORE.INTRA.norm>
0.0395278

>  <SCORE.RESTR>
0.0125555

>  <SCORE.RESTR.CAVITY>
0.0125555

>  <SCORE.RESTR.norm>
0.000482904

>  <SCORE.SYSTEM>
0

>  <SCORE.SYSTEM.CONST>
0

>  <SCORE.SYSTEM.DIHEDRAL>
0

>  <SCORE.SYSTEM.SOLV>
0

>  <SCORE.SYSTEM.norm>
0

>  <SCORE.heavy>
26

>  <SCORE.norm>
-0.850786

>  <RMSD>
8.236

$$$$
ligand
 OpenBabel02271912153D
libRbt.so/2013.1/901 2013/11/27
 26 28  0  0  0  0  0  0  0  0999 V2000
  133.3127   64.2174   -0.9524 N   0  0  0  0  0  0  0  0  0  0  0  0
  132.4206   64.9559   -0.0100 C   0  0  2  0  0  0  0  0  0  0  0  0
  132.7710   64.6325    1.4140 C   0  0  0  0  0  0  0  0  0  0  0  0
  133.1606   63.5109    1.7365 O   0  0  0  0  0  0  0  0  0  0  0  0
  130.9608   64.5951   -0.2721 C   0  0  0  0  0  0  0  0  0  0  0  0
  130.4192   65.1748   -1.5752 C   0  0  0  0  0  0  0  0  0  0  0  0
  128.7887   64.5732   -1.8701 S   0  0  0  0  0  0  0  0  0  0  0  0
  128.1253   65.7980   -2.9523 C   0  0  0  0  0  0  0  0  0  0  0  0
  127.3424   66.8630   -2.1865 C   0  0  1  0  0  0  0  0  0  0  0  0
  128.2289   67.7260   -1.4712 O   0  0  0  0  0  0  0  0  0  0  0  0
  126.5481   67.7288   -3.1510 C   0  0  1  0  0  0  0  0  0  0  0  0
  125.1924   67.8359   -2.7064 O   0  0  0  0  0  0  0  0  0  0  0  0
  127.2342   69.0834   -3.1592 C   0  0  1  0  0  0  0  0  0  0  0  0
  126.3132   70.1381   -2.8600 O   0  0  0  0  0  0  0  0  0  0  0  0
  128.3145   69.0172   -2.0860 C   0  0  2  0  0  0  0  0  0  0  0  0
  132.6663   65.4829    2.2966 O   0  0  0  0  0  0  0  0  0  0  0  0
  133.1395   71.1001   -1.4981 N   0  0  0  0  0  0  0  0  0  0  0  0
  132.0754   71.1472   -0.6714 C   0  0  0  0  0  0  0  0  0  0  0  0
  130.8922   70.5634   -0.9523 N   0  0  0  0  0  0  0  0  0  0  0  0
  130.6972   69.8802   -2.1124 C   0  0  0  0  0  0  0  0  0  0  0  0
  131.8168   69.7863   -3.0658 C   0  0  0  0  0  0  0  0  0  0  0  0
  133.0887   70.4523   -2.6866 C   0  0  0  0  0  0  0  0  0  0  0  0
  134.1635   70.4141   -3.5097 N   0  0  0  0  0  0  0  0  0  0  0  0
  131.3763   69.0686   -4.1132 N   0  0  0  0  0  0  0  0  0  0  0  0
  130.0872   68.7331   -3.8582 C   0  0  0  0  0  0  0  0  0  0  0  0
  129.6750   69.2139   -2.6683 N   0  0  0  0  0  0  0  0  0  0  0  0
  2  1  1  6  0  0  0
  2  3  1  0  0  0  0
  2  5  1  0  0  0  0
  3  4  1  0  0  0  0
  3 16  1  0  0  0  0
  5  6  1  0  0  0  0
  6  7  1  0  0  0  0
  7  8  1  0  0  0  0
  9  8  1  6  0  0  0
  9 10  1  0  0  0  0
  9 11  1  0  0  0  0
 10 15  1  0  0  0  0
 11 12  1  1  0  0  0
 11 13  1  0  0  0  0
 13 14  1  1  0  0  0
 13 15  1  0  0  0  0
 15 26  1  6  0  0  0
 17 18  2  0  0  0  0
 17 22  1  0  0  0  0
 18 19  1  0  0  0  0
 19 20  2  0  0  0  0
 20 21  1  0  0  0  0
 20 26  1  0  0  0  0
 21 22  2  0  0  0  0
 21 24  1  0  0  0  0
 22 23  1  0  0  0  0
 24 25  2  0  0  0  0
 25 26  1  0  0  0  0
M  END
>  <CHROM.1>
-34.71845134,-71.29023545,174.30061541,157.53051418,-94.63886915,73.15751968
-98.51935991,130.21234221,67.54209453,-1.69698176,0.87425500,0.30082435,2.73671597

>  <Name>
ligand

>  <RI>
0

>  <Rbt.Current_Directory>
/home/itssahil/PROJECTS/Mol_Feturizer/Test_systems_manuscript/rnas/3npn

>  <Rbt.Executable>
rbdock ($Id: //depot/dev/client3/rdock/2013.1/src/exe/rbdock.cxx#4 $)

>  <Rbt.Library>
libRbt.so (2013.1, Build901 2013/11/27)

>  <Rbt.Parameter_File>
/export/apps/rDock/src/rDock_2013.1_src/data/scripts/dock_solv.prm

>  <Rbt.Receptor>
prm/pocket_docking_7.prm

>  <SCORE>
-13.2628

>  <SCORE.INTER>
-12.4433

>  <SCORE.INTER.CONST>
1

>  <SCORE.INTER.POLAR>
0

>  <SCORE.INTER.ROT>
7

>  <SCORE.INTER.SOLV>
8.99414

>  <SCORE.INTER.VDW>
-19.5602

>  <SCORE.INTER.norm>
-0.478588

>  <SCORE.INTRA>
-0.819525

>  <SCORE.INTRA.DIHEDRAL>
1.70663

>  <SCORE.INTRA.DIHEDRAL.0>
4.37896

>  <SCORE.INTRA.POLAR>
0

>  <SCORE.INTRA.POLAR.0>
0

>  <SCORE.INTRA.REPUL>
0

>  <SCORE.INTRA.REPUL.0>
0

>  <SCORE.INTRA.SOLV>
-0.270443

>  <SCORE.INTRA.SOLV.lig_0>
-50.5538

>  <SCORE.INTRA.VDW>
-1.53762

>  <SCORE.INTRA.VDW.0>
-1.30673

>  <SCORE.INTRA.norm>
-0.0315202

>  <SCORE.RESTR>
0

>  <SCORE.RESTR.CAVITY>
0

>  <SCORE.RESTR.norm>
0

>  <SCORE.SYSTEM>
0

>  <SCORE.SYSTEM.CONST>
0

>  <SCORE.SYSTEM.DIHEDRAL>
0

>  <SCORE.SYSTEM.SOLV>
0

>  <SCORE.SYSTEM.norm>
0

>  <SCORE.heavy>
26

>  <SCORE.norm>
-0.510108

>  <RMSD>
8.286

$$$$
ligand
 OpenBabel02271912153D
libRbt.so/2013.1/901 2013/11/27
 26 28  0  0  0  0  0  0  0  0999 V2000
  132.4248   59.8584   -2.5955 N   0  0  0  0  0  0  0  0  0  0  0  0
  131.6559   59.6595   -1.3312 C   0  0  2  0  0  0  0  0  0  0  0  0
  130.9090   58.3572   -1.3650 C   0  0  0  0  0  0  0  0  0  0  0  0
  131.0404   57.5226   -0.4707 O   0  0  0  0  0  0  0  0  0  0  0  0
  130.6720   60.8081   -1.1251 C   0  0  0  0  0  0  0  0  0  0  0  0
  129.5660   60.8528   -2.1749 C   0  0  0  0  0  0  0  0  0  0  0  0
  128.4555   62.1759   -1.8238 S   0  0  0  0  0  0  0  0  0  0  0  0
  129.4888   63.5936   -2.0067 C   0  0  0  0  0  0  0  0  0  0  0  0
  128.6775   64.8435   -2.3434 C   0  0  1  0  0  0  0  0  0  0  0  0
  128.4310   65.6184   -1.1681 O   0  0  0  0  0  0  0  0  0  0  0  0
  129.4461   65.7254   -3.3140 C   0  0  1  0  0  0  0  0  0  0  0  0
  128.6024   66.0958   -4.4086 O   0  0  0  0  0  0  0  0  0  0  0  0
  129.8824   66.9425   -2.5178 C   0  0  1  0  0  0  0  0  0  0  0  0
  129.4592   68.1577   -3.1459 O   0  0  0  0  0  0  0  0  0  0  0  0
  129.2263   66.8099   -1.1484 C   0  0  2  0  0  0  0  0  0  0  0  0
  130.1526   58.0895   -2.2974 O   0  0  0  0  0  0  0  0  0  0  0  0
  131.1509   68.8963    3.3134 N   0  0  0  0  0  0  0  0  0  0  0  0
  130.1201   69.3058    2.5468 C   0  0  0  0  0  0  0  0  0  0  0  0
  129.7346   68.6693    1.4216 N   0  0  0  0  0  0  0  0  0  0  0  0
  130.3784   67.5541    0.9827 C   0  0  0  0  0  0  0  0  0  0  0  0
  131.5160   67.0472    1.7703 C   0  0  0  0  0  0  0  0  0  0  0  0
  131.8804   67.7994    2.9976 C   0  0  0  0  0  0  0  0  0  0  0  0
  132.9152   67.3995    3.7744 N   0  0  0  0  0  0  0  0  0  0  0  0
  131.9697   65.9519    1.1373 N   0  0  0  0  0  0  0  0  0  0  0  0
  131.1954   65.7718    0.0385 C   0  0  0  0  0  0  0  0  0  0  0  0
  130.2455   66.7230   -0.0610 N   0  0  0  0  0  0  0  0  0  0  0  0
  2  1  1  6  0  0  0
  2  3  1  0  0  0  0
  2  5  1  0  0  0  0
  3  4  1  0  0  0  0
  3 16  1  0  0  0  0
  5  6  1  0  0  0  0
  6  7  1  0  0  0  0
  7  8  1  0  0  0  0
  9  8  1  1  0  0  0
  9 10  1  0  0  0  0
  9 11  1  0  0  0  0
 10 15  1  0  0  0  0
 11 12  1  6  0  0  0
 11 13  1  0  0  0  0
 13 14  1  6  0  0  0
 13 15  1  0  0  0  0
 15 26  1  1  0  0  0
 17 18  2  0  0  0  0
 17 22  1  0  0  0  0
 18 19  1  0  0  0  0
 19 20  2  0  0  0  0
 20 21  1  0  0  0  0
 20 26  1  0  0  0  0
 21 22  2  0  0  0  0
 21 24  1  0  0  0  0
 22 23  1  0  0  0  0
 24 25  2  0  0  0  0
 25 26  1  0  0  0  0
M  END
>  <CHROM.1>
125.79783269,65.99397867,178.19441762,63.98001947,155.47052034,97.85285048
-120.06671932,130.22760607,64.42014892,-0.72955991,-1.61605054,-1.03550736
0.30579688

>  <Name>
ligand

>  <RI>
0

>  <Rbt.Current_Directory>
/home/itssahil/PROJECTS/Mol_Feturizer/Test_systems_manuscript/rnas/3npn

>  <Rbt.Executable>
rbdock ($Id: //depot/dev/client3/rdock/2013.1/src/exe/rbdock.cxx#4 $)

>  <Rbt.Library>
libRbt.so (2013.1, Build901 2013/11/27)

>  <Rbt.Parameter_File>
/export/apps/rDock/src/rDock_2013.1_src/data/scripts/dock_solv.prm

>  <Rbt.Receptor>
prm/pocket_docking_7.prm

>  <SCORE>
-19.0027

>  <SCORE.INTER>
-20.4128

>  <SCORE.INTER.CONST>
1

>  <SCORE.INTER.POLAR>
0

>  <SCORE.INTER.ROT>
7

>  <SCORE.INTER.SOLV>
13.5476

>  <SCORE.INTER.VDW>
-26.3911

>  <SCORE.INTER.norm>
-0.785108

>  <SCORE.INTRA>
1.4101

>  <SCORE.INTRA.DIHEDRAL>
3.01671

>  <SCORE.INTRA.DIHEDRAL.0>
4.37896

>  <SCORE.INTRA.POLAR>
0

>  <SCORE.INTRA.POLAR.0>
0

>  <SCORE.INTRA.REPUL>
0

>  <SCORE.INTRA.REPUL.0>
0

>  <SCORE.INTRA.SOLV>
-0.393403

>  <SCORE.INTRA.SOLV.lig_0>
-50.5538

>  <SCORE.INTRA.VDW>
0.0984423

>  <SCORE.INTRA.VDW.0>
-1.30673

>  <SCORE.INTRA.norm>
0.0542345

>  <SCORE.RESTR>
0

>  <SCORE.RESTR.CAVITY>
0

>  <SCORE.RESTR.norm>
0

>  <SCORE.SYSTEM>
0

>  <SCORE.SYSTEM.CONST>
0

>  <SCORE.SYSTEM.DIHEDRAL>
0

>  <SCORE.SYSTEM.SOLV>
0

>  <SCORE.SYSTEM.norm>
0

>  <SCORE.heavy>
26

>  <SCORE.norm>
-0.730873

>  <RMSD>
8.300

$$$$
ligand
 OpenBabel02271912153D
libRbt.so/2013.1/901 2013/11/27
 26 28  0  0  0  0  0  0  0  0999 V2000
  132.2243   57.2467   -0.7180 N   0  0  0  0  0  0  0  0  0  0  0  0
  130.9933   57.4371   -1.5413 C   0  0  2  0  0  0  0  0  0  0  0  0
  131.2049   56.9238   -2.9366 C   0  0  0  0  0  0  0  0  0  0  0  0
  132.2546   57.1356   -3.5423 O   0  0  0  0  0  0  0  0  0  0  0  0
  130.6150   58.9149   -1.5919 C   0  0  0  0  0  0  0  0  0  0  0  0
  129.4499   59.2091   -2.5319 C   0  0  0  0  0  0  0  0  0  0  0  0
  128.7104   60.7525   -2.1097 S   0  0  0  0  0  0  0  0  0  0  0  0
  130.1150   61.7587   -1.7550 C   0  0  0  0  0  0  0  0  0  0  0  0
  129.7068   63.1195   -1.1935 C   0  0  1  0  0  0  0  0  0  0  0  0
  130.8428   63.8137   -0.6738 O   0  0  0  0  0  0  0  0  0  0  0  0
  129.1105   63.9855   -2.2913 C   0  0  1  0  0  0  0  0  0  0  0  0
  127.8698   64.5455   -1.8503 O   0  0  0  0  0  0  0  0  0  0  0  0
  130.1358   65.0697   -2.5721 C   0  0  1  0  0  0  0  0  0  0  0  0
  129.5590   66.3758   -2.4639 O   0  0  0  0  0  0  0  0  0  0  0  0
  131.2313   64.8974   -1.5265 C   0  0  2  0  0  0  0  0  0  0  0  0
  130.3251   56.2853   -3.5124 O   0  0  0  0  0  0  0  0  0  0  0  0
  134.2956   65.3219   -5.8153 N   0  0  0  0  0  0  0  0  0  0  0  0
  133.0373   65.7604   -5.6101 C   0  0  0  0  0  0  0  0  0  0  0  0
  132.3692   65.5805   -4.4521 N   0  0  0  0  0  0  0  0  0  0  0  0
  132.9368   64.9297   -3.4008 C   0  0  0  0  0  0  0  0  0  0  0  0
  134.3117   64.4218   -3.5520 C   0  0  0  0  0  0  0  0  0  0  0  0
  134.9835   64.6594   -4.8547 C   0  0  0  0  0  0  0  0  0  0  0  0
  136.2462   64.2215   -5.0737 N   0  0  0  0  0  0  0  0  0  0  0  0
  134.6377   63.8308   -2.3898 N   0  0  0  0  0  0  0  0  0  0  0  0
  133.5670   63.9453   -1.5653 C   0  0  0  0  0  0  0  0  0  0  0  0
  132.5491   64.5980   -2.1609 N   0  0  0  0  0  0  0  0  0  0  0  0
  2  1  1  1  0  0  0
  2  3  1  0  0  0  0
  2  5  1  0  0  0  0
  3  4  1  0  0  0  0
  3 16  1  0  0  0  0
  5  6  1  0  0  0  0
  6  7  1  0  0  0  0
  7  8  1  0  0  0  0
  9  8  1  6  0  0  0
  9 10  1  0  0  0  0
  9 11  1  0  0  0  0
 10 15  1  0  0  0  0
 11 12  1  1  0  0  0
 11 13  1  0  0  0  0
 13 14  1  1  0  0  0
 13 15  1  0  0  0  0
 15 26  1  6  0  0  0
 17 18  2  0  0  0  0
 17 22  1  0  0  0  0
 18 19  1  0  0  0  0
 19 20  2  0  0  0  0
 20 21  1  0  0  0  0
 20 26  1  0  0  0  0
 21 22  2  0  0  0  0
 21 24  1  0  0  0  0
 22 23  1  0  0  0  0
 24 25  2  0  0  0  0
 25 26  1  0  0  0  0
M  END
>  <CHROM.1>
-42.16567238,174.07040978,159.53419195,40.80577954,-173.05805897,168.75953815
144.35995621,131.44804124,62.34750251,-2.70026679,-1.90617995,0.42885243
-0.04296787

>  <Name>
ligand

>  <RI>
0

>  <Rbt.Current_Directory>
/home/itssahil/PROJECTS/Mol_Feturizer/Test_systems_manuscript/rnas/3npn

>  <Rbt.Executable>
rbdock ($Id: //depot/dev/client3/rdock/2013.1/src/exe/rbdock.cxx#4 $)

>  <Rbt.Library>
libRbt.so (2013.1, Build901 2013/11/27)

>  <Rbt.Parameter_File>
/export/apps/rDock/src/rDock_2013.1_src/data/scripts/dock_solv.prm

>  <Rbt.Receptor>
prm/pocket_docking_6.prm

>  <SCORE>
-19.2664

>  <SCORE.INTER>
-20.6975

>  <SCORE.INTER.CONST>
1

>  <SCORE.INTER.POLAR>
0

>  <SCORE.INTER.ROT>
7

>  <SCORE.INTER.SOLV>
12.2286

>  <SCORE.INTER.VDW>
-26.1412

>  <SCORE.INTER.norm>
-0.796057

>  <SCORE.INTRA>
1.43106

>  <SCORE.INTRA.DIHEDRAL>
0.903891

>  <SCORE.INTRA.DIHEDRAL.0>
4.37896

>  <SCORE.INTRA.POLAR>
0

>  <SCORE.INTRA.POLAR.0>
0

>  <SCORE.INTRA.REPUL>
0

>  <SCORE.INTRA.REPUL.0>
0

>  <SCORE.INTRA.SOLV>
-0.83481

>  <SCORE.INTRA.SOLV.lig_0>
-50.5538

>  <SCORE.INTRA.VDW>
1.39652

>  <SCORE.INTRA.VDW.0>
-1.30673

>  <SCORE.INTRA.norm>
0.0550408

>  <SCORE.RESTR>
0

>  <SCORE.RESTR.CAVITY>
0

>  <SCORE.RESTR.norm>
0

>  <SCORE.SYSTEM>
0

>  <SCORE.SYSTEM.CONST>
0

>  <SCORE.SYSTEM.DIHEDRAL>
0

>  <SCORE.SYSTEM.SOLV>
0

>  <SCORE.SYSTEM.norm>
0

>  <SCORE.heavy>
26

>  <SCORE.norm>
-0.741016

>  <RMSD>
8.314

$$$$
ligand
 OpenBabel02271912153D
libRbt.so/2013.1/901 2013/11/27
 26 28  0  0  0  0  0  0  0  0999 V2000
  131.4906   61.3648   -1.7727 N   0  0  0  0  0  0  0  0  0  0  0  0
  130.1674   60.7357   -1.4850 C   0  0  2  0  0  0  0  0  0  0  0  0
  130.1131   59.3404   -2.0375 C   0  0  0  0  0  0  0  0  0  0  0  0
  131.1112   58.8047   -2.5176 O   0  0  0  0  0  0  0  0  0  0  0  0
  129.0427   61.5702   -2.0920 C   0  0  0  0  0  0  0  0  0  0  0  0
  128.8667   62.9282   -1.4195 C   0  0  0  0  0  0  0  0  0  0  0  0
  130.2401   63.9679   -1.7935 S   0  0  0  0  0  0  0  0  0  0  0  0
  129.7933   65.4808   -1.0043 C   0  0  0  0  0  0  0  0  0  0  0  0
  128.6278   66.1655   -1.7160 C   0  0  1  0  0  0  0  0  0  0  0  0
  128.3038   67.4037   -1.0800 O   0  0  0  0  0  0  0  0  0  0  0  0
  129.0006   66.4801   -3.1557 C   0  0  1  0  0  0  0  0  0  0  0  0
  127.9698   66.0238   -4.0368 O   0  0  0  0  0  0  0  0  0  0  0  0
  129.1587   67.9886   -3.2267 C   0  0  1  0  0  0  0  0  0  0  0  0
  128.3401   68.5524   -4.2574 O   0  0  0  0  0  0  0  0  0  0  0  0
  128.7244   68.5242   -1.8673 C   0  0  2  0  0  0  0  0  0  0  0  0
  129.0618   58.7017   -2.0316 O   0  0  0  0  0  0  0  0  0  0  0  0
  132.0812   68.6314    2.2173 N   0  0  0  0  0  0  0  0  0  0  0  0
  131.1204   67.7346    1.9165 C   0  0  0  0  0  0  0  0  0  0  0  0
  130.3290   67.8330    0.8286 N   0  0  0  0  0  0  0  0  0  0  0  0
  130.4542   68.8666   -0.0471 C   0  0  0  0  0  0  0  0  0  0  0  0
  131.4843   69.8866    0.2170 C   0  0  0  0  0  0  0  0  0  0  0  0
  132.3183   69.7099    1.4328 C   0  0  0  0  0  0  0  0  0  0  0  0
  133.2846   70.6052    1.7468 N   0  0  0  0  0  0  0  0  0  0  0  0
  131.4075   70.7839   -0.7806 N   0  0  0  0  0  0  0  0  0  0  0  0
  130.4144   70.3794   -1.6109 C   0  0  0  0  0  0  0  0  0  0  0  0
  129.8409   69.2382   -1.1800 N   0  0  0  0  0  0  0  0  0  0  0  0
  2  1  1  6  0  0  0
  2  3  1  0  0  0  0
  2  5  1  0  0  0  0
  3  4  1  0  0  0  0
  3 16  1  0  0  0  0
  5  6  1  0  0  0  0
  6  7  1  0  0  0  0
  7  8  1  0  0  0  0
  9  8  1  1  0  0  0
  9 10  1  0  0  0  0
  9 11  1  0  0  0  0
 10 15  1  0  0  0  0
 11 12  1  6  0  0  0
 11 13  1  0  0  0  0
 13 14  1  6  0  0  0
 13 15  1  0  0  0  0
 15 26  1  1  0  0  0
 17 18  2  0  0  0  0
 17 22  1  0  0  0  0
 18 19  1  0  0  0  0
 19 20  2  0  0  0  0
 20 21  1  0  0  0  0
 20 26  1  0  0  0  0
 21 22  2  0  0  0  0
 21 24  1  0  0  0  0
 22 23  1  0  0  0  0
 24 25  2  0  0  0  0
 25 26  1  0  0  0  0
M  END
>  <CHROM.1>
7.21724979,-67.83083228,69.45932360,177.09496053,-70.02336468,-178.59727705
4.62344195,130.06623344,65.85704374,-1.27723696,-1.74207796,-0.89270716,0.08301723

>  <Name>
ligand

>  <RI>
0

>  <Rbt.Current_Directory>
/home/itssahil/PROJECTS/Mol_Feturizer/Test_systems_manuscript/rnas/3npn

>  <Rbt.Executable>
rbdock ($Id: //depot/dev/client3/rdock/2013.1/src/exe/rbdock.cxx#4 $)

>  <Rbt.Library>
libRbt.so (2013.1, Build901 2013/11/27)

>  <Rbt.Parameter_File>
/export/apps/rDock/src/rDock_2013.1_src/data/scripts/dock_solv.prm

>  <Rbt.Receptor>
prm/pocket_docking_7.prm

>  <SCORE>
-18.064

>  <SCORE.INTER>
-17.7581

>  <SCORE.INTER.CONST>
1

>  <SCORE.INTER.POLAR>
0

>  <SCORE.INTER.ROT>
7

>  <SCORE.INTER.SOLV>
13.0331

>  <SCORE.INTER.VDW>
-24.4498

>  <SCORE.INTER.norm>
-0.683004

>  <SCORE.INTRA>
-0.305915

>  <SCORE.INTRA.DIHEDRAL>
-0.95371

>  <SCORE.INTRA.DIHEDRAL.0>
4.37896

>  <SCORE.INTRA.POLAR>
0

>  <SCORE.INTRA.POLAR.0>
0

>  <SCORE.INTRA.REPUL>
0

>  <SCORE.INTRA.REPUL.0>
0

>  <SCORE.INTRA.SOLV>
1.4473

>  <SCORE.INTRA.SOLV.lig_0>
-50.5538

>  <SCORE.INTRA.VDW>
-0.552712

>  <SCORE.INTRA.VDW.0>
-1.30673

>  <SCORE.INTRA.norm>
-0.011766

>  <SCORE.RESTR>
0

>  <SCORE.RESTR.CAVITY>
0

>  <SCORE.RESTR.norm>
0

>  <SCORE.SYSTEM>
0

>  <SCORE.SYSTEM.CONST>
0

>  <SCORE.SYSTEM.DIHEDRAL>
0

>  <SCORE.SYSTEM.SOLV>
0

>  <SCORE.SYSTEM.norm>
0

>  <SCORE.heavy>
26

>  <SCORE.norm>
-0.69477

>  <RMSD>
8.319

$$$$
ligand
 OpenBabel02271912153D
libRbt.so/2013.1/901 2013/11/27
 26 28  0  0  0  0  0  0  0  0999 V2000
  131.3046   62.7293   -1.6008 N   0  0  0  0  0  0  0  0  0  0  0  0
  129.8843   62.3474   -1.3434 C   0  0  2  0  0  0  0  0  0  0  0  0
  129.5826   61.0006   -1.9352 C   0  0  0  0  0  0  0  0  0  0  0  0
  130.4833   60.2136   -2.2233 O   0  0  0  0  0  0  0  0  0  0  0  0
  128.9410   63.3900   -1.9375 C   0  0  0  0  0  0  0  0  0  0  0  0
  129.2920   64.8201   -1.5388 C   0  0  0  0  0  0  0  0  0  0  0  0
  128.0816   65.9355   -2.1697 S   0  0  0  0  0  0  0  0  0  0  0  0
  128.9202   67.4852   -2.0914 C   0  0  0  0  0  0  0  0  0  0  0  0
  127.9490   68.6587   -2.2069 C   0  0  1  0  0  0  0  0  0  0  0  0
  128.6531   69.9022   -2.1840 O   0  0  0  0  0  0  0  0  0  0  0  0
  127.1938   68.5904   -3.5244 C   0  0  1  0  0  0  0  0  0  0  0  0
  125.7907   68.7440   -3.2902 O   0  0  0  0  0  0  0  0  0  0  0  0
  127.7376   69.7228   -4.3774 C   0  0  1  0  0  0  0  0  0  0  0  0
  126.6869   70.5738   -4.8486 O   0  0  0  0  0  0  0  0  0  0  0  0
  128.6827   70.5128   -3.4797 C   0  0  2  0  0  0  0  0  0  0  0  0
  128.4225   60.6557   -2.1557 O   0  0  0  0  0  0  0  0  0  0  0  0
  132.6665   67.6516   -5.4563 N   0  0  0  0  0  0  0  0  0  0  0  0
  131.4446   67.2567   -5.0455 C   0  0  0  0  0  0  0  0  0  0  0  0
  130.5165   68.1053   -4.5575 N   0  0  0  0  0  0  0  0  0  0  0  0
  130.7646   69.4383   -4.4461 C   0  0  0  0  0  0  0  0  0  0  0  0
  132.0803   69.9436   -4.8761 C   0  0  0  0  0  0  0  0  0  0  0  0
  133.0492   68.9500   -5.4042 C   0  0  0  0  0  0  0  0  0  0  0  0
  134.2804   69.3341   -5.8175 N   0  0  0  0  0  0  0  0  0  0  0  0
  132.0728   71.2717   -4.6704 N   0  0  0  0  0  0  0  0  0  0  0  0
  130.8616   71.5922   -4.1513 C   0  0  0  0  0  0  0  0  0  0  0  0
  130.0768   70.5049   -4.0137 N   0  0  0  0  0  0  0  0  0  0  0  0
  2  1  1  6  0  0  0
  2  3  1  0  0  0  0
  2  5  1  0  0  0  0
  3  4  1  0  0  0  0
  3 16  1  0  0  0  0
  5  6  1  0  0  0  0
  6  7  1  0  0  0  0
  7  8  1  0  0  0  0
  9  8  1  6  0  0  0
  9 10  1  0  0  0  0
  9 11  1  0  0  0  0
 10 15  1  0  0  0  0
 11 12  1  1  0  0  0
 11 13  1  0  0  0  0
 13 14  1  1  0  0  0
 13 15  1  0  0  0  0
 15 26  1  6  0  0  0
 17 18  2  0  0  0  0
 17 22  1  0  0  0  0
 18 19  1  0  0  0  0
 19 20  2  0  0  0  0
 20 21  1  0  0  0  0
 20 26  1  0  0  0  0
 21 22  2  0  0  0  0
 21 24  1  0  0  0  0
 22 23  1  0  0  0  0
 24 25  2  0  0  0  0
 25 26  1  0  0  0  0
M  END
>  <CHROM.1>
19.05077651,-50.24825319,-175.75052436,-161.69123221,-163.57061052,-178.15428269
71.36591971,129.66486927,67.15040576,-3.34008245,-1.66024645,0.32858642,-0.27164326

>  <Name>
ligand

>  <RI>
0

>  <Rbt.Current_Directory>
/home/itssahil/PROJECTS/Mol_Feturizer/Test_systems_manuscript/rnas/3npn

>  <Rbt.Executable>
rbdock ($Id: //depot/dev/client3/rdock/2013.1/src/exe/rbdock.cxx#4 $)

>  <Rbt.Library>
libRbt.so (2013.1, Build901 2013/11/27)

>  <Rbt.Parameter_File>
/export/apps/rDock/src/rDock_2013.1_src/data/scripts/dock_solv.prm

>  <Rbt.Receptor>
prm/pocket_docking_8.prm

>  <SCORE>
-24.4459

>  <SCORE.INTER>
-23.616

>  <SCORE.INTER.CONST>
1

>  <SCORE.INTER.POLAR>
0

>  <SCORE.INTER.ROT>
7

>  <SCORE.INTER.SOLV>
15.5748

>  <SCORE.INTER.VDW>
-29.2023

>  <SCORE.INTER.norm>
-0.908309

>  <SCORE.INTRA>
-0.829861

>  <SCORE.INTRA.DIHEDRAL>
-0.323604

>  <SCORE.INTRA.DIHEDRAL.0>
4.37896

>  <SCORE.INTRA.POLAR>
0

>  <SCORE.INTRA.POLAR.0>
0

>  <SCORE.INTRA.REPUL>
0

>  <SCORE.INTRA.REPUL.0>
0

>  <SCORE.INTRA.SOLV>
-0.00722321

>  <SCORE.INTRA.SOLV.lig_0>
-50.5538

>  <SCORE.INTRA.VDW>
-0.664447

>  <SCORE.INTRA.VDW.0>
-1.30673

>  <SCORE.INTRA.norm>
-0.0319177

>  <SCORE.RESTR>
0

>  <SCORE.RESTR.CAVITY>
0

>  <SCORE.RESTR.norm>
0

>  <SCORE.SYSTEM>
0

>  <SCORE.SYSTEM.CONST>
0

>  <SCORE.SYSTEM.DIHEDRAL>
0

>  <SCORE.SYSTEM.SOLV>
0

>  <SCORE.SYSTEM.norm>
0

>  <SCORE.heavy>
26

>  <SCORE.norm>
-0.940227

>  <RMSD>
8.326

$$$$
ligand
 OpenBabel02271912153D
libRbt.so/2013.1/901 2013/11/27
 26 28  0  0  0  0  0  0  0  0999 V2000
  132.5342   57.6577   -2.7332 N   0  0  0  0  0  0  0  0  0  0  0  0
  131.9515   57.9907   -1.3995 C   0  0  2  0  0  0  0  0  0  0  0  0
  132.3628   56.9745   -0.3732 C   0  0  0  0  0  0  0  0  0  0  0  0
  131.7965   55.8853   -0.2909 O   0  0  0  0  0  0  0  0  0  0  0  0
  130.4285   58.0423   -1.4864 C   0  0  0  0  0  0  0  0  0  0  0  0
  129.9061   59.2718   -2.2234 C   0  0  0  0  0  0  0  0  0  0  0  0
  130.3564   60.7345   -1.3488 S   0  0  0  0  0  0  0  0  0  0  0  0
  129.2938   61.9452   -2.0673 C   0  0  0  0  0  0  0  0  0  0  0  0
  129.3318   63.2608   -1.2918 C   0  0  1  0  0  0  0  0  0  0  0  0
  130.6050   63.4443   -0.6689 O   0  0  0  0  0  0  0  0  0  0  0  0
  129.1153   64.4344   -2.2334 C   0  0  1  0  0  0  0  0  0  0  0  0
  128.1097   65.3041   -1.7047 O   0  0  0  0  0  0  0  0  0  0  0  0
  130.4557   65.1403   -2.3371 C   0  0  1  0  0  0  0  0  0  0  0  0
  130.3405   66.5312   -2.0172 O   0  0  0  0  0  0  0  0  0  0  0  0
  131.3754   64.4515   -1.3356 C   0  0  2  0  0  0  0  0  0  0  0  0
  133.2731   57.2130    0.4190 O   0  0  0  0  0  0  0  0  0  0  0  0
  134.7745   64.6180   -5.3832 N   0  0  0  0  0  0  0  0  0  0  0  0
  133.7451   65.4378   -5.0899 C   0  0  0  0  0  0  0  0  0  0  0  0
  132.9517   65.2746   -4.0111 N   0  0  0  0  0  0  0  0  0  0  0  0
  133.1458   64.2497   -3.1378 C   0  0  0  0  0  0  0  0  0  0  0  0
  134.2534   63.3123   -3.3940 C   0  0  0  0  0  0  0  0  0  0  0  0
  135.0846   63.5573   -4.5998 C   0  0  0  0  0  0  0  0  0  0  0  0
  136.1197   62.7395   -4.9063 N   0  0  0  0  0  0  0  0  0  0  0  0
  134.2344   62.4073   -2.4005 N   0  0  0  0  0  0  0  0  0  0  0  0
  133.2045   62.7314   -1.5799 C   0  0  0  0  0  0  0  0  0  0  0  0
  132.5504   63.8276   -2.0131 N   0  0  0  0  0  0  0  0  0  0  0  0
  2  1  1  6  0  0  0
  2  3  1  0  0  0  0
  2  5  1  0  0  0  0
  3  4  1  0  0  0  0
  3 16  1  0  0  0  0
  5  6  1  0  0  0  0
  6  7  1  0  0  0  0
  7  8  1  0  0  0  0
  9  8  1  6  0  0  0
  9 10  1  0  0  0  0
  9 11  1  0  0  0  0
 10 15  1  0  0  0  0
 11 12  1  1  0  0  0
 11 13  1  0  0  0  0
 13 14  1  1  0  0  0
 13 15  1  0  0  0  0
 15 26  1  6  0  0  0
 17 18  2  0  0  0  0
 17 22  1  0  0  0  0
 18 19  1  0  0  0  0
 19 20  2  0  0  0  0
 20 21  1  0  0  0  0
 20 26  1  0  0  0  0
 21 22  2  0  0  0  0
 21 24  1  0  0  0  0
 22 23  1  0  0  0  0
 24 25  2  0  0  0  0
 25 26  1  0  0  0  0
M  END
>  <CHROM.1>
-79.84822904,-72.75985930,-63.09144921,-164.14704161,169.96852257,29.45373387
149.15389450,131.83166319,62.05917715,-2.19297283,-1.63967054,0.43866240
-0.27442019

>  <Name>
ligand

>  <RI>
0

>  <Rbt.Current_Directory>
/home/itssahil/PROJECTS/Mol_Feturizer/Test_systems_manuscript/rnas/3npn

>  <Rbt.Executable>
rbdock ($Id: //depot/dev/client3/rdock/2013.1/src/exe/rbdock.cxx#4 $)

>  <Rbt.Library>
libRbt.so (2013.1, Build901 2013/11/27)

>  <Rbt.Parameter_File>
/export/apps/rDock/src/rDock_2013.1_src/data/scripts/dock_solv.prm

>  <Rbt.Receptor>
prm/pocket_docking_7.prm

>  <SCORE>
-18.7536

>  <SCORE.INTER>
-19.4855

>  <SCORE.INTER.CONST>
1

>  <SCORE.INTER.POLAR>
0

>  <SCORE.INTER.ROT>
7

>  <SCORE.INTER.SOLV>
9.36584

>  <SCORE.INTER.VDW>
-24.3789

>  <SCORE.INTER.norm>
-0.749442

>  <SCORE.INTRA>
0.731888

>  <SCORE.INTRA.DIHEDRAL>
2.21109

>  <SCORE.INTRA.DIHEDRAL.0>
4.37896

>  <SCORE.INTRA.POLAR>
0

>  <SCORE.INTRA.POLAR.0>
0

>  <SCORE.INTRA.REPUL>
0

>  <SCORE.INTRA.REPUL.0>
0

>  <SCORE.INTRA.SOLV>
0.3646

>  <SCORE.INTRA.SOLV.lig_0>
-50.5538

>  <SCORE.INTRA.VDW>
-0.555958

>  <SCORE.INTRA.VDW.0>
-1.30673

>  <SCORE.INTRA.norm>
0.0281496

>  <SCORE.RESTR>
0

>  <SCORE.RESTR.CAVITY>
0

>  <SCORE.RESTR.norm>
0

>  <SCORE.SYSTEM>
0

>  <SCORE.SYSTEM.CONST>
0

>  <SCORE.SYSTEM.DIHEDRAL>
0

>  <SCORE.SYSTEM.SOLV>
0

>  <SCORE.SYSTEM.norm>
0

>  <SCORE.heavy>
26

>  <SCORE.norm>
-0.721292

>  <RMSD>
8.336

$$$$
ligand
 OpenBabel02271912153D
libRbt.so/2013.1/901 2013/11/27
 26 28  0  0  0  0  0  0  0  0999 V2000
  131.3661   57.3300   -0.7223 N   0  0  0  0  0  0  0  0  0  0  0  0
  130.6447   57.3082   -2.0294 C   0  0  2  0  0  0  0  0  0  0  0  0
  131.6184   57.2358   -3.1704 C   0  0  0  0  0  0  0  0  0  0  0  0
  131.4929   56.4000   -4.0645 O   0  0  0  0  0  0  0  0  0  0  0  0
  129.7779   58.5560   -2.1752 C   0  0  0  0  0  0  0  0  0  0  0  0
  130.5481   59.8557   -1.9628 C   0  0  0  0  0  0  0  0  0  0  0  0
  129.4292   61.2168   -1.9090 S   0  0  0  0  0  0  0  0  0  0  0  0
  130.4763   62.5457   -1.4102 C   0  0  0  0  0  0  0  0  0  0  0  0
  129.6696   63.7792   -1.0083 C   0  0  1  0  0  0  0  0  0  0  0  0
  130.5110   64.7537   -0.3878 O   0  0  0  0  0  0  0  0  0  0  0  0
  129.0536   64.4294   -2.2365 C   0  0  1  0  0  0  0  0  0  0  0  0
  127.6621   64.6752   -2.0115 O   0  0  0  0  0  0  0  0  0  0  0  0
  129.8149   65.7258   -2.4498 C   0  0  1  0  0  0  0  0  0  0  0  0
  128.9285   66.8484   -2.5150 O   0  0  0  0  0  0  0  0  0  0  0  0
  130.7486   65.8700   -1.2537 C   0  0  2  0  0  0  0  0  0  0  0  0
  132.5741   58.0078   -3.2322 O   0  0  0  0  0  0  0  0  0  0  0  0
  134.2054   65.5292   -5.2410 N   0  0  0  0  0  0  0  0  0  0  0  0
  132.8596   65.4509   -5.2600 C   0  0  0  0  0  0  0  0  0  0  0  0
  132.0952   65.5569   -4.1535 N   0  0  0  0  0  0  0  0  0  0  0  0
  132.6490   65.7506   -2.9261 C   0  0  0  0  0  0  0  0  0  0  0  0
  134.1161   65.8465   -2.8275 C   0  0  0  0  0  0  0  0  0  0  0  0
  134.8905   65.7223   -4.0885 C   0  0  0  0  0  0  0  0  0  0  0  0
  136.2427   65.7968   -4.0819 N   0  0  0  0  0  0  0  0  0  0  0  0
  134.4068   66.0383   -1.5295 N   0  0  0  0  0  0  0  0  0  0  0  0
  133.2318   66.0607   -0.8525 C   0  0  0  0  0  0  0  0  0  0  0  0
  132.1799   65.8890   -1.6777 N   0  0  0  0  0  0  0  0  0  0  0  0
  2  1  1  1  0  0  0
  2  3  1  0  0  0  0
  2  5  1  0  0  0  0
  3  4  1  0  0  0  0
  3 16  1  0  0  0  0
  5  6  1  0  0  0  0
  6  7  1  0  0  0  0
  7  8  1  0  0  0  0
  9  8  1  6  0  0  0
  9 10  1  0  0  0  0
  9 11  1  0  0  0  0
 10 15  1  0  0  0  0
 11 12  1  1  0  0  0
 11 13  1  0  0  0  0
 13 14  1  1  0  0  0
 13 15  1  0  0  0  0
 15 26  1  6  0  0  0
 17 18  2  0  0  0  0
 17 22  1  0  0  0  0
 18 19  1  0  0  0  0
 19 20  2  0  0  0  0
 20 21  1  0  0  0  0
 20 26  1  0  0  0  0
 21 22  2  0  0  0  0
 21 24  1  0  0  0  0
 22 23  1  0  0  0  0
 24 25  2  0  0  0  0
 25 26  1  0  0  0  0
M  END
>  <CHROM.1>
129.83529840,53.24070109,-171.50766222,171.44690495,-167.91972902,169.74008048
116.54239515,131.41322084,62.99838002,-2.46387727,-1.79759364,0.40299157
0.04157365

>  <Name>
ligand

>  <RI>
0

>  <Rbt.Current_Directory>
/home/itssahil/PROJECTS/Mol_Feturizer/Test_systems_manuscript/rnas/3npn

>  <Rbt.Executable>
rbdock ($Id: //depot/dev/client3/rdock/2013.1/src/exe/rbdock.cxx#4 $)

>  <Rbt.Library>
libRbt.so (2013.1, Build901 2013/11/27)

>  <Rbt.Parameter_File>
/export/apps/rDock/src/rDock_2013.1_src/data/scripts/dock_solv.prm

>  <Rbt.Receptor>
prm/pocket_docking_5.prm

>  <SCORE>
-17.6575

>  <SCORE.INTER>
-17.12

>  <SCORE.INTER.CONST>
1

>  <SCORE.INTER.POLAR>
0

>  <SCORE.INTER.ROT>
7

>  <SCORE.INTER.SOLV>
14.0926

>  <SCORE.INTER.VDW>
-24.3776

>  <SCORE.INTER.norm>
-0.658463

>  <SCORE.INTRA>
-0.537442

>  <SCORE.INTRA.DIHEDRAL>
-0.535773

>  <SCORE.INTRA.DIHEDRAL.0>
4.37896

>  <SCORE.INTRA.POLAR>
0

>  <SCORE.INTRA.POLAR.0>
0

>  <SCORE.INTRA.REPUL>
0

>  <SCORE.INTRA.REPUL.0>
0

>  <SCORE.INTRA.SOLV>
-0.0478287

>  <SCORE.INTRA.SOLV.lig_0>
-50.5538

>  <SCORE.INTRA.VDW>
-0.245641

>  <SCORE.INTRA.VDW.0>
-1.30673

>  <SCORE.INTRA.norm>
-0.0206708

>  <SCORE.RESTR>
0

>  <SCORE.RESTR.CAVITY>
0

>  <SCORE.RESTR.norm>
0

>  <SCORE.SYSTEM>
0

>  <SCORE.SYSTEM.CONST>
0

>  <SCORE.SYSTEM.DIHEDRAL>
0

>  <SCORE.SYSTEM.SOLV>
0

>  <SCORE.SYSTEM.norm>
0

>  <SCORE.heavy>
26

>  <SCORE.norm>
-0.679134

>  <RMSD>
8.343

$$$$
ligand
 OpenBabel02271912153D
libRbt.so/2013.1/901 2013/11/27
 26 28  0  0  0  0  0  0  0  0999 V2000
  132.8569   61.6357   -1.4233 N   0  0  0  0  0  0  0  0  0  0  0  0
  131.3927   61.5933   -1.1340 C   0  0  2  0  0  0  0  0  0  0  0  0
  130.7602   60.3932   -1.7781 C   0  0  0  0  0  0  0  0  0  0  0  0
  129.5407   60.2312   -1.7670 O   0  0  0  0  0  0  0  0  0  0  0  0
  130.7165   62.8632   -1.6437 C   0  0  0  0  0  0  0  0  0  0  0  0
  129.3006   63.0514   -1.1076 C   0  0  0  0  0  0  0  0  0  0  0  0
  128.4475   64.2567   -2.0702 S   0  0  0  0  0  0  0  0  0  0  0  0
  129.2973   65.7443   -1.6506 C   0  0  0  0  0  0  0  0  0  0  0  0
  128.4186   66.9755   -1.8642 C   0  0  1  0  0  0  0  0  0  0  0  0
  129.2151   68.1131   -2.2015 O   0  0  0  0  0  0  0  0  0  0  0  0
  127.4537   66.7412   -3.0153 C   0  0  1  0  0  0  0  0  0  0  0  0
  126.1254   67.0937   -2.6171 O   0  0  0  0  0  0  0  0  0  0  0  0
  127.9395   67.6207   -4.1538 C   0  0  1  0  0  0  0  0  0  0  0  0
  126.8980   68.4783   -4.6335 O   0  0  0  0  0  0  0  0  0  0  0  0
  129.0804   68.4568   -3.5858 C   0  0  2  0  0  0  0  0  0  0  0  0
  131.4513   59.5354   -2.3256 O   0  0  0  0  0  0  0  0  0  0  0  0
  133.6087   70.4305   -5.4731 N   0  0  0  0  0  0  0  0  0  0  0  0
  132.6028   71.0524   -4.8257 C   0  0  0  0  0  0  0  0  0  0  0  0
  131.4934   70.4169   -4.3955 N   0  0  0  0  0  0  0  0  0  0  0  0
  131.3187   69.0827   -4.5960 C   0  0  0  0  0  0  0  0  0  0  0  0
  132.3778   68.3360   -5.2975 C   0  0  0  0  0  0  0  0  0  0  0  0
  133.5700   69.1029   -5.7394 C   0  0  0  0  0  0  0  0  0  0  0  0
  134.5857   68.4900   -6.3928 N   0  0  0  0  0  0  0  0  0  0  0  0
  131.9721   67.0564   -5.3644 N   0  0  0  0  0  0  0  0  0  0  0  0
  130.7587   66.9865   -4.7626 C   0  0  0  0  0  0  0  0  0  0  0  0
  130.3622   68.1900   -4.3030 N   0  0  0  0  0  0  0  0  0  0  0  0
  2  1  1  6  0  0  0
  2  3  1  0  0  0  0
  2  5  1  0  0  0  0
  3  4  1  0  0  0  0
  3 16  1  0  0  0  0
  5  6  1  0  0  0  0
  6  7  1  0  0  0  0
  7  8  1  0  0  0  0
  9  8  1  6  0  0  0
  9 10  1  0  0  0  0
  9 11  1  0  0  0  0
 10 15  1  0  0  0  0
 11 12  1  1  0  0  0
 11 13  1  0  0  0  0
 13 14  1  1  0  0  0
 13 15  1  0  0  0  0
 15 26  1  6  0  0  0
 17 18  2  0  0  0  0
 17 22  1  0  0  0  0
 18 19  1  0  0  0  0
 19 20  2  0  0  0  0
 20 21  1  0  0  0  0
 20 26  1  0  0  0  0
 21 22  2  0  0  0  0
 21 24  1  0  0  0  0
 22 23  1  0  0  0  0
 24 25  2  0  0  0  0
 25 26  1  0  0  0  0
M  END
>  <CHROM.1>
-173.36480043,-166.48545541,-164.20333438,-68.76908978,-155.63421711,-150.04147792
-97.61764850,130.27464844,66.05099966,-3.28043443,-1.73074479,0.29315510
-0.35105043

>  <Name>
ligand

>  <RI>
0

>  <Rbt.Current_Directory>
/home/itssahil/PROJECTS/Mol_Feturizer/Test_systems_manuscript/rnas/3npn

>  <Rbt.Executable>
rbdock ($Id: //depot/dev/client3/rdock/2013.1/src/exe/rbdock.cxx#4 $)

>  <Rbt.Library>
libRbt.so (2013.1, Build901 2013/11/27)

>  <Rbt.Parameter_File>
/export/apps/rDock/src/rDock_2013.1_src/data/scripts/dock_solv.prm

>  <Rbt.Receptor>
prm/pocket_docking_6.prm

>  <SCORE>
-17.6711

>  <SCORE.INTER>
-20.5468

>  <SCORE.INTER.CONST>
1

>  <SCORE.INTER.POLAR>
0

>  <SCORE.INTER.ROT>
7

>  <SCORE.INTER.SOLV>
14.4394

>  <SCORE.INTER.VDW>
-26.7777

>  <SCORE.INTER.norm>
-0.790262

>  <SCORE.INTRA>
2.86406

>  <SCORE.INTRA.DIHEDRAL>
3.45166

>  <SCORE.INTRA.DIHEDRAL.0>
4.37896

>  <SCORE.INTRA.POLAR>
0

>  <SCORE.INTRA.POLAR.0>
0

>  <SCORE.INTRA.REPUL>
0

>  <SCORE.INTRA.REPUL.0>
0

>  <SCORE.INTRA.SOLV>
-0.740714

>  <SCORE.INTRA.SOLV.lig_0>
-50.5538

>  <SCORE.INTRA.VDW>
1.50859

>  <SCORE.INTRA.VDW.0>
-1.30673

>  <SCORE.INTRA.norm>
0.110156

>  <SCORE.RESTR>
0.0116721

>  <SCORE.RESTR.CAVITY>
0.0116721

>  <SCORE.RESTR.norm>
0.000448925

>  <SCORE.SYSTEM>
0

>  <SCORE.SYSTEM.CONST>
0

>  <SCORE.SYSTEM.DIHEDRAL>
0

>  <SCORE.SYSTEM.SOLV>
0

>  <SCORE.SYSTEM.norm>
0

>  <SCORE.heavy>
26

>  <SCORE.norm>
-0.679657

>  <RMSD>
8.370

$$$$
ligand
 OpenBabel02271912153D
libRbt.so/2013.1/901 2013/11/27
 26 28  0  0  0  0  0  0  0  0999 V2000
  132.3642   67.0488   -0.5617 N   0  0  0  0  0  0  0  0  0  0  0  0
  132.5050   65.7297   -1.2468 C   0  0  2  0  0  0  0  0  0  0  0  0
  133.6661   65.7488   -2.1989 C   0  0  0  0  0  0  0  0  0  0  0  0
  134.1573   66.8085   -2.5854 O   0  0  0  0  0  0  0  0  0  0  0  0
  131.2257   65.3901   -2.0070 C   0  0  0  0  0  0  0  0  0  0  0  0
  130.0130   65.2088   -1.0994 C   0  0  0  0  0  0  0  0  0  0  0  0
  128.6640   64.5480   -2.0219 S   0  0  0  0  0  0  0  0  0  0  0  0
  128.1940   65.9145   -3.0334 C   0  0  0  0  0  0  0  0  0  0  0  0
  127.3937   66.9503   -2.2459 C   0  0  1  0  0  0  0  0  0  0  0  0
  128.2666   67.8757   -1.5945 O   0  0  0  0  0  0  0  0  0  0  0  0
  126.5026   67.7508   -3.1818 C   0  0  1  0  0  0  0  0  0  0  0  0
  125.1681   67.7921   -2.6673 O   0  0  0  0  0  0  0  0  0  0  0  0
  127.1100   69.1407   -3.2508 C   0  0  1  0  0  0  0  0  0  0  0  0
  126.1481   70.1490   -2.9216 O   0  0  0  0  0  0  0  0  0  0  0  0
  128.2471   69.1566   -2.2359 C   0  0  2  0  0  0  0  0  0  0  0  0
  134.1486   64.7001   -2.6240 O   0  0  0  0  0  0  0  0  0  0  0  0
  131.1525   72.4063   -5.2296 N   0  0  0  0  0  0  0  0  0  0  0  0
  129.8757   72.5301   -4.8146 C   0  0  0  0  0  0  0  0  0  0  0  0
  129.2543   71.6129   -4.0449 N   0  0  0  0  0  0  0  0  0  0  0  0
  129.8918   70.4832   -3.6351 C   0  0  0  0  0  0  0  0  0  0  0  0
  131.2909   70.2795   -4.0503 C   0  0  0  0  0  0  0  0  0  0  0  0
  131.9082   71.3330   -4.8952 C   0  0  0  0  0  0  0  0  0  0  0  0
  133.1890   71.2188   -5.3203 N   0  0  0  0  0  0  0  0  0  0  0  0
  131.6871   69.1094   -3.5209 N   0  0  0  0  0  0  0  0  0  0  0  0
  130.6358   68.6035   -2.8294 C   0  0  0  0  0  0  0  0  0  0  0  0
  129.5620   69.4160   -2.8935 N   0  0  0  0  0  0  0  0  0  0  0  0
  2  1  1  6  0  0  0
  2  3  1  0  0  0  0
  2  5  1  0  0  0  0
  3  4  1  0  0  0  0
  3 16  1  0  0  0  0
  5  6  1  0  0  0  0
  6  7  1  0  0  0  0
  7  8  1  0  0  0  0
  9  8  1  6  0  0  0
  9 10  1  0  0  0  0
  9 11  1  0  0  0  0
 10 15  1  0  0  0  0
 11 12  1  1  0  0  0
 11 13  1  0  0  0  0
 13 14  1  1  0  0  0
 13 15  1  0  0  0  0
 15 26  1  6  0  0  0
 17 18  2  0  0  0  0
 17 22  1  0  0  0  0
 18 19  1  0  0  0  0
 19 20  2  0  0  0  0
 20 21  1  0  0  0  0
 20 26  1  0  0  0  0
 21 22  2  0  0  0  0
 21 24  1  0  0  0  0
 22 23  1  0  0  0  0
 24 25  2  0  0  0  0
 25 26  1  0  0  0  0
M  END
>  <CHROM.1>
-17.69552493,-63.81559001,-170.10215703,-71.29752165,-77.15355029,86.48806269
176.91877781,129.99044145,68.09665256,-2.87477120,-1.20704849,0.07013513
-0.40095126

>  <Name>
ligand

>  <RI>
0

>  <Rbt.Current_Directory>
/home/itssahil/PROJECTS/Mol_Feturizer/Test_systems_manuscript/rnas/3npn

>  <Rbt.Executable>
rbdock ($Id: //depot/dev/client3/rdock/2013.1/src/exe/rbdock.cxx#4 $)

>  <Rbt.Library>
libRbt.so (2013.1, Build901 2013/11/27)

>  <Rbt.Parameter_File>
/export/apps/rDock/src/rDock_2013.1_src/data/scripts/dock_solv.prm

>  <Rbt.Receptor>
prm/pocket_docking_8.prm

>  <SCORE>
-15.7345

>  <SCORE.INTER>
-14.6275

>  <SCORE.INTER.CONST>
1

>  <SCORE.INTER.POLAR>
0

>  <SCORE.INTER.ROT>
7

>  <SCORE.INTER.SOLV>
12.5641

>  <SCORE.INTER.VDW>
-22.2064

>  <SCORE.INTER.norm>
-0.562598

>  <SCORE.INTRA>
-1.10696

>  <SCORE.INTRA.DIHEDRAL>
1.5005

>  <SCORE.INTRA.DIHEDRAL.0>
4.37896

>  <SCORE.INTRA.POLAR>
0

>  <SCORE.INTRA.POLAR.0>
0

>  <SCORE.INTRA.REPUL>
0

>  <SCORE.INTRA.REPUL.0>
0

>  <SCORE.INTRA.SOLV>
0.521948

>  <SCORE.INTRA.SOLV.lig_0>
-50.5538

>  <SCORE.INTRA.VDW>
-2.11818

>  <SCORE.INTRA.VDW.0>
-1.30673

>  <SCORE.INTRA.norm>
-0.0425752

>  <SCORE.RESTR>
0

>  <SCORE.RESTR.CAVITY>
0

>  <SCORE.RESTR.norm>
0

>  <SCORE.SYSTEM>
0

>  <SCORE.SYSTEM.CONST>
0

>  <SCORE.SYSTEM.DIHEDRAL>
0

>  <SCORE.SYSTEM.SOLV>
0

>  <SCORE.SYSTEM.norm>
0

>  <SCORE.heavy>
26

>  <SCORE.norm>
-0.605173

>  <RMSD>
8.385

$$$$
ligand
 OpenBabel02271912153D
libRbt.so/2013.1/901 2013/11/27
 26 28  0  0  0  0  0  0  0  0999 V2000
  131.9649   62.9390   -1.6231 N   0  0  0  0  0  0  0  0  0  0  0  0
  130.6825   62.4368   -1.0462 C   0  0  2  0  0  0  0  0  0  0  0  0
  130.1339   61.3112   -1.8752 C   0  0  0  0  0  0  0  0  0  0  0  0
  128.9442   61.2682   -2.1857 O   0  0  0  0  0  0  0  0  0  0  0  0
  129.6577   63.5657   -0.9743 C   0  0  0  0  0  0  0  0  0  0  0  0
  129.5466   64.3650   -2.2690 C   0  0  0  0  0  0  0  0  0  0  0  0
  128.0575   65.3082   -2.2685 S   0  0  0  0  0  0  0  0  0  0  0  0
  128.6467   66.9427   -2.5728 C   0  0  0  0  0  0  0  0  0  0  0  0
  127.6670   67.9992   -2.0652 C   0  0  1  0  0  0  0  0  0  0  0  0
  128.3475   69.2219   -1.7745 O   0  0  0  0  0  0  0  0  0  0  0  0
  126.6230   68.3037   -3.1273 C   0  0  1  0  0  0  0  0  0  0  0  0
  125.3136   68.2486   -2.5533 O   0  0  0  0  0  0  0  0  0  0  0  0
  126.9420   69.6969   -3.6401 C   0  0  1  0  0  0  0  0  0  0  0  0
  125.8036   70.5607   -3.5503 O   0  0  0  0  0  0  0  0  0  0  0  0
  128.0663   70.2258   -2.7572 C   0  0  2  0  0  0  0  0  0  0  0  0
  130.8631   60.3967   -2.2560 O   0  0  0  0  0  0  0  0  0  0  0  0
  133.0434   68.8555   -3.9038 N   0  0  0  0  0  0  0  0  0  0  0  0
  132.1734   68.2935   -3.0407 C   0  0  0  0  0  0  0  0  0  0  0  0
  130.9199   68.7531   -2.8471 N   0  0  0  0  0  0  0  0  0  0  0  0
  130.4501   69.8356   -3.5240 C   0  0  0  0  0  0  0  0  0  0  0  0
  131.3456   70.5024   -4.4855 C   0  0  0  0  0  0  0  0  0  0  0  0
  132.7098   69.9384   -4.6461 C   0  0  0  0  0  0  0  0  0  0  0  0
  133.5934   70.4956   -5.5081 N   0  0  0  0  0  0  0  0  0  0  0  0
  130.6538   71.5253   -5.0161 N   0  0  0  0  0  0  0  0  0  0  0  0
  129.4239   71.5193   -4.4446 C   0  0  0  0  0  0  0  0  0  0  0  0
  129.2952   70.5160   -3.5536 N   0  0  0  0  0  0  0  0  0  0  0  0
  2  1  1  6  0  0  0
  2  3  1  0  0  0  0
  2  5  1  0  0  0  0
  3  4  1  0  0  0  0
  3 16  1  0  0  0  0
  5  6  1  0  0  0  0
  6  7  1  0  0  0  0
  7  8  1  0  0  0  0
  9  8  1  6  0  0  0
  9 10  1  0  0  0  0
  9 11  1  0  0  0  0
 10 15  1  0  0  0  0
 11 12  1  1  0  0  0
 11 13  1  0  0  0  0
 13 14  1  1  0  0  0
 13 15  1  0  0  0  0
 15 26  1  6  0  0  0
 17 18  2  0  0  0  0
 17 22  1  0  0  0  0
 18 19  1  0  0  0  0
 19 20  2  0  0  0  0
 20 21  1  0  0  0  0
 20 26  1  0  0  0  0
 21 22  2  0  0  0  0
 21 24  1  0  0  0  0
 22 23  1  0  0  0  0
 24 25  2  0  0  0  0
 25 26  1  0  0  0  0
M  END
>  <CHROM.1>
-134.60696755,47.78590805,163.55710114,125.61154242,-156.58203891,154.73260362
9.08525356,129.50193772,67.24193354,-2.91693767,-1.53312599,0.19751943,-0.26222597

>  <Name>
ligand

>  <RI>
0

>  <Rbt.Current_Directory>
/home/itssahil/PROJECTS/Mol_Feturizer/Test_systems_manuscript/rnas/3npn

>  <Rbt.Executable>
rbdock ($Id: //depot/dev/client3/rdock/2013.1/src/exe/rbdock.cxx#4 $)

>  <Rbt.Library>
libRbt.so (2013.1, Build901 2013/11/27)

>  <Rbt.Parameter_File>
/export/apps/rDock/src/rDock_2013.1_src/data/scripts/dock_solv.prm

>  <Rbt.Receptor>
prm/pocket_docking_6.prm

>  <SCORE>
-16.6689

>  <SCORE.INTER>
-19.0634

>  <SCORE.INTER.CONST>
1

>  <SCORE.INTER.POLAR>
0

>  <SCORE.INTER.ROT>
7

>  <SCORE.INTER.SOLV>
16.0617

>  <SCORE.INTER.VDW>
-26.3295

>  <SCORE.INTER.norm>
-0.733207

>  <SCORE.INTRA>
2.39389

>  <SCORE.INTRA.DIHEDRAL>
4.93106

>  <SCORE.INTRA.DIHEDRAL.0>
4.37896

>  <SCORE.INTRA.POLAR>
0

>  <SCORE.INTRA.POLAR.0>
0

>  <SCORE.INTRA.REPUL>
0

>  <SCORE.INTRA.REPUL.0>
0

>  <SCORE.INTRA.SOLV>
-0.0987103

>  <SCORE.INTRA.SOLV.lig_0>
-50.5538

>  <SCORE.INTRA.VDW>
-0.0222843

>  <SCORE.INTRA.VDW.0>
-1.30673

>  <SCORE.INTRA.norm>
0.0920727

>  <SCORE.RESTR>
0.000562801

>  <SCORE.RESTR.CAVITY>
0.000562801

>  <SCORE.RESTR.norm>
2.16462e-05

>  <SCORE.SYSTEM>
0

>  <SCORE.SYSTEM.CONST>
0

>  <SCORE.SYSTEM.DIHEDRAL>
0

>  <SCORE.SYSTEM.SOLV>
0

>  <SCORE.SYSTEM.norm>
0

>  <SCORE.heavy>
26

>  <SCORE.norm>
-0.641113

>  <RMSD>
8.438

$$$$
ligand
 OpenBabel02271912153D
libRbt.so/2013.1/901 2013/11/27
 26 28  0  0  0  0  0  0  0  0999 V2000
  133.3925   62.6619    1.5888 N   0  0  0  0  0  0  0  0  0  0  0  0
  133.3001   63.7732    0.5958 C   0  0  2  0  0  0  0  0  0  0  0  0
  133.4937   63.2537   -0.7998 C   0  0  0  0  0  0  0  0  0  0  0  0
  134.6030   62.9078   -1.2040 O   0  0  0  0  0  0  0  0  0  0  0  0
  134.3515   64.8382    0.8956 C   0  0  0  0  0  0  0  0  0  0  0  0
  134.2859   66.0352   -0.0481 C   0  0  0  0  0  0  0  0  0  0  0  0
  132.7219   66.8345    0.1010 S   0  0  0  0  0  0  0  0  0  0  0  0
  131.7635   66.0205   -1.1360 C   0  0  0  0  0  0  0  0  0  0  0  0
  130.3488   65.7178   -0.6452 C   0  0  1  0  0  0  0  0  0  0  0  0
  129.6443   66.9270   -0.3555 O   0  0  0  0  0  0  0  0  0  0  0  0
  129.5639   64.9830   -1.7197 C   0  0  1  0  0  0  0  0  0  0  0  0
  128.9342   63.8272   -1.1587 O   0  0  0  0  0  0  0  0  0  0  0  0
  128.5364   65.9736   -2.2382 C   0  0  1  0  0  0  0  0  0  0  0  0
  127.2104   65.4381   -2.1655 O   0  0  0  0  0  0  0  0  0  0  0  0
  128.6487   67.2052   -1.3474 C   0  0  2  0  0  0  0  0  0  0  0  0
  132.5445   63.1712   -1.5779 O   0  0  0  0  0  0  0  0  0  0  0  0
  127.0677   71.6554   -3.7265 N   0  0  0  0  0  0  0  0  0  0  0  0
  126.3451   70.7324   -3.0605 C   0  0  0  0  0  0  0  0  0  0  0  0
  126.8863   69.6328   -2.4968 N   0  0  0  0  0  0  0  0  0  0  0  0
  128.2215   69.3832   -2.5708 C   0  0  0  0  0  0  0  0  0  0  0  0
  129.0756   70.3493   -3.2839 C   0  0  0  0  0  0  0  0  0  0  0  0
  128.4087   71.5364   -3.8765 C   0  0  0  0  0  0  0  0  0  0  0  0
  129.1234   72.4691   -4.5499 N   0  0  0  0  0  0  0  0  0  0  0  0
  130.3339   69.8826   -3.2125 N   0  0  0  0  0  0  0  0  0  0  0  0
  130.2930   68.7183   -2.5182 C   0  0  0  0  0  0  0  0  0  0  0  0
  129.0376   68.4135   -2.1332 N   0  0  0  0  0  0  0  0  0  0  0  0
  2  1  1  1  0  0  0
  2  3  1  0  0  0  0
  2  5  1  0  0  0  0
  3  4  1  0  0  0  0
  3 16  1  0  0  0  0
  5  6  1  0  0  0  0
  6  7  1  0  0  0  0
  7  8  1  0  0  0  0
  9  8  1  6  0  0  0
  9 10  1  0  0  0  0
  9 11  1  0  0  0  0
 10 15  1  0  0  0  0
 11 12  1  1  0  0  0
 11 13  1  0  0  0  0
 13 14  1  1  0  0  0
 13 15  1  0  0  0  0
 15 26  1  6  0  0  0
 17 18  2  0  0  0  0
 17 22  1  0  0  0  0
 18 19  1  0  0  0  0
 19 20  2  0  0  0  0
 20 21  1  0  0  0  0
 20 26  1  0  0  0  0
 21 22  2  0  0  0  0
 21 24  1  0  0  0  0
 22 23  1  0  0  0  0
 24 25  2  0  0  0  0
 25 26  1  0  0  0  0
M  END
>  <CHROM.1>
-73.32318355,-177.85172349,61.35566805,-91.37965135,138.51283944,62.93472716
-141.01894582,130.47177514,66.89263189,-1.52105932,0.91847475,0.24150200
2.86392230

>  <Name>
ligand

>  <RI>
0

>  <Rbt.Current_Directory>
/home/itssahil/PROJECTS/Mol_Feturizer/Test_systems_manuscript/rnas/3npn

>  <Rbt.Executable>
rbdock ($Id: //depot/dev/client3/rdock/2013.1/src/exe/rbdock.cxx#4 $)

>  <Rbt.Library>
libRbt.so (2013.1, Build901 2013/11/27)

>  <Rbt.Parameter_File>
/export/apps/rDock/src/rDock_2013.1_src/data/scripts/dock_solv.prm

>  <Rbt.Receptor>
prm/pocket_docking_3.prm

>  <SCORE>
-6.36121

>  <SCORE.INTER>
-5.34231

>  <SCORE.INTER.CONST>
1

>  <SCORE.INTER.POLAR>
0

>  <SCORE.INTER.ROT>
7

>  <SCORE.INTER.SOLV>
21.3979

>  <SCORE.INTER.VDW>
-18.9608

>  <SCORE.INTER.norm>
-0.205474

>  <SCORE.INTRA>
-1.0189

>  <SCORE.INTRA.DIHEDRAL>
1.52595

>  <SCORE.INTRA.DIHEDRAL.0>
4.37896

>  <SCORE.INTRA.POLAR>
0

>  <SCORE.INTRA.POLAR.0>
0

>  <SCORE.INTRA.REPUL>
0

>  <SCORE.INTRA.REPUL.0>
0

>  <SCORE.INTRA.SOLV>
-0.571665

>  <SCORE.INTRA.SOLV.lig_0>
-50.5538

>  <SCORE.INTRA.VDW>
-1.49604

>  <SCORE.INTRA.VDW.0>
-1.30673

>  <SCORE.INTRA.norm>
-0.0391885

>  <SCORE.RESTR>
0

>  <SCORE.RESTR.CAVITY>
0

>  <SCORE.RESTR.norm>
0

>  <SCORE.SYSTEM>
0

>  <SCORE.SYSTEM.CONST>
0

>  <SCORE.SYSTEM.DIHEDRAL>
0

>  <SCORE.SYSTEM.SOLV>
0

>  <SCORE.SYSTEM.norm>
0

>  <SCORE.heavy>
26

>  <SCORE.norm>
-0.244662

>  <RMSD>
8.526

$$$$
ligand
 OpenBabel02271912153D
libRbt.so/2013.1/901 2013/11/27
 26 28  0  0  0  0  0  0  0  0999 V2000
  131.8057   56.0096   -1.4287 N   0  0  0  0  0  0  0  0  0  0  0  0
  131.3909   57.4298   -1.2276 C   0  0  2  0  0  0  0  0  0  0  0  0
  130.2417   57.7785   -2.1292 C   0  0  0  0  0  0  0  0  0  0  0  0
  130.2239   57.4235   -3.3070 O   0  0  0  0  0  0  0  0  0  0  0  0
  132.5628   58.3670   -1.5070 C   0  0  0  0  0  0  0  0  0  0  0  0
  132.3669   59.7675   -0.9346 C   0  0  0  0  0  0  0  0  0  0  0  0
  131.1856   60.6522   -1.8986 S   0  0  0  0  0  0  0  0  0  0  0  0
  131.4564   62.3191   -1.3895 C   0  0  0  0  0  0  0  0  0  0  0  0
  130.1728   62.9669   -0.8732 C   0  0  1  0  0  0  0  0  0  0  0  0
  130.4285   64.2922   -0.4035 O   0  0  0  0  0  0  0  0  0  0  0  0
  129.1489   63.0727   -1.9917 C   0  0  1  0  0  0  0  0  0  0  0  0
  127.8882   62.5616   -1.5482 O   0  0  0  0  0  0  0  0  0  0  0  0
  129.0553   64.5489   -2.3348 C   0  0  1  0  0  0  0  0  0  0  0  0
  127.7040   65.0174   -2.2658 O   0  0  0  0  0  0  0  0  0  0  0  0
  129.9109   65.2778   -1.3053 C   0  0  2  0  0  0  0  0  0  0  0  0
  129.2918   58.4389   -1.7111 O   0  0  0  0  0  0  0  0  0  0  0  0
  132.1266   66.9277   -5.8145 N   0  0  0  0  0  0  0  0  0  0  0  0
  131.0008   66.2115   -5.6207 C   0  0  0  0  0  0  0  0  0  0  0  0
  130.5484   65.8577   -4.4001 N   0  0  0  0  0  0  0  0  0  0  0  0
  131.2168   66.2077   -3.2681 C   0  0  0  0  0  0  0  0  0  0  0  0
  132.4570   66.9921   -3.4020 C   0  0  0  0  0  0  0  0  0  0  0  0
  132.8910   67.3458   -4.7773 C   0  0  0  0  0  0  0  0  0  0  0  0
  134.0212   68.0625   -4.9849 N   0  0  0  0  0  0  0  0  0  0  0  0
  132.9162   67.2086   -2.1577 N   0  0  0  0  0  0  0  0  0  0  0  0
  132.0507   66.6139   -1.2995 C   0  0  0  0  0  0  0  0  0  0  0  0
  131.0359   66.0145   -1.9537 N   0  0  0  0  0  0  0  0  0  0  0  0
  2  1  1  6  0  0  0
  2  3  1  0  0  0  0
  2  5  1  0  0  0  0
  3  4  1  0  0  0  0
  3 16  1  0  0  0  0
  5  6  1  0  0  0  0
  6  7  1  0  0  0  0
  7  8  1  0  0  0  0
  9  8  1  6  0  0  0
  9 10  1  0  0  0  0
  9 11  1  0  0  0  0
 10 15  1  0  0  0  0
 11 12  1  1  0  0  0
 11 13  1  0  0  0  0
 13 14  1  1  0  0  0
 13 15  1  0  0  0  0
 15 26  1  6  0  0  0
 17 18  2  0  0  0  0
 17 22  1  0  0  0  0
 18 19  1  0  0  0  0
 19 20  2  0  0  0  0
 20 21  1  0  0  0  0
 20 26  1  0  0  0  0
 21 22  2  0  0  0  0
 21 24  1  0  0  0  0
 22 23  1  0  0  0  0
 24 25  2  0  0  0  0
 25 26  1  0  0  0  0
M  END
>  <CHROM.1>
-43.28878178,-162.65500210,-73.73796521,-164.13629794,-124.34425316,177.06289675
127.98486206,130.91873108,62.98282611,-2.39710425,-1.67878367,0.44969023
-0.17299734

>  <Name>
ligand

>  <RI>
0

>  <Rbt.Current_Directory>
/home/itssahil/PROJECTS/Mol_Feturizer/Test_systems_manuscript/rnas/3npn

>  <Rbt.Executable>
rbdock ($Id: //depot/dev/client3/rdock/2013.1/src/exe/rbdock.cxx#4 $)

>  <Rbt.Library>
libRbt.so (2013.1, Build901 2013/11/27)

>  <Rbt.Parameter_File>
/export/apps/rDock/src/rDock_2013.1_src/data/scripts/dock_solv.prm

>  <Rbt.Receptor>
prm/pocket_docking_5.prm

>  <SCORE>
-18.2119

>  <SCORE.INTER>
-18.7027

>  <SCORE.INTER.CONST>
1

>  <SCORE.INTER.POLAR>
0

>  <SCORE.INTER.ROT>
7

>  <SCORE.INTER.SOLV>
14.3577

>  <SCORE.INTER.VDW>
-25.521

>  <SCORE.INTER.norm>
-0.719333

>  <SCORE.INTRA>
0.490751

>  <SCORE.INTRA.DIHEDRAL>
2.84047

>  <SCORE.INTRA.DIHEDRAL.0>
4.37896

>  <SCORE.INTRA.POLAR>
0

>  <SCORE.INTRA.POLAR.0>
0

>  <SCORE.INTRA.REPUL>
0

>  <SCORE.INTRA.REPUL.0>
0

>  <SCORE.INTRA.SOLV>
-0.611751

>  <SCORE.INTRA.SOLV.lig_0>
-50.5538

>  <SCORE.INTRA.VDW>
-0.623609

>  <SCORE.INTRA.VDW.0>
-1.30673

>  <SCORE.INTRA.norm>
0.018875

>  <SCORE.RESTR>
0

>  <SCORE.RESTR.CAVITY>
0

>  <SCORE.RESTR.norm>
0

>  <SCORE.SYSTEM>
0

>  <SCORE.SYSTEM.CONST>
0

>  <SCORE.SYSTEM.DIHEDRAL>
0

>  <SCORE.SYSTEM.SOLV>
0

>  <SCORE.SYSTEM.norm>
0

>  <SCORE.heavy>
26

>  <SCORE.norm>
-0.700458

>  <RMSD>
8.527

$$$$
ligand
 OpenBabel02271912153D
libRbt.so/2013.1/901 2013/11/27
 26 28  0  0  0  0  0  0  0  0999 V2000
  133.1497   66.1349   -4.3666 N   0  0  0  0  0  0  0  0  0  0  0  0
  132.1597   67.1231   -4.8887 C   0  0  2  0  0  0  0  0  0  0  0  0
  132.8560   68.2327   -5.6230 C   0  0  0  0  0  0  0  0  0  0  0  0
  132.6812   69.4107   -5.3140 O   0  0  0  0  0  0  0  0  0  0  0  0
  131.3390   67.7054   -3.7411 C   0  0  0  0  0  0  0  0  0  0  0  0
  130.5460   66.6542   -2.9705 C   0  0  0  0  0  0  0  0  0  0  0  0
  129.3152   65.9441   -4.0136 S   0  0  0  0  0  0  0  0  0  0  0  0
  128.2578   67.3181   -4.3379 C   0  0  0  0  0  0  0  0  0  0  0  0
  127.5978   67.8358   -3.0611 C   0  0  1  0  0  0  0  0  0  0  0  0
  128.4483   68.7720   -2.3958 O   0  0  0  0  0  0  0  0  0  0  0  0
  126.3019   68.5578   -3.3929 C   0  0  1  0  0  0  0  0  0  0  0  0
  125.2471   68.0753   -2.5552 O   0  0  0  0  0  0  0  0  0  0  0  0
  126.5700   70.0322   -3.1477 C   0  0  1  0  0  0  0  0  0  0  0  0
  125.6080   70.5965   -2.2497 O   0  0  0  0  0  0  0  0  0  0  0  0
  127.9630   70.1128   -2.5344 C   0  0  2  0  0  0  0  0  0  0  0  0
  133.6131   67.9885   -6.5613 O   0  0  0  0  0  0  0  0  0  0  0  0
  132.8237   72.0975   -3.1657 N   0  0  0  0  0  0  0  0  0  0  0  0
  132.3170   71.3692   -2.1506 C   0  0  0  0  0  0  0  0  0  0  0  0
  131.0440   70.9236   -2.1214 N   0  0  0  0  0  0  0  0  0  0  0  0
  130.1767   71.1907   -3.1349 C   0  0  0  0  0  0  0  0  0  0  0  0
  130.6605   71.9825   -4.2795 C   0  0  0  0  0  0  0  0  0  0  0  0
  132.0739   72.4362   -4.2418 C   0  0  0  0  0  0  0  0  0  0  0  0
  132.5936   73.1705   -5.2542 N   0  0  0  0  0  0  0  0  0  0  0  0
  129.6292   72.1024   -5.1329 N   0  0  0  0  0  0  0  0  0  0  0  0
  128.5747   71.4489   -4.5849 C   0  0  0  0  0  0  0  0  0  0  0  0
  128.8928   70.9038   -3.3938 N   0  0  0  0  0  0  0  0  0  0  0  0
  2  1  1  1  0  0  0
  2  3  1  0  0  0  0
  2  5  1  0  0  0  0
  3  4  1  0  0  0  0
  3 16  1  0  0  0  0
  5  6  1  0  0  0  0
  6  7  1  0  0  0  0
  7  8  1  0  0  0  0
  9  8  1  6  0  0  0
  9 10  1  0  0  0  0
  9 11  1  0  0  0  0
 10 15  1  0  0  0  0
 11 12  1  1  0  0  0
 11 13  1  0  0  0  0
 13 14  1  1  0  0  0
 13 15  1  0  0  0  0
 15 26  1  6  0  0  0
 17 18  2  0  0  0  0
 17 22  1  0  0  0  0
 18 19  1  0  0  0  0
 19 20  2  0  0  0  0
 20 21  1  0  0  0  0
 20 26  1  0  0  0  0
 21 22  2  0  0  0  0
 21 24  1  0  0  0  0
 22 23  1  0  0  0  0
 24 25  2  0  0  0  0
 25 26  1  0  0  0  0
M  END
>  <CHROM.1>
-124.85295079,-60.41669027,-65.44777701,-64.79814330,-63.27518946,85.86162879
-62.60100668,129.94947115,69.31500334,-3.80242306,-0.15438097,-0.31220102
-3.04761628

>  <Name>
ligand

>  <RI>
0

>  <Rbt.Current_Directory>
/home/itssahil/PROJECTS/Mol_Feturizer/Test_systems_manuscript/rnas/3npn

>  <Rbt.Executable>
rbdock ($Id: //depot/dev/client3/rdock/2013.1/src/exe/rbdock.cxx#4 $)

>  <Rbt.Library>
libRbt.so (2013.1, Build901 2013/11/27)

>  <Rbt.Parameter_File>
/export/apps/rDock/src/rDock_2013.1_src/data/scripts/dock_solv.prm

>  <Rbt.Receptor>
prm/pocket_docking_6.prm

>  <SCORE>
-16.365

>  <SCORE.INTER>
-16.0726

>  <SCORE.INTER.CONST>
1

>  <SCORE.INTER.POLAR>
0

>  <SCORE.INTER.ROT>
7

>  <SCORE.INTER.SOLV>
13.6289

>  <SCORE.INTER.VDW>
-23.5247

>  <SCORE.INTER.norm>
-0.618176

>  <SCORE.INTRA>
-0.292437

>  <SCORE.INTRA.DIHEDRAL>
0.514722

>  <SCORE.INTRA.DIHEDRAL.0>
4.37896

>  <SCORE.INTRA.POLAR>
0

>  <SCORE.INTRA.POLAR.0>
0

>  <SCORE.INTRA.REPUL>
0

>  <SCORE.INTRA.REPUL.0>
0

>  <SCORE.INTRA.SOLV>
0.804494

>  <SCORE.INTRA.SOLV.lig_0>
-50.5538

>  <SCORE.INTRA.VDW>
-0.952045

>  <SCORE.INTRA.VDW.0>
-1.30673

>  <SCORE.INTRA.norm>
-0.0112476

>  <SCORE.RESTR>
0

>  <SCORE.RESTR.CAVITY>
0

>  <SCORE.RESTR.norm>
0

>  <SCORE.SYSTEM>
0

>  <SCORE.SYSTEM.CONST>
0

>  <SCORE.SYSTEM.DIHEDRAL>
0

>  <SCORE.SYSTEM.SOLV>
0

>  <SCORE.SYSTEM.norm>
0

>  <SCORE.heavy>
26

>  <SCORE.norm>
-0.629423

>  <RMSD>
8.564

$$$$
ligand
 OpenBabel02271912153D
libRbt.so/2013.1/901 2013/11/27
 26 28  0  0  0  0  0  0  0  0999 V2000
  129.6778   57.6555   -2.9057 N   0  0  0  0  0  0  0  0  0  0  0  0
  130.3035   58.9302   -2.4443 C   0  0  2  0  0  0  0  0  0  0  0  0
  131.1563   58.6928   -1.2312 C   0  0  0  0  0  0  0  0  0  0  0  0
  131.1043   57.6307   -0.6124 O   0  0  0  0  0  0  0  0  0  0  0  0
  129.2253   59.9601   -2.1178 C   0  0  0  0  0  0  0  0  0  0  0  0
  129.7857   61.3443   -1.8059 C   0  0  0  0  0  0  0  0  0  0  0  0
  128.4977   62.5456   -1.8777 S   0  0  0  0  0  0  0  0  0  0  0  0
  129.3964   64.0500   -2.0781 C   0  0  0  0  0  0  0  0  0  0  0  0
  128.4643   65.2367   -2.3158 C   0  0  1  0  0  0  0  0  0  0  0  0
  128.3092   66.0055   -1.1210 O   0  0  0  0  0  0  0  0  0  0  0  0
  129.0448   66.1592   -3.3754 C   0  0  1  0  0  0  0  0  0  0  0  0
  128.0498   66.4581   -4.3592 O   0  0  0  0  0  0  0  0  0  0  0  0
  129.4883   67.4123   -2.6415 C   0  0  1  0  0  0  0  0  0  0  0  0
  128.9073   68.5882   -3.2159 O   0  0  0  0  0  0  0  0  0  0  0  0
  129.0152   67.2495   -1.2017 C   0  0  2  0  0  0  0  0  0  0  0  0
  131.9228   59.5629   -0.8207 O   0  0  0  0  0  0  0  0  0  0  0  0
  132.3395   70.1026    1.7602 N   0  0  0  0  0  0  0  0  0  0  0  0
  131.3417   70.5110    0.9506 C   0  0  0  0  0  0  0  0  0  0  0  0
  130.5639   69.6626    0.2469 N   0  0  0  0  0  0  0  0  0  0  0  0
  130.7458   68.3160    0.3116 C   0  0  0  0  0  0  0  0  0  0  0  0
  131.8188   67.7956    1.1771 C   0  0  0  0  0  0  0  0  0  0  0  0
  132.6319   68.7899    1.9222 C   0  0  0  0  0  0  0  0  0  0  0  0
  133.6384   68.3922    2.7365 N   0  0  0  0  0  0  0  0  0  0  0  0
  131.7895   66.4563    1.0700 N   0  0  0  0  0  0  0  0  0  0  0  0
  130.7890   66.1427    0.2097 C   0  0  0  0  0  0  0  0  0  0  0  0
  130.1631   67.2456   -0.2472 N   0  0  0  0  0  0  0  0  0  0  0  0
  2  1  1  1  0  0  0
  2  3  1  0  0  0  0
  2  5  1  0  0  0  0
  3  4  1  0  0  0  0
  3 16  1  0  0  0  0
  5  6  1  0  0  0  0
  6  7  1  0  0  0  0
  7  8  1  0  0  0  0
  9  8  1  1  0  0  0
  9 10  1  0  0  0  0
  9 11  1  0  0  0  0
 10 15  1  0  0  0  0
 11 12  1  6  0  0  0
 11 13  1  0  0  0  0
 13 14  1  6  0  0  0
 13 15  1  0  0  0  0
 15 26  1  1  0  0  0
 17 18  2  0  0  0  0
 17 22  1  0  0  0  0
 18 19  1  0  0  0  0
 19 20  2  0  0  0  0
 20 21  1  0  0  0  0
 20 26  1  0  0  0  0
 21 22  2  0  0  0  0
 21 24  1  0  0  0  0
 22 23  1  0  0  0  0
 24 25  2  0  0  0  0
 25 26  1  0  0  0  0
M  END
>  <CHROM.1>
-12.09687564,-172.80774073,164.59730276,-160.38564351,173.90113646,101.80545576
-154.54593178,130.18806982,64.82455080,-1.02577650,-1.71974148,-0.83618540
0.11848724

>  <Name>
ligand

>  <RI>
0

>  <Rbt.Current_Directory>
/home/itssahil/PROJECTS/Mol_Feturizer/Test_systems_manuscript/rnas/3npn

>  <Rbt.Executable>
rbdock ($Id: //depot/dev/client3/rdock/2013.1/src/exe/rbdock.cxx#4 $)

>  <Rbt.Library>
libRbt.so (2013.1, Build901 2013/11/27)

>  <Rbt.Parameter_File>
/export/apps/rDock/src/rDock_2013.1_src/data/scripts/dock_solv.prm

>  <Rbt.Receptor>
prm/pocket_docking_6.prm

>  <SCORE>
-20.6851

>  <SCORE.INTER>
-21.5746

>  <SCORE.INTER.CONST>
1

>  <SCORE.INTER.POLAR>
0

>  <SCORE.INTER.ROT>
7

>  <SCORE.INTER.SOLV>
16.7437

>  <SCORE.INTER.VDW>
-28.231

>  <SCORE.INTER.norm>
-0.829792

>  <SCORE.INTRA>
0.889444

>  <SCORE.INTRA.DIHEDRAL>
4.13785

>  <SCORE.INTRA.DIHEDRAL.0>
4.37896

>  <SCORE.INTRA.POLAR>
0

>  <SCORE.INTRA.POLAR.0>
0

>  <SCORE.INTRA.REPUL>
0

>  <SCORE.INTRA.REPUL.0>
0

>  <SCORE.INTRA.SOLV>
-1.02834

>  <SCORE.INTRA.SOLV.lig_0>
-50.5538

>  <SCORE.INTRA.VDW>
-0.665311

>  <SCORE.INTRA.VDW.0>
-1.30673

>  <SCORE.INTRA.norm>
0.0342094

>  <SCORE.RESTR>
0

>  <SCORE.RESTR.CAVITY>
0

>  <SCORE.RESTR.norm>
0

>  <SCORE.SYSTEM>
0

>  <SCORE.SYSTEM.CONST>
0

>  <SCORE.SYSTEM.DIHEDRAL>
0

>  <SCORE.SYSTEM.SOLV>
0

>  <SCORE.SYSTEM.norm>
0

>  <SCORE.heavy>
26

>  <SCORE.norm>
-0.795583

>  <RMSD>
8.590

$$$$
ligand
 OpenBabel02271912153D
libRbt.so/2013.1/901 2013/11/27
 26 28  0  0  0  0  0  0  0  0999 V2000
  132.0240   59.8708   -2.4216 N   0  0  0  0  0  0  0  0  0  0  0  0
  130.8224   59.5619   -1.5910 C   0  0  2  0  0  0  0  0  0  0  0  0
  130.3615   58.1527   -1.8298 C   0  0  0  0  0  0  0  0  0  0  0  0
  130.4197   57.3030   -0.9420 O   0  0  0  0  0  0  0  0  0  0  0  0
  129.6906   60.5324   -1.9178 C   0  0  0  0  0  0  0  0  0  0  0  0
  130.0375   61.9881   -1.6211 C   0  0  0  0  0  0  0  0  0  0  0  0
  128.5979   62.9937   -1.7749 S   0  0  0  0  0  0  0  0  0  0  0  0
  129.2592   64.5054   -2.3982 C   0  0  0  0  0  0  0  0  0  0  0  0
  128.2170   65.6223   -2.3916 C   0  0  1  0  0  0  0  0  0  0  0  0
  128.1667   66.2597   -1.1134 O   0  0  0  0  0  0  0  0  0  0  0  0
  128.5788   66.6871   -3.4144 C   0  0  1  0  0  0  0  0  0  0  0  0
  127.4409   66.9875   -4.2282 O   0  0  0  0  0  0  0  0  0  0  0  0
  129.0215   67.9006   -2.6162 C   0  0  1  0  0  0  0  0  0  0  0  0
  128.2818   69.0691   -2.9873 O   0  0  0  0  0  0  0  0  0  0  0  0
  128.7600   67.5632   -1.1530 C   0  0  2  0  0  0  0  0  0  0  0  0
  129.9225   57.8116   -2.9271 O   0  0  0  0  0  0  0  0  0  0  0  0
  132.6539   70.4430    0.9703 N   0  0  0  0  0  0  0  0  0  0  0  0
  131.5886   70.8385    0.2447 C   0  0  0  0  0  0  0  0  0  0  0  0
  130.6628   69.9847   -0.2389 N   0  0  0  0  0  0  0  0  0  0  0  0
  130.7525   68.6449   -0.0207 C   0  0  0  0  0  0  0  0  0  0  0  0
  131.8915   68.1386    0.7653 C   0  0  0  0  0  0  0  0  0  0  0  0
  132.8684   69.1386    1.2659 C   0  0  0  0  0  0  0  0  0  0  0  0
  133.9438   68.7533    1.9935 N   0  0  0  0  0  0  0  0  0  0  0  0
  131.7498   66.8042    0.8397 N   0  0  0  0  0  0  0  0  0  0  0  0
  130.6221   66.4802    0.1596 C   0  0  0  0  0  0  0  0  0  0  0  0
  130.0228   67.5715   -0.3568 N   0  0  0  0  0  0  0  0  0  0  0  0
  2  1  1  6  0  0  0
  2  3  1  0  0  0  0
  2  5  1  0  0  0  0
  3  4  1  0  0  0  0
  3 16  1  0  0  0  0
  5  6  1  0  0  0  0
  6  7  1  0  0  0  0
  7  8  1  0  0  0  0
  9  8  1  1  0  0  0
  9 10  1  0  0  0  0
  9 11  1  0  0  0  0
 10 15  1  0  0  0  0
 11 12  1  1  0  0  0
 11 13  1  0  0  0  0
 13 14  1  6  0  0  0
 13 15  1  0  0  0  0
 15 26  1  1  0  0  0
 17 18  2  0  0  0  0
 17 22  1  0  0  0  0
 18 19  1  0  0  0  0
 19 20  2  0  0  0  0
 20 21  1  0  0  0  0
 20 26  1  0  0  0  0
 21 22  2  0  0  0  0
 21 24  1  0  0  0  0
 22 23  1  0  0  0  0
 24 25  2  0  0  0  0
 25 26  1  0  0  0  0
M  END
>  <CHROM.1>
113.84249128,-61.61956615,-170.72900522,-146.01928132,-170.33768795,84.87173631
-170.54965357,130.10827822,65.15465825,-1.23269879,-1.68581352,-0.69914148
0.11222757

>  <Name>
ligand

>  <RI>
0

>  <Rbt.Current_Directory>
/home/itssahil/PROJECTS/Mol_Feturizer/Test_systems_manuscript/rnas/3npn

>  <Rbt.Executable>
rbdock ($Id: //depot/dev/client3/rdock/2013.1/src/exe/rbdock.cxx#4 $)

>  <Rbt.Library>
libRbt.so (2013.1, Build901 2013/11/27)

>  <Rbt.Parameter_File>
/export/apps/rDock/src/rDock_2013.1_src/data/scripts/dock_solv.prm

>  <Rbt.Receptor>
prm/pocket_docking_6.prm

>  <SCORE>
-21.9611

>  <SCORE.INTER>
-21.8967

>  <SCORE.INTER.CONST>
1

>  <SCORE.INTER.POLAR>
0

>  <SCORE.INTER.ROT>
7

>  <SCORE.INTER.SOLV>
13.4733

>  <SCORE.INTER.VDW>
-27.3555

>  <SCORE.INTER.norm>
-0.842179

>  <SCORE.INTRA>
-0.0644045

>  <SCORE.INTRA.DIHEDRAL>
2.15199

>  <SCORE.INTRA.DIHEDRAL.0>
4.37896

>  <SCORE.INTRA.POLAR>
0

>  <SCORE.INTRA.POLAR.0>
0

>  <SCORE.INTRA.REPUL>
0

>  <SCORE.INTRA.REPUL.0>
0

>  <SCORE.INTRA.SOLV>
-0.304429

>  <SCORE.INTRA.SOLV.lig_0>
-50.5538

>  <SCORE.INTRA.VDW>
-0.988185

>  <SCORE.INTRA.VDW.0>
-1.30673

>  <SCORE.INTRA.norm>
-0.0024771

>  <SCORE.RESTR>
0

>  <SCORE.RESTR.CAVITY>
0

>  <SCORE.RESTR.norm>
0

>  <SCORE.SYSTEM>
0

>  <SCORE.SYSTEM.CONST>
0

>  <SCORE.SYSTEM.DIHEDRAL>
0

>  <SCORE.SYSTEM.SOLV>
0

>  <SCORE.SYSTEM.norm>
0

>  <SCORE.heavy>
26

>  <SCORE.norm>
-0.844656

>  <RMSD>
8.592

$$$$
ligand
 OpenBabel02271912153D
libRbt.so/2013.1/901 2013/11/27
 26 28  0  0  0  0  0  0  0  0999 V2000
  136.3292   63.1907    0.9926 N   0  0  0  0  0  0  0  0  0  0  0  0
  135.3987   62.5740    1.9841 C   0  0  2  0  0  0  0  0  0  0  0  0
  135.8801   62.8186    3.3854 C   0  0  0  0  0  0  0  0  0  0  0  0
  135.0884   62.9810    4.3131 O   0  0  0  0  0  0  0  0  0  0  0  0
  135.2840   61.0720    1.7377 C   0  0  0  0  0  0  0  0  0  0  0  0
  134.7055   60.7262    0.3690 C   0  0  0  0  0  0  0  0  0  0  0  0
  134.4306   58.9890    0.2529 S   0  0  0  0  0  0  0  0  0  0  0  0
  133.5508   58.8477   -1.2693 C   0  0  0  0  0  0  0  0  0  0  0  0
  132.5963   57.6550   -1.2607 C   0  0  1  0  0  0  0  0  0  0  0  0
  131.3452   58.0125   -0.6695 O   0  0  0  0  0  0  0  0  0  0  0  0
  132.3110   57.1977   -2.6821 C   0  0  1  0  0  0  0  0  0  0  0  0
  132.4909   55.7819   -2.7838 O   0  0  0  0  0  0  0  0  0  0  0  0
  130.8729   57.5927   -2.9677 C   0  0  1  0  0  0  0  0  0  0  0  0
  130.0992   56.4701   -3.4054 O   0  0  0  0  0  0  0  0  0  0  0  0
  130.3128   58.1297   -1.6558 C   0  0  2  0  0  0  0  0  0  0  0  0
  137.0830   62.8723    3.6373 O   0  0  0  0  0  0  0  0  0  0  0  0
  131.4138   63.1966   -0.6174 N   0  0  0  0  0  0  0  0  0  0  0  0
  132.1050   62.0834   -0.2999 C   0  0  0  0  0  0  0  0  0  0  0  0
  131.7015   60.8400   -0.6332 N   0  0  0  0  0  0  0  0  0  0  0  0
  130.5471   60.6309   -1.3220 C   0  0  0  0  0  0  0  0  0  0  0  0
  129.7382   61.8018   -1.7038 C   0  0  0  0  0  0  0  0  0  0  0  0
  130.2474   63.1381   -1.3038 C   0  0  0  0  0  0  0  0  0  0  0  0
  129.5609   64.2633   -1.6147 N   0  0  0  0  0  0  0  0  0  0  0  0
  128.6672   61.3346   -2.3679 N   0  0  0  0  0  0  0  0  0  0  0  0
  128.7754   59.9833   -2.4070 C   0  0  0  0  0  0  0  0  0  0  0  0
  129.8925   59.5563   -1.7851 N   0  0  0  0  0  0  0  0  0  0  0  0
  2  1  1  6  0  0  0
  2  3  1  0  0  0  0
  2  5  1  0  0  0  0
  3  4  1  0  0  0  0
  3 16  1  0  0  0  0
  5  6  1  0  0  0  0
  6  7  1  0  0  0  0
  7  8  1  0  0  0  0
  9  8  1  6  0  0  0
  9 10  1  0  0  0  0
  9 11  1  0  0  0  0
 10 15  1  0  0  0  0
 11 12  1  1  0  0  0
 11 13  1  0  0  0  0
 13 14  1  1  0  0  0
 13 15  1  0  0  0  0
 15 26  1  6  0  0  0
 17 18  2  0  0  0  0
 17 22  1  0  0  0  0
 18 19  1  0  0  0  0
 19 20  2  0  0  0  0
 20 21  1  0  0  0  0
 20 26  1  0  0  0  0
 21 22  2  0  0  0  0
 21 24  1  0  0  0  0
 22 23  1  0  0  0  0
 24 25  2  0  0  0  0
 25 26  1  0  0  0  0
M  END
>  <CHROM.1>
146.13036688,-62.10046152,-173.18349790,171.71082708,-150.18364747,85.30396519
14.85813601,132.48533000,60.33131276,-0.47057444,0.74566294,-0.54504061,0.36953132

>  <Name>
ligand

>  <RI>
0

>  <Rbt.Current_Directory>
/home/itssahil/PROJECTS/Mol_Feturizer/Test_systems_manuscript/rnas/3npn

>  <Rbt.Executable>
rbdock ($Id: //depot/dev/client3/rdock/2013.1/src/exe/rbdock.cxx#4 $)

>  <Rbt.Library>
libRbt.so (2013.1, Build901 2013/11/27)

>  <Rbt.Parameter_File>
/export/apps/rDock/src/rDock_2013.1_src/data/scripts/dock_solv.prm

>  <Rbt.Receptor>
prm/pocket_docking_8.prm

>  <SCORE>
-18.8926

>  <SCORE.INTER>
-18.2602

>  <SCORE.INTER.CONST>
1

>  <SCORE.INTER.POLAR>
0

>  <SCORE.INTER.ROT>
7

>  <SCORE.INTER.SOLV>
12.549

>  <SCORE.INTER.VDW>
-24.6231

>  <SCORE.INTER.norm>
-0.702317

>  <SCORE.INTRA>
-0.632342

>  <SCORE.INTRA.DIHEDRAL>
1.78226

>  <SCORE.INTRA.DIHEDRAL.0>
4.37896

>  <SCORE.INTRA.POLAR>
0

>  <SCORE.INTRA.POLAR.0>
0

>  <SCORE.INTRA.REPUL>
0

>  <SCORE.INTRA.REPUL.0>
0

>  <SCORE.INTRA.SOLV>
-0.203104

>  <SCORE.INTRA.SOLV.lig_0>
-50.5538

>  <SCORE.INTRA.VDW>
-1.42192

>  <SCORE.INTRA.VDW.0>
-1.30673

>  <SCORE.INTRA.norm>
-0.0243208

>  <SCORE.RESTR>
0

>  <SCORE.RESTR.CAVITY>
0

>  <SCORE.RESTR.norm>
0

>  <SCORE.SYSTEM>
0

>  <SCORE.SYSTEM.CONST>
0

>  <SCORE.SYSTEM.DIHEDRAL>
0

>  <SCORE.SYSTEM.SOLV>
0

>  <SCORE.SYSTEM.norm>
0

>  <SCORE.heavy>
26

>  <SCORE.norm>
-0.726638

>  <RMSD>
8.622

$$$$
ligand
 OpenBabel02271912153D
libRbt.so/2013.1/901 2013/11/27
 26 28  0  0  0  0  0  0  0  0999 V2000
  132.3908   56.5217   -1.4341 N   0  0  0  0  0  0  0  0  0  0  0  0
  131.2452   57.4716   -1.3146 C   0  0  2  0  0  0  0  0  0  0  0  0
  130.4637   57.5225   -2.5959 C   0  0  0  0  0  0  0  0  0  0  0  0
  130.8887   56.9973   -3.6241 O   0  0  0  0  0  0  0  0  0  0  0  0
  131.7517   58.8693   -0.9686 C   0  0  0  0  0  0  0  0  0  0  0  0
  132.5939   59.4982   -2.0743 C   0  0  0  0  0  0  0  0  0  0  0  0
  133.5592   60.8193   -1.4184 S   0  0  0  0  0  0  0  0  0  0  0  0
  132.4947   62.2086   -1.6376 C   0  0  0  0  0  0  0  0  0  0  0  0
  131.1573   62.0124   -0.9259 C   0  0  1  0  0  0  0  0  0  0  0  0
  130.7186   63.2339   -0.3276 O   0  0  0  0  0  0  0  0  0  0  0  0
  130.0889   61.5857   -1.9195 C   0  0  1  0  0  0  0  0  0  0  0  0
  129.3885   60.4421   -1.4208 O   0  0  0  0  0  0  0  0  0  0  0  0
  129.1603   62.7774   -2.0725 C   0  0  1  0  0  0  0  0  0  0  0  0
  127.7985   62.4154   -1.8178 O   0  0  0  0  0  0  0  0  0  0  0  0
  129.6235   63.8090   -1.0505 C   0  0  2  0  0  0  0  0  0  0  0  0
  129.3800   58.1021   -2.6495 O   0  0  0  0  0  0  0  0  0  0  0  0
  130.6412   68.9717   -0.5271 N   0  0  0  0  0  0  0  0  0  0  0  0
  130.2208   68.0801    0.3927 C   0  0  0  0  0  0  0  0  0  0  0  0
  129.9997   66.7784    0.1162 N   0  0  0  0  0  0  0  0  0  0  0  0
  130.1892   66.2779   -1.1345 C   0  0  0  0  0  0  0  0  0  0  0  0
  130.6487   67.1944   -2.1928 C   0  0  0  0  0  0  0  0  0  0  0  0
  130.8725   68.6123   -1.8125 C   0  0  0  0  0  0  0  0  0  0  0  0
  131.2923   69.5177   -2.7280 N   0  0  0  0  0  0  0  0  0  0  0  0
  130.7605   66.4658   -3.3166 N   0  0  0  0  0  0  0  0  0  0  0  0
  130.4019   65.1944   -3.0097 C   0  0  0  0  0  0  0  0  0  0  0  0
  130.0592   65.0746   -1.7115 N   0  0  0  0  0  0  0  0  0  0  0  0
  2  1  1  6  0  0  0
  2  3  1  0  0  0  0
  2  5  1  0  0  0  0
  3  4  1  0  0  0  0
  3 16  1  0  0  0  0
  5  6  1  0  0  0  0
  6  7  1  0  0  0  0
  7  8  1  0  0  0  0
  9  8  1  6  0  0  0
  9 10  1  0  0  0  0
  9 11  1  0  0  0  0
 10 15  1  0  0  0  0
 11 12  1  1  0  0  0
 11 13  1  0  0  0  0
 13 14  1  1  0  0  0
 13 15  1  0  0  0  0
 15 26  1  6  0  0  0
 17 18  2  0  0  0  0
 17 22  1  0  0  0  0
 18 19  1  0  0  0  0
 19 20  2  0  0  0  0
 20 21  1  0  0  0  0
 20 26  1  0  0  0  0
 21 22  2  0  0  0  0
 21 24  1  0  0  0  0
 22 23  1  0  0  0  0
 24 25  2  0  0  0  0
 25 26  1  0  0  0  0
M  END
>  <CHROM.1>
-10.52473634,65.55008698,-161.22146369,-90.53883800,57.99157559,141.03020811
-79.67740013,130.80748533,62.70383081,-1.65771379,-1.48523927,-0.13158129
0.07244359

>  <Name>
ligand

>  <RI>
0

>  <Rbt.Current_Directory>
/home/itssahil/PROJECTS/Mol_Feturizer/Test_systems_manuscript/rnas/3npn

>  <Rbt.Executable>
rbdock ($Id: //depot/dev/client3/rdock/2013.1/src/exe/rbdock.cxx#4 $)

>  <Rbt.Library>
libRbt.so (2013.1, Build901 2013/11/27)

>  <Rbt.Parameter_File>
/export/apps/rDock/src/rDock_2013.1_src/data/scripts/dock_solv.prm

>  <Rbt.Receptor>
prm/pocket_docking_4.prm

>  <SCORE>
-13.9862

>  <SCORE.INTER>
-16.3888

>  <SCORE.INTER.CONST>
1

>  <SCORE.INTER.POLAR>
0

>  <SCORE.INTER.ROT>
7

>  <SCORE.INTER.SOLV>
11.321

>  <SCORE.INTER.VDW>
-22.9662

>  <SCORE.INTER.norm>
-0.630337

>  <SCORE.INTRA>
2.40252

>  <SCORE.INTRA.DIHEDRAL>
4.6613

>  <SCORE.INTRA.DIHEDRAL.0>
4.37896

>  <SCORE.INTRA.POLAR>
0

>  <SCORE.INTRA.POLAR.0>
0

>  <SCORE.INTRA.REPUL>
0

>  <SCORE.INTRA.REPUL.0>
0

>  <SCORE.INTRA.SOLV>
0.585051

>  <SCORE.INTRA.SOLV.lig_0>
-50.5538

>  <SCORE.INTRA.VDW>
-0.220657

>  <SCORE.INTRA.VDW.0>
-1.30673

>  <SCORE.INTRA.norm>
0.0924046

>  <SCORE.RESTR>
0

>  <SCORE.RESTR.CAVITY>
0

>  <SCORE.RESTR.norm>
0

>  <SCORE.SYSTEM>
0

>  <SCORE.SYSTEM.CONST>
0

>  <SCORE.SYSTEM.DIHEDRAL>
0

>  <SCORE.SYSTEM.SOLV>
0

>  <SCORE.SYSTEM.norm>
0

>  <SCORE.heavy>
26

>  <SCORE.norm>
-0.537932

>  <RMSD>
8.650

$$$$
ligand
 OpenBabel02271912153D
libRbt.so/2013.1/901 2013/11/27
 26 28  0  0  0  0  0  0  0  0999 V2000
  131.7153   60.2752   -1.2370 N   0  0  0  0  0  0  0  0  0  0  0  0
  130.4051   60.9907   -1.2114 C   0  0  2  0  0  0  0  0  0  0  0  0
  129.4361   60.3555   -2.1668 C   0  0  0  0  0  0  0  0  0  0  0  0
  128.3457   60.8719   -2.4074 O   0  0  0  0  0  0  0  0  0  0  0  0
  130.5980   62.4594   -1.5796 C   0  0  0  0  0  0  0  0  0  0  0  0
  129.3373   63.2991   -1.3975 C   0  0  0  0  0  0  0  0  0  0  0  0
  129.7363   65.0133   -1.4954 S   0  0  0  0  0  0  0  0  0  0  0  0
  128.5581   65.6080   -2.6656 C   0  0  0  0  0  0  0  0  0  0  0  0
  127.6370   66.6617   -2.0530 C   0  0  1  0  0  0  0  0  0  0  0  0
  128.3973   67.7373   -1.4983 O   0  0  0  0  0  0  0  0  0  0  0  0
  126.7288   67.2522   -3.1194 C   0  0  1  0  0  0  0  0  0  0  0  0
  125.3722   67.2408   -2.6649 O   0  0  0  0  0  0  0  0  0  0  0  0
  127.2212   68.6700   -3.3499 C   0  0  1  0  0  0  0  0  0  0  0  0
  126.1638   69.6228   -3.1935 O   0  0  0  0  0  0  0  0  0  0  0  0
  128.3024   68.9177   -2.3045 C   0  0  2  0  0  0  0  0  0  0  0  0
  129.7078   59.2939   -2.7257 O   0  0  0  0  0  0  0  0  0  0  0  0
  132.9739   71.3680   -1.9335 N   0  0  0  0  0  0  0  0  0  0  0  0
  131.9407   71.3497   -1.0674 C   0  0  0  0  0  0  0  0  0  0  0  0
  130.7956   70.6736   -1.2939 N   0  0  0  0  0  0  0  0  0  0  0  0
  130.6101   69.9570   -2.4353 C   0  0  0  0  0  0  0  0  0  0  0  0
  131.6974   69.9306   -3.4294 C   0  0  0  0  0  0  0  0  0  0  0  0
  132.9283   70.6971   -3.1093 C   0  0  0  0  0  0  0  0  0  0  0  0
  133.9717   70.7252   -3.9723 N   0  0  0  0  0  0  0  0  0  0  0  0
  131.2741   69.1631   -4.4482 N   0  0  0  0  0  0  0  0  0  0  0  0
  130.0245   68.7362   -4.1390 C   0  0  0  0  0  0  0  0  0  0  0  0
  129.6215   69.2059   -2.9414 N   0  0  0  0  0  0  0  0  0  0  0  0
  2  1  1  6  0  0  0
  2  3  1  0  0  0  0
  2  5  1  0  0  0  0
  3  4  1  0  0  0  0
  3 16  1  0  0  0  0
  5  6  1  0  0  0  0
  6  7  1  0  0  0  0
  7  8  1  0  0  0  0
  9  8  1  6  0  0  0
  9 10  1  0  0  0  0
  9 11  1  0  0  0  0
 10 15  1  0  0  0  0
 11 12  1  1  0  0  0
 11 13  1  0  0  0  0
 13 14  1  1  0  0  0
 13 15  1  0  0  0  0
 15 26  1  6  0  0  0
 17 18  2  0  0  0  0
 17 22  1  0  0  0  0
 18 19  1  0  0  0  0
 19 20  2  0  0  0  0
 20 21  1  0  0  0  0
 20 26  1  0  0  0  0
 21 22  2  0  0  0  0
 21 24  1  0  0  0  0
 22 23  1  0  0  0  0
 24 25  2  0  0  0  0
 25 26  1  0  0  0  0
M  END
>  <CHROM.1>
-172.22400823,-172.38458965,167.47156310,129.61556109,118.49262834,55.70242548
-89.73106459,129.67113644,66.58711572,-2.40228017,-1.70096993,-0.05429532
-0.10190682

>  <Name>
ligand

>  <RI>
0

>  <Rbt.Current_Directory>
/home/itssahil/PROJECTS/Mol_Feturizer/Test_systems_manuscript/rnas/3npn

>  <Rbt.Executable>
rbdock ($Id: //depot/dev/client3/rdock/2013.1/src/exe/rbdock.cxx#4 $)

>  <Rbt.Library>
libRbt.so (2013.1, Build901 2013/11/27)

>  <Rbt.Parameter_File>
/export/apps/rDock/src/rDock_2013.1_src/data/scripts/dock_solv.prm

>  <Rbt.Receptor>
prm/pocket_docking_6.prm

>  <SCORE>
-20.1477

>  <SCORE.INTER>
-21.6342

>  <SCORE.INTER.CONST>
1

>  <SCORE.INTER.POLAR>
0

>  <SCORE.INTER.ROT>
7

>  <SCORE.INTER.SOLV>
14.4369

>  <SCORE.INTER.VDW>
-27.5018

>  <SCORE.INTER.norm>
-0.832086

>  <SCORE.INTRA>
1.48651

>  <SCORE.INTRA.DIHEDRAL>
3.76045

>  <SCORE.INTRA.DIHEDRAL.0>
4.37896

>  <SCORE.INTRA.POLAR>
0

>  <SCORE.INTRA.POLAR.0>
0

>  <SCORE.INTRA.REPUL>
0

>  <SCORE.INTRA.REPUL.0>
0

>  <SCORE.INTRA.SOLV>
-0.9204

>  <SCORE.INTRA.SOLV.lig_0>
-50.5538

>  <SCORE.INTRA.VDW>
0.0664817

>  <SCORE.INTRA.VDW.0>
-1.30673

>  <SCORE.INTRA.norm>
0.0571734

>  <SCORE.RESTR>
0

>  <SCORE.RESTR.CAVITY>
0

>  <SCORE.RESTR.norm>
0

>  <SCORE.SYSTEM>
0

>  <SCORE.SYSTEM.CONST>
0

>  <SCORE.SYSTEM.DIHEDRAL>
0

>  <SCORE.SYSTEM.SOLV>
0

>  <SCORE.SYSTEM.norm>
0

>  <SCORE.heavy>
26

>  <SCORE.norm>
-0.774913

>  <RMSD>
8.651

$$$$
ligand
 OpenBabel02271912153D
libRbt.so/2013.1/901 2013/11/27
 26 28  0  0  0  0  0  0  0  0999 V2000
  131.7315   61.8836   -1.8501 N   0  0  0  0  0  0  0  0  0  0  0  0
  130.3472   61.9520   -1.2949 C   0  0  2  0  0  0  0  0  0  0  0  0
  129.4719   60.9067   -1.9244 C   0  0  0  0  0  0  0  0  0  0  0  0
  129.9207   59.8068   -2.2446 O   0  0  0  0  0  0  0  0  0  0  0  0
  129.7482   63.3347   -1.5381 C   0  0  0  0  0  0  0  0  0  0  0  0
  130.7127   64.4749   -1.2266 C   0  0  0  0  0  0  0  0  0  0  0  0
  129.8106   65.9195   -0.7718 S   0  0  0  0  0  0  0  0  0  0  0  0
  128.9127   66.2826   -2.2459 C   0  0  0  0  0  0  0  0  0  0  0  0
  127.7243   67.2022   -1.9706 C   0  0  1  0  0  0  0  0  0  0  0  0
  128.1675   68.4651   -1.4693 O   0  0  0  0  0  0  0  0  0  0  0  0
  126.9558   67.4694   -3.2546 C   0  0  1  0  0  0  0  0  0  0  0  0
  125.5584   67.2482   -3.0411 O   0  0  0  0  0  0  0  0  0  0  0  0
  127.2359   68.9173   -3.6161 C   0  0  1  0  0  0  0  0  0  0  0  0
  126.0223   69.6566   -3.7921 O   0  0  0  0  0  0  0  0  0  0  0  0
  128.0334   69.4972   -2.4538 C   0  0  2  0  0  0  0  0  0  0  0  0
  128.2826   61.1310   -2.1444 O   0  0  0  0  0  0  0  0  0  0  0  0
  132.8123   71.2542   -1.0258 N   0  0  0  0  0  0  0  0  0  0  0  0
  131.7552   70.9172   -0.2597 C   0  0  0  0  0  0  0  0  0  0  0  0
  130.5837   70.4786   -0.7647 N   0  0  0  0  0  0  0  0  0  0  0  0
  130.3944   70.3500   -2.1057 C   0  0  0  0  0  0  0  0  0  0  0  0
  131.5069   70.7002   -3.0063 C   0  0  0  0  0  0  0  0  0  0  0  0
  132.7659   71.1735   -2.3772 C   0  0  0  0  0  0  0  0  0  0  0  0
  133.8336   71.5173   -3.1361 N   0  0  0  0  0  0  0  0  0  0  0  0
  131.0739   70.4861   -4.2604 N   0  0  0  0  0  0  0  0  0  0  0  0
  129.7957   70.0409   -4.1750 C   0  0  0  0  0  0  0  0  0  0  0  0
  129.3833   69.9581   -2.8943 N   0  0  0  0  0  0  0  0  0  0  0  0
  2  1  1  6  0  0  0
  2  3  1  0  0  0  0
  2  5  1  0  0  0  0
  3  4  1  0  0  0  0
  3 16  1  0  0  0  0
  5  6  1  0  0  0  0
  6  7  1  0  0  0  0
  7  8  1  0  0  0  0
  9  8  1  6  0  0  0
  9 10  1  0  0  0  0
  9 11  1  0  0  0  0
 10 15  1  0  0  0  0
 11 12  1  1  0  0  0
 11 13  1  0  0  0  0
 13 14  1  1  0  0  0
 13 15  1  0  0  0  0
 15 26  1  6  0  0  0
 17 18  2  0  0  0  0
 17 22  1  0  0  0  0
 18 19  1  0  0  0  0
 19 20  2  0  0  0  0
 20 21  1  0  0  0  0
 20 26  1  0  0  0  0
 21 22  2  0  0  0  0
 21 24  1  0  0  0  0
 22 23  1  0  0  0  0
 24 25  2  0  0  0  0
 25 26  1  0  0  0  0
M  END
>  <CHROM.1>
34.54663419,-44.61092235,-152.68210515,-63.36882924,161.12227748,62.61567953
-51.57770499,129.64379737,67.17387848,-2.19390610,-1.70169106,-0.24261517
-0.11096018

>  <Name>
ligand

>  <RI>
0

>  <Rbt.Current_Directory>
/home/itssahil/PROJECTS/Mol_Feturizer/Test_systems_manuscript/rnas/3npn

>  <Rbt.Executable>
rbdock ($Id: //depot/dev/client3/rdock/2013.1/src/exe/rbdock.cxx#4 $)

>  <Rbt.Library>
libRbt.so (2013.1, Build901 2013/11/27)

>  <Rbt.Parameter_File>
/export/apps/rDock/src/rDock_2013.1_src/data/scripts/dock_solv.prm

>  <Rbt.Receptor>
prm/pocket_docking_8.prm

>  <SCORE>
-17.9445

>  <SCORE.INTER>
-19.8571

>  <SCORE.INTER.CONST>
1

>  <SCORE.INTER.POLAR>
0

>  <SCORE.INTER.ROT>
7

>  <SCORE.INTER.SOLV>
13.9585

>  <SCORE.INTER.VDW>
-26.1576

>  <SCORE.INTER.norm>
-0.763735

>  <SCORE.INTRA>
1.91265

>  <SCORE.INTRA.DIHEDRAL>
2.14866

>  <SCORE.INTRA.DIHEDRAL.0>
4.37896

>  <SCORE.INTRA.POLAR>
0

>  <SCORE.INTRA.POLAR.0>
0

>  <SCORE.INTRA.REPUL>
0

>  <SCORE.INTRA.REPUL.0>
0

>  <SCORE.INTRA.SOLV>
-0.0847465

>  <SCORE.INTRA.SOLV.lig_0>
-50.5538

>  <SCORE.INTRA.VDW>
0.880694

>  <SCORE.INTRA.VDW.0>
-1.30673

>  <SCORE.INTRA.norm>
0.0735635

>  <SCORE.RESTR>
0

>  <SCORE.RESTR.CAVITY>
0

>  <SCORE.RESTR.norm>
0

>  <SCORE.SYSTEM>
0

>  <SCORE.SYSTEM.CONST>
0

>  <SCORE.SYSTEM.DIHEDRAL>
0

>  <SCORE.SYSTEM.SOLV>
0

>  <SCORE.SYSTEM.norm>
0

>  <SCORE.heavy>
26

>  <SCORE.norm>
-0.690171

>  <RMSD>
8.664

$$$$
ligand
 OpenBabel02271912153D
libRbt.so/2013.1/901 2013/11/27
 26 28  0  0  0  0  0  0  0  0999 V2000
  133.8460   60.6406   -0.1743 N   0  0  0  0  0  0  0  0  0  0  0  0
  132.8273   61.6657   -0.5494 C   0  0  2  0  0  0  0  0  0  0  0  0
  131.5494   61.0078   -0.9844 C   0  0  0  0  0  0  0  0  0  0  0  0
  130.5183   61.6597   -1.1447 O   0  0  0  0  0  0  0  0  0  0  0  0
  133.3569   62.5491   -1.6759 C   0  0  0  0  0  0  0  0  0  0  0  0
  132.5927   63.8610   -1.8257 C   0  0  0  0  0  0  0  0  0  0  0  0
  132.9094   64.9040   -0.4404 S   0  0  0  0  0  0  0  0  0  0  0  0
  131.8041   66.2495   -0.7214 C   0  0  0  0  0  0  0  0  0  0  0  0
  130.3630   65.8772   -0.3773 C   0  0  1  0  0  0  0  0  0  0  0  0
  129.5593   67.0495   -0.2287 O   0  0  0  0  0  0  0  0  0  0  0  0
  129.7515   65.0479   -1.4951 C   0  0  1  0  0  0  0  0  0  0  0  0
  129.1315   63.8788   -0.9511 O   0  0  0  0  0  0  0  0  0  0  0  0
  128.7332   65.9469   -2.1737 C   0  0  1  0  0  0  0  0  0  0  0  0
  127.4418   65.3303   -2.2231 O   0  0  0  0  0  0  0  0  0  0  0  0
  128.6692   67.2201   -1.3383 C   0  0  2  0  0  0  0  0  0  0  0  0
  131.5016   59.7946   -1.1816 O   0  0  0  0  0  0  0  0  0  0  0  0
  127.1385   71.6501   -3.7871 N   0  0  0  0  0  0  0  0  0  0  0  0
  126.4038   70.7395   -3.1172 C   0  0  0  0  0  0  0  0  0  0  0  0
  126.9328   69.6437   -2.5348 N   0  0  0  0  0  0  0  0  0  0  0  0
  128.2672   69.3854   -2.5923 C   0  0  0  0  0  0  0  0  0  0  0  0
  129.1340   70.3377   -3.3085 C   0  0  0  0  0  0  0  0  0  0  0  0
  128.4802   71.5214   -3.9221 C   0  0  0  0  0  0  0  0  0  0  0  0
  129.2071   72.4415   -4.5996 N   0  0  0  0  0  0  0  0  0  0  0  0
  130.3888   69.8646   -3.2188 N   0  0  0  0  0  0  0  0  0  0  0  0
  130.3340   68.7092   -2.5109 C   0  0  0  0  0  0  0  0  0  0  0  0
  129.0731   68.4164   -2.1348 N   0  0  0  0  0  0  0  0  0  0  0  0
  2  1  1  6  0  0  0
  2  3  1  0  0  0  0
  2  5  1  0  0  0  0
  3  4  1  0  0  0  0
  3 16  1  0  0  0  0
  5  6  1  0  0  0  0
  6  7  1  0  0  0  0
  7  8  1  0  0  0  0
  9  8  1  6  0  0  0
  9 10  1  0  0  0  0
  9 11  1  0  0  0  0
 10 15  1  0  0  0  0
 11 12  1  1  0  0  0
 11 13  1  0  0  0  0
 13 14  1  1  0  0  0
 13 15  1  0  0  0  0
 15 26  1  6  0  0  0
 17 18  2  0  0  0  0
 17 22  1  0  0  0  0
 18 19  1  0  0  0  0
 19 20  2  0  0  0  0
 20 21  1  0  0  0  0
 20 26  1  0  0  0  0
 21 22  2  0  0  0  0
 21 24  1  0  0  0  0
 22 23  1  0  0  0  0
 24 25  2  0  0  0  0
 25 26  1  0  0  0  0
M  END
>  <CHROM.1>
169.01772551,-162.09705951,68.90055212,-173.66971497,76.26344415,162.93802508
-133.64873044,130.15746151,66.15993112,-1.78526076,-1.14880700,-0.09729708
-0.23002486

>  <Name>
ligand

>  <RI>
0

>  <Rbt.Current_Directory>
/home/itssahil/PROJECTS/Mol_Feturizer/Test_systems_manuscript/rnas/3npn

>  <Rbt.Executable>
rbdock ($Id: //depot/dev/client3/rdock/2013.1/src/exe/rbdock.cxx#4 $)

>  <Rbt.Library>
libRbt.so (2013.1, Build901 2013/11/27)

>  <Rbt.Parameter_File>
/export/apps/rDock/src/rDock_2013.1_src/data/scripts/dock_solv.prm

>  <Rbt.Receptor>
prm/pocket_docking_4.prm

>  <SCORE>
-12.7228

>  <SCORE.INTER>
-11.8455

>  <SCORE.INTER.CONST>
1

>  <SCORE.INTER.POLAR>
0

>  <SCORE.INTER.ROT>
7

>  <SCORE.INTER.SOLV>
19.4727

>  <SCORE.INTER.VDW>
-22.6546

>  <SCORE.INTER.norm>
-0.455597

>  <SCORE.INTRA>
-0.877335

>  <SCORE.INTRA.DIHEDRAL>
1.22479

>  <SCORE.INTRA.DIHEDRAL.0>
4.37896

>  <SCORE.INTRA.POLAR>
0

>  <SCORE.INTRA.POLAR.0>
0

>  <SCORE.INTRA.REPUL>
0

>  <SCORE.INTRA.REPUL.0>
0

>  <SCORE.INTRA.SOLV>
-0.247668

>  <SCORE.INTRA.SOLV.lig_0>
-50.5538

>  <SCORE.INTRA.VDW>
-1.3659

>  <SCORE.INTRA.VDW.0>
-1.30673

>  <SCORE.INTRA.norm>
-0.0337437

>  <SCORE.RESTR>
0

>  <SCORE.RESTR.CAVITY>
0

>  <SCORE.RESTR.norm>
0

>  <SCORE.SYSTEM>
0

>  <SCORE.SYSTEM.CONST>
0

>  <SCORE.SYSTEM.DIHEDRAL>
0

>  <SCORE.SYSTEM.SOLV>
0

>  <SCORE.SYSTEM.norm>
0

>  <SCORE.heavy>
26

>  <SCORE.norm>
-0.48934

>  <RMSD>
8.683

$$$$
ligand
 OpenBabel02271912153D
libRbt.so/2013.1/901 2013/11/27
 26 28  0  0  0  0  0  0  0  0999 V2000
  131.3798   61.8281   -1.6674 N   0  0  0  0  0  0  0  0  0  0  0  0
  130.1610   60.9957   -1.4417 C   0  0  2  0  0  0  0  0  0  0  0  0
  130.3641   59.6050   -1.9706 C   0  0  0  0  0  0  0  0  0  0  0  0
  131.4522   59.2446   -2.4175 O   0  0  0  0  0  0  0  0  0  0  0  0
  128.9532   61.6314   -2.1250 C   0  0  0  0  0  0  0  0  0  0  0  0
  128.5213   62.9483   -1.4873 C   0  0  0  0  0  0  0  0  0  0  0  0
  129.6626   64.2240   -1.9082 S   0  0  0  0  0  0  0  0  0  0  0  0
  128.6922   65.2707   -2.9446 C   0  0  0  0  0  0  0  0  0  0  0  0
  127.7964   66.2000   -2.1274 C   0  0  1  0  0  0  0  0  0  0  0  0
  128.5792   67.0267   -1.2636 O   0  0  0  0  0  0  0  0  0  0  0  0
  127.0132   67.1215   -3.0484 C   0  0  1  0  0  0  0  0  0  0  0  0
  125.6276   67.1038   -2.6920 O   0  0  0  0  0  0  0  0  0  0  0  0
  127.6122   68.5046   -2.8642 C   0  0  1  0  0  0  0  0  0  0  0  0
  126.6095   69.4674   -2.5207 O   0  0  0  0  0  0  0  0  0  0  0  0
  128.6232   68.3805   -1.7303 C   0  0  2  0  0  0  0  0  0  0  0  0
  129.4397   58.7934   -1.9783 O   0  0  0  0  0  0  0  0  0  0  0  0
  131.6700   71.4579   -4.7652 N   0  0  0  0  0  0  0  0  0  0  0  0
  130.3309   71.4599   -4.6084 C   0  0  0  0  0  0  0  0  0  0  0  0
  129.6791   70.6079   -3.7904 N   0  0  0  0  0  0  0  0  0  0  0  0
  130.3484   69.6745   -3.0613 C   0  0  0  0  0  0  0  0  0  0  0  0
  131.8158   69.6130   -3.1814 C   0  0  0  0  0  0  0  0  0  0  0  0
  132.4628   70.5840   -4.0998 C   0  0  0  0  0  0  0  0  0  0  0  0
  133.8066   70.5902   -4.2675 N   0  0  0  0  0  0  0  0  0  0  0  0
  132.2311   68.6250   -2.3704 N   0  0  0  0  0  0  0  0  0  0  0  0
  131.1291   68.0957   -1.7832 C   0  0  0  0  0  0  0  0  0  0  0  0
  130.0033   68.7151   -2.1906 N   0  0  0  0  0  0  0  0  0  0  0  0
  2  1  1  6  0  0  0
  2  3  1  0  0  0  0
  2  5  1  0  0  0  0
  3  4  1  0  0  0  0
  3 16  1  0  0  0  0
  5  6  1  0  0  0  0
  6  7  1  0  0  0  0
  7  8  1  0  0  0  0
  9  8  1  6  0  0  0
  9 10  1  0  0  0  0
  9 11  1  0  0  0  0
 10 15  1  0  0  0  0
 11 12  1  1  0  0  0
 11 13  1  0  0  0  0
 13 14  1  1  0  0  0
 13 15  1  0  0  0  0
 15 26  1  6  0  0  0
 17 18  2  0  0  0  0
 17 22  1  0  0  0  0
 18 19  1  0  0  0  0
 19 20  2  0  0  0  0
 20 21  1  0  0  0  0
 20 26  1  0  0  0  0
 21 22  2  0  0  0  0
 21 24  1  0  0  0  0
 22 23  1  0  0  0  0
 24 25  2  0  0  0  0
 25 26  1  0  0  0  0
M  END
>  <CHROM.1>
5.28550639,-67.89563479,73.88799528,112.37123215,80.74190410,59.28632468
156.69671120,129.70315028,66.23646880,-2.56988332,-1.62975354,0.15177596
-0.15695386

>  <Name>
ligand

>  <RI>
0

>  <Rbt.Current_Directory>
/home/itssahil/PROJECTS/Mol_Feturizer/Test_systems_manuscript/rnas/3npn

>  <Rbt.Executable>
rbdock ($Id: //depot/dev/client3/rdock/2013.1/src/exe/rbdock.cxx#4 $)

>  <Rbt.Library>
libRbt.so (2013.1, Build901 2013/11/27)

>  <Rbt.Parameter_File>
/export/apps/rDock/src/rDock_2013.1_src/data/scripts/dock_solv.prm

>  <Rbt.Receptor>
prm/pocket_docking_5.prm

>  <SCORE>
-19.8254

>  <SCORE.INTER>
-20.8372

>  <SCORE.INTER.CONST>
1

>  <SCORE.INTER.POLAR>
0

>  <SCORE.INTER.ROT>
7

>  <SCORE.INTER.SOLV>
14.7091

>  <SCORE.INTER.VDW>
-27.0612

>  <SCORE.INTER.norm>
-0.801431

>  <SCORE.INTRA>
1.01178

>  <SCORE.INTRA.DIHEDRAL>
2.16832

>  <SCORE.INTRA.DIHEDRAL.0>
4.37896

>  <SCORE.INTRA.POLAR>
0

>  <SCORE.INTRA.POLAR.0>
0

>  <SCORE.INTRA.REPUL>
0

>  <SCORE.INTRA.REPUL.0>
0

>  <SCORE.INTRA.SOLV>
1.24283

>  <SCORE.INTRA.SOLV.lig_0>
-50.5538

>  <SCORE.INTRA.VDW>
-0.693792

>  <SCORE.INTRA.VDW.0>
-1.30673

>  <SCORE.INTRA.norm>
0.0389148

>  <SCORE.RESTR>
0

>  <SCORE.RESTR.CAVITY>
0

>  <SCORE.RESTR.norm>
0

>  <SCORE.SYSTEM>
0

>  <SCORE.SYSTEM.CONST>
0

>  <SCORE.SYSTEM.DIHEDRAL>
0

>  <SCORE.SYSTEM.SOLV>
0

>  <SCORE.SYSTEM.norm>
0

>  <SCORE.heavy>
26

>  <SCORE.norm>
-0.762516

>  <RMSD>
8.706

$$$$
ligand
 OpenBabel02271912153D
libRbt.so/2013.1/901 2013/11/27
 26 28  0  0  0  0  0  0  0  0999 V2000
  131.2131   63.4558   -1.3371 N   0  0  0  0  0  0  0  0  0  0  0  0
  129.7847   63.0389   -1.2132 C   0  0  2  0  0  0  0  0  0  0  0  0
  129.5892   61.6517   -1.7540 C   0  0  0  0  0  0  0  0  0  0  0  0
  128.4713   61.2362   -2.0565 O   0  0  0  0  0  0  0  0  0  0  0  0
  128.8828   64.0132   -1.9661 C   0  0  0  0  0  0  0  0  0  0  0  0
  129.0331   65.4586   -1.5017 C   0  0  0  0  0  0  0  0  0  0  0  0
  127.7786   66.4591   -2.2314 S   0  0  0  0  0  0  0  0  0  0  0  0
  128.3640   68.0916   -1.9096 C   0  0  0  0  0  0  0  0  0  0  0  0
  127.4198   69.1511   -2.4749 C   0  0  1  0  0  0  0  0  0  0  0  0
  127.9127   70.4648   -2.2031 O   0  0  0  0  0  0  0  0  0  0  0  0
  127.3135   69.0110   -3.9848 C   0  0  1  0  0  0  0  0  0  0  0  0
  125.9378   69.0061   -4.3780 O   0  0  0  0  0  0  0  0  0  0  0  0
  128.0494   70.2041   -4.5684 C   0  0  1  0  0  0  0  0  0  0  0  0
  127.2197   70.9375   -5.4762 O   0  0  0  0  0  0  0  0  0  0  0  0
  128.4310   71.0862   -3.3853 C   0  0  2  0  0  0  0  0  0  0  0  0
  130.5457   60.8918   -1.8982 O   0  0  0  0  0  0  0  0  0  0  0  0
  132.7595   70.3571   -0.4363 N   0  0  0  0  0  0  0  0  0  0  0  0
  131.4721   70.0655   -0.1616 C   0  0  0  0  0  0  0  0  0  0  0  0
  130.4582   70.3087   -1.0175 N   0  0  0  0  0  0  0  0  0  0  0  0
  130.6788   70.8771   -2.2336 C   0  0  0  0  0  0  0  0  0  0  0  0
  132.0625   71.2235   -2.6035 C   0  0  0  0  0  0  0  0  0  0  0  0
  133.1254   70.9242   -1.6108 C   0  0  0  0  0  0  0  0  0  0  0  0
  134.4217   71.2148   -1.8741 N   0  0  0  0  0  0  0  0  0  0  0  0
  132.0131   71.7593   -3.8351 N   0  0  0  0  0  0  0  0  0  0  0  0
  130.7133   71.7608   -4.2220 C   0  0  0  0  0  0  0  0  0  0  0  0
  129.9119   71.2375   -3.2727 N   0  0  0  0  0  0  0  0  0  0  0  0
  2  1  1  6  0  0  0
  2  3  1  0  0  0  0
  2  5  1  0  0  0  0
  3  4  1  0  0  0  0
  3 16  1  0  0  0  0
  5  6  1  0  0  0  0
  6  7  1  0  0  0  0
  7  8  1  0  0  0  0
  9  8  1  6  0  0  0
  9 10  1  0  0  0  0
  9 11  1  0  0  0  0
 10 15  1  0  0  0  0
 11 12  1  1  0  0  0
 11 13  1  0  0  0  0
 13 14  1  6  0  0  0
 13 15  1  0  0  0  0
 15 26  1  1  0  0  0
 17 18  2  0  0  0  0
 17 22  1  0  0  0  0
 18 19  1  0  0  0  0
 19 20  2  0  0  0  0
 20 21  1  0  0  0  0
 20 26  1  0  0  0  0
 21 22  2  0  0  0  0
 21 24  1  0  0  0  0
 22 23  1  0  0  0  0
 24 25  2  0  0  0  0
 25 26  1  0  0  0  0
M  END
>  <CHROM.1>
-161.83619647,-56.87320624,-170.75594709,-166.32659334,179.53472885,179.99862693
-0.84272090,129.58316695,68.05380626,-2.45819150,-1.71600285,-0.40655638
-0.19018393

>  <Name>
ligand

>  <RI>
0

>  <Rbt.Current_Directory>
/home/itssahil/PROJECTS/Mol_Feturizer/Test_systems_manuscript/rnas/3npn

>  <Rbt.Executable>
rbdock ($Id: //depot/dev/client3/rdock/2013.1/src/exe/rbdock.cxx#4 $)

>  <Rbt.Library>
libRbt.so (2013.1, Build901 2013/11/27)

>  <Rbt.Parameter_File>
/export/apps/rDock/src/rDock_2013.1_src/data/scripts/dock_solv.prm

>  <Rbt.Receptor>
prm/pocket_docking_7.prm

>  <SCORE>
-23.7918

>  <SCORE.INTER>
-22.7953

>  <SCORE.INTER.CONST>
1

>  <SCORE.INTER.POLAR>
0

>  <SCORE.INTER.ROT>
7

>  <SCORE.INTER.SOLV>
12.3058

>  <SCORE.INTER.VDW>
-27.5655

>  <SCORE.INTER.norm>
-0.876742

>  <SCORE.INTRA>
-0.99651

>  <SCORE.INTRA.DIHEDRAL>
-1.09066

>  <SCORE.INTRA.DIHEDRAL.0>
4.37896

>  <SCORE.INTRA.POLAR>
0

>  <SCORE.INTRA.POLAR.0>
0

>  <SCORE.INTRA.REPUL>
0

>  <SCORE.INTRA.REPUL.0>
0

>  <SCORE.INTRA.SOLV>
-0.0621439

>  <SCORE.INTRA.SOLV.lig_0>
-50.5538

>  <SCORE.INTRA.VDW>
-0.42011

>  <SCORE.INTRA.VDW.0>
-1.30673

>  <SCORE.INTRA.norm>
-0.0383273

>  <SCORE.RESTR>
0

>  <SCORE.RESTR.CAVITY>
0

>  <SCORE.RESTR.norm>
0

>  <SCORE.SYSTEM>
0

>  <SCORE.SYSTEM.CONST>
0

>  <SCORE.SYSTEM.DIHEDRAL>
0

>  <SCORE.SYSTEM.SOLV>
0

>  <SCORE.SYSTEM.norm>
0

>  <SCORE.heavy>
26

>  <SCORE.norm>
-0.91507

>  <RMSD>
8.754

$$$$
ligand
 OpenBabel02271912153D
libRbt.so/2013.1/901 2013/11/27
 26 28  0  0  0  0  0  0  0  0999 V2000
  131.0551   57.4043   -0.7795 N   0  0  0  0  0  0  0  0  0  0  0  0
  130.4819   58.3877   -1.7458 C   0  0  2  0  0  0  0  0  0  0  0  0
  129.8688   57.6805   -2.9201 C   0  0  0  0  0  0  0  0  0  0  0  0
  130.3467   56.6337   -3.3555 O   0  0  0  0  0  0  0  0  0  0  0  0
  131.5676   59.3430   -2.2339 C   0  0  0  0  0  0  0  0  0  0  0  0
  131.7458   60.5647   -1.3378 C   0  0  0  0  0  0  0  0  0  0  0  0
  130.3294   61.6078   -1.4531 S   0  0  0  0  0  0  0  0  0  0  0  0
  130.9729   63.1731   -0.9563 C   0  0  0  0  0  0  0  0  0  0  0  0
  129.8654   64.2129   -0.7948 C   0  0  1  0  0  0  0  0  0  0  0  0
  130.3853   65.4241   -0.2424 O   0  0  0  0  0  0  0  0  0  0  0  0
  129.2619   64.5548   -2.1475 C   0  0  1  0  0  0  0  0  0  0  0  0
  127.8347   64.4816   -2.0768 O   0  0  0  0  0  0  0  0  0  0  0  0
  129.7265   65.9643   -2.4685 C   0  0  1  0  0  0  0  0  0  0  0  0
  128.6206   66.8259   -2.7599 O   0  0  0  0  0  0  0  0  0  0  0  0
  130.4593   66.4613   -1.2279 C   0  0  2  0  0  0  0  0  0  0  0  0
  128.8757   58.1393   -3.4827 O   0  0  0  0  0  0  0  0  0  0  0  0
  134.1648   70.1956   -1.7649 N   0  0  0  0  0  0  0  0  0  0  0  0
  132.8567   70.3188   -1.4626 C   0  0  0  0  0  0  0  0  0  0  0  0
  132.0182   69.2673   -1.3568 N   0  0  0  0  0  0  0  0  0  0  0  0
  132.4515   67.9932   -1.5556 C   0  0  0  0  0  0  0  0  0  0  0  0
  133.8708   67.7808   -1.8896 C   0  0  0  0  0  0  0  0  0  0  0  0
  134.7328   68.9860   -1.9866 C   0  0  0  0  0  0  0  0  0  0  0  0
  136.0476   68.8753   -2.2920 N   0  0  0  0  0  0  0  0  0  0  0  0
  134.0429   66.4554   -2.0305 N   0  0  0  0  0  0  0  0  0  0  0  0
  132.8409   65.8673   -1.8100 C   0  0  0  0  0  0  0  0  0  0  0  0
  131.8873   66.7772   -1.5274 N   0  0  0  0  0  0  0  0  0  0  0  0
  2  1  1  1  0  0  0
  2  3  1  0  0  0  0
  2  5  1  0  0  0  0
  3  4  1  0  0  0  0
  3 16  1  0  0  0  0
  5  6  1  0  0  0  0
  6  7  1  0  0  0  0
  7  8  1  0  0  0  0
  9  8  1  6  0  0  0
  9 10  1  0  0  0  0
  9 11  1  0  0  0  0
 10 15  1  0  0  0  0
 11 12  1  1  0  0  0
 11 13  1  0  0  0  0
 13 14  1  1  0  0  0
 13 15  1  0  0  0  0
 15 26  1  6  0  0  0
 17 18  2  0  0  0  0
 17 22  1  0  0  0  0
 18 19  1  0  0  0  0
 19 20  2  0  0  0  0
 20 21  1  0  0  0  0
 20 26  1  0  0  0  0
 21 22  2  0  0  0  0
 21 24  1  0  0  0  0
 22 23  1  0  0  0  0
 24 25  2  0  0  0  0
 25 26  1  0  0  0  0
M  END
>  <CHROM.1>
-33.96650977,-87.69243056,-68.53751568,-157.09936333,-172.19070426,173.17325534
-130.47995218,131.26235897,64.11256963,-1.82802761,-1.85170344,-0.00881476
0.04803536

>  <Name>
ligand

>  <RI>
0

>  <Rbt.Current_Directory>
/home/itssahil/PROJECTS/Mol_Feturizer/Test_systems_manuscript/rnas/3npn

>  <Rbt.Executable>
rbdock ($Id: //depot/dev/client3/rdock/2013.1/src/exe/rbdock.cxx#4 $)

>  <Rbt.Library>
libRbt.so (2013.1, Build901 2013/11/27)

>  <Rbt.Parameter_File>
/export/apps/rDock/src/rDock_2013.1_src/data/scripts/dock_solv.prm

>  <Rbt.Receptor>
prm/pocket_docking_7.prm

>  <SCORE>
-14.0575

>  <SCORE.INTER>
-13.8457

>  <SCORE.INTER.CONST>
1

>  <SCORE.INTER.POLAR>
0

>  <SCORE.INTER.ROT>
7

>  <SCORE.INTER.SOLV>
14.0871

>  <SCORE.INTER.VDW>
-22.1928

>  <SCORE.INTER.norm>
-0.532525

>  <SCORE.INTRA>
-0.21182

>  <SCORE.INTRA.DIHEDRAL>
2.15737

>  <SCORE.INTRA.DIHEDRAL.0>
4.37896

>  <SCORE.INTRA.POLAR>
0

>  <SCORE.INTRA.POLAR.0>
0

>  <SCORE.INTRA.REPUL>
0

>  <SCORE.INTRA.REPUL.0>
0

>  <SCORE.INTRA.SOLV>
-0.140027

>  <SCORE.INTRA.SOLV.lig_0>
-50.5538

>  <SCORE.INTRA.VDW>
-1.22049

>  <SCORE.INTRA.VDW.0>
-1.30673

>  <SCORE.INTRA.norm>
-0.0081469

>  <SCORE.RESTR>
0

>  <SCORE.RESTR.CAVITY>
0

>  <SCORE.RESTR.norm>
0

>  <SCORE.SYSTEM>
0

>  <SCORE.SYSTEM.CONST>
0

>  <SCORE.SYSTEM.DIHEDRAL>
0

>  <SCORE.SYSTEM.SOLV>
0

>  <SCORE.SYSTEM.norm>
0

>  <SCORE.heavy>
26

>  <SCORE.norm>
-0.540672

>  <RMSD>
8.762

$$$$
ligand
 OpenBabel02271912153D
libRbt.so/2013.1/901 2013/11/27
 26 28  0  0  0  0  0  0  0  0999 V2000
  125.4134   68.1046   -2.5913 N   0  0  0  0  0  0  0  0  0  0  0  0
  126.5623   67.4714   -3.3044 C   0  0  2  0  0  0  0  0  0  0  0  0
  127.5312   66.8762   -2.3235 C   0  0  0  0  0  0  0  0  0  0  0  0
  127.8500   65.6893   -2.3815 O   0  0  0  0  0  0  0  0  0  0  0  0
  127.2801   68.5033   -4.1703 C   0  0  0  0  0  0  0  0  0  0  0  0
  127.6163   69.7905   -3.4236 C   0  0  0  0  0  0  0  0  0  0  0  0
  128.3537   70.9512   -4.5264 S   0  0  0  0  0  0  0  0  0  0  0  0
  129.7810   71.4693   -3.6289 C   0  0  0  0  0  0  0  0  0  0  0  0
  131.0708   71.0073   -4.3047 C   0  0  1  0  0  0  0  0  0  0  0  0
  132.2057   71.6532   -3.7238 O   0  0  0  0  0  0  0  0  0  0  0  0
  131.2571   69.5103   -4.1175 C   0  0  1  0  0  0  0  0  0  0  0  0
  131.5534   68.8952   -5.3750 O   0  0  0  0  0  0  0  0  0  0  0  0
  132.4089   69.3510   -3.1409 C   0  0  1  0  0  0  0  0  0  0  0  0
  133.4342   68.5059   -3.6747 O   0  0  0  0  0  0  0  0  0  0  0  0
  132.9609   70.7520   -2.9053 C   0  0  2  0  0  0  0  0  0  0  0  0
  128.0230   67.5628   -1.4292 O   0  0  0  0  0  0  0  0  0  0  0  0
  133.7242   74.5082    0.7379 N   0  0  0  0  0  0  0  0  0  0  0  0
  133.9851   74.5268   -0.5848 C   0  0  0  0  0  0  0  0  0  0  0  0
  133.7360   73.4844   -1.4041 N   0  0  0  0  0  0  0  0  0  0  0  0
  133.1977   72.3269   -0.9339 C   0  0  0  0  0  0  0  0  0  0  0  0
  132.8857   72.2333    0.5032 C   0  0  0  0  0  0  0  0  0  0  0  0
  133.1858   73.4216    1.3415 C   0  0  0  0  0  0  0  0  0  0  0  0
  132.9306   73.4142    2.6715 N   0  0  0  0  0  0  0  0  0  0  0  0
  132.3687   71.0101    0.7099 N   0  0  0  0  0  0  0  0  0  0  0  0
  132.3524   70.3721   -0.4868 C   0  0  0  0  0  0  0  0  0  0  0  0
  132.8458   71.1499   -1.4710 N   0  0  0  0  0  0  0  0  0  0  0  0
  2  1  1  1  0  0  0
  2  3  1  0  0  0  0
  2  5  1  0  0  0  0
  3  4  1  0  0  0  0
  3 16  1  0  0  0  0
  5  6  1  0  0  0  0
  6  7  1  0  0  0  0
  7  8  1  0  0  0  0
  9  8  1  1  0  0  0
  9 10  1  0  0  0  0
  9 11  1  0  0  0  0
 10 15  1  0  0  0  0
 11 12  1  6  0  0  0
 11 13  1  0  0  0  0
 13 14  1  6  0  0  0
 13 15  1  0  0  0  0
 15 26  1  1  0  0  0
 17 18  2  0  0  0  0
 17 22  1  0  0  0  0
 18 19  1  0  0  0  0
 19 20  2  0  0  0  0
 20 21  1  0  0  0  0
 20 26  1  0  0  0  0
 21 22  2  0  0  0  0
 21 24  1  0  0  0  0
 22 23  1  0  0  0  0
 24 25  2  0  0  0  0
 25 26  1  0  0  0  0
M  END
>  <CHROM.1>
124.05973343,49.51935197,-176.66164530,-130.98890224,112.81062520,168.40321542
-58.91880583,130.77055324,70.42602755,-2.25919335,2.56253244,-0.59045899
-1.83181038

>  <Name>
ligand

>  <RI>
0

>  <Rbt.Current_Directory>
/home/itssahil/PROJECTS/Mol_Feturizer/Test_systems_manuscript/rnas/3npn

>  <Rbt.Executable>
rbdock ($Id: //depot/dev/client3/rdock/2013.1/src/exe/rbdock.cxx#4 $)

>  <Rbt.Library>
libRbt.so (2013.1, Build901 2013/11/27)

>  <Rbt.Parameter_File>
/export/apps/rDock/src/rDock_2013.1_src/data/scripts/dock_solv.prm

>  <Rbt.Receptor>
prm/pocket_docking_8.prm

>  <SCORE>
-10.248

>  <SCORE.INTER>
-11.4908

>  <SCORE.INTER.CONST>
1

>  <SCORE.INTER.POLAR>
0

>  <SCORE.INTER.ROT>
7

>  <SCORE.INTER.SOLV>
16.4743

>  <SCORE.INTER.VDW>
-21.4186

>  <SCORE.INTER.norm>
-0.441952

>  <SCORE.INTRA>
1.24275

>  <SCORE.INTRA.DIHEDRAL>
3.75315

>  <SCORE.INTRA.DIHEDRAL.0>
4.37896

>  <SCORE.INTRA.POLAR>
0

>  <SCORE.INTRA.POLAR.0>
0

>  <SCORE.INTRA.REPUL>
0

>  <SCORE.INTRA.REPUL.0>
0

>  <SCORE.INTRA.SOLV>
0.0248788

>  <SCORE.INTRA.SOLV.lig_0>
-50.5538

>  <SCORE.INTRA.VDW>
-0.646269

>  <SCORE.INTRA.VDW.0>
-1.30673

>  <SCORE.INTRA.norm>
0.0477979

>  <SCORE.RESTR>
0

>  <SCORE.RESTR.CAVITY>
0

>  <SCORE.RESTR.norm>
0

>  <SCORE.SYSTEM>
0

>  <SCORE.SYSTEM.CONST>
0

>  <SCORE.SYSTEM.DIHEDRAL>
0

>  <SCORE.SYSTEM.SOLV>
0

>  <SCORE.SYSTEM.norm>
0

>  <SCORE.heavy>
26

>  <SCORE.norm>
-0.394154

>  <RMSD>
8.781

$$$$
ligand
 OpenBabel02271912153D
libRbt.so/2013.1/901 2013/11/27
 26 28  0  0  0  0  0  0  0  0999 V2000
  136.6810   60.9496    1.0221 N   0  0  0  0  0  0  0  0  0  0  0  0
  136.3232   60.6183   -0.3891 C   0  0  2  0  0  0  0  0  0  0  0  0
  135.2859   61.5712   -0.9100 C   0  0  0  0  0  0  0  0  0  0  0  0
  134.6801   62.3304   -0.1550 O   0  0  0  0  0  0  0  0  0  0  0  0
  135.7954   59.1889   -0.4787 C   0  0  0  0  0  0  0  0  0  0  0  0
  134.4936   58.9758    0.2876 C   0  0  0  0  0  0  0  0  0  0  0  0
  133.9614   57.3039    0.1173 S   0  0  0  0  0  0  0  0  0  0  0  0
  133.2959   57.2850   -1.5161 C   0  0  0  0  0  0  0  0  0  0  0  0
  131.8424   56.8150   -1.5278 C   0  0  1  0  0  0  0  0  0  0  0  0
  131.0284   57.6682   -0.7203 O   0  0  0  0  0  0  0  0  0  0  0  0
  131.2844   56.8620   -2.9410 C   0  0  1  0  0  0  0  0  0  0  0  0
  130.6453   55.6207   -3.2539 O   0  0  0  0  0  0  0  0  0  0  0  0
  130.2938   58.0126   -2.9615 C   0  0  1  0  0  0  0  0  0  0  0  0
  129.0083   57.5879   -3.4277 O   0  0  0  0  0  0  0  0  0  0  0  0
  130.1879   58.5057   -1.5232 C   0  0  2  0  0  0  0  0  0  0  0  0
  135.0100   61.6075   -2.1082 O   0  0  0  0  0  0  0  0  0  0  0  0
  128.8192   63.6067   -1.7896 N   0  0  0  0  0  0  0  0  0  0  0  0
  128.0706   62.5034   -1.9901 C   0  0  0  0  0  0  0  0  0  0  0  0
  128.5566   61.2492   -1.8872 N   0  0  0  0  0  0  0  0  0  0  0  0
  129.8594   61.0182   -1.5708 C   0  0  0  0  0  0  0  0  0  0  0  0
  130.7389   62.1771   -1.3373 C   0  0  0  0  0  0  0  0  0  0  0  0
  130.1323   63.5263   -1.4666 C   0  0  0  0  0  0  0  0  0  0  0  0
  130.8745   64.6420   -1.2701 N   0  0  0  0  0  0  0  0  0  0  0  0
  131.9557   61.6885   -1.0423 N   0  0  0  0  0  0  0  0  0  0  0  0
  131.8680   60.3359   -1.0854 C   0  0  0  0  0  0  0  0  0  0  0  0
  130.6222   59.9288   -1.4007 N   0  0  0  0  0  0  0  0  0  0  0  0
  2  1  1  1  0  0  0
  2  3  1  0  0  0  0
  2  5  1  0  0  0  0
  3  4  1  0  0  0  0
  3 16  1  0  0  0  0
  5  6  1  0  0  0  0
  6  7  1  0  0  0  0
  7  8  1  0  0  0  0
  9  8  1  6  0  0  0
  9 10  1  0  0  0  0
  9 11  1  0  0  0  0
 10 15  1  0  0  0  0
 11 12  1  1  0  0  0
 11 13  1  0  0  0  0
 13 14  1  1  0  0  0
 13 15  1  0  0  0  0
 15 26  1  6  0  0  0
 17 18  2  0  0  0  0
 17 22  1  0  0  0  0
 18 19  1  0  0  0  0
 19 20  2  0  0  0  0
 20 21  1  0  0  0  0
 20 26  1  0  0  0  0
 21 22  2  0  0  0  0
 21 24  1  0  0  0  0
 22 23  1  0  0  0  0
 24 25  2  0  0  0  0
 25 26  1  0  0  0  0
M  END
>  <CHROM.1>
-12.20121779,64.08394947,179.67759212,-76.47907097,-123.48811621,59.16945299
-153.84333486,132.10345243,59.86645319,-1.29499021,-0.19329928,-0.32685835
0.11637094

>  <Name>
ligand

>  <RI>
0

>  <Rbt.Current_Directory>
/home/itssahil/PROJECTS/Mol_Feturizer/Test_systems_manuscript/rnas/3npn

>  <Rbt.Executable>
rbdock ($Id: //depot/dev/client3/rdock/2013.1/src/exe/rbdock.cxx#4 $)

>  <Rbt.Library>
libRbt.so (2013.1, Build901 2013/11/27)

>  <Rbt.Parameter_File>
/export/apps/rDock/src/rDock_2013.1_src/data/scripts/dock_solv.prm

>  <Rbt.Receptor>
prm/pocket_docking_6.prm

>  <SCORE>
-21.3553

>  <SCORE.INTER>
-19.8667

>  <SCORE.INTER.CONST>
1

>  <SCORE.INTER.POLAR>
0

>  <SCORE.INTER.ROT>
7

>  <SCORE.INTER.SOLV>
11.0153

>  <SCORE.INTER.VDW>
-25.1829

>  <SCORE.INTER.norm>
-0.764102

>  <SCORE.INTRA>
-1.48868

>  <SCORE.INTRA.DIHEDRAL>
1.14509

>  <SCORE.INTRA.DIHEDRAL.0>
4.37896

>  <SCORE.INTRA.POLAR>
0

>  <SCORE.INTRA.POLAR.0>
0

>  <SCORE.INTRA.REPUL>
0

>  <SCORE.INTRA.REPUL.0>
0

>  <SCORE.INTRA.SOLV>
-0.215119

>  <SCORE.INTRA.SOLV.lig_0>
-50.5538

>  <SCORE.INTRA.VDW>
-1.95367

>  <SCORE.INTRA.VDW.0>
-1.30673

>  <SCORE.INTRA.norm>
-0.057257

>  <SCORE.RESTR>
0

>  <SCORE.RESTR.CAVITY>
0

>  <SCORE.RESTR.norm>
0

>  <SCORE.SYSTEM>
0

>  <SCORE.SYSTEM.CONST>
0

>  <SCORE.SYSTEM.DIHEDRAL>
0

>  <SCORE.SYSTEM.SOLV>
0

>  <SCORE.SYSTEM.norm>
0

>  <SCORE.heavy>
26

>  <SCORE.norm>
-0.821359

>  <RMSD>
8.803

$$$$
ligand
 OpenBabel02271912153D
libRbt.so/2013.1/901 2013/11/27
 26 28  0  0  0  0  0  0  0  0999 V2000
  130.1307   59.6307   -2.1163 N   0  0  0  0  0  0  0  0  0  0  0  0
  130.6401   61.0253   -1.9579 C   0  0  2  0  0  0  0  0  0  0  0  0
  131.6449   61.0987   -0.8442 C   0  0  0  0  0  0  0  0  0  0  0  0
  132.2213   60.0908   -0.4371 O   0  0  0  0  0  0  0  0  0  0  0  0
  129.4849   61.9799   -1.6682 C   0  0  0  0  0  0  0  0  0  0  0  0
  129.8675   63.4506   -1.8027 C   0  0  0  0  0  0  0  0  0  0  0  0
  128.4196   64.4319   -2.0215 S   0  0  0  0  0  0  0  0  0  0  0  0
  129.0445   66.0713   -1.8398 C   0  0  0  0  0  0  0  0  0  0  0  0
  127.9176   67.0900   -1.6791 C   0  0  1  0  0  0  0  0  0  0  0  0
  128.4429   68.3779   -1.3507 O   0  0  0  0  0  0  0  0  0  0  0  0
  127.1474   67.2341   -2.9817 C   0  0  1  0  0  0  0  0  0  0  0  0
  125.7426   67.1288   -2.7314 O   0  0  0  0  0  0  0  0  0  0  0  0
  127.5083   68.6027   -3.5318 C   0  0  1  0  0  0  0  0  0  0  0  0
  126.3387   69.3857   -3.7947 O   0  0  0  0  0  0  0  0  0  0  0  0
  128.3563   69.2791   -2.4610 C   0  0  2  0  0  0  0  0  0  0  0  0
  131.9085   62.1720   -0.3042 O   0  0  0  0  0  0  0  0  0  0  0  0
  133.1345   71.2794   -1.3974 N   0  0  0  0  0  0  0  0  0  0  0  0
  132.0538   71.1624   -0.5998 C   0  0  0  0  0  0  0  0  0  0  0  0
  130.8858   70.6249   -1.0083 N   0  0  0  0  0  0  0  0  0  0  0  0
  130.7248   70.1616   -2.2772 C   0  0  0  0  0  0  0  0  0  0  0  0
  131.8643   70.2564   -3.2067 C   0  0  0  0  0  0  0  0  0  0  0  0
  133.1176   70.8578   -2.6846 C   0  0  0  0  0  0  0  0  0  0  0  0
  134.2089   70.9831   -3.4768 N   0  0  0  0  0  0  0  0  0  0  0  0
  131.4561   69.7356   -4.3765 N   0  0  0  0  0  0  0  0  0  0  0  0
  130.1678   69.3436   -4.2154 C   0  0  0  0  0  0  0  0  0  0  0  0
  129.7246   69.5951   -2.9674 N   0  0  0  0  0  0  0  0  0  0  0  0
  2  1  1  1  0  0  0
  2  3  1  0  0  0  0
  2  5  1  0  0  0  0
  3  4  1  0  0  0  0
  3 16  1  0  0  0  0
  5  6  1  0  0  0  0
  6  7  1  0  0  0  0
  7  8  1  0  0  0  0
  9  8  1  6  0  0  0
  9 10  1  0  0  0  0
  9 11  1  0  0  0  0
 10 15  1  0  0  0  0
 11 12  1  1  0  0  0
 11 13  1  0  0  0  0
 13 14  1  1  0  0  0
 13 15  1  0  0  0  0
 15 26  1  6  0  0  0
 17 18  2  0  0  0  0
 17 22  1  0  0  0  0
 18 19  1  0  0  0  0
 19 20  2  0  0  0  0
 20 21  1  0  0  0  0
 20 26  1  0  0  0  0
 21 22  2  0  0  0  0
 21 24  1  0  0  0  0
 22 23  1  0  0  0  0
 24 25  2  0  0  0  0
 25 26  1  0  0  0  0
M  END
>  <CHROM.1>
19.71349123,-167.03879812,160.00945108,169.50706840,-167.18688649,172.03296631
-59.51105994,129.94718065,66.74564084,-2.19098396,-1.61034554,-0.17559172
-0.15259603

>  <Name>
ligand

>  <RI>
0

>  <Rbt.Current_Directory>
/home/itssahil/PROJECTS/Mol_Feturizer/Test_systems_manuscript/rnas/3npn

>  <Rbt.Executable>
rbdock ($Id: //depot/dev/client3/rdock/2013.1/src/exe/rbdock.cxx#4 $)

>  <Rbt.Library>
libRbt.so (2013.1, Build901 2013/11/27)

>  <Rbt.Parameter_File>
/export/apps/rDock/src/rDock_2013.1_src/data/scripts/dock_solv.prm

>  <Rbt.Receptor>
prm/pocket_docking_8.prm

>  <SCORE>
-18.1334

>  <SCORE.INTER>
-18.786

>  <SCORE.INTER.CONST>
1

>  <SCORE.INTER.POLAR>
0

>  <SCORE.INTER.ROT>
7

>  <SCORE.INTER.SOLV>
15.8079

>  <SCORE.INTER.VDW>
-26.06

>  <SCORE.INTER.norm>
-0.72254

>  <SCORE.INTRA>
0.652673

>  <SCORE.INTRA.DIHEDRAL>
0.97021

>  <SCORE.INTRA.DIHEDRAL.0>
4.37896

>  <SCORE.INTRA.POLAR>
0

>  <SCORE.INTRA.POLAR.0>
0

>  <SCORE.INTRA.REPUL>
0

>  <SCORE.INTRA.REPUL.0>
0

>  <SCORE.INTRA.SOLV>
-0.848085

>  <SCORE.INTRA.SOLV.lig_0>
-50.5538

>  <SCORE.INTRA.VDW>
0.591611

>  <SCORE.INTRA.VDW.0>
-1.30673

>  <SCORE.INTRA.norm>
0.0251028

>  <SCORE.RESTR>
0

>  <SCORE.RESTR.CAVITY>
0

>  <SCORE.RESTR.norm>
0

>  <SCORE.SYSTEM>
0

>  <SCORE.SYSTEM.CONST>
0

>  <SCORE.SYSTEM.DIHEDRAL>
0

>  <SCORE.SYSTEM.SOLV>
0

>  <SCORE.SYSTEM.norm>
0

>  <SCORE.heavy>
26

>  <SCORE.norm>
-0.697437

>  <RMSD>
8.812

$$$$
ligand
 OpenBabel02271912153D
libRbt.so/2013.1/901 2013/11/27
 26 28  0  0  0  0  0  0  0  0999 V2000
  132.1777   60.0547   -2.1811 N   0  0  0  0  0  0  0  0  0  0  0  0
  130.9209   59.6649   -1.4755 C   0  0  2  0  0  0  0  0  0  0  0  0
  130.5553   58.2431   -1.7919 C   0  0  0  0  0  0  0  0  0  0  0  0
  130.5968   57.3664   -0.9297 O   0  0  0  0  0  0  0  0  0  0  0  0
  129.7774   60.5899   -1.8834 C   0  0  0  0  0  0  0  0  0  0  0  0
  130.0143   62.0483   -1.5033 C   0  0  0  0  0  0  0  0  0  0  0  0
  128.5906   63.0114   -1.8942 S   0  0  0  0  0  0  0  0  0  0  0  0
  129.2136   64.6590   -1.8027 C   0  0  0  0  0  0  0  0  0  0  0  0
  128.2074   65.6734   -2.3434 C   0  0  1  0  0  0  0  0  0  0  0  0
  127.9479   66.6932   -1.3763 O   0  0  0  0  0  0  0  0  0  0  0  0
  128.7615   66.3561   -3.5834 C   0  0  1  0  0  0  0  0  0  0  0  0
  127.7883   66.3265   -4.6318 O   0  0  0  0  0  0  0  0  0  0  0  0
  129.0817   67.7812   -3.1685 C   0  0  1  0  0  0  0  0  0  0  0  0
  128.4400   68.7322   -4.0253 O   0  0  0  0  0  0  0  0  0  0  0  0
  128.5636   67.9337   -1.7432 C   0  0  2  0  0  0  0  0  0  0  0  0
  130.2139   57.9191   -2.9284 O   0  0  0  0  0  0  0  0  0  0  0  0
  132.5070   71.2137   -0.4567 N   0  0  0  0  0  0  0  0  0  0  0  0
  131.6513   71.2635   -1.4974 C   0  0  0  0  0  0  0  0  0  0  0  0
  130.6818   70.3486   -1.7043 N   0  0  0  0  0  0  0  0  0  0  0  0
  130.5079   69.2974   -0.8585 C   0  0  0  0  0  0  0  0  0  0  0  0
  131.4070   69.1773    0.3027 C   0  0  0  0  0  0  0  0  0  0  0  0
  132.4484   70.2232    0.4656 C   0  0  0  0  0  0  0  0  0  0  0  0
  133.3152   70.1826    1.5053 N   0  0  0  0  0  0  0  0  0  0  0  0
  131.0314   68.0745    0.9727 N   0  0  0  0  0  0  0  0  0  0  0  0
  129.9860   67.5313    0.3009 C   0  0  0  0  0  0  0  0  0  0  0  0
  129.6687   68.2538   -0.7920 N   0  0  0  0  0  0  0  0  0  0  0  0
  2  1  1  6  0  0  0
  2  3  1  0  0  0  0
  2  5  1  0  0  0  0
  3  4  1  0  0  0  0
  3 16  1  0  0  0  0
  5  6  1  0  0  0  0
  6  7  1  0  0  0  0
  7  8  1  0  0  0  0
  9  8  1  1  0  0  0
  9 10  1  0  0  0  0
  9 11  1  0  0  0  0
 10 15  1  0  0  0  0
 11 12  1  6  0  0  0
 11 13  1  0  0  0  0
 13 14  1  6  0  0  0
 13 15  1  0  0  0  0
 15 26  1  1  0  0  0
 17 18  2  0  0  0  0
 17 22  1  0  0  0  0
 18 19  1  0  0  0  0
 19 20  2  0  0  0  0
 20 21  1  0  0  0  0
 20 26  1  0  0  0  0
 21 22  2  0  0  0  0
 21 24  1  0  0  0  0
 22 23  1  0  0  0  0
 24 25  2  0  0  0  0
 25 26  1  0  0  0  0
M  END
>  <CHROM.1>
112.48241224,-62.34246044,-175.39393325,-165.21615937,170.10435728,125.66516040
176.48139582,130.03376901,65.46645802,-1.57263617,-1.65693160,-0.73359931
0.04938561

>  <Name>
ligand

>  <RI>
0

>  <Rbt.Current_Directory>
/home/itssahil/PROJECTS/Mol_Feturizer/Test_systems_manuscript/rnas/3npn

>  <Rbt.Executable>
rbdock ($Id: //depot/dev/client3/rdock/2013.1/src/exe/rbdock.cxx#4 $)

>  <Rbt.Library>
libRbt.so (2013.1, Build901 2013/11/27)

>  <Rbt.Parameter_File>
/export/apps/rDock/src/rDock_2013.1_src/data/scripts/dock_solv.prm

>  <Rbt.Receptor>
prm/pocket_docking_8.prm

>  <SCORE>
-22.2068

>  <SCORE.INTER>
-23.2174

>  <SCORE.INTER.CONST>
1

>  <SCORE.INTER.POLAR>
0

>  <SCORE.INTER.ROT>
7

>  <SCORE.INTER.SOLV>
12.9931

>  <SCORE.INTER.VDW>
-28.076

>  <SCORE.INTER.norm>
-0.892979

>  <SCORE.INTRA>
1.01064

>  <SCORE.INTRA.DIHEDRAL>
4.02313

>  <SCORE.INTRA.DIHEDRAL.0>
4.37896

>  <SCORE.INTRA.POLAR>
0

>  <SCORE.INTRA.POLAR.0>
0

>  <SCORE.INTRA.REPUL>
0

>  <SCORE.INTRA.REPUL.0>
0

>  <SCORE.INTRA.SOLV>
-0.303017

>  <SCORE.INTRA.SOLV.lig_0>
-50.5538

>  <SCORE.INTRA.VDW>
-0.849415

>  <SCORE.INTRA.VDW.0>
-1.30673

>  <SCORE.INTRA.norm>
0.0388708

>  <SCORE.RESTR>
0

>  <SCORE.RESTR.CAVITY>
0

>  <SCORE.RESTR.norm>
0

>  <SCORE.SYSTEM>
0

>  <SCORE.SYSTEM.CONST>
0

>  <SCORE.SYSTEM.DIHEDRAL>
0

>  <SCORE.SYSTEM.SOLV>
0

>  <SCORE.SYSTEM.norm>
0

>  <SCORE.heavy>
26

>  <SCORE.norm>
-0.854108

>  <RMSD>
8.829

$$$$
ligand
 OpenBabel02271912153D
libRbt.so/2013.1/901 2013/11/27
 26 28  0  0  0  0  0  0  0  0999 V2000
  133.1559   64.6960   -1.0983 N   0  0  0  0  0  0  0  0  0  0  0  0
  132.2353   64.2632   -0.0054 C   0  0  2  0  0  0  0  0  0  0  0  0
  132.7994   63.0777    0.7237 C   0  0  0  0  0  0  0  0  0  0  0  0
  133.0785   63.1381    1.9204 O   0  0  0  0  0  0  0  0  0  0  0  0
  130.8660   63.9071   -0.5782 C   0  0  0  0  0  0  0  0  0  0  0  0
  130.1799   65.0770   -1.2769 C   0  0  0  0  0  0  0  0  0  0  0  0
  128.6898   64.5305   -2.0436 S   0  0  0  0  0  0  0  0  0  0  0  0
  128.2423   65.9215   -3.0315 C   0  0  0  0  0  0  0  0  0  0  0  0
  127.4400   66.9466   -2.2320 C   0  0  1  0  0  0  0  0  0  0  0  0
  128.3111   67.8666   -1.5707 O   0  0  0  0  0  0  0  0  0  0  0  0
  126.5465   67.7555   -3.1583 C   0  0  1  0  0  0  0  0  0  0  0  0
  125.2122   67.7879   -2.6425 O   0  0  0  0  0  0  0  0  0  0  0  0
  127.1507   69.1475   -3.2120 C   0  0  1  0  0  0  0  0  0  0  0  0
  126.1866   70.1498   -2.8709 O   0  0  0  0  0  0  0  0  0  0  0  0
  128.2884   69.1546   -2.1976 C   0  0  2  0  0  0  0  0  0  0  0  0
  133.0056   62.0170    0.1358 O   0  0  0  0  0  0  0  0  0  0  0  0
  131.1383   72.3715   -5.2788 N   0  0  0  0  0  0  0  0  0  0  0  0
  129.8551   72.4770   -4.8789 C   0  0  0  0  0  0  0  0  0  0  0  0
  129.2499   71.5716   -4.0828 N   0  0  0  0  0  0  0  0  0  0  0  0
  129.9119   70.4733   -3.6286 C   0  0  0  0  0  0  0  0  0  0  0  0
  131.3194   70.2910   -4.0249 C   0  0  0  0  0  0  0  0  0  0  0  0
  131.9177   71.3300   -4.9009 C   0  0  0  0  0  0  0  0  0  0  0  0
  133.2048   71.2337   -5.3113 N   0  0  0  0  0  0  0  0  0  0  0  0
  131.7399   69.1504   -3.4518 N   0  0  0  0  0  0  0  0  0  0  0  0
  130.6955   68.6422   -2.7518 C   0  0  0  0  0  0  0  0  0  0  0  0
  129.6023   69.4244   -2.8530 N   0  0  0  0  0  0  0  0  0  0  0  0
  2  1  1  6  0  0  0
  2  3  1  0  0  0  0
  2  5  1  0  0  0  0
  3  4  1  0  0  0  0
  3 16  1  0  0  0  0
  5  6  1  0  0  0  0
  6  7  1  0  0  0  0
  7  8  1  0  0  0  0
  9  8  1  6  0  0  0
  9 10  1  0  0  0  0
  9 11  1  0  0  0  0
 10 15  1  0  0  0  0
 11 12  1  1  0  0  0
 11 13  1  0  0  0  0
 13 14  1  1  0  0  0
 13 15  1  0  0  0  0
 15 26  1  6  0  0  0
 17 18  2  0  0  0  0
 17 22  1  0  0  0  0
 18 19  1  0  0  0  0
 19 20  2  0  0  0  0
 20 21  1  0  0  0  0
 20 26  1  0  0  0  0
 21 22  2  0  0  0  0
 21 24  1  0  0  0  0
 22 23  1  0  0  0  0
 24 25  2  0  0  0  0
 25 26  1  0  0  0  0
M  END
>  <CHROM.1>
117.94318332,-61.01557673,174.25937144,-169.36118797,-85.53909275,87.56799649
173.92460131,129.90285723,67.53883146,-2.39287472,-1.30317854,-0.02532066
-0.49971713

>  <Name>
ligand

>  <RI>
0

>  <Rbt.Current_Directory>
/home/itssahil/PROJECTS/Mol_Feturizer/Test_systems_manuscript/rnas/3npn

>  <Rbt.Executable>
rbdock ($Id: //depot/dev/client3/rdock/2013.1/src/exe/rbdock.cxx#4 $)

>  <Rbt.Library>
libRbt.so (2013.1, Build901 2013/11/27)

>  <Rbt.Parameter_File>
/export/apps/rDock/src/rDock_2013.1_src/data/scripts/dock_solv.prm

>  <Rbt.Receptor>
prm/pocket_docking_7.prm

>  <SCORE>
-18.8352

>  <SCORE.INTER>
-18.3555

>  <SCORE.INTER.CONST>
1

>  <SCORE.INTER.POLAR>
0

>  <SCORE.INTER.ROT>
7

>  <SCORE.INTER.SOLV>
13.2441

>  <SCORE.INTER.VDW>
-24.9184

>  <SCORE.INTER.norm>
-0.70598

>  <SCORE.INTRA>
-0.479749

>  <SCORE.INTRA.DIHEDRAL>
1.81163

>  <SCORE.INTRA.DIHEDRAL.0>
4.37896

>  <SCORE.INTRA.POLAR>
0

>  <SCORE.INTRA.POLAR.0>
0

>  <SCORE.INTRA.REPUL>
0

>  <SCORE.INTRA.REPUL.0>
0

>  <SCORE.INTRA.SOLV>
-0.159066

>  <SCORE.INTRA.SOLV.lig_0>
-50.5538

>  <SCORE.INTRA.VDW>
-1.30603

>  <SCORE.INTRA.VDW.0>
-1.30673

>  <SCORE.INTRA.norm>
-0.0184519

>  <SCORE.RESTR>
0

>  <SCORE.RESTR.CAVITY>
0

>  <SCORE.RESTR.norm>
0

>  <SCORE.SYSTEM>
0

>  <SCORE.SYSTEM.CONST>
0

>  <SCORE.SYSTEM.DIHEDRAL>
0

>  <SCORE.SYSTEM.SOLV>
0

>  <SCORE.SYSTEM.norm>
0

>  <SCORE.heavy>
26

>  <SCORE.norm>
-0.724432

>  <RMSD>
8.847

$$$$
ligand
 OpenBabel02271912153D
libRbt.so/2013.1/901 2013/11/27
 26 28  0  0  0  0  0  0  0  0999 V2000
  131.9154   63.9150    0.0717 N   0  0  0  0  0  0  0  0  0  0  0  0
  131.5543   63.8596   -1.3760 C   0  0  2  0  0  0  0  0  0  0  0  0
  132.5490   64.6261   -2.1996 C   0  0  0  0  0  0  0  0  0  0  0  0
  133.6799   64.8630   -1.7770 O   0  0  0  0  0  0  0  0  0  0  0  0
  130.1576   64.4353   -1.5945 C   0  0  0  0  0  0  0  0  0  0  0  0
  130.0455   65.9095   -1.2183 C   0  0  0  0  0  0  0  0  0  0  0  0
  128.4669   66.5338   -1.6932 S   0  0  0  0  0  0  0  0  0  0  0  0
  128.7692   68.2670   -1.8181 C   0  0  0  0  0  0  0  0  0  0  0  0
  127.5287   69.0236   -2.2898 C   0  0  1  0  0  0  0  0  0  0  0  0
  127.7521   70.4347   -2.2524 O   0  0  0  0  0  0  0  0  0  0  0  0
  127.2016   68.6550   -3.7278 C   0  0  1  0  0  0  0  0  0  0  0  0
  125.8160   68.3165   -3.8408 O   0  0  0  0  0  0  0  0  0  0  0  0
  127.5397   69.8789   -4.5605 C   0  0  1  0  0  0  0  0  0  0  0  0
  126.4243   70.2946   -5.3563 O   0  0  0  0  0  0  0  0  0  0  0  0
  127.9085   70.9766   -3.5694 C   0  0  2  0  0  0  0  0  0  0  0  0
  132.2509   65.0453   -3.3170 O   0  0  0  0  0  0  0  0  0  0  0  0
  132.8313   71.1664   -1.6475 N   0  0  0  0  0  0  0  0  0  0  0  0
  131.7236   70.6054   -1.1221 C   0  0  0  0  0  0  0  0  0  0  0  0
  130.5194   70.6328   -1.7296 N   0  0  0  0  0  0  0  0  0  0  0  0
  130.3470   71.2434   -2.9329 C   0  0  0  0  0  0  0  0  0  0  0  0
  131.5144   71.8790   -3.5688 C   0  0  0  0  0  0  0  0  0  0  0  0
  132.8068   71.8063   -2.8411 C   0  0  0  0  0  0  0  0  0  0  0  0
  133.9257   72.3681   -3.3574 N   0  0  0  0  0  0  0  0  0  0  0  0
  131.0878   72.4003   -4.7317 N   0  0  0  0  0  0  0  0  0  0  0  0
  129.7633   72.1275   -4.8338 C   0  0  0  0  0  0  0  0  0  0  0  0
  129.3143   71.4392   -3.7653 N   0  0  0  0  0  0  0  0  0  0  0  0
  2  1  1  1  0  0  0
  2  3  1  0  0  0  0
  2  5  1  0  0  0  0
  3  4  1  0  0  0  0
  3 16  1  0  0  0  0
  5  6  1  0  0  0  0
  6  7  1  0  0  0  0
  7  8  1  0  0  0  0
  9  8  1  6  0  0  0
  9 10  1  0  0  0  0
  9 11  1  0  0  0  0
 10 15  1  0  0  0  0
 11 12  1  1  0  0  0
 11 13  1  0  0  0  0
 13 14  1  1  0  0  0
 13 15  1  0  0  0  0
 15 26  1  6  0  0  0
 17 18  2  0  0  0  0
 17 22  1  0  0  0  0
 18 19  1  0  0  0  0
 19 20  2  0  0  0  0
 20 21  1  0  0  0  0
 20 26  1  0  0  0  0
 21 22  2  0  0  0  0
 21 24  1  0  0  0  0
 22 23  1  0  0  0  0
 24 25  2  0  0  0  0
 25 26  1  0  0  0  0
M  END
>  <CHROM.1>
21.28994157,62.74817313,172.86320863,-157.21784416,177.37364411,174.04529751
8.03794089,130.00665871,68.68857806,-2.68700925,-1.29726429,-0.19647713,-0.27176983

>  <Name>
ligand

>  <RI>
0

>  <Rbt.Current_Directory>
/home/itssahil/PROJECTS/Mol_Feturizer/Test_systems_manuscript/rnas/3npn

>  <Rbt.Executable>
rbdock ($Id: //depot/dev/client3/rdock/2013.1/src/exe/rbdock.cxx#4 $)

>  <Rbt.Library>
libRbt.so (2013.1, Build901 2013/11/27)

>  <Rbt.Parameter_File>
/export/apps/rDock/src/rDock_2013.1_src/data/scripts/dock_solv.prm

>  <Rbt.Receptor>
prm/pocket_docking_8.prm

>  <SCORE>
-16.0347

>  <SCORE.INTER>
-15.4073

>  <SCORE.INTER.CONST>
1

>  <SCORE.INTER.POLAR>
0

>  <SCORE.INTER.ROT>
7

>  <SCORE.INTER.SOLV>
11.3363

>  <SCORE.INTER.VDW>
-22.317

>  <SCORE.INTER.norm>
-0.592588

>  <SCORE.INTRA>
-0.627359

>  <SCORE.INTRA.DIHEDRAL>
-0.59942

>  <SCORE.INTRA.DIHEDRAL.0>
4.37896

>  <SCORE.INTRA.POLAR>
0

>  <SCORE.INTRA.POLAR.0>
0

>  <SCORE.INTRA.REPUL>
0

>  <SCORE.INTRA.REPUL.0>
0

>  <SCORE.INTRA.SOLV>
-0.145398

>  <SCORE.INTRA.SOLV.lig_0>
-50.5538

>  <SCORE.INTRA.VDW>
-0.25495

>  <SCORE.INTRA.VDW.0>
-1.30673

>  <SCORE.INTRA.norm>
-0.0241292

>  <SCORE.RESTR>
0

>  <SCORE.RESTR.CAVITY>
0

>  <SCORE.RESTR.norm>
0

>  <SCORE.SYSTEM>
0

>  <SCORE.SYSTEM.CONST>
0

>  <SCORE.SYSTEM.DIHEDRAL>
0

>  <SCORE.SYSTEM.SOLV>
0

>  <SCORE.SYSTEM.norm>
0

>  <SCORE.heavy>
26

>  <SCORE.norm>
-0.616717

>  <RMSD>
8.847

$$$$
ligand
 OpenBabel02271912153D
libRbt.so/2013.1/901 2013/11/27
 26 28  0  0  0  0  0  0  0  0999 V2000
  135.1277   62.3534    1.2513 N   0  0  0  0  0  0  0  0  0  0  0  0
  135.7059   61.1400    0.6013 C   0  0  2  0  0  0  0  0  0  0  0  0
  136.0987   61.4358   -0.8177 C   0  0  0  0  0  0  0  0  0  0  0  0
  135.4125   62.1666   -1.5308 O   0  0  0  0  0  0  0  0  0  0  0  0
  134.6957   59.9961    0.6244 C   0  0  0  0  0  0  0  0  0  0  0  0
  135.2893   58.6563    0.2001 C   0  0  0  0  0  0  0  0  0  0  0  0
  134.0694   57.3901    0.3265 S   0  0  0  0  0  0  0  0  0  0  0  0
  133.4696   57.2783   -1.3284 C   0  0  0  0  0  0  0  0  0  0  0  0
  132.0271   56.7776   -1.3731 C   0  0  1  0  0  0  0  0  0  0  0  0
  131.1709   57.6330   -0.6130 O   0  0  0  0  0  0  0  0  0  0  0  0
  131.5129   56.7779   -2.8036 C   0  0  1  0  0  0  0  0  0  0  0  0
  130.9093   55.5161   -3.1047 O   0  0  0  0  0  0  0  0  0  0  0  0
  130.5003   57.9066   -2.8838 C   0  0  1  0  0  0  0  0  0  0  0  0
  129.2389   57.4435   -3.3786 O   0  0  0  0  0  0  0  0  0  0  0  0
  130.3392   58.4326   -1.4623 C   0  0  2  0  0  0  0  0  0  0  0  0
  137.1154   60.9436   -1.3048 O   0  0  0  0  0  0  0  0  0  0  0  0
  128.8651   63.4957   -1.8574 N   0  0  0  0  0  0  0  0  0  0  0  0
  128.1440   62.3723   -2.0470 C   0  0  0  0  0  0  0  0  0  0  0  0
  128.6552   61.1315   -1.9101 N   0  0  0  0  0  0  0  0  0  0  0  0
  129.9572   60.9357   -1.5677 C   0  0  0  0  0  0  0  0  0  0  0  0
  130.8074   62.1183   -1.3440 C   0  0  0  0  0  0  0  0  0  0  0  0
  130.1739   63.4509   -1.5113 C   0  0  0  0  0  0  0  0  0  0  0  0
  130.8884   64.5864   -1.3261 N   0  0  0  0  0  0  0  0  0  0  0  0
  132.0293   61.6627   -1.0191 N   0  0  0  0  0  0  0  0  0  0  0  0
  131.9717   60.3079   -1.0354 C   0  0  0  0  0  0  0  0  0  0  0  0
  130.7405   59.8671   -1.3624 N   0  0  0  0  0  0  0  0  0  0  0  0
  2  1  1  6  0  0  0
  2  3  1  0  0  0  0
  2  5  1  0  0  0  0
  3  4  1  0  0  0  0
  3 16  1  0  0  0  0
  5  6  1  0  0  0  0
  6  7  1  0  0  0  0
  7  8  1  0  0  0  0
  9  8  1  6  0  0  0
  9 10  1  0  0  0  0
  9 11  1  0  0  0  0
 10 15  1  0  0  0  0
 11 12  1  1  0  0  0
 11 13  1  0  0  0  0
 13 14  1  1  0  0  0
 13 15  1  0  0  0  0
 15 26  1  6  0  0  0
 17 18  2  0  0  0  0
 17 22  1  0  0  0  0
 18 19  1  0  0  0  0
 19 20  2  0  0  0  0
 20 21  1  0  0  0  0
 20 26  1  0  0  0  0
 21 22  2  0  0  0  0
 21 24  1  0  0  0  0
 22 23  1  0  0  0  0
 24 25  2  0  0  0  0
 25 26  1  0  0  0  0
M  END
>  <CHROM.1>
-38.12223856,-170.01818812,177.53376955,96.97066640,-152.86555970,57.73026376
-152.96985910,132.25470653,59.87421587,-1.18767634,0.06728167,-0.32670203
0.10526960

>  <Name>
ligand

>  <RI>
0

>  <Rbt.Current_Directory>
/home/itssahil/PROJECTS/Mol_Feturizer/Test_systems_manuscript/rnas/3npn

>  <Rbt.Executable>
rbdock ($Id: //depot/dev/client3/rdock/2013.1/src/exe/rbdock.cxx#4 $)

>  <Rbt.Library>
libRbt.so (2013.1, Build901 2013/11/27)

>  <Rbt.Parameter_File>
/export/apps/rDock/src/rDock_2013.1_src/data/scripts/dock_solv.prm

>  <Rbt.Receptor>
prm/pocket_docking_8.prm

>  <SCORE>
-21.9935

>  <SCORE.INTER>
-20.0811

>  <SCORE.INTER.CONST>
1

>  <SCORE.INTER.POLAR>
0

>  <SCORE.INTER.ROT>
7

>  <SCORE.INTER.SOLV>
11.046

>  <SCORE.INTER.VDW>
-25.3361

>  <SCORE.INTER.norm>
-0.772351

>  <SCORE.INTRA>
-1.91237

>  <SCORE.INTRA.DIHEDRAL>
1.34483

>  <SCORE.INTRA.DIHEDRAL.0>
4.37896

>  <SCORE.INTRA.POLAR>
0

>  <SCORE.INTRA.POLAR.0>
0

>  <SCORE.INTRA.REPUL>
0

>  <SCORE.INTRA.REPUL.0>
0

>  <SCORE.INTRA.SOLV>
-0.840398

>  <SCORE.INTRA.SOLV.lig_0>
-50.5538

>  <SCORE.INTRA.VDW>
-2.16459

>  <SCORE.INTRA.VDW.0>
-1.30673

>  <SCORE.INTRA.norm>
-0.0735528

>  <SCORE.RESTR>
0

>  <SCORE.RESTR.CAVITY>
0

>  <SCORE.RESTR.norm>
0

>  <SCORE.SYSTEM>
0

>  <SCORE.SYSTEM.CONST>
0

>  <SCORE.SYSTEM.DIHEDRAL>
0

>  <SCORE.SYSTEM.SOLV>
0

>  <SCORE.SYSTEM.norm>
0

>  <SCORE.heavy>
26

>  <SCORE.norm>
-0.845903

>  <RMSD>
8.857

$$$$
ligand
 OpenBabel02271912153D
libRbt.so/2013.1/901 2013/11/27
 26 28  0  0  0  0  0  0  0  0999 V2000
  135.4933   62.6536    0.5945 N   0  0  0  0  0  0  0  0  0  0  0  0
  136.2892   61.4827    1.0687 C   0  0  2  0  0  0  0  0  0  0  0  0
  137.4727   61.2496    0.1740 C   0  0  0  0  0  0  0  0  0  0  0  0
  138.4597   60.6306    0.5695 O   0  0  0  0  0  0  0  0  0  0  0  0
  135.4179   60.2298    1.1008 C   0  0  0  0  0  0  0  0  0  0  0  0
  134.8915   59.8239   -0.2723 C   0  0  0  0  0  0  0  0  0  0  0  0
  133.9301   58.3525   -0.1377 S   0  0  0  0  0  0  0  0  0  0  0  0
  133.0579   58.3309   -1.6707 C   0  0  0  0  0  0  0  0  0  0  0  0
  131.8311   57.4226   -1.6090 C   0  0  1  0  0  0  0  0  0  0  0  0
  130.7788   58.0434   -0.8675 O   0  0  0  0  0  0  0  0  0  0  0  0
  131.3019   57.1556   -3.0088 C   0  0  1  0  0  0  0  0  0  0  0  0
  131.0964   55.7516   -3.1924 O   0  0  0  0  0  0  0  0  0  0  0  0
  129.9957   57.9226   -3.1155 C   0  0  1  0  0  0  0  0  0  0  0  0
  128.9183   57.0677   -3.5139 O   0  0  0  0  0  0  0  0  0  0  0  0
  129.7230   58.4892   -1.7271 C   0  0  2  0  0  0  0  0  0  0  0  0
  137.4864   61.6832   -0.9771 O   0  0  0  0  0  0  0  0  0  0  0  0
  132.1282   63.0219   -0.4489 N   0  0  0  0  0  0  0  0  0  0  0  0
  132.5226   61.7498   -0.2393 C   0  0  0  0  0  0  0  0  0  0  0  0
  131.8005   60.6771   -0.6235 N   0  0  0  0  0  0  0  0  0  0  0  0
  130.6046   60.8182   -1.2566 C   0  0  0  0  0  0  0  0  0  0  0  0
  130.1088   62.1805   -1.5202 C   0  0  0  0  0  0  0  0  0  0  0  0
  130.9596   63.3112   -1.0698 C   0  0  0  0  0  0  0  0  0  0  0  0
  130.5731   64.5933   -1.2725 N   0  0  0  0  0  0  0  0  0  0  0  0
  128.9283   62.0497   -2.1489 N   0  0  0  0  0  0  0  0  0  0  0  0
  128.6843   60.7217   -2.2758 C   0  0  0  0  0  0  0  0  0  0  0  0
  129.6782   59.9813   -1.7456 N   0  0  0  0  0  0  0  0  0  0  0  0
  2  1  1  6  0  0  0
  2  3  1  0  0  0  0
  2  5  1  0  0  0  0
  3  4  1  0  0  0  0
  3 16  1  0  0  0  0
  5  6  1  0  0  0  0
  6  7  1  0  0  0  0
  7  8  1  0  0  0  0
  9  8  1  6  0  0  0
  9 10  1  0  0  0  0
  9 11  1  0  0  0  0
 10 15  1  0  0  0  0
 11 12  1  1  0  0  0
 11 13  1  0  0  0  0
 13 14  1  1  0  0  0
 13 15  1  0  0  0  0
 15 26  1  6  0  0  0
 17 18  2  0  0  0  0
 17 22  1  0  0  0  0
 18 19  1  0  0  0  0
 19 20  2  0  0  0  0
 20 21  1  0  0  0  0
 20 26  1  0  0  0  0
 21 22  2  0  0  0  0
 21 24  1  0  0  0  0
 22 23  1  0  0  0  0
 24 25  2  0  0  0  0
 25 26  1  0  0  0  0
M  END
>  <CHROM.1>
157.92193396,62.46038140,178.74383956,164.13275859,-161.01215378,75.14179566
11.63331390,132.51814579,60.05221686,-1.08319462,0.40293105,-0.30998839,0.21104395

>  <Name>
ligand

>  <RI>
0

>  <Rbt.Current_Directory>
/home/itssahil/PROJECTS/Mol_Feturizer/Test_systems_manuscript/rnas/3npn

>  <Rbt.Executable>
rbdock ($Id: //depot/dev/client3/rdock/2013.1/src/exe/rbdock.cxx#4 $)

>  <Rbt.Library>
libRbt.so (2013.1, Build901 2013/11/27)

>  <Rbt.Parameter_File>
/export/apps/rDock/src/rDock_2013.1_src/data/scripts/dock_solv.prm

>  <Rbt.Receptor>
prm/pocket_docking_8.prm

>  <SCORE>
-18.6501

>  <SCORE.INTER>
-17.2161

>  <SCORE.INTER.CONST>
1

>  <SCORE.INTER.POLAR>
0

>  <SCORE.INTER.ROT>
7

>  <SCORE.INTER.SOLV>
11.6531

>  <SCORE.INTER.VDW>
-23.6285

>  <SCORE.INTER.norm>
-0.662159

>  <SCORE.INTRA>
-1.43394

>  <SCORE.INTRA.DIHEDRAL>
0.0436808

>  <SCORE.INTRA.DIHEDRAL.0>
4.37896

>  <SCORE.INTRA.POLAR>
0

>  <SCORE.INTRA.POLAR.0>
0

>  <SCORE.INTRA.REPUL>
0

>  <SCORE.INTRA.REPUL.0>
0

>  <SCORE.INTRA.SOLV>
0.549823

>  <SCORE.INTRA.SOLV.lig_0>
-50.5538

>  <SCORE.INTRA.VDW>
-1.73069

>  <SCORE.INTRA.VDW.0>
-1.30673

>  <SCORE.INTRA.norm>
-0.0551514

>  <SCORE.RESTR>
0

>  <SCORE.RESTR.CAVITY>
0

>  <SCORE.RESTR.norm>
0

>  <SCORE.SYSTEM>
0

>  <SCORE.SYSTEM.CONST>
0

>  <SCORE.SYSTEM.DIHEDRAL>
0

>  <SCORE.SYSTEM.SOLV>
0

>  <SCORE.SYSTEM.norm>
0

>  <SCORE.heavy>
26

>  <SCORE.norm>
-0.71731

>  <RMSD>
8.862

$$$$
ligand
 OpenBabel02271912153D
libRbt.so/2013.1/901 2013/11/27
 26 28  0  0  0  0  0  0  0  0999 V2000
  132.8951   60.9891   -2.2441 N   0  0  0  0  0  0  0  0  0  0  0  0
  131.8863   60.7785   -1.1637 C   0  0  2  0  0  0  0  0  0  0  0  0
  130.9415   59.6702   -1.5302 C   0  0  0  0  0  0  0  0  0  0  0  0
  131.0851   58.5342   -1.0803 O   0  0  0  0  0  0  0  0  0  0  0  0
  131.0981   62.0625   -0.9193 C   0  0  0  0  0  0  0  0  0  0  0  0
  131.9789   63.2509   -0.5459 C   0  0  0  0  0  0  0  0  0  0  0  0
  132.3028   64.2325   -1.9738 S   0  0  0  0  0  0  0  0  0  0  0  0
  131.5837   65.7826   -1.5364 C   0  0  0  0  0  0  0  0  0  0  0  0
  130.1850   65.6094   -0.9471 C   0  0  1  0  0  0  0  0  0  0  0  0
  129.6425   66.8713   -0.5523 O   0  0  0  0  0  0  0  0  0  0  0  0
  129.2451   65.0175   -1.9850 C   0  0  1  0  0  0  0  0  0  0  0  0
  128.5350   63.9094   -1.4237 O   0  0  0  0  0  0  0  0  0  0  0  0
  128.2979   66.1372   -2.3784 C   0  0  1  0  0  0  0  0  0  0  0  0
  126.9299   65.7441   -2.2222 O   0  0  0  0  0  0  0  0  0  0  0  0
  128.6125   67.3038   -1.4492 C   0  0  2  0  0  0  0  0  0  0  0  0
  130.0037   59.8716   -2.3004 O   0  0  0  0  0  0  0  0  0  0  0  0
  127.2735   71.7920   -3.9043 N   0  0  0  0  0  0  0  0  0  0  0  0
  126.4935   70.8885   -3.2773 C   0  0  0  0  0  0  0  0  0  0  0  0
  126.9759   69.7756   -2.6870 N   0  0  0  0  0  0  0  0  0  0  0  0
  128.3062   69.4913   -2.6917 C   0  0  0  0  0  0  0  0  0  0  0  0
  129.2210   70.4344   -3.3588 C   0  0  0  0  0  0  0  0  0  0  0  0
  128.6170   71.6380   -3.9844 C   0  0  0  0  0  0  0  0  0  0  0  0
  129.3897   72.5513   -4.6191 N   0  0  0  0  0  0  0  0  0  0  0  0
  130.4613   69.9351   -3.2224 N   0  0  0  0  0  0  0  0  0  0  0  0
  130.3541   68.7728   -2.5320 C   0  0  0  0  0  0  0  0  0  0  0  0
  129.0730   68.5010   -2.2129 N   0  0  0  0  0  0  0  0  0  0  0  0
  2  1  1  6  0  0  0
  2  3  1  0  0  0  0
  2  5  1  0  0  0  0
  3  4  1  0  0  0  0
  3 16  1  0  0  0  0
  5  6  1  0  0  0  0
  6  7  1  0  0  0  0
  7  8  1  0  0  0  0
  9  8  1  6  0  0  0
  9 10  1  0  0  0  0
  9 11  1  0  0  0  0
 10 15  1  0  0  0  0
 11 12  1  1  0  0  0
 11 13  1  0  0  0  0
 13 14  1  1  0  0  0
 13 15  1  0  0  0  0
 15 26  1  6  0  0  0
 17 18  2  0  0  0  0
 17 22  1  0  0  0  0
 18 19  1  0  0  0  0
 19 20  2  0  0  0  0
 20 21  1  0  0  0  0
 20 26  1  0  0  0  0
 21 22  2  0  0  0  0
 21 24  1  0  0  0  0
 22 23  1  0  0  0  0
 24 25  2  0  0  0  0
 25 26  1  0  0  0  0
M  END
>  <CHROM.1>
99.57751406,-57.71440409,97.21587918,118.41649818,-46.69084734,177.75070108
-150.22989221,129.80637272,65.90124708,-2.13957403,-1.27820395,0.00137506
-0.19088888

>  <Name>
ligand

>  <RI>
0

>  <Rbt.Current_Directory>
/home/itssahil/PROJECTS/Mol_Feturizer/Test_systems_manuscript/rnas/3npn

>  <Rbt.Executable>
rbdock ($Id: //depot/dev/client3/rdock/2013.1/src/exe/rbdock.cxx#4 $)

>  <Rbt.Library>
libRbt.so (2013.1, Build901 2013/11/27)

>  <Rbt.Parameter_File>
/export/apps/rDock/src/rDock_2013.1_src/data/scripts/dock_solv.prm

>  <Rbt.Receptor>
prm/pocket_docking_3.prm

>  <SCORE>
-12.825

>  <SCORE.INTER>
-15.1161

>  <SCORE.INTER.CONST>
1

>  <SCORE.INTER.POLAR>
0

>  <SCORE.INTER.ROT>
7

>  <SCORE.INTER.SOLV>
20.9953

>  <SCORE.INTER.VDW>
-25.3425

>  <SCORE.INTER.norm>
-0.581389

>  <SCORE.INTRA>
2.2911

>  <SCORE.INTRA.DIHEDRAL>
4.76448

>  <SCORE.INTRA.DIHEDRAL.0>
4.37896

>  <SCORE.INTRA.POLAR>
0

>  <SCORE.INTRA.POLAR.0>
0

>  <SCORE.INTRA.REPUL>
0

>  <SCORE.INTRA.REPUL.0>
0

>  <SCORE.INTRA.SOLV>
1.23896

>  <SCORE.INTRA.SOLV.lig_0>
-50.5538

>  <SCORE.INTRA.VDW>
-0.710619

>  <SCORE.INTRA.VDW.0>
-1.30673

>  <SCORE.INTRA.norm>
0.0881192

>  <SCORE.RESTR>
0

>  <SCORE.RESTR.CAVITY>
0

>  <SCORE.RESTR.norm>
0

>  <SCORE.SYSTEM>
0

>  <SCORE.SYSTEM.CONST>
0

>  <SCORE.SYSTEM.DIHEDRAL>
0

>  <SCORE.SYSTEM.SOLV>
0

>  <SCORE.SYSTEM.norm>
0

>  <SCORE.heavy>
26

>  <SCORE.norm>
-0.49327

>  <RMSD>
8.863

$$$$
ligand
 OpenBabel02271912153D
libRbt.so/2013.1/901 2013/11/27
 26 28  0  0  0  0  0  0  0  0999 V2000
  132.3604   69.9954    3.1284 N   0  0  0  0  0  0  0  0  0  0  0  0
  131.2406   70.2888    2.1853 C   0  0  2  0  0  0  0  0  0  0  0  0
  130.1593   69.2540    2.3091 C   0  0  0  0  0  0  0  0  0  0  0  0
  130.3325   68.1000    1.9194 O   0  0  0  0  0  0  0  0  0  0  0  0
  131.7548   70.3218    0.7486 C   0  0  0  0  0  0  0  0  0  0  0  0
  132.7330   71.4619    0.4824 C   0  0  0  0  0  0  0  0  0  0  0  0
  133.4690   71.2650   -1.1072 S   0  0  0  0  0  0  0  0  0  0  0  0
  132.9871   72.7480   -1.9317 C   0  0  0  0  0  0  0  0  0  0  0  0
  133.1223   72.6199   -3.4479 C   0  0  1  0  0  0  0  0  0  0  0  0
  132.5352   71.4004   -3.9069 O   0  0  0  0  0  0  0  0  0  0  0  0
  132.3950   73.7611   -4.1403 C   0  0  1  0  0  0  0  0  0  0  0  0
  133.2513   74.3647   -5.1148 O   0  0  0  0  0  0  0  0  0  0  0  0
  131.1698   73.1430   -4.7904 C   0  0  1  0  0  0  0  0  0  0  0  0
  131.1109   73.4454   -6.1887 O   0  0  0  0  0  0  0  0  0  0  0  0
  131.2981   71.6375   -4.5895 C   0  0  2  0  0  0  0  0  0  0  0  0
  129.0667   69.5407    2.7962 O   0  0  0  0  0  0  0  0  0  0  0  0
  126.2693   70.0026   -4.5476 N   0  0  0  0  0  0  0  0  0  0  0  0
  127.0128   70.4722   -5.5695 C   0  0  0  0  0  0  0  0  0  0  0  0
  128.2987   70.8572   -5.4349 N   0  0  0  0  0  0  0  0  0  0  0  0
  128.9344   70.7956   -4.2338 C   0  0  0  0  0  0  0  0  0  0  0  0
  128.1840   70.2919   -3.0699 C   0  0  0  0  0  0  0  0  0  0  0  0
  126.7739   69.8852   -3.2960 C   0  0  0  0  0  0  0  0  0  0  0  0
  126.0162   69.4144   -2.2769 N   0  0  0  0  0  0  0  0  0  0  0  0
  129.0238   70.3269   -2.0212 N   0  0  0  0  0  0  0  0  0  0  0  0
  130.2080   70.8128   -2.4693 C   0  0  0  0  0  0  0  0  0  0  0  0
  130.1624   71.0953   -3.7866 N   0  0  0  0  0  0  0  0  0  0  0  0
  2  1  1  1  0  0  0
  2  3  1  0  0  0  0
  2  5  1  0  0  0  0
  3  4  1  0  0  0  0
  3 16  1  0  0  0  0
  5  6  1  0  0  0  0
  6  7  1  0  0  0  0
  7  8  1  0  0  0  0
  9  8  1  1  0  0  0
  9 10  1  0  0  0  0
  9 11  1  0  0  0  0
 10 15  1  0  0  0  0
 11 12  1  6  0  0  0
 11 13  1  0  0  0  0
 13 14  1  6  0  0  0
 13 15  1  0  0  0  0
 15 26  1  1  0  0  0
 17 18  2  0  0  0  0
 17 22  1  0  0  0  0
 18 19  1  0  0  0  0
 19 20  2  0  0  0  0
 20 21  1  0  0  0  0
 20 26  1  0  0  0  0
 21 22  2  0  0  0  0
 21 24  1  0  0  0  0
 22 23  1  0  0  0  0
 24 25  2  0  0  0  0
 25 26  1  0  0  0  0
M  END
>  <CHROM.1>
-70.06607786,-65.21701281,170.76848123,120.19073269,-161.80767853,47.62698675
-160.25225478,130.59112528,71.07812277,-2.16089613,-1.43418597,-0.42208757
-1.18816394

>  <Name>
ligand

>  <RI>
0

>  <Rbt.Current_Directory>
/home/itssahil/PROJECTS/Mol_Feturizer/Test_systems_manuscript/rnas/3npn

>  <Rbt.Executable>
rbdock ($Id: //depot/dev/client3/rdock/2013.1/src/exe/rbdock.cxx#4 $)

>  <Rbt.Library>
libRbt.so (2013.1, Build901 2013/11/27)

>  <Rbt.Parameter_File>
/export/apps/rDock/src/rDock_2013.1_src/data/scripts/dock_solv.prm

>  <Rbt.Receptor>
prm/pocket_docking_8.prm

>  <SCORE>
-11.9676

>  <SCORE.INTER>
-11.3913

>  <SCORE.INTER.CONST>
1

>  <SCORE.INTER.POLAR>
0

>  <SCORE.INTER.ROT>
7

>  <SCORE.INTER.SOLV>
16.1556

>  <SCORE.INTER.VDW>
-21.2461

>  <SCORE.INTER.norm>
-0.438126

>  <SCORE.INTRA>
-0.601452

>  <SCORE.INTRA.DIHEDRAL>
2.16418

>  <SCORE.INTRA.DIHEDRAL.0>
4.37896

>  <SCORE.INTRA.POLAR>
0

>  <SCORE.INTRA.POLAR.0>
0

>  <SCORE.INTRA.REPUL>
0

>  <SCORE.INTRA.REPUL.0>
0

>  <SCORE.INTRA.SOLV>
-0.202668

>  <SCORE.INTRA.SOLV.lig_0>
-50.5538

>  <SCORE.INTRA.VDW>
-1.58221

>  <SCORE.INTRA.VDW.0>
-1.30673

>  <SCORE.INTRA.norm>
-0.0231328

>  <SCORE.RESTR>
0.0250789

>  <SCORE.RESTR.CAVITY>
0.0250789

>  <SCORE.RESTR.norm>
0.000964574

>  <SCORE.SYSTEM>
0

>  <SCORE.SYSTEM.CONST>
0

>  <SCORE.SYSTEM.DIHEDRAL>
0

>  <SCORE.SYSTEM.SOLV>
0

>  <SCORE.SYSTEM.norm>
0

>  <SCORE.heavy>
26

>  <SCORE.norm>
-0.460294

>  <RMSD>
8.865

$$$$
ligand
 OpenBabel02271912153D
libRbt.so/2013.1/901 2013/11/27
 26 28  0  0  0  0  0  0  0  0999 V2000
  136.2195   60.7473    3.3491 N   0  0  0  0  0  0  0  0  0  0  0  0
  136.1347   60.6996    1.8592 C   0  0  2  0  0  0  0  0  0  0  0  0
  135.2010   61.7588    1.3478 C   0  0  0  0  0  0  0  0  0  0  0  0
  135.4041   62.3245    0.2743 O   0  0  0  0  0  0  0  0  0  0  0  0
  135.6504   59.3265    1.4013 C   0  0  0  0  0  0  0  0  0  0  0  0
  135.8421   59.0849   -0.0928 C   0  0  0  0  0  0  0  0  0  0  0  0
  134.9075   57.6791   -0.6003 S   0  0  0  0  0  0  0  0  0  0  0  0
  133.2510   58.2801   -0.5228 C   0  0  0  0  0  0  0  0  0  0  0  0
  132.2361   57.1757   -0.8125 C   0  0  1  0  0  0  0  0  0  0  0  0
  130.9115   57.6107   -0.4981 O   0  0  0  0  0  0  0  0  0  0  0  0
  132.2556   56.8158   -2.2893 C   0  0  1  0  0  0  0  0  0  0  0  0
  132.3504   55.3965   -2.4436 O   0  0  0  0  0  0  0  0  0  0  0  0
  130.9558   57.3476   -2.8666 C   0  0  1  0  0  0  0  0  0  0  0  0
  130.2250   56.3193   -3.5440 O   0  0  0  0  0  0  0  0  0  0  0  0
  130.1474   57.8656   -1.6828 C   0  0  2  0  0  0  0  0  0  0  0  0
  134.2123   62.0937    1.9986 O   0  0  0  0  0  0  0  0  0  0  0  0
  131.7571   62.7910   -0.6277 N   0  0  0  0  0  0  0  0  0  0  0  0
  132.3320   61.6123   -0.3147 C   0  0  0  0  0  0  0  0  0  0  0  0
  131.8043   60.4175   -0.6520 N   0  0  0  0  0  0  0  0  0  0  0  0
  130.6343   60.3290   -1.3405 C   0  0  0  0  0  0  0  0  0  0  0  0
  129.9481   61.5772   -1.7175 C   0  0  0  0  0  0  0  0  0  0  0  0
  130.5905   62.8535   -1.3133 C   0  0  0  0  0  0  0  0  0  0  0  0
  130.0214   64.0437   -1.6196 N   0  0  0  0  0  0  0  0  0  0  0  0
  128.8349   61.2234   -2.3822 N   0  0  0  0  0  0  0  0  0  0  0  0
  128.8055   59.8682   -2.4262 C   0  0  0  0  0  0  0  0  0  0  0  0
  129.8739   59.3279   -1.8067 N   0  0  0  0  0  0  0  0  0  0  0  0
  2  1  1  1  0  0  0
  2  3  1  0  0  0  0
  2  5  1  0  0  0  0
  3  4  1  0  0  0  0
  3 16  1  0  0  0  0
  5  6  1  0  0  0  0
  6  7  1  0  0  0  0
  7  8  1  0  0  0  0
  9  8  1  6  0  0  0
  9 10  1  0  0  0  0
  9 11  1  0  0  0  0
 10 15  1  0  0  0  0
 11 12  1  1  0  0  0
 11 13  1  0  0  0  0
 13 14  1  1  0  0  0
 13 15  1  0  0  0  0
 15 26  1  6  0  0  0
 17 18  2  0  0  0  0
 17 22  1  0  0  0  0
 18 19  1  0  0  0  0
 19 20  2  0  0  0  0
 20 21  1  0  0  0  0
 20 26  1  0  0  0  0
 21 22  2  0  0  0  0
 21 24  1  0  0  0  0
 22 23  1  0  0  0  0
 24 25  2  0  0  0  0
 25 26  1  0  0  0  0
M  END
>  <CHROM.1>
146.06177934,-166.62673823,-165.84110979,71.71754133,-175.07785634,168.95509272
28.61996280,132.49355245,59.63635549,-0.72640103,-0.51547441,0.50985691,-2.85376273

>  <Name>
ligand

>  <RI>
0

>  <Rbt.Current_Directory>
/home/itssahil/PROJECTS/Mol_Feturizer/Test_systems_manuscript/rnas/3npn

>  <Rbt.Executable>
rbdock ($Id: //depot/dev/client3/rdock/2013.1/src/exe/rbdock.cxx#4 $)

>  <Rbt.Library>
libRbt.so (2013.1, Build901 2013/11/27)

>  <Rbt.Parameter_File>
/export/apps/rDock/src/rDock_2013.1_src/data/scripts/dock_solv.prm

>  <Rbt.Receptor>
prm/pocket_docking_7.prm

>  <SCORE>
-18.6955

>  <SCORE.INTER>
-18.1089

>  <SCORE.INTER.CONST>
1

>  <SCORE.INTER.POLAR>
0

>  <SCORE.INTER.ROT>
7

>  <SCORE.INTER.SOLV>
12.3894

>  <SCORE.INTER.VDW>
-24.4691

>  <SCORE.INTER.norm>
-0.696495

>  <SCORE.INTRA>
-0.586634

>  <SCORE.INTRA.DIHEDRAL>
0.365436

>  <SCORE.INTRA.DIHEDRAL.0>
4.37896

>  <SCORE.INTRA.POLAR>
0

>  <SCORE.INTRA.POLAR.0>
0

>  <SCORE.INTRA.REPUL>
0

>  <SCORE.INTRA.REPUL.0>
0

>  <SCORE.INTRA.SOLV>
-0.818782

>  <SCORE.INTRA.SOLV.lig_0>
-50.5538

>  <SCORE.INTRA.VDW>
-0.359961

>  <SCORE.INTRA.VDW.0>
-1.30673

>  <SCORE.INTRA.norm>
-0.0225628

>  <SCORE.RESTR>
0

>  <SCORE.RESTR.CAVITY>
0

>  <SCORE.RESTR.norm>
0

>  <SCORE.SYSTEM>
0

>  <SCORE.SYSTEM.CONST>
0

>  <SCORE.SYSTEM.DIHEDRAL>
0

>  <SCORE.SYSTEM.SOLV>
0

>  <SCORE.SYSTEM.norm>
0

>  <SCORE.heavy>
26

>  <SCORE.norm>
-0.719058

>  <RMSD>
8.887

$$$$
ligand
 OpenBabel02271912153D
libRbt.so/2013.1/901 2013/11/27
 26 28  0  0  0  0  0  0  0  0999 V2000
  136.3253   60.2544    2.0123 N   0  0  0  0  0  0  0  0  0  0  0  0
  135.5754   60.4863    0.7421 C   0  0  2  0  0  0  0  0  0  0  0  0
  134.9143   61.8346    0.7560 C   0  0  0  0  0  0  0  0  0  0  0  0
  134.8810   62.5395   -0.2517 O   0  0  0  0  0  0  0  0  0  0  0  0
  134.5200   59.4012    0.5462 C   0  0  0  0  0  0  0  0  0  0  0  0
  135.1114   58.0041    0.3858 C   0  0  0  0  0  0  0  0  0  0  0  0
  133.8179   56.8164    0.2329 S   0  0  0  0  0  0  0  0  0  0  0  0
  133.1721   57.1671   -1.3706 C   0  0  0  0  0  0  0  0  0  0  0  0
  131.7077   56.7496   -1.4928 C   0  0  1  0  0  0  0  0  0  0  0  0
  130.8719   57.5994   -0.7042 O   0  0  0  0  0  0  0  0  0  0  0  0
  131.2436   56.8705   -2.9353 C   0  0  1  0  0  0  0  0  0  0  0  0
  130.5855   55.6655   -3.3379 O   0  0  0  0  0  0  0  0  0  0  0  0
  130.2947   58.0554   -2.9715 C   0  0  1  0  0  0  0  0  0  0  0  0
  129.0286   57.6946   -3.5344 O   0  0  0  0  0  0  0  0  0  0  0  0
  130.1128   58.4964   -1.5238 C   0  0  2  0  0  0  0  0  0  0  0  0
  134.3972   62.2713    1.7832 O   0  0  0  0  0  0  0  0  0  0  0  0
  128.9356   63.6495   -1.6788 N   0  0  0  0  0  0  0  0  0  0  0  0
  128.1660   62.5819   -1.9720 C   0  0  0  0  0  0  0  0  0  0  0  0
  128.6020   61.3082   -1.8866 N   0  0  0  0  0  0  0  0  0  0  0  0
  129.8719   61.0190   -1.4939 C   0  0  0  0  0  0  0  0  0  0  0  0
  130.7716   62.1362   -1.1568 C   0  0  0  0  0  0  0  0  0  0  0  0
  130.2203   63.5101   -1.2727 C   0  0  0  0  0  0  0  0  0  0  0  0
  130.9842   64.5904   -0.9834 N   0  0  0  0  0  0  0  0  0  0  0  0
  131.9487   61.5938   -0.8012 N   0  0  0  0  0  0  0  0  0  0  0  0
  131.8192   60.2476   -0.9035 C   0  0  0  0  0  0  0  0  0  0  0  0
  130.5849   59.8974   -1.3166 N   0  0  0  0  0  0  0  0  0  0  0  0
  2  1  1  1  0  0  0
  2  3  1  0  0  0  0
  2  5  1  0  0  0  0
  3  4  1  0  0  0  0
  3 16  1  0  0  0  0
  5  6  1  0  0  0  0
  6  7  1  0  0  0  0
  7  8  1  0  0  0  0
  9  8  1  6  0  0  0
  9 10  1  0  0  0  0
  9 11  1  0  0  0  0
 10 15  1  0  0  0  0
 11 12  1  1  0  0  0
 11 13  1  0  0  0  0
 13 14  1  1  0  0  0
 13 15  1  0  0  0  0
 15 26  1  6  0  0  0
 17 18  2  0  0  0  0
 17 22  1  0  0  0  0
 18 19  1  0  0  0  0
 19 20  2  0  0  0  0
 20 21  1  0  0  0  0
 20 26  1  0  0  0  0
 21 22  2  0  0  0  0
 21 24  1  0  0  0  0
 22 23  1  0  0  0  0
 24 25  2  0  0  0  0
 25 26  1  0  0  0  0
M  END
>  <CHROM.1>
140.40285633,-63.47619463,177.67002159,70.83943452,-153.95362436,69.80741292
-154.05305899,131.99055697,59.80491202,-0.90501665,0.09450548,-0.50755748
0.19916568

>  <Name>
ligand

>  <RI>
0

>  <Rbt.Current_Directory>
/home/itssahil/PROJECTS/Mol_Feturizer/Test_systems_manuscript/rnas/3npn

>  <Rbt.Executable>
rbdock ($Id: //depot/dev/client3/rdock/2013.1/src/exe/rbdock.cxx#4 $)

>  <Rbt.Library>
libRbt.so (2013.1, Build901 2013/11/27)

>  <Rbt.Parameter_File>
/export/apps/rDock/src/rDock_2013.1_src/data/scripts/dock_solv.prm

>  <Rbt.Receptor>
prm/pocket_docking_7.prm

>  <SCORE>
-23.6051

>  <SCORE.INTER>
-21.3157

>  <SCORE.INTER.CONST>
1

>  <SCORE.INTER.POLAR>
0

>  <SCORE.INTER.ROT>
7

>  <SCORE.INTER.SOLV>
12.1208

>  <SCORE.INTER.VDW>
-26.5174

>  <SCORE.INTER.norm>
-0.819834

>  <SCORE.INTRA>
-2.28938

>  <SCORE.INTRA.DIHEDRAL>
-0.131433

>  <SCORE.INTRA.DIHEDRAL.0>
4.37896

>  <SCORE.INTRA.POLAR>
0

>  <SCORE.INTRA.POLAR.0>
0

>  <SCORE.INTRA.REPUL>
0

>  <SCORE.INTRA.REPUL.0>
0

>  <SCORE.INTRA.SOLV>
-0.25468

>  <SCORE.INTRA.SOLV.lig_0>
-50.5538

>  <SCORE.INTRA.VDW>
-2.09633

>  <SCORE.INTRA.VDW.0>
-1.30673

>  <SCORE.INTRA.norm>
-0.0880532

>  <SCORE.RESTR>
0

>  <SCORE.RESTR.CAVITY>
0

>  <SCORE.RESTR.norm>
0

>  <SCORE.SYSTEM>
0

>  <SCORE.SYSTEM.CONST>
0

>  <SCORE.SYSTEM.DIHEDRAL>
0

>  <SCORE.SYSTEM.SOLV>
0

>  <SCORE.SYSTEM.norm>
0

>  <SCORE.heavy>
26

>  <SCORE.norm>
-0.907888

>  <RMSD>
8.923

$$$$
ligand
 OpenBabel02271912153D
libRbt.so/2013.1/901 2013/11/27
 26 28  0  0  0  0  0  0  0  0999 V2000
  136.5460   62.5916    1.2956 N   0  0  0  0  0  0  0  0  0  0  0  0
  135.5352   62.0229    2.2358 C   0  0  2  0  0  0  0  0  0  0  0  0
  135.9829   62.1906    3.6594 C   0  0  0  0  0  0  0  0  0  0  0  0
  135.2154   62.6102    4.5247 O   0  0  0  0  0  0  0  0  0  0  0  0
  135.3133   60.5420    1.9405 C   0  0  0  0  0  0  0  0  0  0  0  0
  134.7613   60.2801    0.5426 C   0  0  0  0  0  0  0  0  0  0  0  0
  134.4368   58.5599    0.3358 S   0  0  0  0  0  0  0  0  0  0  0  0
  133.5476   58.5246   -1.1871 C   0  0  0  0  0  0  0  0  0  0  0  0
  132.5622   57.3584   -1.2382 C   0  0  1  0  0  0  0  0  0  0  0  0
  131.3004   57.7377   -0.6846 O   0  0  0  0  0  0  0  0  0  0  0  0
  132.3167   56.9383   -2.6783 C   0  0  1  0  0  0  0  0  0  0  0  0
  132.4627   55.5205   -2.8039 O   0  0  0  0  0  0  0  0  0  0  0  0
  130.9009   57.3780   -3.0067 C   0  0  1  0  0  0  0  0  0  0  0  0
  130.1142   56.2860   -3.4958 O   0  0  0  0  0  0  0  0  0  0  0  0
  130.3079   57.9030   -1.7045 C   0  0  2  0  0  0  0  0  0  0  0  0
  137.1358   61.9203    3.9925 O   0  0  0  0  0  0  0  0  0  0  0  0
  131.5593   62.9231   -0.6102 N   0  0  0  0  0  0  0  0  0  0  0  0
  132.2168   61.7863   -0.3049 C   0  0  0  0  0  0  0  0  0  0  0  0
  131.7764   60.5593   -0.6519 N   0  0  0  0  0  0  0  0  0  0  0  0
  130.6166   60.3923   -1.3431 C   0  0  0  0  0  0  0  0  0  0  0  0
  129.8432   61.5910   -1.7121 C   0  0  0  0  0  0  0  0  0  0  0  0
  130.3920   62.9070   -1.2973 C   0  0  0  0  0  0  0  0  0  0  0  0
  129.7395   64.0556   -1.5958 N   0  0  0  0  0  0  0  0  0  0  0  0
  128.7590   61.1633   -2.3813 N   0  0  0  0  0  0  0  0  0  0  0  0
  128.8269   59.8099   -2.4354 C   0  0  0  0  0  0  0  0  0  0  0  0
  129.9305   59.3429   -1.8180 N   0  0  0  0  0  0  0  0  0  0  0  0
  2  1  1  6  0  0  0
  2  3  1  0  0  0  0
  2  5  1  0  0  0  0
  3  4  1  0  0  0  0
  3 16  1  0  0  0  0
  5  6  1  0  0  0  0
  6  7  1  0  0  0  0
  7  8  1  0  0  0  0
  9  8  1  6  0  0  0
  9 10  1  0  0  0  0
  9 11  1  0  0  0  0
 10 15  1  0  0  0  0
 11 12  1  1  0  0  0
 11 13  1  0  0  0  0
 13 14  1  1  0  0  0
 13 15  1  0  0  0  0
 15 26  1  6  0  0  0
 17 18  2  0  0  0  0
 17 22  1  0  0  0  0
 18 19  1  0  0  0  0
 19 20  2  0  0  0  0
 20 21  1  0  0  0  0
 20 26  1  0  0  0  0
 21 22  2  0  0  0  0
 21 24  1  0  0  0  0
 22 23  1  0  0  0  0
 24 25  2  0  0  0  0
 25 26  1  0  0  0  0
M  END
>  <CHROM.1>
133.66913664,-62.03781195,-176.17198229,169.93218962,-150.32225312,88.32695304
16.99377450,132.54520929,59.98323163,-0.40412255,0.68687512,-0.58960511,0.37584179

>  <Name>
ligand

>  <RI>
0

>  <Rbt.Current_Directory>
/home/itssahil/PROJECTS/Mol_Feturizer/Test_systems_manuscript/rnas/3npn

>  <Rbt.Executable>
rbdock ($Id: //depot/dev/client3/rdock/2013.1/src/exe/rbdock.cxx#4 $)

>  <Rbt.Library>
libRbt.so (2013.1, Build901 2013/11/27)

>  <Rbt.Parameter_File>
/export/apps/rDock/src/rDock_2013.1_src/data/scripts/dock_solv.prm

>  <Rbt.Receptor>
prm/pocket_docking_8.prm

>  <SCORE>
-18.8374

>  <SCORE.INTER>
-18.47

>  <SCORE.INTER.CONST>
1

>  <SCORE.INTER.POLAR>
0

>  <SCORE.INTER.ROT>
7

>  <SCORE.INTER.SOLV>
12.7052

>  <SCORE.INTER.VDW>
-24.8151

>  <SCORE.INTER.norm>
-0.710386

>  <SCORE.INTRA>
-0.367373

>  <SCORE.INTRA.DIHEDRAL>
2.10867

>  <SCORE.INTRA.DIHEDRAL.0>
4.37896

>  <SCORE.INTRA.POLAR>
0

>  <SCORE.INTRA.POLAR.0>
0

>  <SCORE.INTRA.REPUL>
0

>  <SCORE.INTRA.REPUL.0>
0

>  <SCORE.INTRA.SOLV>
-0.224951

>  <SCORE.INTRA.SOLV.lig_0>
-50.5538

>  <SCORE.INTRA.VDW>
-1.30923

>  <SCORE.INTRA.VDW.0>
-1.30673

>  <SCORE.INTRA.norm>
-0.0141297

>  <SCORE.RESTR>
0

>  <SCORE.RESTR.CAVITY>
0

>  <SCORE.RESTR.norm>
0

>  <SCORE.SYSTEM>
0

>  <SCORE.SYSTEM.CONST>
0

>  <SCORE.SYSTEM.DIHEDRAL>
0

>  <SCORE.SYSTEM.SOLV>
0

>  <SCORE.SYSTEM.norm>
0

>  <SCORE.heavy>
26

>  <SCORE.norm>
-0.724516

>  <RMSD>
8.923

$$$$
ligand
 OpenBabel02271912153D
libRbt.so/2013.1/901 2013/11/27
 26 28  0  0  0  0  0  0  0  0999 V2000
  133.1655   63.8301   -1.6762 N   0  0  0  0  0  0  0  0  0  0  0  0
  132.2873   63.6078   -0.4894 C   0  0  2  0  0  0  0  0  0  0  0  0
  132.7056   62.3724    0.2549 C   0  0  0  0  0  0  0  0  0  0  0  0
  133.1779   62.4397    1.3889 O   0  0  0  0  0  0  0  0  0  0  0  0
  130.8314   63.4726   -0.9274 C   0  0  0  0  0  0  0  0  0  0  0  0
  130.2635   64.7487   -1.5410 C   0  0  0  0  0  0  0  0  0  0  0  0
  128.5987   64.4807   -2.0546 S   0  0  0  0  0  0  0  0  0  0  0  0
  128.2679   65.9163   -3.0245 C   0  0  0  0  0  0  0  0  0  0  0  0
  127.4610   66.9516   -2.2429 C   0  0  1  0  0  0  0  0  0  0  0  0
  128.3282   67.8843   -1.5944 O   0  0  0  0  0  0  0  0  0  0  0  0
  126.5672   67.7432   -3.1838 C   0  0  1  0  0  0  0  0  0  0  0  0
  125.2318   67.7799   -2.6714 O   0  0  0  0  0  0  0  0  0  0  0  0
  127.1676   69.1359   -3.2582 C   0  0  1  0  0  0  0  0  0  0  0  0
  126.2000   70.1407   -2.9349 O   0  0  0  0  0  0  0  0  0  0  0  0
  128.3031   69.1622   -2.2417 C   0  0  2  0  0  0  0  0  0  0  0  0
  132.5943   61.2603   -0.2588 O   0  0  0  0  0  0  0  0  0  0  0  0
  131.1832   72.3933   -5.2796 N   0  0  0  0  0  0  0  0  0  0  0  0
  129.9034   72.5095   -4.8718 C   0  0  0  0  0  0  0  0  0  0  0  0
  129.2894   71.5986   -4.0887 N   0  0  0  0  0  0  0  0  0  0  0  0
  129.9382   70.4835   -3.6570 C   0  0  0  0  0  0  0  0  0  0  0  0
  131.3412   70.2888   -4.0632 C   0  0  0  0  0  0  0  0  0  0  0  0
  131.9499   71.3348   -4.9237 C   0  0  0  0  0  0  0  0  0  0  0  0
  133.2336   71.2281   -5.3418 N   0  0  0  0  0  0  0  0  0  0  0  0
  131.7486   69.1327   -3.5121 N   0  0  0  0  0  0  0  0  0  0  0  0
  130.7003   68.6267   -2.8161 C   0  0  0  0  0  0  0  0  0  0  0  0
  129.6176   69.4254   -2.8984 N   0  0  0  0  0  0  0  0  0  0  0  0
  2  1  1  6  0  0  0
  2  3  1  0  0  0  0
  2  5  1  0  0  0  0
  3  4  1  0  0  0  0
  3 16  1  0  0  0  0
  5  6  1  0  0  0  0
  6  7  1  0  0  0  0
  7  8  1  0  0  0  0
  9  8  1  6  0  0  0
  9 10  1  0  0  0  0
  9 11  1  0  0  0  0
 10 15  1  0  0  0  0
 11 12  1  1  0  0  0
 11 13  1  0  0  0  0
 13 14  1  1  0  0  0
 13 15  1  0  0  0  0
 15 26  1  6  0  0  0
 17 18  2  0  0  0  0
 17 22  1  0  0  0  0
 18 19  1  0  0  0  0
 19 20  2  0  0  0  0
 20 21  1  0  0  0  0
 20 26  1  0  0  0  0
 21 22  2  0  0  0  0
 21 24  1  0  0  0  0
 22 23  1  0  0  0  0
 24 25  2  0  0  0  0
 25 26  1  0  0  0  0
M  END
>  <CHROM.1>
113.25188827,-65.11153791,178.41736243,-168.22071319,-100.65502571,92.45265902
176.09169968,129.89778592,67.36780757,-2.52870209,-1.32429540,0.03533820
-0.44299353

>  <Name>
ligand

>  <RI>
0

>  <Rbt.Current_Directory>
/home/itssahil/PROJECTS/Mol_Feturizer/Test_systems_manuscript/rnas/3npn

>  <Rbt.Executable>
rbdock ($Id: //depot/dev/client3/rdock/2013.1/src/exe/rbdock.cxx#4 $)

>  <Rbt.Library>
libRbt.so (2013.1, Build901 2013/11/27)

>  <Rbt.Parameter_File>
/export/apps/rDock/src/rDock_2013.1_src/data/scripts/dock_solv.prm

>  <Rbt.Receptor>
prm/pocket_docking_6.prm

>  <SCORE>
-18.6757

>  <SCORE.INTER>
-19.0609

>  <SCORE.INTER.CONST>
1

>  <SCORE.INTER.POLAR>
0

>  <SCORE.INTER.ROT>
7

>  <SCORE.INTER.SOLV>
13.7209

>  <SCORE.INTER.VDW>
-25.5476

>  <SCORE.INTER.norm>
-0.733113

>  <SCORE.INTRA>
0.385207

>  <SCORE.INTRA.DIHEDRAL>
3.42316

>  <SCORE.INTRA.DIHEDRAL.0>
4.37896

>  <SCORE.INTRA.POLAR>
0

>  <SCORE.INTRA.POLAR.0>
0

>  <SCORE.INTRA.REPUL>
0

>  <SCORE.INTRA.REPUL.0>
0

>  <SCORE.INTRA.SOLV>
-0.259664

>  <SCORE.INTRA.SOLV.lig_0>
-50.5538

>  <SCORE.INTRA.VDW>
-1.19654

>  <SCORE.INTRA.VDW.0>
-1.30673

>  <SCORE.INTRA.norm>
0.0148157

>  <SCORE.RESTR>
0

>  <SCORE.RESTR.CAVITY>
0

>  <SCORE.RESTR.norm>
0

>  <SCORE.SYSTEM>
0

>  <SCORE.SYSTEM.CONST>
0

>  <SCORE.SYSTEM.DIHEDRAL>
0

>  <SCORE.SYSTEM.SOLV>
0

>  <SCORE.SYSTEM.norm>
0

>  <SCORE.heavy>
26

>  <SCORE.norm>
-0.718298

>  <RMSD>
8.934

$$$$
ligand
 OpenBabel02271912153D
libRbt.so/2013.1/901 2013/11/27
 26 28  0  0  0  0  0  0  0  0999 V2000
  131.6215   63.5440   -1.7882 N   0  0  0  0  0  0  0  0  0  0  0  0
  130.3062   63.5250   -1.0819 C   0  0  2  0  0  0  0  0  0  0  0  0
  129.4151   62.4584   -1.6506 C   0  0  0  0  0  0  0  0  0  0  0  0
  129.8689   61.3737   -2.0126 O   0  0  0  0  0  0  0  0  0  0  0  0
  129.6208   64.8833   -1.2050 C   0  0  0  0  0  0  0  0  0  0  0  0
  130.4525   66.0333   -0.6455 C   0  0  0  0  0  0  0  0  0  0  0  0
  129.4652   67.4888   -0.5277 S   0  0  0  0  0  0  0  0  0  0  0  0
  129.1636   67.8777   -2.2215 C   0  0  0  0  0  0  0  0  0  0  0  0
  127.8033   68.5459   -2.4134 C   0  0  1  0  0  0  0  0  0  0  0  0
  127.8917   69.9517   -2.1716 O   0  0  0  0  0  0  0  0  0  0  0  0
  127.3227   68.3620   -3.8438 C   0  0  1  0  0  0  0  0  0  0  0  0
  125.9740   67.8843   -3.8470 O   0  0  0  0  0  0  0  0  0  0  0  0
  127.4252   69.7283   -4.4983 C   0  0  1  0  0  0  0  0  0  0  0  0
  126.1777   70.1253   -5.0783 O   0  0  0  0  0  0  0  0  0  0  0  0
  127.8158   70.7000   -3.3909 C   0  0  2  0  0  0  0  0  0  0  0  0
  128.2066   62.6496   -1.7775 O   0  0  0  0  0  0  0  0  0  0  0  0
  132.8060   71.4859   -1.8278 N   0  0  0  0  0  0  0  0  0  0  0  0
  131.8238   70.7708   -1.2432 C   0  0  0  0  0  0  0  0  0  0  0  0
  130.5831   70.6553   -1.7599 N   0  0  0  0  0  0  0  0  0  0  0  0
  130.2411   71.2687   -2.9250 C   0  0  0  0  0  0  0  0  0  0  0  0
  131.2642   72.0684   -3.6213 C   0  0  0  0  0  0  0  0  0  0  0  0
  132.6073   72.1476   -2.9929 C   0  0  0  0  0  0  0  0  0  0  0  0
  133.6012   72.8647   -3.5692 N   0  0  0  0  0  0  0  0  0  0  0  0
  130.6856   72.5589   -4.7307 N   0  0  0  0  0  0  0  0  0  0  0  0
  129.4035   72.1169   -4.7455 C   0  0  0  0  0  0  0  0  0  0  0  0
  129.1307   71.3483   -3.6723 N   0  0  0  0  0  0  0  0  0  0  0  0
  2  1  1  6  0  0  0
  2  3  1  0  0  0  0
  2  5  1  0  0  0  0
  3  4  1  0  0  0  0
  3 16  1  0  0  0  0
  5  6  1  0  0  0  0
  6  7  1  0  0  0  0
  7  8  1  0  0  0  0
  9  8  1  6  0  0  0
  9 10  1  0  0  0  0
  9 11  1  0  0  0  0
 10 15  1  0  0  0  0
 11 12  1  1  0  0  0
 11 13  1  0  0  0  0
 13 14  1  1  0  0  0
 13 15  1  0  0  0  0
 15 26  1  6  0  0  0
 17 18  2  0  0  0  0
 17 22  1  0  0  0  0
 18 19  1  0  0  0  0
 19 20  2  0  0  0  0
 20 21  1  0  0  0  0
 20 26  1  0  0  0  0
 21 22  2  0  0  0  0
 21 24  1  0  0  0  0
 22 23  1  0  0  0  0
 24 25  2  0  0  0  0
 25 26  1  0  0  0  0
M  END
>  <CHROM.1>
37.36073036,-58.22349774,-168.48335966,-67.44337155,148.32800635,84.25847788
0.02881992,129.56250995,68.40008178,-2.55714071,-1.69319610,-0.36917552,-0.27476914

>  <Name>
ligand

>  <RI>
0

>  <Rbt.Current_Directory>
/home/itssahil/PROJECTS/Mol_Feturizer/Test_systems_manuscript/rnas/3npn

>  <Rbt.Executable>
rbdock ($Id: //depot/dev/client3/rdock/2013.1/src/exe/rbdock.cxx#4 $)

>  <Rbt.Library>
libRbt.so (2013.1, Build901 2013/11/27)

>  <Rbt.Parameter_File>
/export/apps/rDock/src/rDock_2013.1_src/data/scripts/dock_solv.prm

>  <Rbt.Receptor>
prm/pocket_docking_6.prm

>  <SCORE>
-19.6941

>  <SCORE.INTER>
-20.2196

>  <SCORE.INTER.CONST>
1

>  <SCORE.INTER.POLAR>
0

>  <SCORE.INTER.ROT>
7

>  <SCORE.INTER.SOLV>
13.3429

>  <SCORE.INTER.VDW>
-26.1941

>  <SCORE.INTER.norm>
-0.777679

>  <SCORE.INTRA>
0.524384

>  <SCORE.INTRA.DIHEDRAL>
2.05237

>  <SCORE.INTRA.DIHEDRAL.0>
4.37896

>  <SCORE.INTRA.POLAR>
0

>  <SCORE.INTRA.POLAR.0>
0

>  <SCORE.INTRA.REPUL>
0

>  <SCORE.INTRA.REPUL.0>
0

>  <SCORE.INTRA.SOLV>
-0.180728

>  <SCORE.INTRA.SOLV.lig_0>
-50.5538

>  <SCORE.INTRA.VDW>
-0.411438

>  <SCORE.INTRA.VDW.0>
-1.30673

>  <SCORE.INTRA.norm>
0.0201686

>  <SCORE.RESTR>
0.00115299

>  <SCORE.RESTR.CAVITY>
0.00115299

>  <SCORE.RESTR.norm>
4.43458e-05

>  <SCORE.SYSTEM>
0

>  <SCORE.SYSTEM.CONST>
0

>  <SCORE.SYSTEM.DIHEDRAL>
0

>  <SCORE.SYSTEM.SOLV>
0

>  <SCORE.SYSTEM.norm>
0

>  <SCORE.heavy>
26

>  <SCORE.norm>
-0.757466

>  <RMSD>
8.934

$$$$
ligand
 OpenBabel02271912153D
libRbt.so/2013.1/901 2013/11/27
 26 28  0  0  0  0  0  0  0  0999 V2000
  131.2850   62.9438   -0.4539 N   0  0  0  0  0  0  0  0  0  0  0  0
  130.0390   63.4812   -1.0769 C   0  0  2  0  0  0  0  0  0  0  0  0
  129.2617   62.3810   -1.7406 C   0  0  0  0  0  0  0  0  0  0  0  0
  129.8177   61.3603   -2.1440 O   0  0  0  0  0  0  0  0  0  0  0  0
  130.3834   64.5559   -2.1047 C   0  0  0  0  0  0  0  0  0  0  0  0
  129.1560   65.2403   -2.6984 C   0  0  0  0  0  0  0  0  0  0  0  0
  129.6533   66.4418   -3.8885 S   0  0  0  0  0  0  0  0  0  0  0  0
  128.1361   67.2663   -4.2481 C   0  0  0  0  0  0  0  0  0  0  0  0
  127.4907   67.8360   -2.9861 C   0  0  1  0  0  0  0  0  0  0  0  0
  128.3634   68.7723   -2.3501 O   0  0  0  0  0  0  0  0  0  0  0  0
  126.2104   68.5767   -3.3369 C   0  0  1  0  0  0  0  0  0  0  0  0
  125.1471   68.1428   -2.4835 O   0  0  0  0  0  0  0  0  0  0  0  0
  126.5118   70.0513   -3.1359 C   0  0  1  0  0  0  0  0  0  0  0  0
  125.5648   70.6632   -2.2533 O   0  0  0  0  0  0  0  0  0  0  0  0
  127.9077   70.1190   -2.5275 C   0  0  2  0  0  0  0  0  0  0  0  0
  128.0468   62.4800   -1.9057 O   0  0  0  0  0  0  0  0  0  0  0  0
  132.7572   72.1346   -3.1477 N   0  0  0  0  0  0  0  0  0  0  0  0
  132.2289   71.4705   -2.0999 C   0  0  0  0  0  0  0  0  0  0  0  0
  130.9622   71.0072   -2.0784 N   0  0  0  0  0  0  0  0  0  0  0  0
  130.1237   71.1886   -3.1342 C   0  0  0  0  0  0  0  0  0  0  0  0
  130.6321   71.9065   -4.3163 C   0  0  0  0  0  0  0  0  0  0  0  0
  132.0370   72.3850   -4.2673 C   0  0  0  0  0  0  0  0  0  0  0  0
  132.5780   73.0553   -5.3123 N   0  0  0  0  0  0  0  0  0  0  0  0
  129.6267   71.9496   -5.2071 N   0  0  0  0  0  0  0  0  0  0  0  0
  128.5649   71.3186   -4.6471 C   0  0  0  0  0  0  0  0  0  0  0  0
  128.8529   70.8632   -3.4115 N   0  0  0  0  0  0  0  0  0  0  0  0
  2  1  1  6  0  0  0
  2  3  1  0  0  0  0
  2  5  1  0  0  0  0
  3  4  1  0  0  0  0
  3 16  1  0  0  0  0
  5  6  1  0  0  0  0
  6  7  1  0  0  0  0
  7  8  1  0  0  0  0
  9  8  1  6  0  0  0
  9 10  1  0  0  0  0
  9 11  1  0  0  0  0
 10 15  1  0  0  0  0
 11 12  1  1  0  0  0
 11 13  1  0  0  0  0
 13 14  1  1  0  0  0
 13 15  1  0  0  0  0
 15 26  1  6  0  0  0
 17 18  2  0  0  0  0
 17 22  1  0  0  0  0
 18 19  1  0  0  0  0
 19 20  2  0  0  0  0
 20 21  1  0  0  0  0
 20 26  1  0  0  0  0
 21 22  2  0  0  0  0
 21 24  1  0  0  0  0
 22 23  1  0  0  0  0
 24 25  2  0  0  0  0
 25 26  1  0  0  0  0
M  END
>  <CHROM.1>
-25.53941728,-174.97311193,-179.08616396,-171.52975652,56.45824690,59.55441625
-66.29560962,129.23347201,68.16960394,-2.97662853,-1.67708224,0.01857887
-0.21378051

>  <Name>
ligand

>  <RI>
0

>  <Rbt.Current_Directory>
/home/itssahil/PROJECTS/Mol_Feturizer/Test_systems_manuscript/rnas/3npn

>  <Rbt.Executable>
rbdock ($Id: //depot/dev/client3/rdock/2013.1/src/exe/rbdock.cxx#4 $)

>  <Rbt.Library>
libRbt.so (2013.1, Build901 2013/11/27)

>  <Rbt.Parameter_File>
/export/apps/rDock/src/rDock_2013.1_src/data/scripts/dock_solv.prm

>  <Rbt.Receptor>
prm/pocket_docking_7.prm

>  <SCORE>
-23.7675

>  <SCORE.INTER>
-22.2463

>  <SCORE.INTER.CONST>
1

>  <SCORE.INTER.POLAR>
0

>  <SCORE.INTER.ROT>
7

>  <SCORE.INTER.SOLV>
18.5632

>  <SCORE.INTER.VDW>
-29.2853

>  <SCORE.INTER.norm>
-0.855627

>  <SCORE.INTRA>
-1.52119

>  <SCORE.INTRA.DIHEDRAL>
-1.51196

>  <SCORE.INTRA.DIHEDRAL.0>
4.37896

>  <SCORE.INTRA.POLAR>
0

>  <SCORE.INTRA.POLAR.0>
0

>  <SCORE.INTRA.REPUL>
0

>  <SCORE.INTRA.REPUL.0>
0

>  <SCORE.INTRA.SOLV>
-0.845293

>  <SCORE.INTRA.SOLV.lig_0>
-50.5538

>  <SCORE.INTRA.VDW>
-0.342566

>  <SCORE.INTRA.VDW.0>
-1.30673

>  <SCORE.INTRA.norm>
-0.0585073

>  <SCORE.RESTR>
0

>  <SCORE.RESTR.CAVITY>
0

>  <SCORE.RESTR.norm>
0

>  <SCORE.SYSTEM>
0

>  <SCORE.SYSTEM.CONST>
0

>  <SCORE.SYSTEM.DIHEDRAL>
0

>  <SCORE.SYSTEM.SOLV>
0

>  <SCORE.SYSTEM.norm>
0

>  <SCORE.heavy>
26

>  <SCORE.norm>
-0.914134

>  <RMSD>
8.977

$$$$
ligand
 OpenBabel02271912153D
libRbt.so/2013.1/901 2013/11/27
 26 28  0  0  0  0  0  0  0  0999 V2000
  131.6634   62.2359   -0.2645 N   0  0  0  0  0  0  0  0  0  0  0  0
  130.5207   62.8833   -0.9747 C   0  0  2  0  0  0  0  0  0  0  0  0
  129.7218   61.8625   -1.7331 C   0  0  0  0  0  0  0  0  0  0  0  0
  130.2075   60.7766   -2.0470 O   0  0  0  0  0  0  0  0  0  0  0  0
  131.0336   63.9501   -1.9382 C   0  0  0  0  0  0  0  0  0  0  0  0
  131.3264   65.2857   -1.2615 C   0  0  0  0  0  0  0  0  0  0  0  0
  129.8191   66.0499   -0.7601 S   0  0  0  0  0  0  0  0  0  0  0  0
  129.0382   66.3919   -2.3043 C   0  0  0  0  0  0  0  0  0  0  0  0
  127.8093   67.2824   -2.1300 C   0  0  1  0  0  0  0  0  0  0  0  0
  128.1561   68.4986   -1.4644 O   0  0  0  0  0  0  0  0  0  0  0  0
  127.2330   67.6569   -3.4859 C   0  0  1  0  0  0  0  0  0  0  0  0
  125.8228   67.4157   -3.4994 O   0  0  0  0  0  0  0  0  0  0  0  0
  127.5421   69.1310   -3.6790 C   0  0  1  0  0  0  0  0  0  0  0  0
  126.3568   69.8804   -3.9684 O   0  0  0  0  0  0  0  0  0  0  0  0
  128.1527   69.6108   -2.3674 C   0  0  2  0  0  0  0  0  0  0  0  0
  128.5611   62.0940   -2.0682 O   0  0  0  0  0  0  0  0  0  0  0  0
  131.3619   72.9135   -4.9668 N   0  0  0  0  0  0  0  0  0  0  0  0
  130.0307   72.7358   -5.0858 C   0  0  0  0  0  0  0  0  0  0  0  0
  129.3328   71.8473   -4.3489 N   0  0  0  0  0  0  0  0  0  0  0  0
  129.9441   71.0590   -3.4239 C   0  0  0  0  0  0  0  0  0  0  0  0
  131.3993   71.1978   -3.2382 C   0  0  0  0  0  0  0  0  0  0  0  0
  132.0989   72.1979   -4.0839 C   0  0  0  0  0  0  0  0  0  0  0  0
  133.4360   72.3838   -3.9754 N   0  0  0  0  0  0  0  0  0  0  0  0
  131.7540   70.3245   -2.2802 N   0  0  0  0  0  0  0  0  0  0  0  0
  130.6281   69.6787   -1.8868 C   0  0  0  0  0  0  0  0  0  0  0  0
  129.5457   70.1102   -2.5643 N   0  0  0  0  0  0  0  0  0  0  0  0
  2  1  1  6  0  0  0
  2  3  1  0  0  0  0
  2  5  1  0  0  0  0
  3  4  1  0  0  0  0
  3 16  1  0  0  0  0
  5  6  1  0  0  0  0
  6  7  1  0  0  0  0
  7  8  1  0  0  0  0
  9  8  1  6  0  0  0
  9 10  1  0  0  0  0
  9 11  1  0  0  0  0
 10 15  1  0  0  0  0
 11 12  1  1  0  0  0
 11 13  1  0  0  0  0
 13 14  1  1  0  0  0
 13 15  1  0  0  0  0
 15 26  1  6  0  0  0
 17 18  2  0  0  0  0
 17 22  1  0  0  0  0
 18 19  1  0  0  0  0
 19 20  2  0  0  0  0
 20 21  1  0  0  0  0
 20 26  1  0  0  0  0
 21 22  2  0  0  0  0
 21 24  1  0  0  0  0
 22 23  1  0  0  0  0
 24 25  2  0  0  0  0
 25 26  1  0  0  0  0
M  END
>  <CHROM.1>
-21.08253716,-82.29568278,-69.70289670,-65.79061328,-170.03474960,56.40654243
173.84730731,129.65617147,67.70254978,-2.57421488,-1.61354434,-0.15044843
-0.27747201

>  <Name>
ligand

>  <RI>
0

>  <Rbt.Current_Directory>
/home/itssahil/PROJECTS/Mol_Feturizer/Test_systems_manuscript/rnas/3npn

>  <Rbt.Executable>
rbdock ($Id: //depot/dev/client3/rdock/2013.1/src/exe/rbdock.cxx#4 $)

>  <Rbt.Library>
libRbt.so (2013.1, Build901 2013/11/27)

>  <Rbt.Parameter_File>
/export/apps/rDock/src/rDock_2013.1_src/data/scripts/dock_solv.prm

>  <Rbt.Receptor>
prm/pocket_docking_6.prm

>  <SCORE>
-18.6181

>  <SCORE.INTER>
-17.7432

>  <SCORE.INTER.CONST>
1

>  <SCORE.INTER.POLAR>
0

>  <SCORE.INTER.ROT>
7

>  <SCORE.INTER.SOLV>
13.601

>  <SCORE.INTER.VDW>
-24.6291

>  <SCORE.INTER.norm>
-0.682431

>  <SCORE.INTRA>
-0.874848

>  <SCORE.INTRA.DIHEDRAL>
0.65771

>  <SCORE.INTRA.DIHEDRAL.0>
4.37896

>  <SCORE.INTRA.POLAR>
0

>  <SCORE.INTRA.POLAR.0>
0

>  <SCORE.INTRA.REPUL>
0

>  <SCORE.INTRA.REPUL.0>
0

>  <SCORE.INTRA.SOLV>
-0.00680042

>  <SCORE.INTRA.SOLV.lig_0>
-50.5538

>  <SCORE.INTRA.VDW>
-1.2003

>  <SCORE.INTRA.VDW.0>
-1.30673

>  <SCORE.INTRA.norm>
-0.033648

>  <SCORE.RESTR>
0

>  <SCORE.RESTR.CAVITY>
0

>  <SCORE.RESTR.norm>
0

>  <SCORE.SYSTEM>
0

>  <SCORE.SYSTEM.CONST>
0

>  <SCORE.SYSTEM.DIHEDRAL>
0

>  <SCORE.SYSTEM.SOLV>
0

>  <SCORE.SYSTEM.norm>
0

>  <SCORE.heavy>
26

>  <SCORE.norm>
-0.716079

>  <RMSD>
8.978

$$$$
ligand
 OpenBabel02271912153D
libRbt.so/2013.1/901 2013/11/27
 26 28  0  0  0  0  0  0  0  0999 V2000
  133.1052   62.5519   -1.0101 N   0  0  0  0  0  0  0  0  0  0  0  0
  131.6356   62.3400   -0.8539 C   0  0  2  0  0  0  0  0  0  0  0  0
  131.2225   61.0285   -1.4578 C   0  0  0  0  0  0  0  0  0  0  0  0
  130.0794   60.5947   -1.3211 O   0  0  0  0  0  0  0  0  0  0  0  0
  130.8642   63.4757   -1.5209 C   0  0  0  0  0  0  0  0  0  0  0  0
  129.3860   63.5054   -1.1447 C   0  0  0  0  0  0  0  0  0  0  0  0
  128.5033   64.5530   -2.2541 S   0  0  0  0  0  0  0  0  0  0  0  0
  129.0746   66.1567   -1.7929 C   0  0  0  0  0  0  0  0  0  0  0  0
  127.9263   67.1603   -1.7026 C   0  0  1  0  0  0  0  0  0  0  0  0
  128.4256   68.4826   -1.4909 O   0  0  0  0  0  0  0  0  0  0  0  0
  127.1374   67.1770   -3.0019 C   0  0  1  0  0  0  0  0  0  0  0  0
  125.7385   67.0621   -2.7239 O   0  0  0  0  0  0  0  0  0  0  0  0
  127.4597   68.5019   -3.6699 C   0  0  1  0  0  0  0  0  0  0  0  0
  126.2692   69.2340   -3.9814 O   0  0  0  0  0  0  0  0  0  0  0  0
  128.3047   69.2848   -2.6718 C   0  0  2  0  0  0  0  0  0  0  0  0
  132.0246   60.3500   -2.0976 O   0  0  0  0  0  0  0  0  0  0  0  0
  131.3697   72.6951   -5.3061 N   0  0  0  0  0  0  0  0  0  0  0  0
  130.0652   72.7867   -4.9781 C   0  0  0  0  0  0  0  0  0  0  0  0
  129.4035   71.8297   -4.2954 N   0  0  0  0  0  0  0  0  0  0  0  0
  130.0259   70.6897   -3.8909 C   0  0  0  0  0  0  0  0  0  0  0  0
  131.4535   70.5194   -4.2138 C   0  0  0  0  0  0  0  0  0  0  0  0
  132.1146   71.6160   -4.9658 C   0  0  0  0  0  0  0  0  0  0  0  0
  133.4236   71.5344   -5.3032 N   0  0  0  0  0  0  0  0  0  0  0  0
  131.8272   69.3312   -3.7092 N   0  0  0  0  0  0  0  0  0  0  0  0
  130.7367   68.7840   -3.1171 C   0  0  0  0  0  0  0  0  0  0  0  0
  129.6591   69.5871   -3.2220 N   0  0  0  0  0  0  0  0  0  0  0  0
  2  1  1  6  0  0  0
  2  3  1  0  0  0  0
  2  5  1  0  0  0  0
  3  4  1  0  0  0  0
  3 16  1  0  0  0  0
  5  6  1  0  0  0  0
  6  7  1  0  0  0  0
  7  8  1  0  0  0  0
  9  8  1  6  0  0  0
  9 10  1  0  0  0  0
  9 11  1  0  0  0  0
 10 15  1  0  0  0  0
 11 12  1  1  0  0  0
 11 13  1  0  0  0  0
 13 14  1  1  0  0  0
 13 15  1  0  0  0  0
 15 26  1  6  0  0  0
 17 18  2  0  0  0  0
 17 22  1  0  0  0  0
 18 19  1  0  0  0  0
 19 20  2  0  0  0  0
 20 21  1  0  0  0  0
 20 26  1  0  0  0  0
 21 22  2  0  0  0  0
 21 24  1  0  0  0  0
 22 23  1  0  0  0  0
 24 25  2  0  0  0  0
 25 26  1  0  0  0  0
M  END
>  <CHROM.1>
172.60816876,-167.09496129,-165.36666695,-70.62601423,-135.78833677,-172.85674135
-148.87006041,129.77515970,67.09223259,-2.84354482,-1.52723085,0.12428913
-0.31396558

>  <Name>
ligand

>  <RI>
0

>  <Rbt.Current_Directory>
/home/itssahil/PROJECTS/Mol_Feturizer/Test_systems_manuscript/rnas/3npn

>  <Rbt.Executable>
rbdock ($Id: //depot/dev/client3/rdock/2013.1/src/exe/rbdock.cxx#4 $)

>  <Rbt.Library>
libRbt.so (2013.1, Build901 2013/11/27)

>  <Rbt.Parameter_File>
/export/apps/rDock/src/rDock_2013.1_src/data/scripts/dock_solv.prm

>  <Rbt.Receptor>
prm/pocket_docking_7.prm

>  <SCORE>
-21.4147

>  <SCORE.INTER>
-21.8456

>  <SCORE.INTER.CONST>
1

>  <SCORE.INTER.POLAR>
0

>  <SCORE.INTER.ROT>
7

>  <SCORE.INTER.SOLV>
14.196

>  <SCORE.INTER.VDW>
-27.5624

>  <SCORE.INTER.norm>
-0.840214

>  <SCORE.INTRA>
0.430902

>  <SCORE.INTRA.DIHEDRAL>
2.08274

>  <SCORE.INTRA.DIHEDRAL.0>
4.37896

>  <SCORE.INTRA.POLAR>
0

>  <SCORE.INTRA.POLAR.0>
0

>  <SCORE.INTRA.REPUL>
0

>  <SCORE.INTRA.REPUL.0>
0

>  <SCORE.INTRA.SOLV>
-0.817013

>  <SCORE.INTRA.SOLV.lig_0>
-50.5538

>  <SCORE.INTRA.VDW>
-0.201961

>  <SCORE.INTRA.VDW.0>
-1.30673

>  <SCORE.INTRA.norm>
0.0165732

>  <SCORE.RESTR>
0

>  <SCORE.RESTR.CAVITY>
0

>  <SCORE.RESTR.norm>
0

>  <SCORE.SYSTEM>
0

>  <SCORE.SYSTEM.CONST>
0

>  <SCORE.SYSTEM.DIHEDRAL>
0

>  <SCORE.SYSTEM.SOLV>
0

>  <SCORE.SYSTEM.norm>
0

>  <SCORE.heavy>
26

>  <SCORE.norm>
-0.823641

>  <RMSD>
9.035

$$$$
ligand
 OpenBabel02271912153D
libRbt.so/2013.1/901 2013/11/27
 26 28  0  0  0  0  0  0  0  0999 V2000
  131.3138   63.2427   -0.8643 N   0  0  0  0  0  0  0  0  0  0  0  0
  129.8784   63.5283   -1.1600 C   0  0  2  0  0  0  0  0  0  0  0  0
  129.2018   62.3120   -1.7239 C   0  0  0  0  0  0  0  0  0  0  0  0
  127.9774   62.2545   -1.8306 O   0  0  0  0  0  0  0  0  0  0  0  0
  129.7629   64.6834   -2.1510 C   0  0  0  0  0  0  0  0  0  0  0  0
  128.3448   65.2316   -2.2782 C   0  0  0  0  0  0  0  0  0  0  0  0
  128.2032   66.2011   -3.7435 S   0  0  0  0  0  0  0  0  0  0  0  0
  128.9352   67.7300   -3.2559 C   0  0  0  0  0  0  0  0  0  0  0  0
  127.9792   68.5686   -2.4094 C   0  0  1  0  0  0  0  0  0  0  0  0
  128.6149   69.7706   -1.9692 O   0  0  0  0  0  0  0  0  0  0  0  0
  126.7650   68.9730   -3.2297 C   0  0  1  0  0  0  0  0  0  0  0  0
  125.5672   68.6820   -2.5032 O   0  0  0  0  0  0  0  0  0  0  0  0
  126.9083   70.4635   -3.4821 C   0  0  1  0  0  0  0  0  0  0  0  0
  125.7436   71.1802   -3.0580 O   0  0  0  0  0  0  0  0  0  0  0  0
  128.1191   70.9152   -2.6739 C   0  0  2  0  0  0  0  0  0  0  0  0
  129.8589   61.3366   -2.0844 O   0  0  0  0  0  0  0  0  0  0  0  0
  133.2670   71.9456   -3.3075 N   0  0  0  0  0  0  0  0  0  0  0  0
  132.6241   71.3836   -2.2641 C   0  0  0  0  0  0  0  0  0  0  0  0
  131.2910   71.1784   -2.2382 N   0  0  0  0  0  0  0  0  0  0  0  0
  130.4989   71.5363   -3.2847 C   0  0  0  0  0  0  0  0  0  0  0  0
  131.1323   72.1569   -4.4616 C   0  0  0  0  0  0  0  0  0  0  0  0
  132.6041   72.3488   -4.4179 C   0  0  0  0  0  0  0  0  0  0  0  0
  133.2608   72.9143   -5.4586 N   0  0  0  0  0  0  0  0  0  0  0  0
  130.1503   72.4097   -5.3436 N   0  0  0  0  0  0  0  0  0  0  0  0
  128.9880   71.9921   -4.7831 C   0  0  0  0  0  0  0  0  0  0  0  0
  129.1874   71.4714   -3.5559 N   0  0  0  0  0  0  0  0  0  0  0  0
  2  1  1  6  0  0  0
  2  3  1  0  0  0  0
  2  5  1  0  0  0  0
  3  4  1  0  0  0  0
  3 16  1  0  0  0  0
  5  6  1  0  0  0  0
  6  7  1  0  0  0  0
  7  8  1  0  0  0  0
  9  8  1  6  0  0  0
  9 10  1  0  0  0  0
  9 11  1  0  0  0  0
 10 15  1  0  0  0  0
 11 12  1  1  0  0  0
 11 13  1  0  0  0  0
 13 14  1  1  0  0  0
 13 15  1  0  0  0  0
 15 26  1  6  0  0  0
 17 18  2  0  0  0  0
 17 22  1  0  0  0  0
 18 19  1  0  0  0  0
 19 20  2  0  0  0  0
 20 21  1  0  0  0  0
 20 26  1  0  0  0  0
 21 22  2  0  0  0  0
 21 24  1  0  0  0  0
 22 23  1  0  0  0  0
 24 25  2  0  0  0  0
 25 26  1  0  0  0  0
M  END
>  <CHROM.1>
167.82167945,-167.70807425,-163.34099552,-79.31383764,-78.09287783,177.06836835
-36.79328978,129.33301861,68.41010214,-2.98913862,-1.74449588,0.01735788
-0.22132817

>  <Name>
ligand

>  <RI>
0

>  <Rbt.Current_Directory>
/home/itssahil/PROJECTS/Mol_Feturizer/Test_systems_manuscript/rnas/3npn

>  <Rbt.Executable>
rbdock ($Id: //depot/dev/client3/rdock/2013.1/src/exe/rbdock.cxx#4 $)

>  <Rbt.Library>
libRbt.so (2013.1, Build901 2013/11/27)

>  <Rbt.Parameter_File>
/export/apps/rDock/src/rDock_2013.1_src/data/scripts/dock_solv.prm

>  <Rbt.Receptor>
prm/pocket_docking_7.prm

>  <SCORE>
-24.1354

>  <SCORE.INTER>
-23.8398

>  <SCORE.INTER.CONST>
1

>  <SCORE.INTER.POLAR>
0

>  <SCORE.INTER.ROT>
7

>  <SCORE.INTER.SOLV>
16.7353

>  <SCORE.INTER.VDW>
-29.7383

>  <SCORE.INTER.norm>
-0.916914

>  <SCORE.INTRA>
-0.295598

>  <SCORE.INTRA.DIHEDRAL>
0.955902

>  <SCORE.INTRA.DIHEDRAL.0>
4.37896

>  <SCORE.INTRA.POLAR>
0

>  <SCORE.INTRA.POLAR.0>
0

>  <SCORE.INTRA.REPUL>
0

>  <SCORE.INTRA.REPUL.0>
0

>  <SCORE.INTRA.SOLV>
-0.751937

>  <SCORE.INTRA.SOLV.lig_0>
-50.5538

>  <SCORE.INTRA.VDW>
-0.39758

>  <SCORE.INTRA.VDW.0>
-1.30673

>  <SCORE.INTRA.norm>
-0.0113691

>  <SCORE.RESTR>
0

>  <SCORE.RESTR.CAVITY>
0

>  <SCORE.RESTR.norm>
0

>  <SCORE.SYSTEM>
0

>  <SCORE.SYSTEM.CONST>
0

>  <SCORE.SYSTEM.DIHEDRAL>
0

>  <SCORE.SYSTEM.SOLV>
0

>  <SCORE.SYSTEM.norm>
0

>  <SCORE.heavy>
26

>  <SCORE.norm>
-0.928283

>  <RMSD>
9.097

$$$$
ligand
 OpenBabel02271912153D
libRbt.so/2013.1/901 2013/11/27
 26 28  0  0  0  0  0  0  0  0999 V2000
  136.7692   59.3397    1.9432 N   0  0  0  0  0  0  0  0  0  0  0  0
  135.3189   59.0494    1.7394 C   0  0  2  0  0  0  0  0  0  0  0  0
  135.1383   57.8447    0.8612 C   0  0  0  0  0  0  0  0  0  0  0  0
  134.0964   57.1906    0.8812 O   0  0  0  0  0  0  0  0  0  0  0  0
  134.6231   60.2519    1.1073 C   0  0  0  0  0  0  0  0  0  0  0  0
  135.2532   60.6912   -0.2108 C   0  0  0  0  0  0  0  0  0  0  0  0
  134.3548   62.0500   -0.8844 S   0  0  0  0  0  0  0  0  0  0  0  0
  133.1699   61.2451   -1.9137 C   0  0  0  0  0  0  0  0  0  0  0  0
  131.9129   60.8626   -1.1343 C   0  0  1  0  0  0  0  0  0  0  0  0
  131.3548   62.0052   -0.4821 O   0  0  0  0  0  0  0  0  0  0  0  0
  130.8531   60.3174   -2.0779 C   0  0  1  0  0  0  0  0  0  0  0  0
  130.3374   59.0830   -1.5703 O   0  0  0  0  0  0  0  0  0  0  0  0
  129.7703   61.3795   -2.1492 C   0  0  1  0  0  0  0  0  0  0  0  0
  128.4842   60.8377   -1.8288 O   0  0  0  0  0  0  0  0  0  0  0  0
  130.1541   62.4445   -1.1286 C   0  0  2  0  0  0  0  0  0  0  0  0
  136.0363   57.4766    0.1054 O   0  0  0  0  0  0  0  0  0  0  0  0
  128.0328   66.9666   -2.8648 N   0  0  0  0  0  0  0  0  0  0  0  0
  127.4393   65.9067   -2.2799 C   0  0  0  0  0  0  0  0  0  0  0  0
  128.1116   64.8067   -1.8826 N   0  0  0  0  0  0  0  0  0  0  0  0
  129.4567   64.6982   -2.0545 C   0  0  0  0  0  0  0  0  0  0  0  0
  130.1739   65.8189   -2.6876 C   0  0  0  0  0  0  0  0  0  0  0  0
  129.3671   66.9965   -3.0965 C   0  0  0  0  0  0  0  0  0  0  0  0
  129.9513   68.0660   -3.6871 N   0  0  0  0  0  0  0  0  0  0  0  0
  131.4712   65.4714   -2.7380 N   0  0  0  0  0  0  0  0  0  0  0  0
  131.5789   64.2358   -2.1892 C   0  0  0  0  0  0  0  0  0  0  0  0
  130.3826   63.7680   -1.7805 N   0  0  0  0  0  0  0  0  0  0  0  0
  2  1  1  6  0  0  0
  2  3  1  0  0  0  0
  2  5  1  0  0  0  0
  3  4  1  0  0  0  0
  3 16  1  0  0  0  0
  5  6  1  0  0  0  0
  6  7  1  0  0  0  0
  7  8  1  0  0  0  0
  9  8  1  6  0  0  0
  9 10  1  0  0  0  0
  9 11  1  0  0  0  0
 10 15  1  0  0  0  0
 11 12  1  1  0  0  0
 11 13  1  0  0  0  0
 13 14  1  1  0  0  0
 13 15  1  0  0  0  0
 15 26  1  6  0  0  0
 17 18  2  0  0  0  0
 17 22  1  0  0  0  0
 18 19  1  0  0  0  0
 19 20  2  0  0  0  0
 20 21  1  0  0  0  0
 20 26  1  0  0  0  0
 21 22  2  0  0  0  0
 21 24  1  0  0  0  0
 22 23  1  0  0  0  0
 24 25  2  0  0  0  0
 25 26  1  0  0  0  0
M  END
>  <CHROM.1>
157.82229815,56.42186155,178.32427569,-91.40102582,87.00267138,54.92013032
-154.50689964,131.85379749,62.12877889,-1.17887086,-0.88329069,-0.26998558
-0.22491799

>  <Name>
ligand

>  <RI>
0

>  <Rbt.Current_Directory>
/home/itssahil/PROJECTS/Mol_Feturizer/Test_systems_manuscript/rnas/3npn

>  <Rbt.Executable>
rbdock ($Id: //depot/dev/client3/rdock/2013.1/src/exe/rbdock.cxx#4 $)

>  <Rbt.Library>
libRbt.so (2013.1, Build901 2013/11/27)

>  <Rbt.Parameter_File>
/export/apps/rDock/src/rDock_2013.1_src/data/scripts/dock_solv.prm

>  <Rbt.Receptor>
prm/pocket_docking_7.prm

>  <SCORE>
-14.3043

>  <SCORE.INTER>
-13.3083

>  <SCORE.INTER.CONST>
1

>  <SCORE.INTER.POLAR>
0

>  <SCORE.INTER.ROT>
7

>  <SCORE.INTER.SOLV>
9.31995

>  <SCORE.INTER.VDW>
-20.2455

>  <SCORE.INTER.norm>
-0.511856

>  <SCORE.INTRA>
-0.996051

>  <SCORE.INTRA.DIHEDRAL>
0.767664

>  <SCORE.INTRA.DIHEDRAL.0>
4.37896

>  <SCORE.INTRA.POLAR>
0

>  <SCORE.INTRA.POLAR.0>
0

>  <SCORE.INTRA.REPUL>
0

>  <SCORE.INTRA.REPUL.0>
0

>  <SCORE.INTRA.SOLV>
-0.0939535

>  <SCORE.INTRA.SOLV.lig_0>
-50.5538

>  <SCORE.INTRA.VDW>
-1.33291

>  <SCORE.INTRA.VDW.0>
-1.30673

>  <SCORE.INTRA.norm>
-0.0383097

>  <SCORE.RESTR>
0

>  <SCORE.RESTR.CAVITY>
0

>  <SCORE.RESTR.norm>
0

>  <SCORE.SYSTEM>
0

>  <SCORE.SYSTEM.CONST>
0

>  <SCORE.SYSTEM.DIHEDRAL>
0

>  <SCORE.SYSTEM.SOLV>
0

>  <SCORE.SYSTEM.norm>
0

>  <SCORE.heavy>
26

>  <SCORE.norm>
-0.550166

>  <RMSD>
9.122

$$$$
ligand
 OpenBabel02271912153D
libRbt.so/2013.1/901 2013/11/27
 26 28  0  0  0  0  0  0  0  0999 V2000
  131.1641   63.8076   -1.1940 N   0  0  0  0  0  0  0  0  0  0  0  0
  129.6996   63.5473   -1.0648 C   0  0  2  0  0  0  0  0  0  0  0  0
  129.3225   62.2788   -1.7748 C   0  0  0  0  0  0  0  0  0  0  0  0
  130.1758   61.4616   -2.1179 O   0  0  0  0  0  0  0  0  0  0  0  0
  128.9026   64.7134   -1.6433 C   0  0  0  0  0  0  0  0  0  0  0  0
  129.3463   65.1115   -3.0476 C   0  0  0  0  0  0  0  0  0  0  0  0
  128.2114   66.2746   -3.7307 S   0  0  0  0  0  0  0  0  0  0  0  0
  128.9417   67.8180   -3.2883 C   0  0  0  0  0  0  0  0  0  0  0  0
  127.9815   68.6840   -2.4750 C   0  0  1  0  0  0  0  0  0  0  0  0
  128.6339   69.8706   -2.0180 O   0  0  0  0  0  0  0  0  0  0  0  0
  126.8049   69.1169   -3.3347 C   0  0  1  0  0  0  0  0  0  0  0  0
  125.5775   68.8595   -2.6459 O   0  0  0  0  0  0  0  0  0  0  0  0
  126.9949   70.6022   -3.5864 C   0  0  1  0  0  0  0  0  0  0  0  0
  125.8363   71.3504   -3.2015 O   0  0  0  0  0  0  0  0  0  0  0  0
  128.1907   71.0252   -2.7412 C   0  0  2  0  0  0  0  0  0  0  0  0
  128.1470   62.0315   -2.0397 O   0  0  0  0  0  0  0  0  0  0  0  0
  133.3780   71.9432   -3.2029 N   0  0  0  0  0  0  0  0  0  0  0  0
  132.6874   71.4052   -2.1775 C   0  0  0  0  0  0  0  0  0  0  0  0
  131.3503   71.2276   -2.1967 N   0  0  0  0  0  0  0  0  0  0  0  0
  130.6029   71.5912   -3.2737 C   0  0  0  0  0  0  0  0  0  0  0  0
  131.2899   72.1867   -4.4333 C   0  0  0  0  0  0  0  0  0  0  0  0
  132.7630   72.3487   -4.3396 C   0  0  0  0  0  0  0  0  0  0  0  0
  133.4674   72.8902   -5.3618 N   0  0  0  0  0  0  0  0  0  0  0  0
  130.3448   72.4507   -5.3516 N   0  0  0  0  0  0  0  0  0  0  0  0
  129.1552   72.0628   -4.8285 C   0  0  0  0  0  0  0  0  0  0  0  0
  129.3007   71.5505   -3.5902 N   0  0  0  0  0  0  0  0  0  0  0  0
  2  1  1  6  0  0  0
  2  3  1  0  0  0  0
  2  5  1  0  0  0  0
  3  4  1  0  0  0  0
  3 16  1  0  0  0  0
  5  6  1  0  0  0  0
  6  7  1  0  0  0  0
  7  8  1  0  0  0  0
  9  8  1  6  0  0  0
  9 10  1  0  0  0  0
  9 11  1  0  0  0  0
 10 15  1  0  0  0  0
 11 12  1  1  0  0  0
 11 13  1  0  0  0  0
 13 14  1  1  0  0  0
 13 15  1  0  0  0  0
 15 26  1  6  0  0  0
 17 18  2  0  0  0  0
 17 22  1  0  0  0  0
 18 19  1  0  0  0  0
 19 20  2  0  0  0  0
 20 21  1  0  0  0  0
 20 26  1  0  0  0  0
 21 22  2  0  0  0  0
 21 24  1  0  0  0  0
 22 23  1  0  0  0  0
 24 25  2  0  0  0  0
 25 26  1  0  0  0  0
M  END
>  <CHROM.1>
15.33230761,50.51929916,170.78537323,92.80728896,-122.93271174,174.40274555
-37.31278306,129.41058727,68.48050040,-3.03359009,-1.75010507,0.00838102
-0.20902418

>  <Name>
ligand

>  <RI>
0

>  <Rbt.Current_Directory>
/home/itssahil/PROJECTS/Mol_Feturizer/Test_systems_manuscript/rnas/3npn

>  <Rbt.Executable>
rbdock ($Id: //depot/dev/client3/rdock/2013.1/src/exe/rbdock.cxx#4 $)

>  <Rbt.Library>
libRbt.so (2013.1, Build901 2013/11/27)

>  <Rbt.Parameter_File>
/export/apps/rDock/src/rDock_2013.1_src/data/scripts/dock_solv.prm

>  <Rbt.Receptor>
prm/pocket_docking_7.prm

>  <SCORE>
-20.7627

>  <SCORE.INTER>
-22.1474

>  <SCORE.INTER.CONST>
1

>  <SCORE.INTER.POLAR>
0

>  <SCORE.INTER.ROT>
7

>  <SCORE.INTER.SOLV>
15.5144

>  <SCORE.INTER.VDW>
-28.2031

>  <SCORE.INTER.norm>
-0.851823

>  <SCORE.INTRA>
1.38465

>  <SCORE.INTRA.DIHEDRAL>
2.85566

>  <SCORE.INTRA.DIHEDRAL.0>
4.37896

>  <SCORE.INTRA.POLAR>
0

>  <SCORE.INTRA.POLAR.0>
0

>  <SCORE.INTRA.REPUL>
0

>  <SCORE.INTRA.REPUL.0>
0

>  <SCORE.INTRA.SOLV>
-0.0432747

>  <SCORE.INTRA.SOLV.lig_0>
-50.5538

>  <SCORE.INTRA.VDW>
-0.0215455

>  <SCORE.INTRA.VDW.0>
-1.30673

>  <SCORE.INTRA.norm>
0.0532557

>  <SCORE.RESTR>
0

>  <SCORE.RESTR.CAVITY>
0

>  <SCORE.RESTR.norm>
0

>  <SCORE.SYSTEM>
0

>  <SCORE.SYSTEM.CONST>
0

>  <SCORE.SYSTEM.DIHEDRAL>
0

>  <SCORE.SYSTEM.SOLV>
0

>  <SCORE.SYSTEM.norm>
0

>  <SCORE.heavy>
26

>  <SCORE.norm>
-0.798567

>  <RMSD>
9.126

$$$$
ligand
 OpenBabel02271912153D
libRbt.so/2013.1/901 2013/11/27
 26 28  0  0  0  0  0  0  0  0999 V2000
  129.8001   60.6584   -1.5009 N   0  0  0  0  0  0  0  0  0  0  0  0
  130.3755   61.9801   -1.8898 C   0  0  2  0  0  0  0  0  0  0  0  0
  131.6875   62.2111   -1.1966 C   0  0  0  0  0  0  0  0  0  0  0  0
  132.5844   62.8636   -1.7290 O   0  0  0  0  0  0  0  0  0  0  0  0
  129.4050   63.1036   -1.5352 C   0  0  0  0  0  0  0  0  0  0  0  0
  129.9069   64.4863   -1.9398 C   0  0  0  0  0  0  0  0  0  0  0  0
  128.7508   65.7178   -1.4356 S   0  0  0  0  0  0  0  0  0  0  0  0
  128.6498   66.7473   -2.8643 C   0  0  0  0  0  0  0  0  0  0  0  0
  127.7094   67.9304   -2.6418 C   0  0  1  0  0  0  0  0  0  0  0  0
  128.3906   69.0015   -1.9850 O   0  0  0  0  0  0  0  0  0  0  0  0
  127.2075   68.4628   -3.9743 C   0  0  1  0  0  0  0  0  0  0  0  0
  125.7844   68.6059   -3.9368 O   0  0  0  0  0  0  0  0  0  0  0  0
  127.8914   69.8038   -4.1733 C   0  0  1  0  0  0  0  0  0  0  0  0
  126.9395   70.8455   -4.4163 O   0  0  0  0  0  0  0  0  0  0  0  0
  128.6526   70.0864   -2.8833 C   0  0  2  0  0  0  0  0  0  0  0  0
  131.9001   61.7423   -0.0794 O   0  0  0  0  0  0  0  0  0  0  0  0
  132.5538   72.6287   -5.3894 N   0  0  0  0  0  0  0  0  0  0  0  0
  131.2228   72.8391   -5.4325 C   0  0  0  0  0  0  0  0  0  0  0  0
  130.3334   72.1055   -4.7322 N   0  0  0  0  0  0  0  0  0  0  0  0
  130.7350   71.0862   -3.9256 C   0  0  0  0  0  0  0  0  0  0  0  0
  132.1766   70.7975   -3.8281 C   0  0  0  0  0  0  0  0  0  0  0  0
  133.0947   71.6487   -4.6266 C   0  0  0  0  0  0  0  0  0  0  0  0
  134.4333   71.4455   -4.5935 N   0  0  0  0  0  0  0  0  0  0  0  0
  132.3096   69.7644   -2.9789 N   0  0  0  0  0  0  0  0  0  0  0  0
  131.0644   69.4170   -2.5689 C   0  0  0  0  0  0  0  0  0  0  0  0
  130.1207   70.1995   -3.1294 N   0  0  0  0  0  0  0  0  0  0  0  0
  2  1  1  1  0  0  0
  2  3  1  0  0  0  0
  2  5  1  0  0  0  0
  3  4  1  0  0  0  0
  3 16  1  0  0  0  0
  5  6  1  0  0  0  0
  6  7  1  0  0  0  0
  7  8  1  0  0  0  0
  9  8  1  6  0  0  0
  9 10  1  0  0  0  0
  9 11  1  0  0  0  0
 10 15  1  0  0  0  0
 11 12  1  1  0  0  0
 11 13  1  0  0  0  0
 13 14  1  1  0  0  0
 13 15  1  0  0  0  0
 15 26  1  6  0  0  0
 17 18  2  0  0  0  0
 17 22  1  0  0  0  0
 18 19  1  0  0  0  0
 19 20  2  0  0  0  0
 20 21  1  0  0  0  0
 20 26  1  0  0  0  0
 21 22  2  0  0  0  0
 21 24  1  0  0  0  0
 22 23  1  0  0  0  0
 24 25  2  0  0  0  0
 25 26  1  0  0  0  0
M  END
>  <CHROM.1>
148.24221822,-178.34915564,-177.84546532,-135.24318477,-178.55468008,83.86659253
179.18667793,130.02218108,67.73628943,-2.94068487,-1.60117342,0.00788374
-0.33443025

>  <Name>
ligand

>  <RI>
0

>  <Rbt.Current_Directory>
/home/itssahil/PROJECTS/Mol_Feturizer/Test_systems_manuscript/rnas/3npn

>  <Rbt.Executable>
rbdock ($Id: //depot/dev/client3/rdock/2013.1/src/exe/rbdock.cxx#4 $)

>  <Rbt.Library>
libRbt.so (2013.1, Build901 2013/11/27)

>  <Rbt.Parameter_File>
/export/apps/rDock/src/rDock_2013.1_src/data/scripts/dock_solv.prm

>  <Rbt.Receptor>
prm/pocket_docking_6.prm

>  <SCORE>
-16.8164

>  <SCORE.INTER>
-16.5377

>  <SCORE.INTER.CONST>
1

>  <SCORE.INTER.POLAR>
0

>  <SCORE.INTER.ROT>
7

>  <SCORE.INTER.SOLV>
15.8896

>  <SCORE.INTER.VDW>
-24.5884

>  <SCORE.INTER.norm>
-0.636067

>  <SCORE.INTRA>
-0.278693

>  <SCORE.INTRA.DIHEDRAL>
2.17655

>  <SCORE.INTRA.DIHEDRAL.0>
4.37896

>  <SCORE.INTRA.POLAR>
0

>  <SCORE.INTRA.POLAR.0>
0

>  <SCORE.INTRA.REPUL>
0

>  <SCORE.INTRA.REPUL.0>
0

>  <SCORE.INTRA.SOLV>
-0.960907

>  <SCORE.INTRA.SOLV.lig_0>
-50.5538

>  <SCORE.INTRA.VDW>
-0.886513

>  <SCORE.INTRA.VDW.0>
-1.30673

>  <SCORE.INTRA.norm>
-0.010719

>  <SCORE.RESTR>
0

>  <SCORE.RESTR.CAVITY>
0

>  <SCORE.RESTR.norm>
0

>  <SCORE.SYSTEM>
0

>  <SCORE.SYSTEM.CONST>
0

>  <SCORE.SYSTEM.DIHEDRAL>
0

>  <SCORE.SYSTEM.SOLV>
0

>  <SCORE.SYSTEM.norm>
0

>  <SCORE.heavy>
26

>  <SCORE.norm>
-0.646786

>  <RMSD>
9.158

$$$$
ligand
 OpenBabel02271912153D
libRbt.so/2013.1/901 2013/11/27
 26 28  0  0  0  0  0  0  0  0999 V2000
  132.1017   62.3114   -1.8786 N   0  0  0  0  0  0  0  0  0  0  0  0
  130.8624   62.1461   -1.0625 C   0  0  2  0  0  0  0  0  0  0  0  0
  129.8045   61.4240   -1.8464 C   0  0  0  0  0  0  0  0  0  0  0  0
  130.0144   60.3112   -2.3273 O   0  0  0  0  0  0  0  0  0  0  0  0
  130.3331   63.5089   -0.6238 C   0  0  0  0  0  0  0  0  0  0  0  0
  130.0668   64.4577   -1.7884 C   0  0  0  0  0  0  0  0  0  0  0  0
  129.4157   65.9814   -1.1870 S   0  0  0  0  0  0  0  0  0  0  0  0
  128.6481   66.6565   -2.6244 C   0  0  0  0  0  0  0  0  0  0  0  0
  127.7072   67.8077   -2.2735 C   0  0  1  0  0  0  0  0  0  0  0  0
  128.4469   68.9527   -1.8442 O   0  0  0  0  0  0  0  0  0  0  0  0
  126.9016   68.2211   -3.4946 C   0  0  1  0  0  0  0  0  0  0  0  0
  125.5132   68.3007   -3.1582 O   0  0  0  0  0  0  0  0  0  0  0  0
  127.4453   69.5749   -3.9157 C   0  0  1  0  0  0  0  0  0  0  0  0
  126.4025   70.5518   -4.0076 O   0  0  0  0  0  0  0  0  0  0  0  0
  128.4455   69.9825   -2.8402 C   0  0  2  0  0  0  0  0  0  0  0  0
  128.7018   61.9356   -2.0351 O   0  0  0  0  0  0  0  0  0  0  0  0
  131.7607   72.9857   -5.6607 N   0  0  0  0  0  0  0  0  0  0  0  0
  130.4684   73.1980   -5.3404 C   0  0  0  0  0  0  0  0  0  0  0  0
  129.7357   72.3365   -4.6051 N   0  0  0  0  0  0  0  0  0  0  0  0
  130.2680   71.1760   -4.1352 C   0  0  0  0  0  0  0  0  0  0  0  0
  131.6768   70.8761   -4.4457 C   0  0  0  0  0  0  0  0  0  0  0  0
  132.4196   71.8727   -5.2582 C   0  0  0  0  0  0  0  0  0  0  0  0
  133.7172   71.6694   -5.5884 N   0  0  0  0  0  0  0  0  0  0  0  0
  131.9577   69.6930   -3.8734 N   0  0  0  0  0  0  0  0  0  0  0  0
  130.8294   69.2677   -3.2526 C   0  0  0  0  0  0  0  0  0  0  0  0
  129.8179   70.1456   -3.4049 N   0  0  0  0  0  0  0  0  0  0  0  0
  2  1  1  6  0  0  0
  2  3  1  0  0  0  0
  2  5  1  0  0  0  0
  3  4  1  0  0  0  0
  3 16  1  0  0  0  0
  5  6  1  0  0  0  0
  6  7  1  0  0  0  0
  7  8  1  0  0  0  0
  9  8  1  6  0  0  0
  9 10  1  0  0  0  0
  9 11  1  0  0  0  0
 10 15  1  0  0  0  0
 11 12  1  1  0  0  0
 11 13  1  0  0  0  0
 13 14  1  1  0  0  0
 13 15  1  0  0  0  0
 15 26  1  6  0  0  0
 17 18  2  0  0  0  0
 17 22  1  0  0  0  0
 18 19  1  0  0  0  0
 19 20  2  0  0  0  0
 20 21  1  0  0  0  0
 20 26  1  0  0  0  0
 21 22  2  0  0  0  0
 21 24  1  0  0  0  0
 22 23  1  0  0  0  0
 24 25  2  0  0  0  0
 25 26  1  0  0  0  0
M  END
>  <CHROM.1>
56.79687100,56.25598277,178.32494022,-160.06480122,165.36180714,70.22106767
-164.81724006,129.66354159,67.70429118,-3.04116820,-1.62752954,0.16726332
-0.30790938

>  <Name>
ligand

>  <RI>
0

>  <Rbt.Current_Directory>
/home/itssahil/PROJECTS/Mol_Feturizer/Test_systems_manuscript/rnas/3npn

>  <Rbt.Executable>
rbdock ($Id: //depot/dev/client3/rdock/2013.1/src/exe/rbdock.cxx#4 $)

>  <Rbt.Library>
libRbt.so (2013.1, Build901 2013/11/27)

>  <Rbt.Parameter_File>
/export/apps/rDock/src/rDock_2013.1_src/data/scripts/dock_solv.prm

>  <Rbt.Receptor>
prm/pocket_docking_8.prm

>  <SCORE>
-21.4391

>  <SCORE.INTER>
-21.6506

>  <SCORE.INTER.CONST>
1

>  <SCORE.INTER.POLAR>
0

>  <SCORE.INTER.ROT>
7

>  <SCORE.INTER.SOLV>
16.3635

>  <SCORE.INTER.VDW>
-28.1549

>  <SCORE.INTER.norm>
-0.832715

>  <SCORE.INTRA>
0.211468

>  <SCORE.INTRA.DIHEDRAL>
-0.333

>  <SCORE.INTRA.DIHEDRAL.0>
4.37896

>  <SCORE.INTRA.POLAR>
0

>  <SCORE.INTRA.POLAR.0>
0

>  <SCORE.INTRA.REPUL>
0

>  <SCORE.INTRA.REPUL.0>
0

>  <SCORE.INTRA.SOLV>
-0.243781

>  <SCORE.INTRA.SOLV.lig_0>
-50.5538

>  <SCORE.INTRA.VDW>
0.499858

>  <SCORE.INTRA.VDW.0>
-1.30673

>  <SCORE.INTRA.norm>
0.00813338

>  <SCORE.RESTR>
0

>  <SCORE.RESTR.CAVITY>
0

>  <SCORE.RESTR.norm>
0

>  <SCORE.SYSTEM>
0

>  <SCORE.SYSTEM.CONST>
0

>  <SCORE.SYSTEM.DIHEDRAL>
0

>  <SCORE.SYSTEM.SOLV>
0

>  <SCORE.SYSTEM.norm>
0

>  <SCORE.heavy>
26

>  <SCORE.norm>
-0.824582

>  <RMSD>
9.158

$$$$
ligand
 OpenBabel02271912153D
libRbt.so/2013.1/901 2013/11/27
 26 28  0  0  0  0  0  0  0  0999 V2000
  131.8314   61.4701   -1.8494 N   0  0  0  0  0  0  0  0  0  0  0  0
  130.4872   61.0566   -1.3480 C   0  0  2  0  0  0  0  0  0  0  0  0
  130.1660   59.6567   -1.7866 C   0  0  0  0  0  0  0  0  0  0  0  0
  129.2696   59.4322   -2.5988 O   0  0  0  0  0  0  0  0  0  0  0  0
  129.4144   62.0126   -1.8626 C   0  0  0  0  0  0  0  0  0  0  0  0
  129.6487   63.4628   -1.4507 C   0  0  0  0  0  0  0  0  0  0  0  0
  128.3958   64.4942   -2.1389 S   0  0  0  0  0  0  0  0  0  0  0  0
  129.0114   66.1120   -1.7999 C   0  0  0  0  0  0  0  0  0  0  0  0
  127.8804   67.1315   -1.6763 C   0  0  1  0  0  0  0  0  0  0  0  0
  128.4005   68.4319   -1.3916 O   0  0  0  0  0  0  0  0  0  0  0  0
  127.1121   67.2278   -2.9844 C   0  0  1  0  0  0  0  0  0  0  0  0
  125.7072   67.1259   -2.7329 O   0  0  0  0  0  0  0  0  0  0  0  0
  127.4689   68.5779   -3.5807 C   0  0  1  0  0  0  0  0  0  0  0  0
  126.2969   69.3471   -3.8724 O   0  0  0  0  0  0  0  0  0  0  0  0
  128.3125   69.2939   -2.5325 C   0  0  2  0  0  0  0  0  0  0  0  0
  130.7883   58.6970   -1.3340 O   0  0  0  0  0  0  0  0  0  0  0  0
  131.4047   72.6266   -5.2336 N   0  0  0  0  0  0  0  0  0  0  0  0
  130.0868   72.7056   -4.9605 C   0  0  0  0  0  0  0  0  0  0  0  0
  129.4195   71.7719   -4.2514 N   0  0  0  0  0  0  0  0  0  0  0  0
  130.0497   70.6703   -3.7616 C   0  0  0  0  0  0  0  0  0  0  0  0
  131.4920   70.5160   -4.0208 C   0  0  0  0  0  0  0  0  0  0  0  0
  132.1584   71.5852   -4.8066 C   0  0  0  0  0  0  0  0  0  0  0  0
  133.4810   71.5159   -5.0896 N   0  0  0  0  0  0  0  0  0  0  0  0
  131.8709   69.3659   -3.4377 N   0  0  0  0  0  0  0  0  0  0  0  0
  130.7700   68.8264   -2.8578 C   0  0  0  0  0  0  0  0  0  0  0  0
  129.6806   69.5973   -3.0472 N   0  0  0  0  0  0  0  0  0  0  0  0
  2  1  1  6  0  0  0
  2  3  1  0  0  0  0
  2  5  1  0  0  0  0
  3  4  1  0  0  0  0
  3 16  1  0  0  0  0
  5  6  1  0  0  0  0
  6  7  1  0  0  0  0
  7  8  1  0  0  0  0
  9  8  1  6  0  0  0
  9 10  1  0  0  0  0
  9 11  1  0  0  0  0
 10 15  1  0  0  0  0
 11 12  1  1  0  0  0
 11 13  1  0  0  0  0
 13 14  1  1  0  0  0
 13 15  1  0  0  0  0
 15 26  1  6  0  0  0
 17 18  2  0  0  0  0
 17 22  1  0  0  0  0
 18 19  1  0  0  0  0
 19 20  2  0  0  0  0
 20 21  1  0  0  0  0
 20 26  1  0  0  0  0
 21 22  2  0  0  0  0
 21 24  1  0  0  0  0
 22 23  1  0  0  0  0
 24 25  2  0  0  0  0
 25 26  1  0  0  0  0
M  END
>  <CHROM.1>
-112.16744983,-58.65596544,177.92986816,-170.05775946,-152.62859708,179.54985102
-155.43923680,129.51936748,66.78288682,-2.86788389,-1.61465166,0.17305616
-0.22424186

>  <Name>
ligand

>  <RI>
0

>  <Rbt.Current_Directory>
/home/itssahil/PROJECTS/Mol_Feturizer/Test_systems_manuscript/rnas/3npn

>  <Rbt.Executable>
rbdock ($Id: //depot/dev/client3/rdock/2013.1/src/exe/rbdock.cxx#4 $)

>  <Rbt.Library>
libRbt.so (2013.1, Build901 2013/11/27)

>  <Rbt.Parameter_File>
/export/apps/rDock/src/rDock_2013.1_src/data/scripts/dock_solv.prm

>  <Rbt.Receptor>
prm/pocket_docking_6.prm

>  <SCORE>
-24.8755

>  <SCORE.INTER>
-24.7573

>  <SCORE.INTER.CONST>
1

>  <SCORE.INTER.POLAR>
0

>  <SCORE.INTER.ROT>
7

>  <SCORE.INTER.SOLV>
17.0318

>  <SCORE.INTER.VDW>
-30.4488

>  <SCORE.INTER.norm>
-0.952204

>  <SCORE.INTRA>
-0.118143

>  <SCORE.INTRA.DIHEDRAL>
-0.482566

>  <SCORE.INTRA.DIHEDRAL.0>
4.37896

>  <SCORE.INTRA.POLAR>
0

>  <SCORE.INTRA.POLAR.0>
0

>  <SCORE.INTRA.REPUL>
0

>  <SCORE.INTRA.REPUL.0>
0

>  <SCORE.INTRA.SOLV>
-0.160836

>  <SCORE.INTRA.SOLV.lig_0>
-50.5538

>  <SCORE.INTRA.VDW>
0.203558

>  <SCORE.INTRA.VDW.0>
-1.30673

>  <SCORE.INTRA.norm>
-0.00454397

>  <SCORE.RESTR>
0

>  <SCORE.RESTR.CAVITY>
0

>  <SCORE.RESTR.norm>
0

>  <SCORE.SYSTEM>
0

>  <SCORE.SYSTEM.CONST>
0

>  <SCORE.SYSTEM.DIHEDRAL>
0

>  <SCORE.SYSTEM.SOLV>
0

>  <SCORE.SYSTEM.norm>
0

>  <SCORE.heavy>
26

>  <SCORE.norm>
-0.956748

>  <RMSD>
9.217

$$$$
ligand
 OpenBabel02271912153D
libRbt.so/2013.1/901 2013/11/27
 26 28  0  0  0  0  0  0  0  0999 V2000
  131.7003   61.8150   -1.7348 N   0  0  0  0  0  0  0  0  0  0  0  0
  130.3296   61.3589   -1.3576 C   0  0  2  0  0  0  0  0  0  0  0  0
  130.0671   59.9776   -1.8852 C   0  0  0  0  0  0  0  0  0  0  0  0
  128.9255   59.6000   -2.1454 O   0  0  0  0  0  0  0  0  0  0  0  0
  129.2820   62.3237   -1.9067 C   0  0  0  0  0  0  0  0  0  0  0  0
  129.5257   63.7746   -1.5032 C   0  0  0  0  0  0  0  0  0  0  0  0
  128.2466   64.8019   -2.1481 S   0  0  0  0  0  0  0  0  0  0  0  0
  128.8790   66.4217   -1.8521 C   0  0  0  0  0  0  0  0  0  0  0  0
  127.7707   67.4728   -1.8739 C   0  0  1  0  0  0  0  0  0  0  0  0
  128.3188   68.7882   -1.7657 O   0  0  0  0  0  0  0  0  0  0  0  0
  127.0075   67.4070   -3.1869 C   0  0  1  0  0  0  0  0  0  0  0  0
  125.6002   67.3707   -2.9311 O   0  0  0  0  0  0  0  0  0  0  0  0
  127.3954   68.6555   -3.9591 C   0  0  1  0  0  0  0  0  0  0  0  0
  126.2414   69.4032   -4.3586 O   0  0  0  0  0  0  0  0  0  0  0  0
  128.2524   69.4889   -3.0135 C   0  0  2  0  0  0  0  0  0  0  0  0
  130.9913   59.1849   -2.0606 O   0  0  0  0  0  0  0  0  0  0  0  0
  131.6584   72.7702   -5.3792 N   0  0  0  0  0  0  0  0  0  0  0  0
  130.3746   72.9742   -5.0214 C   0  0  0  0  0  0  0  0  0  0  0  0
  129.6156   72.0368   -4.4173 N   0  0  0  0  0  0  0  0  0  0  0  0
  130.1103   70.8026   -4.1295 C   0  0  0  0  0  0  0  0  0  0  0  0
  131.5076   70.5069   -4.4917 C   0  0  0  0  0  0  0  0  0  0  0  0
  132.2810   71.5889   -5.1520 C   0  0  0  0  0  0  0  0  0  0  0  0
  133.5704   71.3952   -5.5184 N   0  0  0  0  0  0  0  0  0  0  0  0
  131.7505   69.2431   -4.1041 N   0  0  0  0  0  0  0  0  0  0  0  0
  130.6103   68.7668   -3.5453 C   0  0  0  0  0  0  0  0  0  0  0  0
  129.6280   69.6899   -3.5576 N   0  0  0  0  0  0  0  0  0  0  0  0
  2  1  1  6  0  0  0
  2  3  1  0  0  0  0
  2  5  1  0  0  0  0
  3  4  1  0  0  0  0
  3 16  1  0  0  0  0
  5  6  1  0  0  0  0
  6  7  1  0  0  0  0
  7  8  1  0  0  0  0
  9  8  1  6  0  0  0
  9 10  1  0  0  0  0
  9 11  1  0  0  0  0
 10 15  1  0  0  0  0
 11 12  1  1  0  0  0
 11 13  1  0  0  0  0
 13 14  1  1  0  0  0
 13 15  1  0  0  0  0
 15 26  1  6  0  0  0
 17 18  2  0  0  0  0
 17 22  1  0  0  0  0
 18 19  1  0  0  0  0
 19 20  2  0  0  0  0
 20 21  1  0  0  0  0
 20 26  1  0  0  0  0
 21 22  2  0  0  0  0
 21 24  1  0  0  0  0
 22 23  1  0  0  0  0
 24 25  2  0  0  0  0
 25 26  1  0  0  0  0
M  END
>  <CHROM.1>
-152.45230348,-53.90217590,-178.56916039,-169.25378550,-160.12125494,-174.21699155
-137.67779525,129.47425183,66.98148599,-3.10727988,-1.63708468,0.19377999
-0.24983506

>  <Name>
ligand

>  <RI>
0

>  <Rbt.Current_Directory>
/home/itssahil/PROJECTS/Mol_Feturizer/Test_systems_manuscript/rnas/3npn

>  <Rbt.Executable>
rbdock ($Id: //depot/dev/client3/rdock/2013.1/src/exe/rbdock.cxx#4 $)

>  <Rbt.Library>
libRbt.so (2013.1, Build901 2013/11/27)

>  <Rbt.Parameter_File>
/export/apps/rDock/src/rDock_2013.1_src/data/scripts/dock_solv.prm

>  <Rbt.Receptor>
prm/pocket_docking_7.prm

>  <SCORE>
-25.7273

>  <SCORE.INTER>
-25.4854

>  <SCORE.INTER.CONST>
1

>  <SCORE.INTER.POLAR>
0

>  <SCORE.INTER.ROT>
7

>  <SCORE.INTER.SOLV>
18.7071

>  <SCORE.INTER.VDW>
-31.4926

>  <SCORE.INTER.norm>
-0.980207

>  <SCORE.INTRA>
-0.241945

>  <SCORE.INTRA.DIHEDRAL>
-0.680014

>  <SCORE.INTRA.DIHEDRAL.0>
4.37896

>  <SCORE.INTRA.POLAR>
0

>  <SCORE.INTRA.POLAR.0>
0

>  <SCORE.INTRA.REPUL>
0

>  <SCORE.INTRA.REPUL.0>
0

>  <SCORE.INTRA.SOLV>
-0.0810113

>  <SCORE.INTRA.SOLV.lig_0>
-50.5538

>  <SCORE.INTRA.VDW>
0.138568

>  <SCORE.INTRA.VDW.0>
-1.30673

>  <SCORE.INTRA.norm>
-0.00930556

>  <SCORE.RESTR>
0

>  <SCORE.RESTR.CAVITY>
0

>  <SCORE.RESTR.norm>
0

>  <SCORE.SYSTEM>
0

>  <SCORE.SYSTEM.CONST>
0

>  <SCORE.SYSTEM.DIHEDRAL>
0

>  <SCORE.SYSTEM.SOLV>
0

>  <SCORE.SYSTEM.norm>
0

>  <SCORE.heavy>
26

>  <SCORE.norm>
-0.989512

>  <RMSD>
9.227

$$$$
ligand
 OpenBabel02271912153D
libRbt.so/2013.1/901 2013/11/27
 26 28  0  0  0  0  0  0  0  0999 V2000
  131.6125   62.0200   -1.6951 N   0  0  0  0  0  0  0  0  0  0  0  0
  130.2356   61.5889   -1.3111 C   0  0  2  0  0  0  0  0  0  0  0  0
  129.9532   60.2042   -1.8191 C   0  0  0  0  0  0  0  0  0  0  0  0
  128.8216   59.8707   -2.1683 O   0  0  0  0  0  0  0  0  0  0  0  0
  129.2016   62.5606   -1.8736 C   0  0  0  0  0  0  0  0  0  0  0  0
  129.4733   64.0150   -1.5015 C   0  0  0  0  0  0  0  0  0  0  0  0
  128.2090   65.0515   -2.1607 S   0  0  0  0  0  0  0  0  0  0  0  0
  128.8522   66.6665   -1.8621 C   0  0  0  0  0  0  0  0  0  0  0  0
  127.7587   67.7310   -1.9316 C   0  0  1  0  0  0  0  0  0  0  0  0
  128.3209   69.0411   -1.8315 O   0  0  0  0  0  0  0  0  0  0  0  0
  127.0296   67.6518   -3.2631 C   0  0  1  0  0  0  0  0  0  0  0  0
  125.6157   67.6378   -3.0444 O   0  0  0  0  0  0  0  0  0  0  0  0
  127.4542   68.8815   -4.0462 C   0  0  1  0  0  0  0  0  0  0  0  0
  126.3210   69.6365   -4.4892 O   0  0  0  0  0  0  0  0  0  0  0  0
  128.2967   69.7206   -3.0926 C   0  0  2  0  0  0  0  0  0  0  0  0
  130.8495   59.3644   -1.8886 O   0  0  0  0  0  0  0  0  0  0  0  0
  131.7687   72.8677   -5.5432 N   0  0  0  0  0  0  0  0  0  0  0  0
  130.4734   73.0870   -5.2402 C   0  0  0  0  0  0  0  0  0  0  0  0
  129.6977   72.1845   -4.6047 N   0  0  0  0  0  0  0  0  0  0  0  0
  130.1862   70.9726   -4.2262 C   0  0  0  0  0  0  0  0  0  0  0  0
  131.5954   70.6620   -4.5242 C   0  0  0  0  0  0  0  0  0  0  0  0
  132.3869   71.7054   -5.2241 C   0  0  0  0  0  0  0  0  0  0  0  0
  133.6880   71.4959   -5.5361 N   0  0  0  0  0  0  0  0  0  0  0  0
  131.8291   69.4254   -4.0525 N   0  0  0  0  0  0  0  0  0  0  0  0
  130.6726   68.9786   -3.5028 C   0  0  0  0  0  0  0  0  0  0  0  0
  129.6887   69.8945   -3.6032 N   0  0  0  0  0  0  0  0  0  0  0  0
  2  1  1  6  0  0  0
  2  3  1  0  0  0  0
  2  5  1  0  0  0  0
  3  4  1  0  0  0  0
  3 16  1  0  0  0  0
  5  6  1  0  0  0  0
  6  7  1  0  0  0  0
  7  8  1  0  0  0  0
  9  8  1  6  0  0  0
  9 10  1  0  0  0  0
  9 11  1  0  0  0  0
 10 15  1  0  0  0  0
 11 12  1  1  0  0  0
 11 13  1  0  0  0  0
 13 14  1  1  0  0  0
 13 15  1  0  0  0  0
 15 26  1  6  0  0  0
 17 18  2  0  0  0  0
 17 22  1  0  0  0  0
 18 19  1  0  0  0  0
 19 20  2  0  0  0  0
 20 21  1  0  0  0  0
 20 26  1  0  0  0  0
 21 22  2  0  0  0  0
 21 24  1  0  0  0  0
 22 23  1  0  0  0  0
 24 25  2  0  0  0  0
 25 26  1  0  0  0  0
M  END
>  <CHROM.1>
-146.95519508,-53.36833271,-178.61184094,-170.72111606,-161.56174115,-173.72379289
-140.37874241,129.48305146,67.18916230,-3.14509627,-1.65470424,0.18264224
-0.26309940

>  <Name>
ligand

>  <RI>
0

>  <Rbt.Current_Directory>
/home/itssahil/PROJECTS/Mol_Feturizer/Test_systems_manuscript/rnas/3npn

>  <Rbt.Executable>
rbdock ($Id: //depot/dev/client3/rdock/2013.1/src/exe/rbdock.cxx#4 $)

>  <Rbt.Library>
libRbt.so (2013.1, Build901 2013/11/27)

>  <Rbt.Parameter_File>
/export/apps/rDock/src/rDock_2013.1_src/data/scripts/dock_solv.prm

>  <Rbt.Receptor>
prm/pocket_docking_7.prm

>  <SCORE>
-25.8153

>  <SCORE.INTER>
-25.6696

>  <SCORE.INTER.CONST>
1

>  <SCORE.INTER.POLAR>
0

>  <SCORE.INTER.ROT>
7

>  <SCORE.INTER.SOLV>
18.3215

>  <SCORE.INTER.VDW>
-31.4869

>  <SCORE.INTER.norm>
-0.987294

>  <SCORE.INTRA>
-0.145665

>  <SCORE.INTRA.DIHEDRAL>
-0.75402

>  <SCORE.INTRA.DIHEDRAL.0>
4.37896

>  <SCORE.INTRA.POLAR>
0

>  <SCORE.INTRA.POLAR.0>
0

>  <SCORE.INTRA.REPUL>
0

>  <SCORE.INTRA.REPUL.0>
0

>  <SCORE.INTRA.SOLV>
-0.0746447

>  <SCORE.INTRA.SOLV.lig_0>
-50.5538

>  <SCORE.INTRA.VDW>
0.268667

>  <SCORE.INTRA.VDW.0>
-1.30673

>  <SCORE.INTRA.norm>
-0.00560249

>  <SCORE.RESTR>
0

>  <SCORE.RESTR.CAVITY>
0

>  <SCORE.RESTR.norm>
0

>  <SCORE.SYSTEM>
0

>  <SCORE.SYSTEM.CONST>
0

>  <SCORE.SYSTEM.DIHEDRAL>
0

>  <SCORE.SYSTEM.SOLV>
0

>  <SCORE.SYSTEM.norm>
0

>  <SCORE.heavy>
26

>  <SCORE.norm>
-0.992896

>  <RMSD>
9.261

$$$$
ligand
 OpenBabel02271912153D
libRbt.so/2013.1/901 2013/11/27
 26 28  0  0  0  0  0  0  0  0999 V2000
  134.1936   57.0690   -1.2895 N   0  0  0  0  0  0  0  0  0  0  0  0
  132.8738   56.7904   -0.6492 C   0  0  2  0  0  0  0  0  0  0  0  0
  132.4779   55.3564   -0.8544 C   0  0  0  0  0  0  0  0  0  0  0  0
  132.4982   54.5495    0.0741 O   0  0  0  0  0  0  0  0  0  0  0  0
  131.8003   57.7058   -1.2318 C   0  0  0  0  0  0  0  0  0  0  0  0
  132.1087   59.1892   -1.0537 C   0  0  0  0  0  0  0  0  0  0  0  0
  130.8808   60.1609   -1.8633 S   0  0  0  0  0  0  0  0  0  0  0  0
  131.3989   61.8062   -1.4946 C   0  0  0  0  0  0  0  0  0  0  0  0
  130.2523   62.6467   -0.9355 C   0  0  1  0  0  0  0  0  0  0  0  0
  130.7198   63.9358   -0.5326 O   0  0  0  0  0  0  0  0  0  0  0  0
  129.1894   62.8633   -2.0004 C   0  0  1  0  0  0  0  0  0  0  0  0
  127.8976   62.5520   -1.4699 O   0  0  0  0  0  0  0  0  0  0  0  0
  129.2851   64.3264   -2.3955 C   0  0  1  0  0  0  0  0  0  0  0  0
  128.0199   64.9854   -2.2721 O   0  0  0  0  0  0  0  0  0  0  0  0
  130.2943   64.9569   -1.4430 C   0  0  2  0  0  0  0  0  0  0  0  0
  132.1321   54.9516   -1.9633 O   0  0  0  0  0  0  0  0  0  0  0  0
  132.2637   66.6255   -6.0582 N   0  0  0  0  0  0  0  0  0  0  0  0
  131.0346   66.1539   -5.7675 C   0  0  0  0  0  0  0  0  0  0  0  0
  130.6652   65.7599   -4.5313 N   0  0  0  0  0  0  0  0  0  0  0  0
  131.5303   65.8137   -3.4828 C   0  0  0  0  0  0  0  0  0  0  0  0
  132.8931   66.3189   -3.7251 C   0  0  0  0  0  0  0  0  0  0  0  0
  133.2257   66.7358   -5.1110 C   0  0  0  0  0  0  0  0  0  0  0  0
  134.4576   67.2087   -5.4159 N   0  0  0  0  0  0  0  0  0  0  0  0
  133.5390   66.2753   -2.5474 N   0  0  0  0  0  0  0  0  0  0  0  0
  132.6706   65.7828   -1.6295 C   0  0  0  0  0  0  0  0  0  0  0  0
  131.4717   65.5044   -2.1795 N   0  0  0  0  0  0  0  0  0  0  0  0
  2  1  1  6  0  0  0
  2  3  1  0  0  0  0
  2  5  1  0  0  0  0
  3  4  1  0  0  0  0
  3 16  1  0  0  0  0
  5  6  1  0  0  0  0
  6  7  1  0  0  0  0
  7  8  1  0  0  0  0
  9  8  1  6  0  0  0
  9 10  1  0  0  0  0
  9 11  1  0  0  0  0
 10 15  1  0  0  0  0
 11 12  1  1  0  0  0
 11 13  1  0  0  0  0
 13 14  1  1  0  0  0
 13 15  1  0  0  0  0
 15 26  1  6  0  0  0
 17 18  2  0  0  0  0
 17 22  1  0  0  0  0
 18 19  1  0  0  0  0
 19 20  2  0  0  0  0
 20 21  1  0  0  0  0
 20 26  1  0  0  0  0
 21 22  2  0  0  0  0
 21 24  1  0  0  0  0
 22 23  1  0  0  0  0
 24 25  2  0  0  0  0
 25 26  1  0  0  0  0
M  END
>  <CHROM.1>
108.09520648,-58.71946936,175.66452425,178.40675151,-129.63728396,174.81538928
138.63286624,131.45512114,62.30711277,-2.30070784,-1.51068918,0.41662374
-0.31274277

>  <Name>
ligand

>  <RI>
0

>  <Rbt.Current_Directory>
/home/itssahil/PROJECTS/Mol_Feturizer/Test_systems_manuscript/rnas/3npn

>  <Rbt.Executable>
rbdock ($Id: //depot/dev/client3/rdock/2013.1/src/exe/rbdock.cxx#4 $)

>  <Rbt.Library>
libRbt.so (2013.1, Build901 2013/11/27)

>  <Rbt.Parameter_File>
/export/apps/rDock/src/rDock_2013.1_src/data/scripts/dock_solv.prm

>  <Rbt.Receptor>
prm/pocket_docking_6.prm

>  <SCORE>
-18.2701

>  <SCORE.INTER>
-18.2324

>  <SCORE.INTER.CONST>
1

>  <SCORE.INTER.POLAR>
0

>  <SCORE.INTER.ROT>
7

>  <SCORE.INTER.SOLV>
10.9457

>  <SCORE.INTER.VDW>
-24.0702

>  <SCORE.INTER.norm>
-0.701248

>  <SCORE.INTRA>
-0.0376269

>  <SCORE.INTRA.DIHEDRAL>
0.677167

>  <SCORE.INTRA.DIHEDRAL.0>
4.37896

>  <SCORE.INTRA.POLAR>
0

>  <SCORE.INTRA.POLAR.0>
0

>  <SCORE.INTRA.REPUL>
0

>  <SCORE.INTRA.REPUL.0>
0

>  <SCORE.INTRA.SOLV>
-0.0947968

>  <SCORE.INTRA.SOLV.lig_0>
-50.5538

>  <SCORE.INTRA.VDW>
-0.328812

>  <SCORE.INTRA.VDW.0>
-1.30673

>  <SCORE.INTRA.norm>
-0.00144719

>  <SCORE.RESTR>
0

>  <SCORE.RESTR.CAVITY>
0

>  <SCORE.RESTR.norm>
0

>  <SCORE.SYSTEM>
0

>  <SCORE.SYSTEM.CONST>
0

>  <SCORE.SYSTEM.DIHEDRAL>
0

>  <SCORE.SYSTEM.SOLV>
0

>  <SCORE.SYSTEM.norm>
0

>  <SCORE.heavy>
26

>  <SCORE.norm>
-0.702695

>  <RMSD>
9.301

$$$$
ligand
 OpenBabel02271912153D
libRbt.so/2013.1/901 2013/11/27
 26 28  0  0  0  0  0  0  0  0999 V2000
  137.3701   59.5571    1.1485 N   0  0  0  0  0  0  0  0  0  0  0  0
  136.2000   59.9355    0.3017 C   0  0  2  0  0  0  0  0  0  0  0  0
  134.9776   60.1414    1.1493 C   0  0  0  0  0  0  0  0  0  0  0  0
  134.8325   59.5454    2.2158 O   0  0  0  0  0  0  0  0  0  0  0  0
  135.9260   58.8503   -0.7360 C   0  0  0  0  0  0  0  0  0  0  0  0
  135.6296   57.4861   -0.1207 C   0  0  0  0  0  0  0  0  0  0  0  0
  133.8966   57.3116    0.1507 S   0  0  0  0  0  0  0  0  0  0  0  0
  133.2606   57.2647   -1.4939 C   0  0  0  0  0  0  0  0  0  0  0  0
  131.8052   56.8014   -1.5229 C   0  0  1  0  0  0  0  0  0  0  0  0
  130.9864   57.6552   -0.7210 O   0  0  0  0  0  0  0  0  0  0  0  0
  131.2627   56.8562   -2.9418 C   0  0  1  0  0  0  0  0  0  0  0  0
  130.6214   55.6190   -3.2664 O   0  0  0  0  0  0  0  0  0  0  0  0
  130.2776   58.0114   -2.9687 C   0  0  1  0  0  0  0  0  0  0  0  0
  128.9953   57.5943   -3.4502 O   0  0  0  0  0  0  0  0  0  0  0  0
  130.1585   58.4996   -1.5297 C   0  0  2  0  0  0  0  0  0  0  0  0
  134.0843   60.9069    0.7899 O   0  0  0  0  0  0  0  0  0  0  0  0
  128.8077   63.6072   -1.7582 N   0  0  0  0  0  0  0  0  0  0  0  0
  128.0551   62.5080   -1.9662 C   0  0  0  0  0  0  0  0  0  0  0  0
  128.5366   61.2514   -1.8727 N   0  0  0  0  0  0  0  0  0  0  0  0
  129.8388   61.0135   -1.5589 C   0  0  0  0  0  0  0  0  0  0  0  0
  130.7225   62.1676   -1.3174 C   0  0  0  0  0  0  0  0  0  0  0  0
  130.1206   63.5198   -1.4365 C   0  0  0  0  0  0  0  0  0  0  0  0
  130.8669   64.6314   -1.2324 N   0  0  0  0  0  0  0  0  0  0  0  0
  131.9377   61.6726   -1.0267 N   0  0  0  0  0  0  0  0  0  0  0  0
  131.8452   60.3206   -1.0796 C   0  0  0  0  0  0  0  0  0  0  0  0
  130.5979   59.9202   -1.3971 N   0  0  0  0  0  0  0  0  0  0  0  0
  2  1  1  1  0  0  0
  2  3  1  0  0  0  0
  2  5  1  0  0  0  0
  3  4  1  0  0  0  0
  3 16  1  0  0  0  0
  5  6  1  0  0  0  0
  6  7  1  0  0  0  0
  7  8  1  0  0  0  0
  9  8  1  6  0  0  0
  9 10  1  0  0  0  0
  9 11  1  0  0  0  0
 10 15  1  0  0  0  0
 11 12  1  1  0  0  0
 11 13  1  0  0  0  0
 13 14  1  1  0  0  0
 13 15  1  0  0  0  0
 15 26  1  6  0  0  0
 17 18  2  0  0  0  0
 17 22  1  0  0  0  0
 18 19  1  0  0  0  0
 19 20  2  0  0  0  0
 20 21  1  0  0  0  0
 20 26  1  0  0  0  0
 21 22  2  0  0  0  0
 21 24  1  0  0  0  0
 22 23  1  0  0  0  0
 24 25  2  0  0  0  0
 25 26  1  0  0  0  0
M  END
>  <CHROM.1>
-28.21505767,59.25711196,90.45240435,67.24434504,167.06773205,57.79559358
-153.16036273,132.10974201,59.52454712,-0.99209476,-0.32697373,-0.47134320
0.23974747

>  <Name>
ligand

>  <RI>
0

>  <Rbt.Current_Directory>
/home/itssahil/PROJECTS/Mol_Feturizer/Test_systems_manuscript/rnas/3npn

>  <Rbt.Executable>
rbdock ($Id: //depot/dev/client3/rdock/2013.1/src/exe/rbdock.cxx#4 $)

>  <Rbt.Library>
libRbt.so (2013.1, Build901 2013/11/27)

>  <Rbt.Parameter_File>
/export/apps/rDock/src/rDock_2013.1_src/data/scripts/dock_solv.prm

>  <Rbt.Receptor>
prm/pocket_docking_7.prm

>  <SCORE>
-22.226

>  <SCORE.INTER>
-21.2802

>  <SCORE.INTER.CONST>
1

>  <SCORE.INTER.POLAR>
0

>  <SCORE.INTER.ROT>
7

>  <SCORE.INTER.SOLV>
11.4163

>  <SCORE.INTER.VDW>
-26.2589

>  <SCORE.INTER.norm>
-0.81847

>  <SCORE.INTRA>
-0.945738

>  <SCORE.INTRA.DIHEDRAL>
1.46697

>  <SCORE.INTRA.DIHEDRAL.0>
4.37896

>  <SCORE.INTRA.POLAR>
0

>  <SCORE.INTRA.POLAR.0>
0

>  <SCORE.INTRA.REPUL>
0

>  <SCORE.INTRA.REPUL.0>
0

>  <SCORE.INTRA.SOLV>
0.208027

>  <SCORE.INTRA.SOLV.lig_0>
-50.5538

>  <SCORE.INTRA.VDW>
-1.78323

>  <SCORE.INTRA.VDW.0>
-1.30673

>  <SCORE.INTRA.norm>
-0.0363745

>  <SCORE.RESTR>
0

>  <SCORE.RESTR.CAVITY>
0

>  <SCORE.RESTR.norm>
0

>  <SCORE.SYSTEM>
0

>  <SCORE.SYSTEM.CONST>
0

>  <SCORE.SYSTEM.DIHEDRAL>
0

>  <SCORE.SYSTEM.SOLV>
0

>  <SCORE.SYSTEM.norm>
0

>  <SCORE.heavy>
26

>  <SCORE.norm>
-0.854844

>  <RMSD>
9.344

$$$$
ligand
 OpenBabel02271912153D
libRbt.so/2013.1/901 2013/11/27
 26 28  0  0  0  0  0  0  0  0999 V2000
  133.1338   56.5650   -0.4084 N   0  0  0  0  0  0  0  0  0  0  0  0
  132.2556   55.9400   -1.4416 C   0  0  2  0  0  0  0  0  0  0  0  0
  133.0573   55.0569   -2.3541 C   0  0  0  0  0  0  0  0  0  0  0  0
  134.1358   55.4276   -2.8157 O   0  0  0  0  0  0  0  0  0  0  0  0
  131.5536   57.0194   -2.2613 C   0  0  0  0  0  0  0  0  0  0  0  0
  130.4997   57.7891   -1.4713 C   0  0  0  0  0  0  0  0  0  0  0  0
  129.8142   59.0694   -2.4703 S   0  0  0  0  0  0  0  0  0  0  0  0
  130.8106   60.4591   -2.0377 C   0  0  0  0  0  0  0  0  0  0  0  0
  130.0399   61.4605   -1.1792 C   0  0  1  0  0  0  0  0  0  0  0  0
  130.9295   62.4101   -0.5881 O   0  0  0  0  0  0  0  0  0  0  0  0
  129.0516   62.2371   -2.0341 C   0  0  1  0  0  0  0  0  0  0  0  0
  127.7610   62.2283   -1.4165 O   0  0  0  0  0  0  0  0  0  0  0  0
  129.6046   63.6477   -2.1355 C   0  0  1  0  0  0  0  0  0  0  0  0
  128.6379   64.6195   -1.7215 O   0  0  0  0  0  0  0  0  0  0  0  0
  130.8166   63.6947   -1.2124 C   0  0  2  0  0  0  0  0  0  0  0  0
  132.6471   53.9412   -2.6704 O   0  0  0  0  0  0  0  0  0  0  0  0
  133.0879   66.4813   -5.0906 N   0  0  0  0  0  0  0  0  0  0  0  0
  131.8057   66.4735   -4.6740 C   0  0  0  0  0  0  0  0  0  0  0  0
  131.3605   65.7035   -3.6597 N   0  0  0  0  0  0  0  0  0  0  0  0
  132.1963   64.8693   -2.9842 C   0  0  0  0  0  0  0  0  0  0  0  0
  133.6138   64.8245   -3.3842 C   0  0  0  0  0  0  0  0  0  0  0  0
  134.0300   65.7017   -4.5076 C   0  0  0  0  0  0  0  0  0  0  0  0
  135.3144   65.7165   -4.9367 N   0  0  0  0  0  0  0  0  0  0  0  0
  134.2188   63.9400   -2.5731 N   0  0  0  0  0  0  0  0  0  0  0  0
  133.2743   63.4562   -1.7285 C   0  0  0  0  0  0  0  0  0  0  0  0
  132.0664   64.0045   -1.9679 N   0  0  0  0  0  0  0  0  0  0  0  0
  2  1  1  1  0  0  0
  2  3  1  0  0  0  0
  2  5  1  0  0  0  0
  3  4  1  0  0  0  0
  3 16  1  0  0  0  0
  5  6  1  0  0  0  0
  6  7  1  0  0  0  0
  7  8  1  0  0  0  0
  9  8  1  6  0  0  0
  9 10  1  0  0  0  0
  9 11  1  0  0  0  0
 10 15  1  0  0  0  0
 11 12  1  1  0  0  0
 11 13  1  0  0  0  0
 13 14  1  1  0  0  0
 13 15  1  0  0  0  0
 15 26  1  6  0  0  0
 17 18  2  0  0  0  0
 17 22  1  0  0  0  0
 18 19  1  0  0  0  0
 19 20  2  0  0  0  0
 20 21  1  0  0  0  0
 20 26  1  0  0  0  0
 21 22  2  0  0  0  0
 21 24  1  0  0  0  0
 22 23  1  0  0  0  0
 24 25  2  0  0  0  0
 25 26  1  0  0  0  0
M  END
>  <CHROM.1>
-45.06730482,-69.58929748,176.72414081,-93.82662801,-107.62489531,166.70696349
157.75763579,131.61884751,61.41576190,-2.42062686,-1.57697269,0.37243815
-0.14735679

>  <Name>
ligand

>  <RI>
0

>  <Rbt.Current_Directory>
/home/itssahil/PROJECTS/Mol_Feturizer/Test_systems_manuscript/rnas/3npn

>  <Rbt.Executable>
rbdock ($Id: //depot/dev/client3/rdock/2013.1/src/exe/rbdock.cxx#4 $)

>  <Rbt.Library>
libRbt.so (2013.1, Build901 2013/11/27)

>  <Rbt.Parameter_File>
/export/apps/rDock/src/rDock_2013.1_src/data/scripts/dock_solv.prm

>  <Rbt.Receptor>
prm/pocket_docking_7.prm

>  <SCORE>
-14.7864

>  <SCORE.INTER>
-15.103

>  <SCORE.INTER.CONST>
1

>  <SCORE.INTER.POLAR>
0

>  <SCORE.INTER.ROT>
7

>  <SCORE.INTER.SOLV>
12.402

>  <SCORE.INTER.VDW>
-22.4693

>  <SCORE.INTER.norm>
-0.580883

>  <SCORE.INTRA>
0.316531

>  <SCORE.INTRA.DIHEDRAL>
2.86231

>  <SCORE.INTRA.DIHEDRAL.0>
4.37896

>  <SCORE.INTRA.POLAR>
0

>  <SCORE.INTRA.POLAR.0>
0

>  <SCORE.INTRA.REPUL>
0

>  <SCORE.INTRA.REPUL.0>
0

>  <SCORE.INTRA.SOLV>
-0.224701

>  <SCORE.INTRA.SOLV.lig_0>
-50.5538

>  <SCORE.INTRA.VDW>
-1.00228

>  <SCORE.INTRA.VDW.0>
-1.30673

>  <SCORE.INTRA.norm>
0.0121743

>  <SCORE.RESTR>
0

>  <SCORE.RESTR.CAVITY>
0

>  <SCORE.RESTR.norm>
0

>  <SCORE.SYSTEM>
0

>  <SCORE.SYSTEM.CONST>
0

>  <SCORE.SYSTEM.DIHEDRAL>
0

>  <SCORE.SYSTEM.SOLV>
0

>  <SCORE.SYSTEM.norm>
0

>  <SCORE.heavy>
26

>  <SCORE.norm>
-0.568709

>  <RMSD>
9.358

$$$$
ligand
 OpenBabel02271912153D
libRbt.so/2013.1/901 2013/11/27
 26 28  0  0  0  0  0  0  0  0999 V2000
  131.4755   62.9054   -0.6380 N   0  0  0  0  0  0  0  0  0  0  0  0
  130.0481   63.1604   -0.9942 C   0  0  2  0  0  0  0  0  0  0  0  0
  129.4543   61.9681   -1.6878 C   0  0  0  0  0  0  0  0  0  0  0  0
  130.1679   61.0949   -2.1797 O   0  0  0  0  0  0  0  0  0  0  0  0
  129.9401   64.3848   -1.8991 C   0  0  0  0  0  0  0  0  0  0  0  0
  128.5008   64.8140   -2.1665 C   0  0  0  0  0  0  0  0  0  0  0  0
  128.4592   66.0064   -3.4642 S   0  0  0  0  0  0  0  0  0  0  0  0
  128.9120   67.4910   -2.6263 C   0  0  0  0  0  0  0  0  0  0  0  0
  127.7768   68.5132   -2.6364 C   0  0  1  0  0  0  0  0  0  0  0  0
  128.2006   69.7457   -2.0499 O   0  0  0  0  0  0  0  0  0  0  0  0
  127.3512   68.8142   -4.0643 C   0  0  1  0  0  0  0  0  0  0  0  0
  125.9284   68.7161   -4.1796 O   0  0  0  0  0  0  0  0  0  0  0  0
  127.8319   70.2248   -4.3555 C   0  0  1  0  0  0  0  0  0  0  0  0
  126.7606   71.0592   -4.8100 O   0  0  0  0  0  0  0  0  0  0  0  0
  128.3874   70.7624   -3.0419 C   0  0  2  0  0  0  0  0  0  0  0  0
  128.2349   61.8418   -1.7893 O   0  0  0  0  0  0  0  0  0  0  0  0
  132.1184   73.5145   -5.5854 N   0  0  0  0  0  0  0  0  0  0  0  0
  130.7878   73.4685   -5.7982 C   0  0  0  0  0  0  0  0  0  0  0  0
  129.9454   72.7135   -5.0633 N   0  0  0  0  0  0  0  0  0  0  0  0
  130.3983   71.9351   -4.0437 C   0  0  0  0  0  0  0  0  0  0  0  0
  131.8427   71.9345   -3.7521 C   0  0  0  0  0  0  0  0  0  0  0  0
  132.7069   72.7921   -4.6023 C   0  0  0  0  0  0  0  0  0  0  0  0
  134.0450   72.8448   -4.3999 N   0  0  0  0  0  0  0  0  0  0  0  0
  132.0295   71.1009   -2.7146 N   0  0  0  0  0  0  0  0  0  0  0  0
  130.8142   70.6065   -2.3712 C   0  0  0  0  0  0  0  0  0  0  0  0
  129.8373   71.0981   -3.1592 N   0  0  0  0  0  0  0  0  0  0  0  0
  2  1  1  6  0  0  0
  2  3  1  0  0  0  0
  2  5  1  0  0  0  0
  3  4  1  0  0  0  0
  3 16  1  0  0  0  0
  5  6  1  0  0  0  0
  6  7  1  0  0  0  0
  7  8  1  0  0  0  0
  9  8  1  6  0  0  0
  9 10  1  0  0  0  0
  9 11  1  0  0  0  0
 10 15  1  0  0  0  0
 11 12  1  1  0  0  0
 11 13  1  0  0  0  0
 13 14  1  1  0  0  0
 13 15  1  0  0  0  0
 15 26  1  6  0  0  0
 17 18  2  0  0  0  0
 17 22  1  0  0  0  0
 18 19  1  0  0  0  0
 19 20  2  0  0  0  0
 20 21  1  0  0  0  0
 20 26  1  0  0  0  0
 21 22  2  0  0  0  0
 21 24  1  0  0  0  0
 22 23  1  0  0  0  0
 24 25  2  0  0  0  0
 25 26  1  0  0  0  0
M  END
>  <CHROM.1>
-17.42966879,-172.83449384,-168.42381159,-79.86323213,-115.87105854,-175.26689067
175.14217055,129.55941157,68.36042554,-3.22599785,-1.72456704,-0.13715051
-0.29048735

>  <Name>
ligand

>  <RI>
0

>  <Rbt.Current_Directory>
/home/itssahil/PROJECTS/Mol_Feturizer/Test_systems_manuscript/rnas/3npn

>  <Rbt.Executable>
rbdock ($Id: //depot/dev/client3/rdock/2013.1/src/exe/rbdock.cxx#4 $)

>  <Rbt.Library>
libRbt.so (2013.1, Build901 2013/11/27)

>  <Rbt.Parameter_File>
/export/apps/rDock/src/rDock_2013.1_src/data/scripts/dock_solv.prm

>  <Rbt.Receptor>
prm/pocket_docking_8.prm

>  <SCORE>
-22.8538

>  <SCORE.INTER>
-23.1251

>  <SCORE.INTER.CONST>
1

>  <SCORE.INTER.POLAR>
0

>  <SCORE.INTER.ROT>
7

>  <SCORE.INTER.SOLV>
13.0912

>  <SCORE.INTER.VDW>
-28.0471

>  <SCORE.INTER.norm>
-0.889425

>  <SCORE.INTRA>
0.271258

>  <SCORE.INTRA.DIHEDRAL>
1.99233

>  <SCORE.INTRA.DIHEDRAL.0>
4.37896

>  <SCORE.INTRA.POLAR>
0

>  <SCORE.INTRA.POLAR.0>
0

>  <SCORE.INTRA.REPUL>
0

>  <SCORE.INTRA.REPUL.0>
0

>  <SCORE.INTRA.SOLV>
-0.786135

>  <SCORE.INTRA.SOLV.lig_0>
-50.5538

>  <SCORE.INTRA.VDW>
-0.331838

>  <SCORE.INTRA.VDW.0>
-1.30673

>  <SCORE.INTRA.norm>
0.010433

>  <SCORE.RESTR>
0

>  <SCORE.RESTR.CAVITY>
0

>  <SCORE.RESTR.norm>
0

>  <SCORE.SYSTEM>
0

>  <SCORE.SYSTEM.CONST>
0

>  <SCORE.SYSTEM.DIHEDRAL>
0

>  <SCORE.SYSTEM.SOLV>
0

>  <SCORE.SYSTEM.norm>
0

>  <SCORE.heavy>
26

>  <SCORE.norm>
-0.878992

>  <RMSD>
9.429

$$$$
ligand
 OpenBabel02271912153D
libRbt.so/2013.1/901 2013/11/27
 26 28  0  0  0  0  0  0  0  0999 V2000
  131.3222   63.2895   -1.5908 N   0  0  0  0  0  0  0  0  0  0  0  0
  129.9154   62.8739   -1.3128 C   0  0  2  0  0  0  0  0  0  0  0  0
  129.6720   61.4727   -1.7949 C   0  0  0  0  0  0  0  0  0  0  0  0
  128.5350   61.0687   -2.0351 O   0  0  0  0  0  0  0  0  0  0  0  0
  128.9382   63.8268   -1.9961 C   0  0  0  0  0  0  0  0  0  0  0  0
  129.1154   65.2815   -1.5719 C   0  0  0  0  0  0  0  0  0  0  0  0
  127.8218   66.2683   -2.2500 S   0  0  0  0  0  0  0  0  0  0  0  0
  128.4037   67.9070   -1.9545 C   0  0  0  0  0  0  0  0  0  0  0  0
  127.4077   68.9564   -2.4451 C   0  0  1  0  0  0  0  0  0  0  0  0
  127.8622   70.2733   -2.1262 O   0  0  0  0  0  0  0  0  0  0  0  0
  127.2638   68.8809   -3.9565 C   0  0  1  0  0  0  0  0  0  0  0  0
  125.8786   68.8442   -4.3128 O   0  0  0  0  0  0  0  0  0  0  0  0
  127.9411   70.1248   -4.5038 C   0  0  1  0  0  0  0  0  0  0  0  0
  127.0613   70.8681   -5.3544 O   0  0  0  0  0  0  0  0  0  0  0  0
  128.3251   70.9656   -3.2919 C   0  0  2  0  0  0  0  0  0  0  0  0
  130.6077   60.6897   -1.9518 O   0  0  0  0  0  0  0  0  0  0  0  0
  132.6091   73.3036   -5.3279 N   0  0  0  0  0  0  0  0  0  0  0  0
  131.3216   73.3737   -5.7218 C   0  0  0  0  0  0  0  0  0  0  0  0
  130.3198   72.7168   -5.1015 N   0  0  0  0  0  0  0  0  0  0  0  0
  130.5547   71.9255   -4.0201 C   0  0  0  0  0  0  0  0  0  0  0  0
  131.9393   71.8005   -3.5320 C   0  0  0  0  0  0  0  0  0  0  0  0
  132.9878   72.5547   -4.2646 C   0  0  0  0  0  0  0  0  0  0  0  0
  134.2848   72.4903   -3.8801 N   0  0  0  0  0  0  0  0  0  0  0  0
  131.9041   70.9789   -2.4690 N   0  0  0  0  0  0  0  0  0  0  0  0
  130.6125   70.6057   -2.2908 C   0  0  0  0  0  0  0  0  0  0  0  0
  129.8024   71.1649   -3.2118 N   0  0  0  0  0  0  0  0  0  0  0  0
  2  1  1  6  0  0  0
  2  3  1  0  0  0  0
  2  5  1  0  0  0  0
  3  4  1  0  0  0  0
  3 16  1  0  0  0  0
  5  6  1  0  0  0  0
  6  7  1  0  0  0  0
  7  8  1  0  0  0  0
  9  8  1  6  0  0  0
  9 10  1  0  0  0  0
  9 11  1  0  0  0  0
 10 15  1  0  0  0  0
 11 12  1  1  0  0  0
 11 13  1  0  0  0  0
 13 14  1  6  0  0  0
 13 15  1  0  0  0  0
 15 26  1  1  0  0  0
 17 18  2  0  0  0  0
 17 22  1  0  0  0  0
 18 19  1  0  0  0  0
 19 20  2  0  0  0  0
 20 21  1  0  0  0  0
 20 26  1  0  0  0  0
 21 22  2  0  0  0  0
 21 24  1  0  0  0  0
 22 23  1  0  0  0  0
 24 25  2  0  0  0  0
 25 26  1  0  0  0  0
M  END
>  <CHROM.1>
-158.22620758,-57.70142572,-172.84560002,-167.90566245,-178.82398117,176.62006987
-170.15357812,129.54470103,68.33606987,-3.10654751,-1.73448298,-0.06713358
-0.26438700

>  <Name>
ligand

>  <RI>
0

>  <Rbt.Current_Directory>
/home/itssahil/PROJECTS/Mol_Feturizer/Test_systems_manuscript/rnas/3npn

>  <Rbt.Executable>
rbdock ($Id: //depot/dev/client3/rdock/2013.1/src/exe/rbdock.cxx#4 $)

>  <Rbt.Library>
libRbt.so (2013.1, Build901 2013/11/27)

>  <Rbt.Parameter_File>
/export/apps/rDock/src/rDock_2013.1_src/data/scripts/dock_solv.prm

>  <Rbt.Receptor>
prm/pocket_docking_7.prm

>  <SCORE>
-26.8918

>  <SCORE.INTER>
-26.0448

>  <SCORE.INTER.CONST>
1

>  <SCORE.INTER.POLAR>
0

>  <SCORE.INTER.ROT>
7

>  <SCORE.INTER.SOLV>
12.9806

>  <SCORE.INTER.VDW>
-29.9568

>  <SCORE.INTER.norm>
-1.00172

>  <SCORE.INTRA>
-0.846965

>  <SCORE.INTRA.DIHEDRAL>
-1.24912

>  <SCORE.INTRA.DIHEDRAL.0>
4.37896

>  <SCORE.INTRA.POLAR>
0

>  <SCORE.INTRA.POLAR.0>
0

>  <SCORE.INTRA.REPUL>
0

>  <SCORE.INTRA.REPUL.0>
0

>  <SCORE.INTRA.SOLV>
-0.124411

>  <SCORE.INTRA.SOLV.lig_0>
-50.5538

>  <SCORE.INTRA.VDW>
-0.160199

>  <SCORE.INTRA.VDW.0>
-1.30673

>  <SCORE.INTRA.norm>
-0.0325756

>  <SCORE.RESTR>
0

>  <SCORE.RESTR.CAVITY>
0

>  <SCORE.RESTR.norm>
0

>  <SCORE.SYSTEM>
0

>  <SCORE.SYSTEM.CONST>
0

>  <SCORE.SYSTEM.DIHEDRAL>
0

>  <SCORE.SYSTEM.SOLV>
0

>  <SCORE.SYSTEM.norm>
0

>  <SCORE.heavy>
26

>  <SCORE.norm>
-1.0343

>  <RMSD>
9.464

$$$$
ligand
 OpenBabel02271912153D
libRbt.so/2013.1/901 2013/11/27
 26 28  0  0  0  0  0  0  0  0999 V2000
  138.3773   58.0837    0.4171 N   0  0  0  0  0  0  0  0  0  0  0  0
  137.7681   57.7597   -0.9069 C   0  0  2  0  0  0  0  0  0  0  0  0
  137.6225   59.0002   -1.7407 C   0  0  0  0  0  0  0  0  0  0  0  0
  137.4029   60.0947   -1.2235 O   0  0  0  0  0  0  0  0  0  0  0  0
  136.4006   57.1096   -0.7144 C   0  0  0  0  0  0  0  0  0  0  0  0
  135.4195   57.9832    0.0613 C   0  0  0  0  0  0  0  0  0  0  0  0
  133.8679   57.1600    0.2102 S   0  0  0  0  0  0  0  0  0  0  0  0
  133.2514   57.2165   -1.4414 C   0  0  0  0  0  0  0  0  0  0  0  0
  131.7945   56.7632   -1.5156 C   0  0  1  0  0  0  0  0  0  0  0  0
  130.9622   57.6017   -0.7113 O   0  0  0  0  0  0  0  0  0  0  0  0
  131.2852   56.8572   -2.9448 C   0  0  1  0  0  0  0  0  0  0  0  0
  130.6445   55.6326   -3.3152 O   0  0  0  0  0  0  0  0  0  0  0  0
  130.3076   58.0189   -2.9649 C   0  0  1  0  0  0  0  0  0  0  0  0
  129.0344   57.6221   -3.4862 O   0  0  0  0  0  0  0  0  0  0  0  0
  130.1580   58.4714   -1.5172 C   0  0  2  0  0  0  0  0  0  0  0  0
  137.7101   58.9484   -2.9666 O   0  0  0  0  0  0  0  0  0  0  0  0
  128.8650   63.5946   -1.7294 N   0  0  0  0  0  0  0  0  0  0  0  0
  128.1146   62.5062   -1.9940 C   0  0  0  0  0  0  0  0  0  0  0  0
  128.5798   61.2437   -1.8969 N   0  0  0  0  0  0  0  0  0  0  0  0
  129.8620   60.9883   -1.5208 C   0  0  0  0  0  0  0  0  0  0  0  0
  130.7422   62.1299   -1.2151 C   0  0  0  0  0  0  0  0  0  0  0  0
  130.1589   63.4895   -1.3423 C   0  0  0  0  0  0  0  0  0  0  0  0
  130.9033   64.5905   -1.0818 N   0  0  0  0  0  0  0  0  0  0  0  0
  131.9365   61.6187   -0.8708 N   0  0  0  0  0  0  0  0  0  0  0  0
  131.8351   60.2687   -0.9510 C   0  0  0  0  0  0  0  0  0  0  0  0
  130.6023   59.8854   -1.3385 N   0  0  0  0  0  0  0  0  0  0  0  0
  2  1  1  1  0  0  0
  2  3  1  0  0  0  0
  2  5  1  0  0  0  0
  3  4  1  0  0  0  0
  3 16  1  0  0  0  0
  5  6  1  0  0  0  0
  6  7  1  0  0  0  0
  7  8  1  0  0  0  0
  9  8  1  6  0  0  0
  9 10  1  0  0  0  0
  9 11  1  0  0  0  0
 10 15  1  0  0  0  0
 11 12  1  1  0  0  0
 11 13  1  0  0  0  0
 13 14  1  1  0  0  0
 13 15  1  0  0  0  0
 15 26  1  6  0  0  0
 17 18  2  0  0  0  0
 17 22  1  0  0  0  0
 18 19  1  0  0  0  0
 19 20  2  0  0  0  0
 20 21  1  0  0  0  0
 20 26  1  0  0  0  0
 21 22  2  0  0  0  0
 21 24  1  0  0  0  0
 22 23  1  0  0  0  0
 24 25  2  0  0  0  0
 25 26  1  0  0  0  0
M  END
>  <CHROM.1>
-32.33266433,58.50703948,179.14441912,-70.53536718,-170.37132405,59.93885091
-154.86833887,132.57002836,59.22345653,-1.42382952,-0.41172035,-0.17996900
0.12407013

>  <Name>
ligand

>  <RI>
0

>  <Rbt.Current_Directory>
/home/itssahil/PROJECTS/Mol_Feturizer/Test_systems_manuscript/rnas/3npn

>  <Rbt.Executable>
rbdock ($Id: //depot/dev/client3/rdock/2013.1/src/exe/rbdock.cxx#4 $)

>  <Rbt.Library>
libRbt.so (2013.1, Build901 2013/11/27)

>  <Rbt.Parameter_File>
/export/apps/rDock/src/rDock_2013.1_src/data/scripts/dock_solv.prm

>  <Rbt.Receptor>
prm/pocket_docking_8.prm

>  <SCORE>
-20.9145

>  <SCORE.INTER>
-19.2022

>  <SCORE.INTER.CONST>
1

>  <SCORE.INTER.POLAR>
0

>  <SCORE.INTER.ROT>
7

>  <SCORE.INTER.SOLV>
11.5093

>  <SCORE.INTER.VDW>
-24.9046

>  <SCORE.INTER.norm>
-0.738546

>  <SCORE.INTRA>
-1.71231

>  <SCORE.INTRA.DIHEDRAL>
-1.38773

>  <SCORE.INTRA.DIHEDRAL.0>
4.37896

>  <SCORE.INTRA.POLAR>
0

>  <SCORE.INTRA.POLAR.0>
0

>  <SCORE.INTRA.REPUL>
0

>  <SCORE.INTRA.REPUL.0>
0

>  <SCORE.INTRA.SOLV>
-0.22141

>  <SCORE.INTRA.SOLV.lig_0>
-50.5538

>  <SCORE.INTRA.VDW>
-0.907742

>  <SCORE.INTRA.VDW.0>
-1.30673

>  <SCORE.INTRA.norm>
-0.0658582

>  <SCORE.RESTR>
0

>  <SCORE.RESTR.CAVITY>
0

>  <SCORE.RESTR.norm>
0

>  <SCORE.SYSTEM>
0

>  <SCORE.SYSTEM.CONST>
0

>  <SCORE.SYSTEM.DIHEDRAL>
0

>  <SCORE.SYSTEM.SOLV>
0

>  <SCORE.SYSTEM.norm>
0

>  <SCORE.heavy>
26

>  <SCORE.norm>
-0.804404

>  <RMSD>
9.937

$$$$
ligand
 OpenBabel02271912153D
libRbt.so/2013.1/901 2013/11/27
 26 28  0  0  0  0  0  0  0  0999 V2000
  137.9193   59.3380    1.5796 N   0  0  0  0  0  0  0  0  0  0  0  0
  137.5232   58.5414    0.3805 C   0  0  2  0  0  0  0  0  0  0  0  0
  137.0807   59.4459   -0.7336 C   0  0  0  0  0  0  0  0  0  0  0  0
  136.4329   60.4671   -0.5075 O   0  0  0  0  0  0  0  0  0  0  0  0
  136.3942   57.5777    0.7359 C   0  0  0  0  0  0  0  0  0  0  0  0
  136.0003   56.6569   -0.4150 C   0  0  0  0  0  0  0  0  0  0  0  0
  134.6141   55.6719    0.0493 S   0  0  0  0  0  0  0  0  0  0  0  0
  133.3156   56.8630    0.1298 C   0  0  0  0  0  0  0  0  0  0  0  0
  132.0148   56.3201   -0.4591 C   0  0  1  0  0  0  0  0  0  0  0  0
  130.9416   57.2403   -0.2493 O   0  0  0  0  0  0  0  0  0  0  0  0
  132.1566   56.1248   -1.9600 C   0  0  1  0  0  0  0  0  0  0  0  0
  131.7023   54.8184   -2.3264 O   0  0  0  0  0  0  0  0  0  0  0  0
  131.3063   57.2051   -2.6045 C   0  0  1  0  0  0  0  0  0  0  0  0
  130.3615   56.6477   -3.5248 O   0  0  0  0  0  0  0  0  0  0  0  0
  130.5722   57.9021   -1.4650 C   0  0  2  0  0  0  0  0  0  0  0  0
  137.3486   59.1798   -1.9043 O   0  0  0  0  0  0  0  0  0  0  0  0
  128.9679   62.9157   -1.9698 N   0  0  0  0  0  0  0  0  0  0  0  0
  128.2795   61.7700   -2.1472 C   0  0  0  0  0  0  0  0  0  0  0  0
  128.8220   60.5461   -1.9816 N   0  0  0  0  0  0  0  0  0  0  0  0
  130.1246   60.3917   -1.6206 C   0  0  0  0  0  0  0  0  0  0  0  0
  130.9400   61.6006   -1.4087 C   0  0  0  0  0  0  0  0  0  0  0  0
  130.2732   62.9124   -1.6077 C   0  0  0  0  0  0  0  0  0  0  0  0
  130.9547   64.0699   -1.4350 N   0  0  0  0  0  0  0  0  0  0  0  0
  132.1696   61.1841   -1.0613 N   0  0  0  0  0  0  0  0  0  0  0  0
  132.1485   59.8281   -1.0535 C   0  0  0  0  0  0  0  0  0  0  0  0
  130.9336   59.3484   -1.3867 N   0  0  0  0  0  0  0  0  0  0  0  0
  2  1  1  1  0  0  0
  2  3  1  0  0  0  0
  2  5  1  0  0  0  0
  3  4  1  0  0  0  0
  3 16  1  0  0  0  0
  5  6  1  0  0  0  0
  6  7  1  0  0  0  0
  7  8  1  0  0  0  0
  9  8  1  6  0  0  0
  9 10  1  0  0  0  0
  9 11  1  0  0  0  0
 10 15  1  0  0  0  0
 11 12  1  1  0  0  0
 11 13  1  0  0  0  0
 13 14  1  6  0  0  0
 13 15  1  0  0  0  0
 15 26  1  1  0  0  0
 17 18  2  0  0  0  0
 17 22  1  0  0  0  0
 18 19  1  0  0  0  0
 19 20  2  0  0  0  0
 20 21  1  0  0  0  0
 20 26  1  0  0  0  0
 21 22  2  0  0  0  0
 21 24  1  0  0  0  0
 22 23  1  0  0  0  0
 24 25  2  0  0  0  0
 25 26  1  0  0  0  0
M  END
>  <CHROM.1>
-37.61889774,-175.90623156,-175.68087146,69.28040161,139.25030685,173.50001737
-127.57115276,132.81516430,58.78539554,-1.06136844,-0.48087568,-0.28421957
0.02834770

>  <Name>
ligand

>  <RI>
0

>  <Rbt.Current_Directory>
/home/itssahil/PROJECTS/Mol_Feturizer/Test_systems_manuscript/rnas/3npn

>  <Rbt.Executable>
rbdock ($Id: //depot/dev/client3/rdock/2013.1/src/exe/rbdock.cxx#4 $)

>  <Rbt.Library>
libRbt.so (2013.1, Build901 2013/11/27)

>  <Rbt.Parameter_File>
/export/apps/rDock/src/rDock_2013.1_src/data/scripts/dock_solv.prm

>  <Rbt.Receptor>
prm/pocket_docking_8.prm

>  <SCORE>
-19.8369

>  <SCORE.INTER>
-18.6988

>  <SCORE.INTER.CONST>
1

>  <SCORE.INTER.POLAR>
0

>  <SCORE.INTER.ROT>
7

>  <SCORE.INTER.SOLV>
10.4603

>  <SCORE.INTER.VDW>
-24.2193

>  <SCORE.INTER.norm>
-0.719183

>  <SCORE.INTRA>
-1.13816

>  <SCORE.INTRA.DIHEDRAL>
0.5252

>  <SCORE.INTRA.DIHEDRAL.0>
4.37896

>  <SCORE.INTRA.POLAR>
0

>  <SCORE.INTRA.POLAR.0>
0

>  <SCORE.INTRA.REPUL>
0

>  <SCORE.INTRA.REPUL.0>
0

>  <SCORE.INTRA.SOLV>
-0.884106

>  <SCORE.INTRA.SOLV.lig_0>
-50.5538

>  <SCORE.INTRA.VDW>
-0.958704

>  <SCORE.INTRA.VDW.0>
-1.30673

>  <SCORE.INTRA.norm>
-0.0437753

>  <SCORE.RESTR>
0

>  <SCORE.RESTR.CAVITY>
0

>  <SCORE.RESTR.norm>
0

>  <SCORE.SYSTEM>
0

>  <SCORE.SYSTEM.CONST>
0

>  <SCORE.SYSTEM.DIHEDRAL>
0

>  <SCORE.SYSTEM.SOLV>
0

>  <SCORE.SYSTEM.norm>
0

>  <SCORE.heavy>
26

>  <SCORE.norm>
-0.762959

>  <RMSD>
10.012

$$$$
