@<TRIPOS>MOLECULE
3npn_rdock.pdb
 1080 1209 0 0 0
SMALL
GASTEIGER

@<TRIPOS>ATOM
      1  P        128.0190   78.0250    9.3330 P.3     1  G1          0.1280
      2  C5'      126.5290   76.3510   10.7500 C.3     1  G1          0.1795
      3  O5'      127.3370   77.5310   10.7020 O.3     1  G1         -0.3259
      4  C4'      125.2020   76.5590   11.4720 C.3     1  G1          0.1772
      5  O4'      125.1270   77.8540   12.1270 O.3     1  G1         -0.3307
      6  C3'      123.9660   76.5620   10.5830 C.3     1  G1          0.1860
      7  O3'      123.6120   75.2460   10.1700 O.3     1  G1         -0.3112
      8  C2'      122.9390   77.1780   11.5280 C.3     1  G1          0.2309
      9  O2'      122.4570   76.2890   12.5200 O.3     1  G1         -0.2156
     10  C1'      123.7740   78.2870   12.1680 C.3     1  G1          0.2408
     11  N1       120.6750   82.1640   10.8770 N.ar    1  G1         -0.1709
     12  C2       120.3910   81.0400   11.6210 C.ar    1  G1          0.2606
     13  N2       119.1340   80.9310   12.0780 N.pl3   1  G1         -0.0859
     14  N3       121.2820   80.0910   11.8970 N.ar    1  G1         -0.1918
     15  C4       122.5070   80.3520   11.3620 C.ar    1  G1          0.1723
     16  C5       122.8830   81.4440   10.6060 C.ar    1  G1          0.1748
     17  C6       121.9240   82.4500   10.3200 C.ar    1  G1          0.3023
     18  O6       122.0790   83.4880    9.6650 O.2     1  G1         -0.2633
     19  N7       124.2190   81.3540   10.2400 N.ar    1  G1         -0.2173
     20  C8       124.6210   80.2320   10.7690 C.ar    1  G1          0.1817
     21  N9       123.6400   79.5670   11.4680 N.ar    1  G1         -0.2693
     22  OP1      127.9310   76.9630    8.3020 O.3     1  G1         -0.1955
     23  OP2      127.5140   79.3860    9.0360 O.co2   1  G1         -0.7863
     24  P        123.0660   74.9930    8.6840 P.3     2  G2          0.2141
     25  C5'      120.5660   74.7610    9.4700 C.3     2  G2          0.1812
     26  O5'      121.5570   75.5180    8.7790 O.3     2  G2         -0.3114
     27  C4'      119.3130   75.5840    9.7100 C.3     2  G2          0.1773
     28  O4'      119.6630   76.8570   10.3110 O.3     2  G2         -0.3307
     29  C3'      118.5300   75.9820    8.4670 C.3     2  G2          0.1860
     30  O3'      117.7080   74.9200    7.9990 O.3     2  G2         -0.3112
     31  C2'      117.7150   77.1480    9.0150 C.3     2  G2          0.2309
     32  O2'      116.6330   76.7470    9.8350 O.3     2  G2         -0.2156
     33  C1'      118.7830   77.8630    9.8380 C.3     2  G2          0.2408
     34  N1       118.6470   82.3960    7.4830 N.ar    2  G2         -0.1709
     35  C2       117.6480   81.7360    8.1630 C.ar    2  G2          0.2606
     36  N2       116.4570   82.3470    8.2350 N.pl3   2  G2         -0.0859
     37  N3       117.8090   80.5500    8.7380 N.ar    2  G2         -0.1918
     38  C4       119.0640   80.0590    8.5800 C.ar    2  G2          0.1723
     39  C5       120.1250   80.6390    7.9170 C.ar    2  G2          0.1748
     40  C6       119.9440   81.9080    7.3080 C.ar    2  G2          0.3023
     41  O6       120.7730   82.5770    6.6760 O.2     2  G2         -0.2633
     42  N7       121.2450   79.8220    7.9750 N.ar    2  G2         -0.2173
     43  C8       120.8470   78.7840    8.6590 C.ar    2  G2          0.1817
     44  N9       119.5340   78.8560    9.0630 N.ar    2  G2         -0.2693
     45  OP1      123.0480   73.5290    8.4510 O.3     2  G2         -0.4373
     46  OP2      123.8090   75.8690    7.7480 O.co2   2  G2         -0.5172
     47  P        117.3370   74.8090    6.4440 P.3     3  A3          0.2141
     48  C5'      115.0460   76.0820    6.6530 C.3     3  A3          0.1812
     49  O5'      116.3960   76.0800    6.2010 O.3     3  A3         -0.3114
     50  C4'      114.3810   77.4120    6.3570 C.3     3  A3          0.1773
     51  O4'      115.2030   78.4980    6.8460 O.3     3  A3         -0.3307
     52  C3'      114.2120   77.7420    4.8830 C.3     3  A3          0.1860
     53  O3'      113.0830   77.0690    4.3490 O.3     3  A3         -0.3112
     54  C2'      114.0310   79.2560    4.9290 C.3     3  A3          0.2309
     55  O2'      112.7260   79.6580    5.3050 O.3     3  A3         -0.2156
     56  C1'      115.0310   79.6360    6.0170 C.3     3  A3          0.2408
     57  N1       117.7780   83.2970    3.6150 N.ar    3  A3         -0.2040
     58  C2       116.4780   83.2310    3.9410 C.ar    3  A3          0.2016
     59  N3       115.8250   82.2490    4.5700 N.ar    3  A3         -0.2048
     60  C4       116.6530   81.2290    4.8700 C.ar    3  A3          0.1692
     61  C5       118.0100   81.1540    4.5940 C.ar    3  A3          0.1518
     62  C6       118.5860   82.2600    3.9320 C.ar    3  A3          0.1919
     63  N6       119.8790   82.3240    3.5990 N.pl3   3  A3         -0.1054
     64  N7       118.5400   79.9580    5.0470 N.ar    3  A3         -0.2193
     65  C8       117.5110   79.3430    5.5800 C.ar    3  A3          0.1816
     66  N9       116.3400   80.0490    5.5100 N.ar    3  A3         -0.2693
     67  OP1      116.5510   73.5670    6.2580 O.3     3  A3         -0.4373
     68  OP2      118.5740   75.0100    5.6530 O.co2   3  A3         -0.5172
     69  P        113.1780   76.3810    2.9080 P.3     4  C4          0.2141
     70  C5'      112.0080   78.4360    1.7690 C.3     4  C4          0.1812
     71  O5'      113.1790   77.6410    1.9230 O.3     4  C4         -0.3114
     72  C4'      112.3260   79.7740    1.1310 C.3     4  C4          0.1773
     73  O4'      113.2780   80.5070    1.9450 O.3     4  C4         -0.3307
     74  C3'      113.0310   79.7130   -0.2130 C.3     4  C4          0.1860
     75  O3'      112.1460   79.3720   -1.2640 O.3     4  C4         -0.3112
     76  C2'      113.5510   81.1430   -0.3040 C.3     4  C4          0.2309
     77  O2'      112.5380   82.0990   -0.5520 O.3     4  C4         -0.2156
     78  C1'      114.1020   81.3070    1.1110 C.3     4  C4          0.2420
     79  N1       115.5570   80.9070    1.2270 N.ar    4  C4         -0.2535
     80  C2       116.5610   81.8000    0.8070 C.ar    4  C4          0.3532
     81  O2       116.2470   82.9080    0.3540 O.2     4  C4         -0.2443
     82  N3       117.8650   81.4270    0.9100 N.ar    4  C4         -0.1739
     83  C4       118.1860   80.2260    1.3980 C.ar    4  C4          0.1759
     84  N4       119.4820   79.9120    1.4810 N.pl3   4  C4         -0.1070
     85  C5       117.1890   79.3000    1.8310 C.ar    4  C4          0.0566
     86  C6       115.9080   79.6780    1.7270 C.ar    4  C4          0.0850
     87  OP1      111.9370   75.5990    2.7120 O.2     4  C4         -0.5172
     88  OP2      114.4980   75.7210    2.7760 O.co2   4  C4         -0.4373
     89  P        112.7010   78.5190   -2.4990 P.3     5  G5          0.2141
     90  C5'      112.7120   80.6070   -4.0810 C.3     5  G5          0.1812
     91  O5'      113.4620   79.6300   -3.3630 O.3     5  G5         -0.3114
     92  C4'      113.5850   81.7600   -4.5420 C.3     5  G5          0.1773
     93  O4'      114.2820   82.3350   -3.4060 O.3     5  G5         -0.3307
     94  C3'      114.7080   81.4060   -5.5070 C.3     5  G5          0.1860
     95  O3'      114.2400   81.2670   -6.8420 O.3     5  G5         -0.3112
     96  C2'      115.6190   82.6130   -5.3230 C.3     5  G5          0.2309
     97  O2'      115.1370   83.7950   -5.9350 O.3     5  G5         -0.2156
     98  C1'      115.5830   82.7340   -3.8030 C.3     5  G5          0.2408
     99  N1       120.5250   82.0340   -2.8930 N.ar    5  G5         -0.1709
    100  C2       119.9020   83.0500   -3.5800 C.ar    5  G5          0.2606
    101  N2       120.6890   84.0060   -4.0950 N.pl3   5  G5         -0.0859
    102  N3       118.5900   83.1210   -3.7490 N.ar    5  G5         -0.1918
    103  C4       117.9460   82.0780   -3.1660 C.ar    5  G5          0.1723
    104  C5       118.4820   81.0200   -2.4620 C.ar    5  G5          0.1748
    105  C6       119.8850   80.9550   -2.2870 C.ar    5  G5          0.3023
    106  O6       120.5520   80.0950   -1.6930 O.2     5  G5         -0.2633
    107  N7       117.4850   80.1620   -2.0270 N.ar    5  G5         -0.2173
    108  C8       116.3870   80.7080   -2.4700 C.ar    5  G5          0.1817
    109  N9       116.5860   81.8770   -3.1660 N.ar    5  G5         -0.2693
    110  OP1      111.5320   78.0180   -3.2570 O.2     5  G5         -0.5172
    111  OP2      113.7140   77.5570   -2.0070 O.co2   5  G5         -0.4373
    112  P        114.8900   80.1640   -7.8080 P.3     6  A6          0.2141
    113  C5'      116.5490   81.9510   -8.7960 C.3     6  A6          0.1812
    114  O5'      116.3590   80.7360   -8.0770 O.3     6  A6         -0.3114
    115  C4'      118.0250   82.2730   -8.9310 C.3     6  A6          0.1773
    116  O4'      118.6090   82.5460   -7.6300 O.3     6  A6         -0.3307
    117  C3'      118.8890   81.1390   -9.4590 C.3     6  A6          0.1860
    118  O3'      118.7550   80.9990  -10.8620 O.3     6  A6         -0.3112
    119  C2'      120.2720   81.6090   -9.0220 C.3     6  A6          0.2309
    120  O2'      120.7880   82.6630   -9.8140 O.3     6  A6         -0.2156
    121  C1'      119.9540   82.0940   -7.6100 C.3     6  A6          0.2408
    122  N1       123.2260   79.1890   -4.8610 N.ar    6  A6         -0.2040
    123  C2       123.4400   80.1670   -5.7540 C.ar    6  A6          0.2016
    124  N3       122.5390   80.8860   -6.4300 N.ar    6  A6         -0.2048
    125  C4       121.2800   80.5120   -6.1230 C.ar    6  A6          0.1692
    126  C5       120.9080   79.5200   -5.2310 C.ar    6  A6          0.1518
    127  C6       121.9520   78.8330   -4.5730 C.ar    6  A6          0.1919
    128  N6       121.7390   77.8550   -3.6870 N.pl3   6  A6         -0.1054
    129  N7       119.5290   79.4080   -5.1670 N.ar    6  A6         -0.2193
    130  C8       119.1010   80.3190   -6.0080 C.ar    6  A6          0.1816
    131  N9       120.1010   81.0260   -6.6200 N.ar    6  A6         -0.2693
    132  OP1      114.1290   80.1830   -9.0790 O.2     6  A6         -0.5172
    133  OP2      115.0310   78.8980   -7.0490 O.co2   6  A6         -0.4373
    134  P        118.8190   79.5380  -11.5140 P.3     7  G7          0.2141
    135  C5'      121.2660   80.1520  -12.2500 C.3     7  G7          0.1812
    136  O5'      120.3930   79.2590  -11.5620 O.3     7  G7         -0.3114
    137  C4'      122.7150   79.8400  -11.9320 C.3     7  G7          0.1773
    138  O4'      122.9700   80.0450  -10.5200 O.3     7  G7         -0.3307
    139  C3'      123.1370   78.4000  -12.1780 C.3     7  G7          0.1860
    140  O3'      123.3940   78.2020  -13.5660 O.3     7  G7         -0.3112
    141  C2'      124.3850   78.3160  -11.3050 C.3     7  G7          0.2309
    142  O2'      125.5250   78.9040  -11.9050 O.3     7  G7         -0.2156
    143  C1'      123.9530   79.1240  -10.0790 C.3     7  G7          0.2408
    144  N1       124.9220   76.2890   -5.9180 N.ar    7  G7         -0.1709
    145  C2       125.8070   76.9720   -6.7260 C.ar    7  G7          0.2606
    146  N2       127.1040   76.8880   -6.3930 N.pl3   7  G7         -0.0859
    147  N3       125.4380   77.6820   -7.7910 N.ar    7  G7         -0.1918
    148  C4       124.0910   77.6610   -7.9920 C.ar    7  G7          0.1723
    149  C5       123.1340   77.0100   -7.2400 C.ar    7  G7          0.1748
    150  C6       123.5380   76.2570   -6.1070 C.ar    7  G7          0.3023
    151  O6       122.8240   75.6140   -5.3230 O.2     7  G7         -0.2633
    152  N7       121.8660   77.2270   -7.7580 N.ar    7  G7         -0.2173
    153  C8       122.0740   77.9890   -8.7950 C.ar    7  G7          0.1817
    154  N9       123.3980   78.2980   -9.0020 N.ar    7  G7         -0.2693
    155  OP1      118.2890   79.6370  -12.8910 O.2     7  G7         -0.5172
    156  OP2      118.2220   78.5640  -10.5720 O.co2   7  G7         -0.4373
    157  P        123.1500   76.7930  -14.2910 P.3     8  G8          0.2141
    158  C5'      120.5520   77.3460  -14.3750 C.3     8  G8          0.1812
    159  O5'      121.6050   76.4300  -14.0660 O.3     8  G8         -0.3114
    160  C4'      119.5570   76.7930  -15.3800 C.3     8  G8          0.1773
    161  O4'      120.2070   76.6770  -16.6680 O.3     8  G8         -0.3307
    162  C3'      119.0050   75.3970  -15.1130 C.3     8  G8          0.1860
    163  O3'      117.9090   75.4330  -14.2000 O.3     8  G8         -0.3112
    164  C2'      118.5560   74.9860  -16.5120 C.3     8  G8          0.2309
    165  O2'      117.3000   75.5280  -16.8770 O.3     8  G8         -0.2156
    166  C1'      119.6610   75.5830  -17.3820 C.3     8  G8          0.2408
    167  N1       120.9110   71.3590  -19.9640 N.ar    8  G8         -0.1709
    168  C2       119.6940   72.0000  -19.8710 C.ar    8  G8          0.2606
    169  N2       118.6700   71.4610  -20.5470 N.pl3   8  G8         -0.0859
    170  N3       119.4920   73.1020  -19.1600 N.ar    8  G8         -0.1918
    171  C4       120.6200   73.5270  -18.5340 C.ar    8  G8          0.1723
    172  C5       121.8770   72.9590  -18.5630 C.ar    8  G8          0.1748
    173  C6       122.0820   71.7820  -19.3280 C.ar    8  G8          0.3023
    174  O6       123.1290   71.1350  -19.4720 O.2     8  G8         -0.2633
    175  N7       122.7660   73.6940  -17.7900 N.ar    8  G8         -0.2173
    176  C8       122.0420   74.6710  -17.3190 C.ar    8  G8          0.1817
    177  N9       120.7290   74.6380  -17.7250 N.ar    8  G8         -0.2693
    178  OP1      123.9730   75.7850  -13.5900 O.3     8  G8         -0.4373
    179  OP2      123.3550   77.0210  -15.7380 O.co2   8  G8         -0.5172
    180  P        117.6640   74.2400  -13.1550 P.3     9  A9          0.2141
    181  C5'      116.0810   72.7840  -14.6800 C.3     9  A9          0.1812
    182  O5'      117.3620   72.9690  -14.0840 O.3     9  A9         -0.3114
    183  C4'      116.0820   71.6560  -15.7000 C.3     9  A9          0.1773
    184  O4'      117.2070   71.7680  -16.6080 O.3     9  A9         -0.3307
    185  C3'      116.2570   70.2450  -15.1590 C.3     9  A9          0.1860
    186  O3'      115.0730   69.7660  -14.5230 O.3     9  A9         -0.3112
    187  C2'      116.5520   69.4950  -16.4550 C.3     9  A9          0.2309
    188  O2'      115.3900   69.1830  -17.2030 O.3     9  A9         -0.2156
    189  C1'      117.4160   70.5010  -17.2150 C.3     9  A9          0.2408
    190  N1       121.0700   67.3450  -19.0650 N.ar    9  A9         -0.2040
    191  C2       119.7500   67.4140  -19.2930 C.ar    9  A9          0.2016
    192  N3       118.8600   68.2640  -18.7760 N.ar    9  A9         -0.2048
    193  C4       119.4420   69.1320  -17.9230 C.ar    9  A9          0.1692
    194  C5       120.7850   69.1800  -17.5880 C.ar    9  A9          0.1518
    195  C6       121.6300   68.2280  -18.2060 C.ar    9  A9          0.1919
    196  N6       122.9460   68.1550  -17.9810 N.pl3   9  A9         -0.1054
    197  N7       121.0250   70.2000  -16.6820 N.ar    9  A9         -0.2193
    198  C8       119.8430   70.7370  -16.4890 C.ar    9  A9          0.1816
    199  N9       118.8390   70.1450  -17.2070 N.ar    9  A9         -0.2693
    200  OP1      116.4550   74.5850  -12.3720 O.3     9  A9         -0.4373
    201  OP2      118.9360   73.9750  -12.4460 O.co2   9  A9         -0.5172
    202  P        115.1610   68.7150  -13.3120 P.3    10  G10         0.2141
    203  C5'      116.2350   66.3150  -13.6020 C.3    10  G10         0.1812
    204  O5'      116.3380   67.7220  -13.7610 O.3    10  G10        -0.3114
    205  C4'      115.6750   65.6500  -14.8490 C.3    10  G10         0.1773
    206  O4'      116.2650   66.2090  -16.0540 O.3    10  G10        -0.3307
    207  C3'      115.9610   64.1600  -14.9140 C.3    10  G10         0.1860
    208  O3'      114.8920   63.4510  -14.3060 O.3    10  G10        -0.3112
    209  C2'      116.0850   63.8900  -16.4120 C.3    10  G10         0.2309
    210  O2'      114.8370   63.6960  -17.0500 O.3    10  G10        -0.2156
    211  C1'      116.7430   65.1780  -16.9030 C.3    10  G10         0.2408
    212  N1       121.1120   62.9250  -18.4380 N.ar   10  G10        -0.1709
    213  C2       119.8120   62.5750  -18.7320 C.ar   10  G10         0.2606
    214  N2       119.6480   61.5050  -19.5250 N.pl3  10  G10        -0.0859
    215  N3       118.7460   63.2330  -18.2790 N.ar   10  G10        -0.1918
    216  C4       119.0810   64.2910  -17.4910 C.ar   10  G10         0.1723
    217  C5       120.3490   64.7140  -17.1440 C.ar   10  G10         0.1748
    218  C6       121.4750   64.0070  -17.6340 C.ar   10  G10         0.3023
    219  O6       122.6720   64.2450  -17.4230 O.2    10  G10        -0.2633
    220  N7       120.2930   65.8310  -16.3230 N.ar   10  G10        -0.2173
    221  C8       119.0170   66.0600  -16.1900 C.ar   10  G10         0.1817
    222  N9       118.2130   65.1700  -16.8680 N.ar   10  G10        -0.2693
    223  OP1      113.8770   67.9760  -13.2830 O.2    10  G10        -0.5172
    224  OP2      115.6000   69.4490  -12.1030 O.co2  10  G10        -0.4373
    225  P        115.1810   62.0770  -13.5420 P.3    11  C11         0.2141
    226  C5'      115.6450   59.7020  -14.5370 C.3    11  C11         0.1812
    227  O5'      115.3250   61.0620  -14.7700 O.3    11  C11        -0.3114
    228  C4'      116.6950   59.1890  -15.5070 C.3    11  C11         0.1773
    229  O4'      117.4150   60.2610  -16.1730 O.3    11  C11        -0.3307
    230  C3'      117.8230   58.4130  -14.8520 C.3    11  C11         0.1860
    231  O3'      117.3940   57.1310  -14.4380 O.3    11  C11        -0.3112
    232  C2'      118.8250   58.3700  -15.9980 C.3    11  C11         0.2309
    233  O2'      118.4720   57.4670  -17.0290 O.3    11  C11        -0.2156
    234  C1'      118.7320   59.8170  -16.4850 C.3    11  C11         0.2420
    235  N1       119.7640   60.7210  -15.8490 N.ar   11  C11        -0.2535
    236  C2       121.1380   60.5620  -16.1330 C.ar   11  C11         0.3532
    237  O2       121.5230   59.6800  -16.9150 O.2    11  C11        -0.2443
    238  N3       122.0340   61.3930  -15.5350 N.ar   11  C11        -0.1739
    239  C4       121.6190   62.3440  -14.6910 C.ar   11  C11         0.1759
    240  N4       122.5420   63.1330  -14.1330 N.pl3  11  C11        -0.1070
    241  C5       120.2350   62.5250  -14.3870 C.ar   11  C11         0.0566
    242  C6       119.3590   61.7030  -14.9810 C.ar   11  C11         0.0850
    243  OP1      113.9710   61.7280  -12.7650 O.3    11  C11        -0.4373
    244  OP2      116.4890   62.1810  -12.8520 O.co2  11  C11        -0.5172
    245  P        117.4650   56.7390  -12.8870 P.3    12  G12         0.2141
    246  C5'      118.4300   54.6350  -14.1450 C.3    12  G12         0.1812
    247  O5'      118.0600   55.2530  -12.9130 O.3    12  G12        -0.3114
    248  C4'      119.9340   54.4510  -14.2850 C.3    12  G12         0.1773
    249  O4'      120.5610   55.6230  -14.8650 O.3    12  G12        -0.3307
    250  C3'      120.7360   54.2670  -13.0070 C.3    12  G12         0.1860
    251  O3'      120.5080   52.9850  -12.4340 O.3    12  G12        -0.3112
    252  C2'      122.1490   54.4340  -13.5620 C.3    12  G12         0.2309
    253  O2'      122.6550   53.2840  -14.2170 O.3    12  G12        -0.2156
    254  C1'      121.9470   55.5780  -14.5580 C.3    12  G12         0.2408
    255  N1       125.9120   58.4350  -13.0590 N.ar   12  G12        -0.1709
    256  C2       125.9060   57.1560  -13.5680 C.ar   12  G12         0.2606
    257  N2       127.0990   56.5590  -13.6960 N.pl3  12  G12        -0.0859
    258  N3       124.8020   56.5080  -13.9280 N.ar   12  G12        -0.1918
    259  C4       123.6800   57.2500  -13.7370 C.ar   12  G12         0.1723
    260  C5       123.5840   58.5320  -13.2360 C.ar   12  G12         0.1748
    261  C6       124.7690   59.2130  -12.8550 C.ar   12  G12         0.3023
    262  O6       124.8770   60.3570  -12.3910 O.2    12  G12        -0.2633
    263  N7       122.2600   58.9480  -13.1920 N.ar   12  G12        -0.2173
    264  C8       121.5920   57.9300  -13.6570 C.ar   12  G12         0.1817
    265  N9       122.3840   56.8630  -14.0130 N.ar   12  G12        -0.2693
    266  OP1      116.0750   56.6970  -12.3810 O.2    12  G12        -0.5172
    267  OP2      118.4670   57.6020  -12.2180 O.co2  12  G12        -0.4373
    268  P        120.6810   52.7480  -10.8570 P.3    13  U13         0.2141
    269  C5'      123.0800   51.7150  -11.2050 C.3    13  U13         0.1812
    270  O5'      122.2700   52.7580  -10.6660 O.3    13  U13        -0.3114
    271  C4'      124.5530   51.9990  -10.9720 C.3    13  U13         0.1773
    272  O4'      124.9460   53.2140  -11.6600 O.3    13  U13        -0.3307
    273  C3'      124.9420   52.2740   -9.5270 C.3    13  U13         0.1860
    274  O3'      125.0280   51.0710   -8.7740 O.3    13  U13        -0.3112
    275  C2'      126.2860   52.9700   -9.7180 C.3    13  U13         0.2309
    276  O2'      127.3490   52.0810  -10.0100 O.3    13  U13        -0.2156
    277  C1'      125.9770   53.8580  -10.9260 C.3    13  U13         0.2420
    278  N1       125.5670   55.2650  -10.5470 N.ar   13  U13        -0.2534
    279  C2       126.5440   56.2160  -10.2800 C.ar   13  U13         0.3546
    280  O2       127.7420   55.9970  -10.3340 O.2    13  U13        -0.2443
    281  N3       126.0660   57.4620   -9.9410 N.ar   13  U13        -0.1530
    282  C4       124.7410   57.8520   -9.8390 C.ar   13  U13         0.2846
    283  O4       124.4680   59.0070   -9.5270 O.2    13  U13        -0.2650
    284  C5       123.7800   56.8170  -10.1290 C.ar   13  U13         0.0814
    285  C6       124.2210   55.5940  -10.4620 C.ar   13  U13         0.0870
    286  OP1      120.1550   51.3990  -10.5510 O.2    13  U13        -0.5172
    287  OP2      120.1370   53.9160  -10.1290 O.co2  13  U13        -0.4373
    288  P        124.4960   51.0290   -7.2620 P.3    14  U14         0.2141
    289  C5'      126.9790   50.9250   -6.4240 C.3    14  U14         0.1812
    290  O5'      125.7350   51.6190   -6.4410 O.3    14  U14        -0.3114
    291  C4'      128.1100   51.8460   -6.0110 C.3    14  U14         0.1773
    292  O4'      128.1350   53.0120   -6.8670 O.3    14  U14        -0.3307
    293  C3'      127.9870   52.4230   -4.6110 C.3    14  U14         0.1860
    294  O3'      128.4740   51.4860   -3.6580 O.3    14  U14        -0.3112
    295  C2'      128.8620   53.6710   -4.7000 C.3    14  U14         0.2309
    296  O2'      130.2310   53.4180   -4.4430 O.3    14  U14        -0.2156
    297  C1'      128.6700   54.1120   -6.1500 C.3    14  U14         0.2420
    298  N1       127.7720   55.3100   -6.3000 N.ar   14  U14        -0.2534
    299  C2       128.3020   56.5850   -6.1530 C.ar   14  U14         0.3546
    300  O2       129.4730   56.8150   -5.9030 O.2    14  U14        -0.2443
    301  N3       127.3950   57.6080   -6.3110 N.ar   14  U14        -0.1530
    302  C4       126.0440   57.4950   -6.5970 C.ar   14  U14         0.2846
    303  O4       125.3590   58.5070   -6.7100 O.2    14  U14        -0.2650
    304  C5       125.5630   56.1410   -6.7350 C.ar   14  U14         0.0814
    305  C6       126.4260   55.1260   -6.5840 C.ar   14  U14         0.0870
    306  OP1      124.2970   49.6090   -6.8950 O.3    14  U14        -0.4373
    307  OP2      123.3660   51.9750   -7.1210 O.co2  14  U14        -0.5172
    308  P        127.7090   51.2640   -2.2700 P.3    15  G15         0.2141
    309  C5'      129.2880   53.0500   -1.1310 C.3    15  G15         0.1812
    310  O5'      127.9700   52.6310   -1.4860 O.3    15  G15        -0.3114
    311  C4'      129.2770   54.5170   -0.7350 C.3    15  G15         0.1773
    312  O4'      128.6170   55.3030   -1.7630 O.3    15  G15        -0.3307
    313  C3'      128.5450   54.8090    0.5710 C.3    15  G15         0.1860
    314  O3'      129.3110   55.7000    1.3640 O.3    15  G15        -0.3112
    315  C2'      127.2230   55.4320    0.1280 C.3    15  G15         0.2309
    316  O2'      126.7140   56.3740    1.0520 O.3    15  G15        -0.2156
    317  C1'      127.6100   56.1070   -1.1840 C.3    15  G15         0.2408
    318  N1       124.4170   59.2350   -3.6820 N.ar   15  G15        -0.1709
    319  C2       125.4660   59.5550   -2.8500 C.ar   15  G15         0.2606
    320  N2       125.6920   60.8620   -2.6580 N.pl3  15  G15        -0.0859
    321  N3       126.2390   58.6520   -2.2500 N.ar   15  G15        -0.1918
    322  C4       125.8770   57.3750   -2.5530 C.ar   15  G15         0.1723
    323  C5       124.8470   56.9590   -3.3710 C.ar   15  G15         0.1748
    324  C6       124.0300   57.9320   -4.0000 C.ar   15  G15         0.3023
    325  O6       123.0730   57.7460   -4.7640 O.2    15  G15        -0.2633
    326  N7       124.7910   55.5720   -3.4310 N.ar   15  G15        -0.2173
    327  C8       125.7700   55.1810   -2.6640 C.ar   15  G15         0.1817
    328  N9       126.4750   56.2180   -2.0980 N.ar   15  G15        -0.2693
    329  OP1      128.3830   50.1610   -1.5490 O.3    15  G15        -0.4373
    330  OP2      126.2580   51.1770   -2.5510 O.co2  15  G15        -0.5172
    331  P        130.0030   55.1550    2.6950 P.3    16  C16         0.2141
    332  C5'      132.0900   56.6700    3.2800 C.3    16  C16         0.1812
    333  O5'      130.6770   56.4770    3.2930 O.3    16  C16        -0.3114
    334  C4'      132.4370   58.1370    3.4520 C.3    16  C16         0.1773
    335  O4'      132.2280   58.8340    2.1950 O.3    16  C16        -0.3307
    336  C3'      131.5700   58.9050    4.4410 C.3    16  C16         0.1860
    337  O3'      131.9960   58.7090    5.7860 O.3    16  C16        -0.3112
    338  C2'      131.7660   60.3360    3.9540 C.3    16  C16         0.2309
    339  O2'      133.0080   60.9010    4.3340 O.3    16  C16        -0.2156
    340  C1'      131.7040   60.1300    2.4420 C.3    16  C16         0.2420
    341  N1       130.3070   60.2660    1.8710 N.ar   16  C16        -0.2535
    342  C2       129.6940   61.5320    1.7860 C.ar   16  C16         0.3532
    343  O2       130.2920   62.5450    2.1720 O.2    16  C16        -0.2443
    344  N3       128.4390   61.6230    1.2720 N.ar   16  C16        -0.1739
    345  C4       127.7950   60.5280    0.8570 C.ar   16  C16         0.1759
    346  N4       126.5620   60.6820    0.3620 N.pl3  16  C16        -0.1070
    347  C5       128.3900   59.2320    0.9340 C.ar   16  C16         0.0566
    348  C6       129.6290   59.1530    1.4390 C.ar   16  C16         0.0850
    349  OP1      131.0520   54.1890    2.2930 O.2    16  C16        -0.5172
    350  OP2      128.9330   54.7370    3.6300 O.co2  16  C16        -0.4373
    351  P        130.9110   58.6050    6.9640 P.3    17  A17         0.2141
    352  C5'      131.0840   61.1860    7.4510 C.3    17  A17         0.1812
    353  O5'      130.2920   60.0800    7.0250 O.3    17  A17        -0.3114
    354  C4'      130.3550   62.5000    7.2380 C.3    17  A17         0.1773
    355  O4'      130.0200   62.6910    5.8410 O.3    17  A17        -0.3307
    356  C3'      129.0040   62.6150    7.9200 C.3    17  A17         0.1860
    357  O3'      129.1580   62.8440    9.3130 O.3    17  A17        -0.3112
    358  C2'      128.4180   63.8140    7.1820 C.3    17  A17         0.2309
    359  O2'      128.9150   65.0580    7.6430 O.3    17  A17        -0.2156
    360  C1'      128.8820   63.5360    5.7530 C.3    17  A17         0.2408
    361  N1       124.4470   64.1270    3.1520 N.ar   17  A17        -0.2040
    362  C2       125.1970   64.9980    3.8430 C.ar   17  A17         0.2016
    363  N3       126.3420   64.7750    4.4960 N.ar   17  A17        -0.2048
    364  C4       126.7240   63.4860    4.3980 C.ar   17  A17         0.1692
    365  C5       126.0560   62.4780    3.7230 C.ar   17  A17         0.1518
    366  C6       124.8550   62.8380    3.0710 C.ar   17  A17         0.1919
    367  N6       124.1080   61.9690    2.3820 N.pl3  17  A17        -0.1054
    368  N7       126.7340   61.2780    3.8370 N.ar   17  A17        -0.2193
    369  C8       127.7830   61.5780    4.5660 C.ar   17  A17         0.1816
    370  N9       127.8460   62.8930    4.9400 N.ar   17  A17        -0.2693
    371  OP1      131.6400   58.3320    8.2230 O.3    17  A17        -0.4373
    372  OP2      129.8340   57.6850    6.5320 O.co2  17  A17        -0.5172
    373  P        128.1750   62.1200   10.3490 P.3    18  A18         0.2141
    374  C5'      126.6280   64.2550   10.4820 C.3    18  A18         0.1812
    375  O5'      126.7840   62.8840   10.1090 O.3    18  A18        -0.3114
    376  C4'      125.4560   64.9130    9.7730 C.3    18  A18         0.1773
    377  O4'      125.5840   64.7910    8.3330 O.3    18  A18        -0.3307
    378  C3'      124.0890   64.3070   10.0470 C.3    18  A18         0.1860
    379  O3'      123.5820   64.7280   11.3030 O.3    18  A18        -0.3112
    380  C2'      123.2890   64.8690    8.8760 C.3    18  A18         0.2309
    381  O2'      122.9400   66.2310    9.0270 O.3    18  A18        -0.2156
    382  C1'      124.2960   64.6900    7.7420 C.3    18  A18         0.2408
    383  N1       121.3570   61.6710    4.7300 N.ar   18  A18        -0.2040
    384  C2       121.1740   62.9190    5.1850 C.ar   18  A18         0.2016
    385  N3       121.9800   63.6460    5.9650 N.ar   18  A18        -0.2048
    386  C4       123.0990   62.9670    6.2900 C.ar   18  A18         0.1692
    387  C5       123.4220   61.6790    5.8980 C.ar   18  A18         0.1518
    388  C6       122.4880   61.0120    5.0750 C.ar   18  A18         0.1919
    389  N6       122.6740   59.7680    4.6230 N.pl3  18  A18        -0.1054
    390  N7       124.6460   61.2970    6.4180 N.ar   18  A18        -0.2193
    391  C8       125.0340   62.3460    7.1050 C.ar   18  A18         0.1816
    392  N9       124.1540   63.3940    7.0720 N.ar   18  A18        -0.2693
    393  OP1      128.6750   62.4110   11.7120 O.3    18  A18        -0.4373
    394  OP2      128.0010   60.7120    9.9230 O.co2  18  A18        -0.5172
    395  P        122.8110   63.6860   12.2400 P.3    19  G19         0.2141
    396  C5'      120.4600   64.3090   11.2460 C.3    19  G19         0.1812
    397  O5'      121.4990   63.3450   11.3930 O.3    19  G19        -0.3114
    398  C4'      119.3600   63.7760   10.3500 C.3    19  G19         0.1773
    399  O4'      119.8940   63.4650    9.0370 O.3    19  G19        -0.3307
    400  C3'      118.7440   62.4630   10.8000 C.3    19  G19         0.1860
    401  O3'      117.7920   62.6610   11.8330 O.3    19  G19        -0.3112
    402  C2'      118.1190   61.9720    9.5000 C.3    19  G19         0.2309
    403  O2'      116.9140   62.6360    9.1670 O.3    19  G19        -0.2156
    404  C1'      119.2330   62.3220    8.5140 C.3    19  G19         0.2408
    405  N1       120.0480   57.6400    6.6200 N.ar   19  G19        -0.1709
    406  C2       118.9020   58.4050    6.5910 C.ar   19  G19         0.2606
    407  N2       117.8330   57.8680    5.9850 N.pl3  19  G19        -0.0859
    408  N3       118.8120   59.6200    7.1220 N.ar   19  G19        -0.1918
    409  C4       119.9750   60.0250    7.6980 C.ar   19  G19         0.1723
    410  C5       121.1670   59.3340    7.7780 C.ar   19  G19         0.1748
    411  C6       121.2520   58.0380    7.2070 C.ar   19  G19         0.3023
    412  O6       122.2300   57.2770    7.1820 O.2    19  G19        -0.2633
    413  N7       122.1250   60.0840    8.4460 N.ar   19  G19        -0.2173
    414  C8       121.5060   61.1910    8.7520 C.ar   19  G19         0.1817
    415  N9       120.1970   61.2320    8.3290 N.ar   19  G19        -0.2693
    416  OP1      122.4220   64.3980   13.4800 O.3    19  G19        -0.4373
    417  OP2      123.6260   62.4530   12.3310 O.co2  19  G19        -0.5172
    418  P        117.6670   61.5690   12.9970 P.3    20  C20         0.2141
    419  C5'      115.5350   60.5820   11.7830 C.3    20  C20         0.1812
    420  O5'      116.8620   60.3840   12.2790 O.3    20  C20        -0.3114
    421  C4'      115.0220   59.3420   11.0720 C.3    20  C20         0.1773
    422  O4'      115.8130   59.0700    9.8830 O.3    20  C20        -0.3307
    423  C3'      115.1420   58.0460   11.8580 C.3    20  C20         0.1860
    424  O3'      114.1340   57.9200   12.8480 O.3    20  C20        -0.3112
    425  C2'      115.0210   57.0200   10.7380 C.3    20  C20         0.2309
    426  O2'      113.7020   56.8810   10.2460 O.3    20  C20        -0.2156
    427  C1'      115.9320   57.6660    9.6940 C.3    20  C20         0.2420
    428  N1       117.3770   57.2210    9.8140 N.ar   20  C20        -0.2535
    429  C2       117.7680   55.9350    9.3820 C.ar   20  C20         0.3532
    430  O2       116.9360   55.1590    8.8910 O.2    20  C20        -0.2443
    431  N3       119.0730   55.5670    9.5120 N.ar   20  C20        -0.1739
    432  C4       119.9680   56.4100   10.0420 C.ar   20  C20         0.1759
    433  N4       121.2360   56.0000   10.1470 N.pl3  20  C20        -0.1070
    434  C5       119.5970   57.7150   10.4880 C.ar   20  C20         0.0566
    435  C6       118.3120   58.0680   10.3550 C.ar   20  C20         0.0850
    436  OP1      116.8090   62.1410   14.0600 O.3    20  C20        -0.4373
    437  OP2      119.0240   61.0830   13.3390 O.co2  20  C20        -0.5172
    438  P        114.5470   57.3210   14.2740 P.3    21  G21         0.2141
    439  C5'      113.6260   54.9500   13.6160 C.3    21  G21         0.1812
    440  O5'      114.7440   55.7640   13.9570 O.3    21  G21        -0.3114
    441  C4'      114.0580   53.5740   13.1450 C.3    21  G21         0.1773
    442  O4'      114.9230   53.6810   11.9830 O.3    21  G21        -0.3307
    443  C3'      114.9090   52.7660   14.1130 C.3    21  G21         0.1860
    444  O3'      114.1570   52.2340   15.2030 O.3    21  G21        -0.3112
    445  C2'      115.4320   51.6970   13.1580 C.3    21  G21         0.2309
    446  O2'      114.4630   50.7330   12.7900 O.3    21  G21        -0.2156
    447  C1'      115.8150   52.5760   11.9660 C.3    21  G21         0.2408
    448  N1       120.7370   51.3330   11.3860 N.ar   21  G21        -0.1709
    449  C2       119.6130   50.5760   11.1380 C.ar   21  G21         0.2606
    450  N2       119.8200   49.3320   10.6820 N.pl3  21  G21        -0.0859
    451  N3       118.3710   51.0140   11.3260 N.ar   21  G21        -0.1918
    452  C4       118.3360   52.2930   11.7890 C.ar   21  G21         0.1723
    453  C5       119.4010   53.1250   12.0680 C.ar   21  G21         0.1748
    454  C6       120.7200   52.6460   11.8620 C.ar   21  G21         0.3023
    455  O6       121.7870   53.2460   12.0520 O.2    21  G21        -0.2633
    456  N7       118.9570   54.3590   12.5260 N.ar   21  G21        -0.2173
    457  C8       117.6570   54.2520   12.5180 C.ar   21  G21         0.1817
    458  N9       117.2050   53.0280   12.0780 N.ar   21  G21        -0.2693
    459  OP1      113.3860   57.4770   15.1810 O.3    21  G21        -0.4373
    460  OP2      115.8590   57.8920   14.6610 O.co2  21  G21        -0.5172
    461  P        114.5220   52.6300   16.7170 P.3    22  A22         0.2141
    462  C5'      116.2790   50.6790   16.6830 C.3    22  A22         0.1812
    463  O5'      115.9970   52.0460   16.9570 O.3    22  A22        -0.3114
    464  C4'      117.4040   50.1120   17.5290 C.3    22  A22         0.1773
    465  O4'      116.8360   49.1950   18.4980 O.3    22  A22        -0.3307
    466  C3'      118.4080   49.2960   16.7220 C.3    22  A22         0.1860
    467  O3'      119.6270   50.0190   16.5800 O.3    22  A22        -0.3112
    468  C2'      118.5840   47.9890   17.4960 C.3    22  A22         0.2309
    469  O2'      119.6470   48.0330   18.4280 O.3    22  A22        -0.2156
    470  C1'      117.2500   47.8670   18.2260 C.3    22  A22         0.2408
    471  N1       115.6740   43.3900   16.1360 N.ar   22  A22        -0.2040
    472  C2       116.8080   43.7210   16.7720 C.ar   22  A22         0.2016
    473  N3       117.1560   44.9010   17.2900 N.ar   22  A22        -0.2048
    474  C4       116.1900   45.8240   17.1050 C.ar   22  A22         0.1692
    475  C5       114.9760   45.6260   16.4660 C.ar   22  A22         0.1518
    476  C6       114.7210   44.3350   15.9660 C.ar   22  A22         0.1919
    477  N6       113.5880   44.0150   15.3320 N.pl3  22  A22        -0.1054
    478  N7       114.2230   46.7840   16.4580 N.ar   22  A22        -0.2193
    479  C8       114.9870   47.6460   17.0810 C.ar   22  A22         0.1816
    480  N9       116.1930   47.1470   17.4990 N.ar   22  A22        -0.2693
    481  OP1      113.5890   51.8930   17.5960 O.3    22  A22        -0.4373
    482  OP2      114.5840   54.1070   16.8000 O.co2  22  A22        -0.5172
    483  P        120.0920   50.4590   15.1130 P.3    23  A23         0.2141
    484  C5'      121.9870   48.6320   15.0560 C.3    23  A23         0.1812
    485  O5'      120.7560   49.1240   14.5350 O.3    23  A23        -0.3114
    486  C4'      122.2030   47.1900   14.6400 C.3    23  A23         0.1773
    487  O4'      121.1120   46.3830   15.1450 O.3    23  A23        -0.3307
    488  C3'      122.2070   46.9480   13.1370 C.3    23  A23         0.1860
    489  O3'      123.5200   47.1280   12.6210 O.3    23  A23        -0.3112
    490  C2'      121.7270   45.5040   13.0270 C.3    23  A23         0.2309
    491  O2'      122.7720   44.5600   13.1830 O.3    23  A23        -0.2156
    492  C1'      120.7480   45.3980   14.1950 C.3    23  A23         0.2408
    493  N1       116.2340   43.1440   13.0410 N.ar   23  A23        -0.2040
    494  C2       117.4370   42.6290   13.3350 C.ar   23  A23         0.2016
    495  N3       118.5710   43.2740   13.6250 N.ar   23  A23        -0.2048
    496  C4       118.4000   44.6090   13.5960 C.ar   23  A23         0.1692
    497  C5       117.2240   45.2820   13.3120 C.ar   23  A23         0.1518
    498  C6       116.0920   44.4890   13.0220 C.ar   23  A23         0.1919
    499  N6       114.8940   45.0060   12.7280 N.pl3  23  A23        -0.1054
    500  N7       117.4120   46.6520   13.3750 N.ar   23  A23        -0.2193
    501  C8       118.6790   46.7780   13.6920 C.ar   23  A23         0.1816
    502  N9       119.3400   45.5880   13.8390 N.ar   23  A23        -0.2693
    503  OP1      121.1270   51.5100   15.2570 O.3    23  A23        -0.4373
    504  OP2      118.8780   50.7250   14.3080 O.co2  23  A23        -0.5172
    505  P        123.7570   47.9100   11.2440 P.3    24  A24         0.2141
    506  C5'      124.1180   45.6200    9.9890 C.3    24  A24         0.1812
    507  O5'      123.3530   46.8150   10.1490 O.3    24  A24        -0.3114
    508  C4'      123.3410   44.5930    9.1850 C.3    24  A24         0.1773
    509  O4'      122.0910   44.3200    9.8590 O.3    24  A24        -0.3307
    510  C3'      122.9350   45.0360    7.7870 C.3    24  A24         0.1860
    511  O3'      123.9710   44.7550    6.8510 O.3    24  A24        -0.3112
    512  C2'      121.6610   44.2380    7.5160 C.3    24  A24         0.2309
    513  O2'      121.9010   43.0000    6.8760 O.3    24  A24        -0.2156
    514  C1'      121.0830   44.0180    8.9150 C.3    24  A24         0.2408
    515  N1       116.0190   44.2130    9.9250 N.ar   24  A24        -0.2040
    516  C2       116.8430   43.1780    9.7070 C.ar   24  A24         0.2016
    517  N3       118.1520   43.1920    9.4460 N.ar   24  A24        -0.2048
    518  C4       118.6300   44.4510    9.4260 C.ar   24  A24         0.1692
    519  C5       117.9060   45.6130    9.6380 C.ar   24  A24         0.1518
    520  C6       116.5290   45.4660    9.8990 C.ar   24  A24         0.1919
    521  N6       115.7170   46.5030   10.1210 N.pl3  24  A24        -0.1054
    522  N7       118.7180   46.7280    9.5450 N.ar   24  A24        -0.2193
    523  C8       119.9000   46.2250    9.2850 C.ar   24  A24         0.1816
    524  N9       119.9230   44.8600    9.1970 N.ar   24  A24        -0.2693
    525  OP1      125.2080   48.1910   11.1440 O.2    24  A24        -0.5172
    526  OP2      122.7860   49.0250   11.1470 O.co2  24  A24        -0.4373
    527  P        124.4000   45.8680    5.7840 P.3    25  G25         0.2141
    528  C5'      122.5880   47.0650    4.2990 C.3    25  G25         0.1812
    529  O5'      123.1670   45.8560    4.7650 O.3    25  G25        -0.3114
    530  C4'      121.1100   47.0990    4.6370 C.3    25  G25         0.1773
    531  O4'      120.9370   47.1560    6.0770 O.3    25  G25        -0.3307
    532  C3'      120.3760   48.3210    4.1090 C.3    25  G25         0.1860
    533  O3'      119.8770   48.0740    2.8030 O.3    25  G25        -0.3112
    534  C2'      119.2710   48.5170    5.1460 C.3    25  G25         0.2309
    535  O2'      118.1730   47.6380    4.9890 O.3    25  G25        -0.2156
    536  C1'      120.0290   48.1860    6.4250 C.3    25  G25         0.2408
    537  N1       119.8260   52.8880    8.4500 N.ar   25  G25        -0.1709
    538  C2       118.7950   52.0990    7.9860 C.ar   25  G25         0.2606
    539  N2       117.5580   52.6110    8.0660 N.pl3  25  G25        -0.0859
    540  N3       118.9680   50.8840    7.4770 N.ar   25  G25        -0.1918
    541  C4       120.2750   50.5060    7.4650 C.ar   25  G25         0.1723
    542  C5       121.3690   51.2220    7.9040 C.ar   25  G25         0.1748
    543  C6       121.1740   52.5180    8.4450 C.ar   25  G25         0.3023
    544  O6       122.0320   53.2980    8.8860 O.2    25  G25        -0.2633
    545  N7       122.5390   50.4980    7.7220 N.ar   25  G25        -0.2173
    546  C8       122.1390   49.3790    7.1880 C.ar   25  G25         0.1817
    547  N9       120.7780   49.3080    6.9990 N.ar   25  G25        -0.2693
    548  OP1      125.5860   45.3600    5.0580 O.2    25  G25        -0.5172
    549  OP2      124.4710   47.1790    6.4700 O.co2  25  G25        -0.4373
    550  P        119.9630   49.2300    1.7030 P.3    26  C26         0.2141
    551  C5'      117.5090   50.0440    2.1740 C.3    26  C26         0.1812
    552  O5'      118.9080   50.2990    2.2520 O.3    26  C26        -0.3114
    553  C4'      116.7190   51.1920    2.7710 C.3    26  C26         0.1773
    554  O4'      117.1430   51.4060    4.1400 O.3    26  C26        -0.3307
    555  C3'      116.9450   52.5380    2.1030 C.3    26  C26         0.1860
    556  O3'      116.1140   52.6810    0.9620 O.3    26  C26        -0.3112
    557  C2'      116.5730   53.5060    3.2200 C.3    26  C26         0.2309
    558  O2'      115.1780   53.6930    3.3760 O.3    26  C26        -0.2156
    559  C1'      117.1530   52.7930    4.4380 C.3    26  C26         0.2420
    560  N1       118.5460   53.2430    4.8130 N.ar   26  C26        -0.2535
    561  C2       118.7480   54.4960    5.4230 C.ar   26  C26         0.3532
    562  O2       117.7820   55.2390    5.6500 O.2    26  C26        -0.2443
    563  N3       120.0150   54.8690    5.7530 N.ar   26  C26        -0.1739
    564  C4       121.0480   54.0570    5.5040 C.ar   26  C26         0.1759
    565  N4       122.2740   54.4680    5.8460 N.pl3  26  C26        -0.1070
    566  C5       120.8680   52.7830    4.8880 C.ar   26  C26         0.0566
    567  C6       119.6170   52.4260    4.5670 C.ar   26  C26         0.0850
    568  OP1      119.4760   48.6770    0.4190 O.2    26  C26        -0.5172
    569  OP2      121.3120   49.8380    1.7720 O.co2  26  C26        -0.4373
    570  P        116.7230   53.2750   -0.3930 P.3    27  C27         0.2141
    571  C5'      115.9030   55.7050    0.2790 C.3    27  C27         0.1812
    572  O5'      116.9760   54.8170   -0.0450 O.3    27  C27        -0.3114
    573  C4'      116.4340   56.9590    0.9510 C.3    27  C27         0.1773
    574  O4'      117.0820   56.5980    2.1980 O.3    27  C27        -0.3307
    575  C3'      117.5160   57.6930    0.1700 C.3    27  C27         0.1860
    576  O3'      116.9580   58.5750   -0.7960 O.3    27  C27        -0.3112
    577  C2'      118.2660   58.4280    1.2770 C.3    27  C27         0.2309
    578  O2'      117.6550   59.6420    1.6740 O.3    27  C27        -0.2156
    579  C1'      118.2350   57.3990    2.4050 C.3    27  C27         0.2420
    580  N1       119.4910   56.5610    2.4410 N.ar   27  C27        -0.2535
    581  C2       120.6440   57.0560    3.0800 C.ar   27  C27         0.3532
    582  O2       120.6220   58.1690    3.6200 O.2    27  C27        -0.2443
    583  N3       121.7680   56.2910    3.0950 N.ar   27  C27        -0.1739
    584  C4       121.7770   55.0920    2.5050 C.ar   27  C27         0.1759
    585  N4       122.9060   54.3790    2.5490 N.pl3  27  C27        -0.1070
    586  C5       120.6230   54.5670    1.8480 C.ar   27  C27         0.0566
    587  C6       119.5210   55.3280    1.8400 C.ar   27  C27         0.0850
    588  OP1      115.6780   53.1740   -1.4370 O.2    27  C27        -0.5172
    589  OP2      118.0450   52.6490   -0.6150 O.co2  27  C27        -0.4373
    590  P        117.6640   58.7340   -2.2240 P.3    28  C28         0.2141
    591  C5'      118.9830   60.8600   -1.3760 C.3    28  C28         0.1812
    592  O5'      119.0120   59.5240   -1.8760 O.3    28  C28        -0.3114
    593  C4'      120.3300   61.2370   -0.7870 C.3    28  C28         0.1773
    594  O4'      120.7070   60.2850    0.2410 O.3    28  C28        -0.3307
    595  C3'      121.4910   61.1800   -1.7650 C.3    28  C28         0.1860
    596  O3'      121.5370   62.3630   -2.5440 O.3    28  C28        -0.3112
    597  C2'      122.6840   61.0310   -0.8230 C.3    28  C28         0.2309
    598  O2'      123.0980   62.2510   -0.2340 O.3    28  C28        -0.2156
    599  C1'      122.1120   60.0910    0.2380 C.3    28  C28         0.2420
    600  N1       122.4410   58.6390   -0.0050 N.ar   28  C28        -0.2535
    601  C2       123.6940   58.1220    0.3790 C.ar   28  C28         0.3532
    602  O2       124.5320   58.8550    0.9230 O.2    28  C28        -0.2443
    603  N3       123.9600   56.8080    0.1430 N.ar   28  C28        -0.1739
    604  C4       123.0470   56.0270   -0.4450 C.ar   28  C28         0.1759
    605  N4       123.3550   54.7440   -0.6510 N.pl3  28  C28        -0.1070
    606  C5       121.7710   56.5280   -0.8440 C.ar   28  C28         0.0566
    607  C6       121.5180   57.8210   -0.6060 C.ar   28  C28         0.0850
    608  OP1      116.7870   59.5820   -3.0590 O.2    28  C28        -0.5172
    609  OP2      118.0600   57.3960   -2.7160 O.co2  28  C28        -0.4373
    610  P        122.3130   62.3720   -3.9420 P.3    29  A29         0.2141
    611  C5'      124.1590   64.0760   -3.1710 C.3    29  A29         0.1812
    612  O5'      123.8020   62.7370   -3.4860 O.3    29  A29        -0.3114
    613  C4'      125.3770   64.4830   -3.9780 C.3    29  A29         0.1773
    614  O4'      126.3980   63.4620   -3.8680 O.3    29  A29        -0.3307
    615  C3'      125.1340   64.6850   -5.4740 C.3    29  A29         0.1860
    616  O3'      125.4220   66.0310   -5.8330 O.3    29  A29        -0.3112
    617  C2'      126.0990   63.7150   -6.1550 C.3    29  A29         0.2309
    618  O2'      126.7180   64.2580   -7.3050 O.3    29  A29        -0.2156
    619  C1'      127.1390   63.5020   -5.0640 C.3    29  A29         0.2408
    620  N1       131.7940   61.2920   -4.9180 N.ar   29  A29        -0.2040
    621  C2       131.4050   62.5620   -4.7270 C.ar   29  A29         0.2016
    622  N3       130.1710   63.0720   -4.7800 N.ar   29  A29        -0.2048
    623  C4       129.2620   62.1210   -5.0680 C.ar   29  A29         0.1692
    624  C5       129.5100   60.7770   -5.2860 C.ar   29  A29         0.1518
    625  C6       130.8570   60.3580   -5.2060 C.ar   29  A29         0.1919
    626  N6       131.2370   59.0890   -5.3940 N.pl3  29  A29        -0.1054
    627  N7       128.3350   60.0970   -5.5530 N.ar   29  A29        -0.2193
    628  C8       127.4110   61.0240   -5.4890 C.ar   29  A29         0.1816
    629  N9       127.9000   62.2670   -5.2010 N.ar   29  A29        -0.2693
    630  OP1      121.7530   63.4720   -4.7600 O.2    29  A29        -0.5172
    631  OP2      122.3470   60.9960   -4.4900 O.co2  29  A29        -0.4373
    632  P        124.2440   67.0780   -6.0970 P.3    30  G30         0.2141
    633  C5'      122.6040   68.2500   -4.3720 C.3    30  G30         0.1812
    634  O5'      123.6510   67.3120   -4.6230 O.3    30  G30        -0.3114
    635  C4'      123.2000   69.5510   -3.8610 C.3    30  G30         0.1773
    636  O4'      123.6400   70.3450   -4.9910 O.3    30  G30        -0.3307
    637  C3'      122.2890   70.4640   -3.0420 C.3    30  G30         0.1860
    638  O3'      123.0490   70.9620   -1.9360 O.3    30  G30        -0.3112
    639  C2'      121.9210   71.5630   -4.0400 C.3    30  G30         0.2309
    640  O2'      121.5700   72.7930   -3.4360 O.3    30  G30        -0.2156
    641  C1'      123.2540   71.6810   -4.7650 C.3    30  G30         0.2408
    642  N1       126.1370   74.1790   -8.1210 N.ar   30  G30        -0.1709
    643  C2       126.4930   73.5730   -6.9360 C.ar   30  G30         0.2606
    644  N2       127.7850   73.6340   -6.5900 N.pl3  30  G30        -0.0859
    645  N3       125.6340   72.9480   -6.1420 N.ar   30  G30        -0.1918
    646  C4       124.3670   72.9700   -6.6290 C.ar   30  G30         0.1723
    647  C5       123.9120   73.5450   -7.7940 C.ar   30  G30         0.1748
    648  C6       124.8380   74.2160   -8.6350 C.ar   30  G30         0.3023
    649  O6       124.6170   74.7890   -9.7130 O.2    30  G30        -0.2633
    650  N7       122.5430   73.3510   -7.9330 N.ar   30  G30        -0.2173
    651  C8       122.2040   72.6740   -6.8720 C.ar   30  G30         0.1817
    652  N9       123.2620   72.4070   -6.0340 N.ar   30  G30        -0.2693
    653  OP1      123.2130   66.4250   -6.9380 O.2    30  G30        -0.5172
    654  OP2      124.8800   68.3280   -6.5690 O.co2  30  G30        -0.4373
    655  P        122.3780   71.5700   -0.6140 P.3    31  G31         0.2141
    656  C5'      123.6750   71.6590    1.6780 C.3    31  G31         0.1812
    657  O5'      123.2720   70.9100    0.5360 O.3    31  G31        -0.3114
    658  C4'      124.9810   71.1170    2.2360 C.3    31  G31         0.1773
    659  O4'      124.9600   69.6660    2.2270 O.3    31  G31        -0.3307
    660  C3'      126.2410   71.5240    1.4750 C.3    31  G31         0.1860
    661  O3'      127.2690   71.8270    2.4140 O.3    31  G31        -0.3112
    662  C2'      126.5700   70.2790    0.6530 C.3    31  G31         0.2309
    663  O2'      127.9460   70.1650    0.3590 O.3    31  G31        -0.2156
    664  C1'      126.1500   69.1900    1.6300 C.3    31  G31         0.2408
    665  N1       127.7060   64.3500    1.1920 N.ar   31  G31        -0.1709
    666  C2       128.2780   65.3890    1.8940 C.ar   31  G31         0.2606
    667  N2       129.4030   65.1070    2.5660 N.pl3  31  G31        -0.0859
    668  N3       127.7770   66.6200    1.9330 N.ar   31  G31        -0.1918
    669  C4       126.6360   66.7370    1.2000 C.ar   31  G31         0.1723
    670  C5       125.9900   65.7610    0.4690 C.ar   31  G31         0.1748
    671  C6       126.5350   64.4520    0.4360 C.ar   31  G31         0.3023
    672  O6       126.0990   63.4560   -0.1610 O.2    31  G31        -0.2633
    673  N7       124.8520   66.2740   -0.1400 N.ar   31  G31        -0.2173
    674  C8       124.8300   67.5260    0.2270 C.ar   31  G31         0.1817
    675  N9       125.8840   67.8800    1.0380 N.ar   31  G31        -0.2693
    676  OP1      121.0030   71.0340   -0.4740 O.3    31  G31        -0.4373
    677  OP2      122.5980   73.0350   -0.6410 O.co2  31  G31        -0.5172
    678  P        127.5940   73.3340    2.8490 P.3    32  C32         0.2141
    679  C5'      129.7630   73.2960    1.3360 C.3    32  C32         0.1812
    680  O5'      128.4840   73.8620    1.6290 O.3    32  C32        -0.3114
    681  C4'      130.3550   73.8860    0.0650 C.3    32  C32         0.1773
    682  O4'      129.7700   73.2290   -1.0900 O.3    32  C32        -0.3307
    683  C3'      130.0790   75.3670   -0.1600 C.3    32  C32         0.1860
    684  O3'      131.0440   76.1770    0.4950 O.3    32  C32        -0.3112
    685  C2'      130.1550   75.4810   -1.6780 C.3    32  C32         0.2309
    686  O2'      131.4820   75.5470   -2.1670 O.3    32  C32        -0.2156
    687  C1'      129.4860   74.1780   -2.1070 C.3    32  C32         0.2420
    688  N1       127.9910   74.2830   -2.3260 N.ar   32  C32        -0.2535
    689  C2       127.4800   74.8690   -3.5020 C.ar   32  C32         0.3532
    690  O2       128.2500   75.3070   -4.3680 O.2    32  C32        -0.2443
    691  N3       126.1310   74.9460   -3.6660 N.ar   32  C32        -0.1739
    692  C4       125.3050   74.4710   -2.7280 C.ar   32  C32         0.1759
    693  N4       123.9900   74.5710   -2.9380 N.pl3  32  C32        -0.1070
    694  C5       125.7950   73.8730   -1.5290 C.ar   32  C32         0.0566
    695  C6       127.1250   73.8020   -1.3780 C.ar   32  C32         0.0850
    696  OP1      128.4210   73.2810    4.0750 O.3    32  C32        -0.4373
    697  OP2      126.3360   74.1180    2.8520 O.co2  32  C32        -0.5172
    698  P        130.6040   77.5760    1.1370 P.3    33  U33         0.2141
    699  C5'      131.6020   78.8990   -0.9090 C.3    33  U33         0.1812
    700  O5'      130.4580   78.5260   -0.1430 O.3    33  U33        -0.3114
    701  C4'      131.1940   79.4590   -2.2590 C.3    33  U33         0.1773
    702  O4'      130.3580   78.5060   -2.9660 O.3    33  U33        -0.3307
    703  C3'      130.3270   80.7090   -2.2080 C.3    33  U33         0.1860
    704  O3'      131.0920   81.8850   -1.9800 O.3    33  U33        -0.3112
    705  C2'      129.6990   80.6810   -3.5950 C.3    33  U33         0.2309
    706  O2'      130.5810   81.1070   -4.6150 O.3    33  U33        -0.2156
    707  C1'      129.3820   79.1940   -3.7360 C.3    33  U33         0.2420
    708  N1       127.9800   78.8210   -3.2940 N.ar   33  U33        -0.2534
    709  C2       126.8870   79.1820   -4.0730 C.ar   33  U33         0.3546
    710  O2       126.9670   79.7950   -5.1230 O.2    33  U33        -0.2443
    711  N3       125.6630   78.7920   -3.5780 N.ar   33  U33        -0.1530
    712  C4       125.4170   78.0920   -2.4080 C.ar   33  U33         0.2846
    713  O4       124.2640   77.8140   -2.0970 O.2    33  U33        -0.2650
    714  C5       126.5930   77.7500   -1.6470 C.ar   33  U33         0.0814
    715  C6       127.7970   78.1200   -2.1100 C.ar   33  U33         0.0870
    716  OP1      131.7250   78.0510    1.9800 O.3    33  U33        -0.4373
    717  OP2      129.2550   77.4240    1.7300 O.co2  33  U33        -0.5172
    718  P        130.6050   82.9610   -0.8970 P.3    34  A34         0.2141
    719  C5'      130.2510   84.7170   -2.8550 C.3    34  A34         0.1812
    720  O5'      129.7250   83.9930   -1.7460 O.3    34  A34        -0.3114
    721  C4'      129.1560   85.0140   -3.8650 C.3    34  A34         0.1773
    722  O4'      128.6250   83.7570   -4.3580 O.3    34  A34        -0.3307
    723  C3'      127.9380   85.7540   -3.3160 C.3    34  A34         0.1860
    724  O3'      128.0830   87.1700   -3.3790 O.3    34  A34        -0.3112
    725  C2'      126.8140   85.2490   -4.2180 C.3    34  A34         0.2309
    726  O2'      126.7630   85.8850   -5.4810 O.3    34  A34        -0.2156
    727  C1'      127.2080   83.7880   -4.3670 C.3    34  A34         0.2408
    728  N1       123.0730   81.5440   -2.3040 N.ar   34  A34        -0.2040
    729  C2       123.2390   82.2860   -3.4110 C.ar   34  A34         0.2016
    730  N3       124.3430   82.8420   -3.8980 N.ar   34  A34        -0.2048
    731  C4       125.3840   82.5710   -3.0980 C.ar   34  A34         0.1692
    732  C5       125.3750   81.8270   -1.9260 C.ar   34  A34         0.1518
    733  C6       124.1410   81.2900   -1.5180 C.ar   34  A34         0.1919
    734  N6       123.9850   80.5560   -0.4120 N.pl3  34  A34        -0.1054
    735  N7       126.6350   81.7590   -1.3700 N.ar   34  A34        -0.2193
    736  C8       127.3630   82.4550   -2.2060 C.ar   34  A34         0.1816
    737  N9       126.6830   82.9710   -3.2740 N.ar   34  A34        -0.2693
    738  OP1      131.8140   83.6430   -0.3860 O.2    34  A34        -0.5172
    739  OP2      129.6790   82.2990    0.0500 O.co2  34  A34        -0.4373
    740  P        127.4820   88.1000   -2.2170 P.3    35  G35         0.2141
    741  C5'      125.1700   88.1020   -3.5080 C.3    35  G35         0.1812
    742  O5'      126.2520   88.8380   -2.9330 O.3    35  G35        -0.3114
    743  C4'      123.8050   88.7290   -3.2700 C.3    35  G35         0.1773
    744  O4'      122.8360   87.6520   -3.2290 O.3    35  G35        -0.3307
    745  C3'      123.6350   89.5240   -1.9740 C.3    35  G35         0.1860
    746  O3'      123.1450   90.8860   -2.1750 O.3    35  G35        -0.3112
    747  C2'      122.7470   88.6730   -1.0630 C.3    35  G35         0.2309
    748  O2'      121.7040   89.3970   -0.4370 O.3    35  G35        -0.2156
    749  C1'      122.1750   87.5930   -1.9790 C.3    35  G35         0.2408
    750  N1       119.8130   83.4700   -0.1210 N.ar   35  G35        -0.1709
    751  C2       119.2710   84.6230   -0.6490 C.ar   35  G35         0.2606
    752  N2       117.9340   84.7040   -0.6910 N.pl3  35  G35        -0.0859
    753  N3       119.9980   85.6360   -1.1080 N.ar   35  G35        -0.1918
    754  C4       121.3330   85.4070   -0.9980 C.ar   35  G35         0.1723
    755  C5       121.9680   84.2950   -0.4870 C.ar   35  G35         0.1748
    756  C6       121.1820   83.2190    0.0000 C.ar   35  G35         0.3023
    757  O6       121.5700   82.1480    0.4890 O.2    35  G35        -0.2633
    758  N7       123.3470   84.4440   -0.5490 N.ar   35  G35        -0.2173
    759  C8       123.5170   85.6210   -1.0860 C.ar   35  G35         0.1817
    760  N9       122.3390   86.2640   -1.3900 N.ar   35  G35        -0.2693
    761  OP1      128.5070   89.1170   -1.8980 O.2    35  G35        -0.5172
    762  OP2      126.9530   87.2420   -1.1300 O.co2  35  G35        -0.4373
    763  P        121.8720   91.3540   -3.0390 P.3    36  U36         0.2141
    764  C5'      119.4510   90.5850   -2.3590 C.3    36  U36         0.1812
    765  O5'      120.6490   91.2840   -2.0100 O.3    36  U36        -0.3114
    766  C4'      118.1790   91.3210   -1.9680 C.3    36  U36         0.1773
    767  O4'      118.4400   92.4250   -1.0620 O.3    36  U36        -0.3307
    768  C3'      117.4420   91.9480   -3.1360 C.3    36  U36         0.1860
    769  O3'      116.6320   90.9640   -3.7660 O.3    36  U36        -0.3112
    770  C2'      116.6240   93.0330   -2.4450 C.3    36  U36         0.2309
    771  O2'      115.4440   92.5400   -1.8370 O.3    36  U36        -0.2156
    772  C1'      117.6040   93.5260   -1.3790 C.3    36  U36         0.2420
    773  N1       118.4720   94.6960   -1.7880 N.ar   36  U36        -0.2534
    774  C2       117.9180   95.9020   -2.2040 C.ar   36  U36         0.3546
    775  O2       116.7220   96.1250   -2.2850 O.2    36  U36        -0.2443
    776  N3       118.8330   96.8730   -2.5400 N.ar   36  U36        -0.1530
    777  C4       120.2140   96.7760   -2.5040 C.ar   36  U36         0.2846
    778  O4       120.9040   97.7320   -2.8340 O.2    36  U36        -0.2650
    779  C5       120.7190   95.5030   -2.0610 C.ar   36  U36         0.0814
    780  C6       119.8470   94.5420   -1.7280 C.ar   36  U36         0.0870
    781  OP1      121.6430   90.3960   -4.1410 O.2    36  U36        -0.5172
    782  OP2      122.0860   92.7810   -3.3620 O.co2  36  U36        -0.4373
    783  P        116.7020   90.7540   -5.3540 P.3    37  C37         0.2141
    784  C5'      114.4650   92.1310   -5.4890 C.3    37  C37         0.1812
    785  O5'      115.8190   91.9670   -5.9040 O.3    37  C37        -0.3114
    786  C4'      113.9530   93.5000   -5.8920 C.3    37  C37         0.1773
    787  O4'      114.5850   94.5220   -5.0790 O.3    37  C37        -0.3307
    788  C3'      114.3020   93.9130   -7.3120 C.3    37  C37         0.1860
    789  O3'      113.4100   93.3300   -8.2470 O.3    37  C37        -0.3112
    790  C2'      114.1670   95.4270   -7.2200 C.3    37  C37         0.2309
    791  O2'      112.8240   95.8680   -7.2070 O.3    37  C37        -0.2156
    792  C1'      114.8190   95.6810   -5.8640 C.3    37  C37         0.2420
    793  N1       116.2980   95.9860   -5.9480 N.ar   37  C37        -0.2535
    794  C2       116.7290   97.2290   -6.4500 C.ar   37  C37         0.3532
    795  O2       115.8980   98.0680   -6.8180 O.2    37  C37        -0.2443
    796  N3       118.0630   97.4890   -6.5160 N.ar   37  C37        -0.1739
    797  C4       118.9500   96.5740   -6.1140 C.ar   37  C37         0.1759
    798  N4       120.2470   96.8820   -6.2020 N.pl3  37  C37        -0.1070
    799  C5       118.5410   95.3040   -5.6040 C.ar   37  C37         0.0566
    800  C6       117.2240   95.0580   -5.5400 C.ar   37  C37         0.0850
    801  OP1      116.0190   89.4750   -5.6620 O.3    37  C37        -0.4373
    802  OP2      118.0960   90.9760   -5.8110 O.co2  37  C37        -0.5172
    803  P        113.9380   92.9450   -9.7080 P.3    38  C38         0.2141
    804  C5'      112.7580   95.0740  -10.6640 C.3    38  C38         0.1812
    805  O5'      113.9630   94.3510  -10.4620 O.3    38  C38        -0.3114
    806  C4'      113.0660   96.4470  -11.2250 C.3    38  C38         0.1773
    807  O4'      113.9360   97.1680  -10.3200 O.3    38  C38        -0.3307
    808  C3'      113.8160   96.4340  -12.5420 C.3    38  C38         0.1860
    809  O3'      112.8790   96.2840  -13.5950 O.3    38  C38        -0.3112
    810  C2'      114.4970   97.7990  -12.5380 C.3    38  C38         0.2309
    811  O2'      113.6540   98.8360  -12.9980 O.3    38  C38        -0.2156
    812  C1'      114.8050   98.0120  -11.0560 C.3    38  C38         0.2420
    813  N1       116.2340   97.7400  -10.6550 N.ar   38  C38        -0.2535
    814  C2       117.2440   98.6900  -10.9080 C.ar   38  C38         0.3532
    815  O2       116.9720   99.7620  -11.4670 O.2    38  C38        -0.2443
    816  N3       118.5190   98.4090  -10.5230 N.ar   38  C38        -0.1739
    817  C4       118.8030   97.2500   -9.9140 C.ar   38  C38         0.1759
    818  N4       120.0730   97.0210   -9.5570 N.pl3  38  C38        -0.1070
    819  C5       117.7960   96.2720   -9.6490 C.ar   38  C38         0.0566
    820  C6       116.5440   96.5590  -10.0310 C.ar   38  C38         0.0850
    821  OP1      112.9090   92.0760  -10.3230 O.2    38  C38        -0.5172
    822  OP2      115.3390   92.4700   -9.6130 O.co2  38  C38        -0.4373
    823  P        113.0760   95.1530  -14.7100 P.3    39  G39         0.2141
    824  C5'      113.4850   97.0890  -16.4370 C.3    39  G39         0.1813
    825  O5'      113.9640   95.9120  -15.7950 O.3    39  G39        -0.3114
    826  C4'      114.6550   97.8590  -17.0150 C.3    39  G39         0.1801
    827  O4'      115.5010   98.3030  -15.9220 O.3    39  G39        -0.3306
    828  C3'      115.5480   97.0360  -17.9400 C.3    39  G39         0.2161
    829  O3'      115.1310   97.1890  -19.2960 O.3    39  G39        -0.2175
    830  C2'      116.9340   97.6250  -17.6920 C.3    39  G39         0.2337
    831  O2'      117.1860   98.7330  -18.5360 O.3    39  G39        -0.2155
    832  C1'      116.8650   98.0740  -16.2280 C.3    39  G39         0.2409
    833  N1       120.6700   97.0430  -12.9350 N.ar   39  G39        -0.1709
    834  C2       120.5030   98.1410  -13.7510 C.ar   39  G39         0.2606
    835  N2       121.4600   99.0790  -13.6870 N.pl3  39  G39        -0.0859
    836  N3       119.4680   98.3060  -14.5730 N.ar   39  G39        -0.1918
    837  C4       118.5890   97.2670  -14.5190 C.ar   39  G39         0.1723
    838  C5       118.6730   96.1320  -13.7360 C.ar   39  G39         0.1748
    839  C6       119.7810   95.9680  -12.8650 C.ar   39  G39         0.3023
    840  O6       120.0140   95.0210  -12.0990 O.2    39  G39        -0.2633
    841  N7       117.5860   95.2970  -13.9580 N.ar   39  G39        -0.2173
    842  C8       116.8790   95.9300  -14.8520 C.ar   39  G39         0.1817
    843  N9       117.4210   97.1320  -15.2470 N.ar   39  G39        -0.2693
    844  OP1      111.7470   94.8660  -15.2980 O.2    39  G39        -0.5172
    845  OP2      113.8900   94.0460  -14.1530 O.co2  39  G39        -0.4373
    846  P        126.7710   84.6110  -14.7800 P.3    44  A44         0.1280
    847  C5'      129.1960   85.5000  -14.3450 C.3    44  A44         0.1795
    848  O5'      128.0510   84.8170  -13.8430 O.3    44  A44        -0.3259
    849  C4'      130.3300   85.5060  -13.3330 C.3    44  A44         0.1772
    850  O4'      129.8290   85.8830  -12.0250 O.3    44  A44        -0.3307
    851  C3'      131.0220   84.1660  -13.1290 C.3    44  A44         0.1860
    852  O3'      132.0690   84.0090  -14.0820 O.3    44  A44        -0.3112
    853  C2'      131.5560   84.2840  -11.7030 C.3    44  A44         0.2309
    854  O2'      132.8190   84.9210  -11.6260 O.3    44  A44        -0.2156
    855  C1'      130.4830   85.1330  -11.0170 C.3    44  A44         0.2408
    856  N1       129.5430   82.0380   -6.9800 N.ar   44  A44        -0.2040
    857  C2       130.6660   82.6390   -7.3960 C.ar   44  A44         0.2016
    858  N3       130.8410   83.4330   -8.4560 N.ar   44  A44        -0.2048
    859  C4       129.6900   83.5980   -9.1400 C.ar   44  A44         0.1692
    860  C5       128.4580   83.0420   -8.8330 C.ar   44  A44         0.1518
    861  C6       128.4020   82.2210   -7.6850 C.ar   44  A44         0.1919
    862  N6       127.2830   81.6200   -7.2670 N.pl3  44  A44        -0.1054
    863  N7       127.5010   83.4270   -9.7550 N.ar   44  A44        -0.2193
    864  C8       128.1610   84.1950  -10.5890 C.ar   44  A44         0.1816
    865  N9       129.4870   84.3450  -10.2830 N.ar   44  A44        -0.2693
    866  OP1      126.7150   83.1940  -15.2070 O.3    44  A44        -0.1955
    867  OP2      125.6070   85.2380  -14.1090 O.co2  44  A44        -0.7863
    868  P        132.2920   82.6210  -14.8510 P.3    45  A45         0.2141
    869  C5'      134.2950   81.8840  -13.3130 C.3    45  A45         0.1812
    870  O5'      132.9430   81.6900  -13.7230 O.3    45  A45        -0.3114
    871  C4'      134.5800   81.1810  -11.9980 C.3    45  A45         0.1773
    872  O4'      133.6490   81.6460  -10.9870 O.3    45  A45        -0.3307
    873  C3'      134.4090   79.6680  -12.0130 C.3    45  A45         0.1860
    874  O3'      135.5950   79.0350  -12.4860 O.3    45  A45        -0.3112
    875  C2'      134.1360   79.3710  -10.5420 C.3    45  A45         0.2309
    876  O2'      135.3140   79.3010   -9.7600 O.3    45  A45        -0.2156
    877  C1'      133.2870   80.5740  -10.1340 C.3    45  A45         0.2408
    878  N1       129.0850   78.5560   -7.9130 N.ar   45  A45        -0.2040
    879  C2       130.3620   78.6270   -7.5090 C.ar   45  A45         0.2016
    880  N3       131.4070   79.1690   -8.1390 N.ar   45  A45        -0.2048
    881  C4       131.0440   79.6880   -9.3270 C.ar   45  A45         0.1692
    882  C5       129.7720   79.6910   -9.8750 C.ar   45  A45         0.1518
    883  C6       128.7490   79.0850   -9.1110 C.ar   45  A45         0.1919
    884  N6       127.4760   79.0130   -9.5110 N.pl3  45  A45        -0.1054
    885  N7       129.7710   80.3130  -11.1110 N.ar   45  A45        -0.2193
    886  C8       131.0220   80.6670  -11.2820 C.ar   45  A45         0.1816
    887  N9       131.8480   80.3250  -10.2460 N.ar   45  A45        -0.2693
    888  OP1      133.2840   82.8650  -15.9230 O.2    45  A45        -0.5172
    889  OP2      130.9700   82.0490  -15.1960 O.co2  45  A45        -0.4373
    890  P        135.5300   77.6250  -13.2460 P.3    46  C46         0.2141
    891  C5'      134.2440   75.7000  -11.9810 C.3    46  C46         0.1812
    892  O5'      135.3530   76.5900  -12.0360 O.3    46  C46        -0.3114
    893  C4'      133.8740   75.4070  -10.5410 C.3    46  C46         0.1773
    894  O4'      132.8630   76.3460  -10.0930 O.3    46  C46        -0.3307
    895  C3'      133.2280   74.0530  -10.3120 C.3    46  C46         0.1860
    896  O3'      134.2080   73.0240  -10.2290 O.3    46  C46        -0.3112
    897  C2'      132.5070   74.2940   -8.9890 C.3    46  C46         0.2309
    898  O2'      133.3690   74.2770   -7.8660 O.3    46  C46        -0.2156
    899  C1'      131.9580   75.7000   -9.2130 C.3    46  C46         0.2420
    900  N1       130.5520   75.7200   -9.7730 N.ar   46  C46        -0.2535
    901  C2       129.4510   75.5060   -8.9230 C.ar   46  C46         0.3532
    902  O2       129.6270   75.3050   -7.7130 O.2    46  C46        -0.2443
    903  N3       128.1990   75.5270   -9.4510 N.ar   46  C46        -0.1739
    904  C4       128.0170   75.7450  -10.7560 C.ar   46  C46         0.1759
    905  N4       126.7640   75.7540  -11.2210 N.pl3  46  C46        -0.1070
    906  C5       129.1150   75.9640  -11.6400 C.ar   46  C46         0.0566
    907  C6       130.3450   75.9430  -11.1100 C.ar   46  C46         0.0850
    908  OP1      136.8530   77.3980  -13.8700 O.3    46  C46        -0.4373
    909  OP2      134.3110   77.5920  -14.0910 O.co2  46  C46        -0.5172
    910  P        133.9320   71.5870  -10.8840 P.3    47  G47         0.2141
    911  C5'      132.9500   70.6770   -8.6110 C.3    47  G47         0.1812
    912  O5'      132.7460   70.9990   -9.9860 O.3    47  G47        -0.3114
    913  C4'      131.6450   70.2630   -7.9550 C.3    47  G47         0.1773
    914  O4'      130.7110   71.3730   -7.9240 O.3    47  G47        -0.3307
    915  C3'      130.8730   69.1810   -8.6900 C.3    47  G47         0.1860
    916  O3'      131.4230   67.9090   -8.4190 O.3    47  G47        -0.3112
    917  C2'      129.4820   69.3510   -8.0930 C.3    47  G47         0.2309
    918  O2'      129.3380   68.7530   -6.8190 O.3    47  G47        -0.2156
    919  C1'      129.3850   70.8730   -8.0020 C.3    47  G47         0.2408
    920  N1       124.9350   71.4690  -10.4270 N.ar   47  G47        -0.1709
    921  C2       125.1970   70.8360   -9.2300 C.ar   47  G47         0.2606
    922  N2       124.1490   70.2920   -8.5930 N.pl3  47  G47        -0.0859
    923  N3       126.4100   70.7490   -8.6940 N.ar   47  G47        -0.1918
    924  C4       127.3600   71.3500   -9.4590 C.ar   47  G47         0.1723
    925  C5       127.1970   72.0030  -10.6620 C.ar   47  G47         0.1748
    926  C6       125.8980   72.0920  -11.2240 C.ar   47  G47         0.3023
    927  O6       125.5610   72.6340  -12.2860 O.2    47  G47        -0.2633
    928  N7       128.4130   72.4830  -11.1310 N.ar   47  G47        -0.2173
    929  C8       129.2720   72.1180  -10.2200 C.ar   47  G47         0.1817
    930  N9       128.7060   71.4310   -9.1720 N.ar   47  G47        -0.2693
    931  OP1      135.1480   70.7690  -10.6920 O.3    47  G47        -0.4373
    932  OP2      133.3950   71.7800  -12.2490 O.co2  47  G47        -0.5172
    933  P        131.3780   66.7820   -9.5490 P.3    48  G48         0.2141
    934  C5'      133.5060   65.3900   -8.8360 C.3    48  G48         0.1812
    935  O5'      132.0920   65.5580   -8.8070 O.3    48  G48        -0.3114
    936  C4'      133.8610   63.9160   -8.7580 C.3    48  G48         0.1773
    937  O4'      133.1020   63.2990   -7.6850 O.3    48  G48        -0.3307
    938  C3'      133.5180   63.1000  -10.0000 C.3    48  G48         0.1860
    939  O3'      134.5880   63.1090  -10.9450 O.3    48  G48        -0.3112
    940  C2'      133.3010   61.7120   -9.4100 C.3    48  G48         0.2309
    941  O2'      134.5100   61.0260   -9.1420 O.3    48  G48        -0.2156
    942  C1'      132.5880   62.0480   -8.1050 C.3    48  G48         0.2408
    943  N1       128.2240   59.5350   -9.0530 N.ar   48  G48        -0.1709
    944  C2       129.5140   59.0530   -9.0320 C.ar   48  G48         0.2606
    945  N2       129.6640   57.7480   -9.2940 N.pl3  48  G48        -0.0859
    946  N3       130.5800   59.8030   -8.7700 N.ar   48  G48        -0.1918
    947  C4       130.2540   61.1010   -8.5270 C.ar   48  G48         0.1723
    948  C5       128.9970   61.6730   -8.5260 C.ar   48  G48         0.1748
    949  C6       127.8680   60.8620   -8.8060 C.ar   48  G48         0.3023
    950  O6       126.6760   61.1980   -8.8470 O.2    48  G48        -0.2633
    951  N7       129.0700   63.0270   -8.2320 N.ar   48  G48        -0.2173
    952  C8       130.3440   63.2440   -8.0660 C.ar   48  G48         0.1817
    953  N9       131.1290   62.1270   -8.2270 N.ar   48  G48        -0.2693
    954  OP1      132.2070   67.2300  -10.6920 O.2    48  G48        -0.5172
    955  OP2      129.9640   66.4070   -9.7720 O.co2  48  G48        -0.4373
    956  P        134.3100   63.2380  -12.5220 P.3    49  C49         0.2141
    957  C5'      135.1240   60.7030  -12.3820 C.3    49  C49         0.1812
    958  O5'      134.9120   61.8910  -13.1530 O.3    49  C49        -0.3114
    959  C4'      134.2390   59.5410  -12.8100 C.3    49  C49         0.1773
    960  O4'      133.1500   59.3340  -11.8690 O.3    49  C49        -0.3307
    961  C3'      133.5040   59.6810  -14.1340 C.3    49  C49         0.1860
    962  O3'      134.3840   59.5220  -15.2390 O.3    49  C49        -0.3112
    963  C2'      132.4870   58.5500  -14.0030 C.3    49  C49         0.2309
    964  O2'      133.0370   57.2630  -14.2240 O.3    49  C49        -0.2156
    965  C1'      132.0620   58.7160  -12.5440 C.3    49  C49         0.2420
    966  N1       130.7970   59.5300  -12.3950 N.ar   49  C49        -0.2535
    967  C2       129.5370   58.9280  -12.5910 C.ar   49  C49         0.3532
    968  O2       129.4560   57.7270  -12.8840 O.2    49  C49        -0.2443
    969  N3       128.4160   59.6850  -12.4540 N.ar   49  C49        -0.1739
    970  C4       128.5100   60.9810  -12.1400 C.ar   49  C49         0.1759
    971  N4       127.3770   61.6790  -12.0160 N.pl3  49  C49        -0.1070
    972  C5       129.7730   61.6170  -11.9380 C.ar   49  C49         0.0566
    973  C6       130.8700   60.8610  -12.0740 C.ar   49  C49         0.0850
    974  OP1      135.1170   64.3790  -13.0060 O.2    49  C49        -0.5172
    975  OP2      132.8510   63.2310  -12.7610 O.co2  49  C49        -0.4373
    976  P        133.9190   59.9730  -16.7040 P.3    50  G50         0.2141
    977  C5'      132.4690   58.6940  -18.4620 C.3    50  G50         0.1812
    978  O5'      133.1130   58.6840  -17.2010 O.3    50  G50        -0.3114
    979  C4'      131.3100   57.7150  -18.5080 C.3    50  G50         0.1773
    980  O4'      130.7880   57.4360  -17.1790 O.3    50  G50        -0.3307
    981  C3'      130.1030   58.2360  -19.2690 C.3    50  G50         0.1860
    982  O3'      130.2880   58.0930  -20.6690 O.3    50  G50        -0.3112
    983  C2'      128.9960   57.3580  -18.6960 C.3    50  G50         0.2309
    984  O2'      129.0160   56.0240  -19.1690 O.3    50  G50        -0.2156
    985  C1'      129.3690   57.4200  -17.2140 C.3    50  G50         0.2408
    986  N1       125.2400   60.1640  -15.8830 N.ar   50  G50        -0.1709
    987  C2       125.2990   58.9690  -16.5630 C.ar   50  G50         0.2606
    988  N2       124.1250   58.4390  -16.9380 N.pl3  50  G50        -0.0859
    989  N3       126.4340   58.3410  -16.8540 N.ar   50  G50        -0.1918
    990  C4       127.5320   59.0090  -16.4050 C.ar   50  G50         0.1723
    991  C5       127.5700   60.2050  -15.7180 C.ar   50  G50         0.1748
    992  C6       126.3530   60.8650  -15.4140 C.ar   50  G50         0.3023
    993  O6       126.1950   61.9340  -14.8100 O.2    50  G50        -0.2633
    994  N7       128.8780   60.5710  -15.4300 N.ar   50  G50        -0.2173
    995  C8       129.5940   59.6090  -15.9390 C.ar   50  G50         0.1817
    996  N9       128.8520   58.6200  -16.5460 N.ar   50  G50        -0.2693
    997  OP1      135.1330   60.1280  -17.5370 O.2    50  G50        -0.5172
    998  OP2      132.9610   61.0960  -16.5840 O.co2  50  G50        -0.4373
    999  P        130.0910   59.3600  -21.6300 P.3    51  C51         0.2141
   1000  C5'      127.9680   58.0750  -22.4850 C.3    51  C51         0.1812
   1001  O5'      128.5340   59.2840  -21.9840 O.3    51  C51        -0.3114
   1002  C4'      126.4590   58.0830  -22.3370 C.3    51  C51         0.1773
   1003  O4'      126.0920   58.1570  -20.9330 O.3    51  C51        -0.3307
   1004  C3'      125.7610   59.2930  -22.9370 C.3    51  C51         0.1860
   1005  O3'      125.6430   59.1950  -24.3500 O.3    51  C51        -0.3112
   1006  C2'      124.4230   59.2380  -22.2080 C.3    51  C51         0.2309
   1007  O2'      123.5590   58.2230  -22.6850 O.3    51  C51        -0.2156
   1008  C1'      124.9040   58.9260  -20.7910 C.3    51  C51         0.2420
   1009  N1       125.1580   60.1670  -19.9580 N.ar   51  C51        -0.2535
   1010  C2       124.0780   60.9020  -19.4270 C.ar   51  C51         0.3532
   1011  O2       122.9100   60.5400  -19.6320 O.2    51  C51        -0.2443
   1012  N3       124.3400   62.0140  -18.6870 N.ar   51  C51        -0.1739
   1013  C4       125.6000   62.4010  -18.4680 C.ar   51  C51         0.1759
   1014  N4       125.7990   63.5000  -17.7340 N.pl3  51  C51        -0.1070
   1015  C5       126.7120   61.6760  -18.9950 C.ar   51  C51         0.0566
   1016  C6       126.4450   60.5830  -19.7220 C.ar   51  C51         0.0850
   1017  OP1      130.8830   59.1200  -22.8580 O.2    51  C51        -0.5172
   1018  OP2      130.3090   60.6010  -20.8510 O.co2  51  C51        -0.4373
   1019  P        125.8310   60.5180  -25.2340 P.3    52  U52         0.2141
   1020  C5'      123.2220   60.8070  -25.4060 C.3    52  U52         0.1812
   1021  O5'      124.4740   61.3250  -24.9570 O.3    52  U52        -0.3114
   1022  C4'      122.0430   61.4830  -24.7270 C.3    52  U52         0.1773
   1023  O4'      122.2470   61.5880  -23.2940 O.3    52  U52        -0.3307
   1024  C3'      121.7880   62.9260  -25.1300 C.3    52  U52         0.1860
   1025  O3'      121.1940   63.0170  -26.4190 O.3    52  U52        -0.3112
   1026  C2'      120.8450   63.3610  -24.0130 C.3    52  U52         0.2309
   1027  O2'      119.5110   62.9170  -24.1860 O.3    52  U52        -0.2156
   1028  C1'      121.4880   62.6830  -22.8000 C.3    52  U52         0.2420
   1029  N1       122.3550   63.6240  -22.0000 N.ar   52  U52        -0.2534
   1030  C2       121.7630   64.5730  -21.1740 C.ar   52  U52         0.3546
   1031  O2       120.5570   64.7050  -21.0330 O.2    52  U52        -0.2443
   1032  N3       122.6440   65.3830  -20.4940 N.ar   52  U52        -0.1530
   1033  C4       124.0280   65.3490  -20.5550 C.ar   52  U52         0.2846
   1034  O4       124.6830   66.1420  -19.8860 O.2    52  U52        -0.2650
   1035  C5       124.5740   64.3430  -21.4340 C.ar   52  U52         0.0814
   1036  C6       123.7360   63.5400  -22.1070 C.ar   52  U52         0.0870
   1037  OP1      125.8790   60.1040  -26.6550 O.2    52  U52        -0.5172
   1038  OP2      126.9500   61.3090  -24.6690 O.co2  52  U52        -0.4373
   1039  P        121.5060   64.2870  -27.3440 P.3    53  C53         0.2141
   1040  C5'      119.1890   65.4180  -26.8160 C.3    53  C53         0.1812
   1041  O5'      120.6100   65.4410  -26.6930 O.3    53  C53        -0.3114
   1042  C4'      118.5390   66.4380  -25.8980 C.3    53  C53         0.1773
   1043  O4'      118.9850   66.2320  -24.5320 O.3    53  C53        -0.3307
   1044  C3'      118.8930   67.8920  -26.1710 C.3    53  C53         0.1860
   1045  O3'      118.1390   68.4220  -27.2570 O.3    53  C53        -0.3112
   1046  C2'      118.5270   68.5340  -24.8370 C.3    53  C53         0.2309
   1047  O2'      117.1360   68.7460  -24.6830 O.3    53  C53        -0.2156
   1048  C1'      119.0190   67.4770  -23.8490 C.3    53  C53         0.2420
   1049  N1       120.4020   67.7570  -23.3000 N.ar   53  C53        -0.2535
   1050  C2       120.5850   68.7460  -22.3110 C.ar   53  C53         0.3532
   1051  O2       119.6160   69.3860  -21.8830 O.2    53  C53        -0.2443
   1052  N3       121.8360   68.9800  -21.8330 N.ar   53  C53        -0.1739
   1053  C4       122.8780   68.2840  -22.2980 C.ar   53  C53         0.1759
   1054  N4       124.0860   68.5560  -21.7930 N.pl3  53  C53        -0.1070
   1055  C5       122.7220   67.2780  -23.3010 C.ar   53  C53         0.0566
   1056  C6       121.4840   67.0540  -23.7650 C.ar   53  C53         0.0850
   1057  OP1      121.0060   63.9810  -28.7040 O.2    53  C53        -0.5172
   1058  OP2      122.9250   64.6670  -27.1570 O.co2  53  C53        -0.4373
   1059  P        118.7550   69.5880  -28.1680 P.3    54  A54         0.2141
   1060  C5'      117.3580   71.4580  -26.9430 C.3    54  A54         0.1813
   1061  O5'      118.6310   70.8860  -27.2380 O.3    54  A54        -0.3114
   1062  C4'      117.4640   72.5070  -25.8490 C.3    54  A54         0.1801
   1063  O4'      118.0980   71.9370  -24.6750 O.3    54  A54        -0.3306
   1064  C3'      118.3100   73.7270  -26.1930 C.3    54  A54         0.2161
   1065  O3'      117.5260   74.6880  -26.8900 O.3    54  A54        -0.2175
   1066  C2'      118.7160   74.2240  -24.8080 C.3    54  A54         0.2337
   1067  O2'      117.7160   75.0170  -24.1930 O.3    54  A54        -0.2155
   1068  C1'      118.9040   72.9140  -24.0390 C.3    54  A54         0.2409
   1069  N1       123.6480   73.6120  -22.0680 N.ar   54  A54        -0.2040
   1070  C2       122.4920   74.2630  -21.8590 C.ar   54  A54         0.2016
   1071  N3       121.2930   74.0290  -22.4060 N.ar   54  A54        -0.2048
   1072  C4       121.3360   72.9890  -23.2640 C.ar   54  A54         0.1692
   1073  C5       122.4500   72.2270  -23.5780 C.ar   54  A54         0.1518
   1074  C6       123.6620   72.5730  -22.9350 C.ar   54  A54         0.1919
   1075  N6       124.8140   71.9250  -23.1410 N.pl3  54  A54        -0.1054
   1076  N7       122.1250   71.2420  -24.4970 N.ar   54  A54        -0.2193
   1077  C8       120.8440   71.4250  -24.7180 C.ar   54  A54         0.1816
   1078  N9       120.2990   72.4600  -24.0080 N.ar   54  A54        -0.2693
   1079  OP1      117.8760   69.7410  -29.3480 O.2    54  A54        -0.5172
   1080  OP2      120.1990   69.3250  -28.3640 O.co2  54  A54        -0.4373
@<TRIPOS>BOND
     1  1079  1059    2
     2  1057  1039    2
     3  1080  1059    1
     4  1059  1045    1
     5  1059  1061    1
     6  1039  1058    1
     7  1039  1041    1
     8  1039  1025    1
     9  1045  1044    1
    10  1061  1060    1
    11  1060  1062    1
    12  1065  1064    1
    13  1040  1041    1
    14  1040  1042    1
    15  1037  1019    2
    16  1025  1024    1
    17  1064  1062    1
    18  1064  1066    1
    19  1044  1042    1
    20  1044  1046    1
    21  1042  1043    1
    22  1062  1063    1
    23  1020  1021    1
    24  1020  1022    1
    25  1019  1021    1
    26  1019  1038    1
    27  1019  1005    1
    28  1024  1022    1
    29  1024  1026    1
    30  1046  1047    1
    31  1046  1048    1
    32  1066  1067    1
    33  1066  1068    1
    34  1022  1023    1
    35  1077  1076   ar
    36  1077  1078   ar
    37  1063  1068    1
    38  1043  1048    1
    39  1076  1073   ar
    40  1005  1004    1
    41  1027  1026    1
    42  1068  1078    1
    43  1026  1028    1
    44  1078  1072   ar
    45  1048  1049    1
    46  1056  1055   ar
    47  1056  1049   ar
    48  1073  1072   ar
    49  1073  1074   ar
    50  1055  1053   ar
    51  1049  1050   ar
    52  1023  1028    1
    53  1072  1071   ar
    54  1075  1074    1
    55  1004  1002    1
    56  1004  1006    1
    57  1074  1069   ar
    58  1017   999    2
    59  1028  1029    1
    60  1007  1006    1
    61  1000  1002    1
    62  1000  1001    1
    63  1071  1070   ar
    64  1002  1003    1
    65  1050  1051    2
    66  1050  1052   ar
    67  1053  1052   ar
    68  1053  1054    1
    69  1006  1008    1
    70  1036  1029   ar
    71  1036  1035   ar
    72  1069  1070   ar
    73  1029  1030   ar
    74  1001   999    1
    75   999  1018    1
    76   999   982    1
    77  1035  1033   ar
    78  1030  1031    2
    79  1030  1032   ar
    80  1003  1008    1
    81  1008  1009    1
    82   982   981    1
    83  1033  1032   ar
    84  1033  1034    2
    85   169   168    1
    86   167   168   ar
    87   167   173   ar
    88  1009  1016   ar
    89  1009  1010   ar
    90   168   170   ar
    91  1016  1015   ar
    92  1011  1010    2
    93   214   213    1
    94   174   173    2
    95  1010  1012   ar
    96   173   172   ar
    97   829   828    1
    98   191   190   ar
    99   191   192   ar
   100   981   983    1
   101   981   979    1
   102   984   983    1
   103   170   171   ar
   104   190   195   ar
   105  1015  1013   ar
   106   192   193   ar
   107   213   212   ar
   108   213   215   ar
   109   983   985    1
   110  1012  1013   ar
   111   172   171   ar
   112   172   175   ar
   113   831   830    1
   114   171   177   ar
   115   979   977    1
   116   979   980    1
   117  1013  1014    1
   118   977   978    1
   119   212   218   ar
   120   215   216   ar
   121   195   196    1
   122   195   194   ar
   123   828   830    1
   124   828   826    1
   125   193   194   ar
   126   193   199   ar
   127   175   176   ar
   128   177   166    1
   129   177   176   ar
   130   830   832    1
   131   218   219    2
   132   218   217   ar
   133   194   197   ar
   134   997   976    2
   135   216   217   ar
   136   216   222   ar
   137   166   161    1
   138   166   164    1
   139   189   199    1
   140   189   184    1
   141   189   187    1
   142   985   980    1
   143   985   996    1
   144   199   198   ar
   145   188   187    1
   146   978   976    1
   147   217   220   ar
   148   210   209    1
   149   233   232    1
   150   826   824    1
   151   826   827    1
   152   988   987    1
   153   237   236    2
   154   211   222    1
   155   211   209    1
   156   211   206    1
   157   165   164    1
   158   222   221   ar
   159   989   987   ar
   160   989   990   ar
   161   976   998    1
   162   976   962    1
   163   197   198   ar
   164   161   160    1
   165   184   183    1
   166   987   986   ar
   167   996   990   ar
   168   996   995   ar
   169   164   162    1
   170   234   229    1
   171   234   232    1
   172   234   235    1
   173   187   185    1
   174   824   825    1
   175   209   207    1
   176   990   991   ar
   177   220   221   ar
   178   832   827    1
   179   832   843    1
   180   229   228    1
   181   236   235   ar
   182   236   238   ar
   183   206   205    1
   184   232   230    1
   185   995   994   ar
   186   888   868    2
   187   986   992   ar
   188   235   242   ar
   189   825   823    1
   190   179   157    2
   191   991   994   ar
   192   991   992   ar
   193   183   185    1
   194   183   181    1
   195   238   239   ar
   196   228   230    1
   197   228   226    1
   198   992   993    2
   199   160   162    1
   200   160   158    1
   201   844   823    2
   202   843   842   ar
   203   843   837   ar
   204   962   961    1
   205   866   846    1
   206   889   868    1
   207   185   186    1
   208   162   163    1
   209   242   241   ar
   210   207   205    1
   211   207   208    1
   212   249   254    1
   213   249   248    1
   214   842   841   ar
   215   230   231    1
   216   868   852    1
   217   868   870    1
   218   205   203    1
   219   846   867    1
   220   846   848    1
   221   227   226    1
   222   227   225    1
   223   823   845    1
   224   823   809    1
   225   239   241   ar
   226   239   240    1
   227   181   182    1
   228   836   837   ar
   229   836   834   ar
   230   254   265    1
   231   254   252    1
   232   186   202    1
   233   837   838   ar
   234   231   245    1
   235   158   159    1
   236   847   848    1
   237   847   849    1
   238   208   225    1
   239   157   159    1
   240   157   178    1
   241   157   140    1
   242   248   246    1
   243   248   250    1
   244   964   963    1
   245   253   252    1
   246   163   180    1
   247   246   247    1
   248   961   963    1
   249   961   959    1
   250   909   890    2
   251   182   180    1
   252   852   851    1
   253   265   259   ar
   254   265   264   ar
   255   963   965    1
   256   841   838   ar
   257   258   259   ar
   258   258   256   ar
   259   908   890    1
   260   204   203    1
   261   204   202    1
   262   834   835    1
   263   834   833   ar
   264   259   260   ar
   265   838   839   ar
   266   870   869    1
   267   257   256    1
   268   264   263   ar
   269   809   808    1
   270   256   255   ar
   271   140   139    1
   272   252   250    1
   273   225   244    2
   274   225   243    1
   275   849   851    1
   276   849   850    1
   277   869   871    1
   278   202   223    2
   279   202   224    1
   280   890   874    1
   281   890   892    1
   282   260   263   ar
   283   260   261   ar
   284   180   201    2
   285   180   200    1
   286   958   956    1
   287   958   957    1
   288   851   853    1
   289   255   261   ar
   290   250   251    1
   291   974   956    2
   292   811   810    1
   293   833   839   ar
   294   247   245    1
   295   155   134    2
   296   245   266    2
   297   245   267    1
   298   968   967    2
   299   839   840    2
   300   261   262    2
   301   959   957    1
   302   959   960    1
   303   975   956    1
   304   967   969   ar
   305   967   966   ar
   306   965   966    1
   307   965   960    1
   308   808   810    1
   309   808   806    1
   310   810   812    1
   311   956   939    1
   312   874   873    1
   313   969   970   ar
   314   251   268    1
   315   966   973   ar
   316   927   926    2
   317   135   137    1
   318   135   136    1
   319   932   910    2
   320   139   137    1
   321   139   141    1
   322   970   971    1
   323   970   972   ar
   324   973   972   ar
   325   892   891    1
   326   850   855    1
   327   873   871    1
   328   873   875    1
   329   871   872    1
   330   891   893    1
   331   137   138    1
   332   142   141    1
   333   853   854    1
   334   853   855    1
   335   272   271    1
   336   272   277    1
   337   906   907   ar
   338   906   904   ar
   339   136   134    1
   340   134   118    1
   341   134   156    1
   342   815   814    2
   343   141   143    1
   344   886   885   ar
   345   886   887   ar
   346   806   804    1
   347   806   807    1
   348   926   925   ar
   349   926   920   ar
   350   905   904    1
   351   269   271    1
   352   269   270    1
   353   928   925   ar
   354   928   929   ar
   355   885   882   ar
   356   907   900   ar
   357   812   813    1
   358   812   807    1
   359   855   865    1
   360   872   877    1
   361   271   273    1
   362   939   938    1
   363   277   278    1
   364   277   275    1
   365   814   813   ar
   366   814   816   ar
   367   910   931    1
   368   910   896    1
   369   910   912    1
   370   118   117    1
   371   268   270    1
   372   268   286    2
   373   268   287    1
   374   904   903   ar
   375   954   933    2
   376   804   805    1
   377   925   924   ar
   378   813   820   ar
   379   864   865   ar
   380   864   863   ar
   381   278   285   ar
   382   278   279   ar
   383   875   877    1
   384   875   876    1
   385   893   895    1
   386   893   894    1
   387   816   817   ar
   388   138   143    1
   389   805   803    1
   390   285   284   ar
   391   920   921   ar
   392   280   279    2
   393   821   803    2
   394   895   896    1
   395   895   897    1
   396   865   859   ar
   397   279   281   ar
   398   887   877    1
   399   887   881   ar
   400   929   930   ar
   401   284   282   ar
   402   894   899    1
   403   143   154    1
   404   820   819   ar
   405   276   275    1
   406   938   940    1
   407   938   936    1
   408   912   911    1
   409   281   282   ar
   410   817   819   ar
   411   817   818    1
   412   882   881   ar
   413   882   883   ar
   414   282   283    2
   415   120   119    1
   416   900   899    1
   417   900   901   ar
   418   955   933    1
   419   863   860   ar
   420   275   273    1
   421   649   648    2
   422   803   822    1
   423   803   789    1
   424   933   935    1
   425   933   916    1
   426   273   274    1
   427   884   883    1
   428   924   930   ar
   429   924   923   ar
   430   117   119    1
   431   117   115    1
   432   903   901   ar
   433   940   941    1
   434   940   942    1
   435   881   880   ar
   436   945   944    1
   437   921   923   ar
   438   921   922    1
   439   899   897    1
   440   930   919    1
   441   859   860   ar
   442   859   858   ar
   443   883   878   ar
   444   132   112    2
   445   943   944   ar
   446   943   949   ar
   447   944   946   ar
   448   119   121    1
   449   154   153   ar
   450   154   148   ar
   451   897   898    1
   452   115   113    1
   453   115   116    1
   454   901   902    2
   455   950   949    2
   456   934   935    1
   457   934   936    1
   458   860   861   ar
   459   949   948   ar
   460   113   114    1
   461   153   152   ar
   462   274   288    1
   463   946   947   ar
   464   936   937    1
   465   915   916    1
   466   915   917    1
   467   915   913    1
   468   648   642   ar
   469   648   647   ar
   470   911   913    1
   471   947   948   ar
   472   947   953   ar
   473   948   951   ar
   474   858   857   ar
   475   789   788    1
   476   951   952   ar
   477   953   942    1
   478   953   952   ar
   479   880   879   ar
   480   642   643   ar
   481   942   937    1
   482   917   919    1
   483   917   918    1
   484   114   112    1
   485   919   914    1
   486   148   147   ar
   487   148   149   ar
   488   913   914    1
   489   650   647   ar
   490   650   651   ar
   491   878   879   ar
   492   112   133    1
   493   112    95    1
   494   647   646   ar
   495   147   145   ar
   496   152   149   ar
   497   861   862    1
   498   861   856   ar
   499   116   121    1
   500   121   131    1
   501   857   856   ar
   502   788   790    1
   503   788   786    1
   504   618   617    1
   505   288   307    2
   506   288   306    1
   507   288   290    1
   508   149   150   ar
   509   790   791    1
   510   790   792    1
   511   653   632    2
   512   643   644    1
   513   643   645   ar
   514   651   652   ar
   515   292   297    1
   516   292   291    1
   517    95    94    1
   518   795   794    2
   519   304   302   ar
   520   304   305   ar
   521   145   146    1
   522   145   144   ar
   523   303   302    2
   524   646   645   ar
   525   646   652   ar
   526   131   125   ar
   527   131   130   ar
   528   302   301   ar
   529   305   298   ar
   530   654   632    1
   531   796   794   ar
   532   796   797   ar
   533   794   793   ar
   534   290   289    1
   535   124   125   ar
   536   124   123   ar
   537   289   291    1
   538   301   299   ar
   539   298   299   ar
   540   298   297    1
   541   798   797    1
   542   617   615    1
   543   617   619    1
   544   299   300    2
   545   297   295    1
   546   125   126   ar
   547   797   799   ar
   548   150   144   ar
   549   150   151    2
   550   632   616    1
   551   632   634    1
   552   652   641    1
   553   291   293    1
   554   130   129   ar
   555   793   792    1
   556   793   800   ar
   557    97    96    1
   558   785   784    1
   559   785   783    1
   560   786   784    1
   561   786   787    1
   562   792   787    1
   563   616   615    1
   564   802   783    2
   565   123   122   ar
   566   801   783    1
   567   799   800   ar
   568   627   628   ar
   569   627   624   ar
   570    94    96    1
   571    94    92    1
   572   628   629   ar
   573   726   725    1
   574   615   613    1
   575   626   625    1
   576   783   769    1
   577    96    98    1
   578   624   625   ar
   579   624   623   ar
   580   126   129   ar
   581   126   127   ar
   582   625   620   ar
   583   629   623   ar
   584   629   619    1
   585   710   709    2
   586   623   622   ar
   587   619   614    1
   588   636   641    1
   589   636   635    1
   590   620   621   ar
   591   122   127   ar
   592   622   621   ar
   593   641   639    1
   594   325   324    2
   595   630   610    2
   596   295   293    1
   597   295   296    1
   598   634   633    1
   599   706   705    1
   600   293   294    1
   601   127   128    1
   602    92    90    1
   603    92    93    1
   604   631   610    1
   605   633   635    1
   606   690   689    2
   607   727   722    1
   608   727   725    1
   609   727   737    1
   610   722   721    1
   611   725   723    1
   612   781   763    2
   613   101   100    1
   614    90    91    1
   615   709   711   ar
   616   709   708   ar
   617   639   640    1
   618   639   637    1
   619   324   318   ar
   620   324   323   ar
   621   613   614    1
   622   613   611    1
   623   610   612    1
   624   610   596    1
   625   730   729   ar
   626   730   731   ar
   627   721   723    1
   628   721   719    1
   629   635   637    1
   630    98    93    1
   631    98   109    1
   632   769   768    1
   633   102   100   ar
   634   102   103   ar
   635   707   705    1
   636   707   708    1
   637   707   702    1
   638   318   319   ar
   639   691   689   ar
   640   691   692   ar
   641   294   308    1
   642   705   703    1
   643   100    99   ar
   644   711   712   ar
   645   741   743    1
   646   741   742    1
   647   689   688   ar
   648   612   611    1
   649   326   323   ar
   650   326   327   ar
   651   729   728   ar
   652   724   723    1
   653   724   740    1
   654   323   322   ar
   655    91    89    1
   656   782   763    1
   657   708   715   ar
   658   737   731   ar
   659   737   736   ar
   660   743   744    1
   661   743   745    1
   662   110    89    2
   663   744   749    1
   664   109   103   ar
   665   109   108   ar
   666   103   104   ar
   667   768   770    1
   668   768   766    1
   669   731   732   ar
   670   608   590    2
   671   637   638    1
   672   763   746    1
   673   763   765    1
   674   702   701    1
   675   693   692    1
   676   742   740    1
   677    99   105   ar
   678   719   720    1
   679   319   320    1
   680   319   321   ar
   681   778   777    2
   682   692   694   ar
   683   609   590    1
   684   327   328   ar
   685   322   321   ar
   686   322   328   ar
   687   330   308    2
   688   596   595    1
   689   776   777   ar
   690   776   774   ar
   691   777   779   ar
   692    89   111    1
   693    89    75    1
   694   108   107   ar
   695   104   105   ar
   696   104   107   ar
   697   770   771    1
   698   770   772    1
   699   712   713    2
   700   712   714   ar
   701   764   765    1
   702   764   766    1
   703   688   687    1
   704   688   695   ar
   705   728   733   ar
   706   105   106    2
   707   775   774    2
   708   308   329    1
   709   308   310    1
   710   701   703    1
   711   701   699    1
   712   590   592    1
   713   590   576    1
   714   740   761    2
   715   740   762    1
   716   703   704    1
   717   736   735   ar
   718   774   773   ar
   719   746   745    1
   720   686   685    1
   721   715   714   ar
   722   687   685    1
   723   687   682    1
   724   328   317    1
   725   779   780   ar
   726   704   718    1
   727   749   760    1
   728   749   747    1
   729   745   747    1
   730   766   767    1
   731   638   655    1
   732   732   733   ar
   733   732   735   ar
   734   592   591    1
   735   773   780   ar
   736   773   772    1
   737   595   597    1
   738   595   593    1
   739   312   317    1
   740   312   311    1
   741   720   718    1
   742   685   683    1
   743   694   695   ar
   744   733   734    1
   745   310   309    1
   746   588   570    2
   747   760   759   ar
   748   760   754   ar
   749   772   767    1
   750   591   593    1
   751    75    74    1
   752   317   315    1
   753   309   311    1
   754   753   754   ar
   755   753   751   ar
   756   682   681    1
   757   759   758   ar
   758   747   748    1
   759   754   755   ar
   760   699   700    1
   761   718   738    2
   762   718   739    1
   763   606   607   ar
   764   606   604   ar
   765   597   598    1
   766   597   599    1
   767   576   575    1
   768   593   594    1
   769   311   313    1
   770   752   751    1
   771   605   604    1
   772   751   750   ar
   773   677   655    2
   774   589   570    1
   775   655   676    1
   776   655   657    1
   777   607   600   ar
   778    77    76    1
   779   758   755   ar
   780   755   756   ar
   781   604   603   ar
   782   570   572    1
   783   570   556    1
   784    76    74    1
   785    76    78    1
   786    74    72    1
   787   672   671    2
   788   683   681    1
   789   683   684    1
   790   700   698    1
   791   673   674   ar
   792   673   670   ar
   793   750   756   ar
   794   572   571    1
   795   600   599    1
   796   600   601   ar
   797   756   757    2
   798   681   679    1
   799   315   313    1
   800   315   316    1
   801   603   601   ar
   802   575   573    1
   803   575   577    1
   804   674   675   ar
   805   599   594    1
   806   571   573    1
   807    81    80    2
   808   663   662    1
   809   346   345    1
   810   601   602    2
   811   568   550    2
   812   671   670   ar
   813   671   665   ar
   814   670   669   ar
   815   684   698    1
   816   657   656    1
   817   313   314    1
   818   662   660    1
   819   662   664    1
   820    80    82   ar
   821    80    79   ar
   822   345   347   ar
   823   345   344   ar
   824    82    83   ar
   825   347   348   ar
   826   573   574    1
   827   556   555    1
   828   675   669   ar
   829   675   664    1
   830    78    79    1
   831    78    73    1
   832    72    70    1
   833    72    73    1
   834   698   717    2
   835   698   716    1
   836   665   666   ar
   837   669   668   ar
   838    79    86   ar
   839   344   342   ar
   840   577   578    1
   841   577   579    1
   842   679   680    1
   843   314   331    1
   844    83    84    1
   845    83    85   ar
   846   348   341   ar
   847   660   658    1
   848   660   661    1
   849   680   678    1
   850   664   659    1
   851   656   658    1
   852   550   569    1
   853   550   552    1
   854   550   533    1
   855    86    85   ar
   856    70    71    1
   857   342   341   ar
   858   342   343    2
   859   587   586   ar
   860   587   580   ar
   861   586   584   ar
   862   341   340    1
   863   666   668   ar
   864   666   667    1
   865    71    69    1
   866   555   553    1
   867   555   557    1
   868   551   552    1
   869   551   553    1
   870   335   340    1
   871   335   334    1
   872   574   579    1
   873   659   658    1
   874   349   331    2
   875   367   366    1
   876   579   580    1
   877   661   678    1
   878   580   581   ar
   879   340   338    1
   880   584   585    1
   881   584   583   ar
   882   331   333    1
   883   331   350    1
   884    87    69    2
   885   553   554    1
   886    88    69    1
   887   533   532    1
   888   678   697    2
   889   678   696    1
   890    69    53    1
   891   366   361   ar
   892   366   365   ar
   893   581   583   ar
   894   581   582    2
   895   361   362   ar
   896   557   558    1
   897   557   559    1
   898   332   333    1
   899   332   334    1
   900   334   336    1
   901    63    62    1
   902    57    62   ar
   903    57    58   ar
   904   365   368   ar
   905   365   364   ar
   906   368   369   ar
   907   362   363   ar
   908    62    61   ar
   909    58    59   ar
   910   338   339    1
   911   338   336    1
   912   532   530    1
   913   532   534    1
   914   554   559    1
   915   528   530    1
   916   528   529    1
   917    53    52    1
   918   364   363   ar
   919   364   370   ar
   920   559   560    1
   921   336   337    1
   922   369   370   ar
   923   567   560   ar
   924   567   566   ar
   925    59    60   ar
   926    61    60   ar
   927    61    64   ar
   928   389   388    1
   929   530   531    1
   930   383   388   ar
   931   383   384   ar
   932   529   527    1
   933   560   561   ar
   934    60    66   ar
   935    52    54    1
   936    52    50    1
   937   566   564   ar
   938    54    55    1
   939    54    56    1
   940   370   360    1
   941   535   534    1
   942    64    65   ar
   943   548   527    2
   944   388   387   ar
   945   534   536    1
   946   384   385   ar
   947   561   562    2
   948   561   563   ar
   949   564   563   ar
   950   564   565    1
   951    66    65   ar
   952    66    56    1
   953    68    47    2
   954   360   355    1
   955   360   358    1
   956   527   549    1
   957   527   511    1
   958   337   351    1
   959   355   354    1
   960   387   386   ar
   961   387   390   ar
   962   385   386   ar
   963   407   406    1
   964    56    51    1
   965   531   536    1
   966    49    47    1
   967    49    48    1
   968    67    47    1
   969   386   392   ar
   970    50    48    1
   971    50    51    1
   972   390   391   ar
   973   536   547    1
   974    47    30    1
   975   372   351    2
   976   406   405   ar
   977   406   408   ar
   978   405   411   ar
   979    41    40    2
   980   511   510    1
   981   513   512    1
   982   351   353    1
   983   351   371    1
   984   547   546   ar
   985   547   541   ar
   986   353   352    1
   987   392   391   ar
   988   392   382    1
   989   408   409   ar
   990   358   359    1
   991   358   356    1
   992   412   411    2
   993   546   545   ar
   994   411   410   ar
   995   354   352    1
   996   354   356    1
   997    40    34   ar
   998    40    39   ar
   999   541   540   ar
  1000   541   542   ar
  1001   540   538   ar
  1002    34    35   ar
  1003   512   510    1
  1004   512   514    1
  1005   409   410   ar
  1006   409   415   ar
  1007   545   542   ar
  1008   382   377    1
  1009   382   380    1
  1010    46    24    2
  1011   410   413   ar
  1012   510   508    1
  1013   542   543   ar
  1014    39    42   ar
  1015    39    38   ar
  1016   356   357    1
  1017    42    43   ar
  1018   538   539    1
  1019   538   537   ar
  1020    30    29    1
  1021    35    36    1
  1022    35    37   ar
  1023    22     1    1
  1024   415   404    1
  1025   415   414   ar
  1026   377   376    1
  1027   543   537   ar
  1028   543   544    2
  1029   413   414   ar
  1030    45    24    1
  1031    29    31    1
  1032    29    27    1
  1033   404   399    1
  1034   404   402    1
  1035    38    37   ar
  1036    38    44   ar
  1037    43    44   ar
  1038    24    26    1
  1039    24     7    1
  1040    26    25    1
  1041   380   381    1
  1042   380   378    1
  1043   430   429    2
  1044   514   524    1
  1045   514   509    1
  1046    31    32    1
  1047    31    33    1
  1048    23     1    1
  1049   399   398    1
  1050    44    33    1
  1051   403   402    1
  1052   508   509    1
  1053   508   506    1
  1054   524   523   ar
  1055   524   518   ar
  1056   523   522   ar
  1057   357   373    1
  1058     1     3    1
  1059   429   431   ar
  1060   429   428   ar
  1061   518   517   ar
  1062   518   519   ar
  1063   517   516   ar
  1064    25    27    1
  1065   402   400    1
  1066   431   432   ar
  1067   522   519   ar
  1068   519   520   ar
  1069    18    17    2
  1070   427   428    1
  1071   427   422    1
  1072   427   425    1
  1073   516   515   ar
  1074    27    28    1
  1075   376   378    1
  1076   376   374    1
  1077   428   435   ar
  1078    33    28    1
  1079   422   421    1
  1080   520   515   ar
  1081   520   521    1
  1082   394   373    2
  1083   506   507    1
  1084   432   433    1
  1085   432   434   ar
  1086   378   379    1
  1087   375   373    1
  1088   375   374    1
  1089   507   505    1
  1090     7     6    1
  1091    19    16   ar
  1092    19    20   ar
  1093   426   425    1
  1094    17    16   ar
  1095    17    11   ar
  1096   373   393    1
  1097   398   400    1
  1098   398   396    1
  1099   435   434   ar
  1100     6     4    1
  1101     6     8    1
  1102    16    15   ar
  1103   450   449    1
  1104     3     2    1
  1105   425   423    1
  1106     2     4    1
  1107    20    21   ar
  1108   400   401    1
  1109    11    12   ar
  1110   421   419    1
  1111   421   423    1
  1112   449   451   ar
  1113   449   448   ar
  1114   525   505    2
  1115   526   505    1
  1116   505   489    1
  1117   396   397    1
  1118   379   395    1
  1119   451   452   ar
  1120    15    21   ar
  1121    15    14   ar
  1122   448   454   ar
  1123   397   395    1
  1124    21    10    1
  1125     4     5    1
  1126     8    10    1
  1127     8     9    1
  1128    12    14   ar
  1129    12    13    1
  1130   419   420    1
  1131   452   453   ar
  1132   452   458   ar
  1133   401   418    1
  1134   423   424    1
  1135   454   455    2
  1136   454   453   ar
  1137   447   442    1
  1138   447   458    1
  1139   447   445    1
  1140   442   441    1
  1141   453   456   ar
  1142   458   457   ar
  1143     5    10    1
  1144   395   417    2
  1145   395   416    1
  1146   420   418    1
  1147   457   456   ar
  1148   489   488    1
  1149   499   498    1
  1150   446   445    1
  1151   424   438    1
  1152   418   437    2
  1153   418   436    1
  1154   498   493   ar
  1155   498   497   ar
  1156   490   488    1
  1157   490   491    1
  1158   490   492    1
  1159   493   494   ar
  1160   488   486    1
  1161   441   439    1
  1162   441   443    1
  1163   445   443    1
  1164   497   500   ar
  1165   497   496   ar
  1166   494   495   ar
  1167   500   501   ar
  1168   496   495   ar
  1169   496   502   ar
  1170   439   440    1
  1171   501   502   ar
  1172   502   492    1
  1173   440   438    1
  1174   443   444    1
  1175   492   487    1
  1176   438   460    2
  1177   438   459    1
  1178   504   483    2
  1179   485   484    1
  1180   485   483    1
  1181   486   484    1
  1182   486   487    1
  1183   483   503    1
  1184   483   467    1
  1185   444   461    1
  1186   477   476    1
  1187   476   471   ar
  1188   476   475   ar
  1189   471   472   ar
  1190   478   475   ar
  1191   478   479   ar
  1192   475   474   ar
  1193   467   466    1
  1194   462   463    1
  1195   462   464    1
  1196   461   482    2
  1197   461   463    1
  1198   461   481    1
  1199   466   468    1
  1200   466   464    1
  1201   472   473   ar
  1202   479   480   ar
  1203   474   473   ar
  1204   474   480   ar
  1205   468   470    1
  1206   468   469    1
  1207   480   470    1
  1208   464   465    1
  1209   470   465    1
