ligand
  PyMOL2.2          3D                             0

 31 33  0  0  0  0  0  0  0  0999 V2000
   26.1610   42.9070   16.5660 P   0  0  0  0  0  0  0  0  0  0  0  0
   24.6690   42.9930   16.3250 O   0  0  0  0  0  0  0  0  0  0  0  0
   26.8370   42.7460   15.2310 O   0  5  0  0  0  0  0  0  0  0  0  0
   26.6530   44.1630   17.2310 O   0  0  0  0  0  0  0  0  0  0  0  0
   27.5500   41.7890   18.4640 C   0  0  0  0  0  0  0  0  0  0  0  0
   26.4710   41.6960   17.5660 O   0  0  0  0  0  0  0  0  0  0  0  0
   27.8730   40.4020   19.0000 C   0  0  0  0  0  0  0  0  0  0  0  0
   27.2770   40.2600   20.2720 O   0  0  0  0  0  0  0  0  0  0  0  0
   27.3520   39.3290   18.0440 C   0  0  0  0  0  0  0  0  0  0  0  0
   28.2130   39.2280   16.9300 O   0  0  0  0  0  0  0  0  0  0  0  0
   27.1390   37.9610   18.7070 C   0  0  0  0  0  0  0  0  0  0  0  0
   26.7810   37.0060   17.7330 O   0  0  0  0  0  0  0  0  0  0  0  0
   28.3720   37.4750   19.4520 C   0  0  0  0  0  0  0  0  0  0  0  0
   28.2800   34.7600   18.6750 N   0  0  0  0  0  0  0  0  0  0  0  0
   28.3000   33.4440   18.2600 C   0  0  0  0  0  0  0  0  0  0  0  0
   28.5360   33.1700   17.0800 O   0  0  0  0  0  0  0  0  0  0  0  0
   28.0450   32.4380   19.1700 N   0  0  0  0  0  0  0  0  0  0  0  0
   27.7710   32.7430   20.4900 C   0  0  0  0  0  0  0  0  0  0  0  0
   27.7520   34.0570   20.9090 C   0  0  0  0  0  0  0  0  0  0  0  0
   27.5510   31.8560   21.3130 O   0  0  0  0  0  0  0  0  0  0  0  0
   27.4650   35.6560   22.6570 C   0  0  0  0  0  0  0  0  0  0  0  0
   27.4810   34.3430   22.2330 N   0  0  0  0  0  0  0  0  0  0  0  0
   27.1900   35.9470   23.9910 C   0  0  0  0  0  0  0  0  0  0  0  0
   27.1640   37.2680   24.4270 C   0  0  0  0  0  0  0  0  0  0  0  0
   26.8760   37.5640   25.8730 C   0  0  0  0  0  0  0  0  0  0  0  0
   27.4190   38.3020   23.5190 C   0  0  0  0  0  0  0  0  0  0  0  0
   27.4130   39.7360   23.9620 C   0  0  0  0  0  0  0  0  0  0  0  0
   27.6940   38.0070   22.1870 C   0  0  0  0  0  0  0  0  0  0  0  0
   27.7180   36.6860   21.7460 C   0  0  0  0  0  0  0  0  0  0  0  0
   28.0100   35.0740   19.9970 C   0  0  0  0  0  0  0  0  0  0  0  0
   27.9830   36.3910   20.4140 N   0  0  0  0  0  0  0  0  0  0  0  0
  1  2  1  0  0  0  0
  1  3  1  0  0  0  0
  1  4  2  0  0  0  0
  5  6  1  0  0  0  0
  1  6  1  0  0  0  0
  5  7  1  0  0  0  0
  7  8  1  0  0  0  0
  7  9  1  0  0  0  0
  9 10  1  0  0  0  0
  9 11  1  0  0  0  0
 11 12  1  0  0  0  0
 11 13  1  0  0  0  0
 14 15  4  0  0  0  0
 14 30  4  0  0  0  0
 15 16  2  0  0  0  0
 15 17  4  0  0  0  0
 17 18  4  0  0  0  0
 18 19  4  0  0  0  0
 18 20  2  0  0  0  0
 19 22  4  0  0  0  0
 19 30  4  0  0  0  0
 21 23  4  0  0  0  0
 21 29  4  0  0  0  0
 21 22  4  0  0  0  0
 23 24  4  0  0  0  0
 24 25  1  0  0  0  0
 24 26  4  0  0  0  0
 26 27  1  0  0  0  0
 26 28  4  0  0  0  0
 28 29  4  0  0  0  0
 29 31  4  0  0  0  0
 13 31  1  0  0  0  0
 30 31  4  0  0  0  0
M  END
$$$$
