ligand
 OpenBabel11021811473D
libRbt.so/2013.1/901 2013/11/27
 31 33  0  0  0  0  0  0  0  0999 V2000
   25.8978   42.6602   16.7145 P   0  0  1  0  0  0  0  0  0  0  0  0
   24.3926   42.7549   16.5843 O   0  0  0  0  0  0  0  0  0  0  0  0
   26.4701   42.4637   15.3364 O   0  5  0  0  0  0  0  0  0  0  0  0
   26.4481   43.9258   17.3122 O   0  0  0  0  0  0  0  0  0  0  0  0
   27.6197   41.2272   18.0422 C   0  0  0  0  0  0  0  0  0  0  0  0
   26.2728   41.4685   17.7154 O   0  0  0  0  0  0  0  0  0  0  0  0
   27.7046   39.9886   18.9220 C   0  0  1  0  0  0  0  0  0  0  0  0
   26.9749   40.2262   20.1071 O   0  0  0  0  0  0  0  0  0  0  0  0
   27.1424   38.7738   18.1839 C   0  0  1  0  0  0  0  0  0  0  0  0
   27.9894   38.4406   17.1050 O   0  0  0  0  0  0  0  0  0  0  0  0
   26.8941   37.5600   19.0903 C   0  0  1  0  0  0  0  0  0  0  0  0
   26.3608   36.4965   18.3331 O   0  0  0  0  0  0  0  0  0  0  0  0
   28.1572   37.0877   19.7925 C   0  0  0  0  0  0  0  0  0  0  0  0
   28.2571   34.3232   19.2171 N   0  0  0  0  0  0  0  0  0  0  0  0
   28.3712   32.9845   18.9019 C   0  0  0  0  0  0  0  0  0  0  0  0
   28.6624   32.6413   17.7527 O   0  0  0  0  0  0  0  0  0  0  0  0
   28.1482   32.0329   19.8765 N   0  0  0  0  0  0  0  0  0  0  0  0
   27.8126   32.4147   21.1618 C   0  0  0  0  0  0  0  0  0  0  0  0
   27.6995   33.7518   21.4813 C   0  0  1  0  0  0  0  0  0  0  0  0
   27.6201   31.5775   22.0419 O   0  0  0  0  0  0  0  0  0  0  0  0
   27.2576   35.4517   23.0967 C   0  0  2  0  0  0  0  0  0  0  0  0
   27.3679   34.1151   22.7721 N   0  0  0  0  0  0  0  0  0  0  0  0
   26.9214   35.8206   24.3970 C   0  0  0  0  0  0  0  0  0  0  0  0
   26.8003   37.1654   24.7327 C   0  0  1  0  0  0  0  0  0  0  0  0
   26.4471   37.5465   26.1439 C   0  0  0  0  0  0  0  0  0  0  0  0
   27.0215   38.1450   23.7579 C   0  0  1  0  0  0  0  0  0  0  0  0
   26.9132   39.6040   24.0927 C   0  0  0  0  0  0  0  0  0  0  0  0
   27.3579   37.7723   22.4599 C   0  0  0  0  0  0  0  0  0  0  0  0
   27.4772   36.4270   22.1192 C   0  0  2  0  0  0  0  0  0  0  0  0
   27.9248   34.7143   20.5039 C   0  0  2  0  0  0  0  0  0  0  0  0
   27.8036   36.0537   20.8209 N   0  0  0  0  0  0  0  0  0  0  0  0
  1  2  1  6  0  0  0
  1  3  1  0  0  0  0
  1  4  2  0  0  0  0
  1  6  1  0  0  0  0
  5  6  1  0  0  0  0
  7  5  1  6  0  0  0
  7  8  1  0  0  0  0
  7  9  1  0  0  0  0
  9 10  1  6  0  0  0
  9 11  1  0  0  0  0
 11 12  1  6  0  0  0
 11 13  1  0  0  0  0
 13 31  1  0  0  0  0
 14 15  1  0  0  0  0
 15 16  2  0  0  0  0
 15 17  1  0  0  0  0
 17 18  1  0  0  0  0
 18 20  2  0  0  0  0
 19 18  1  1  0  0  0
 19 22  1  0  0  0  0
 19 30  1  0  0  0  0
 21 23  1  6  0  0  0
 21 29  1  0  0  0  0
 21 22  1  0  0  0  0
 23 24  1  0  0  0  0
 24 25  1  1  0  0  0
 24 26  1  0  0  0  0
 26 27  1  1  0  0  0
 26 28  1  0  0  0  0
 29 28  1  6  0  0  0
 29 31  1  0  0  0  0
 30 14  1  6  0  0  0
 30 31  1  0  0  0  0
M  CHG  1   3  -1
M  END
>  <CHROM.1>
-175.95724896,-177.08656325,-61.06168829,67.85985788,179.20096953,170.87451270
-88.72024217,27.15113180,37.62300465,19.99573266,-2.34146295,-1.35429552
1.86042372

>  <Name>
ligand

>  <RI>
0

>  <Rbt.Current_Directory>
/home/itssahil/PROJECTS/Mol_Feturizer/New_Systems/rnas/3F2Q

>  <Rbt.Executable>
rbdock ($Id: //depot/dev/client3/rdock/2013.1/src/exe/rbdock.cxx#4 $)

>  <Rbt.Library>
libRbt.so (2013.1, Build901 2013/11/27)

>  <Rbt.Parameter_File>
/export/apps/rDock/src/rDock_2013.1_src/data/scripts/dock_solv.prm

>  <Rbt.Receptor>
prm/pocket_docking_2.prm

>  <SCORE>
-36.7257

>  <SCORE.INTER>
-30.9496

>  <SCORE.INTER.CONST>
1

>  <SCORE.INTER.POLAR>
0

>  <SCORE.INTER.ROT>
7

>  <SCORE.INTER.SOLV>
19.4395

>  <SCORE.INTER.VDW>
-35.3796

>  <SCORE.INTER.norm>
-0.998375

>  <SCORE.INTRA>
-5.7761

>  <SCORE.INTRA.DIHEDRAL>
-7.92186

>  <SCORE.INTRA.DIHEDRAL.0>
10.0718

>  <SCORE.INTRA.POLAR>
0

>  <SCORE.INTRA.POLAR.0>
0

>  <SCORE.INTRA.REPUL>
0

>  <SCORE.INTRA.REPUL.0>
0

>  <SCORE.INTRA.SOLV>
-0.600675

>  <SCORE.INTRA.SOLV.lig_0>
-48.6963

>  <SCORE.INTRA.VDW>
-1.51483

>  <SCORE.INTRA.VDW.0>
-0.836976

>  <SCORE.INTRA.norm>
-0.186326

>  <SCORE.RESTR>
0

>  <SCORE.RESTR.CAVITY>
0

>  <SCORE.RESTR.norm>
0

>  <SCORE.SYSTEM>
0

>  <SCORE.SYSTEM.CONST>
0

>  <SCORE.SYSTEM.DIHEDRAL>
0

>  <SCORE.SYSTEM.SOLV>
0

>  <SCORE.SYSTEM.norm>
0

>  <SCORE.heavy>
31

>  <SCORE.norm>
-1.1847

>  <RMSD>
0.607

$$$$
ligand
 OpenBabel11021811473D
libRbt.so/2013.1/901 2013/11/27
 31 33  0  0  0  0  0  0  0  0999 V2000
   25.9001   42.6202   16.7045 P   0  0  1  0  0  0  0  0  0  0  0  0
   24.4053   42.6958   16.4776 O   0  0  0  0  0  0  0  0  0  0  0  0
   26.5653   42.4741   15.3624 O   0  5  0  0  0  0  0  0  0  0  0  0
   26.3880   43.8754   17.3741 O   0  0  0  0  0  0  0  0  0  0  0  0
   27.5465   41.2070   18.1446 C   0  0  0  0  0  0  0  0  0  0  0  0
   26.2288   41.4047   17.6930 O   0  0  0  0  0  0  0  0  0  0  0  0
   27.5881   39.9740   19.0353 C   0  0  1  0  0  0  0  0  0  0  0  0
   26.7538   40.1962   20.1524 O   0  0  0  0  0  0  0  0  0  0  0  0
   27.1229   38.7423   18.2586 C   0  0  1  0  0  0  0  0  0  0  0  0
   28.0427   38.4574   17.2264 O   0  0  0  0  0  0  0  0  0  0  0  0
   26.8797   37.5102   19.1413 C   0  0  1  0  0  0  0  0  0  0  0  0
   26.3266   36.4679   18.3690 O   0  0  0  0  0  0  0  0  0  0  0  0
   28.1501   37.0131   19.8126 C   0  0  0  0  0  0  0  0  0  0  0  0
   28.2796   34.2517   19.2283 N   0  0  0  0  0  0  0  0  0  0  0  0
   28.4082   32.9153   18.9089 C   0  0  0  0  0  0  0  0  0  0  0  0
   28.7069   32.5789   17.7596 O   0  0  0  0  0  0  0  0  0  0  0  0
   28.1912   31.9582   19.8795 N   0  0  0  0  0  0  0  0  0  0  0  0
   27.8472   32.3322   21.1649 C   0  0  0  0  0  0  0  0  0  0  0  0
   27.7195   33.6670   21.4884 C   0  0  1  0  0  0  0  0  0  0  0  0
   27.6599   31.4901   22.0414 O   0  0  0  0  0  0  0  0  0  0  0  0
   27.2549   35.3569   23.1080 C   0  0  2  0  0  0  0  0  0  0  0  0
   27.3797   34.0226   22.7792 N   0  0  0  0  0  0  0  0  0  0  0  0
   26.9104   35.7179   24.4083 C   0  0  0  0  0  0  0  0  0  0  0  0
   26.7747   37.0603   24.7481 C   0  0  1  0  0  0  0  0  0  0  0  0
   26.4126   37.4330   26.1593 C   0  0  0  0  0  0  0  0  0  0  0  0
   26.9896   38.0454   23.7775 C   0  0  1  0  0  0  0  0  0  0  0  0
   26.8655   39.5021   24.1169 C   0  0  0  0  0  0  0  0  0  0  0  0
   27.3344   37.6805   22.4795 C   0  0  0  0  0  0  0  0  0  0  0  0
   27.4683   36.3377   22.1346 C   0  0  2  0  0  0  0  0  0  0  0  0
   27.9388   34.6351   20.5152 C   0  0  2  0  0  0  0  0  0  0  0  0
   27.8031   35.9721   20.8363 N   0  0  0  0  0  0  0  0  0  0  0  0
  1  2  1  6  0  0  0
  1  3  1  0  0  0  0
  1  4  2  0  0  0  0
  1  6  1  0  0  0  0
  5  6  1  0  0  0  0
  7  5  1  6  0  0  0
  7  8  1  0  0  0  0
  7  9  1  0  0  0  0
  9 10  1  6  0  0  0
  9 11  1  0  0  0  0
 11 12  1  6  0  0  0
 11 13  1  0  0  0  0
 13 31  1  0  0  0  0
 14 15  1  0  0  0  0
 15 16  2  0  0  0  0
 15 17  1  0  0  0  0
 17 18  1  0  0  0  0
 18 20  2  0  0  0  0
 19 18  1  1  0  0  0
 19 22  1  0  0  0  0
 19 30  1  0  0  0  0
 21 23  1  6  0  0  0
 21 29  1  0  0  0  0
 21 22  1  0  0  0  0
 23 24  1  0  0  0  0
 24 25  1  1  0  0  0
 24 26  1  0  0  0  0
 26 27  1  1  0  0  0
 26 28  1  0  0  0  0
 29 28  1  6  0  0  0
 29 31  1  0  0  0  0
 30 14  1  6  0  0  0
 30 31  1  0  0  0  0
M  CHG  1   3  -1
M  END
>  <CHROM.1>
-178.59227325,-174.50639378,-61.57611112,65.71741284,174.06549641,170.10998616
-86.76222396,27.14004535,37.56052427,20.01751400,-2.32157164,-1.34516689
1.88450852

>  <Name>
ligand

>  <RI>
0

>  <Rbt.Current_Directory>
/home/itssahil/PROJECTS/Mol_Feturizer/New_Systems/rnas/3F2Q

>  <Rbt.Executable>
rbdock ($Id: //depot/dev/client3/rdock/2013.1/src/exe/rbdock.cxx#4 $)

>  <Rbt.Library>
libRbt.so (2013.1, Build901 2013/11/27)

>  <Rbt.Parameter_File>
/export/apps/rDock/src/rDock_2013.1_src/data/scripts/dock_solv.prm

>  <Rbt.Receptor>
prm/pocket_docking_2.prm

>  <SCORE>
-36.6599

>  <SCORE.INTER>
-30.8683

>  <SCORE.INTER.CONST>
1

>  <SCORE.INTER.POLAR>
0

>  <SCORE.INTER.ROT>
7

>  <SCORE.INTER.SOLV>
19.5347

>  <SCORE.INTER.VDW>
-35.3571

>  <SCORE.INTER.norm>
-0.99575

>  <SCORE.INTRA>
-5.79161

>  <SCORE.INTRA.DIHEDRAL>
-7.87529

>  <SCORE.INTRA.DIHEDRAL.0>
10.0718

>  <SCORE.INTRA.POLAR>
0

>  <SCORE.INTRA.POLAR.0>
0

>  <SCORE.INTRA.REPUL>
0

>  <SCORE.INTRA.REPUL.0>
0

>  <SCORE.INTRA.SOLV>
-0.633534

>  <SCORE.INTRA.SOLV.lig_0>
-48.6963

>  <SCORE.INTRA.VDW>
-1.5372

>  <SCORE.INTRA.VDW.0>
-0.836976

>  <SCORE.INTRA.norm>
-0.186826

>  <SCORE.RESTR>
0

>  <SCORE.RESTR.CAVITY>
0

>  <SCORE.RESTR.norm>
0

>  <SCORE.SYSTEM>
0

>  <SCORE.SYSTEM.CONST>
0

>  <SCORE.SYSTEM.DIHEDRAL>
0

>  <SCORE.SYSTEM.SOLV>
0

>  <SCORE.SYSTEM.norm>
0

>  <SCORE.heavy>
31

>  <SCORE.norm>
-1.18258

>  <RMSD>
0.655

$$$$
ligand
 OpenBabel11021811473D
libRbt.so/2013.1/901 2013/11/27
 31 33  0  0  0  0  0  0  0  0999 V2000
   25.9484   42.7238   16.6118 P   0  0  1  0  0  0  0  0  0  0  0  0
   24.4461   42.5465   16.5553 O   0  0  0  0  0  0  0  0  0  0  0  0
   26.4503   42.8738   15.2009 O   0  5  0  0  0  0  0  0  0  0  0  0
   26.2968   43.9542   17.4034 O   0  0  0  0  0  0  0  0  0  0  0  0
   26.1656   41.1359   18.6644 C   0  0  0  0  0  0  0  0  0  0  0  0
   26.6046   41.4772   17.3721 O   0  0  0  0  0  0  0  0  0  0  0  0
   26.9665   39.9423   19.1637 C   0  0  1  0  0  0  0  0  0  0  0  0
   26.5742   39.6589   20.4900 O   0  0  0  0  0  0  0  0  0  0  0  0
   26.7263   38.7289   18.2655 C   0  0  1  0  0  0  0  0  0  0  0  0
   27.6995   38.6954   17.2436 O   0  0  0  0  0  0  0  0  0  0  0  0
   26.6743   37.3970   19.0268 C   0  0  1  0  0  0  0  0  0  0  0  0
   26.3623   36.3477   18.1376 O   0  0  0  0  0  0  0  0  0  0  0  0
   27.9812   37.0780   19.7351 C   0  0  0  0  0  0  0  0  0  0  0  0
   28.1178   34.3109   19.1799 N   0  0  0  0  0  0  0  0  0  0  0  0
   28.2467   32.9724   18.8695 C   0  0  0  0  0  0  0  0  0  0  0  0
   28.4588   32.6243   17.7046 O   0  0  0  0  0  0  0  0  0  0  0  0
   28.1272   32.0263   19.8673 N   0  0  0  0  0  0  0  0  0  0  0  0
   27.8802   32.4134   21.1710 C   0  0  0  0  0  0  0  0  0  0  0  0
   27.7526   33.7503   21.4856 C   0  0  1  0  0  0  0  0  0  0  0  0
   27.7805   31.5813   22.0712 O   0  0  0  0  0  0  0  0  0  0  0  0
   27.3863   35.4557   23.1141 C   0  0  2  0  0  0  0  0  0  0  0  0
   27.5105   34.1191   22.7946 N   0  0  0  0  0  0  0  0  0  0  0  0
   27.1401   35.8299   24.4329 C   0  0  0  0  0  0  0  0  0  0  0  0
   27.0056   37.1745   24.7642 C   0  0  1  0  0  0  0  0  0  0  0  0
   26.7507   37.5618   26.1947 C   0  0  0  0  0  0  0  0  0  0  0  0
   27.1225   38.1486   23.7661 C   0  0  1  0  0  0  0  0  0  0  0  0
   26.9974   39.6078   24.0945 C   0  0  0  0  0  0  0  0  0  0  0  0
   27.3691   37.7706   22.4496 C   0  0  0  0  0  0  0  0  0  0  0  0
   27.5014   36.4253   22.1135 C   0  0  2  0  0  0  0  0  0  0  0  0
   27.8739   34.7074   20.4847 C   0  0  2  0  0  0  0  0  0  0  0  0
   27.7381   36.0464   20.7975 N   0  0  0  0  0  0  0  0  0  0  0  0
  1  2  1  6  0  0  0
  1  3  1  0  0  0  0
  1  4  2  0  0  0  0
  1  6  1  0  0  0  0
  5  6  1  0  0  0  0
  7  5  1  6  0  0  0
  7  8  1  0  0  0  0
  7  9  1  0  0  0  0
  9 10  1  6  0  0  0
  9 11  1  0  0  0  0
 11 12  1  6  0  0  0
 11 13  1  0  0  0  0
 13 31  1  0  0  0  0
 14 15  1  0  0  0  0
 15 16  2  0  0  0  0
 15 17  1  0  0  0  0
 17 18  1  0  0  0  0
 18 20  2  0  0  0  0
 19 18  1  1  0  0  0
 19 22  1  0  0  0  0
 19 30  1  0  0  0  0
 21 23  1  6  0  0  0
 21 29  1  0  0  0  0
 21 22  1  0  0  0  0
 23 24  1  0  0  0  0
 24 25  1  1  0  0  0
 24 26  1  0  0  0  0
 26 27  1  1  0  0  0
 26 28  1  0  0  0  0
 29 28  1  6  0  0  0
 29 31  1  0  0  0  0
 30 14  1  6  0  0  0
 30 31  1  0  0  0  0
M  CHG  1   3  -1
M  END
>  <CHROM.1>
-178.83579681,-54.97536952,176.53122242,91.77867281,176.12941170,161.37721223
-94.71811288,27.07264792,37.60841905,20.01127967,-2.55205720,-1.36577634
1.64281578

>  <Name>
ligand

>  <RI>
0

>  <Rbt.Current_Directory>
/home/itssahil/PROJECTS/Mol_Feturizer/New_Systems/rnas/3F2Q

>  <Rbt.Executable>
rbdock ($Id: //depot/dev/client3/rdock/2013.1/src/exe/rbdock.cxx#4 $)

>  <Rbt.Library>
libRbt.so (2013.1, Build901 2013/11/27)

>  <Rbt.Parameter_File>
/export/apps/rDock/src/rDock_2013.1_src/data/scripts/dock_solv.prm

>  <Rbt.Receptor>
prm/pocket_docking_2.prm

>  <SCORE>
-34.305

>  <SCORE.INTER>
-30.3663

>  <SCORE.INTER.CONST>
1

>  <SCORE.INTER.POLAR>
0

>  <SCORE.INTER.ROT>
7

>  <SCORE.INTER.SOLV>
19.9622

>  <SCORE.INTER.VDW>
-35.165

>  <SCORE.INTER.norm>
-0.979559

>  <SCORE.INTRA>
-3.93866

>  <SCORE.INTRA.DIHEDRAL>
-4.34097

>  <SCORE.INTRA.DIHEDRAL.0>
10.0718

>  <SCORE.INTRA.POLAR>
0

>  <SCORE.INTRA.POLAR.0>
0

>  <SCORE.INTRA.REPUL>
0

>  <SCORE.INTRA.REPUL.0>
0

>  <SCORE.INTRA.SOLV>
-0.993226

>  <SCORE.INTRA.SOLV.lig_0>
-48.6963

>  <SCORE.INTRA.VDW>
-1.27156

>  <SCORE.INTRA.VDW.0>
-0.836976

>  <SCORE.INTRA.norm>
-0.127053

>  <SCORE.RESTR>
0

>  <SCORE.RESTR.CAVITY>
0

>  <SCORE.RESTR.norm>
0

>  <SCORE.SYSTEM>
0

>  <SCORE.SYSTEM.CONST>
0

>  <SCORE.SYSTEM.DIHEDRAL>
0

>  <SCORE.SYSTEM.SOLV>
0

>  <SCORE.SYSTEM.norm>
0

>  <SCORE.heavy>
31

>  <SCORE.norm>
-1.10661

>  <RMSD>
0.702

$$$$
ligand
 OpenBabel11021811473D
libRbt.so/2013.1/901 2013/11/27
 31 33  0  0  0  0  0  0  0  0999 V2000
   25.9080   42.7114   16.5740 P   0  0  1  0  0  0  0  0  0  0  0  0
   24.4061   42.5467   16.4807 O   0  0  0  0  0  0  0  0  0  0  0  0
   26.4425   42.8824   15.1775 O   0  5  0  0  0  0  0  0  0  0  0  0
   26.2475   43.9250   17.3948 O   0  0  0  0  0  0  0  0  0  0  0  0
   26.0710   41.0892   18.6047 C   0  0  0  0  0  0  0  0  0  0  0  0
   26.5378   41.4466   17.3265 O   0  0  0  0  0  0  0  0  0  0  0  0
   26.9012   39.9280   19.1315 C   0  0  1  0  0  0  0  0  0  0  0  0
   26.4895   39.6415   20.4513 O   0  0  0  0  0  0  0  0  0  0  0  0
   26.7230   38.7001   18.2387 C   0  0  1  0  0  0  0  0  0  0  0  0
   27.7331   38.6801   17.2528 O   0  0  0  0  0  0  0  0  0  0  0  0
   26.6757   37.3750   19.0121 C   0  0  1  0  0  0  0  0  0  0  0  0
   26.3809   36.3147   18.1303 O   0  0  0  0  0  0  0  0  0  0  0  0
   27.9789   37.0742   19.7352 C   0  0  0  0  0  0  0  0  0  0  0  0
   28.1479   34.3118   19.1661 N   0  0  0  0  0  0  0  0  0  0  0  0
   28.2927   32.9764   18.8493 C   0  0  0  0  0  0  0  0  0  0  0  0
   28.5160   32.6368   17.6840 O   0  0  0  0  0  0  0  0  0  0  0  0
   28.1765   32.0237   19.8412 N   0  0  0  0  0  0  0  0  0  0  0  0
   27.9169   32.4011   21.1453 C   0  0  0  0  0  0  0  0  0  0  0  0
   27.7735   33.7348   21.4662 C   0  0  1  0  0  0  0  0  0  0  0  0
   27.8200   31.5631   22.0403 O   0  0  0  0  0  0  0  0  0  0  0  0
   27.3788   35.4275   23.1014 C   0  0  2  0  0  0  0  0  0  0  0  0
   27.5190   34.0940   22.7756 N   0  0  0  0  0  0  0  0  0  0  0  0
   27.1202   35.7920   24.4206 C   0  0  0  0  0  0  0  0  0  0  0  0
   26.9696   37.1333   24.7582 C   0  0  1  0  0  0  0  0  0  0  0  0
   26.7013   37.5101   26.1891 C   0  0  0  0  0  0  0  0  0  0  0  0
   27.0829   38.1139   23.7661 C   0  0  1  0  0  0  0  0  0  0  0  0
   26.9404   39.5699   24.1015 C   0  0  0  0  0  0  0  0  0  0  0  0
   27.3420   37.7456   22.4493 C   0  0  0  0  0  0  0  0  0  0  0  0
   27.4904   36.4037   22.1068 C   0  0  2  0  0  0  0  0  0  0  0  0
   27.8914   34.6986   20.4713 C   0  0  2  0  0  0  0  0  0  0  0  0
   27.7396   36.0344   20.7904 N   0  0  0  0  0  0  0  0  0  0  0  0
  1  2  1  6  0  0  0
  1  3  1  0  0  0  0
  1  4  2  0  0  0  0
  1  6  1  0  0  0  0
  5  6  1  0  0  0  0
  7  5  1  6  0  0  0
  7  8  1  0  0  0  0
  7  9  1  0  0  0  0
  9 10  1  6  0  0  0
  9 11  1  0  0  0  0
 11 12  1  6  0  0  0
 11 13  1  0  0  0  0
 13 31  1  0  0  0  0
 14 15  1  0  0  0  0
 15 16  2  0  0  0  0
 15 17  1  0  0  0  0
 17 18  1  0  0  0  0
 18 20  2  0  0  0  0
 19 18  1  1  0  0  0
 19 22  1  0  0  0  0
 19 30  1  0  0  0  0
 21 23  1  6  0  0  0
 21 29  1  0  0  0  0
 21 22  1  0  0  0  0
 23 24  1  0  0  0  0
 24 25  1  1  0  0  0
 24 26  1  0  0  0  0
 26 27  1  1  0  0  0
 26 28  1  0  0  0  0
 29 28  1  6  0  0  0
 29 31  1  0  0  0  0
 30 14  1  6  0  0  0
 30 31  1  0  0  0  0
M  CHG  1   3  -1
M  END
>  <CHROM.1>
-175.79603959,-55.22189380,175.78505990,92.77684314,174.33969574,162.28469925
-95.19024125,27.05998877,37.58958259,19.99093592,-2.51684373,-1.35356392
1.67580777

>  <Name>
ligand

>  <RI>
0

>  <Rbt.Current_Directory>
/home/itssahil/PROJECTS/Mol_Feturizer/New_Systems/rnas/3F2Q

>  <Rbt.Executable>
rbdock ($Id: //depot/dev/client3/rdock/2013.1/src/exe/rbdock.cxx#4 $)

>  <Rbt.Library>
libRbt.so (2013.1, Build901 2013/11/27)

>  <Rbt.Parameter_File>
/export/apps/rDock/src/rDock_2013.1_src/data/scripts/dock_solv.prm

>  <Rbt.Receptor>
prm/pocket_docking_5.prm

>  <SCORE>
-34.3646

>  <SCORE.INTER>
-30.4242

>  <SCORE.INTER.CONST>
1

>  <SCORE.INTER.POLAR>
0

>  <SCORE.INTER.ROT>
7

>  <SCORE.INTER.SOLV>
20.0564

>  <SCORE.INTER.VDW>
-35.2349

>  <SCORE.INTER.norm>
-0.981427

>  <SCORE.INTRA>
-3.94038

>  <SCORE.INTRA.DIHEDRAL>
-4.14431

>  <SCORE.INTRA.DIHEDRAL.0>
10.0718

>  <SCORE.INTRA.POLAR>
0

>  <SCORE.INTRA.POLAR.0>
0

>  <SCORE.INTRA.REPUL>
0

>  <SCORE.INTRA.REPUL.0>
0

>  <SCORE.INTRA.SOLV>
-1.03525

>  <SCORE.INTRA.SOLV.lig_0>
-48.6963

>  <SCORE.INTRA.VDW>
-1.3506

>  <SCORE.INTRA.VDW.0>
-0.836976

>  <SCORE.INTRA.norm>
-0.127109

>  <SCORE.RESTR>
0

>  <SCORE.RESTR.CAVITY>
0

>  <SCORE.RESTR.norm>
0

>  <SCORE.SYSTEM>
0

>  <SCORE.SYSTEM.CONST>
0

>  <SCORE.SYSTEM.DIHEDRAL>
0

>  <SCORE.SYSTEM.SOLV>
0

>  <SCORE.SYSTEM.norm>
0

>  <SCORE.heavy>
31

>  <SCORE.norm>
-1.10854

>  <RMSD>
0.718

$$$$
ligand
 OpenBabel11021811473D
libRbt.so/2013.1/901 2013/11/27
 31 33  0  0  0  0  0  0  0  0999 V2000
   26.0649   42.8336   16.6086 P   0  0  1  0  0  0  0  0  0  0  0  0
   26.6999   42.5748   15.2591 O   0  0  0  0  0  0  0  0  0  0  0  0
   26.5365   44.1787   17.0918 O   0  5  0  0  0  0  0  0  0  0  0  0
   24.5661   42.8406   16.4847 O   0  0  0  0  0  0  0  0  0  0  0  0
   27.7921   41.4257   17.9563 C   0  0  0  0  0  0  0  0  0  0  0  0
   26.4456   41.6473   17.6138 O   0  0  0  0  0  0  0  0  0  0  0  0
   27.8770   40.2320   18.8961 C   0  0  1  0  0  0  0  0  0  0  0  0
   27.1072   40.5082   20.0469 O   0  0  0  0  0  0  0  0  0  0  0  0
   27.3632   38.9714   18.2006 C   0  0  1  0  0  0  0  0  0  0  0  0
   28.2799   38.5727   17.2040 O   0  0  0  0  0  0  0  0  0  0  0  0
   27.0529   37.8169   19.1635 C   0  0  1  0  0  0  0  0  0  0  0  0
   26.4442   36.7563   18.4611 O   0  0  0  0  0  0  0  0  0  0  0  0
   28.2940   37.2981   19.8721 C   0  0  0  0  0  0  0  0  0  0  0  0
   28.3354   34.5491   19.2202 N   0  0  0  0  0  0  0  0  0  0  0  0
   28.4217   33.2174   18.8687 C   0  0  0  0  0  0  0  0  0  0  0  0
   28.7203   32.8995   17.7142 O   0  0  0  0  0  0  0  0  0  0  0  0
   28.1625   32.2447   19.8130 N   0  0  0  0  0  0  0  0  0  0  0  0
   27.8185   32.5985   21.1041 C   0  0  0  0  0  0  0  0  0  0  0  0
   27.7331   33.9284   21.4598 C   0  0  1  0  0  0  0  0  0  0  0  0
   27.5939   31.7419   21.9576 O   0  0  0  0  0  0  0  0  0  0  0  0
   27.3100   35.5928   23.1167 C   0  0  2  0  0  0  0  0  0  0  0  0
   27.3926   34.2635   22.7559 N   0  0  0  0  0  0  0  0  0  0  0  0
   26.9649   35.9332   24.4224 C   0  0  0  0  0  0  0  0  0  0  0  0
   26.8715   37.2707   24.7943 C   0  0  1  0  0  0  0  0  0  0  0  0
   26.5082   37.6206   26.2110 C   0  0  0  0  0  0  0  0  0  0  0  0
   27.1295   38.2715   23.8507 C   0  0  1  0  0  0  0  0  0  0  0  0
   27.0517   39.7228   24.2252 C   0  0  0  0  0  0  0  0  0  0  0  0
   27.4747   37.9271   22.5472 C   0  0  0  0  0  0  0  0  0  0  0  0
   27.5663   36.5894   22.1701 C   0  0  2  0  0  0  0  0  0  0  0  0
   27.9949   34.9122   20.5130 C   0  0  2  0  0  0  0  0  0  0  0  0
   27.9015   36.2447   20.8662 N   0  0  0  0  0  0  0  0  0  0  0  0
  1  2  1  6  0  0  0
  1  3  1  0  0  0  0
  1  4  2  0  0  0  0
  1  6  1  0  0  0  0
  5  6  1  0  0  0  0
  7  5  1  6  0  0  0
  7  8  1  0  0  0  0
  7  9  1  0  0  0  0
  9 10  1  6  0  0  0
  9 11  1  0  0  0  0
 11 12  1  6  0  0  0
 11 13  1  0  0  0  0
 13 31  1  0  0  0  0
 14 15  1  0  0  0  0
 15 16  2  0  0  0  0
 15 17  1  0  0  0  0
 17 18  1  0  0  0  0
 18 20  2  0  0  0  0
 19 18  1  1  0  0  0
 19 22  1  0  0  0  0
 19 30  1  0  0  0  0
 21 23  1  6  0  0  0
 21 29  1  0  0  0  0
 21 22  1  0  0  0  0
 23 24  1  0  0  0  0
 24 25  1  1  0  0  0
 24 26  1  0  0  0  0
 26 27  1  1  0  0  0
 26 28  1  0  0  0  0
 29 28  1  6  0  0  0
 29 31  1  0  0  0  0
 30 14  1  6  0  0  0
 30 31  1  0  0  0  0
M  CHG  1   3  -1
M  END
>  <CHROM.1>
-178.90499687,62.55523891,-59.18020262,70.50536289,173.30350624,175.88143481
-88.92641666,27.26190167,37.80307029,19.98584163,-2.26786800,-1.36275128
1.91209284

>  <Name>
ligand

>  <RI>
0

>  <Rbt.Current_Directory>
/home/itssahil/PROJECTS/Mol_Feturizer/New_Systems/rnas/3F2Q

>  <Rbt.Executable>
rbdock ($Id: //depot/dev/client3/rdock/2013.1/src/exe/rbdock.cxx#4 $)

>  <Rbt.Library>
libRbt.so (2013.1, Build901 2013/11/27)

>  <Rbt.Parameter_File>
/export/apps/rDock/src/rDock_2013.1_src/data/scripts/dock_solv.prm

>  <Rbt.Receptor>
prm/pocket_docking_3.prm

>  <SCORE>
-37.5244

>  <SCORE.INTER>
-31.4257

>  <SCORE.INTER.CONST>
1

>  <SCORE.INTER.POLAR>
0

>  <SCORE.INTER.ROT>
7

>  <SCORE.INTER.SOLV>
18.0475

>  <SCORE.INTER.VDW>
-35.233

>  <SCORE.INTER.norm>
-1.01373

>  <SCORE.INTRA>
-6.11965

>  <SCORE.INTRA.DIHEDRAL>
-7.89471

>  <SCORE.INTRA.DIHEDRAL.0>
10.0718

>  <SCORE.INTRA.POLAR>
0

>  <SCORE.INTRA.POLAR.0>
0

>  <SCORE.INTRA.REPUL>
0

>  <SCORE.INTRA.REPUL.0>
0

>  <SCORE.INTRA.SOLV>
-1.1858

>  <SCORE.INTRA.SOLV.lig_0>
-48.6963

>  <SCORE.INTRA.VDW>
-1.5794

>  <SCORE.INTRA.VDW.0>
-0.836976

>  <SCORE.INTRA.norm>
-0.197408

>  <SCORE.RESTR>
0.0210234

>  <SCORE.RESTR.CAVITY>
0.0210234

>  <SCORE.RESTR.norm>
0.000678174

>  <SCORE.SYSTEM>
0

>  <SCORE.SYSTEM.CONST>
0

>  <SCORE.SYSTEM.DIHEDRAL>
0

>  <SCORE.SYSTEM.SOLV>
0

>  <SCORE.SYSTEM.norm>
0

>  <SCORE.heavy>
31

>  <SCORE.norm>
-1.21046

>  <RMSD>
0.806

$$$$
ligand
 OpenBabel11021811473D
libRbt.so/2013.1/901 2013/11/27
 31 33  0  0  0  0  0  0  0  0999 V2000
   26.2249   42.8115   16.7600 P   0  0  1  0  0  0  0  0  0  0  0  0
   26.4017   42.3014   15.3458 O   0  0  0  0  0  0  0  0  0  0  0  0
   27.1602   43.9748   16.9528 O   0  5  0  0  0  0  0  0  0  0  0  0
   24.8071   43.2647   16.9753 O   0  0  0  0  0  0  0  0  0  0  0  0
   27.8196   41.2618   18.1154 C   0  0  0  0  0  0  0  0  0  0  0  0
   26.4976   41.6209   17.7947 O   0  0  0  0  0  0  0  0  0  0  0  0
   27.7980   40.0377   19.0189 C   0  0  1  0  0  0  0  0  0  0  0  0
   27.0405   40.3408   20.1711 O   0  0  0  0  0  0  0  0  0  0  0  0
   27.1922   38.8439   18.2810 C   0  0  1  0  0  0  0  0  0  0  0  0
   28.0178   38.4910   17.1918 O   0  0  0  0  0  0  0  0  0  0  0  0
   26.9170   37.6336   19.1842 C   0  0  1  0  0  0  0  0  0  0  0  0
   26.3042   36.6064   18.4369 O   0  0  0  0  0  0  0  0  0  0  0  0
   28.1797   37.0915   19.8346 C   0  0  0  0  0  0  0  0  0  0  0  0
   28.2872   34.3327   19.2337 N   0  0  0  0  0  0  0  0  0  0  0  0
   28.4055   32.9972   18.9068 C   0  0  0  0  0  0  0  0  0  0  0  0
   28.7105   32.6652   17.7579 O   0  0  0  0  0  0  0  0  0  0  0  0
   28.1711   32.0361   19.8693 N   0  0  0  0  0  0  0  0  0  0  0  0
   27.8200   32.4054   21.1542 C   0  0  0  0  0  0  0  0  0  0  0  0
   27.7027   33.7392   21.4853 C   0  0  1  0  0  0  0  0  0  0  0  0
   27.6173   31.5596   22.0237 O   0  0  0  0  0  0  0  0  0  0  0  0
   27.2411   35.4233   23.1118 C   0  0  2  0  0  0  0  0  0  0  0  0
   27.3556   34.0900   22.7755 N   0  0  0  0  0  0  0  0  0  0  0  0
   26.8892   35.7794   24.4115 C   0  0  0  0  0  0  0  0  0  0  0  0
   26.7637   37.1208   24.7587 C   0  0  1  0  0  0  0  0  0  0  0  0
   26.3936   37.4881   26.1692 C   0  0  0  0  0  0  0  0  0  0  0  0
   26.9963   38.1099   23.7963 C   0  0  1  0  0  0  0  0  0  0  0  0
   26.8836   39.5656   24.1440 C   0  0  0  0  0  0  0  0  0  0  0  0
   27.3483   37.7500   22.4989 C   0  0  0  0  0  0  0  0  0  0  0  0
   27.4721   36.4081   22.1465 C   0  0  2  0  0  0  0  0  0  0  0  0
   27.9395   34.7113   20.5201 C   0  0  2  0  0  0  0  0  0  0  0  0
   27.8141   36.0475   20.8487 N   0  0  0  0  0  0  0  0  0  0  0  0
  1  2  1  6  0  0  0
  1  3  1  0  0  0  0
  1  4  2  0  0  0  0
  1  6  1  0  0  0  0
  5  6  1  0  0  0  0
  7  5  1  6  0  0  0
  7  8  1  0  0  0  0
  7  9  1  0  0  0  0
  9 10  1  6  0  0  0
  9 11  1  0  0  0  0
 11 12  1  6  0  0  0
 11 13  1  0  0  0  0
 13 31  1  0  0  0  0
 14 15  1  0  0  0  0
 15 16  2  0  0  0  0
 15 17  1  0  0  0  0
 17 18  1  0  0  0  0
 18 20  2  0  0  0  0
 19 18  1  1  0  0  0
 19 22  1  0  0  0  0
 19 30  1  0  0  0  0
 21 23  1  6  0  0  0
 21 29  1  0  0  0  0
 21 22  1  0  0  0  0
 23 24  1  0  0  0  0
 24 25  1  1  0  0  0
 24 26  1  0  0  0  0
 26 27  1  1  0  0  0
 26 28  1  0  0  0  0
 29 28  1  6  0  0  0
 29 31  1  0  0  0  0
 30 14  1  6  0  0  0
 30 31  1  0  0  0  0
M  CHG  1   3  -1
M  END
>  <CHROM.1>
-175.23288636,79.53508792,-57.76586519,64.38041795,177.28891051,171.84293251
-85.16263979,27.23131815,37.66062910,20.03235943,-2.18719072,-1.36334476
2.02367240

>  <Name>
ligand

>  <RI>
0

>  <Rbt.Current_Directory>
/home/itssahil/PROJECTS/Mol_Feturizer/New_Systems/rnas/3F2Q

>  <Rbt.Executable>
rbdock ($Id: //depot/dev/client3/rdock/2013.1/src/exe/rbdock.cxx#4 $)

>  <Rbt.Library>
libRbt.so (2013.1, Build901 2013/11/27)

>  <Rbt.Parameter_File>
/export/apps/rDock/src/rDock_2013.1_src/data/scripts/dock_solv.prm

>  <Rbt.Receptor>
prm/pocket_docking_2.prm

>  <SCORE>
-37.4618

>  <SCORE.INTER>
-31.6161

>  <SCORE.INTER.CONST>
1

>  <SCORE.INTER.POLAR>
0

>  <SCORE.INTER.ROT>
7

>  <SCORE.INTER.SOLV>
17.9593

>  <SCORE.INTER.VDW>
-35.3305

>  <SCORE.INTER.norm>
-1.01987

>  <SCORE.INTRA>
-5.84571

>  <SCORE.INTRA.DIHEDRAL>
-7.5212

>  <SCORE.INTRA.DIHEDRAL.0>
10.0718

>  <SCORE.INTRA.POLAR>
0

>  <SCORE.INTRA.POLAR.0>
0

>  <SCORE.INTRA.REPUL>
0

>  <SCORE.INTRA.REPUL.0>
0

>  <SCORE.INTRA.SOLV>
-1.0683

>  <SCORE.INTRA.SOLV.lig_0>
-48.6963

>  <SCORE.INTRA.VDW>
-1.55096

>  <SCORE.INTRA.VDW.0>
-0.836976

>  <SCORE.INTRA.norm>
-0.188571

>  <SCORE.RESTR>
0

>  <SCORE.RESTR.CAVITY>
0

>  <SCORE.RESTR.norm>
0

>  <SCORE.SYSTEM>
0

>  <SCORE.SYSTEM.CONST>
0

>  <SCORE.SYSTEM.DIHEDRAL>
0

>  <SCORE.SYSTEM.SOLV>
0

>  <SCORE.SYSTEM.norm>
0

>  <SCORE.heavy>
31

>  <SCORE.norm>
-1.20844

>  <RMSD>
0.867

$$$$
ligand
 OpenBabel11021811473D
libRbt.so/2013.1/901 2013/11/27
 31 33  0  0  0  0  0  0  0  0999 V2000
   25.8840   42.6961   16.6470 P   0  0  1  0  0  0  0  0  0  0  0  0
   26.5278   42.3795   15.3140 O   0  0  0  0  0  0  0  0  0  0  0  0
   26.4301   44.0153   17.1230 O   0  5  0  0  0  0  0  0  0  0  0  0
   24.3913   42.7957   16.4922 O   0  0  0  0  0  0  0  0  0  0  0  0
   27.4828   41.2555   18.1132 C   0  0  0  0  0  0  0  0  0  0  0  0
   26.1691   41.5020   17.6743 O   0  0  0  0  0  0  0  0  0  0  0  0
   27.4849   40.0304   19.0158 C   0  0  1  0  0  0  0  0  0  0  0  0
   26.5650   40.2422   20.0657 O   0  0  0  0  0  0  0  0  0  0  0  0
   27.1058   38.7829   18.2180 C   0  0  1  0  0  0  0  0  0  0  0  0
   28.0740   38.5470   17.2182 O   0  0  0  0  0  0  0  0  0  0  0  0
   26.8892   37.5358   19.0865 C   0  0  1  0  0  0  0  0  0  0  0  0
   26.3983   36.4779   18.2936 O   0  0  0  0  0  0  0  0  0  0  0  0
   28.1606   37.0847   19.7877 C   0  0  0  0  0  0  0  0  0  0  0  0
   28.2432   34.3176   19.2224 N   0  0  0  0  0  0  0  0  0  0  0  0
   28.3483   32.9773   18.9108 C   0  0  0  0  0  0  0  0  0  0  0  0
   28.6175   32.6285   17.7580 O   0  0  0  0  0  0  0  0  0  0  0  0
   28.1409   32.0304   19.8935 N   0  0  0  0  0  0  0  0  0  0  0  0
   27.8297   32.4185   21.1831 C   0  0  0  0  0  0  0  0  0  0  0  0
   27.7257   33.7572   21.4988 C   0  0  1  0  0  0  0  0  0  0  0  0
   27.6514   31.5855   22.0701 O   0  0  0  0  0  0  0  0  0  0  0  0
   27.3177   35.4651   23.1147 C   0  0  2  0  0  0  0  0  0  0  0  0
   27.4187   34.1268   22.7939 N   0  0  0  0  0  0  0  0  0  0  0  0
   27.0062   35.8402   24.4194 C   0  0  0  0  0  0  0  0  0  0  0  0
   26.8946   37.1867   24.7515 C   0  0  1  0  0  0  0  0  0  0  0  0
   26.5682   37.5747   26.1673 C   0  0  0  0  0  0  0  0  0  0  0  0
   27.1003   38.1616   23.7687 C   0  0  1  0  0  0  0  0  0  0  0  0
   27.0017   39.6224   24.0992 C   0  0  0  0  0  0  0  0  0  0  0  0
   27.4120   37.7826   22.4663 C   0  0  0  0  0  0  0  0  0  0  0  0
   27.5217   36.4356   22.1293 C   0  0  2  0  0  0  0  0  0  0  0  0
   27.9355   34.7150   20.5134 C   0  0  2  0  0  0  0  0  0  0  0  0
   27.8234   36.0560   20.8268 N   0  0  0  0  0  0  0  0  0  0  0  0
  1  2  1  6  0  0  0
  1  3  1  0  0  0  0
  1  4  2  0  0  0  0
  1  6  1  0  0  0  0
  5  6  1  0  0  0  0
  7  5  1  6  0  0  0
  7  8  1  0  0  0  0
  7  9  1  0  0  0  0
  9 10  1  6  0  0  0
  9 11  1  0  0  0  0
 11 12  1  6  0  0  0
 11 13  1  0  0  0  0
 13 31  1  0  0  0  0
 14 15  1  0  0  0  0
 15 16  2  0  0  0  0
 15 17  1  0  0  0  0
 17 18  1  0  0  0  0
 18 20  2  0  0  0  0
 19 18  1  1  0  0  0
 19 22  1  0  0  0  0
 19 30  1  0  0  0  0
 21 23  1  6  0  0  0
 21 29  1  0  0  0  0
 21 22  1  0  0  0  0
 23 24  1  0  0  0  0
 24 25  1  1  0  0  0
 24 26  1  0  0  0  0
 26 27  1  1  0  0  0
 26 28  1  0  0  0  0
 29 28  1  6  0  0  0
 29 31  1  0  0  0  0
 30 14  1  6  0  0  0
 30 31  1  0  0  0  0
M  CHG  1   3  -1
M  END
>  <CHROM.1>
-176.97589357,66.60481958,-55.49631743,62.98334542,173.37625195,168.26432381
-89.90868049,27.14590668,37.63765745,19.99319357,-2.40454362,-1.35733602
1.79095239

>  <Name>
ligand

>  <RI>
0

>  <Rbt.Current_Directory>
/home/itssahil/PROJECTS/Mol_Feturizer/New_Systems/rnas/3F2Q

>  <Rbt.Executable>
rbdock ($Id: //depot/dev/client3/rdock/2013.1/src/exe/rbdock.cxx#4 $)

>  <Rbt.Library>
libRbt.so (2013.1, Build901 2013/11/27)

>  <Rbt.Parameter_File>
/export/apps/rDock/src/rDock_2013.1_src/data/scripts/dock_solv.prm

>  <Rbt.Receptor>
prm/pocket_docking_2.prm

>  <SCORE>
-37.687

>  <SCORE.INTER>
-31.6009

>  <SCORE.INTER.CONST>
1

>  <SCORE.INTER.POLAR>
0

>  <SCORE.INTER.ROT>
7

>  <SCORE.INTER.SOLV>
18.1032

>  <SCORE.INTER.VDW>
-35.3684

>  <SCORE.INTER.norm>
-1.01938

>  <SCORE.INTRA>
-6.08604

>  <SCORE.INTRA.DIHEDRAL>
-7.66709

>  <SCORE.INTRA.DIHEDRAL.0>
10.0718

>  <SCORE.INTRA.POLAR>
0

>  <SCORE.INTRA.POLAR.0>
0

>  <SCORE.INTRA.REPUL>
0

>  <SCORE.INTRA.REPUL.0>
0

>  <SCORE.INTRA.SOLV>
-1.16684

>  <SCORE.INTRA.SOLV.lig_0>
-48.6963

>  <SCORE.INTRA.VDW>
-1.66907

>  <SCORE.INTRA.VDW.0>
-0.836976

>  <SCORE.INTRA.norm>
-0.196324

>  <SCORE.RESTR>
0

>  <SCORE.RESTR.CAVITY>
0

>  <SCORE.RESTR.norm>
0

>  <SCORE.SYSTEM>
0

>  <SCORE.SYSTEM.CONST>
0

>  <SCORE.SYSTEM.DIHEDRAL>
0

>  <SCORE.SYSTEM.SOLV>
0

>  <SCORE.SYSTEM.norm>
0

>  <SCORE.heavy>
31

>  <SCORE.norm>
-1.21571

>  <RMSD>
0.871

$$$$
ligand
 OpenBabel11021811473D
libRbt.so/2013.1/901 2013/11/27
 31 33  0  0  0  0  0  0  0  0999 V2000
   26.1451   42.9869   16.4727 P   0  0  1  0  0  0  0  0  0  0  0  0
   24.7299   42.7069   16.0141 O   0  0  0  0  0  0  0  0  0  0  0  0
   27.0125   43.1096   15.2489 O   0  5  0  0  0  0  0  0  0  0  0  0
   26.1934   44.2707   17.2545 O   0  0  0  0  0  0  0  0  0  0  0  0
   26.8508   40.5267   16.9533 C   0  0  0  0  0  0  0  0  0  0  0  0
   26.6273   41.8209   17.4578 O   0  0  0  0  0  0  0  0  0  0  0  0
   27.1102   39.5775   18.1140 C   0  0  1  0  0  0  0  0  0  0  0  0
   26.0690   39.7225   19.0565 O   0  0  0  0  0  0  0  0  0  0  0  0
   27.1801   38.1346   17.6142 C   0  0  1  0  0  0  0  0  0  0  0  0
   28.4081   37.9213   16.9516 O   0  0  0  0  0  0  0  0  0  0  0  0
   26.9533   37.0878   18.7137 C   0  0  1  0  0  0  0  0  0  0  0  0
   26.6419   35.8410   18.1328 O   0  0  0  0  0  0  0  0  0  0  0  0
   28.1604   36.9261   19.6238 C   0  0  0  0  0  0  0  0  0  0  0  0
   28.3081   34.1543   19.0959 N   0  0  0  0  0  0  0  0  0  0  0  0
   28.4444   32.8129   18.8017 C   0  0  0  0  0  0  0  0  0  0  0  0
   28.7112   32.4549   17.6511 O   0  0  0  0  0  0  0  0  0  0  0  0
   28.2708   31.8748   19.7992 N   0  0  0  0  0  0  0  0  0  0  0  0
   27.9625   32.2729   21.0865 C   0  0  0  0  0  0  0  0  0  0  0  0
   27.8274   33.6128   21.3848 C   0  0  1  0  0  0  0  0  0  0  0  0
   27.8141   31.4481   21.9866 O   0  0  0  0  0  0  0  0  0  0  0  0
   27.3916   35.3322   22.9812 C   0  0  2  0  0  0  0  0  0  0  0  0
   27.5236   33.9926   22.6778 N   0  0  0  0  0  0  0  0  0  0  0  0
   27.0833   35.7175   24.2836 C   0  0  0  0  0  0  0  0  0  0  0  0
   26.9405   37.0653   24.5983 C   0  0  1  0  0  0  0  0  0  0  0  0
   26.6182   37.4646   26.0118 C   0  0  0  0  0  0  0  0  0  0  0  0
   27.1117   38.0313   23.6002 C   0  0  1  0  0  0  0  0  0  0  0  0
   26.9790   39.4935   23.9116 C   0  0  0  0  0  0  0  0  0  0  0  0
   27.4202   37.6421   22.3001 C   0  0  0  0  0  0  0  0  0  0  0  0
   27.5611   36.2938   21.9804 C   0  0  2  0  0  0  0  0  0  0  0  0
   28.0030   34.5618   20.3843 C   0  0  2  0  0  0  0  0  0  0  0  0
   27.8597   35.9038   20.6804 N   0  0  0  0  0  0  0  0  0  0  0  0
  1  2  1  6  0  0  0
  1  3  1  0  0  0  0
  1  4  2  0  0  0  0
  1  6  1  0  0  0  0
  5  6  1  0  0  0  0
  7  5  1  6  0  0  0
  7  8  1  0  0  0  0
  7  9  1  0  0  0  0
  9 10  1  1  0  0  0
  9 11  1  0  0  0  0
 11 12  1  6  0  0  0
 11 13  1  0  0  0  0
 13 31  1  0  0  0  0
 14 15  1  0  0  0  0
 15 16  2  0  0  0  0
 15 17  1  0  0  0  0
 17 18  1  0  0  0  0
 18 20  2  0  0  0  0
 19 18  1  1  0  0  0
 19 22  1  0  0  0  0
 19 30  1  0  0  0  0
 21 23  1  6  0  0  0
 21 29  1  0  0  0  0
 21 22  1  0  0  0  0
 23 24  1  0  0  0  0
 24 25  1  1  0  0  0
 24 26  1  0  0  0  0
 26 27  1  1  0  0  0
 26 28  1  0  0  0  0
 29 28  1  6  0  0  0
 29 31  1  0  0  0  0
 30 14  1  6  0  0  0
 30 31  1  0  0  0  0
M  CHG  1   3  -1
M  END
>  <CHROM.1>
-172.26006935,68.78631665,51.64860135,74.76718702,162.76283227,179.26884771
-103.45988296,27.21559659,37.48929968,19.74177325,-2.31681304,-1.34818703
1.87925470

>  <Name>
ligand

>  <RI>
0

>  <Rbt.Current_Directory>
/home/itssahil/PROJECTS/Mol_Feturizer/New_Systems/rnas/3F2Q

>  <Rbt.Executable>
rbdock ($Id: //depot/dev/client3/rdock/2013.1/src/exe/rbdock.cxx#4 $)

>  <Rbt.Library>
libRbt.so (2013.1, Build901 2013/11/27)

>  <Rbt.Parameter_File>
/export/apps/rDock/src/rDock_2013.1_src/data/scripts/dock_solv.prm

>  <Rbt.Receptor>
prm/pocket_docking_5.prm

>  <SCORE>
-35.3694

>  <SCORE.INTER>
-30.777

>  <SCORE.INTER.CONST>
1

>  <SCORE.INTER.POLAR>
0

>  <SCORE.INTER.ROT>
7

>  <SCORE.INTER.SOLV>
21.4755

>  <SCORE.INTER.VDW>
-35.9431

>  <SCORE.INTER.norm>
-0.992805

>  <SCORE.INTRA>
-4.59246

>  <SCORE.INTRA.DIHEDRAL>
-6.10523

>  <SCORE.INTRA.DIHEDRAL.0>
10.0718

>  <SCORE.INTRA.POLAR>
0

>  <SCORE.INTRA.POLAR.0>
0

>  <SCORE.INTRA.REPUL>
0

>  <SCORE.INTRA.REPUL.0>
0

>  <SCORE.INTRA.SOLV>
-1.2431

>  <SCORE.INTRA.SOLV.lig_0>
-48.6963

>  <SCORE.INTRA.VDW>
-0.918301

>  <SCORE.INTRA.VDW.0>
-0.836976

>  <SCORE.INTRA.norm>
-0.148144

>  <SCORE.RESTR>
0

>  <SCORE.RESTR.CAVITY>
0

>  <SCORE.RESTR.norm>
0

>  <SCORE.SYSTEM>
0

>  <SCORE.SYSTEM.CONST>
0

>  <SCORE.SYSTEM.DIHEDRAL>
0

>  <SCORE.SYSTEM.SOLV>
0

>  <SCORE.SYSTEM.norm>
0

>  <SCORE.heavy>
31

>  <SCORE.norm>
-1.14095

>  <RMSD>
0.871

$$$$
ligand
 OpenBabel11021811473D
libRbt.so/2013.1/901 2013/11/27
 31 33  0  0  0  0  0  0  0  0999 V2000
   26.2284   42.7703   16.8396 P   0  0  1  0  0  0  0  0  0  0  0  0
   27.1243   43.9433   17.1755 O   0  0  0  0  0  0  0  0  0  0  0  0
   24.8003   43.2180   16.9991 O   0  5  0  0  0  0  0  0  0  0  0  0
   26.4616   42.3280   15.4212 O   0  0  0  0  0  0  0  0  0  0  0  0
   27.9426   41.1610   17.9590 C   0  0  0  0  0  0  0  0  0  0  0  0
   26.5966   41.5304   17.7828 O   0  0  0  0  0  0  0  0  0  0  0  0
   28.0083   39.9261   18.8456 C   0  0  1  0  0  0  0  0  0  0  0  0
   27.3356   40.2034   20.0556 O   0  0  0  0  0  0  0  0  0  0  0  0
   27.3665   38.7315   18.1402 C   0  0  1  0  0  0  0  0  0  0  0  0
   28.1830   38.3215   17.0642 O   0  0  0  0  0  0  0  0  0  0  0  0
   27.0509   37.5569   19.0768 C   0  0  1  0  0  0  0  0  0  0  0  0
   26.3564   36.5530   18.3706 O   0  0  0  0  0  0  0  0  0  0  0  0
   28.3004   36.9547   19.6994 C   0  0  0  0  0  0  0  0  0  0  0  0
   28.4118   34.1971   19.0939 N   0  0  0  0  0  0  0  0  0  0  0  0
   28.5327   32.8619   18.7663 C   0  0  0  0  0  0  0  0  0  0  0  0
   28.8624   32.5317   17.6238 O   0  0  0  0  0  0  0  0  0  0  0  0
   28.2733   31.8993   19.7209 N   0  0  0  0  0  0  0  0  0  0  0  0
   27.8946   32.2666   20.9985 C   0  0  0  0  0  0  0  0  0  0  0  0
   27.7745   33.6000   21.3302 C   0  0  1  0  0  0  0  0  0  0  0  0
   27.6693   31.4194   21.8610 O   0  0  0  0  0  0  0  0  0  0  0  0
   27.2822   35.2817   22.9502 C   0  0  2  0  0  0  0  0  0  0  0  0
   27.3995   33.9488   22.6132 N   0  0  0  0  0  0  0  0  0  0  0  0
   26.9023   35.6358   24.2425 C   0  0  0  0  0  0  0  0  0  0  0  0
   26.7737   36.9768   24.5903 C   0  0  1  0  0  0  0  0  0  0  0  0
   26.3730   37.3419   25.9930 C   0  0  0  0  0  0  0  0  0  0  0  0
   27.0314   37.9675   23.6359 C   0  0  1  0  0  0  0  0  0  0  0  0
   26.9160   39.4227   23.9847 C   0  0  0  0  0  0  0  0  0  0  0  0
   27.4114   37.6095   22.3458 C   0  0  0  0  0  0  0  0  0  0  0  0
   27.5383   36.2681   21.9929 C   0  0  2  0  0  0  0  0  0  0  0  0
   28.0364   34.5737   20.3731 C   0  0  2  0  0  0  0  0  0  0  0  0
   27.9083   35.9095   20.7022 N   0  0  0  0  0  0  0  0  0  0  0  0
  1  2  1  1  0  0  0
  1  3  1  0  0  0  0
  1  4  2  0  0  0  0
  1  6  1  0  0  0  0
  5  6  1  0  0  0  0
  7  5  1  6  0  0  0
  7  8  1  0  0  0  0
  7  9  1  0  0  0  0
  9 10  1  6  0  0  0
  9 11  1  0  0  0  0
 11 12  1  6  0  0  0
 11 13  1  0  0  0  0
 13 31  1  0  0  0  0
 14 15  1  0  0  0  0
 15 16  2  0  0  0  0
 15 17  1  0  0  0  0
 17 18  1  0  0  0  0
 18 20  2  0  0  0  0
 19 18  1  1  0  0  0
 19 22  1  0  0  0  0
 19 30  1  0  0  0  0
 21 23  1  6  0  0  0
 21 29  1  0  0  0  0
 21 22  1  0  0  0  0
 23 24  1  0  0  0  0
 24 25  1  1  0  0  0
 24 26  1  0  0  0  0
 26 27  1  1  0  0  0
 26 28  1  0  0  0  0
 29 28  1  6  0  0  0
 29 31  1  0  0  0  0
 30 14  1  6  0  0  0
 30 31  1  0  0  0  0
M  CHG  1   3  -1
M  END
>  <CHROM.1>
-177.55543385,-47.14954510,-55.69627379,70.13930313,174.77041475,174.36018454
-82.08082140,27.31180690,37.54938247,19.93410353,-2.16176981,-1.34862634
2.08286831

>  <Name>
ligand

>  <RI>
0

>  <Rbt.Current_Directory>
/home/itssahil/PROJECTS/Mol_Feturizer/New_Systems/rnas/3F2Q

>  <Rbt.Executable>
rbdock ($Id: //depot/dev/client3/rdock/2013.1/src/exe/rbdock.cxx#4 $)

>  <Rbt.Library>
libRbt.so (2013.1, Build901 2013/11/27)

>  <Rbt.Parameter_File>
/export/apps/rDock/src/rDock_2013.1_src/data/scripts/dock_solv.prm

>  <Rbt.Receptor>
prm/pocket_docking_3.prm

>  <SCORE>
-36.9698

>  <SCORE.INTER>
-31.1034

>  <SCORE.INTER.CONST>
1

>  <SCORE.INTER.POLAR>
0

>  <SCORE.INTER.ROT>
7

>  <SCORE.INTER.SOLV>
18.3926

>  <SCORE.INTER.VDW>
-35.1331

>  <SCORE.INTER.norm>
-1.00333

>  <SCORE.INTRA>
-5.8704

>  <SCORE.INTRA.DIHEDRAL>
-7.62842

>  <SCORE.INTRA.DIHEDRAL.0>
10.0718

>  <SCORE.INTRA.POLAR>
0

>  <SCORE.INTRA.POLAR.0>
0

>  <SCORE.INTRA.REPUL>
0

>  <SCORE.INTRA.REPUL.0>
0

>  <SCORE.INTRA.SOLV>
-1.1433

>  <SCORE.INTRA.SOLV.lig_0>
-48.6963

>  <SCORE.INTRA.VDW>
-1.48454

>  <SCORE.INTRA.VDW.0>
-0.836976

>  <SCORE.INTRA.norm>
-0.189368

>  <SCORE.RESTR>
0.00391161

>  <SCORE.RESTR.CAVITY>
0.00391161

>  <SCORE.RESTR.norm>
0.000126181

>  <SCORE.SYSTEM>
0

>  <SCORE.SYSTEM.CONST>
0

>  <SCORE.SYSTEM.DIHEDRAL>
0

>  <SCORE.SYSTEM.SOLV>
0

>  <SCORE.SYSTEM.norm>
0

>  <SCORE.heavy>
31

>  <SCORE.norm>
-1.19258

>  <RMSD>
0.875

$$$$
ligand
 OpenBabel11021811473D
libRbt.so/2013.1/901 2013/11/27
 31 33  0  0  0  0  0  0  0  0999 V2000
   25.8685   42.6918   16.9910 P   0  0  1  0  0  0  0  0  0  0  0  0
   24.6178   42.5775   16.1458 O   0  0  0  0  0  0  0  0  0  0  0  0
   27.0033   42.0661   16.2256 O   0  5  0  0  0  0  0  0  0  0  0  0
   26.1814   44.1375   17.2628 O   0  0  0  0  0  0  0  0  0  0  0  0
   25.9019   40.6241   18.5737 C   0  0  0  0  0  0  0  0  0  0  0  0
   25.6196   41.9925   18.4094 O   0  0  0  0  0  0  0  0  0  0  0  0
   27.4101   40.4296   18.6279 C   0  0  1  0  0  0  0  0  0  0  0  0
   27.8731   40.8446   19.8955 O   0  0  0  0  0  0  0  0  0  0  0  0
   27.7651   38.9628   18.3843 C   0  0  1  0  0  0  0  0  0  0  0  0
   29.1354   38.8537   18.0635 O   0  0  0  0  0  0  0  0  0  0  0  0
   27.3918   38.0348   19.5486 C   0  0  1  0  0  0  0  0  0  0  0  0
   26.2161   37.3214   19.2360 O   0  0  0  0  0  0  0  0  0  0  0  0
   28.4982   37.0484   19.8869 C   0  0  0  0  0  0  0  0  0  0  0  0
   28.4796   34.2862   19.2924 N   0  0  0  0  0  0  0  0  0  0  0  0
   28.5394   32.9447   18.9743 C   0  0  0  0  0  0  0  0  0  0  0  0
   28.9166   32.5899   17.8540 O   0  0  0  0  0  0  0  0  0  0  0  0
   28.1658   32.0039   19.9126 N   0  0  0  0  0  0  0  0  0  0  0  0
   27.7339   32.3994   21.1647 C   0  0  0  0  0  0  0  0  0  0  0  0
   27.6746   33.7392   21.4871 C   0  0  1  0  0  0  0  0  0  0  0  0
   27.4068   31.5713   22.0131 O   0  0  0  0  0  0  0  0  0  0  0  0
   27.1881   35.4551   23.0725 C   0  0  2  0  0  0  0  0  0  0  0  0
   27.2451   34.1159   22.7448 N   0  0  0  0  0  0  0  0  0  0  0  0
   26.7534   35.8375   24.3393 C   0  0  0  0  0  0  0  0  0  0  0  0
   26.6851   37.1854   24.6771 C   0  0  1  0  0  0  0  0  0  0  0  0
   26.2237   37.5806   26.0528 C   0  0  0  0  0  0  0  0  0  0  0  0
   27.0587   38.1543   23.7388 C   0  0  1  0  0  0  0  0  0  0  0  0
   27.0103   39.6154   24.0783 C   0  0  0  0  0  0  0  0  0  0  0  0
   27.4931   37.7680   22.4743 C   0  0  0  0  0  0  0  0  0  0  0  0
   27.5600   36.4197   22.1313 C   0  0  2  0  0  0  0  0  0  0  0  0
   28.0515   34.6908   20.5463 C   0  0  2  0  0  0  0  0  0  0  0  0
   27.9845   36.0334   20.8655 N   0  0  0  0  0  0  0  0  0  0  0  0
  1  2  1  6  0  0  0
  1  3  1  0  0  0  0
  1  4  2  0  0  0  0
  1  6  1  0  0  0  0
  5  6  1  0  0  0  0
  7  5  1  1  0  0  0
  7  8  1  0  0  0  0
  7  9  1  0  0  0  0
  9 10  1  1  0  0  0
  9 11  1  0  0  0  0
 11 12  1  6  0  0  0
 11 13  1  0  0  0  0
 13 31  1  0  0  0  0
 14 15  1  0  0  0  0
 15 16  2  0  0  0  0
 15 17  1  0  0  0  0
 17 18  1  0  0  0  0
 18 20  2  0  0  0  0
 19 18  1  1  0  0  0
 19 22  1  0  0  0  0
 19 30  1  0  0  0  0
 21 23  1  6  0  0  0
 21 29  1  0  0  0  0
 21 22  1  0  0  0  0
 23 24  1  0  0  0  0
 24 25  1  1  0  0  0
 24 26  1  0  0  0  0
 26 27  1  1  0  0  0
 26 28  1  0  0  0  0
 29 28  1  6  0  0  0
 29 31  1  0  0  0  0
 30 14  1  6  0  0  0
 30 31  1  0  0  0  0
M  CHG  1   3  -1
M  END
>  <CHROM.1>
73.74292474,89.43060005,75.79011769,163.59587154,102.75090912,-170.57217674
-62.75547973,27.20110813,37.70454131,20.14587973,-2.24626555,-1.31522449
2.01261819

>  <Name>
ligand

>  <RI>
0

>  <Rbt.Current_Directory>
/home/itssahil/PROJECTS/Mol_Feturizer/New_Systems/rnas/3F2Q

>  <Rbt.Executable>
rbdock ($Id: //depot/dev/client3/rdock/2013.1/src/exe/rbdock.cxx#4 $)

>  <Rbt.Library>
libRbt.so (2013.1, Build901 2013/11/27)

>  <Rbt.Parameter_File>
/export/apps/rDock/src/rDock_2013.1_src/data/scripts/dock_solv.prm

>  <Rbt.Receptor>
prm/pocket_docking_2.prm

>  <SCORE>
-30.2872

>  <SCORE.INTER>
-31.1337

>  <SCORE.INTER.CONST>
1

>  <SCORE.INTER.POLAR>
0

>  <SCORE.INTER.ROT>
7

>  <SCORE.INTER.SOLV>
17.6272

>  <SCORE.INTER.VDW>
-34.8982

>  <SCORE.INTER.norm>
-1.00431

>  <SCORE.INTRA>
0.379469

>  <SCORE.INTRA.DIHEDRAL>
-0.387988

>  <SCORE.INTRA.DIHEDRAL.0>
10.0718

>  <SCORE.INTRA.POLAR>
0

>  <SCORE.INTRA.POLAR.0>
0

>  <SCORE.INTRA.REPUL>
0

>  <SCORE.INTRA.REPUL.0>
0

>  <SCORE.INTRA.SOLV>
1.12832

>  <SCORE.INTRA.SOLV.lig_0>
-48.6963

>  <SCORE.INTRA.VDW>
0.00930401

>  <SCORE.INTRA.VDW.0>
-0.836976

>  <SCORE.INTRA.norm>
0.0122409

>  <SCORE.RESTR>
0.467041

>  <SCORE.RESTR.CAVITY>
0.467041

>  <SCORE.RESTR.norm>
0.0150658

>  <SCORE.SYSTEM>
0

>  <SCORE.SYSTEM.CONST>
0

>  <SCORE.SYSTEM.DIHEDRAL>
0

>  <SCORE.SYSTEM.SOLV>
0

>  <SCORE.SYSTEM.norm>
0

>  <SCORE.heavy>
31

>  <SCORE.norm>
-0.977005

>  <RMSD>
0.876

$$$$
ligand
 OpenBabel11021811473D
libRbt.so/2013.1/901 2013/11/27
 31 33  0  0  0  0  0  0  0  0999 V2000
   26.2421   42.3793   17.1826 P   0  0  1  0  0  0  0  0  0  0  0  0
   24.7598   42.5147   16.9074 O   0  0  0  0  0  0  0  0  0  0  0  0
   26.7420   41.1689   16.4408 O   0  5  0  0  0  0  0  0  0  0  0  0
   26.9736   43.6021   16.7013 O   0  0  0  0  0  0  0  0  0  0  0  0
   27.7670   41.9769   19.2549 C   0  0  0  0  0  0  0  0  0  0  0  0
   26.4848   42.2804   18.7618 O   0  0  0  0  0  0  0  0  0  0  0  0
   27.7346   40.6076   19.9177 C   0  0  1  0  0  0  0  0  0  0  0  0
   26.7369   40.6137   20.9167 O   0  0  0  0  0  0  0  0  0  0  0  0
   27.4444   39.5227   18.8807 C   0  0  1  0  0  0  0  0  0  0  0  0
   28.5169   39.4417   17.9665 O   0  0  0  0  0  0  0  0  0  0  0  0
   27.1316   38.1502   19.4928 C   0  0  1  0  0  0  0  0  0  0  0  0
   26.6677   37.2724   18.4913 O   0  0  0  0  0  0  0  0  0  0  0  0
   28.3370   37.5293   20.1806 C   0  0  0  0  0  0  0  0  0  0  0  0
   28.3742   34.7930   19.4770 N   0  0  0  0  0  0  0  0  0  0  0  0
   28.4602   33.4672   19.1039 C   0  0  0  0  0  0  0  0  0  0  0  0
   28.8142   33.1670   17.9604 O   0  0  0  0  0  0  0  0  0  0  0  0
   28.1387   32.4804   20.0140 N   0  0  0  0  0  0  0  0  0  0  0  0
   27.7328   32.8145   21.2923 C   0  0  0  0  0  0  0  0  0  0  0  0
   27.6474   34.1385   21.6695 C   0  0  1  0  0  0  0  0  0  0  0  0
   27.4522   31.9451   22.1157 O   0  0  0  0  0  0  0  0  0  0  0  0
   27.1616   35.7769   23.3351 C   0  0  2  0  0  0  0  0  0  0  0  0
   27.2445   34.4537   22.9526 N   0  0  0  0  0  0  0  0  0  0  0  0
   26.7536   36.0973   24.6277 C   0  0  0  0  0  0  0  0  0  0  0  0
   26.6595   37.4286   25.0209 C   0  0  1  0  0  0  0  0  0  0  0  0
   26.2277   37.7567   26.4235 C   0  0  0  0  0  0  0  0  0  0  0  0
   26.9803   38.4433   24.1120 C   0  0  1  0  0  0  0  0  0  0  0  0
   26.9031   39.8882   24.5109 C   0  0  0  0  0  0  0  0  0  0  0  0
   27.3881   38.1190   22.8216 C   0  0  0  0  0  0  0  0  0  0  0  0
   27.4807   36.7875   22.4232 C   0  0  2  0  0  0  0  0  0  0  0  0
   27.9719   35.1362   20.7574 C   0  0  2  0  0  0  0  0  0  0  0  0
   27.8787   36.4630   21.1318 N   0  0  0  0  0  0  0  0  0  0  0  0
  1  2  1  6  0  0  0
  1  3  1  0  0  0  0
  1  4  2  0  0  0  0
  1  6  1  0  0  0  0
  5  6  1  0  0  0  0
  7  5  1  6  0  0  0
  7  8  1  0  0  0  0
  7  9  1  0  0  0  0
  9 10  1  6  0  0  0
  9 11  1  0  0  0  0
 11 12  1  6  0  0  0
 11 13  1  0  0  0  0
 13 31  1  0  0  0  0
 14 15  1  0  0  0  0
 15 16  2  0  0  0  0
 15 17  1  0  0  0  0
 17 18  1  0  0  0  0
 18 20  2  0  0  0  0
 19 18  1  1  0  0  0
 19 22  1  0  0  0  0
 19 30  1  0  0  0  0
 21 23  1  6  0  0  0
 21 29  1  0  0  0  0
 21 22  1  0  0  0  0
 23 24  1  0  0  0  0
 24 25  1  1  0  0  0
 24 26  1  0  0  0  0
 26 27  1  1  0  0  0
 26 28  1  0  0  0  0
 29 28  1  6  0  0  0
 29 31  1  0  0  0  0
 30 14  1  6  0  0  0
 30 31  1  0  0  0  0
M  CHG  1   3  -1
M  END
>  <CHROM.1>
-112.92275877,171.85893909,-55.93843052,65.71844950,170.52719186,160.82746145
-84.83411172,27.25476782,37.93356569,20.40035231,-2.13727155,-1.35690731
2.07133856

>  <Name>
ligand

>  <RI>
0

>  <Rbt.Current_Directory>
/home/itssahil/PROJECTS/Mol_Feturizer/New_Systems/rnas/3F2Q

>  <Rbt.Executable>
rbdock ($Id: //depot/dev/client3/rdock/2013.1/src/exe/rbdock.cxx#4 $)

>  <Rbt.Library>
libRbt.so (2013.1, Build901 2013/11/27)

>  <Rbt.Parameter_File>
/export/apps/rDock/src/rDock_2013.1_src/data/scripts/dock_solv.prm

>  <Rbt.Receptor>
prm/pocket_docking_3.prm

>  <SCORE>
-32.2424

>  <SCORE.INTER>
-31.1487

>  <SCORE.INTER.CONST>
1

>  <SCORE.INTER.POLAR>
0

>  <SCORE.INTER.ROT>
7

>  <SCORE.INTER.SOLV>
17.255

>  <SCORE.INTER.VDW>
-34.7841

>  <SCORE.INTER.norm>
-1.0048

>  <SCORE.INTRA>
-1.09373

>  <SCORE.INTRA.DIHEDRAL>
0.257539

>  <SCORE.INTRA.DIHEDRAL.0>
10.0718

>  <SCORE.INTRA.POLAR>
0

>  <SCORE.INTRA.POLAR.0>
0

>  <SCORE.INTRA.REPUL>
0

>  <SCORE.INTRA.REPUL.0>
0

>  <SCORE.INTRA.SOLV>
2.41772

>  <SCORE.INTRA.SOLV.lig_0>
-48.6963

>  <SCORE.INTRA.VDW>
-2.43136

>  <SCORE.INTRA.VDW.0>
-0.836976

>  <SCORE.INTRA.norm>
-0.0352815

>  <SCORE.RESTR>
0

>  <SCORE.RESTR.CAVITY>
0

>  <SCORE.RESTR.norm>
0

>  <SCORE.SYSTEM>
0

>  <SCORE.SYSTEM.CONST>
0

>  <SCORE.SYSTEM.DIHEDRAL>
0

>  <SCORE.SYSTEM.SOLV>
0

>  <SCORE.SYSTEM.norm>
0

>  <SCORE.heavy>
31

>  <SCORE.norm>
-1.04008

>  <RMSD>
0.903

$$$$
ligand
 OpenBabel11021811473D
libRbt.so/2013.1/901 2013/11/27
 31 33  0  0  0  0  0  0  0  0999 V2000
   26.3595   42.8348   16.8095 P   0  0  1  0  0  0  0  0  0  0  0  0
   27.3424   43.9625   17.0409 O   0  0  0  0  0  0  0  0  0  0  0  0
   24.9702   43.3926   16.9637 O   0  5  0  0  0  0  0  0  0  0  0  0
   26.5266   42.2764   15.4231 O   0  0  0  0  0  0  0  0  0  0  0  0
   27.9833   41.1818   17.9980 C   0  0  0  0  0  0  0  0  0  0  0  0
   26.6643   41.6428   17.8337 O   0  0  0  0  0  0  0  0  0  0  0  0
   27.9777   39.9769   18.9274 C   0  0  1  0  0  0  0  0  0  0  0  0
   27.3632   40.3480   20.1431 O   0  0  0  0  0  0  0  0  0  0  0  0
   27.2253   38.8129   18.2827 C   0  0  1  0  0  0  0  0  0  0  0  0
   27.9364   38.3569   17.1518 O   0  0  0  0  0  0  0  0  0  0  0  0
   26.9232   37.6604   19.2506 C   0  0  1  0  0  0  0  0  0  0  0  0
   26.1475   36.6783   18.6004 O   0  0  0  0  0  0  0  0  0  0  0  0
   28.1846   37.0149   19.8016 C   0  0  0  0  0  0  0  0  0  0  0  0
   28.3025   34.2498   19.2324 N   0  0  0  0  0  0  0  0  0  0  0  0
   28.4259   32.9110   18.9214 C   0  0  0  0  0  0  0  0  0  0  0  0
   28.7396   32.5668   17.7784 O   0  0  0  0  0  0  0  0  0  0  0  0
   28.1872   31.9602   19.8931 N   0  0  0  0  0  0  0  0  0  0  0  0
   27.8265   32.3431   21.1713 C   0  0  0  0  0  0  0  0  0  0  0  0
   27.7039   33.6803   21.4866 C   0  0  1  0  0  0  0  0  0  0  0  0
   27.6197   31.5066   22.0489 O   0  0  0  0  0  0  0  0  0  0  0  0
   27.2274   35.3815   23.0908 C   0  0  2  0  0  0  0  0  0  0  0  0
   27.3472   34.0447   22.7704 N   0  0  0  0  0  0  0  0  0  0  0  0
   26.8659   35.7513   24.3840 C   0  0  0  0  0  0  0  0  0  0  0  0
   26.7350   37.0963   24.7153 C   0  0  1  0  0  0  0  0  0  0  0  0
   26.3544   37.4785   26.1190 C   0  0  0  0  0  0  0  0  0  0  0  0
   26.9719   38.0750   23.7434 C   0  0  1  0  0  0  0  0  0  0  0  0
   26.8536   39.5343   24.0739 C   0  0  0  0  0  0  0  0  0  0  0  0
   27.3336   37.7013   22.4525 C   0  0  0  0  0  0  0  0  0  0  0  0
   27.4627   36.3559   22.1161 C   0  0  2  0  0  0  0  0  0  0  0  0
   27.9451   34.6420   20.5121 C   0  0  2  0  0  0  0  0  0  0  0  0
   27.8145   35.9815   20.8248 N   0  0  0  0  0  0  0  0  0  0  0  0
  1  2  1  1  0  0  0
  1  3  1  0  0  0  0
  1  4  2  0  0  0  0
  1  6  1  0  0  0  0
  5  6  1  0  0  0  0
  7  5  1  6  0  0  0
  7  8  1  0  0  0  0
  7  9  1  0  0  0  0
  9 10  1  6  0  0  0
  9 11  1  0  0  0  0
 11 12  1  6  0  0  0
 11 13  1  0  0  0  0
 13 31  1  0  0  0  0
 14 15  1  0  0  0  0
 15 16  2  0  0  0  0
 15 17  1  0  0  0  0
 17 18  1  0  0  0  0
 18 20  2  0  0  0  0
 19 18  1  1  0  0  0
 19 22  1  0  0  0  0
 19 30  1  0  0  0  0
 21 23  1  6  0  0  0
 21 29  1  0  0  0  0
 21 22  1  0  0  0  0
 23 24  1  0  0  0  0
 24 25  1  1  0  0  0
 24 26  1  0  0  0  0
 26 27  1  1  0  0  0
 26 28  1  0  0  0  0
 29 28  1  6  0  0  0
 29 31  1  0  0  0  0
 30 14  1  6  0  0  0
 30 31  1  0  0  0  0
M  CHG  1   3  -1
M  END
>  <CHROM.1>
-175.13397868,-47.91968957,-56.19238897,66.51571631,175.79904057,175.15442031
-78.71859498,27.27537742,37.62870171,20.03281632,-2.11040797,-1.36628548
2.11179756

>  <Name>
ligand

>  <RI>
0

>  <Rbt.Current_Directory>
/home/itssahil/PROJECTS/Mol_Feturizer/New_Systems/rnas/3F2Q

>  <Rbt.Executable>
rbdock ($Id: //depot/dev/client3/rdock/2013.1/src/exe/rbdock.cxx#4 $)

>  <Rbt.Library>
libRbt.so (2013.1, Build901 2013/11/27)

>  <Rbt.Parameter_File>
/export/apps/rDock/src/rDock_2013.1_src/data/scripts/dock_solv.prm

>  <Rbt.Receptor>
prm/pocket_docking_2.prm

>  <SCORE>
-37.2839

>  <SCORE.INTER>
-31.3275

>  <SCORE.INTER.CONST>
1

>  <SCORE.INTER.POLAR>
0

>  <SCORE.INTER.ROT>
7

>  <SCORE.INTER.SOLV>
18.5081

>  <SCORE.INTER.VDW>
-35.3211

>  <SCORE.INTER.norm>
-1.01057

>  <SCORE.INTRA>
-5.95641

>  <SCORE.INTRA.DIHEDRAL>
-7.88539

>  <SCORE.INTRA.DIHEDRAL.0>
10.0718

>  <SCORE.INTRA.POLAR>
0

>  <SCORE.INTRA.POLAR.0>
0

>  <SCORE.INTRA.REPUL>
0

>  <SCORE.INTRA.REPUL.0>
0

>  <SCORE.INTRA.SOLV>
-1.12364

>  <SCORE.INTRA.SOLV.lig_0>
-48.6963

>  <SCORE.INTRA.VDW>
-1.4519

>  <SCORE.INTRA.VDW.0>
-0.836976

>  <SCORE.INTRA.norm>
-0.192142

>  <SCORE.RESTR>
0

>  <SCORE.RESTR.CAVITY>
0

>  <SCORE.RESTR.norm>
0

>  <SCORE.SYSTEM>
0

>  <SCORE.SYSTEM.CONST>
0

>  <SCORE.SYSTEM.DIHEDRAL>
0

>  <SCORE.SYSTEM.SOLV>
0

>  <SCORE.SYSTEM.norm>
0

>  <SCORE.heavy>
31

>  <SCORE.norm>
-1.20271

>  <RMSD>
0.907

$$$$
ligand
 OpenBabel11021811473D
libRbt.so/2013.1/901 2013/11/27
 31 33  0  0  0  0  0  0  0  0999 V2000
   26.4042   42.8464   16.8004 P   0  0  1  0  0  0  0  0  0  0  0  0
   27.3861   43.9804   17.0044 O   0  0  0  0  0  0  0  0  0  0  0  0
   25.0152   43.4007   16.9701 O   0  5  0  0  0  0  0  0  0  0  0  0
   26.5520   42.2737   15.4177 O   0  0  0  0  0  0  0  0  0  0  0  0
   28.0471   41.1898   17.9571 C   0  0  0  0  0  0  0  0  0  0  0  0
   26.7295   41.6668   17.8326 O   0  0  0  0  0  0  0  0  0  0  0  0
   28.0569   39.9927   18.8964 C   0  0  1  0  0  0  0  0  0  0  0  0
   27.5144   40.3894   20.1381 O   0  0  0  0  0  0  0  0  0  0  0  0
   27.2426   38.8442   18.3009 C   0  0  1  0  0  0  0  0  0  0  0  0
   27.8939   38.3474   17.1514 O   0  0  0  0  0  0  0  0  0  0  0  0
   26.9414   37.7175   19.2990 C   0  0  1  0  0  0  0  0  0  0  0  0
   26.1191   36.7457   18.6921 O   0  0  0  0  0  0  0  0  0  0  0  0
   28.2023   37.0477   19.8214 C   0  0  0  0  0  0  0  0  0  0  0  0
   28.3127   34.2856   19.2366 N   0  0  0  0  0  0  0  0  0  0  0  0
   28.4324   32.9483   18.9178 C   0  0  0  0  0  0  0  0  0  0  0  0
   28.7407   32.6098   17.7717 O   0  0  0  0  0  0  0  0  0  0  0  0
   28.1959   31.9927   19.8853 N   0  0  0  0  0  0  0  0  0  0  0  0
   27.8412   32.3691   21.1670 C   0  0  0  0  0  0  0  0  0  0  0  0
   27.7224   33.7048   21.4901 C   0  0  1  0  0  0  0  0  0  0  0  0
   27.6365   31.5283   22.0409 O   0  0  0  0  0  0  0  0  0  0  0  0
   27.2557   35.3981   23.1056 C   0  0  2  0  0  0  0  0  0  0  0  0
   27.3717   34.0628   22.7773 N   0  0  0  0  0  0  0  0  0  0  0  0
   26.9001   35.7615   24.4022 C   0  0  0  0  0  0  0  0  0  0  0  0
   26.7731   37.1049   24.7414 C   0  0  1  0  0  0  0  0  0  0  0  0
   26.3990   37.4801   26.1488 C   0  0  0  0  0  0  0  0  0  0  0  0
   27.0078   38.0885   23.7739 C   0  0  1  0  0  0  0  0  0  0  0  0
   26.8935   39.5461   24.1129 C   0  0  0  0  0  0  0  0  0  0  0  0
   27.3635   37.7212   22.4795 C   0  0  0  0  0  0  0  0  0  0  0  0
   27.4888   36.3774   22.1353 C   0  0  2  0  0  0  0  0  0  0  0  0
   27.9613   34.6714   20.5199 C   0  0  2  0  0  0  0  0  0  0  0  0
   27.8345   36.0095   20.8404 N   0  0  0  0  0  0  0  0  0  0  0  0
  1  2  1  1  0  0  0
  1  3  1  0  0  0  0
  1  4  2  0  0  0  0
  1  6  1  0  0  0  0
  5  6  1  0  0  0  0
  7  5  1  6  0  0  0
  7  8  1  0  0  0  0
  7  9  1  0  0  0  0
  9 10  1  6  0  0  0
  9 11  1  0  0  0  0
 11 12  1  6  0  0  0
 11 13  1  0  0  0  0
 13 31  1  0  0  0  0
 14 15  1  0  0  0  0
 15 16  2  0  0  0  0
 15 17  1  0  0  0  0
 17 18  1  0  0  0  0
 18 20  2  0  0  0  0
 19 18  1  1  0  0  0
 19 22  1  0  0  0  0
 19 30  1  0  0  0  0
 21 23  1  6  0  0  0
 21 29  1  0  0  0  0
 21 22  1  0  0  0  0
 23 24  1  0  0  0  0
 24 25  1  1  0  0  0
 24 26  1  0  0  0  0
 26 27  1  1  0  0  0
 26 28  1  0  0  0  0
 29 28  1  6  0  0  0
 29 31  1  0  0  0  0
 30 14  1  6  0  0  0
 30 31  1  0  0  0  0
M  CHG  1   3  -1
M  END
>  <CHROM.1>
-174.64949689,-49.50729887,-57.44093047,67.39451173,176.31322062,177.10319029
-77.61675633,27.30572883,37.65092914,20.04042284,-2.10549141,-1.37194900
2.11066384

>  <Name>
ligand

>  <RI>
0

>  <Rbt.Current_Directory>
/home/itssahil/PROJECTS/Mol_Feturizer/New_Systems/rnas/3F2Q

>  <Rbt.Executable>
rbdock ($Id: //depot/dev/client3/rdock/2013.1/src/exe/rbdock.cxx#4 $)

>  <Rbt.Library>
libRbt.so (2013.1, Build901 2013/11/27)

>  <Rbt.Parameter_File>
/export/apps/rDock/src/rDock_2013.1_src/data/scripts/dock_solv.prm

>  <Rbt.Receptor>
prm/pocket_docking_2.prm

>  <SCORE>
-37.3082

>  <SCORE.INTER>
-31.3318

>  <SCORE.INTER.CONST>
1

>  <SCORE.INTER.POLAR>
0

>  <SCORE.INTER.ROT>
7

>  <SCORE.INTER.SOLV>
18.5789

>  <SCORE.INTER.VDW>
-35.3475

>  <SCORE.INTER.norm>
-1.0107

>  <SCORE.INTRA>
-5.9764

>  <SCORE.INTRA.DIHEDRAL>
-7.97907

>  <SCORE.INTRA.DIHEDRAL.0>
10.0718

>  <SCORE.INTRA.POLAR>
0

>  <SCORE.INTRA.POLAR.0>
0

>  <SCORE.INTRA.REPUL>
0

>  <SCORE.INTRA.REPUL.0>
0

>  <SCORE.INTRA.SOLV>
-1.11073

>  <SCORE.INTRA.SOLV.lig_0>
-48.6963

>  <SCORE.INTRA.VDW>
-1.4315

>  <SCORE.INTRA.VDW.0>
-0.836976

>  <SCORE.INTRA.norm>
-0.192787

>  <SCORE.RESTR>
0

>  <SCORE.RESTR.CAVITY>
0

>  <SCORE.RESTR.norm>
0

>  <SCORE.SYSTEM>
0

>  <SCORE.SYSTEM.CONST>
0

>  <SCORE.SYSTEM.DIHEDRAL>
0

>  <SCORE.SYSTEM.SOLV>
0

>  <SCORE.SYSTEM.norm>
0

>  <SCORE.heavy>
31

>  <SCORE.norm>
-1.20349

>  <RMSD>
0.907

$$$$
ligand
 OpenBabel11021811473D
libRbt.so/2013.1/901 2013/11/27
 31 33  0  0  0  0  0  0  0  0999 V2000
   26.6220   42.8517   16.8526 P   0  0  1  0  0  0  0  0  0  0  0  0
   27.9587   43.5592   16.7866 O   0  0  0  0  0  0  0  0  0  0  0  0
   25.6267   43.7990   17.4666 O   0  5  0  0  0  0  0  0  0  0  0  0
   26.1674   42.4702   15.4707 O   0  0  0  0  0  0  0  0  0  0  0  0
   27.8723   41.3268   18.5535 C   0  0  0  0  0  0  0  0  0  0  0  0
   26.7778   41.4935   17.6853 O   0  0  0  0  0  0  0  0  0  0  0  0
   27.7118   40.0173   19.3118 C   0  0  1  0  0  0  0  0  0  0  0  0
   26.5590   40.1040   20.1224 O   0  0  0  0  0  0  0  0  0  0  0  0
   27.5894   38.8491   18.3335 C   0  0  1  0  0  0  0  0  0  0  0  0
   28.7442   38.7856   17.5241 O   0  0  0  0  0  0  0  0  0  0  0  0
   27.3123   37.5006   19.0125 C   0  0  1  0  0  0  0  0  0  0  0  0
   27.0455   36.5178   18.0369 O   0  0  0  0  0  0  0  0  0  0  0  0
   28.4689   37.0371   19.8837 C   0  0  0  0  0  0  0  0  0  0  0  0
   28.4674   34.2765   19.2815 N   0  0  0  0  0  0  0  0  0  0  0  0
   28.5351   32.9365   18.9587 C   0  0  0  0  0  0  0  0  0  0  0  0
   28.8992   32.5883   17.8320 O   0  0  0  0  0  0  0  0  0  0  0  0
   28.1839   31.9897   19.8996 N   0  0  0  0  0  0  0  0  0  0  0  0
   27.7667   32.3776   21.1590 C   0  0  0  0  0  0  0  0  0  0  0  0
   27.6996   33.7158   21.4861 C   0  0  1  0  0  0  0  0  0  0  0  0
   27.4596   31.5441   22.0096 O   0  0  0  0  0  0  0  0  0  0  0  0
   27.2202   35.4227   23.0834 C   0  0  2  0  0  0  0  0  0  0  0  0
   27.2849   34.0851   22.7509 N   0  0  0  0  0  0  0  0  0  0  0  0
   26.8004   35.7975   24.3574 C   0  0  0  0  0  0  0  0  0  0  0  0
   26.7245   37.1439   24.7002 C   0  0  1  0  0  0  0  0  0  0  0  0
   26.2795   37.5309   26.0835 C   0  0  0  0  0  0  0  0  0  0  0  0
   27.0753   38.1187   23.7593 C   0  0  1  0  0  0  0  0  0  0  0  0
   27.0183   39.5785   24.1038 C   0  0  0  0  0  0  0  0  0  0  0  0
   27.4949   37.7401   22.4875 C   0  0  0  0  0  0  0  0  0  0  0  0
   27.5694   36.3934   22.1396 C   0  0  2  0  0  0  0  0  0  0  0  0
   28.0539   34.6735   20.5427 C   0  0  2  0  0  0  0  0  0  0  0  0
   27.9790   36.0146   20.8668 N   0  0  0  0  0  0  0  0  0  0  0  0
  1  2  1  6  0  0  0
  1  3  1  0  0  0  0
  1  4  2  0  0  0  0
  1  6  1  0  0  0  0
  5  6  1  0  0  0  0
  7  5  1  6  0  0  0
  7  8  1  0  0  0  0
  7  9  1  0  0  0  0
  9 10  1  1  0  0  0
  9 11  1  0  0  0  0
 11 12  1  6  0  0  0
 11 13  1  0  0  0  0
 13 31  1  0  0  0  0
 14 15  1  0  0  0  0
 15 16  2  0  0  0  0
 15 17  1  0  0  0  0
 17 18  1  0  0  0  0
 18 20  2  0  0  0  0
 19 18  1  1  0  0  0
 19 22  1  0  0  0  0
 19 30  1  0  0  0  0
 21 23  1  6  0  0  0
 21 29  1  0  0  0  0
 21 22  1  0  0  0  0
 23 24  1  0  0  0  0
 24 25  1  1  0  0  0
 24 26  1  0  0  0  0
 26 27  1  1  0  0  0
 26 28  1  0  0  0  0
 29 28  1  6  0  0  0
 29 31  1  0  0  0  0
 30 14  1  6  0  0  0
 30 31  1  0  0  0  0
M  CHG  1   3  -1
M  END
>  <CHROM.1>
174.72740446,19.65303605,-63.98682515,59.38333102,172.52737056,160.22087721
-93.29744919,27.40502173,37.65487639,20.06409363,-1.97212489,-1.34778166
2.26277516

>  <Name>
ligand

>  <RI>
0

>  <Rbt.Current_Directory>
/home/itssahil/PROJECTS/Mol_Feturizer/New_Systems/rnas/3F2Q

>  <Rbt.Executable>
rbdock ($Id: //depot/dev/client3/rdock/2013.1/src/exe/rbdock.cxx#4 $)

>  <Rbt.Library>
libRbt.so (2013.1, Build901 2013/11/27)

>  <Rbt.Parameter_File>
/export/apps/rDock/src/rDock_2013.1_src/data/scripts/dock_solv.prm

>  <Rbt.Receptor>
prm/blind_docking_80.prm

>  <SCORE>
-36.2664

>  <SCORE.INTER>
-31.7265

>  <SCORE.INTER.CONST>
1

>  <SCORE.INTER.POLAR>
0

>  <SCORE.INTER.ROT>
7

>  <SCORE.INTER.SOLV>
18.5881

>  <SCORE.INTER.VDW>
-35.6137

>  <SCORE.INTER.norm>
-1.02344

>  <SCORE.INTRA>
-4.53984

>  <SCORE.INTRA.DIHEDRAL>
-4.99913

>  <SCORE.INTRA.DIHEDRAL.0>
10.0718

>  <SCORE.INTRA.POLAR>
0

>  <SCORE.INTRA.POLAR.0>
0

>  <SCORE.INTRA.REPUL>
0

>  <SCORE.INTRA.REPUL.0>
0

>  <SCORE.INTRA.SOLV>
-1.41166

>  <SCORE.INTRA.SOLV.lig_0>
-48.6963

>  <SCORE.INTRA.VDW>
-1.33445

>  <SCORE.INTRA.VDW.0>
-0.836976

>  <SCORE.INTRA.norm>
-0.146446

>  <SCORE.RESTR>
0

>  <SCORE.RESTR.CAVITY>
0

>  <SCORE.RESTR.norm>
0

>  <SCORE.SYSTEM>
0

>  <SCORE.SYSTEM.CONST>
0

>  <SCORE.SYSTEM.DIHEDRAL>
0

>  <SCORE.SYSTEM.SOLV>
0

>  <SCORE.SYSTEM.norm>
0

>  <SCORE.heavy>
31

>  <SCORE.norm>
-1.16988

>  <RMSD>
0.908

$$$$
ligand
 OpenBabel11021811473D
libRbt.so/2013.1/901 2013/11/27
 31 33  0  0  0  0  0  0  0  0999 V2000
   25.7054   42.4057   16.8084 P   0  0  1  0  0  0  0  0  0  0  0  0
   24.4590   42.8473   16.0714 O   0  0  0  0  0  0  0  0  0  0  0  0
   26.6996   41.9215   15.7875 O   0  5  0  0  0  0  0  0  0  0  0  0
   26.2920   43.5593   17.5744 O   0  0  0  0  0  0  0  0  0  0  0  0
   26.3154   40.7435   18.7179 C   0  0  0  0  0  0  0  0  0  0  0  0
   25.3211   41.2799   17.8796 O   0  0  0  0  0  0  0  0  0  0  0  0
   27.2672   39.8983   17.8842 C   0  0  1  0  0  0  0  0  0  0  0  0
   28.5319   39.8915   18.5118 O   0  0  0  0  0  0  0  0  0  0  0  0
   26.7314   38.4731   17.7486 C   0  0  1  0  0  0  0  0  0  0  0  0
   27.5697   37.7312   16.8889 O   0  0  0  0  0  0  0  0  0  0  0  0
   26.5380   37.7550   19.0915 C   0  0  1  0  0  0  0  0  0  0  0  0
   25.8185   36.5578   18.8964 O   0  0  0  0  0  0  0  0  0  0  0  0
   27.8564   37.4377   19.7790 C   0  0  0  0  0  0  0  0  0  0  0  0
   28.0014   34.6879   19.1459 N   0  0  0  0  0  0  0  0  0  0  0  0
   28.1336   33.3593   18.7967 C   0  0  0  0  0  0  0  0  0  0  0  0
   28.3272   33.0445   17.6192 O   0  0  0  0  0  0  0  0  0  0  0  0
   28.0382   32.3855   19.7702 N   0  0  0  0  0  0  0  0  0  0  0  0
   27.8118   32.7351   21.0882 C   0  0  0  0  0  0  0  0  0  0  0  0
   27.6810   34.0620   21.4415 C   0  0  1  0  0  0  0  0  0  0  0  0
   27.7336   31.8781   21.9668 O   0  0  0  0  0  0  0  0  0  0  0  0
   27.3325   35.7197   23.1223 C   0  0  2  0  0  0  0  0  0  0  0  0
   27.4598   34.3932   22.7642 N   0  0  0  0  0  0  0  0  0  0  0  0
   27.1074   36.0561   24.4549 C   0  0  0  0  0  0  0  0  0  0  0  0
   26.9699   37.3902   24.8252 C   0  0  1  0  0  0  0  0  0  0  0  0
   26.7380   37.7365   26.2701 C   0  0  0  0  0  0  0  0  0  0  0  0
   27.0626   38.3919   23.8523 C   0  0  1  0  0  0  0  0  0  0  0  0
   26.9337   39.8407   24.2227 C   0  0  0  0  0  0  0  0  0  0  0  0
   27.2882   38.0517   22.5218 C   0  0  0  0  0  0  0  0  0  0  0  0
   27.4234   36.7171   22.1467 C   0  0  2  0  0  0  0  0  0  0  0  0
   27.7782   35.0469   20.4652 C   0  0  2  0  0  0  0  0  0  0  0  0
   27.6391   36.3759   20.8168 N   0  0  0  0  0  0  0  0  0  0  0  0
  1  2  1  6  0  0  0
  1  3  1  0  0  0  0
  1  4  2  0  0  0  0
  1  6  1  0  0  0  0
  5  6  1  0  0  0  0
  7  5  1  1  0  0  0
  7  8  1  0  0  0  0
  7  9  1  0  0  0  0
  9 10  1  6  0  0  0
  9 11  1  0  0  0  0
 11 12  1  6  0  0  0
 11 13  1  0  0  0  0
 13 31  1  0  0  0  0
 14 15  1  0  0  0  0
 15 16  2  0  0  0  0
 15 17  1  0  0  0  0
 17 18  1  0  0  0  0
 18 20  2  0  0  0  0
 19 18  1  1  0  0  0
 19 22  1  0  0  0  0
 19 30  1  0  0  0  0
 21 23  1  6  0  0  0
 21 29  1  0  0  0  0
 21 22  1  0  0  0  0
 23 24  1  0  0  0  0
 24 25  1  1  0  0  0
 24 26  1  0  0  0  0
 26 27  1  1  0  0  0
 26 28  1  0  0  0  0
 29 28  1  6  0  0  0
 29 31  1  0  0  0  0
 30 14  1  6  0  0  0
 30 31  1  0  0  0  0
M  CHG  1   3  -1
M  END
>  <CHROM.1>
-69.36044864,-178.02853146,152.64208582,175.48204087,169.21478994,-161.63482072
-95.37774286,27.03225255,37.68244674,19.94663760,2.53880307,1.35599285,-1.53856488

>  <Name>
ligand

>  <RI>
0

>  <Rbt.Current_Directory>
/home/itssahil/PROJECTS/Mol_Feturizer/New_Systems/rnas/3F2Q

>  <Rbt.Executable>
rbdock ($Id: //depot/dev/client3/rdock/2013.1/src/exe/rbdock.cxx#4 $)

>  <Rbt.Library>
libRbt.so (2013.1, Build901 2013/11/27)

>  <Rbt.Parameter_File>
/export/apps/rDock/src/rDock_2013.1_src/data/scripts/dock_solv.prm

>  <Rbt.Receptor>
prm/pocket_docking_2.prm

>  <SCORE>
-31.2384

>  <SCORE.INTER>
-29.2194

>  <SCORE.INTER.CONST>
1

>  <SCORE.INTER.POLAR>
0

>  <SCORE.INTER.ROT>
7

>  <SCORE.INTER.SOLV>
17.8623

>  <SCORE.INTER.VDW>
-33.7003

>  <SCORE.INTER.norm>
-0.942561

>  <SCORE.INTRA>
-2.12513

>  <SCORE.INTRA.DIHEDRAL>
-4.21825

>  <SCORE.INTRA.DIHEDRAL.0>
10.0718

>  <SCORE.INTRA.POLAR>
0

>  <SCORE.INTRA.POLAR.0>
0

>  <SCORE.INTRA.REPUL>
0

>  <SCORE.INTRA.REPUL.0>
0

>  <SCORE.INTRA.SOLV>
1.57648

>  <SCORE.INTRA.SOLV.lig_0>
-48.6963

>  <SCORE.INTRA.VDW>
-0.804248

>  <SCORE.INTRA.VDW.0>
-0.836976

>  <SCORE.INTRA.norm>
-0.0685526

>  <SCORE.RESTR>
0.106149

>  <SCORE.RESTR.CAVITY>
0.106149

>  <SCORE.RESTR.norm>
0.00342417

>  <SCORE.SYSTEM>
0

>  <SCORE.SYSTEM.CONST>
0

>  <SCORE.SYSTEM.DIHEDRAL>
0

>  <SCORE.SYSTEM.SOLV>
0

>  <SCORE.SYSTEM.norm>
0

>  <SCORE.heavy>
31

>  <SCORE.norm>
-1.00769

>  <RMSD>
0.911

$$$$
ligand
 OpenBabel11021811473D
libRbt.so/2013.1/901 2013/11/27
 31 33  0  0  0  0  0  0  0  0999 V2000
   26.0497   42.5995   16.7552 P   0  0  1  0  0  0  0  0  0  0  0  0
   26.5913   42.3463   15.3645 O   0  0  0  0  0  0  0  0  0  0  0  0
   26.6019   43.9149   17.2346 O   0  5  0  0  0  0  0  0  0  0  0  0
   24.5475   42.6659   16.7235 O   0  0  0  0  0  0  0  0  0  0  0  0
   27.7931   41.1553   18.0423 C   0  0  0  0  0  0  0  0  0  0  0  0
   26.4438   41.3780   17.7119 O   0  0  0  0  0  0  0  0  0  0  0  0
   27.8911   39.9276   18.9358 C   0  0  1  0  0  0  0  0  0  0  0  0
   27.0683   40.1255   20.0660 O   0  0  0  0  0  0  0  0  0  0  0  0
   27.4549   38.6782   18.1707 C   0  0  1  0  0  0  0  0  0  0  0  0
   28.4391   38.3380   17.2177 O   0  0  0  0  0  0  0  0  0  0  0  0
   27.1220   37.4838   19.0757 C   0  0  1  0  0  0  0  0  0  0  0  0
   26.6174   36.4196   18.3000 O   0  0  0  0  0  0  0  0  0  0  0  0
   28.3260   36.9971   19.8664 C   0  0  0  0  0  0  0  0  0  0  0  0
   28.3837   34.2315   19.2905 N   0  0  0  0  0  0  0  0  0  0  0  0
   28.4794   32.8905   18.9787 C   0  0  0  0  0  0  0  0  0  0  0  0
   28.8260   32.5407   17.8471 O   0  0  0  0  0  0  0  0  0  0  0  0
   28.1757   31.9443   19.9367 N   0  0  0  0  0  0  0  0  0  0  0  0
   27.7780   32.3337   21.2019 C   0  0  0  0  0  0  0  0  0  0  0  0
   27.6831   33.6730   21.5178 C   0  0  1  0  0  0  0  0  0  0  0  0
   27.5133   31.5011   22.0674 O   0  0  0  0  0  0  0  0  0  0  0  0
   27.1962   35.3826   23.1099 C   0  0  2  0  0  0  0  0  0  0  0  0
   27.2886   34.0439   22.7887 N   0  0  0  0  0  0  0  0  0  0  0  0
   26.7967   35.7591   24.3900 C   0  0  0  0  0  0  0  0  0  0  0  0
   26.6931   37.1063   24.7217 C   0  0  1  0  0  0  0  0  0  0  0  0
   26.2706   37.4953   26.1115 C   0  0  0  0  0  0  0  0  0  0  0  0
   26.9957   38.0806   23.7636 C   0  0  1  0  0  0  0  0  0  0  0  0
   26.9080   39.5417   24.0955 C   0  0  0  0  0  0  0  0  0  0  0  0
   27.3951   37.7003   22.4859 C   0  0  0  0  0  0  0  0  0  0  0  0
   27.4972   36.3526   22.1490 C   0  0  2  0  0  0  0  0  0  0  0  0
   27.9895   34.6301   20.5573 C   0  0  2  0  0  0  0  0  0  0  0  0
   27.8867   35.9720   20.8704 N   0  0  0  0  0  0  0  0  0  0  0  0
  1  2  1  6  0  0  0
  1  3  1  0  0  0  0
  1  4  2  0  0  0  0
  1  6  1  0  0  0  0
  5  6  1  0  0  0  0
  7  5  1  6  0  0  0
  7  8  1  0  0  0  0
  7  9  1  0  0  0  0
  9 10  1  6  0  0  0
  9 11  1  0  0  0  0
 11 12  1  6  0  0  0
 11 13  1  0  0  0  0
 13 31  1  0  0  0  0
 14 15  1  0  0  0  0
 15 16  2  0  0  0  0
 15 17  1  0  0  0  0
 17 18  1  0  0  0  0
 18 20  2  0  0  0  0
 19 18  1  1  0  0  0
 19 22  1  0  0  0  0
 19 30  1  0  0  0  0
 21 23  1  6  0  0  0
 21 29  1  0  0  0  0
 21 22  1  0  0  0  0
 23 24  1  0  0  0  0
 24 25  1  1  0  0  0
 24 26  1  0  0  0  0
 26 27  1  1  0  0  0
 26 28  1  0  0  0  0
 29 28  1  6  0  0  0
 29 31  1  0  0  0  0
 30 14  1  6  0  0  0
 30 31  1  0  0  0  0
M  CHG  1   3  -1
M  END
>  <CHROM.1>
-178.99406128,67.00239918,-56.23735079,71.94587467,174.78127532,171.67605109
-89.85142603,27.24055471,37.54565724,20.02148756,-2.17076993,-1.33755261
2.03622797

>  <Name>
ligand

>  <RI>
0

>  <Rbt.Current_Directory>
/home/itssahil/PROJECTS/Mol_Feturizer/New_Systems/rnas/3F2Q

>  <Rbt.Executable>
rbdock ($Id: //depot/dev/client3/rdock/2013.1/src/exe/rbdock.cxx#4 $)

>  <Rbt.Library>
libRbt.so (2013.1, Build901 2013/11/27)

>  <Rbt.Parameter_File>
/export/apps/rDock/src/rDock_2013.1_src/data/scripts/dock_solv.prm

>  <Rbt.Receptor>
prm/pocket_docking_8.prm

>  <SCORE>
-38.0161

>  <SCORE.INTER>
-32.0288

>  <SCORE.INTER.CONST>
1

>  <SCORE.INTER.POLAR>
0

>  <SCORE.INTER.ROT>
7

>  <SCORE.INTER.SOLV>
18.1057

>  <SCORE.INTER.VDW>
-35.6544

>  <SCORE.INTER.norm>
-1.03319

>  <SCORE.INTRA>
-5.98725

>  <SCORE.INTRA.DIHEDRAL>
-7.54864

>  <SCORE.INTRA.DIHEDRAL.0>
10.0718

>  <SCORE.INTRA.POLAR>
0

>  <SCORE.INTRA.POLAR.0>
0

>  <SCORE.INTRA.REPUL>
0

>  <SCORE.INTRA.REPUL.0>
0

>  <SCORE.INTRA.SOLV>
-1.11901

>  <SCORE.INTRA.SOLV.lig_0>
-48.6963

>  <SCORE.INTRA.VDW>
-1.65342

>  <SCORE.INTRA.VDW.0>
-0.836976

>  <SCORE.INTRA.norm>
-0.193137

>  <SCORE.RESTR>
0

>  <SCORE.RESTR.CAVITY>
0

>  <SCORE.RESTR.norm>
0

>  <SCORE.SYSTEM>
0

>  <SCORE.SYSTEM.CONST>
0

>  <SCORE.SYSTEM.DIHEDRAL>
0

>  <SCORE.SYSTEM.SOLV>
0

>  <SCORE.SYSTEM.norm>
0

>  <SCORE.heavy>
31

>  <SCORE.norm>
-1.22632

>  <RMSD>
0.916

$$$$
ligand
 OpenBabel11021811473D
libRbt.so/2013.1/901 2013/11/27
 31 33  0  0  0  0  0  0  0  0999 V2000
   26.1603   43.1574   16.9318 P   0  0  1  0  0  0  0  0  0  0  0  0
   27.4906   43.8622   16.7738 O   0  0  0  0  0  0  0  0  0  0  0  0
   25.1946   44.1265   17.5590 O   0  5  0  0  0  0  0  0  0  0  0  0
   25.6388   42.7252   15.5890 O   0  0  0  0  0  0  0  0  0  0  0  0
   27.3522   41.7918   18.8016 C   0  0  0  0  0  0  0  0  0  0  0  0
   26.3597   41.8307   17.8052 O   0  0  0  0  0  0  0  0  0  0  0  0
   27.2541   40.4712   19.5511 C   0  0  1  0  0  0  0  0  0  0  0  0
   25.9948   40.4054   20.1860 O   0  0  0  0  0  0  0  0  0  0  0  0
   27.4265   39.2988   18.5853 C   0  0  1  0  0  0  0  0  0  0  0  0
   28.6969   39.3708   17.9743 O   0  0  0  0  0  0  0  0  0  0  0  0
   27.1987   37.9258   19.2329 C   0  0  1  0  0  0  0  0  0  0  0  0
   27.0188   36.9475   18.2332 O   0  0  0  0  0  0  0  0  0  0  0  0
   28.3477   37.5090   20.1372 C   0  0  0  0  0  0  0  0  0  0  0  0
   28.4060   34.7825   19.3981 N   0  0  0  0  0  0  0  0  0  0  0  0
   28.5026   33.4622   19.0085 C   0  0  0  0  0  0  0  0  0  0  0  0
   28.8688   33.1789   17.8645 O   0  0  0  0  0  0  0  0  0  0  0  0
   28.1779   32.4619   19.9025 N   0  0  0  0  0  0  0  0  0  0  0  0
   27.7582   32.7769   21.1812 C   0  0  0  0  0  0  0  0  0  0  0  0
   27.6623   34.0953   21.5749 C   0  0  1  0  0  0  0  0  0  0  0  0
   27.4746   31.8953   21.9904 O   0  0  0  0  0  0  0  0  0  0  0  0
   27.1523   35.7091   23.2572 C   0  0  2  0  0  0  0  0  0  0  0  0
   27.2457   34.3915   22.8582 N   0  0  0  0  0  0  0  0  0  0  0  0
   26.7305   36.0103   24.5500 C   0  0  0  0  0  0  0  0  0  0  0  0
   26.6256   37.3358   24.9598 C   0  0  1  0  0  0  0  0  0  0  0  0
   26.1790   37.6431   26.3624 C   0  0  0  0  0  0  0  0  0  0  0  0
   26.9494   38.3641   24.0674 C   0  0  1  0  0  0  0  0  0  0  0  0
   26.8609   39.8032   24.4844 C   0  0  0  0  0  0  0  0  0  0  0  0
   27.3711   38.0589   22.7766 C   0  0  0  0  0  0  0  0  0  0  0  0
   27.4745   36.7333   22.3617 C   0  0  2  0  0  0  0  0  0  0  0  0
   27.9899   35.1067   20.6791 C   0  0  2  0  0  0  0  0  0  0  0  0
   27.8862   36.4279   21.0699 N   0  0  0  0  0  0  0  0  0  0  0  0
  1  2  1  6  0  0  0
  1  3  1  0  0  0  0
  1  4  2  0  0  0  0
  1  6  1  0  0  0  0
  5  6  1  0  0  0  0
  7  5  1  6  0  0  0
  7  8  1  0  0  0  0
  7  9  1  0  0  0  0
  9 10  1  1  0  0  0
  9 11  1  0  0  0  0
 11 12  1  6  0  0  0
 11 13  1  0  0  0  0
 13 31  1  0  0  0  0
 14 15  1  0  0  0  0
 15 16  2  0  0  0  0
 15 17  1  0  0  0  0
 17 18  1  0  0  0  0
 18 20  2  0  0  0  0
 19 18  1  1  0  0  0
 19 22  1  0  0  0  0
 19 30  1  0  0  0  0
 21 23  1  6  0  0  0
 21 29  1  0  0  0  0
 21 22  1  0  0  0  0
 23 24  1  0  0  0  0
 24 25  1  1  0  0  0
 24 26  1  0  0  0  0
 26 27  1  1  0  0  0
 26 28  1  0  0  0  0
 29 28  1  6  0  0  0
 29 31  1  0  0  0  0
 30 14  1  6  0  0  0
 30 31  1  0  0  0  0
M  CHG  1   3  -1
M  END
>  <CHROM.1>
175.40660910,31.31025242,-62.46432068,60.71611182,164.25943065,161.21164144
-96.93263209,27.20820782,38.02178729,20.22531108,-2.10697794,-1.32170545
2.11368272

>  <Name>
ligand

>  <RI>
0

>  <Rbt.Current_Directory>
/home/itssahil/PROJECTS/Mol_Feturizer/New_Systems/rnas/3F2Q

>  <Rbt.Executable>
rbdock ($Id: //depot/dev/client3/rdock/2013.1/src/exe/rbdock.cxx#4 $)

>  <Rbt.Library>
libRbt.so (2013.1, Build901 2013/11/27)

>  <Rbt.Parameter_File>
/export/apps/rDock/src/rDock_2013.1_src/data/scripts/dock_solv.prm

>  <Rbt.Receptor>
prm/pocket_docking_3.prm

>  <SCORE>
-35.669

>  <SCORE.INTER>
-31.0153

>  <SCORE.INTER.CONST>
1

>  <SCORE.INTER.POLAR>
0

>  <SCORE.INTER.ROT>
7

>  <SCORE.INTER.SOLV>
17.6027

>  <SCORE.INTER.VDW>
-34.8111

>  <SCORE.INTER.norm>
-1.00049

>  <SCORE.INTRA>
-4.65378

>  <SCORE.INTRA.DIHEDRAL>
-5.21799

>  <SCORE.INTRA.DIHEDRAL.0>
10.0718

>  <SCORE.INTRA.POLAR>
0

>  <SCORE.INTRA.POLAR.0>
0

>  <SCORE.INTRA.REPUL>
0

>  <SCORE.INTRA.REPUL.0>
0

>  <SCORE.INTRA.SOLV>
-1.42144

>  <SCORE.INTRA.SOLV.lig_0>
-48.6963

>  <SCORE.INTRA.VDW>
-1.33407

>  <SCORE.INTRA.VDW.0>
-0.836976

>  <SCORE.INTRA.norm>
-0.150122

>  <SCORE.RESTR>
0

>  <SCORE.RESTR.CAVITY>
0

>  <SCORE.RESTR.norm>
0

>  <SCORE.SYSTEM>
0

>  <SCORE.SYSTEM.CONST>
0

>  <SCORE.SYSTEM.DIHEDRAL>
0

>  <SCORE.SYSTEM.SOLV>
0

>  <SCORE.SYSTEM.norm>
0

>  <SCORE.heavy>
31

>  <SCORE.norm>
-1.15061

>  <RMSD>
0.949

$$$$
ligand
 OpenBabel11021811473D
libRbt.so/2013.1/901 2013/11/27
 31 33  0  0  0  0  0  0  0  0999 V2000
   26.8142   42.8163   16.7583 P   0  0  1  0  0  0  0  0  0  0  0  0
   27.8017   43.9585   16.8667 O   0  0  0  0  0  0  0  0  0  0  0  0
   25.5313   43.2496   17.4153 O   0  5  0  0  0  0  0  0  0  0  0  0
   26.5544   42.4896   15.3135 O   0  0  0  0  0  0  0  0  0  0  0  0
   27.5873   41.4358   18.8267 C   0  0  0  0  0  0  0  0  0  0  0  0
   27.4401   41.5045   17.4293 O   0  0  0  0  0  0  0  0  0  0  0  0
   28.0557   40.0398   19.2103 C   0  0  1  0  0  0  0  0  0  0  0  0
   27.9745   39.9065   20.6135 O   0  0  0  0  0  0  0  0  0  0  0  0
   27.1914   38.9826   18.5232 C   0  0  1  0  0  0  0  0  0  0  0  0
   27.7890   38.6021   17.3023 O   0  0  0  0  0  0  0  0  0  0  0  0
   26.8960   37.7591   19.4019 C   0  0  1  0  0  0  0  0  0  0  0  0
   26.0342   36.8752   18.7201 O   0  0  0  0  0  0  0  0  0  0  0  0
   28.1572   37.0127   19.8065 C   0  0  0  0  0  0  0  0  0  0  0  0
   28.2882   34.2509   19.2242 N   0  0  0  0  0  0  0  0  0  0  0  0
   28.4174   32.9144   18.9054 C   0  0  0  0  0  0  0  0  0  0  0  0
   28.7103   32.5774   17.7548 O   0  0  0  0  0  0  0  0  0  0  0  0
   28.2075   31.9579   19.8781 N   0  0  0  0  0  0  0  0  0  0  0  0
   27.8699   32.3327   21.1650 C   0  0  0  0  0  0  0  0  0  0  0  0
   27.7418   33.6675   21.4880 C   0  0  1  0  0  0  0  0  0  0  0  0
   27.6890   31.4911   22.0434 O   0  0  0  0  0  0  0  0  0  0  0  0
   27.2833   35.3583   23.1084 C   0  0  2  0  0  0  0  0  0  0  0  0
   27.4085   34.0239   22.7803 N   0  0  0  0  0  0  0  0  0  0  0  0
   26.9453   35.7200   24.4103 C   0  0  0  0  0  0  0  0  0  0  0  0
   26.8092   37.0625   24.7495 C   0  0  1  0  0  0  0  0  0  0  0  0
   26.4543   37.4360   26.1623 C   0  0  0  0  0  0  0  0  0  0  0  0
   27.0170   38.0470   23.7767 C   0  0  1  0  0  0  0  0  0  0  0  0
   26.8923   39.5038   24.1153 C   0  0  0  0  0  0  0  0  0  0  0  0
   27.3552   37.6814   22.4771 C   0  0  0  0  0  0  0  0  0  0  0  0
   27.4895   36.3384   22.1329 C   0  0  2  0  0  0  0  0  0  0  0  0
   27.9540   34.6351   20.5126 C   0  0  2  0  0  0  0  0  0  0  0  0
   27.8177   35.9721   20.8331 N   0  0  0  0  0  0  0  0  0  0  0  0
  1  2  1  1  0  0  0
  1  3  1  0  0  0  0
  1  4  2  0  0  0  0
  1  6  1  0  0  0  0
  5  6  1  0  0  0  0
  7  5  1  1  0  0  0
  7  8  1  0  0  0  0
  7  9  1  0  0  0  0
  9 10  1  6  0  0  0
  9 11  1  0  0  0  0
 11 12  1  6  0  0  0
 11 13  1  0  0  0  0
 13 31  1  0  0  0  0
 14 15  1  0  0  0  0
 15 16  2  0  0  0  0
 15 17  1  0  0  0  0
 17 18  1  0  0  0  0
 18 20  2  0  0  0  0
 19 18  1  1  0  0  0
 19 22  1  0  0  0  0
 19 30  1  0  0  0  0
 21 23  1  6  0  0  0
 21 29  1  0  0  0  0
 21 22  1  0  0  0  0
 23 24  1  0  0  0  0
 24 25  1  1  0  0  0
 24 26  1  0  0  0  0
 26 27  1  1  0  0  0
 26 28  1  0  0  0  0
 29 28  1  6  0  0  0
 29 31  1  0  0  0  0
 30 14  1  6  0  0  0
 30 31  1  0  0  0  0
M  CHG  1   3  -1
M  END
>  <CHROM.1>
173.79421310,70.85739124,-169.80261411,92.79023548,176.65163004,170.96828662
-72.22284624,27.39023090,37.63393878,20.09813134,-1.99858288,-1.39623519
2.21918041

>  <Name>
ligand

>  <RI>
0

>  <Rbt.Current_Directory>
/home/itssahil/PROJECTS/Mol_Feturizer/New_Systems/rnas/3F2Q

>  <Rbt.Executable>
rbdock ($Id: //depot/dev/client3/rdock/2013.1/src/exe/rbdock.cxx#4 $)

>  <Rbt.Library>
libRbt.so (2013.1, Build901 2013/11/27)

>  <Rbt.Parameter_File>
/export/apps/rDock/src/rDock_2013.1_src/data/scripts/dock_solv.prm

>  <Rbt.Receptor>
prm/pocket_docking_6.prm

>  <SCORE>
-34.8363

>  <SCORE.INTER>
-31.1201

>  <SCORE.INTER.CONST>
1

>  <SCORE.INTER.POLAR>
0

>  <SCORE.INTER.ROT>
7

>  <SCORE.INTER.SOLV>
19.5008

>  <SCORE.INTER.VDW>
-35.5137

>  <SCORE.INTER.norm>
-1.00387

>  <SCORE.INTRA>
-3.71618

>  <SCORE.INTRA.DIHEDRAL>
-4.54395

>  <SCORE.INTRA.DIHEDRAL.0>
10.0718

>  <SCORE.INTRA.POLAR>
0

>  <SCORE.INTRA.POLAR.0>
0

>  <SCORE.INTRA.REPUL>
0

>  <SCORE.INTRA.REPUL.0>
0

>  <SCORE.INTRA.SOLV>
-0.937035

>  <SCORE.INTRA.SOLV.lig_0>
-48.6963

>  <SCORE.INTRA.VDW>
-0.975685

>  <SCORE.INTRA.VDW.0>
-0.836976

>  <SCORE.INTRA.norm>
-0.119877

>  <SCORE.RESTR>
0

>  <SCORE.RESTR.CAVITY>
0

>  <SCORE.RESTR.norm>
0

>  <SCORE.SYSTEM>
0

>  <SCORE.SYSTEM.CONST>
0

>  <SCORE.SYSTEM.DIHEDRAL>
0

>  <SCORE.SYSTEM.SOLV>
0

>  <SCORE.SYSTEM.norm>
0

>  <SCORE.heavy>
31

>  <SCORE.norm>
-1.12375

>  <RMSD>
0.953

$$$$
ligand
 OpenBabel11021811473D
libRbt.so/2013.1/901 2013/11/27
 31 33  0  0  0  0  0  0  0  0999 V2000
   26.6978   42.7934   16.7826 P   0  0  1  0  0  0  0  0  0  0  0  0
   26.3390   42.3345   15.3854 O   0  0  0  0  0  0  0  0  0  0  0  0
   27.6890   43.9193   16.6597 O   0  5  0  0  0  0  0  0  0  0  0  0
   25.4695   43.2805   17.5008 O   0  0  0  0  0  0  0  0  0  0  0  0
   26.4057   40.8079   18.4420 C   0  0  0  0  0  0  0  0  0  0  0  0
   27.2695   41.5551   17.6206 O   0  0  0  0  0  0  0  0  0  0  0  0
   27.1982   39.7009   19.1217 C   0  0  1  0  0  0  0  0  0  0  0  0
   26.4671   39.2441   20.2398 O   0  0  0  0  0  0  0  0  0  0  0  0
   27.4515   38.5528   18.1447 C   0  0  1  0  0  0  0  0  0  0  0  0
   28.6839   38.7537   17.4863 O   0  0  0  0  0  0  0  0  0  0  0  0
   27.3889   37.1633   18.7941 C   0  0  1  0  0  0  0  0  0  0  0  0
   27.5417   36.1657   17.8090 O   0  0  0  0  0  0  0  0  0  0  0  0
   28.4495   36.9717   19.8663 C   0  0  0  0  0  0  0  0  0  0  0  0
   28.4755   34.2081   19.2785 N   0  0  0  0  0  0  0  0  0  0  0  0
   28.5562   32.8673   18.9620 C   0  0  0  0  0  0  0  0  0  0  0  0
   28.9139   32.5175   17.8337 O   0  0  0  0  0  0  0  0  0  0  0  0
   28.2252   31.9214   19.9111 N   0  0  0  0  0  0  0  0  0  0  0  0
   27.8151   32.3109   21.1722 C   0  0  0  0  0  0  0  0  0  0  0  0
   27.7350   33.6500   21.4930 C   0  0  1  0  0  0  0  0  0  0  0  0
   27.5259   31.4784   22.0300 O   0  0  0  0  0  0  0  0  0  0  0  0
   27.2501   35.3595   23.0859 C   0  0  2  0  0  0  0  0  0  0  0  0
   27.3277   34.0210   22.7598 N   0  0  0  0  0  0  0  0  0  0  0  0
   26.8378   35.7360   24.3619 C   0  0  0  0  0  0  0  0  0  0  0  0
   26.7490   37.0831   24.6983 C   0  0  1  0  0  0  0  0  0  0  0  0
   26.3123   37.4721   26.0838 C   0  0  0  0  0  0  0  0  0  0  0  0
   27.0794   38.0571   23.7492 C   0  0  1  0  0  0  0  0  0  0  0  0
   27.0081   39.5179   24.0866 C   0  0  0  0  0  0  0  0  0  0  0  0
   27.4915   37.6767   22.4755 C   0  0  0  0  0  0  0  0  0  0  0  0
   27.5789   36.3292   22.1339 C   0  0  2  0  0  0  0  0  0  0  0  0
   28.0690   34.6069   20.5414 C   0  0  2  0  0  0  0  0  0  0  0  0
   27.9811   35.9486   20.8592 N   0  0  0  0  0  0  0  0  0  0  0  0
  1  2  1  6  0  0  0
  1  3  1  0  0  0  0
  1  4  2  0  0  0  0
  1  6  1  0  0  0  0
  5  6  1  0  0  0  0
  7  5  1  6  0  0  0
  7  8  1  0  0  0  0
  7  9  1  0  0  0  0
  9 10  1  1  0  0  0
  9 11  1  0  0  0  0
 11 12  1  6  0  0  0
 11 13  1  0  0  0  0
 13 31  1  0  0  0  0
 14 15  1  0  0  0  0
 15 16  2  0  0  0  0
 15 17  1  0  0  0  0
 17 18  1  0  0  0  0
 18 20  2  0  0  0  0
 19 18  1  1  0  0  0
 19 22  1  0  0  0  0
 19 30  1  0  0  0  0
 21 23  1  6  0  0  0
 21 29  1  0  0  0  0
 21 22  1  0  0  0  0
 23 24  1  0  0  0  0
 24 25  1  1  0  0  0
 24 26  1  0  0  0  0
 26 27  1  1  0  0  0
 26 28  1  0  0  0  0
 29 28  1  6  0  0  0
 29 31  1  0  0  0  0
 30 14  1  6  0  0  0
 30 31  1  0  0  0  0
M  CHG  1   3  -1
M  END
>  <CHROM.1>
-179.87624515,-94.66606728,161.19315992,91.70219712,175.99048828,153.87709332
-107.19247849,27.38031822,37.51785312,20.02443980,-1.99912536,-1.33441906
2.22149963

>  <Name>
ligand

>  <RI>
0

>  <Rbt.Current_Directory>
/home/itssahil/PROJECTS/Mol_Feturizer/New_Systems/rnas/3F2Q

>  <Rbt.Executable>
rbdock ($Id: //depot/dev/client3/rdock/2013.1/src/exe/rbdock.cxx#4 $)

>  <Rbt.Library>
libRbt.so (2013.1, Build901 2013/11/27)

>  <Rbt.Parameter_File>
/export/apps/rDock/src/rDock_2013.1_src/data/scripts/dock_solv.prm

>  <Rbt.Receptor>
prm/pocket_docking_6.prm

>  <SCORE>
-32.7526

>  <SCORE.INTER>
-31.1755

>  <SCORE.INTER.CONST>
1

>  <SCORE.INTER.POLAR>
0

>  <SCORE.INTER.ROT>
7

>  <SCORE.INTER.SOLV>
19.068

>  <SCORE.INTER.VDW>
-35.4063

>  <SCORE.INTER.norm>
-1.00566

>  <SCORE.INTRA>
-1.57707

>  <SCORE.INTRA.DIHEDRAL>
-0.849488

>  <SCORE.INTRA.DIHEDRAL.0>
10.0718

>  <SCORE.INTRA.POLAR>
0

>  <SCORE.INTRA.POLAR.0>
0

>  <SCORE.INTRA.REPUL>
0

>  <SCORE.INTRA.REPUL.0>
0

>  <SCORE.INTRA.SOLV>
-0.7233

>  <SCORE.INTRA.SOLV.lig_0>
-48.6963

>  <SCORE.INTRA.VDW>
-0.790677

>  <SCORE.INTRA.VDW.0>
-0.836976

>  <SCORE.INTRA.norm>
-0.0508733

>  <SCORE.RESTR>
0

>  <SCORE.RESTR.CAVITY>
0

>  <SCORE.RESTR.norm>
0

>  <SCORE.SYSTEM>
0

>  <SCORE.SYSTEM.CONST>
0

>  <SCORE.SYSTEM.DIHEDRAL>
0

>  <SCORE.SYSTEM.SOLV>
0

>  <SCORE.SYSTEM.norm>
0

>  <SCORE.heavy>
31

>  <SCORE.norm>
-1.05653

>  <RMSD>
0.971

$$$$
ligand
 OpenBabel11021811473D
libRbt.so/2013.1/901 2013/11/27
 31 33  0  0  0  0  0  0  0  0999 V2000
   26.0792   42.8635   16.8332 P   0  0  1  0  0  0  0  0  0  0  0  0
   24.8555   42.0752   17.2489 O   0  0  0  0  0  0  0  0  0  0  0  0
   26.3278   42.5966   15.3731 O   0  5  0  0  0  0  0  0  0  0  0  0
   25.8457   44.3342   17.0434 O   0  0  0  0  0  0  0  0  0  0  0  0
   27.9244   41.1905   17.5936 C   0  0  0  0  0  0  0  0  0  0  0  0
   27.3194   42.4501   17.7571 O   0  0  0  0  0  0  0  0  0  0  0  0
   27.4116   40.2477   18.6723 C   0  0  1  0  0  0  0  0  0  0  0  0
   26.0192   40.0851   18.5045 O   0  0  0  0  0  0  0  0  0  0  0  0
   28.1215   38.8972   18.5780 C   0  0  1  0  0  0  0  0  0  0  0  0
   29.5151   39.0844   18.7019 O   0  0  0  0  0  0  0  0  0  0  0  0
   27.6092   37.8579   19.5849 C   0  0  1  0  0  0  0  0  0  0  0  0
   26.4463   37.2368   19.0840 O   0  0  0  0  0  0  0  0  0  0  0  0
   28.6460   36.7922   19.9025 C   0  0  0  0  0  0  0  0  0  0  0  0
   28.5404   34.0376   19.2828 N   0  0  0  0  0  0  0  0  0  0  0  0
   28.5588   32.6972   18.9547 C   0  0  0  0  0  0  0  0  0  0  0  0
   28.9588   32.3367   17.8442 O   0  0  0  0  0  0  0  0  0  0  0  0
   28.1183   31.7645   19.8718 N   0  0  0  0  0  0  0  0  0  0  0  0
   27.6609   32.1667   21.1126 C   0  0  0  0  0  0  0  0  0  0  0  0
   27.6428   33.5052   21.4450 C   0  0  1  0  0  0  0  0  0  0  0  0
   27.2741   31.3454   21.9423 O   0  0  0  0  0  0  0  0  0  0  0  0
   27.1708   35.2264   23.0291 C   0  0  2  0  0  0  0  0  0  0  0  0
   27.1868   33.8887   22.6913 N   0  0  0  0  0  0  0  0  0  0  0  0
   26.7096   35.6157   24.2843 C   0  0  0  0  0  0  0  0  0  0  0  0
   26.6823   36.9626   24.6319 C   0  0  1  0  0  0  0  0  0  0  0  0
   26.1914   37.3647   25.9953 C   0  0  0  0  0  0  0  0  0  0  0  0
   27.1239   37.9234   23.7151 C   0  0  1  0  0  0  0  0  0  0  0  0
   27.1208   39.3827   24.0661 C   0  0  0  0  0  0  0  0  0  0  0  0
   27.5846   37.5303   22.4621 C   0  0  0  0  0  0  0  0  0  0  0  0
   27.6107   36.1831   22.1092 C   0  0  2  0  0  0  0  0  0  0  0  0
   28.0871   34.4487   20.5257 C   0  0  2  0  0  0  0  0  0  0  0  0
   28.0615   35.7904   20.8546 N   0  0  0  0  0  0  0  0  0  0  0  0
  1  2  1  1  0  0  0
  1  3  1  0  0  0  0
  1  4  2  0  0  0  0
  1  6  1  0  0  0  0
  5  6  1  0  0  0  0
  7  5  1  6  0  0  0
  7  8  1  0  0  0  0
  7  9  1  0  0  0  0
  9 10  1  1  0  0  0
  9 11  1  0  0  0  0
 11 12  1  6  0  0  0
 11 13  1  0  0  0  0
 13 31  1  0  0  0  0
 14 15  1  0  0  0  0
 15 16  2  0  0  0  0
 15 17  1  0  0  0  0
 17 18  1  0  0  0  0
 18 20  2  0  0  0  0
 19 18  1  1  0  0  0
 19 22  1  0  0  0  0
 19 30  1  0  0  0  0
 21 23  1  6  0  0  0
 21 29  1  0  0  0  0
 21 22  1  0  0  0  0
 23 24  1  0  0  0  0
 24 25  1  1  0  0  0
 24 26  1  0  0  0  0
 26 27  1  1  0  0  0
 26 28  1  0  0  0  0
 29 28  1  6  0  0  0
 29 31  1  0  0  0  0
 30 14  1  6  0  0  0
 30 31  1  0  0  0  0
M  CHG  1   3  -1
M  END
>  <CHROM.1>
-100.20818672,72.02549283,62.62099686,57.90719406,82.72179619,-178.17033867
-60.28581722,27.29184347,37.59161135,20.04050772,-2.10804407,-1.31978355
2.14094676

>  <Name>
ligand

>  <RI>
0

>  <Rbt.Current_Directory>
/home/itssahil/PROJECTS/Mol_Feturizer/New_Systems/rnas/3F2Q

>  <Rbt.Executable>
rbdock ($Id: //depot/dev/client3/rdock/2013.1/src/exe/rbdock.cxx#4 $)

>  <Rbt.Library>
libRbt.so (2013.1, Build901 2013/11/27)

>  <Rbt.Parameter_File>
/export/apps/rDock/src/rDock_2013.1_src/data/scripts/dock_solv.prm

>  <Rbt.Receptor>
prm/pocket_docking_2.prm

>  <SCORE>
-32.1464

>  <SCORE.INTER>
-31.4954

>  <SCORE.INTER.CONST>
1

>  <SCORE.INTER.POLAR>
0

>  <SCORE.INTER.ROT>
7

>  <SCORE.INTER.SOLV>
19.9033

>  <SCORE.INTER.VDW>
-35.898

>  <SCORE.INTER.norm>
-1.01598

>  <SCORE.INTRA>
-1.25502

>  <SCORE.INTRA.DIHEDRAL>
-1.43487

>  <SCORE.INTRA.DIHEDRAL.0>
10.0718

>  <SCORE.INTRA.POLAR>
0

>  <SCORE.INTRA.POLAR.0>
0

>  <SCORE.INTRA.REPUL>
0

>  <SCORE.INTRA.REPUL.0>
0

>  <SCORE.INTRA.SOLV>
-0.238109

>  <SCORE.INTRA.SOLV.lig_0>
-48.6963

>  <SCORE.INTRA.VDW>
-0.418527

>  <SCORE.INTRA.VDW.0>
-0.836976

>  <SCORE.INTRA.norm>
-0.0404844

>  <SCORE.RESTR>
0.60397

>  <SCORE.RESTR.CAVITY>
0.60397

>  <SCORE.RESTR.norm>
0.0194829

>  <SCORE.SYSTEM>
0

>  <SCORE.SYSTEM.CONST>
0

>  <SCORE.SYSTEM.DIHEDRAL>
0

>  <SCORE.SYSTEM.SOLV>
0

>  <SCORE.SYSTEM.norm>
0

>  <SCORE.heavy>
31

>  <SCORE.norm>
-1.03698

>  <RMSD>
1.006

$$$$
ligand
 OpenBabel11021811473D
libRbt.so/2013.1/901 2013/11/27
 31 33  0  0  0  0  0  0  0  0999 V2000
   26.0660   43.1602   16.4072 P   0  0  1  0  0  0  0  0  0  0  0  0
   27.0182   43.1320   15.2307 O   0  0  0  0  0  0  0  0  0  0  0  0
   26.1254   44.5345   17.0179 O   0  5  0  0  0  0  0  0  0  0  0  0
   24.6631   42.8743   15.9469 O   0  0  0  0  0  0  0  0  0  0  0  0
   26.7126   40.7025   16.9755 C   0  0  0  0  0  0  0  0  0  0  0  0
   26.4630   42.0059   17.4427 O   0  0  0  0  0  0  0  0  0  0  0  0
   26.9858   39.7914   18.1632 C   0  0  1  0  0  0  0  0  0  0  0  0
   25.9495   39.9584   19.1074 O   0  0  0  0  0  0  0  0  0  0  0  0
   27.0626   38.3342   17.7076 C   0  0  1  0  0  0  0  0  0  0  0  0
   28.2994   38.1020   17.0682 O   0  0  0  0  0  0  0  0  0  0  0  0
   26.8212   37.3205   18.8348 C   0  0  1  0  0  0  0  0  0  0  0  0
   26.3971   36.0902   18.2913 O   0  0  0  0  0  0  0  0  0  0  0  0
   28.0591   37.0888   19.6866 C   0  0  0  0  0  0  0  0  0  0  0  0
   28.1995   34.3440   19.0311 N   0  0  0  0  0  0  0  0  0  0  0  0
   28.3315   33.0175   18.6741 C   0  0  0  0  0  0  0  0  0  0  0  0
   28.5781   32.7124   17.5039 O   0  0  0  0  0  0  0  0  0  0  0  0
   28.1764   32.0350   19.6311 N   0  0  0  0  0  0  0  0  0  0  0  0
   27.8908   32.3740   20.9403 C   0  0  0  0  0  0  0  0  0  0  0  0
   27.7600   33.6987   21.3014 C   0  0  1  0  0  0  0  0  0  0  0  0
   27.7591   31.5091   21.8047 O   0  0  0  0  0  0  0  0  0  0  0  0
   27.3514   35.3435   22.9814 C   0  0  2  0  0  0  0  0  0  0  0  0
   27.4791   34.0192   22.6154 N   0  0  0  0  0  0  0  0  0  0  0  0
   27.0662   35.6690   24.3053 C   0  0  0  0  0  0  0  0  0  0  0  0
   26.9280   37.0009   24.6831 C   0  0  1  0  0  0  0  0  0  0  0  0
   26.6305   37.3353   26.1188 C   0  0  0  0  0  0  0  0  0  0  0  0
   27.0806   38.0113   23.7269 C   0  0  1  0  0  0  0  0  0  0  0  0
   26.9524   39.4578   24.1064 C   0  0  0  0  0  0  0  0  0  0  0  0
   27.3662   37.6819   22.4052 C   0  0  0  0  0  0  0  0  0  0  0  0
   27.5024   36.3496   22.0224 C   0  0  2  0  0  0  0  0  0  0  0  0
   27.9171   34.6923   20.3419 C   0  0  2  0  0  0  0  0  0  0  0  0
   27.7780   36.0193   20.7009 N   0  0  0  0  0  0  0  0  0  0  0  0
  1  2  1  6  0  0  0
  1  3  1  0  0  0  0
  1  4  2  0  0  0  0
  1  6  1  0  0  0  0
  5  6  1  0  0  0  0
  7  5  1  6  0  0  0
  7  8  1  0  0  0  0
  7  9  1  0  0  0  0
  9 10  1  1  0  0  0
  9 11  1  0  0  0  0
 11 12  1  6  0  0  0
 11 13  1  0  0  0  0
 13 31  1  0  0  0  0
 14 15  1  0  0  0  0
 15 16  2  0  0  0  0
 15 17  1  0  0  0  0
 17 18  1  0  0  0  0
 18 20  2  0  0  0  0
 19 18  1  1  0  0  0
 19 22  1  0  0  0  0
 19 30  1  0  0  0  0
 21 23  1  6  0  0  0
 21 29  1  0  0  0  0
 21 22  1  0  0  0  0
 23 24  1  0  0  0  0
 24 25  1  1  0  0  0
 24 26  1  0  0  0  0
 26 27  1  1  0  0  0
 26 28  1  0  0  0  0
 29 28  1  6  0  0  0
 29 31  1  0  0  0  0
 30 14  1  6  0  0  0
 30 31  1  0  0  0  0
M  CHG  1   3  -1
M  END
>  <CHROM.1>
-176.71615890,-47.49410217,50.75298796,75.95484258,157.34091341,-175.98466938
-101.68311272,27.13215736,37.61169544,19.73645864,2.33582452,1.35474152,-1.29219662

>  <Name>
ligand

>  <RI>
0

>  <Rbt.Current_Directory>
/home/itssahil/PROJECTS/Mol_Feturizer/New_Systems/rnas/3F2Q

>  <Rbt.Executable>
rbdock ($Id: //depot/dev/client3/rdock/2013.1/src/exe/rbdock.cxx#4 $)

>  <Rbt.Library>
libRbt.so (2013.1, Build901 2013/11/27)

>  <Rbt.Parameter_File>
/export/apps/rDock/src/rDock_2013.1_src/data/scripts/dock_solv.prm

>  <Rbt.Receptor>
prm/pocket_docking_3.prm

>  <SCORE>
-35.8025

>  <SCORE.INTER>
-31.6962

>  <SCORE.INTER.CONST>
1

>  <SCORE.INTER.POLAR>
0

>  <SCORE.INTER.ROT>
7

>  <SCORE.INTER.SOLV>
19.7398

>  <SCORE.INTER.VDW>
-35.9774

>  <SCORE.INTER.norm>
-1.02246

>  <SCORE.INTRA>
-4.11724

>  <SCORE.INTRA.DIHEDRAL>
-5.33339

>  <SCORE.INTRA.DIHEDRAL.0>
10.0718

>  <SCORE.INTRA.POLAR>
0

>  <SCORE.INTRA.POLAR.0>
0

>  <SCORE.INTRA.REPUL>
0

>  <SCORE.INTRA.REPUL.0>
0

>  <SCORE.INTRA.SOLV>
-1.33104

>  <SCORE.INTRA.SOLV.lig_0>
-48.6963

>  <SCORE.INTRA.VDW>
-0.785026

>  <SCORE.INTRA.VDW.0>
-0.836976

>  <SCORE.INTRA.norm>
-0.132814

>  <SCORE.RESTR>
0.0109564

>  <SCORE.RESTR.CAVITY>
0.0109564

>  <SCORE.RESTR.norm>
0.000353434

>  <SCORE.SYSTEM>
0

>  <SCORE.SYSTEM.CONST>
0

>  <SCORE.SYSTEM.DIHEDRAL>
0

>  <SCORE.SYSTEM.SOLV>
0

>  <SCORE.SYSTEM.norm>
0

>  <SCORE.heavy>
31

>  <SCORE.norm>
-1.15492

>  <RMSD>
1.008

$$$$
ligand
 OpenBabel11021811473D
libRbt.so/2013.1/901 2013/11/27
 31 33  0  0  0  0  0  0  0  0999 V2000
   26.0886   43.2423   16.3996 P   0  0  1  0  0  0  0  0  0  0  0  0
   27.0971   43.2524   15.2707 O   0  0  0  0  0  0  0  0  0  0  0  0
   26.0757   44.6130   17.0211 O   0  5  0  0  0  0  0  0  0  0  0  0
   24.7191   42.9172   15.8697 O   0  0  0  0  0  0  0  0  0  0  0  0
   26.6877   40.7785   16.9930 C   0  0  0  0  0  0  0  0  0  0  0  0
   26.4704   42.0926   17.4460 O   0  0  0  0  0  0  0  0  0  0  0  0
   26.8845   39.8640   18.1932 C   0  0  1  0  0  0  0  0  0  0  0  0
   25.8297   40.0839   19.1055 O   0  0  0  0  0  0  0  0  0  0  0  0
   26.9088   38.4019   17.7480 C   0  0  1  0  0  0  0  0  0  0  0  0
   28.1059   38.1392   17.0477 O   0  0  0  0  0  0  0  0  0  0  0  0
   26.7062   37.4028   18.8957 C   0  0  1  0  0  0  0  0  0  0  0  0
   26.3179   36.1496   18.3784 O   0  0  0  0  0  0  0  0  0  0  0  0
   27.9558   37.2265   19.7436 C   0  0  0  0  0  0  0  0  0  0  0  0
   28.0687   34.4603   19.1788 N   0  0  0  0  0  0  0  0  0  0  0  0
   28.1861   33.1219   18.8638 C   0  0  0  0  0  0  0  0  0  0  0  0
   28.3959   32.7759   17.6978 O   0  0  0  0  0  0  0  0  0  0  0  0
   28.0578   32.1733   19.8582 N   0  0  0  0  0  0  0  0  0  0  0  0
   27.8133   32.5580   21.1631 C   0  0  0  0  0  0  0  0  0  0  0  0
   27.6972   33.8948   21.4823 C   0  0  1  0  0  0  0  0  0  0  0  0
   27.7058   31.7237   22.0603 O   0  0  0  0  0  0  0  0  0  0  0  0
   27.3447   35.5976   23.1166 C   0  0  2  0  0  0  0  0  0  0  0  0
   27.4575   34.2611   22.7925 N   0  0  0  0  0  0  0  0  0  0  0  0
   27.1010   35.9694   24.4365 C   0  0  0  0  0  0  0  0  0  0  0  0
   26.9781   37.3140   24.7724 C   0  0  1  0  0  0  0  0  0  0  0  0
   26.7256   37.6985   26.2042 C   0  0  0  0  0  0  0  0  0  0  0  0
   27.1040   38.2905   23.7778 C   0  0  1  0  0  0  0  0  0  0  0  0
   26.9914   39.7495   24.1112 C   0  0  0  0  0  0  0  0  0  0  0  0
   27.3482   37.9149   22.4602 C   0  0  0  0  0  0  0  0  0  0  0  0
   27.4689   36.5698   22.1194 C   0  0  2  0  0  0  0  0  0  0  0  0
   27.8275   34.8544   20.4849 C   0  0  2  0  0  0  0  0  0  0  0  0
   27.7031   36.1934   20.8022 N   0  0  0  0  0  0  0  0  0  0  0  0
  1  2  1  6  0  0  0
  1  3  1  0  0  0  0
  1  4  2  0  0  0  0
  1  6  1  0  0  0  0
  5  6  1  0  0  0  0
  7  5  1  6  0  0  0
  7  8  1  0  0  0  0
  7  9  1  0  0  0  0
  9 10  1  1  0  0  0
  9 11  1  0  0  0  0
 11 12  1  6  0  0  0
 11 13  1  0  0  0  0
 13 31  1  0  0  0  0
 14 15  1  0  0  0  0
 15 16  2  0  0  0  0
 15 17  1  0  0  0  0
 17 18  1  0  0  0  0
 18 20  2  0  0  0  0
 19 18  1  1  0  0  0
 19 22  1  0  0  0  0
 19 30  1  0  0  0  0
 21 23  1  6  0  0  0
 21 29  1  0  0  0  0
 21 22  1  0  0  0  0
 23 24  1  0  0  0  0
 24 25  1  1  0  0  0
 24 26  1  0  0  0  0
 26 27  1  1  0  0  0
 26 28  1  0  0  0  0
 29 28  1  6  0  0  0
 29 31  1  0  0  0  0
 30 14  1  6  0  0  0
 30 31  1  0  0  0  0
M  CHG  1   3  -1
M  END
>  <CHROM.1>
-173.96652460,-52.10205286,50.17731397,71.08121314,161.32735997,-177.42945245
-103.39678927,27.08483643,37.76319526,19.81746903,2.41985065,1.37777077,-1.39802325

>  <Name>
ligand

>  <RI>
0

>  <Rbt.Current_Directory>
/home/itssahil/PROJECTS/Mol_Feturizer/New_Systems/rnas/3F2Q

>  <Rbt.Executable>
rbdock ($Id: //depot/dev/client3/rdock/2013.1/src/exe/rbdock.cxx#4 $)

>  <Rbt.Library>
libRbt.so (2013.1, Build901 2013/11/27)

>  <Rbt.Parameter_File>
/export/apps/rDock/src/rDock_2013.1_src/data/scripts/dock_solv.prm

>  <Rbt.Receptor>
prm/pocket_docking_3.prm

>  <SCORE>
-36.2595

>  <SCORE.INTER>
-31.7859

>  <SCORE.INTER.CONST>
1

>  <SCORE.INTER.POLAR>
0

>  <SCORE.INTER.ROT>
7

>  <SCORE.INTER.SOLV>
19.7678

>  <SCORE.INTER.VDW>
-36.0465

>  <SCORE.INTER.norm>
-1.02535

>  <SCORE.INTRA>
-4.51339

>  <SCORE.INTRA.DIHEDRAL>
-6.28486

>  <SCORE.INTRA.DIHEDRAL.0>
10.0718

>  <SCORE.INTRA.POLAR>
0

>  <SCORE.INTRA.POLAR.0>
0

>  <SCORE.INTRA.REPUL>
0

>  <SCORE.INTRA.REPUL.0>
0

>  <SCORE.INTRA.SOLV>
-1.25223

>  <SCORE.INTRA.SOLV.lig_0>
-48.6963

>  <SCORE.INTRA.VDW>
-0.744849

>  <SCORE.INTRA.VDW.0>
-0.836976

>  <SCORE.INTRA.norm>
-0.145593

>  <SCORE.RESTR>
0.0397284

>  <SCORE.RESTR.CAVITY>
0.0397284

>  <SCORE.RESTR.norm>
0.00128156

>  <SCORE.SYSTEM>
0

>  <SCORE.SYSTEM.CONST>
0

>  <SCORE.SYSTEM.DIHEDRAL>
0

>  <SCORE.SYSTEM.SOLV>
0

>  <SCORE.SYSTEM.norm>
0

>  <SCORE.heavy>
31

>  <SCORE.norm>
-1.16966

>  <RMSD>
1.026

$$$$
ligand
 OpenBabel11021811473D
libRbt.so/2013.1/901 2013/11/27
 31 33  0  0  0  0  0  0  0  0999 V2000
   26.8596   42.4209   16.9353 P   0  0  1  0  0  0  0  0  0  0  0  0
   25.7894   41.6469   17.6749 O   0  0  0  0  0  0  0  0  0  0  0  0
   26.5564   42.3392   15.4634 O   0  5  0  0  0  0  0  0  0  0  0  0
   26.8543   43.8604   17.3710 O   0  0  0  0  0  0  0  0  0  0  0  0
   28.6110   40.4941   16.9749 C   0  0  0  0  0  0  0  0  0  0  0  0
   28.2993   41.8259   17.3040 O   0  0  0  0  0  0  0  0  0  0  0  0
   28.3892   39.6142   18.1964 C   0  0  1  0  0  0  0  0  0  0  0  0
   27.5286   40.2899   19.0887 O   0  0  0  0  0  0  0  0  0  0  0  0
   27.7822   38.2739   17.7819 C   0  0  1  0  0  0  0  0  0  0  0  0
   28.6957   37.5715   16.9666 O   0  0  0  0  0  0  0  0  0  0  0  0
   27.3182   37.4130   18.9651 C   0  0  1  0  0  0  0  0  0  0  0  0
   26.6160   36.2852   18.4920 O   0  0  0  0  0  0  0  0  0  0  0  0
   28.4732   36.9505   19.8389 C   0  0  0  0  0  0  0  0  0  0  0  0
   28.4798   34.1881   19.2454 N   0  0  0  0  0  0  0  0  0  0  0  0
   28.5515   32.8472   18.9270 C   0  0  0  0  0  0  0  0  0  0  0  0
   28.9209   32.4962   17.8030 O   0  0  0  0  0  0  0  0  0  0  0  0
   28.1984   31.9026   19.8695 N   0  0  0  0  0  0  0  0  0  0  0  0
   27.7752   32.2936   21.1259 C   0  0  0  0  0  0  0  0  0  0  0  0
   27.7041   33.6328   21.4485 C   0  0  1  0  0  0  0  0  0  0  0  0
   27.4664   31.4623   21.9779 O   0  0  0  0  0  0  0  0  0  0  0  0
   27.2147   35.3437   23.0385 C   0  0  2  0  0  0  0  0  0  0  0  0
   27.2835   34.0051   22.7105 N   0  0  0  0  0  0  0  0  0  0  0  0
   26.7890   35.7217   24.3097 C   0  0  0  0  0  0  0  0  0  0  0  0
   26.7089   37.0689   24.6478 C   0  0  1  0  0  0  0  0  0  0  0  0
   26.2576   37.4593   26.0282 C   0  0  0  0  0  0  0  0  0  0  0  0
   27.0617   38.0415   23.7054 C   0  0  1  0  0  0  0  0  0  0  0  0
   27.0003   39.5022   24.0450 C   0  0  0  0  0  0  0  0  0  0  0  0
   27.4872   37.6597   22.4365 C   0  0  0  0  0  0  0  0  0  0  0  0
   27.5658   36.3121   22.0932 C   0  0  2  0  0  0  0  0  0  0  0  0
   28.0603   34.5882   20.5036 C   0  0  2  0  0  0  0  0  0  0  0  0
   27.9814   35.9302   20.8232 N   0  0  0  0  0  0  0  0  0  0  0  0
  1  2  1  1  0  0  0
  1  3  1  0  0  0  0
  1  4  2  0  0  0  0
  1  6  1  0  0  0  0
  5  6  1  0  0  0  0
  7  5  1  6  0  0  0
  7  8  1  0  0  0  0
  7  9  1  0  0  0  0
  9 10  1  1  0  0  0
  9 11  1  0  0  0  0
 11 12  1  6  0  0  0
 11 13  1  0  0  0  0
 13 31  1  0  0  0  0
 14 15  1  0  0  0  0
 15 16  2  0  0  0  0
 15 17  1  0  0  0  0
 17 18  1  0  0  0  0
 18 20  2  0  0  0  0
 19 18  1  1  0  0  0
 19 22  1  0  0  0  0
 19 30  1  0  0  0  0
 21 23  1  6  0  0  0
 21 29  1  0  0  0  0
 21 22  1  0  0  0  0
 23 24  1  0  0  0  0
 24 25  1  1  0  0  0
 24 26  1  0  0  0  0
 26 27  1  1  0  0  0
 26 28  1  0  0  0  0
 29 28  1  6  0  0  0
 29 31  1  0  0  0  0
 30 14  1  6  0  0  0
 30 31  1  0  0  0  0
M  CHG  1   3  -1
M  END
>  <CHROM.1>
-97.42242668,62.40368841,20.16803319,64.02561173,172.24719212,-170.22438394
-93.07921759,27.52222294,37.41803361,19.92068569,1.79184203,1.34029107,-0.74238530

>  <Name>
ligand

>  <RI>
0

>  <Rbt.Current_Directory>
/home/itssahil/PROJECTS/Mol_Feturizer/New_Systems/rnas/3F2Q

>  <Rbt.Executable>
rbdock ($Id: //depot/dev/client3/rdock/2013.1/src/exe/rbdock.cxx#4 $)

>  <Rbt.Library>
libRbt.so (2013.1, Build901 2013/11/27)

>  <Rbt.Parameter_File>
/export/apps/rDock/src/rDock_2013.1_src/data/scripts/dock_solv.prm

>  <Rbt.Receptor>
prm/pocket_docking_4.prm

>  <SCORE>
-31.9483

>  <SCORE.INTER>
-31.4716

>  <SCORE.INTER.CONST>
1

>  <SCORE.INTER.POLAR>
0

>  <SCORE.INTER.ROT>
7

>  <SCORE.INTER.SOLV>
19.7617

>  <SCORE.INTER.VDW>
-35.835

>  <SCORE.INTER.norm>
-1.01521

>  <SCORE.INTRA>
-0.476669

>  <SCORE.INTRA.DIHEDRAL>
0.993834

>  <SCORE.INTRA.DIHEDRAL.0>
10.0718

>  <SCORE.INTRA.POLAR>
0

>  <SCORE.INTRA.POLAR.0>
0

>  <SCORE.INTRA.REPUL>
0

>  <SCORE.INTRA.REPUL.0>
0

>  <SCORE.INTRA.SOLV>
0.0495514

>  <SCORE.INTRA.SOLV.lig_0>
-48.6963

>  <SCORE.INTRA.VDW>
-0.998362

>  <SCORE.INTRA.VDW.0>
-0.836976

>  <SCORE.INTRA.norm>
-0.0153764

>  <SCORE.RESTR>
0

>  <SCORE.RESTR.CAVITY>
0

>  <SCORE.RESTR.norm>
0

>  <SCORE.SYSTEM>
0

>  <SCORE.SYSTEM.CONST>
0

>  <SCORE.SYSTEM.DIHEDRAL>
0

>  <SCORE.SYSTEM.SOLV>
0

>  <SCORE.SYSTEM.norm>
0

>  <SCORE.heavy>
31

>  <SCORE.norm>
-1.03059

>  <RMSD>
1.027

$$$$
ligand
 OpenBabel11021811473D
libRbt.so/2013.1/901 2013/11/27
 31 33  0  0  0  0  0  0  0  0999 V2000
   26.1713   43.0369   16.5824 P   0  0  1  0  0  0  0  0  0  0  0  0
   26.6764   43.0241   15.1555 O   0  0  0  0  0  0  0  0  0  0  0  0
   26.4239   44.4075   17.1506 O   0  5  0  0  0  0  0  0  0  0  0  0
   24.6967   42.7429   16.6142 O   0  0  0  0  0  0  0  0  0  0  0  0
   26.8471   40.5499   16.9564 C   0  0  0  0  0  0  0  0  0  0  0  0
   26.8972   41.8788   17.4158 O   0  0  0  0  0  0  0  0  0  0  0  0
   27.3625   39.6252   18.0495 C   0  0  1  0  0  0  0  0  0  0  0  0
   26.6212   39.8623   19.2274 O   0  0  0  0  0  0  0  0  0  0  0  0
   27.2256   38.1653   17.6178 C   0  0  1  0  0  0  0  0  0  0  0  0
   28.3753   37.7737   16.8984 O   0  0  0  0  0  0  0  0  0  0  0  0
   26.9418   37.2014   18.7783 C   0  0  1  0  0  0  0  0  0  0  0  0
   26.4652   35.9727   18.2763 O   0  0  0  0  0  0  0  0  0  0  0  0
   28.1691   36.9460   19.6385 C   0  0  0  0  0  0  0  0  0  0  0  0
   28.3014   34.1906   19.0271 N   0  0  0  0  0  0  0  0  0  0  0  0
   28.4304   32.8579   18.6928 C   0  0  0  0  0  0  0  0  0  0  0  0
   28.7015   32.5334   17.5334 O   0  0  0  0  0  0  0  0  0  0  0  0
   28.2447   31.8911   19.6603 N   0  0  0  0  0  0  0  0  0  0  0  0
   27.9316   32.2519   20.9574 C   0  0  0  0  0  0  0  0  0  0  0  0
   27.8037   33.5829   21.2957 C   0  0  1  0  0  0  0  0  0  0  0  0
   27.7725   31.4011   21.8310 O   0  0  0  0  0  0  0  0  0  0  0  0
   27.3701   35.2558   22.9413 C   0  0  2  0  0  0  0  0  0  0  0  0
   27.4950   33.9253   22.5979 N   0  0  0  0  0  0  0  0  0  0  0  0
   27.0569   35.6034   24.2532 C   0  0  0  0  0  0  0  0  0  0  0  0
   26.9213   36.9419   24.6080 C   0  0  1  0  0  0  0  0  0  0  0  0
   26.5934   37.3001   26.0313 C   0  0  0  0  0  0  0  0  0  0  0  0
   27.1047   37.9367   23.6408 C   0  0  1  0  0  0  0  0  0  0  0  0
   26.9800   39.3896   23.9959 C   0  0  0  0  0  0  0  0  0  0  0  0
   27.4182   37.5852   22.3312 C   0  0  0  0  0  0  0  0  0  0  0  0
   27.5519   36.2463   21.9714 C   0  0  2  0  0  0  0  0  0  0  0  0
   27.9915   34.5608   20.3256 C   0  0  2  0  0  0  0  0  0  0  0  0
   27.8554   35.8941   20.6617 N   0  0  0  0  0  0  0  0  0  0  0  0
  1  2  1  6  0  0  0
  1  3  1  0  0  0  0
  1  4  2  0  0  0  0
  1  6  1  0  0  0  0
  5  6  1  0  0  0  0
  7  5  1  6  0  0  0
  7  8  1  0  0  0  0
  7  9  1  0  0  0  0
  9 10  1  1  0  0  0
  9 11  1  0  0  0  0
 11 12  1  6  0  0  0
 11 13  1  0  0  0  0
 13 31  1  0  0  0  0
 14 15  1  0  0  0  0
 15 16  2  0  0  0  0
 15 17  1  0  0  0  0
 17 18  1  0  0  0  0
 18 20  2  0  0  0  0
 19 18  1  1  0  0  0
 19 22  1  0  0  0  0
 19 30  1  0  0  0  0
 21 23  1  6  0  0  0
 21 29  1  0  0  0  0
 21 22  1  0  0  0  0
 23 24  1  0  0  0  0
 24 25  1  1  0  0  0
 24 26  1  0  0  0  0
 26 27  1  1  0  0  0
 26 28  1  0  0  0  0
 29 28  1  6  0  0  0
 29 31  1  0  0  0  0
 30 14  1  6  0  0  0
 30 31  1  0  0  0  0
M  CHG  1   3  -1
M  END
>  <CHROM.1>
-168.86348639,-54.96619935,54.74054203,87.51593594,163.64841988,-174.28060903
-100.19177555,27.23367364,37.48672273,19.74610719,2.28364663,1.35355102,-1.21537611

>  <Name>
ligand

>  <RI>
0

>  <Rbt.Current_Directory>
/home/itssahil/PROJECTS/Mol_Feturizer/New_Systems/rnas/3F2Q

>  <Rbt.Executable>
rbdock ($Id: //depot/dev/client3/rdock/2013.1/src/exe/rbdock.cxx#4 $)

>  <Rbt.Library>
libRbt.so (2013.1, Build901 2013/11/27)

>  <Rbt.Parameter_File>
/export/apps/rDock/src/rDock_2013.1_src/data/scripts/dock_solv.prm

>  <Rbt.Receptor>
prm/pocket_docking_3.prm

>  <SCORE>
-35.4157

>  <SCORE.INTER>
-31.6326

>  <SCORE.INTER.CONST>
1

>  <SCORE.INTER.POLAR>
0

>  <SCORE.INTER.ROT>
7

>  <SCORE.INTER.SOLV>
19.312

>  <SCORE.INTER.VDW>
-35.7924

>  <SCORE.INTER.norm>
-1.02041

>  <SCORE.INTRA>
-3.78306

>  <SCORE.INTRA.DIHEDRAL>
-4.4602

>  <SCORE.INTRA.DIHEDRAL.0>
10.0718

>  <SCORE.INTRA.POLAR>
0

>  <SCORE.INTRA.POLAR.0>
0

>  <SCORE.INTRA.REPUL>
0

>  <SCORE.INTRA.REPUL.0>
0

>  <SCORE.INTRA.SOLV>
-1.1654

>  <SCORE.INTRA.SOLV.lig_0>
-48.6963

>  <SCORE.INTRA.VDW>
-0.970259

>  <SCORE.INTRA.VDW.0>
-0.836976

>  <SCORE.INTRA.norm>
-0.122034

>  <SCORE.RESTR>
0

>  <SCORE.RESTR.CAVITY>
0

>  <SCORE.RESTR.norm>
0

>  <SCORE.SYSTEM>
0

>  <SCORE.SYSTEM.CONST>
0

>  <SCORE.SYSTEM.DIHEDRAL>
0

>  <SCORE.SYSTEM.SOLV>
0

>  <SCORE.SYSTEM.norm>
0

>  <SCORE.heavy>
31

>  <SCORE.norm>
-1.14244

>  <RMSD>
1.028

$$$$
ligand
 OpenBabel11021811473D
libRbt.so/2013.1/901 2013/11/27
 31 33  0  0  0  0  0  0  0  0999 V2000
   26.0136   43.4317   16.5185 P   0  0  1  0  0  0  0  0  0  0  0  0
   26.1760   44.7935   17.1593 O   0  0  0  0  0  0  0  0  0  0  0  0
   24.5722   43.2798   16.1131 O   0  5  0  0  0  0  0  0  0  0  0  0
   26.8925   43.3215   15.3031 O   0  0  0  0  0  0  0  0  0  0  0  0
   26.5564   40.9579   17.1246 C   0  0  0  0  0  0  0  0  0  0  0  0
   26.4900   42.2990   17.5445 O   0  0  0  0  0  0  0  0  0  0  0  0
   26.8379   40.0721   18.3293 C   0  0  1  0  0  0  0  0  0  0  0  0
   25.8596   40.3269   19.3149 O   0  0  0  0  0  0  0  0  0  0  0  0
   26.8137   38.5989   17.9220 C   0  0  1  0  0  0  0  0  0  0  0  0
   27.9897   38.2852   17.2072 O   0  0  0  0  0  0  0  0  0  0  0  0
   26.6056   37.6355   19.0988 C   0  0  1  0  0  0  0  0  0  0  0  0
   26.0347   36.4310   18.6380 O   0  0  0  0  0  0  0  0  0  0  0  0
   27.8992   37.3245   19.8345 C   0  0  0  0  0  0  0  0  0  0  0  0
   28.0443   34.5691   19.2261 N   0  0  0  0  0  0  0  0  0  0  0  0
   28.1777   33.2371   18.8905 C   0  0  0  0  0  0  0  0  0  0  0  0
   28.4025   32.9123   17.7213 O   0  0  0  0  0  0  0  0  0  0  0  0
   28.0485   32.2713   19.8681 N   0  0  0  0  0  0  0  0  0  0  0  0
   27.7872   32.6323   21.1765 C   0  0  0  0  0  0  0  0  0  0  0  0
   27.6551   33.9626   21.5161 C   0  0  1  0  0  0  0  0  0  0  0  0
   27.6787   31.7824   22.0588 O   0  0  0  0  0  0  0  0  0  0  0  0
   27.2699   35.6351   23.1742 C   0  0  2  0  0  0  0  0  0  0  0  0
   27.3987   34.3051   22.8296 N   0  0  0  0  0  0  0  0  0  0  0  0
   27.0094   35.9829   24.4974 C   0  0  0  0  0  0  0  0  0  0  0  0
   26.8702   37.3205   24.8539 C   0  0  1  0  0  0  0  0  0  0  0  0
   26.5997   37.6792   26.2890 C   0  0  0  0  0  0  0  0  0  0  0  0
   26.9967   38.3143   23.8766 C   0  0  1  0  0  0  0  0  0  0  0  0
   26.8668   39.7666   24.2325 C   0  0  0  0  0  0  0  0  0  0  0  0
   27.2577   37.9627   22.5556 C   0  0  0  0  0  0  0  0  0  0  0  0
   27.3948   36.6245   22.1942 C   0  0  2  0  0  0  0  0  0  0  0  0
   27.7862   34.9395   20.5358 C   0  0  2  0  0  0  0  0  0  0  0  0
   27.6458   36.2719   20.8736 N   0  0  0  0  0  0  0  0  0  0  0  0
  1  2  1  1  0  0  0
  1  3  1  0  0  0  0
  1  4  2  0  0  0  0
  1  6  1  0  0  0  0
  5  6  1  0  0  0  0
  7  5  1  6  0  0  0
  7  8  1  0  0  0  0
  7  9  1  0  0  0  0
  9 10  1  1  0  0  0
  9 11  1  0  0  0  0
 11 12  1  6  0  0  0
 11 13  1  0  0  0  0
 13 31  1  0  0  0  0
 14 15  1  0  0  0  0
 15 16  2  0  0  0  0
 15 17  1  0  0  0  0
 17 18  1  0  0  0  0
 18 20  2  0  0  0  0
 19 18  1  1  0  0  0
 19 22  1  0  0  0  0
 19 30  1  0  0  0  0
 21 23  1  6  0  0  0
 21 29  1  0  0  0  0
 21 22  1  0  0  0  0
 23 24  1  0  0  0  0
 24 25  1  1  0  0  0
 24 26  1  0  0  0  0
 26 27  1  1  0  0  0
 26 28  1  0  0  0  0
 29 28  1  6  0  0  0
 29 31  1  0  0  0  0
 30 14  1  6  0  0  0
 30 31  1  0  0  0  0
M  CHG  1   3  -1
M  END
>  <CHROM.1>
-171.90873204,-173.72707937,54.67670635,74.63179648,154.90863036,-174.07553985
-95.90227222,27.01367072,37.88791494,19.91704628,-2.38077427,-1.36888298
1.79863900

>  <Name>
ligand

>  <RI>
0

>  <Rbt.Current_Directory>
/home/itssahil/PROJECTS/Mol_Feturizer/New_Systems/rnas/3F2Q

>  <Rbt.Executable>
rbdock ($Id: //depot/dev/client3/rdock/2013.1/src/exe/rbdock.cxx#4 $)

>  <Rbt.Library>
libRbt.so (2013.1, Build901 2013/11/27)

>  <Rbt.Parameter_File>
/export/apps/rDock/src/rDock_2013.1_src/data/scripts/dock_solv.prm

>  <Rbt.Receptor>
prm/pocket_docking_2.prm

>  <SCORE>
-34.8357

>  <SCORE.INTER>
-30.816

>  <SCORE.INTER.CONST>
1

>  <SCORE.INTER.POLAR>
0

>  <SCORE.INTER.ROT>
7

>  <SCORE.INTER.SOLV>
19.8769

>  <SCORE.INTER.VDW>
-35.4363

>  <SCORE.INTER.norm>
-0.994063

>  <SCORE.INTRA>
-4.05272

>  <SCORE.INTRA.DIHEDRAL>
-5.17708

>  <SCORE.INTRA.DIHEDRAL.0>
10.0718

>  <SCORE.INTRA.POLAR>
0

>  <SCORE.INTRA.POLAR.0>
0

>  <SCORE.INTRA.REPUL>
0

>  <SCORE.INTRA.REPUL.0>
0

>  <SCORE.INTRA.SOLV>
-0.835311

>  <SCORE.INTRA.SOLV.lig_0>
-48.6963

>  <SCORE.INTRA.VDW>
-1.04652

>  <SCORE.INTRA.VDW.0>
-0.836976

>  <SCORE.INTRA.norm>
-0.130733

>  <SCORE.RESTR>
0.0330159

>  <SCORE.RESTR.CAVITY>
0.0330159

>  <SCORE.RESTR.norm>
0.00106503

>  <SCORE.SYSTEM>
0

>  <SCORE.SYSTEM.CONST>
0

>  <SCORE.SYSTEM.DIHEDRAL>
0

>  <SCORE.SYSTEM.SOLV>
0

>  <SCORE.SYSTEM.norm>
0

>  <SCORE.heavy>
31

>  <SCORE.norm>
-1.12373

>  <RMSD>
1.031

$$$$
ligand
 OpenBabel11021811473D
libRbt.so/2013.1/901 2013/11/27
 31 33  0  0  0  0  0  0  0  0999 V2000
   26.2345   42.6955   16.7612 P   0  0  1  0  0  0  0  0  0  0  0  0
   27.2595   43.7705   17.0535 O   0  0  0  0  0  0  0  0  0  0  0  0
   24.8924   43.1985   17.2205 O   0  5  0  0  0  0  0  0  0  0  0  0
   26.1871   42.4105   15.2853 O   0  0  0  0  0  0  0  0  0  0  0  0
   27.8551   40.6864   17.1059 C   0  0  0  0  0  0  0  0  0  0  0  0
   26.6663   41.3354   17.4866 O   0  0  0  0  0  0  0  0  0  0  0  0
   28.1368   39.5514   18.0795 C   0  0  1  0  0  0  0  0  0  0  0  0
   28.1222   40.0697   19.3928 O   0  0  0  0  0  0  0  0  0  0  0  0
   27.0873   38.4502   17.9290 C   0  0  1  0  0  0  0  0  0  0  0  0
   27.4305   37.6132   16.8454 O   0  0  0  0  0  0  0  0  0  0  0  0
   26.8584   37.6352   19.2095 C   0  0  1  0  0  0  0  0  0  0  0  0
   25.9668   36.5738   18.9499 O   0  0  0  0  0  0  0  0  0  0  0  0
   28.1495   37.0728   19.7822 C   0  0  0  0  0  0  0  0  0  0  0  0
   28.1831   34.3064   19.2082 N   0  0  0  0  0  0  0  0  0  0  0  0
   28.2633   32.9659   18.8905 C   0  0  0  0  0  0  0  0  0  0  0  0
   28.4956   32.6171   17.7297 O   0  0  0  0  0  0  0  0  0  0  0  0
   28.0726   32.0188   19.8763 N   0  0  0  0  0  0  0  0  0  0  0  0
   27.8028   32.4070   21.1752 C   0  0  0  0  0  0  0  0  0  0  0  0
   27.7238   33.7459   21.4970 C   0  0  1  0  0  0  0  0  0  0  0  0
   27.6398   31.5737   22.0649 O   0  0  0  0  0  0  0  0  0  0  0  0
   27.3821   35.4540   23.1280 C   0  0  2  0  0  0  0  0  0  0  0  0
   27.4580   34.1156   22.8012 N   0  0  0  0  0  0  0  0  0  0  0  0
   27.1122   35.8293   24.4418 C   0  0  0  0  0  0  0  0  0  0  0  0
   27.0261   37.1761   24.7802 C   0  0  1  0  0  0  0  0  0  0  0  0
   26.7446   37.5639   26.2056 C   0  0  0  0  0  0  0  0  0  0  0  0
   27.2154   38.1512   23.7943 C   0  0  1  0  0  0  0  0  0  0  0  0
   27.1437   39.6121   24.1310 C   0  0  0  0  0  0  0  0  0  0  0  0
   27.4855   37.7721   22.4828 C   0  0  0  0  0  0  0  0  0  0  0  0
   27.5696   36.4248   22.1394 C   0  0  2  0  0  0  0  0  0  0  0  0
   27.9169   34.7039   20.5083 C   0  0  2  0  0  0  0  0  0  0  0  0
   27.8297   36.0453   20.8280 N   0  0  0  0  0  0  0  0  0  0  0  0
  1  2  1  1  0  0  0
  1  3  1  0  0  0  0
  1  4  2  0  0  0  0
  1  6  1  0  0  0  0
  5  6  1  0  0  0  0
  7  5  1  6  0  0  0
  7  8  1  0  0  0  0
  7  9  1  0  0  0  0
  9 10  1  6  0  0  0
  9 11  1  0  0  0  0
 11 12  1  6  0  0  0
 11 13  1  0  0  0  0
 13 31  1  0  0  0  0
 14 15  1  0  0  0  0
 15 16  2  0  0  0  0
 15 17  1  0  0  0  0
 17 18  1  0  0  0  0
 18 20  2  0  0  0  0
 19 18  1  1  0  0  0
 19 22  1  0  0  0  0
 19 30  1  0  0  0  0
 21 23  1  6  0  0  0
 21 29  1  0  0  0  0
 21 22  1  0  0  0  0
 23 24  1  0  0  0  0
 24 25  1  1  0  0  0
 24 26  1  0  0  0  0
 26 27  1  1  0  0  0
 26 28  1  0  0  0  0
 29 28  1  6  0  0  0
 29 31  1  0  0  0  0
 30 14  1  6  0  0  0
 30 31  1  0  0  0  0
M  CHG  1   3  -1
M  END
>  <CHROM.1>
171.51246007,-64.04606928,-53.36317795,82.16318199,-174.90636123,-167.11737212
-84.65954717,27.28340858,37.55761562,19.94189850,2.35020930,1.40447556,-1.32042156

>  <Name>
ligand

>  <RI>
0

>  <Rbt.Current_Directory>
/home/itssahil/PROJECTS/Mol_Feturizer/New_Systems/rnas/3F2Q

>  <Rbt.Executable>
rbdock ($Id: //depot/dev/client3/rdock/2013.1/src/exe/rbdock.cxx#4 $)

>  <Rbt.Library>
libRbt.so (2013.1, Build901 2013/11/27)

>  <Rbt.Parameter_File>
/export/apps/rDock/src/rDock_2013.1_src/data/scripts/dock_solv.prm

>  <Rbt.Receptor>
prm/pocket_docking_2.prm

>  <SCORE>
-35.5947

>  <SCORE.INTER>
-31.3155

>  <SCORE.INTER.CONST>
1

>  <SCORE.INTER.POLAR>
0

>  <SCORE.INTER.ROT>
7

>  <SCORE.INTER.SOLV>
18.9654

>  <SCORE.INTER.VDW>
-35.4655

>  <SCORE.INTER.norm>
-1.01018

>  <SCORE.INTRA>
-4.27915

>  <SCORE.INTRA.DIHEDRAL>
-5.78699

>  <SCORE.INTRA.DIHEDRAL.0>
10.0718

>  <SCORE.INTRA.POLAR>
0

>  <SCORE.INTRA.POLAR.0>
0

>  <SCORE.INTRA.REPUL>
0

>  <SCORE.INTRA.REPUL.0>
0

>  <SCORE.INTRA.SOLV>
-1.09664

>  <SCORE.INTRA.SOLV.lig_0>
-48.6963

>  <SCORE.INTRA.VDW>
-0.837338

>  <SCORE.INTRA.VDW.0>
-0.836976

>  <SCORE.INTRA.norm>
-0.138037

>  <SCORE.RESTR>
0

>  <SCORE.RESTR.CAVITY>
0

>  <SCORE.RESTR.norm>
0

>  <SCORE.SYSTEM>
0

>  <SCORE.SYSTEM.CONST>
0

>  <SCORE.SYSTEM.DIHEDRAL>
0

>  <SCORE.SYSTEM.SOLV>
0

>  <SCORE.SYSTEM.norm>
0

>  <SCORE.heavy>
31

>  <SCORE.norm>
-1.14821

>  <RMSD>
1.032

$$$$
ligand
 OpenBabel11021811473D
libRbt.so/2013.1/901 2013/11/27
 31 33  0  0  0  0  0  0  0  0999 V2000
   26.0630   43.2029   16.5120 P   0  0  1  0  0  0  0  0  0  0  0  0
   26.1726   44.5488   17.1963 O   0  0  0  0  0  0  0  0  0  0  0  0
   24.6322   43.0166   16.0839 O   0  5  0  0  0  0  0  0  0  0  0  0
   26.9592   43.1593   15.3051 O   0  0  0  0  0  0  0  0  0  0  0  0
   26.7013   40.7347   17.0430 C   0  0  0  0  0  0  0  0  0  0  0  0
   26.5646   42.0552   17.5088 O   0  0  0  0  0  0  0  0  0  0  0  0
   26.9035   39.8057   18.2311 C   0  0  1  0  0  0  0  0  0  0  0  0
   25.8476   40.0078   19.1464 O   0  0  0  0  0  0  0  0  0  0  0  0
   26.9357   38.3497   17.7668 C   0  0  1  0  0  0  0  0  0  0  0  0
   28.1379   38.1006   17.0702 O   0  0  0  0  0  0  0  0  0  0  0  0
   26.7301   37.3348   18.9000 C   0  0  1  0  0  0  0  0  0  0  0  0
   26.3733   36.0808   18.3625 O   0  0  0  0  0  0  0  0  0  0  0  0
   27.9672   37.1710   19.7686 C   0  0  0  0  0  0  0  0  0  0  0  0
   28.0826   34.4049   19.2038 N   0  0  0  0  0  0  0  0  0  0  0  0
   28.2016   33.0665   18.8891 C   0  0  0  0  0  0  0  0  0  0  0  0
   28.4197   32.7209   17.7246 O   0  0  0  0  0  0  0  0  0  0  0  0
   28.0655   32.1178   19.8823 N   0  0  0  0  0  0  0  0  0  0  0  0
   27.8117   32.5021   21.1856 C   0  0  0  0  0  0  0  0  0  0  0  0
   27.6940   33.8389   21.5043 C   0  0  1  0  0  0  0  0  0  0  0  0
   27.6972   31.6676   22.0816 O   0  0  0  0  0  0  0  0  0  0  0  0
   27.3306   35.5415   23.1365 C   0  0  2  0  0  0  0  0  0  0  0  0
   27.4450   34.2050   22.8128 N   0  0  0  0  0  0  0  0  0  0  0  0
   27.0775   35.9129   24.4547 C   0  0  0  0  0  0  0  0  0  0  0  0
   26.9528   37.2574   24.7902 C   0  0  1  0  0  0  0  0  0  0  0  0
   26.6902   37.6416   26.2202 C   0  0  0  0  0  0  0  0  0  0  0  0
   27.0866   38.2342   23.7968 C   0  0  1  0  0  0  0  0  0  0  0  0
   26.9724   39.6932   24.1299 C   0  0  0  0  0  0  0  0  0  0  0  0
   27.3401   37.8589   22.4809 C   0  0  0  0  0  0  0  0  0  0  0  0
   27.4626   36.5138   22.1405 C   0  0  2  0  0  0  0  0  0  0  0  0
   27.8321   34.7987   20.5081 C   0  0  2  0  0  0  0  0  0  0  0  0
   27.7061   36.1377   20.8250 N   0  0  0  0  0  0  0  0  0  0  0  0
  1  2  1  1  0  0  0
  1  3  1  0  0  0  0
  1  4  2  0  0  0  0
  1  6  1  0  0  0  0
  5  6  1  0  0  0  0
  7  5  1  6  0  0  0
  7  8  1  0  0  0  0
  7  9  1  0  0  0  0
  9 10  1  1  0  0  0
  9 11  1  0  0  0  0
 11 12  1  6  0  0  0
 11 13  1  0  0  0  0
 13 31  1  0  0  0  0
 14 15  1  0  0  0  0
 15 16  2  0  0  0  0
 15 17  1  0  0  0  0
 17 18  1  0  0  0  0
 18 20  2  0  0  0  0
 19 18  1  1  0  0  0
 19 22  1  0  0  0  0
 19 30  1  0  0  0  0
 21 23  1  6  0  0  0
 21 29  1  0  0  0  0
 21 22  1  0  0  0  0
 23 24  1  0  0  0  0
 24 25  1  1  0  0  0
 24 26  1  0  0  0  0
 26 27  1  1  0  0  0
 26 28  1  0  0  0  0
 29 28  1  6  0  0  0
 29 31  1  0  0  0  0
 30 14  1  6  0  0  0
 30 31  1  0  0  0  0
M  CHG  1   3  -1
M  END
>  <CHROM.1>
-168.29633859,-172.68504600,54.00540799,71.44446384,162.39263988,-178.31649510
-104.15131632,27.08538943,37.71250735,19.85979817,2.40822786,1.37363647,-1.37389356

>  <Name>
ligand

>  <RI>
0

>  <Rbt.Current_Directory>
/home/itssahil/PROJECTS/Mol_Feturizer/New_Systems/rnas/3F2Q

>  <Rbt.Executable>
rbdock ($Id: //depot/dev/client3/rdock/2013.1/src/exe/rbdock.cxx#4 $)

>  <Rbt.Library>
libRbt.so (2013.1, Build901 2013/11/27)

>  <Rbt.Parameter_File>
/export/apps/rDock/src/rDock_2013.1_src/data/scripts/dock_solv.prm

>  <Rbt.Receptor>
prm/pocket_docking_4.prm

>  <SCORE>
-35.5764

>  <SCORE.INTER>
-31.4369

>  <SCORE.INTER.CONST>
1

>  <SCORE.INTER.POLAR>
0

>  <SCORE.INTER.ROT>
7

>  <SCORE.INTER.SOLV>
20.2162

>  <SCORE.INTER.VDW>
-35.9633

>  <SCORE.INTER.norm>
-1.01409

>  <SCORE.INTRA>
-4.13956

>  <SCORE.INTRA.DIHEDRAL>
-6.14594

>  <SCORE.INTRA.DIHEDRAL.0>
10.0718

>  <SCORE.INTRA.POLAR>
0

>  <SCORE.INTRA.POLAR.0>
0

>  <SCORE.INTRA.REPUL>
0

>  <SCORE.INTRA.REPUL.0>
0

>  <SCORE.INTRA.SOLV>
-0.691851

>  <SCORE.INTRA.SOLV.lig_0>
-48.6963

>  <SCORE.INTRA.VDW>
-0.720671

>  <SCORE.INTRA.VDW.0>
-0.836976

>  <SCORE.INTRA.norm>
-0.133534

>  <SCORE.RESTR>
0

>  <SCORE.RESTR.CAVITY>
0

>  <SCORE.RESTR.norm>
0

>  <SCORE.SYSTEM>
0

>  <SCORE.SYSTEM.CONST>
0

>  <SCORE.SYSTEM.DIHEDRAL>
0

>  <SCORE.SYSTEM.SOLV>
0

>  <SCORE.SYSTEM.norm>
0

>  <SCORE.heavy>
31

>  <SCORE.norm>
-1.14763

>  <RMSD>
1.036

$$$$
ligand
 OpenBabel11021811473D
libRbt.so/2013.1/901 2013/11/27
 31 33  0  0  0  0  0  0  0  0999 V2000
   26.2632   42.2396   17.1330 P   0  0  1  0  0  0  0  0  0  0  0  0
   24.8039   42.5569   16.8849 O   0  0  0  0  0  0  0  0  0  0  0  0
   26.8117   41.5849   15.8938 O   0  5  0  0  0  0  0  0  0  0  0  0
   27.0286   43.5030   17.4155 O   0  0  0  0  0  0  0  0  0  0  0  0
   27.6507   40.7966   18.7986 C   0  0  0  0  0  0  0  0  0  0  0  0
   26.3944   41.3129   18.4316 O   0  0  0  0  0  0  0  0  0  0  0  0
   27.4928   39.9436   20.0487 C   0  0  1  0  0  0  0  0  0  0  0  0
   26.7871   40.6896   21.0176 O   0  0  0  0  0  0  0  0  0  0  0  0
   26.7432   38.6527   19.7192 C   0  0  1  0  0  0  0  0  0  0  0  0
   25.5856   38.9548   18.9699 O   0  0  0  0  0  0  0  0  0  0  0  0
   27.6061   37.6010   19.0082 C   0  0  1  0  0  0  0  0  0  0  0  0
   28.1839   38.1582   17.8486 O   0  0  0  0  0  0  0  0  0  0  0  0
   28.7084   37.0509   19.8992 C   0  0  0  0  0  0  0  0  0  0  0  0
   28.5755   34.3094   19.2287 N   0  0  0  0  0  0  0  0  0  0  0  0
   28.5802   32.9755   18.8747 C   0  0  0  0  0  0  0  0  0  0  0  0
   28.9602   32.6340   17.7512 O   0  0  0  0  0  0  0  0  0  0  0  0
   28.1484   32.0279   19.7807 N   0  0  0  0  0  0  0  0  0  0  0  0
   27.7133   32.4090   21.0361 C   0  0  0  0  0  0  0  0  0  0  0  0
   27.7089   33.7410   21.3943 C   0  0  1  0  0  0  0  0  0  0  0  0
   27.3346   31.5742   21.8560 O   0  0  0  0  0  0  0  0  0  0  0  0
   27.2730   35.4341   23.0184 C   0  0  2  0  0  0  0  0  0  0  0  0
   27.2752   34.1031   22.6548 N   0  0  0  0  0  0  0  0  0  0  0  0
   26.8343   35.8019   24.2881 C   0  0  0  0  0  0  0  0  0  0  0  0
   26.8210   37.1420   24.6618 C   0  0  1  0  0  0  0  0  0  0  0  0
   26.3543   37.5208   26.0403 C   0  0  0  0  0  0  0  0  0  0  0  0
   27.2540   38.1176   23.7566 C   0  0  1  0  0  0  0  0  0  0  0  0
   27.2658   39.5699   24.1354 C   0  0  0  0  0  0  0  0  0  0  0  0
   27.6923   37.7460   22.4891 C   0  0  0  0  0  0  0  0  0  0  0  0
   27.7043   36.4057   22.1101 C   0  0  2  0  0  0  0  0  0  0  0  0
   28.1445   34.6992   20.4862 C   0  0  2  0  0  0  0  0  0  0  0  0
   28.1327   36.0345   20.8412 N   0  0  0  0  0  0  0  0  0  0  0  0
  1  2  1  6  0  0  0
  1  3  1  0  0  0  0
  1  4  2  0  0  0  0
  1  6  1  0  0  0  0
  5  6  1  0  0  0  0
  7  5  1  6  0  0  0
  7  8  1  0  0  0  0
  7  9  1  0  0  0  0
  9 10  1  6  0  0  0
  9 11  1  0  0  0  0
 11 12  1  6  0  0  0
 11 13  1  0  0  0  0
 13 31  1  0  0  0  0
 14 15  1  0  0  0  0
 15 16  2  0  0  0  0
 15 17  1  0  0  0  0
 17 18  1  0  0  0  0
 18 20  2  0  0  0  0
 19 18  1  1  0  0  0
 19 22  1  0  0  0  0
 19 30  1  0  0  0  0
 21 23  1  6  0  0  0
 21 29  1  0  0  0  0
 21 22  1  0  0  0  0
 23 24  1  0  0  0  0
 24 25  1  1  0  0  0
 24 26  1  0  0  0  0
 26 27  1  1  0  0  0
 26 28  1  0  0  0  0
 29 28  1  6  0  0  0
 29 31  1  0  0  0  0
 30 14  1  6  0  0  0
 30 31  1  0  0  0  0
M  CHG  1   3  -1
M  END
>  <CHROM.1>
-179.34600625,174.81864835,-50.80799540,-48.30242371,-54.93736539,78.67077377
-93.11865859,27.27751132,37.60217337,20.24049545,-2.29380374,-1.34706963
1.98194464

>  <Name>
ligand

>  <RI>
0

>  <Rbt.Current_Directory>
/home/itssahil/PROJECTS/Mol_Feturizer/New_Systems/rnas/3F2Q

>  <Rbt.Executable>
rbdock ($Id: //depot/dev/client3/rdock/2013.1/src/exe/rbdock.cxx#4 $)

>  <Rbt.Library>
libRbt.so (2013.1, Build901 2013/11/27)

>  <Rbt.Parameter_File>
/export/apps/rDock/src/rDock_2013.1_src/data/scripts/dock_solv.prm

>  <Rbt.Receptor>
prm/pocket_docking_3.prm

>  <SCORE>
-33.8128

>  <SCORE.INTER>
-29.5241

>  <SCORE.INTER.CONST>
1

>  <SCORE.INTER.POLAR>
0

>  <SCORE.INTER.ROT>
7

>  <SCORE.INTER.SOLV>
18.9118

>  <SCORE.INTER.VDW>
-34.2533

>  <SCORE.INTER.norm>
-0.952389

>  <SCORE.INTRA>
-4.31161

>  <SCORE.INTRA.DIHEDRAL>
-6.48565

>  <SCORE.INTRA.DIHEDRAL.0>
10.0718

>  <SCORE.INTRA.POLAR>
0

>  <SCORE.INTRA.POLAR.0>
0

>  <SCORE.INTRA.REPUL>
0

>  <SCORE.INTRA.REPUL.0>
0

>  <SCORE.INTRA.SOLV>
0.239314

>  <SCORE.INTRA.SOLV.lig_0>
-48.6963

>  <SCORE.INTRA.VDW>
-1.18845

>  <SCORE.INTRA.VDW.0>
-0.836976

>  <SCORE.INTRA.norm>
-0.139084

>  <SCORE.RESTR>
0.0228995

>  <SCORE.RESTR.CAVITY>
0.0228995

>  <SCORE.RESTR.norm>
0.000738693

>  <SCORE.SYSTEM>
0

>  <SCORE.SYSTEM.CONST>
0

>  <SCORE.SYSTEM.DIHEDRAL>
0

>  <SCORE.SYSTEM.SOLV>
0

>  <SCORE.SYSTEM.norm>
0

>  <SCORE.heavy>
31

>  <SCORE.norm>
-1.09073

>  <RMSD>
1.041

$$$$
ligand
 OpenBabel11021811473D
libRbt.so/2013.1/901 2013/11/27
 31 33  0  0  0  0  0  0  0  0999 V2000
   26.2477   42.5432   16.9136 P   0  0  1  0  0  0  0  0  0  0  0  0
   26.9189   43.8036   17.4163 O   0  0  0  0  0  0  0  0  0  0  0  0
   24.9176   42.4191   17.6068 O   0  5  0  0  0  0  0  0  0  0  0  0
   26.0348   42.6256   15.4271 O   0  0  0  0  0  0  0  0  0  0  0  0
   27.5506   40.9396   18.4987 C   0  0  0  0  0  0  0  0  0  0  0  0
   27.2035   41.2871   17.1804 O   0  0  0  0  0  0  0  0  0  0  0  0
   28.5405   39.7845   18.4653 C   0  0  1  0  0  0  0  0  0  0  0  0
   29.0466   39.5863   19.7684 O   0  0  0  0  0  0  0  0  0  0  0  0
   27.8569   38.5142   17.9596 C   0  0  1  0  0  0  0  0  0  0  0  0
   28.7010   37.8556   17.0397 O   0  0  0  0  0  0  0  0  0  0  0  0
   27.4090   37.5653   19.0800 C   0  0  1  0  0  0  0  0  0  0  0  0
   26.5167   36.6021   18.5653 O   0  0  0  0  0  0  0  0  0  0  0  0
   28.5772   36.8566   19.7467 C   0  0  0  0  0  0  0  0  0  0  0  0
   28.5095   34.0972   19.1430 N   0  0  0  0  0  0  0  0  0  0  0  0
   28.5451   32.7560   18.8197 C   0  0  0  0  0  0  0  0  0  0  0  0
   28.9047   32.3994   17.6942 O   0  0  0  0  0  0  0  0  0  0  0  0
   28.1671   31.8178   19.7588 N   0  0  0  0  0  0  0  0  0  0  0  0
   27.7549   32.2153   21.0168 C   0  0  0  0  0  0  0  0  0  0  0  0
   27.7198   33.5547   21.3444 C   0  0  1  0  0  0  0  0  0  0  0  0
   27.4241   31.3894   21.8658 O   0  0  0  0  0  0  0  0  0  0  0  0
   27.2769   35.2723   22.9408 C   0  0  2  0  0  0  0  0  0  0  0  0
   27.3097   33.9336   22.6079 N   0  0  0  0  0  0  0  0  0  0  0  0
   26.8618   35.6568   24.2135 C   0  0  0  0  0  0  0  0  0  0  0  0
   26.8180   37.0044   24.5567 C   0  0  1  0  0  0  0  0  0  0  0  0
   26.3777   37.4017   25.9386 C   0  0  0  0  0  0  0  0  0  0  0  0
   27.1965   37.9707   23.6177 C   0  0  1  0  0  0  0  0  0  0  0  0
   27.1744   39.4313   23.9627 C   0  0  0  0  0  0  0  0  0  0  0  0
   27.6113   37.5823   22.3473 C   0  0  0  0  0  0  0  0  0  0  0  0
   27.6536   36.2344   21.9989 C   0  0  2  0  0  0  0  0  0  0  0  0
   28.1013   34.5038   20.4029 C   0  0  2  0  0  0  0  0  0  0  0  0
   28.0585   35.8461   20.7274 N   0  0  0  0  0  0  0  0  0  0  0  0
  1  2  1  1  0  0  0
  1  3  1  0  0  0  0
  1  4  2  0  0  0  0
  1  6  1  0  0  0  0
  5  6  1  0  0  0  0
  7  5  1  1  0  0  0
  7  8  1  0  0  0  0
  7  9  1  0  0  0  0
  9 10  1  6  0  0  0
  9 11  1  0  0  0  0
 11 12  1  6  0  0  0
 11 13  1  0  0  0  0
 13 31  1  0  0  0  0
 14 15  1  0  0  0  0
 15 16  2  0  0  0  0
 15 17  1  0  0  0  0
 17 18  1  0  0  0  0
 18 20  2  0  0  0  0
 19 18  1  1  0  0  0
 19 22  1  0  0  0  0
 19 30  1  0  0  0  0
 21 23  1  6  0  0  0
 21 29  1  0  0  0  0
 21 22  1  0  0  0  0
 23 24  1  0  0  0  0
 24 25  1  1  0  0  0
 24 26  1  0  0  0  0
 26 27  1  1  0  0  0
 26 28  1  0  0  0  0
 29 28  1  6  0  0  0
 29 31  1  0  0  0  0
 30 14  1  6  0  0  0
 30 31  1  0  0  0  0
M  CHG  1   3  -1
M  END
>  <CHROM.1>
-175.86699703,62.26847297,170.61320347,136.52055720,165.74816243,-174.16728872
-81.21125577,27.45109376,37.42564428,19.95054955,-2.11086395,-1.35190757
2.13360014

>  <Name>
ligand

>  <RI>
0

>  <Rbt.Current_Directory>
/home/itssahil/PROJECTS/Mol_Feturizer/New_Systems/rnas/3F2Q

>  <Rbt.Executable>
rbdock ($Id: //depot/dev/client3/rdock/2013.1/src/exe/rbdock.cxx#4 $)

>  <Rbt.Library>
libRbt.so (2013.1, Build901 2013/11/27)

>  <Rbt.Parameter_File>
/export/apps/rDock/src/rDock_2013.1_src/data/scripts/dock_solv.prm

>  <Rbt.Receptor>
prm/pocket_docking_3.prm

>  <SCORE>
-33.7525

>  <SCORE.INTER>
-30.9787

>  <SCORE.INTER.CONST>
1

>  <SCORE.INTER.POLAR>
0

>  <SCORE.INTER.ROT>
7

>  <SCORE.INTER.SOLV>
18.329

>  <SCORE.INTER.VDW>
-35.0288

>  <SCORE.INTER.norm>
-0.999314

>  <SCORE.INTRA>
-2.77374

>  <SCORE.INTRA.DIHEDRAL>
-2.99914

>  <SCORE.INTRA.DIHEDRAL.0>
10.0718

>  <SCORE.INTRA.POLAR>
0

>  <SCORE.INTRA.POLAR.0>
0

>  <SCORE.INTRA.REPUL>
0

>  <SCORE.INTRA.REPUL.0>
0

>  <SCORE.INTRA.SOLV>
-1.32805

>  <SCORE.INTRA.SOLV.lig_0>
-48.6963

>  <SCORE.INTRA.VDW>
-0.610152

>  <SCORE.INTRA.VDW.0>
-0.836976

>  <SCORE.INTRA.norm>
-0.0894756

>  <SCORE.RESTR>
0

>  <SCORE.RESTR.CAVITY>
0

>  <SCORE.RESTR.norm>
0

>  <SCORE.SYSTEM>
0

>  <SCORE.SYSTEM.CONST>
0

>  <SCORE.SYSTEM.DIHEDRAL>
0

>  <SCORE.SYSTEM.SOLV>
0

>  <SCORE.SYSTEM.norm>
0

>  <SCORE.heavy>
31

>  <SCORE.norm>
-1.08879

>  <RMSD>
1.041

$$$$
ligand
 OpenBabel11021811473D
libRbt.so/2013.1/901 2013/11/27
 31 33  0  0  0  0  0  0  0  0999 V2000
   26.0781   43.2482   16.9177 P   0  0  1  0  0  0  0  0  0  0  0  0
   27.4284   43.8941   16.6918 O   0  0  0  0  0  0  0  0  0  0  0  0
   25.1668   44.2809   17.5245 O   0  5  0  0  0  0  0  0  0  0  0  0
   25.5033   42.7755   15.6108 O   0  0  0  0  0  0  0  0  0  0  0  0
   26.7883   40.7729   17.3049 C   0  0  0  0  0  0  0  0  0  0  0  0
   26.2534   41.9561   17.8463 O   0  0  0  0  0  0  0  0  0  0  0  0
   26.9174   39.7338   18.4090 C   0  0  1  0  0  0  0  0  0  0  0  0
   25.7192   39.7176   19.1555 O   0  0  0  0  0  0  0  0  0  0  0  0
   27.1914   38.3543   17.8100 C   0  0  1  0  0  0  0  0  0  0  0  0
   28.4872   38.3291   17.2507 O   0  0  0  0  0  0  0  0  0  0  0  0
   26.9919   37.1993   18.8012 C   0  0  1  0  0  0  0  0  0  0  0  0
   26.8151   35.9891   18.0989 O   0  0  0  0  0  0  0  0  0  0  0  0
   28.1574   37.0500   19.7660 C   0  0  0  0  0  0  0  0  0  0  0  0
   28.2819   34.2824   19.2106 N   0  0  0  0  0  0  0  0  0  0  0  0
   28.4077   32.9427   18.9045 C   0  0  0  0  0  0  0  0  0  0  0  0
   28.6948   32.5938   17.7560 O   0  0  0  0  0  0  0  0  0  0  0  0
   28.2010   31.9962   19.8877 N   0  0  0  0  0  0  0  0  0  0  0  0
   27.8700   32.3841   21.1723 C   0  0  0  0  0  0  0  0  0  0  0  0
   27.7452   33.7223   21.4826 C   0  0  1  0  0  0  0  0  0  0  0  0
   27.6920   31.5516   22.0599 O   0  0  0  0  0  0  0  0  0  0  0  0
   27.2966   35.4297   23.0882 C   0  0  2  0  0  0  0  0  0  0  0  0
   27.4184   34.0919   22.7729 N   0  0  0  0  0  0  0  0  0  0  0  0
   26.9652   35.8048   24.3880 C   0  0  0  0  0  0  0  0  0  0  0  0
   26.8324   37.1508   24.7145 C   0  0  1  0  0  0  0  0  0  0  0  0
   26.4847   37.5388   26.1251 C   0  0  0  0  0  0  0  0  0  0  0  0
   27.0371   38.1253   23.7310 C   0  0  1  0  0  0  0  0  0  0  0  0
   26.9160   39.5856   24.0557 C   0  0  0  0  0  0  0  0  0  0  0  0
   27.3687   37.7464   22.4336 C   0  0  0  0  0  0  0  0  0  0  0  0
   27.4996   36.3999   22.1021 C   0  0  2  0  0  0  0  0  0  0  0  0
   27.9542   34.6798   20.4966 C   0  0  2  0  0  0  0  0  0  0  0  0
   27.8213   36.0202   20.8045 N   0  0  0  0  0  0  0  0  0  0  0  0
  1  2  1  6  0  0  0
  1  3  1  0  0  0  0
  1  4  2  0  0  0  0
  1  6  1  0  0  0  0
  5  6  1  0  0  0  0
  7  5  1  6  0  0  0
  7  8  1  0  0  0  0
  7  9  1  0  0  0  0
  9 10  1  1  0  0  0
  9 11  1  0  0  0  0
 11 12  1  6  0  0  0
 11 13  1  0  0  0  0
 13 31  1  0  0  0  0
 14 15  1  0  0  0  0
 15 16  2  0  0  0  0
 15 17  1  0  0  0  0
 17 18  1  0  0  0  0
 18 20  2  0  0  0  0
 19 18  1  1  0  0  0
 19 22  1  0  0  0  0
 19 30  1  0  0  0  0
 21 23  1  6  0  0  0
 21 29  1  0  0  0  0
 21 22  1  0  0  0  0
 23 24  1  0  0  0  0
 24 25  1  1  0  0  0
 24 26  1  0  0  0  0
 26 27  1  1  0  0  0
 26 28  1  0  0  0  0
 29 28  1  6  0  0  0
 29 31  1  0  0  0  0
 30 14  1  6  0  0  0
 30 31  1  0  0  0  0
M  CHG  1   3  -1
M  END
>  <CHROM.1>
176.90507464,-75.59491448,46.07528942,69.17718702,160.22633116,173.10417402
-105.55908127,27.15411964,37.64512490,19.93637048,-2.29494987,-1.34069347
1.94720185

>  <Name>
ligand

>  <RI>
0

>  <Rbt.Current_Directory>
/home/itssahil/PROJECTS/Mol_Feturizer/New_Systems/rnas/3F2Q

>  <Rbt.Executable>
rbdock ($Id: //depot/dev/client3/rdock/2013.1/src/exe/rbdock.cxx#4 $)

>  <Rbt.Library>
libRbt.so (2013.1, Build901 2013/11/27)

>  <Rbt.Parameter_File>
/export/apps/rDock/src/rDock_2013.1_src/data/scripts/dock_solv.prm

>  <Rbt.Receptor>
prm/pocket_docking_7.prm

>  <SCORE>
-35.6386

>  <SCORE.INTER>
-31.7984

>  <SCORE.INTER.CONST>
1

>  <SCORE.INTER.POLAR>
0

>  <SCORE.INTER.ROT>
7

>  <SCORE.INTER.SOLV>
18.692

>  <SCORE.INTER.VDW>
-35.6963

>  <SCORE.INTER.norm>
-1.02576

>  <SCORE.INTRA>
-3.84014

>  <SCORE.INTRA.DIHEDRAL>
-5.65422

>  <SCORE.INTRA.DIHEDRAL.0>
10.0718

>  <SCORE.INTRA.POLAR>
0

>  <SCORE.INTRA.POLAR.0>
0

>  <SCORE.INTRA.REPUL>
0

>  <SCORE.INTRA.REPUL.0>
0

>  <SCORE.INTRA.SOLV>
-1.10688

>  <SCORE.INTRA.SOLV.lig_0>
-48.6963

>  <SCORE.INTRA.VDW>
-0.459592

>  <SCORE.INTRA.VDW.0>
-0.836976

>  <SCORE.INTRA.norm>
-0.123875

>  <SCORE.RESTR>
0

>  <SCORE.RESTR.CAVITY>
0

>  <SCORE.RESTR.norm>
0

>  <SCORE.SYSTEM>
0

>  <SCORE.SYSTEM.CONST>
0

>  <SCORE.SYSTEM.DIHEDRAL>
0

>  <SCORE.SYSTEM.SOLV>
0

>  <SCORE.SYSTEM.norm>
0

>  <SCORE.heavy>
31

>  <SCORE.norm>
-1.14963

>  <RMSD>
1.042

$$$$
ligand
 OpenBabel11021811473D
libRbt.so/2013.1/901 2013/11/27
 31 33  0  0  0  0  0  0  0  0999 V2000
   26.5541   42.9513   17.2860 P   0  0  1  0  0  0  0  0  0  0  0  0
   28.0364   42.7416   17.0616 O   0  0  0  0  0  0  0  0  0  0  0  0
   26.2768   44.4279   17.1971 O   0  5  0  0  0  0  0  0  0  0  0  0
   25.7617   42.2262   16.2333 O   0  0  0  0  0  0  0  0  0  0  0  0
   25.9431   40.9392   18.8222 C   0  0  0  0  0  0  0  0  0  0  0  0
   26.1350   42.3275   18.6994 O   0  0  0  0  0  0  0  0  0  0  0  0
   27.2482   40.2256   18.5010 C   0  0  1  0  0  0  0  0  0  0  0  0
   28.0564   40.2212   19.6586 O   0  0  0  0  0  0  0  0  0  0  0  0
   26.9711   38.7953   18.0383 C   0  0  1  0  0  0  0  0  0  0  0  0
   28.0179   38.3574   17.1988 O   0  0  0  0  0  0  0  0  0  0  0  0
   26.7328   37.8084   19.1897 C   0  0  1  0  0  0  0  0  0  0  0  0
   26.0613   36.6646   18.7103 O   0  0  0  0  0  0  0  0  0  0  0  0
   28.0242   37.3803   19.8683 C   0  0  0  0  0  0  0  0  0  0  0  0
   28.1242   34.6208   19.2693 N   0  0  0  0  0  0  0  0  0  0  0  0
   28.2367   33.2855   18.9397 C   0  0  0  0  0  0  0  0  0  0  0  0
   28.4805   32.9528   17.7764 O   0  0  0  0  0  0  0  0  0  0  0  0
   28.0653   32.3252   19.9162 N   0  0  0  0  0  0  0  0  0  0  0  0
   27.7827   32.6950   21.2177 C   0  0  0  0  0  0  0  0  0  0  0  0
   27.6714   34.0287   21.5514 C   0  0  1  0  0  0  0  0  0  0  0  0
   27.6366   31.8501   22.0993 O   0  0  0  0  0  0  0  0  0  0  0  0
   27.2850   35.7134   23.1968 C   0  0  2  0  0  0  0  0  0  0  0  0
   27.3932   34.3802   22.8581 N   0  0  0  0  0  0  0  0  0  0  0  0
   27.0026   36.0702   24.5131 C   0  0  0  0  0  0  0  0  0  0  0  0
   26.8839   37.4115   24.8635 C   0  0  1  0  0  0  0  0  0  0  0  0
   26.5893   37.7796   26.2915 C   0  0  0  0  0  0  0  0  0  0  0  0
   27.0533   38.3997   23.8871 C   0  0  1  0  0  0  0  0  0  0  0  0
   26.9463   39.8554   24.2368 C   0  0  0  0  0  0  0  0  0  0  0  0
   27.3360   38.0391   22.5730 C   0  0  0  0  0  0  0  0  0  0  0  0
   27.4526   36.6974   22.2177 C   0  0  2  0  0  0  0  0  0  0  0  0
   27.8450   35.0001   20.5721 C   0  0  2  0  0  0  0  0  0  0  0  0
   27.7254   36.3360   20.9037 N   0  0  0  0  0  0  0  0  0  0  0  0
  1  2  1  6  0  0  0
  1  3  1  0  0  0  0
  1  4  2  0  0  0  0
  1  6  1  0  0  0  0
  5  6  1  0  0  0  0
  7  5  1  1  0  0  0
  7  8  1  0  0  0  0
  7  9  1  0  0  0  0
  9 10  1  1  0  0  0
  9 11  1  0  0  0  0
 11 12  1  6  0  0  0
 11 13  1  0  0  0  0
 13 31  1  0  0  0  0
 14 15  1  0  0  0  0
 15 16  2  0  0  0  0
 15 17  1  0  0  0  0
 17 18  1  0  0  0  0
 18 20  2  0  0  0  0
 19 18  1  1  0  0  0
 19 22  1  0  0  0  0
 19 30  1  0  0  0  0
 21 23  1  6  0  0  0
 21 29  1  0  0  0  0
 21 22  1  0  0  0  0
 23 24  1  0  0  0  0
 24 25  1  1  0  0  0
 24 26  1  0  0  0  0
 26 27  1  1  0  0  0
 26 28  1  0  0  0  0
 29 28  1  6  0  0  0
 29 31  1  0  0  0  0
 30 14  1  6  0  0  0
 30 31  1  0  0  0  0
M  CHG  1   3  -1
M  END
>  <CHROM.1>
61.51733360,-79.00937781,83.07350042,153.49025596,160.43386387,-175.42102202
-90.79111289,27.22865531,37.84524892,20.17474915,-2.23763447,-1.39981206
2.00232926

>  <Name>
ligand

>  <RI>
0

>  <Rbt.Current_Directory>
/home/itssahil/PROJECTS/Mol_Feturizer/New_Systems/rnas/3F2Q

>  <Rbt.Executable>
rbdock ($Id: //depot/dev/client3/rdock/2013.1/src/exe/rbdock.cxx#4 $)

>  <Rbt.Library>
libRbt.so (2013.1, Build901 2013/11/27)

>  <Rbt.Parameter_File>
/export/apps/rDock/src/rDock_2013.1_src/data/scripts/dock_solv.prm

>  <Rbt.Receptor>
prm/pocket_docking_2.prm

>  <SCORE>
-32.0164

>  <SCORE.INTER>
-29.9964

>  <SCORE.INTER.CONST>
1

>  <SCORE.INTER.POLAR>
0

>  <SCORE.INTER.ROT>
7

>  <SCORE.INTER.SOLV>
17.9639

>  <SCORE.INTER.VDW>
-34.2523

>  <SCORE.INTER.norm>
-0.967627

>  <SCORE.INTRA>
-2.02204

>  <SCORE.INTRA.DIHEDRAL>
-2.76006

>  <SCORE.INTRA.DIHEDRAL.0>
10.0718

>  <SCORE.INTRA.POLAR>
0

>  <SCORE.INTRA.POLAR.0>
0

>  <SCORE.INTRA.REPUL>
0

>  <SCORE.INTRA.REPUL.0>
0

>  <SCORE.INTRA.SOLV>
0.470756

>  <SCORE.INTRA.SOLV.lig_0>
-48.6963

>  <SCORE.INTRA.VDW>
-0.877385

>  <SCORE.INTRA.VDW.0>
-0.836976

>  <SCORE.INTRA.norm>
-0.0652271

>  <SCORE.RESTR>
0.00205441

>  <SCORE.RESTR.CAVITY>
0.00205441

>  <SCORE.RESTR.norm>
6.62714e-05

>  <SCORE.SYSTEM>
0

>  <SCORE.SYSTEM.CONST>
0

>  <SCORE.SYSTEM.DIHEDRAL>
0

>  <SCORE.SYSTEM.SOLV>
0

>  <SCORE.SYSTEM.norm>
0

>  <SCORE.heavy>
31

>  <SCORE.norm>
-1.03279

>  <RMSD>
1.047

$$$$
ligand
 OpenBabel11021811473D
libRbt.so/2013.1/901 2013/11/27
 31 33  0  0  0  0  0  0  0  0999 V2000
   25.6949   43.4906   16.6572 P   0  0  1  0  0  0  0  0  0  0  0  0
   25.7867   44.8920   17.2221 O   0  0  0  0  0  0  0  0  0  0  0  0
   24.2964   43.2914   16.1382 O   0  5  0  0  0  0  0  0  0  0  0  0
   26.6784   43.3185   15.5325 O   0  0  0  0  0  0  0  0  0  0  0  0
   26.3738   41.1000   17.4356 C   0  0  0  0  0  0  0  0  0  0  0  0
   26.0904   42.4315   17.7906 O   0  0  0  0  0  0  0  0  0  0  0  0
   26.7053   40.3091   18.6926 C   0  0  1  0  0  0  0  0  0  0  0  0
   25.5400   40.2100   19.4836 O   0  0  0  0  0  0  0  0  0  0  0  0
   27.2195   38.9176   18.3238 C   0  0  1  0  0  0  0  0  0  0  0  0
   28.5923   38.9891   18.0029 O   0  0  0  0  0  0  0  0  0  0  0  0
   26.9556   37.8556   19.4004 C   0  0  1  0  0  0  0  0  0  0  0  0
   25.9362   36.9804   18.9716 O   0  0  0  0  0  0  0  0  0  0  0  0
   28.1974   37.0465   19.7391 C   0  0  0  0  0  0  0  0  0  0  0  0
   28.2879   34.2783   19.1801 N   0  0  0  0  0  0  0  0  0  0  0  0
   28.3969   32.9376   18.8718 C   0  0  0  0  0  0  0  0  0  0  0  0
   28.6703   32.5869   17.7205 O   0  0  0  0  0  0  0  0  0  0  0  0
   28.1887   31.9924   19.8558 N   0  0  0  0  0  0  0  0  0  0  0  0
   27.8729   32.3825   21.1436 C   0  0  0  0  0  0  0  0  0  0  0  0
   27.7649   33.7216   21.4562 C   0  0  1  0  0  0  0  0  0  0  0  0
   27.6938   31.5510   22.0319 O   0  0  0  0  0  0  0  0  0  0  0  0
   27.3482   35.4321   23.0672 C   0  0  2  0  0  0  0  0  0  0  0  0
   27.4532   34.0934   22.7496 N   0  0  0  0  0  0  0  0  0  0  0  0
   27.0321   35.8093   24.3701 C   0  0  0  0  0  0  0  0  0  0  0  0
   26.9164   37.1563   24.6989 C   0  0  1  0  0  0  0  0  0  0  0  0
   26.5849   37.5466   26.1129 C   0  0  0  0  0  0  0  0  0  0  0  0
   27.1228   38.1296   23.7147 C   0  0  1  0  0  0  0  0  0  0  0  0
   27.0199   39.5908   24.0417 C   0  0  0  0  0  0  0  0  0  0  0  0
   27.4392   37.7485   22.4141 C   0  0  0  0  0  0  0  0  0  0  0  0
   27.5530   36.4010   22.0802 C   0  0  2  0  0  0  0  0  0  0  0  0
   27.9755   34.6778   20.4693 C   0  0  2  0  0  0  0  0  0  0  0  0
   27.8594   36.0193   20.7795 N   0  0  0  0  0  0  0  0  0  0  0  0
  1  2  1  1  0  0  0
  1  3  1  0  0  0  0
  1  4  2  0  0  0  0
  1  6  1  0  0  0  0
  5  6  1  0  0  0  0
  7  5  1  6  0  0  0
  7  8  1  0  0  0  0
  7  9  1  0  0  0  0
  9 10  1  1  0  0  0
  9 11  1  0  0  0  0
 11 12  1  6  0  0  0
 11 13  1  0  0  0  0
 13 31  1  0  0  0  0
 14 15  1  0  0  0  0
 15 16  2  0  0  0  0
 15 17  1  0  0  0  0
 17 18  1  0  0  0  0
 18 20  2  0  0  0  0
 19 18  1  1  0  0  0
 19 22  1  0  0  0  0
 19 30  1  0  0  0  0
 21 23  1  6  0  0  0
 21 29  1  0  0  0  0
 21 22  1  0  0  0  0
 23 24  1  0  0  0  0
 24 25  1  1  0  0  0
 24 26  1  0  0  0  0
 26 27  1  1  0  0  0
 26 28  1  0  0  0  0
 29 28  1  6  0  0  0
 29 31  1  0  0  0  0
 30 14  1  6  0  0  0
 30 31  1  0  0  0  0
M  CHG  1   3  -1
M  END
>  <CHROM.1>
-179.49360662,-165.63410852,67.28014706,82.26416761,107.44545065,-179.17882731
-69.13061842,27.04202453,37.83748336,19.98386409,-2.43939919,-1.32810473
1.80550391

>  <Name>
ligand

>  <RI>
0

>  <Rbt.Current_Directory>
/home/itssahil/PROJECTS/Mol_Feturizer/New_Systems/rnas/3F2Q

>  <Rbt.Executable>
rbdock ($Id: //depot/dev/client3/rdock/2013.1/src/exe/rbdock.cxx#4 $)

>  <Rbt.Library>
libRbt.so (2013.1, Build901 2013/11/27)

>  <Rbt.Parameter_File>
/export/apps/rDock/src/rDock_2013.1_src/data/scripts/dock_solv.prm

>  <Rbt.Receptor>
prm/pocket_docking_2.prm

>  <SCORE>
-33.0449

>  <SCORE.INTER>
-31.8756

>  <SCORE.INTER.CONST>
1

>  <SCORE.INTER.POLAR>
0

>  <SCORE.INTER.ROT>
7

>  <SCORE.INTER.SOLV>
19.4111

>  <SCORE.INTER.VDW>
-35.9874

>  <SCORE.INTER.norm>
-1.02824

>  <SCORE.INTRA>
-1.27481

>  <SCORE.INTRA.DIHEDRAL>
-1.84573

>  <SCORE.INTRA.DIHEDRAL.0>
10.0718

>  <SCORE.INTRA.POLAR>
0

>  <SCORE.INTRA.POLAR.0>
0

>  <SCORE.INTRA.REPUL>
0

>  <SCORE.INTRA.REPUL.0>
0

>  <SCORE.INTRA.SOLV>
-0.976381

>  <SCORE.INTRA.SOLV.lig_0>
-48.6963

>  <SCORE.INTRA.VDW>
0.136249

>  <SCORE.INTRA.VDW.0>
-0.836976

>  <SCORE.INTRA.norm>
-0.0411228

>  <SCORE.RESTR>
0.105445

>  <SCORE.RESTR.CAVITY>
0.105445

>  <SCORE.RESTR.norm>
0.00340147

>  <SCORE.SYSTEM>
0

>  <SCORE.SYSTEM.CONST>
0

>  <SCORE.SYSTEM.DIHEDRAL>
0

>  <SCORE.SYSTEM.SOLV>
0

>  <SCORE.SYSTEM.norm>
0

>  <SCORE.heavy>
31

>  <SCORE.norm>
-1.06597

>  <RMSD>
1.050

$$$$
ligand
 OpenBabel11021811473D
libRbt.so/2013.1/901 2013/11/27
 31 33  0  0  0  0  0  0  0  0999 V2000
   26.0497   42.2608   17.1171 P   0  0  1  0  0  0  0  0  0  0  0  0
   26.8290   43.3101   17.8808 O   0  0  0  0  0  0  0  0  0  0  0  0
   25.0560   42.9710   16.2377 O   0  5  0  0  0  0  0  0  0  0  0  0
   26.9794   41.4407   16.2655 O   0  0  0  0  0  0  0  0  0  0  0  0
   26.0291   40.8831   19.3269 C   0  0  0  0  0  0  0  0  0  0  0  0
   25.3534   41.2560   18.1506 O   0  0  0  0  0  0  0  0  0  0  0  0
   27.3280   40.1832   18.9547 C   0  0  1  0  0  0  0  0  0  0  0  0
   28.0868   39.9866   20.1289 O   0  0  0  0  0  0  0  0  0  0  0  0
   27.0344   38.8440   18.2788 C   0  0  1  0  0  0  0  0  0  0  0  0
   28.0780   38.5261   17.3830 O   0  0  0  0  0  0  0  0  0  0  0  0
   26.7808   37.6959   19.2656 C   0  0  1  0  0  0  0  0  0  0  0  0
   26.0089   36.6916   18.6456 O   0  0  0  0  0  0  0  0  0  0  0  0
   28.0688   37.0818   19.7904 C   0  0  0  0  0  0  0  0  0  0  0  0
   28.1974   34.3179   19.2184 N   0  0  0  0  0  0  0  0  0  0  0  0
   28.3249   32.9803   18.9036 C   0  0  0  0  0  0  0  0  0  0  0  0
   28.6026   32.6388   17.7506 O   0  0  0  0  0  0  0  0  0  0  0  0
   28.1304   32.0276   19.8833 N   0  0  0  0  0  0  0  0  0  0  0  0
   27.8099   32.4073   21.1731 C   0  0  0  0  0  0  0  0  0  0  0  0
   27.6836   33.7433   21.4920 C   0  0  1  0  0  0  0  0  0  0  0  0
   27.6429   31.5692   22.0576 O   0  0  0  0  0  0  0  0  0  0  0  0
   27.2441   35.4402   23.1113 C   0  0  2  0  0  0  0  0  0  0  0  0
   27.3675   34.1046   22.7873 N   0  0  0  0  0  0  0  0  0  0  0  0
   26.9234   35.8069   24.4161 C   0  0  0  0  0  0  0  0  0  0  0  0
   26.7892   37.1506   24.7513 C   0  0  1  0  0  0  0  0  0  0  0  0
   26.4532   37.5295   26.1673 C   0  0  0  0  0  0  0  0  0  0  0  0
   26.9816   38.1312   23.7715 C   0  0  1  0  0  0  0  0  0  0  0  0
   26.8586   39.5893   24.1055 C   0  0  0  0  0  0  0  0  0  0  0  0
   27.3025   37.7607   22.4690 C   0  0  0  0  0  0  0  0  0  0  0  0
   27.4348   36.4165   22.1288 C   0  0  2  0  0  0  0  0  0  0  0  0
   27.8802   34.7069   20.5095 C   0  0  2  0  0  0  0  0  0  0  0  0
   27.7457   36.0452   20.8261 N   0  0  0  0  0  0  0  0  0  0  0  0
  1  2  1  1  0  0  0
  1  3  1  0  0  0  0
  1  4  2  0  0  0  0
  1  6  1  0  0  0  0
  5  6  1  0  0  0  0
  7  5  1  1  0  0  0
  7  8  1  0  0  0  0
  7  9  1  0  0  0  0
  9 10  1  1  0  0  0
  9 11  1  0  0  0  0
 11 12  1  6  0  0  0
 11 13  1  0  0  0  0
 13 31  1  0  0  0  0
 14 15  1  0  0  0  0
 15 16  2  0  0  0  0
 15 17  1  0  0  0  0
 17 18  1  0  0  0  0
 18 20  2  0  0  0  0
 19 18  1  1  0  0  0
 19 22  1  0  0  0  0
 19 30  1  0  0  0  0
 21 23  1  6  0  0  0
 21 29  1  0  0  0  0
 21 22  1  0  0  0  0
 23 24  1  0  0  0  0
 24 25  1  1  0  0  0
 24 26  1  0  0  0  0
 26 27  1  1  0  0  0
 26 28  1  0  0  0  0
 29 28  1  6  0  0  0
 29 31  1  0  0  0  0
 30 14  1  6  0  0  0
 30 31  1  0  0  0  0
M  CHG  1   3  -1
M  END
>  <CHROM.1>
-60.52850932,-37.25806263,171.63643235,151.09138849,156.01617380,175.55787548
-79.70030620,27.13023664,37.53405558,20.15657910,-2.37294482,-1.35894476
1.86289574

>  <Name>
ligand

>  <RI>
0

>  <Rbt.Current_Directory>
/home/itssahil/PROJECTS/Mol_Feturizer/New_Systems/rnas/3F2Q

>  <Rbt.Executable>
rbdock ($Id: //depot/dev/client3/rdock/2013.1/src/exe/rbdock.cxx#4 $)

>  <Rbt.Library>
libRbt.so (2013.1, Build901 2013/11/27)

>  <Rbt.Parameter_File>
/export/apps/rDock/src/rDock_2013.1_src/data/scripts/dock_solv.prm

>  <Rbt.Receptor>
prm/pocket_docking_2.prm

>  <SCORE>
-33.0815

>  <SCORE.INTER>
-30.9697

>  <SCORE.INTER.CONST>
1

>  <SCORE.INTER.POLAR>
0

>  <SCORE.INTER.ROT>
7

>  <SCORE.INTER.SOLV>
16.8609

>  <SCORE.INTER.VDW>
-34.5334

>  <SCORE.INTER.norm>
-0.999023

>  <SCORE.INTRA>
-2.11183

>  <SCORE.INTRA.DIHEDRAL>
-3.18311

>  <SCORE.INTRA.DIHEDRAL.0>
10.0718

>  <SCORE.INTRA.POLAR>
0

>  <SCORE.INTRA.POLAR.0>
0

>  <SCORE.INTRA.REPUL>
0

>  <SCORE.INTRA.REPUL.0>
0

>  <SCORE.INTRA.SOLV>
1.53962

>  <SCORE.INTRA.SOLV.lig_0>
-48.6963

>  <SCORE.INTRA.VDW>
-1.29009

>  <SCORE.INTRA.VDW.0>
-0.836976

>  <SCORE.INTRA.norm>
-0.0681236

>  <SCORE.RESTR>
0

>  <SCORE.RESTR.CAVITY>
0

>  <SCORE.RESTR.norm>
0

>  <SCORE.SYSTEM>
0

>  <SCORE.SYSTEM.CONST>
0

>  <SCORE.SYSTEM.DIHEDRAL>
0

>  <SCORE.SYSTEM.SOLV>
0

>  <SCORE.SYSTEM.norm>
0

>  <SCORE.heavy>
31

>  <SCORE.norm>
-1.06715

>  <RMSD>
1.057

$$$$
ligand
 OpenBabel11021811473D
libRbt.so/2013.1/901 2013/11/27
 31 33  0  0  0  0  0  0  0  0999 V2000
   26.6672   42.5552   17.1771 P   0  0  1  0  0  0  0  0  0  0  0  0
   25.3776   43.3449   17.2473 O   0  0  0  0  0  0  0  0  0  0  0  0
   26.6362   41.7291   15.9194 O   0  5  0  0  0  0  0  0  0  0  0  0
   27.8461   43.4881   17.1376 O   0  0  0  0  0  0  0  0  0  0  0  0
   27.9628   40.8628   18.6734 C   0  0  0  0  0  0  0  0  0  0  0  0
   26.8198   41.6642   18.4983 O   0  0  0  0  0  0  0  0  0  0  0  0
   27.8434   40.1053   19.9877 C   0  0  1  0  0  0  0  0  0  0  0  0
   27.3929   40.9986   20.9839 O   0  0  0  0  0  0  0  0  0  0  0  0
   26.8698   38.9361   19.8399 C   0  0  1  0  0  0  0  0  0  0  0  0
   25.6981   39.3746   19.1862 O   0  0  0  0  0  0  0  0  0  0  0  0
   27.4743   37.7136   19.1353 C   0  0  1  0  0  0  0  0  0  0  0  0
   27.9457   38.0802   17.8577 O   0  0  0  0  0  0  0  0  0  0  0  0
   28.6122   37.0877   19.9257 C   0  0  0  0  0  0  0  0  0  0  0  0
   28.5370   34.3407   19.2684 N   0  0  0  0  0  0  0  0  0  0  0  0
   28.5697   33.0056   18.9207 C   0  0  0  0  0  0  0  0  0  0  0  0
   28.9539   32.6671   17.7977 O   0  0  0  0  0  0  0  0  0  0  0  0
   28.1611   32.0532   19.8323 N   0  0  0  0  0  0  0  0  0  0  0  0
   27.7214   32.4306   21.0872 C   0  0  0  0  0  0  0  0  0  0  0  0
   27.6891   33.7639   21.4391 C   0  0  1  0  0  0  0  0  0  0  0  0
   27.3631   31.5918   21.9121 O   0  0  0  0  0  0  0  0  0  0  0  0
   27.2211   35.4549   23.0566 C   0  0  2  0  0  0  0  0  0  0  0  0
   27.2511   34.1225   22.6992 N   0  0  0  0  0  0  0  0  0  0  0  0
   26.7780   35.8191   24.3258 C   0  0  0  0  0  0  0  0  0  0  0  0
   26.7367   37.1604   24.6933 C   0  0  1  0  0  0  0  0  0  0  0  0
   26.2658   37.5355   26.0713 C   0  0  0  0  0  0  0  0  0  0  0  0
   27.1459   38.1409   23.7823 C   0  0  1  0  0  0  0  0  0  0  0  0
   27.1272   39.5948   24.1543 C   0  0  0  0  0  0  0  0  0  0  0  0
   27.5886   37.7728   22.5152 C   0  0  0  0  0  0  0  0  0  0  0  0
   27.6286   36.4313   22.1425 C   0  0  2  0  0  0  0  0  0  0  0  0
   28.1012   34.7271   20.5254 C   0  0  2  0  0  0  0  0  0  0  0  0
   28.0614   36.0635   20.8741 N   0  0  0  0  0  0  0  0  0  0  0  0
  1  2  1  1  0  0  0
  1  3  1  0  0  0  0
  1  4  2  0  0  0  0
  1  6  1  0  0  0  0
  5  6  1  0  0  0  0
  7  5  1  6  0  0  0
  7  8  1  0  0  0  0
  7  9  1  0  0  0  0
  9 10  1  6  0  0  0
  9 11  1  0  0  0  0
 11 12  1  6  0  0  0
 11 13  1  0  0  0  0
 13 31  1  0  0  0  0
 14 15  1  0  0  0  0
 15 16  2  0  0  0  0
 15 17  1  0  0  0  0
 17 18  1  0  0  0  0
 18 20  2  0  0  0  0
 19 18  1  1  0  0  0
 19 22  1  0  0  0  0
 19 30  1  0  0  0  0
 21 23  1  6  0  0  0
 21 29  1  0  0  0  0
 21 22  1  0  0  0  0
 23 24  1  0  0  0  0
 24 25  1  1  0  0  0
 24 26  1  0  0  0  0
 26 27  1  1  0  0  0
 26 28  1  0  0  0  0
 29 28  1  6  0  0  0
 29 31  1  0  0  0  0
 30 14  1  6  0  0  0
 30 31  1  0  0  0  0
M  CHG  1   3  -1
M  END
>  <CHROM.1>
-178.90083657,-178.55986822,-44.70321896,-46.67096767,-57.59945163,88.70548548
-87.27851142,27.37269078,37.72461092,20.27963404,-2.06212331,-1.35930273
2.22333441

>  <Name>
ligand

>  <RI>
0

>  <Rbt.Current_Directory>
/home/itssahil/PROJECTS/Mol_Feturizer/New_Systems/rnas/3F2Q

>  <Rbt.Executable>
rbdock ($Id: //depot/dev/client3/rdock/2013.1/src/exe/rbdock.cxx#4 $)

>  <Rbt.Library>
libRbt.so (2013.1, Build901 2013/11/27)

>  <Rbt.Parameter_File>
/export/apps/rDock/src/rDock_2013.1_src/data/scripts/dock_solv.prm

>  <Rbt.Receptor>
prm/blind_docking_60.prm

>  <SCORE>
-33.9464

>  <SCORE.INTER>
-30.4395

>  <SCORE.INTER.CONST>
1

>  <SCORE.INTER.POLAR>
0

>  <SCORE.INTER.ROT>
7

>  <SCORE.INTER.SOLV>
19.7781

>  <SCORE.INTER.VDW>
-35.1524

>  <SCORE.INTER.norm>
-0.981919

>  <SCORE.INTRA>
-3.50688

>  <SCORE.INTRA.DIHEDRAL>
-4.67489

>  <SCORE.INTRA.DIHEDRAL.0>
10.0718

>  <SCORE.INTRA.POLAR>
0

>  <SCORE.INTRA.POLAR.0>
0

>  <SCORE.INTRA.REPUL>
0

>  <SCORE.INTRA.REPUL.0>
0

>  <SCORE.INTRA.SOLV>
0.115506

>  <SCORE.INTRA.SOLV.lig_0>
-48.6963

>  <SCORE.INTRA.VDW>
-1.22719

>  <SCORE.INTRA.VDW.0>
-0.836976

>  <SCORE.INTRA.norm>
-0.113125

>  <SCORE.RESTR>
0

>  <SCORE.RESTR.CAVITY>
0

>  <SCORE.RESTR.norm>
0

>  <SCORE.SYSTEM>
0

>  <SCORE.SYSTEM.CONST>
0

>  <SCORE.SYSTEM.DIHEDRAL>
0

>  <SCORE.SYSTEM.SOLV>
0

>  <SCORE.SYSTEM.norm>
0

>  <SCORE.heavy>
31

>  <SCORE.norm>
-1.09504

>  <RMSD>
1.068

$$$$
ligand
 OpenBabel11021811473D
libRbt.so/2013.1/901 2013/11/27
 31 33  0  0  0  0  0  0  0  0999 V2000
   26.3264   41.7637   17.2887 P   0  0  1  0  0  0  0  0  0  0  0  0
   26.5667   40.8173   16.1319 O   0  0  0  0  0  0  0  0  0  0  0  0
   25.6810   43.0085   16.7419 O   0  5  0  0  0  0  0  0  0  0  0  0
   25.4139   41.1265   18.3002 O   0  0  0  0  0  0  0  0  0  0  0  0
   28.7558   41.1190   17.9699 C   0  0  0  0  0  0  0  0  0  0  0  0
   27.7129   42.0613   18.0314 O   0  0  0  0  0  0  0  0  0  0  0  0
   28.4901   40.0150   18.9829 C   0  0  1  0  0  0  0  0  0  0  0  0
   27.8933   40.5872   20.1273 O   0  0  0  0  0  0  0  0  0  0  0  0
   27.5742   38.9503   18.3795 C   0  0  1  0  0  0  0  0  0  0  0  0
   28.1711   38.4142   17.2181 O   0  0  0  0  0  0  0  0  0  0  0  0
   27.1828   37.8407   19.3654 C   0  0  1  0  0  0  0  0  0  0  0  0
   26.2717   36.9547   18.7540 O   0  0  0  0  0  0  0  0  0  0  0  0
   28.3838   37.0538   19.8655 C   0  0  0  0  0  0  0  0  0  0  0  0
   28.4222   34.2992   19.2380 N   0  0  0  0  0  0  0  0  0  0  0  0
   28.5087   32.9636   18.9017 C   0  0  0  0  0  0  0  0  0  0  0  0
   28.8596   32.6322   17.7658 O   0  0  0  0  0  0  0  0  0  0  0  0
   28.1911   32.0021   19.8397 N   0  0  0  0  0  0  0  0  0  0  0  0
   27.7886   32.3710   21.1095 C   0  0  0  0  0  0  0  0  0  0  0  0
   27.7027   33.7049   21.4500 C   0  0  1  0  0  0  0  0  0  0  0  0
   27.5114   31.5246   21.9576 O   0  0  0  0  0  0  0  0  0  0  0  0
   27.2199   35.3884   23.0710 C   0  0  2  0  0  0  0  0  0  0  0  0
   27.3032   34.0552   22.7252 N   0  0  0  0  0  0  0  0  0  0  0  0
   26.8154   35.7441   24.3554 C   0  0  0  0  0  0  0  0  0  0  0  0
   26.7209   37.0857   24.7118 C   0  0  1  0  0  0  0  0  0  0  0  0
   26.2928   37.4521   26.1061 C   0  0  0  0  0  0  0  0  0  0  0  0
   27.0377   38.0752   23.7742 C   0  0  1  0  0  0  0  0  0  0  0  0
   26.9600   39.5305   24.1330 C   0  0  0  0  0  0  0  0  0  0  0  0
   27.4421   37.7156   22.4920 C   0  0  0  0  0  0  0  0  0  0  0  0
   27.5351   36.3737   22.1304 C   0  0  2  0  0  0  0  0  0  0  0  0
   28.0233   34.6773   20.5097 C   0  0  2  0  0  0  0  0  0  0  0  0
   27.9296   36.0138   20.8473 N   0  0  0  0  0  0  0  0  0  0  0  0
  1  2  1  6  0  0  0
  1  3  1  0  0  0  0
  1  4  2  0  0  0  0
  1  6  1  0  0  0  0
  5  6  1  0  0  0  0
  7  5  1  6  0  0  0
  7  8  1  0  0  0  0
  7  9  1  0  0  0  0
  9 10  1  6  0  0  0
  9 11  1  0  0  0  0
 11 12  1  6  0  0  0
 11 13  1  0  0  0  0
 13 31  1  0  0  0  0
 14 15  1  0  0  0  0
 15 16  2  0  0  0  0
 15 17  1  0  0  0  0
 17 18  1  0  0  0  0
 18 20  2  0  0  0  0
 19 18  1  1  0  0  0
 19 22  1  0  0  0  0
 19 30  1  0  0  0  0
 21 23  1  6  0  0  0
 21 29  1  0  0  0  0
 21 22  1  0  0  0  0
 23 24  1  0  0  0  0
 24 25  1  1  0  0  0
 24 26  1  0  0  0  0
 26 27  1  1  0  0  0
 26 28  1  0  0  0  0
 29 28  1  6  0  0  0
 29 31  1  0  0  0  0
 30 14  1  6  0  0  0
 30 31  1  0  0  0  0
M  CHG  1   3  -1
M  END
>  <CHROM.1>
-80.16440128,-25.95109565,-35.95639119,58.41228248,176.16152748,178.58059496
-73.84670254,27.37913917,37.44313521,20.14474166,-2.04509324,-1.36058075
2.17588546

>  <Name>
ligand

>  <RI>
0

>  <Rbt.Current_Directory>
/home/itssahil/PROJECTS/Mol_Feturizer/New_Systems/rnas/3F2Q

>  <Rbt.Executable>
rbdock ($Id: //depot/dev/client3/rdock/2013.1/src/exe/rbdock.cxx#4 $)

>  <Rbt.Library>
libRbt.so (2013.1, Build901 2013/11/27)

>  <Rbt.Parameter_File>
/export/apps/rDock/src/rDock_2013.1_src/data/scripts/dock_solv.prm

>  <Rbt.Receptor>
prm/pocket_docking_4.prm

>  <SCORE>
-34.0482

>  <SCORE.INTER>
-31.9186

>  <SCORE.INTER.CONST>
1

>  <SCORE.INTER.POLAR>
0

>  <SCORE.INTER.ROT>
7

>  <SCORE.INTER.SOLV>
13.7987

>  <SCORE.INTER.VDW>
-34.1453

>  <SCORE.INTER.norm>
-1.02963

>  <SCORE.INTRA>
-2.12961

>  <SCORE.INTRA.DIHEDRAL>
-3.4664

>  <SCORE.INTRA.DIHEDRAL.0>
10.0718

>  <SCORE.INTRA.POLAR>
0

>  <SCORE.INTRA.POLAR.0>
0

>  <SCORE.INTRA.REPUL>
0

>  <SCORE.INTRA.REPUL.0>
0

>  <SCORE.INTRA.SOLV>
2.66703

>  <SCORE.INTRA.SOLV.lig_0>
-48.6963

>  <SCORE.INTRA.VDW>
-1.72993

>  <SCORE.INTRA.VDW.0>
-0.836976

>  <SCORE.INTRA.norm>
-0.0686972

>  <SCORE.RESTR>
0

>  <SCORE.RESTR.CAVITY>
0

>  <SCORE.RESTR.norm>
0

>  <SCORE.SYSTEM>
0

>  <SCORE.SYSTEM.CONST>
0

>  <SCORE.SYSTEM.DIHEDRAL>
0

>  <SCORE.SYSTEM.SOLV>
0

>  <SCORE.SYSTEM.norm>
0

>  <SCORE.heavy>
31

>  <SCORE.norm>
-1.09833

>  <RMSD>
1.070

$$$$
ligand
 OpenBabel11021811473D
libRbt.so/2013.1/901 2013/11/27
 31 33  0  0  0  0  0  0  0  0999 V2000
   25.5004   43.2725   17.0415 P   0  0  1  0  0  0  0  0  0  0  0  0
   24.4033   42.2299   17.0093 O   0  0  0  0  0  0  0  0  0  0  0  0
   26.2321   43.2153   15.7276 O   0  5  0  0  0  0  0  0  0  0  0  0
   24.9094   44.6426   17.2293 O   0  0  0  0  0  0  0  0  0  0  0  0
   27.3758   41.9347   18.2559 C   0  0  0  0  0  0  0  0  0  0  0  0
   26.4583   43.0004   18.2950 O   0  0  0  0  0  0  0  0  0  0  0  0
   26.8100   40.7611   19.0420 C   0  0  1  0  0  0  0  0  0  0  0  0
   25.5730   40.3904   18.4711 O   0  0  0  0  0  0  0  0  0  0  0  0
   27.7847   39.5839   19.0135 C   0  0  1  0  0  0  0  0  0  0  0  0
   29.0439   39.9992   19.4976 O   0  0  0  0  0  0  0  0  0  0  0  0
   27.2807   38.3455   19.7677 C   0  0  1  0  0  0  0  0  0  0  0  0
   26.1941   37.7714   19.0759 O   0  0  0  0  0  0  0  0  0  0  0  0
   28.3637   37.2950   19.9546 C   0  0  0  0  0  0  0  0  0  0  0  0
   28.3665   34.5502   19.2842 N   0  0  0  0  0  0  0  0  0  0  0  0
   28.4360   33.2188   18.9275 C   0  0  0  0  0  0  0  0  0  0  0  0
   28.7913   32.9000   17.7894 O   0  0  0  0  0  0  0  0  0  0  0  0
   28.0964   32.2477   19.8477 N   0  0  0  0  0  0  0  0  0  0  0  0
   27.6890   32.6027   21.1199 C   0  0  0  0  0  0  0  0  0  0  0  0
   27.6201   33.9322   21.4807 C   0  0  1  0  0  0  0  0  0  0  0  0
   27.3924   31.7473   21.9523 O   0  0  0  0  0  0  0  0  0  0  0  0
   27.1489   35.5972   23.1241 C   0  0  2  0  0  0  0  0  0  0  0  0
   27.2153   34.2684   22.7580 N   0  0  0  0  0  0  0  0  0  0  0  0
   26.7391   35.9388   24.4106 C   0  0  0  0  0  0  0  0  0  0  0  0
   26.6615   37.2759   24.7873 C   0  0  1  0  0  0  0  0  0  0  0  0
   26.2275   37.6268   26.1837 C   0  0  0  0  0  0  0  0  0  0  0  0
   27.0007   38.2751   23.8680 C   0  0  1  0  0  0  0  0  0  0  0  0
   26.9416   39.7256   24.2490 C   0  0  0  0  0  0  0  0  0  0  0  0
   27.4103   37.9296   22.5836 C   0  0  0  0  0  0  0  0  0  0  0  0
   27.4864   36.5922   22.2017 C   0  0  2  0  0  0  0  0  0  0  0  0
   27.9627   34.9143   20.5584 C   0  0  2  0  0  0  0  0  0  0  0  0
   27.8861   36.2467   20.9163 N   0  0  0  0  0  0  0  0  0  0  0  0
  1  2  1  6  0  0  0
  1  3  1  0  0  0  0
  1  4  2  0  0  0  0
  1  6  1  0  0  0  0
  5  6  1  0  0  0  0
  7  5  1  6  0  0  0
  7  8  1  0  0  0  0
  7  9  1  0  0  0  0
  9 10  1  1  0  0  0
  9 11  1  0  0  0  0
 11 12  1  6  0  0  0
 11 13  1  0  0  0  0
 13 31  1  0  0  0  0
 14 15  1  0  0  0  0
 15 16  2  0  0  0  0
 15 17  1  0  0  0  0
 17 18  1  0  0  0  0
 18 20  2  0  0  0  0
 19 18  1  1  0  0  0
 19 22  1  0  0  0  0
 19 30  1  0  0  0  0
 21 23  1  6  0  0  0
 21 29  1  0  0  0  0
 21 22  1  0  0  0  0
 23 24  1  0  0  0  0
 24 25  1  1  0  0  0
 24 26  1  0  0  0  0
 26 27  1  1  0  0  0
 26 28  1  0  0  0  0
 29 28  1  6  0  0  0
 29 31  1  0  0  0  0
 30 14  1  6  0  0  0
 30 31  1  0  0  0  0
M  CHG  1   3  -1
M  END
>  <CHROM.1>
-100.56024897,74.72973163,58.64752913,55.67528116,69.19251772,169.10435054
-57.62396518,27.02821170,38.04839871,20.19817615,-2.41195779,-1.32407695
1.85867517

>  <Name>
ligand

>  <RI>
0

>  <Rbt.Current_Directory>
/home/itssahil/PROJECTS/Mol_Feturizer/New_Systems/rnas/3F2Q

>  <Rbt.Executable>
rbdock ($Id: //depot/dev/client3/rdock/2013.1/src/exe/rbdock.cxx#4 $)

>  <Rbt.Library>
libRbt.so (2013.1, Build901 2013/11/27)

>  <Rbt.Parameter_File>
/export/apps/rDock/src/rDock_2013.1_src/data/scripts/dock_solv.prm

>  <Rbt.Receptor>
prm/pocket_docking_2.prm

>  <SCORE>
-31.4534

>  <SCORE.INTER>
-30.1764

>  <SCORE.INTER.CONST>
1

>  <SCORE.INTER.POLAR>
0

>  <SCORE.INTER.ROT>
7

>  <SCORE.INTER.SOLV>
18.6737

>  <SCORE.INTER.VDW>
-34.6089

>  <SCORE.INTER.norm>
-0.973433

>  <SCORE.INTRA>
-1.72214

>  <SCORE.INTRA.DIHEDRAL>
-2.19057

>  <SCORE.INTRA.DIHEDRAL.0>
10.0718

>  <SCORE.INTRA.POLAR>
0

>  <SCORE.INTRA.POLAR.0>
0

>  <SCORE.INTRA.REPUL>
0

>  <SCORE.INTRA.REPUL.0>
0

>  <SCORE.INTRA.SOLV>
-0.189655

>  <SCORE.INTRA.SOLV.lig_0>
-48.6963

>  <SCORE.INTRA.VDW>
-0.532028

>  <SCORE.INTRA.VDW.0>
-0.836976

>  <SCORE.INTRA.norm>
-0.0555529

>  <SCORE.RESTR>
0.445209

>  <SCORE.RESTR.CAVITY>
0.445209

>  <SCORE.RESTR.norm>
0.0143616

>  <SCORE.SYSTEM>
0

>  <SCORE.SYSTEM.CONST>
0

>  <SCORE.SYSTEM.DIHEDRAL>
0

>  <SCORE.SYSTEM.SOLV>
0

>  <SCORE.SYSTEM.norm>
0

>  <SCORE.heavy>
31

>  <SCORE.norm>
-1.01462

>  <RMSD>
1.080

$$$$
ligand
 OpenBabel11021811473D
libRbt.so/2013.1/901 2013/11/27
 31 33  0  0  0  0  0  0  0  0999 V2000
   26.6869   42.5808   17.1586 P   0  0  1  0  0  0  0  0  0  0  0  0
   27.6118   42.9225   18.3072 O   0  0  0  0  0  0  0  0  0  0  0  0
   25.2715   42.7865   17.6270 O   0  5  0  0  0  0  0  0  0  0  0  0
   26.9638   43.4784   15.9841 O   0  0  0  0  0  0  0  0  0  0  0  0
   28.2344   40.5049   16.8800 C   0  0  0  0  0  0  0  0  0  0  0  0
   26.9667   41.0801   16.6767 O   0  0  0  0  0  0  0  0  0  0  0  0
   28.1969   39.6483   18.1371 C   0  0  1  0  0  0  0  0  0  0  0  0
   27.8726   40.4737   19.2357 O   0  0  0  0  0  0  0  0  0  0  0  0
   27.1654   38.5303   17.9870 C   0  0  1  0  0  0  0  0  0  0  0  0
   27.5353   37.6840   16.9195 O   0  0  0  0  0  0  0  0  0  0  0  0
   26.9303   37.7290   19.2750 C   0  0  1  0  0  0  0  0  0  0  0  0
   25.9422   36.7468   19.0558 O   0  0  0  0  0  0  0  0  0  0  0  0
   28.1959   37.0578   19.7842 C   0  0  0  0  0  0  0  0  0  0  0  0
   28.2686   34.2914   19.2138 N   0  0  0  0  0  0  0  0  0  0  0  0
   28.3694   32.9512   18.9006 C   0  0  0  0  0  0  0  0  0  0  0  0
   28.6517   32.6032   17.7506 O   0  0  0  0  0  0  0  0  0  0  0  0
   28.1431   32.0034   19.8782 N   0  0  0  0  0  0  0  0  0  0  0  0
   27.8174   32.3907   21.1645 C   0  0  0  0  0  0  0  0  0  0  0  0
   27.7177   33.7293   21.4819 C   0  0  1  0  0  0  0  0  0  0  0  0
   27.6222   31.5569   22.0472 O   0  0  0  0  0  0  0  0  0  0  0  0
   27.2990   35.4362   23.0962 C   0  0  2  0  0  0  0  0  0  0  0  0
   27.3959   34.0980   22.7737 N   0  0  0  0  0  0  0  0  0  0  0  0
   26.9727   35.8104   24.3974 C   0  0  0  0  0  0  0  0  0  0  0  0
   26.8651   37.1569   24.7311 C   0  0  1  0  0  0  0  0  0  0  0  0
   26.5224   37.5438   26.1433 C   0  0  0  0  0  0  0  0  0  0  0  0
   27.0898   38.1326   23.7533 C   0  0  1  0  0  0  0  0  0  0  0  0
   26.9960   39.5932   24.0858 C   0  0  0  0  0  0  0  0  0  0  0  0
   27.4163   37.7545   22.4543 C   0  0  0  0  0  0  0  0  0  0  0  0
   27.5220   36.4076   22.1157 C   0  0  2  0  0  0  0  0  0  0  0  0
   27.9464   34.6879   20.5015 C   0  0  2  0  0  0  0  0  0  0  0  0
   27.8385   36.0289   20.8165 N   0  0  0  0  0  0  0  0  0  0  0  0
  1  2  1  1  0  0  0
  1  3  1  0  0  0  0
  1  4  2  0  0  0  0
  1  6  1  0  0  0  0
  5  6  1  0  0  0  0
  7  5  1  6  0  0  0
  7  8  1  0  0  0  0
  7  9  1  0  0  0  0
  9 10  1  6  0  0  0
  9 11  1  0  0  0  0
 11 12  1  6  0  0  0
 11 13  1  0  0  0  0
 13 31  1  0  0  0  0
 14 15  1  0  0  0  0
 15 16  2  0  0  0  0
 15 17  1  0  0  0  0
 17 18  1  0  0  0  0
 18 20  2  0  0  0  0
 19 18  1  1  0  0  0
 19 22  1  0  0  0  0
 19 30  1  0  0  0  0
 21 23  1  6  0  0  0
 21 29  1  0  0  0  0
 21 22  1  0  0  0  0
 23 24  1  0  0  0  0
 24 25  1  1  0  0  0
 24 26  1  0  0  0  0
 26 27  1  1  0  0  0
 26 28  1  0  0  0  0
 29 28  1  6  0  0  0
 29 31  1  0  0  0  0
 30 14  1  6  0  0  0
 30 31  1  0  0  0  0
M  CHG  1   3  -1
M  END
>  <CHROM.1>
97.84459344,-26.25110780,-60.70336403,62.31673226,178.41841399,-165.68000489
-78.05429324,27.37543228,37.54951049,20.01277843,2.00502828,1.39043716,-0.93711193

>  <Name>
ligand

>  <RI>
0

>  <Rbt.Current_Directory>
/home/itssahil/PROJECTS/Mol_Feturizer/New_Systems/rnas/3F2Q

>  <Rbt.Executable>
rbdock ($Id: //depot/dev/client3/rdock/2013.1/src/exe/rbdock.cxx#4 $)

>  <Rbt.Library>
libRbt.so (2013.1, Build901 2013/11/27)

>  <Rbt.Parameter_File>
/export/apps/rDock/src/rDock_2013.1_src/data/scripts/dock_solv.prm

>  <Rbt.Receptor>
prm/pocket_docking_2.prm

>  <SCORE>
-34.0624

>  <SCORE.INTER>
-32.2196

>  <SCORE.INTER.CONST>
1

>  <SCORE.INTER.POLAR>
0

>  <SCORE.INTER.ROT>
7

>  <SCORE.INTER.SOLV>
17.8937

>  <SCORE.INTER.VDW>
-35.7109

>  <SCORE.INTER.norm>
-1.03934

>  <SCORE.INTRA>
-1.84281

>  <SCORE.INTRA.DIHEDRAL>
-1.41118

>  <SCORE.INTRA.DIHEDRAL.0>
10.0718

>  <SCORE.INTRA.POLAR>
0

>  <SCORE.INTRA.POLAR.0>
0

>  <SCORE.INTRA.REPUL>
0

>  <SCORE.INTRA.REPUL.0>
0

>  <SCORE.INTRA.SOLV>
0.00242495

>  <SCORE.INTRA.SOLV.lig_0>
-48.6963

>  <SCORE.INTRA.VDW>
-1.13844

>  <SCORE.INTRA.VDW.0>
-0.836976

>  <SCORE.INTRA.norm>
-0.0594455

>  <SCORE.RESTR>
0

>  <SCORE.RESTR.CAVITY>
0

>  <SCORE.RESTR.norm>
0

>  <SCORE.SYSTEM>
0

>  <SCORE.SYSTEM.CONST>
0

>  <SCORE.SYSTEM.DIHEDRAL>
0

>  <SCORE.SYSTEM.SOLV>
0

>  <SCORE.SYSTEM.norm>
0

>  <SCORE.heavy>
31

>  <SCORE.norm>
-1.09879

>  <RMSD>
1.106

$$$$
ligand
 OpenBabel11021811473D
libRbt.so/2013.1/901 2013/11/27
 31 33  0  0  0  0  0  0  0  0999 V2000
   26.3243   43.0259   16.6429 P   0  0  1  0  0  0  0  0  0  0  0  0
   26.8773   44.3211   17.1982 O   0  0  0  0  0  0  0  0  0  0  0  0
   24.8276   43.0574   16.7981 O   0  5  0  0  0  0  0  0  0  0  0  0
   26.6765   42.8927   15.1869 O   0  0  0  0  0  0  0  0  0  0  0  0
   26.7587   40.4771   16.9535 C   0  0  0  0  0  0  0  0  0  0  0  0
   26.9987   41.7887   17.4025 O   0  0  0  0  0  0  0  0  0  0  0  0
   27.2440   39.4931   18.0078 C   0  0  1  0  0  0  0  0  0  0  0  0
   26.7668   39.9116   19.2690 O   0  0  0  0  0  0  0  0  0  0  0  0
   26.7439   38.0842   17.6889 C   0  0  1  0  0  0  0  0  0  0  0  0
   27.5965   37.4822   16.7386 O   0  0  0  0  0  0  0  0  0  0  0  0
   26.5757   37.1929   18.9273 C   0  0  1  0  0  0  0  0  0  0  0  0
   26.0011   35.9594   18.5566 O   0  0  0  0  0  0  0  0  0  0  0  0
   27.8915   36.9345   19.6437 C   0  0  0  0  0  0  0  0  0  0  0  0
   28.0673   34.1637   19.1187 N   0  0  0  0  0  0  0  0  0  0  0  0
   28.2143   32.8241   18.8217 C   0  0  0  0  0  0  0  0  0  0  0  0
   28.4131   32.4657   17.6576 O   0  0  0  0  0  0  0  0  0  0  0  0
   28.1280   31.8880   19.8324 N   0  0  0  0  0  0  0  0  0  0  0  0
   27.8959   32.2863   21.1355 C   0  0  0  0  0  0  0  0  0  0  0  0
   27.7502   33.6245   21.4365 C   0  0  1  0  0  0  0  0  0  0  0  0
   27.8257   31.4635   22.0468 O   0  0  0  0  0  0  0  0  0  0  0  0
   27.3812   35.3427   23.0510 C   0  0  2  0  0  0  0  0  0  0  0  0
   27.5235   34.0047   22.7451 N   0  0  0  0  0  0  0  0  0  0  0  0
   27.1505   35.7283   24.3693 C   0  0  0  0  0  0  0  0  0  0  0  0
   26.9981   37.0743   24.6870 C   0  0  1  0  0  0  0  0  0  0  0  0
   26.7602   37.4742   26.1171 C   0  0  0  0  0  0  0  0  0  0  0  0
   27.0813   38.0382   23.6758 C   0  0  1  0  0  0  0  0  0  0  0  0
   26.9362   39.4989   23.9892 C   0  0  0  0  0  0  0  0  0  0  0  0
   27.3126   37.6488   22.3599 C   0  0  0  0  0  0  0  0  0  0  0  0
   27.4628   36.3022   22.0373 C   0  0  2  0  0  0  0  0  0  0  0  0
   27.8382   34.5716   20.4227 C   0  0  2  0  0  0  0  0  0  0  0  0
   27.6842   35.9116   20.7220 N   0  0  0  0  0  0  0  0  0  0  0  0
  1  2  1  1  0  0  0
  1  3  1  0  0  0  0
  1  4  2  0  0  0  0
  1  6  1  0  0  0  0
  5  6  1  0  0  0  0
  7  5  1  6  0  0  0
  7  8  1  0  0  0  0
  7  9  1  0  0  0  0
  9 10  1  6  0  0  0
  9 11  1  0  0  0  0
 11 12  1  6  0  0  0
 11 13  1  0  0  0  0
 13 31  1  0  0  0  0
 14 15  1  0  0  0  0
 15 16  2  0  0  0  0
 15 17  1  0  0  0  0
 17 18  1  0  0  0  0
 18 20  2  0  0  0  0
 19 18  1  1  0  0  0
 19 22  1  0  0  0  0
 19 30  1  0  0  0  0
 21 23  1  6  0  0  0
 21 29  1  0  0  0  0
 21 22  1  0  0  0  0
 23 24  1  0  0  0  0
 24 25  1  1  0  0  0
 24 26  1  0  0  0  0
 26 27  1  1  0  0  0
 26 28  1  0  0  0  0
 29 28  1  6  0  0  0
 29 31  1  0  0  0  0
 30 14  1  6  0  0  0
 30 31  1  0  0  0  0
M  CHG  1   3  -1
M  END
>  <CHROM.1>
-167.43354045,-172.62199456,47.20532804,82.53830932,174.79563226,-172.22154701
-96.33368135,27.15708119,37.49597142,19.82597708,2.42236188,1.40133622,-1.36682210

>  <Name>
ligand

>  <RI>
0

>  <Rbt.Current_Directory>
/home/itssahil/PROJECTS/Mol_Feturizer/New_Systems/rnas/3F2Q

>  <Rbt.Executable>
rbdock ($Id: //depot/dev/client3/rdock/2013.1/src/exe/rbdock.cxx#4 $)

>  <Rbt.Library>
libRbt.so (2013.1, Build901 2013/11/27)

>  <Rbt.Parameter_File>
/export/apps/rDock/src/rDock_2013.1_src/data/scripts/dock_solv.prm

>  <Rbt.Receptor>
prm/pocket_docking_2.prm

>  <SCORE>
-34.2086

>  <SCORE.INTER>
-30.1995

>  <SCORE.INTER.CONST>
1

>  <SCORE.INTER.POLAR>
0

>  <SCORE.INTER.ROT>
7

>  <SCORE.INTER.SOLV>
20.1045

>  <SCORE.INTER.VDW>
-35.1011

>  <SCORE.INTER.norm>
-0.974176

>  <SCORE.INTRA>
-4.00914

>  <SCORE.INTRA.DIHEDRAL>
-5.1779

>  <SCORE.INTRA.DIHEDRAL.0>
10.0718

>  <SCORE.INTRA.POLAR>
0

>  <SCORE.INTRA.POLAR.0>
0

>  <SCORE.INTRA.REPUL>
0

>  <SCORE.INTRA.REPUL.0>
0

>  <SCORE.INTRA.SOLV>
-0.695617

>  <SCORE.INTRA.SOLV.lig_0>
-48.6963

>  <SCORE.INTRA.VDW>
-1.07239

>  <SCORE.INTRA.VDW.0>
-0.836976

>  <SCORE.INTRA.norm>
-0.129327

>  <SCORE.RESTR>
0

>  <SCORE.RESTR.CAVITY>
0

>  <SCORE.RESTR.norm>
0

>  <SCORE.SYSTEM>
0

>  <SCORE.SYSTEM.CONST>
0

>  <SCORE.SYSTEM.DIHEDRAL>
0

>  <SCORE.SYSTEM.SOLV>
0

>  <SCORE.SYSTEM.norm>
0

>  <SCORE.heavy>
31

>  <SCORE.norm>
-1.1035

>  <RMSD>
1.110

$$$$
ligand
 OpenBabel11021811473D
libRbt.so/2013.1/901 2013/11/27
 31 33  0  0  0  0  0  0  0  0999 V2000
   25.6185   43.3315   16.3203 P   0  0  1  0  0  0  0  0  0  0  0  0
   26.4591   42.8801   15.1451 O   0  0  0  0  0  0  0  0  0  0  0  0
   26.1072   44.6904   16.7442 O   0  5  0  0  0  0  0  0  0  0  0  0
   24.1713   43.4194   15.9204 O   0  0  0  0  0  0  0  0  0  0  0  0
   26.7702   41.3163   17.5010 C   0  0  0  0  0  0  0  0  0  0  0  0
   25.7146   42.2463   17.4932 O   0  0  0  0  0  0  0  0  0  0  0  0
   26.6868   40.4786   18.7685 C   0  0  1  0  0  0  0  0  0  0  0  0
   25.3547   40.0404   18.9327 O   0  0  0  0  0  0  0  0  0  0  0  0
   27.6344   39.2825   18.6775 C   0  0  1  0  0  0  0  0  0  0  0  0
   28.9544   39.7017   18.9499 O   0  0  0  0  0  0  0  0  0  0  0  0
   27.2300   38.1038   19.5739 C   0  0  1  0  0  0  0  0  0  0  0  0
   26.1192   37.4365   19.0174 O   0  0  0  0  0  0  0  0  0  0  0  0
   28.3610   37.1077   19.7741 C   0  0  0  0  0  0  0  0  0  0  0  0
   28.4437   34.3595   19.1231 N   0  0  0  0  0  0  0  0  0  0  0  0
   28.5514   33.0284   18.7749 C   0  0  0  0  0  0  0  0  0  0  0  0
   28.8990   32.7128   17.6336 O   0  0  0  0  0  0  0  0  0  0  0  0
   28.2586   32.0537   19.7073 N   0  0  0  0  0  0  0  0  0  0  0  0
   27.8598   32.4048   20.9833 C   0  0  0  0  0  0  0  0  0  0  0  0
   27.7529   33.7341   21.3357 C   0  0  1  0  0  0  0  0  0  0  0  0
   27.6047   31.5465   21.8264 O   0  0  0  0  0  0  0  0  0  0  0  0
   27.2531   35.3951   22.9745 C   0  0  2  0  0  0  0  0  0  0  0  0
   27.3574   34.0665   22.6168 N   0  0  0  0  0  0  0  0  0  0  0  0
   26.8526   35.7329   24.2650 C   0  0  0  0  0  0  0  0  0  0  0  0
   26.7369   37.0696   24.6334 C   0  0  1  0  0  0  0  0  0  0  0  0
   26.3136   37.4167   26.0341 C   0  0  0  0  0  0  0  0  0  0  0  0
   27.0284   38.0723   23.7017 C   0  0  1  0  0  0  0  0  0  0  0  0
   26.9275   39.5230   24.0733 C   0  0  0  0  0  0  0  0  0  0  0  0
   27.4288   37.7307   22.4134 C   0  0  0  0  0  0  0  0  0  0  0  0
   27.5429   36.3937   22.0398 C   0  0  2  0  0  0  0  0  0  0  0  0
   28.0483   34.7198   20.4010 C   0  0  2  0  0  0  0  0  0  0  0  0
   27.9334   36.0516   20.7506 N   0  0  0  0  0  0  0  0  0  0  0  0
  1  2  1  6  0  0  0
  1  3  1  0  0  0  0
  1  4  2  0  0  0  0
  1  6  1  0  0  0  0
  5  6  1  0  0  0  0
  7  5  1  6  0  0  0
  7  8  1  0  0  0  0
  7  9  1  0  0  0  0
  9 10  1  1  0  0  0
  9 11  1  0  0  0  0
 11 12  1  6  0  0  0
 11 13  1  0  0  0  0
 13 31  1  0  0  0  0
 14 15  1  0  0  0  0
 15 16  2  0  0  0  0
 15 17  1  0  0  0  0
 17 18  1  0  0  0  0
 18 20  2  0  0  0  0
 19 18  1  1  0  0  0
 19 22  1  0  0  0  0
 19 30  1  0  0  0  0
 21 23  1  6  0  0  0
 21 29  1  0  0  0  0
 21 22  1  0  0  0  0
 23 24  1  0  0  0  0
 24 25  1  1  0  0  0
 24 26  1  0  0  0  0
 26 27  1  1  0  0  0
 26 28  1  0  0  0  0
 29 28  1  6  0  0  0
 29 31  1  0  0  0  0
 30 14  1  6  0  0  0
 30 31  1  0  0  0  0
M  CHG  1   3  -1
M  END
>  <CHROM.1>
175.67606550,18.60151542,47.34848733,78.86109919,74.38778118,175.13787910
-58.85139162,27.06165714,37.86793185,19.90379921,-2.34029394,-1.30379959
1.87934330

>  <Name>
ligand

>  <RI>
0

>  <Rbt.Current_Directory>
/home/itssahil/PROJECTS/Mol_Feturizer/New_Systems/rnas/3F2Q

>  <Rbt.Executable>
rbdock ($Id: //depot/dev/client3/rdock/2013.1/src/exe/rbdock.cxx#4 $)

>  <Rbt.Library>
libRbt.so (2013.1, Build901 2013/11/27)

>  <Rbt.Parameter_File>
/export/apps/rDock/src/rDock_2013.1_src/data/scripts/dock_solv.prm

>  <Rbt.Receptor>
prm/pocket_docking_3.prm

>  <SCORE>
-35.3038

>  <SCORE.INTER>
-32.4752

>  <SCORE.INTER.CONST>
1

>  <SCORE.INTER.POLAR>
0

>  <SCORE.INTER.ROT>
7

>  <SCORE.INTER.SOLV>
19.3336

>  <SCORE.INTER.VDW>
-36.3613

>  <SCORE.INTER.norm>
-1.04759

>  <SCORE.INTRA>
-2.82997

>  <SCORE.INTRA.DIHEDRAL>
-4.2667

>  <SCORE.INTRA.DIHEDRAL.0>
10.0718

>  <SCORE.INTRA.POLAR>
0

>  <SCORE.INTRA.POLAR.0>
0

>  <SCORE.INTRA.REPUL>
0

>  <SCORE.INTRA.REPUL.0>
0

>  <SCORE.INTRA.SOLV>
-1.55837

>  <SCORE.INTRA.SOLV.lig_0>
-48.6963

>  <SCORE.INTRA.VDW>
0.0825656

>  <SCORE.INTRA.VDW.0>
-0.836976

>  <SCORE.INTRA.norm>
-0.0912894

>  <SCORE.RESTR>
0.00129716

>  <SCORE.RESTR.CAVITY>
0.00129716

>  <SCORE.RESTR.norm>
4.18437e-05

>  <SCORE.SYSTEM>
0

>  <SCORE.SYSTEM.CONST>
0

>  <SCORE.SYSTEM.DIHEDRAL>
0

>  <SCORE.SYSTEM.SOLV>
0

>  <SCORE.SYSTEM.norm>
0

>  <SCORE.heavy>
31

>  <SCORE.norm>
-1.13883

>  <RMSD>
1.112

$$$$
ligand
 OpenBabel11021811473D
libRbt.so/2013.1/901 2013/11/27
 31 33  0  0  0  0  0  0  0  0999 V2000
   25.7894   43.7535   16.6292 P   0  0  1  0  0  0  0  0  0  0  0  0
   25.8827   45.1805   17.1257 O   0  0  0  0  0  0  0  0  0  0  0  0
   24.3568   43.4872   16.2524 O   0  5  0  0  0  0  0  0  0  0  0  0
   26.6701   43.5639   15.4250 O   0  0  0  0  0  0  0  0  0  0  0  0
   26.5903   41.4135   17.4444 C   0  0  0  0  0  0  0  0  0  0  0  0
   26.3259   42.7582   17.7624 O   0  0  0  0  0  0  0  0  0  0  0  0
   26.9532   40.6627   18.7172 C   0  0  1  0  0  0  0  0  0  0  0  0
   25.8807   40.7753   19.6286 O   0  0  0  0  0  0  0  0  0  0  0  0
   27.2353   39.1932   18.4044 C   0  0  1  0  0  0  0  0  0  0  0  0
   28.5684   39.0500   17.9628 O   0  0  0  0  0  0  0  0  0  0  0  0
   26.9319   38.2434   19.5715 C   0  0  1  0  0  0  0  0  0  0  0  0
   26.0338   37.2399   19.1527 O   0  0  0  0  0  0  0  0  0  0  0  0
   28.1843   37.5889   20.1323 C   0  0  0  0  0  0  0  0  0  0  0  0
   28.2972   34.8533   19.4344 N   0  0  0  0  0  0  0  0  0  0  0  0
   28.4188   33.5301   19.0618 C   0  0  0  0  0  0  0  0  0  0  0  0
   28.7453   33.2389   17.9078 O   0  0  0  0  0  0  0  0  0  0  0  0
   28.1637   32.5356   19.9844 N   0  0  0  0  0  0  0  0  0  0  0  0
   27.7886   32.8593   21.2747 C   0  0  0  0  0  0  0  0  0  0  0  0
   27.6679   34.1807   21.6514 C   0  0  1  0  0  0  0  0  0  0  0  0
   27.5672   31.9834   22.1091 O   0  0  0  0  0  0  0  0  0  0  0  0
   27.1787   35.8064   23.3284 C   0  0  2  0  0  0  0  0  0  0  0  0
   27.2966   34.4857   22.9465 N   0  0  0  0  0  0  0  0  0  0  0  0
   26.8025   36.1165   24.6331 C   0  0  0  0  0  0  0  0  0  0  0  0
   26.6733   37.4449   25.0261 C   0  0  1  0  0  0  0  0  0  0  0  0
   26.2767   37.7622   26.4416 C   0  0  0  0  0  0  0  0  0  0  0  0
   26.9267   38.4673   24.1047 C   0  0  1  0  0  0  0  0  0  0  0  0
   26.8106   39.9099   24.5025 C   0  0  0  0  0  0  0  0  0  0  0  0
   27.3030   38.1534   22.8021 C   0  0  0  0  0  0  0  0  0  0  0  0
   27.4305   36.8247   22.4040 C   0  0  2  0  0  0  0  0  0  0  0  0
   27.9255   35.1863   20.7267 C   0  0  2  0  0  0  0  0  0  0  0  0
   27.7968   36.5101   21.1008 N   0  0  0  0  0  0  0  0  0  0  0  0
  1  2  1  1  0  0  0
  1  3  1  0  0  0  0
  1  4  2  0  0  0  0
  1  6  1  0  0  0  0
  5  6  1  0  0  0  0
  7  5  1  6  0  0  0
  7  8  1  0  0  0  0
  7  9  1  0  0  0  0
  9 10  1  1  0  0  0
  9 11  1  0  0  0  0
 11 12  1  6  0  0  0
 11 13  1  0  0  0  0
 13 31  1  0  0  0  0
 14 15  1  0  0  0  0
 15 16  2  0  0  0  0
 15 17  1  0  0  0  0
 17 18  1  0  0  0  0
 18 20  2  0  0  0  0
 19 18  1  1  0  0  0
 19 22  1  0  0  0  0
 19 30  1  0  0  0  0
 21 23  1  6  0  0  0
 21 29  1  0  0  0  0
 21 22  1  0  0  0  0
 23 24  1  0  0  0  0
 24 25  1  1  0  0  0
 24 26  1  0  0  0  0
 26 27  1  1  0  0  0
 26 28  1  0  0  0  0
 29 28  1  6  0  0  0
 29 31  1  0  0  0  0
 30 14  1  6  0  0  0
 30 31  1  0  0  0  0
M  CHG  1   3  -1
M  END
>  <CHROM.1>
-174.51617658,-167.25574161,58.37676131,83.30430279,124.71216216,-170.44836043
-80.08010264,27.02882538,38.21227184,20.14566288,-2.23749144,-1.31180962
1.95675612

>  <Name>
ligand

>  <RI>
0

>  <Rbt.Current_Directory>
/home/itssahil/PROJECTS/Mol_Feturizer/New_Systems/rnas/3F2Q

>  <Rbt.Executable>
rbdock ($Id: //depot/dev/client3/rdock/2013.1/src/exe/rbdock.cxx#4 $)

>  <Rbt.Library>
libRbt.so (2013.1, Build901 2013/11/27)

>  <Rbt.Parameter_File>
/export/apps/rDock/src/rDock_2013.1_src/data/scripts/dock_solv.prm

>  <Rbt.Receptor>
prm/pocket_docking_2.prm

>  <SCORE>
-32.504

>  <SCORE.INTER>
-31.6073

>  <SCORE.INTER.CONST>
1

>  <SCORE.INTER.POLAR>
0

>  <SCORE.INTER.ROT>
7

>  <SCORE.INTER.SOLV>
18.8186

>  <SCORE.INTER.VDW>
-35.6111

>  <SCORE.INTER.norm>
-1.01959

>  <SCORE.INTRA>
-0.916043

>  <SCORE.INTRA.DIHEDRAL>
-0.895162

>  <SCORE.INTRA.DIHEDRAL.0>
10.0718

>  <SCORE.INTRA.POLAR>
0

>  <SCORE.INTRA.POLAR.0>
0

>  <SCORE.INTRA.REPUL>
0

>  <SCORE.INTRA.REPUL.0>
0

>  <SCORE.INTRA.SOLV>
-0.892292

>  <SCORE.INTRA.SOLV.lig_0>
-48.6963

>  <SCORE.INTRA.VDW>
-0.0223155

>  <SCORE.INTRA.VDW.0>
-0.836976

>  <SCORE.INTRA.norm>
-0.0295498

>  <SCORE.RESTR>
0.0192753

>  <SCORE.RESTR.CAVITY>
0.0192753

>  <SCORE.RESTR.norm>
0.000621783

>  <SCORE.SYSTEM>
0

>  <SCORE.SYSTEM.CONST>
0

>  <SCORE.SYSTEM.DIHEDRAL>
0

>  <SCORE.SYSTEM.SOLV>
0

>  <SCORE.SYSTEM.norm>
0

>  <SCORE.heavy>
31

>  <SCORE.norm>
-1.04852

>  <RMSD>
1.116

$$$$
ligand
 OpenBabel11021811473D
libRbt.so/2013.1/901 2013/11/27
 31 33  0  0  0  0  0  0  0  0999 V2000
   25.7580   43.6564   16.4947 P   0  0  1  0  0  0  0  0  0  0  0  0
   25.4249   45.0430   17.0024 O   0  0  0  0  0  0  0  0  0  0  0  0
   24.6182   43.1950   15.6269 O   0  5  0  0  0  0  0  0  0  0  0  0
   27.0251   43.6900   15.6854 O   0  0  0  0  0  0  0  0  0  0  0  0
   26.7235   41.4779   17.5454 C   0  0  0  0  0  0  0  0  0  0  0  0
   26.0224   42.6825   17.7374 O   0  0  0  0  0  0  0  0  0  0  0  0
   26.6624   40.6566   18.8249 C   0  0  1  0  0  0  0  0  0  0  0  0
   25.3268   40.2510   19.0371 O   0  0  0  0  0  0  0  0  0  0  0  0
   27.5793   39.4382   18.7177 C   0  0  1  0  0  0  0  0  0  0  0  0
   28.9210   39.8369   18.9003 O   0  0  0  0  0  0  0  0  0  0  0  0
   27.2045   38.2964   19.6727 C   0  0  1  0  0  0  0  0  0  0  0  0
   26.1075   37.5775   19.1544 O   0  0  0  0  0  0  0  0  0  0  0  0
   28.3584   37.3371   19.9171 C   0  0  0  0  0  0  0  0  0  0  0  0
   28.3939   34.5954   19.2349 N   0  0  0  0  0  0  0  0  0  0  0  0
   28.4781   33.2671   18.8704 C   0  0  0  0  0  0  0  0  0  0  0  0
   28.8033   32.9597   17.7202 O   0  0  0  0  0  0  0  0  0  0  0  0
   28.1873   32.2860   19.7967 N   0  0  0  0  0  0  0  0  0  0  0  0
   27.8136   32.6281   21.0827 C   0  0  0  0  0  0  0  0  0  0  0  0
   27.7301   33.9546   21.4513 C   0  0  1  0  0  0  0  0  0  0  0  0
   27.5606   31.7639   21.9203 O   0  0  0  0  0  0  0  0  0  0  0  0
   27.2788   35.6037   23.1161 C   0  0  2  0  0  0  0  0  0  0  0  0
   27.3597   34.2779   22.7423 N   0  0  0  0  0  0  0  0  0  0  0  0
   26.9036   35.9323   24.4165 C   0  0  0  0  0  0  0  0  0  0  0  0
   26.8117   37.2662   24.8013 C   0  0  1  0  0  0  0  0  0  0  0  0
   26.4155   37.6032   26.2123 C   0  0  0  0  0  0  0  0  0  0  0  0
   27.1017   38.2753   23.8760 C   0  0  1  0  0  0  0  0  0  0  0  0
   27.0262   39.7229   24.2651 C   0  0  0  0  0  0  0  0  0  0  0  0
   27.4769   37.9428   22.5778 C   0  0  0  0  0  0  0  0  0  0  0  0
   27.5671   36.6087   22.1878 C   0  0  2  0  0  0  0  0  0  0  0  0
   28.0238   34.9467   20.5229 C   0  0  2  0  0  0  0  0  0  0  0  0
   27.9324   36.2759   20.8889 N   0  0  0  0  0  0  0  0  0  0  0  0
  1  2  1  1  0  0  0
  1  3  1  0  0  0  0
  1  4  2  0  0  0  0
  1  6  1  0  0  0  0
  5  6  1  0  0  0  0
  7  5  1  6  0  0  0
  7  8  1  0  0  0  0
  7  9  1  0  0  0  0
  9 10  1  1  0  0  0
  9 11  1  0  0  0  0
 11 12  1  6  0  0  0
 11 13  1  0  0  0  0
 13 31  1  0  0  0  0
 14 15  1  0  0  0  0
 15 16  2  0  0  0  0
 15 17  1  0  0  0  0
 17 18  1  0  0  0  0
 18 20  2  0  0  0  0
 19 18  1  1  0  0  0
 19 22  1  0  0  0  0
 19 30  1  0  0  0  0
 21 23  1  6  0  0  0
 21 29  1  0  0  0  0
 21 22  1  0  0  0  0
 23 24  1  0  0  0  0
 24 25  1  1  0  0  0
 24 26  1  0  0  0  0
 26 27  1  1  0  0  0
 26 28  1  0  0  0  0
 29 28  1  6  0  0  0
 29 31  1  0  0  0  0
 30 14  1  6  0  0  0
 30 31  1  0  0  0  0
M  CHG  1   3  -1
M  END
>  <CHROM.1>
-171.93840579,-161.11823496,66.95425495,77.01685524,78.49853834,178.27959853
-62.72918433,27.08836417,38.09954393,20.03133210,-2.34386510,-1.32454667
1.87631028

>  <Name>
ligand

>  <RI>
0

>  <Rbt.Current_Directory>
/home/itssahil/PROJECTS/Mol_Feturizer/New_Systems/rnas/3F2Q

>  <Rbt.Executable>
rbdock ($Id: //depot/dev/client3/rdock/2013.1/src/exe/rbdock.cxx#4 $)

>  <Rbt.Library>
libRbt.so (2013.1, Build901 2013/11/27)

>  <Rbt.Parameter_File>
/export/apps/rDock/src/rDock_2013.1_src/data/scripts/dock_solv.prm

>  <Rbt.Receptor>
prm/pocket_docking_4.prm

>  <SCORE>
-35.6337

>  <SCORE.INTER>
-32.0661

>  <SCORE.INTER.CONST>
1

>  <SCORE.INTER.POLAR>
0

>  <SCORE.INTER.ROT>
7

>  <SCORE.INTER.SOLV>
20.094

>  <SCORE.INTER.VDW>
-36.3421

>  <SCORE.INTER.norm>
-1.03439

>  <SCORE.INTRA>
-3.56755

>  <SCORE.INTRA.DIHEDRAL>
-5.6119

>  <SCORE.INTRA.DIHEDRAL.0>
10.0718

>  <SCORE.INTRA.POLAR>
0

>  <SCORE.INTRA.POLAR.0>
0

>  <SCORE.INTRA.REPUL>
0

>  <SCORE.INTRA.REPUL.0>
0

>  <SCORE.INTRA.SOLV>
-0.837129

>  <SCORE.INTRA.SOLV.lig_0>
-48.6963

>  <SCORE.INTRA.VDW>
-0.343039

>  <SCORE.INTRA.VDW.0>
-0.836976

>  <SCORE.INTRA.norm>
-0.115082

>  <SCORE.RESTR>
0

>  <SCORE.RESTR.CAVITY>
0

>  <SCORE.RESTR.norm>
0

>  <SCORE.SYSTEM>
0

>  <SCORE.SYSTEM.CONST>
0

>  <SCORE.SYSTEM.DIHEDRAL>
0

>  <SCORE.SYSTEM.SOLV>
0

>  <SCORE.SYSTEM.norm>
0

>  <SCORE.heavy>
31

>  <SCORE.norm>
-1.14947

>  <RMSD>
1.117

$$$$
ligand
 OpenBabel11021811473D
libRbt.so/2013.1/901 2013/11/27
 31 33  0  0  0  0  0  0  0  0999 V2000
   25.7373   43.6781   16.4693 P   0  0  1  0  0  0  0  0  0  0  0  0
   25.4375   45.0690   16.9863 O   0  0  0  0  0  0  0  0  0  0  0  0
   24.5834   43.2471   15.6045 O   0  5  0  0  0  0  0  0  0  0  0  0
   27.0010   43.6882   15.6540 O   0  0  0  0  0  0  0  0  0  0  0  0
   26.6562   41.4714   17.5025 C   0  0  0  0  0  0  0  0  0  0  0  0
   25.9859   42.6916   17.7053 O   0  0  0  0  0  0  0  0  0  0  0  0
   26.6147   40.6604   18.7894 C   0  0  1  0  0  0  0  0  0  0  0  0
   25.2850   40.2441   19.0174 O   0  0  0  0  0  0  0  0  0  0  0  0
   27.5421   39.4498   18.6839 C   0  0  1  0  0  0  0  0  0  0  0  0
   28.8792   39.8585   18.8776 O   0  0  0  0  0  0  0  0  0  0  0  0
   27.1696   38.3013   19.6318 C   0  0  1  0  0  0  0  0  0  0  0  0
   26.1057   37.5539   19.0856 O   0  0  0  0  0  0  0  0  0  0  0  0
   28.3399   37.3718   19.9109 C   0  0  0  0  0  0  0  0  0  0  0  0
   28.3708   34.6337   19.2142 N   0  0  0  0  0  0  0  0  0  0  0  0
   28.4528   33.3072   18.8425 C   0  0  0  0  0  0  0  0  0  0  0  0
   28.7745   33.0055   17.6898 O   0  0  0  0  0  0  0  0  0  0  0  0
   28.1634   32.3215   19.7643 N   0  0  0  0  0  0  0  0  0  0  0  0
   27.7936   32.6572   21.0531 C   0  0  0  0  0  0  0  0  0  0  0  0
   27.7124   33.9819   21.4290 C   0  0  1  0  0  0  0  0  0  0  0  0
   27.5419   31.7889   21.8869 O   0  0  0  0  0  0  0  0  0  0  0  0
   27.2673   35.6227   23.1036 C   0  0  2  0  0  0  0  0  0  0  0  0
   27.3458   34.2988   22.7226 N   0  0  0  0  0  0  0  0  0  0  0  0
   26.8959   35.9447   24.4067 C   0  0  0  0  0  0  0  0  0  0  0  0
   26.8064   37.2767   24.7988 C   0  0  1  0  0  0  0  0  0  0  0  0
   26.4143   37.6067   26.2126 C   0  0  0  0  0  0  0  0  0  0  0  0
   27.0949   38.2904   23.8781 C   0  0  1  0  0  0  0  0  0  0  0  0
   27.0219   39.7360   24.2750 C   0  0  0  0  0  0  0  0  0  0  0  0
   27.4662   37.9644   22.5771 C   0  0  0  0  0  0  0  0  0  0  0  0
   27.5541   36.6322   22.1798 C   0  0  2  0  0  0  0  0  0  0  0  0
   28.0046   34.9786   20.5050 C   0  0  2  0  0  0  0  0  0  0  0  0
   27.9155   36.3059   20.8782 N   0  0  0  0  0  0  0  0  0  0  0  0
  1  2  1  1  0  0  0
  1  3  1  0  0  0  0
  1  4  2  0  0  0  0
  1  6  1  0  0  0  0
  5  6  1  0  0  0  0
  7  5  1  6  0  0  0
  7  8  1  0  0  0  0
  7  9  1  0  0  0  0
  9 10  1  1  0  0  0
  9 11  1  0  0  0  0
 11 12  1  6  0  0  0
 11 13  1  0  0  0  0
 13 31  1  0  0  0  0
 14 15  1  0  0  0  0
 15 16  2  0  0  0  0
 15 17  1  0  0  0  0
 17 18  1  0  0  0  0
 18 20  2  0  0  0  0
 19 18  1  1  0  0  0
 19 22  1  0  0  0  0
 19 30  1  0  0  0  0
 21 23  1  6  0  0  0
 21 29  1  0  0  0  0
 21 22  1  0  0  0  0
 23 24  1  0  0  0  0
 24 25  1  1  0  0  0
 24 26  1  0  0  0  0
 26 27  1  1  0  0  0
 26 28  1  0  0  0  0
 29 28  1  6  0  0  0
 29 31  1  0  0  0  0
 30 14  1  6  0  0  0
 30 31  1  0  0  0  0
M  CHG  1   3  -1
M  END
>  <CHROM.1>
-173.39776078,-161.27155420,69.00128604,78.19496302,80.07795837,178.04766015
-64.97743424,27.06677640,38.11840013,20.00921117,-2.35511326,-1.32638284
1.86150157

>  <Name>
ligand

>  <RI>
0

>  <Rbt.Current_Directory>
/home/itssahil/PROJECTS/Mol_Feturizer/New_Systems/rnas/3F2Q

>  <Rbt.Executable>
rbdock ($Id: //depot/dev/client3/rdock/2013.1/src/exe/rbdock.cxx#4 $)

>  <Rbt.Library>
libRbt.so (2013.1, Build901 2013/11/27)

>  <Rbt.Parameter_File>
/export/apps/rDock/src/rDock_2013.1_src/data/scripts/dock_solv.prm

>  <Rbt.Receptor>
prm/pocket_docking_3.prm

>  <SCORE>
-35.5201

>  <SCORE.INTER>
-32.0666

>  <SCORE.INTER.CONST>
1

>  <SCORE.INTER.POLAR>
0

>  <SCORE.INTER.ROT>
7

>  <SCORE.INTER.SOLV>
20.0116

>  <SCORE.INTER.VDW>
-36.315

>  <SCORE.INTER.norm>
-1.03441

>  <SCORE.INTRA>
-3.45348

>  <SCORE.INTRA.DIHEDRAL>
-5.27065

>  <SCORE.INTRA.DIHEDRAL.0>
10.0718

>  <SCORE.INTRA.POLAR>
0

>  <SCORE.INTRA.POLAR.0>
0

>  <SCORE.INTRA.REPUL>
0

>  <SCORE.INTRA.REPUL.0>
0

>  <SCORE.INTRA.SOLV>
-0.864986

>  <SCORE.INTRA.SOLV.lig_0>
-48.6963

>  <SCORE.INTRA.VDW>
-0.385665

>  <SCORE.INTRA.VDW.0>
-0.836976

>  <SCORE.INTRA.norm>
-0.111403

>  <SCORE.RESTR>
0

>  <SCORE.RESTR.CAVITY>
0

>  <SCORE.RESTR.norm>
0

>  <SCORE.SYSTEM>
0

>  <SCORE.SYSTEM.CONST>
0

>  <SCORE.SYSTEM.DIHEDRAL>
0

>  <SCORE.SYSTEM.SOLV>
0

>  <SCORE.SYSTEM.norm>
0

>  <SCORE.heavy>
31

>  <SCORE.norm>
-1.14581

>  <RMSD>
1.119

$$$$
ligand
 OpenBabel11021811473D
libRbt.so/2013.1/901 2013/11/27
 31 33  0  0  0  0  0  0  0  0999 V2000
   25.7271   43.6848   16.5611 P   0  0  1  0  0  0  0  0  0  0  0  0
   25.3801   45.0572   17.0974 O   0  0  0  0  0  0  0  0  0  0  0  0
   24.6069   43.2441   15.6578 O   0  5  0  0  0  0  0  0  0  0  0  0
   27.0109   43.7416   15.7798 O   0  0  0  0  0  0  0  0  0  0  0  0
   26.6566   41.4715   17.5706 C   0  0  0  0  0  0  0  0  0  0  0  0
   25.9675   42.6795   17.7835 O   0  0  0  0  0  0  0  0  0  0  0  0
   26.6081   40.6394   18.8436 C   0  0  1  0  0  0  0  0  0  0  0  0
   25.2748   40.2310   19.0650 O   0  0  0  0  0  0  0  0  0  0  0  0
   27.5247   39.4226   18.7175 C   0  0  1  0  0  0  0  0  0  0  0  0
   28.8686   39.8223   18.8812 O   0  0  0  0  0  0  0  0  0  0  0  0
   27.1659   38.2765   19.6735 C   0  0  1  0  0  0  0  0  0  0  0  0
   26.0742   37.5465   19.1595 O   0  0  0  0  0  0  0  0  0  0  0  0
   28.3307   37.3291   19.9125 C   0  0  0  0  0  0  0  0  0  0  0  0
   28.3646   34.5839   19.2447 N   0  0  0  0  0  0  0  0  0  0  0  0
   28.4476   33.2538   18.8861 C   0  0  0  0  0  0  0  0  0  0  0  0
   28.7547   32.9412   17.7323 O   0  0  0  0  0  0  0  0  0  0  0  0
   28.1757   32.2768   19.8224 N   0  0  0  0  0  0  0  0  0  0  0  0
   27.8222   32.6247   21.1126 C   0  0  0  0  0  0  0  0  0  0  0  0
   27.7401   33.9529   21.4753 C   0  0  1  0  0  0  0  0  0  0  0  0
   27.5862   31.7642   21.9590 O   0  0  0  0  0  0  0  0  0  0  0  0
   27.3107   35.6096   23.1383 C   0  0  2  0  0  0  0  0  0  0  0  0
   27.3900   34.2821   22.7704 N   0  0  0  0  0  0  0  0  0  0  0  0
   26.9559   35.9440   24.4430 C   0  0  0  0  0  0  0  0  0  0  0  0
   26.8657   37.2797   24.8220 C   0  0  1  0  0  0  0  0  0  0  0  0
   26.4918   37.6231   26.2376 C   0  0  0  0  0  0  0  0  0  0  0  0
   27.1366   38.2847   23.8866 C   0  0  1  0  0  0  0  0  0  0  0  0
   27.0625   39.7342   24.2690 C   0  0  0  0  0  0  0  0  0  0  0  0
   27.4914   37.9464   22.5841 C   0  0  0  0  0  0  0  0  0  0  0  0
   27.5799   36.6105   22.1999 C   0  0  2  0  0  0  0  0  0  0  0  0
   28.0148   34.9409   20.5367 C   0  0  2  0  0  0  0  0  0  0  0  0
   27.9247   36.2718   20.8969 N   0  0  0  0  0  0  0  0  0  0  0  0
  1  2  1  1  0  0  0
  1  3  1  0  0  0  0
  1  4  2  0  0  0  0
  1  6  1  0  0  0  0
  5  6  1  0  0  0  0
  7  5  1  6  0  0  0
  7  8  1  0  0  0  0
  7  9  1  0  0  0  0
  9 10  1  1  0  0  0
  9 11  1  0  0  0  0
 11 12  1  6  0  0  0
 11 13  1  0  0  0  0
 13 31  1  0  0  0  0
 14 15  1  0  0  0  0
 15 16  2  0  0  0  0
 15 17  1  0  0  0  0
 17 18  1  0  0  0  0
 18 20  2  0  0  0  0
 19 18  1  1  0  0  0
 19 22  1  0  0  0  0
 19 30  1  0  0  0  0
 21 23  1  6  0  0  0
 21 29  1  0  0  0  0
 21 22  1  0  0  0  0
 23 24  1  0  0  0  0
 24 25  1  1  0  0  0
 24 26  1  0  0  0  0
 26 27  1  1  0  0  0
 26 28  1  0  0  0  0
 29 28  1  6  0  0  0
 29 31  1  0  0  0  0
 30 14  1  6  0  0  0
 30 31  1  0  0  0  0
M  CHG  1   3  -1
M  END
>  <CHROM.1>
-173.59617172,-162.13359941,67.50936130,76.59667656,79.34395027,177.66303211
-63.18438570,27.07679186,38.10150319,20.05702320,-2.39484329,-1.32965330
1.83051108

>  <Name>
ligand

>  <RI>
0

>  <Rbt.Current_Directory>
/home/itssahil/PROJECTS/Mol_Feturizer/New_Systems/rnas/3F2Q

>  <Rbt.Executable>
rbdock ($Id: //depot/dev/client3/rdock/2013.1/src/exe/rbdock.cxx#4 $)

>  <Rbt.Library>
libRbt.so (2013.1, Build901 2013/11/27)

>  <Rbt.Parameter_File>
/export/apps/rDock/src/rDock_2013.1_src/data/scripts/dock_solv.prm

>  <Rbt.Receptor>
prm/pocket_docking_5.prm

>  <SCORE>
-35.6495

>  <SCORE.INTER>
-32.0282

>  <SCORE.INTER.CONST>
1

>  <SCORE.INTER.POLAR>
0

>  <SCORE.INTER.ROT>
7

>  <SCORE.INTER.SOLV>
19.9036

>  <SCORE.INTER.VDW>
-36.2533

>  <SCORE.INTER.norm>
-1.03317

>  <SCORE.INTRA>
-3.62134

>  <SCORE.INTRA.DIHEDRAL>
-5.68504

>  <SCORE.INTRA.DIHEDRAL.0>
10.0718

>  <SCORE.INTRA.POLAR>
0

>  <SCORE.INTRA.POLAR.0>
0

>  <SCORE.INTRA.REPUL>
0

>  <SCORE.INTRA.REPUL.0>
0

>  <SCORE.INTRA.SOLV>
-0.859617

>  <SCORE.INTRA.SOLV.lig_0>
-48.6963

>  <SCORE.INTRA.VDW>
-0.349009

>  <SCORE.INTRA.VDW.0>
-0.836976

>  <SCORE.INTRA.norm>
-0.116817

>  <SCORE.RESTR>
0

>  <SCORE.RESTR.CAVITY>
0

>  <SCORE.RESTR.norm>
0

>  <SCORE.SYSTEM>
0

>  <SCORE.SYSTEM.CONST>
0

>  <SCORE.SYSTEM.DIHEDRAL>
0

>  <SCORE.SYSTEM.SOLV>
0

>  <SCORE.SYSTEM.norm>
0

>  <SCORE.heavy>
31

>  <SCORE.norm>
-1.14998

>  <RMSD>
1.122

$$$$
ligand
 OpenBabel11021811473D
libRbt.so/2013.1/901 2013/11/27
 31 33  0  0  0  0  0  0  0  0999 V2000
   26.4717   42.3100   16.8191 P   0  0  1  0  0  0  0  0  0  0  0  0
   26.4477   42.3124   15.3055 O   0  0  0  0  0  0  0  0  0  0  0  0
   27.8553   42.7046   17.2608 O   0  5  0  0  0  0  0  0  0  0  0  0
   25.4715   43.2965   17.3561 O   0  0  0  0  0  0  0  0  0  0  0  0
   25.9030   40.6464   18.7403 C   0  0  0  0  0  0  0  0  0  0  0  0
   26.0393   40.8657   17.3573 O   0  0  0  0  0  0  0  0  0  0  0  0
   27.2804   40.6696   19.3865 C   0  0  1  0  0  0  0  0  0  0  0  0
   27.1218   40.8214   20.7812 O   0  0  0  0  0  0  0  0  0  0  0  0
   28.0355   39.3780   19.0729 C   0  0  1  0  0  0  0  0  0  0  0  0
   29.4085   39.5521   19.3507 O   0  0  0  0  0  0  0  0  0  0  0  0
   27.4753   38.1438   19.7936 C   0  0  1  0  0  0  0  0  0  0  0  0
   26.3575   37.6451   19.0932 O   0  0  0  0  0  0  0  0  0  0  0  0
   28.5060   37.0360   19.9411 C   0  0  0  0  0  0  0  0  0  0  0  0
   28.4801   34.2873   19.2873 N   0  0  0  0  0  0  0  0  0  0  0  0
   28.5363   32.9528   18.9399 C   0  0  0  0  0  0  0  0  0  0  0  0
   28.9061   32.6218   17.8100 O   0  0  0  0  0  0  0  0  0  0  0  0
   28.1672   31.9925   19.8601 N   0  0  0  0  0  0  0  0  0  0  0  0
   27.7435   32.3613   21.1230 C   0  0  0  0  0  0  0  0  0  0  0  0
   27.6879   33.6939   21.4746 C   0  0  1  0  0  0  0  0  0  0  0  0
   27.4205   31.5156   21.9554 O   0  0  0  0  0  0  0  0  0  0  0  0
   27.2134   35.3758   23.0996 C   0  0  2  0  0  0  0  0  0  0  0  0
   27.2666   34.0440   22.7427 N   0  0  0  0  0  0  0  0  0  0  0  0
   26.7869   35.7313   24.3770 C   0  0  0  0  0  0  0  0  0  0  0  0
   26.7225   37.0718   24.7442 C   0  0  1  0  0  0  0  0  0  0  0  0
   26.2701   37.4377   26.1309 C   0  0  0  0  0  0  0  0  0  0  0  0
   27.0916   38.0602   23.8248 C   0  0  1  0  0  0  0  0  0  0  0  0
   27.0472   39.5137   24.1960 C   0  0  0  0  0  0  0  0  0  0  0  0
   27.5177   37.7007   22.5496 C   0  0  0  0  0  0  0  0  0  0  0  0
   27.5808   36.3601   22.1771 C   0  0  2  0  0  0  0  0  0  0  0  0
   28.0603   34.6652   20.5523 C   0  0  2  0  0  0  0  0  0  0  0  0
   27.9970   36.0007   20.9008 N   0  0  0  0  0  0  0  0  0  0  0  0
  1  2  1  6  0  0  0
  1  3  1  0  0  0  0
  1  4  2  0  0  0  0
  1  6  1  0  0  0  0
  5  6  1  0  0  0  0
  7  5  1  6  0  0  0
  7  8  1  0  0  0  0
  7  9  1  0  0  0  0
  9 10  1  1  0  0  0
  9 11  1  0  0  0  0
 11 12  1  6  0  0  0
 11 13  1  0  0  0  0
 13 31  1  0  0  0  0
 14 15  1  0  0  0  0
 15 16  2  0  0  0  0
 15 17  1  0  0  0  0
 17 18  1  0  0  0  0
 18 20  2  0  0  0  0
 19 18  1  1  0  0  0
 19 22  1  0  0  0  0
 19 30  1  0  0  0  0
 21 23  1  6  0  0  0
 21 29  1  0  0  0  0
 21 22  1  0  0  0  0
 23 24  1  0  0  0  0
 24 25  1  1  0  0  0
 24 26  1  0  0  0  0
 26 27  1  1  0  0  0
 26 28  1  0  0  0  0
 29 28  1  6  0  0  0
 29 31  1  0  0  0  0
 30 14  1  6  0  0  0
 30 31  1  0  0  0  0
M  CHG  1   3  -1
M  END
>  <CHROM.1>
-70.16023220,-175.86938395,163.98091487,164.04944229,81.44975201,167.71902235
-54.25491577,27.33238544,37.65013058,20.24428758,-2.12777528,-1.35749631
2.10608426

>  <Name>
ligand

>  <RI>
0

>  <Rbt.Current_Directory>
/home/itssahil/PROJECTS/Mol_Feturizer/New_Systems/rnas/3F2Q

>  <Rbt.Executable>
rbdock ($Id: //depot/dev/client3/rdock/2013.1/src/exe/rbdock.cxx#4 $)

>  <Rbt.Library>
libRbt.so (2013.1, Build901 2013/11/27)

>  <Rbt.Parameter_File>
/export/apps/rDock/src/rDock_2013.1_src/data/scripts/dock_solv.prm

>  <Rbt.Receptor>
prm/pocket_docking_4.prm

>  <SCORE>
-34.7675

>  <SCORE.INTER>
-32.9173

>  <SCORE.INTER.CONST>
1

>  <SCORE.INTER.POLAR>
0

>  <SCORE.INTER.ROT>
7

>  <SCORE.INTER.SOLV>
16.1357

>  <SCORE.INTER.VDW>
-35.5901

>  <SCORE.INTER.norm>
-1.06185

>  <SCORE.INTRA>
-1.85021

>  <SCORE.INTRA.DIHEDRAL>
-4.56693

>  <SCORE.INTRA.DIHEDRAL.0>
10.0718

>  <SCORE.INTRA.POLAR>
0

>  <SCORE.INTRA.POLAR.0>
0

>  <SCORE.INTRA.REPUL>
0

>  <SCORE.INTRA.REPUL.0>
0

>  <SCORE.INTRA.SOLV>
1.73466

>  <SCORE.INTRA.SOLV.lig_0>
-48.6963

>  <SCORE.INTRA.VDW>
-0.434073

>  <SCORE.INTRA.VDW.0>
-0.836976

>  <SCORE.INTRA.norm>
-0.0596842

>  <SCORE.RESTR>
0

>  <SCORE.RESTR.CAVITY>
0

>  <SCORE.RESTR.norm>
0

>  <SCORE.SYSTEM>
0

>  <SCORE.SYSTEM.CONST>
0

>  <SCORE.SYSTEM.DIHEDRAL>
0

>  <SCORE.SYSTEM.SOLV>
0

>  <SCORE.SYSTEM.norm>
0

>  <SCORE.heavy>
31

>  <SCORE.norm>
-1.12153

>  <RMSD>
1.139

$$$$
ligand
 OpenBabel11021811473D
libRbt.so/2013.1/901 2013/11/27
 31 33  0  0  0  0  0  0  0  0999 V2000
   26.0979   42.9804   17.1519 P   0  0  1  0  0  0  0  0  0  0  0  0
   26.0888   42.3841   15.7606 O   0  0  0  0  0  0  0  0  0  0  0  0
   25.8610   44.4611   17.0224 O   0  5  0  0  0  0  0  0  0  0  0  0
   25.0075   42.3675   17.9869 O   0  0  0  0  0  0  0  0  0  0  0  0
   28.0926   41.3851   17.6594 C   0  0  0  0  0  0  0  0  0  0  0  0
   27.4865   42.6370   17.8706 O   0  0  0  0  0  0  0  0  0  0  0  0
   27.4778   40.3674   18.6089 C   0  0  1  0  0  0  0  0  0  0  0  0
   26.1688   40.0735   18.1690 O   0  0  0  0  0  0  0  0  0  0  0  0
   28.3260   39.0962   18.6462 C   0  0  1  0  0  0  0  0  0  0  0  0
   29.6519   39.4213   19.0053 O   0  0  0  0  0  0  0  0  0  0  0  0
   27.7569   37.9998   19.5575 C   0  0  1  0  0  0  0  0  0  0  0  0
   26.5865   37.4597   18.9853 O   0  0  0  0  0  0  0  0  0  0  0  0
   28.7509   36.8779   19.8118 C   0  0  0  0  0  0  0  0  0  0  0  0
   28.6018   34.1235   19.2000 N   0  0  0  0  0  0  0  0  0  0  0  0
   28.5989   32.7822   18.8754 C   0  0  0  0  0  0  0  0  0  0  0  0
   28.9882   32.4129   17.7640 O   0  0  0  0  0  0  0  0  0  0  0  0
   28.1492   31.8584   19.7971 N   0  0  0  0  0  0  0  0  0  0  0  0
   27.7038   32.2705   21.0390 C   0  0  0  0  0  0  0  0  0  0  0  0
   27.7069   33.6101   21.3678 C   0  0  1  0  0  0  0  0  0  0  0  0
   27.3090   31.4572   21.8728 O   0  0  0  0  0  0  0  0  0  0  0  0
   27.2680   35.3421   22.9496 C   0  0  2  0  0  0  0  0  0  0  0  0
   27.2627   34.0034   22.6153 N   0  0  0  0  0  0  0  0  0  0  0  0
   26.8186   35.7413   24.2060 C   0  0  0  0  0  0  0  0  0  0  0  0
   26.8128   37.0894   24.5501 C   0  0  1  0  0  0  0  0  0  0  0  0
   26.3344   37.5023   25.9148 C   0  0  0  0  0  0  0  0  0  0  0  0
   27.2640   38.0413   23.6287 C   0  0  1  0  0  0  0  0  0  0  0  0
   27.2841   39.5013   23.9757 C   0  0  0  0  0  0  0  0  0  0  0  0
   27.7128   37.6382   22.3745 C   0  0  0  0  0  0  0  0  0  0  0  0
   27.7174   36.2898   22.0251 C   0  0  2  0  0  0  0  0  0  0  0  0
   28.1606   34.5445   20.4439 C   0  0  2  0  0  0  0  0  0  0  0  0
   28.1563   35.8873   20.7694 N   0  0  0  0  0  0  0  0  0  0  0  0
  1  2  1  6  0  0  0
  1  3  1  0  0  0  0
  1  4  2  0  0  0  0
  1  6  1  0  0  0  0
  5  6  1  0  0  0  0
  7  5  1  6  0  0  0
  7  8  1  0  0  0  0
  7  9  1  0  0  0  0
  9 10  1  1  0  0  0
  9 11  1  0  0  0  0
 11 12  1  6  0  0  0
 11 13  1  0  0  0  0
 13 31  1  0  0  0  0
 14 15  1  0  0  0  0
 15 16  2  0  0  0  0
 15 17  1  0  0  0  0
 17 18  1  0  0  0  0
 18 20  2  0  0  0  0
 19 18  1  1  0  0  0
 19 22  1  0  0  0  0
 19 30  1  0  0  0  0
 21 23  1  6  0  0  0
 21 29  1  0  0  0  0
 21 22  1  0  0  0  0
 23 24  1  0  0  0  0
 24 25  1  1  0  0  0
 24 26  1  0  0  0  0
 26 27  1  1  0  0  0
 26 28  1  0  0  0  0
 29 28  1  6  0  0  0
 29 31  1  0  0  0  0
 30 14  1  6  0  0  0
 30 31  1  0  0  0  0
M  CHG  1   3  -1
M  END
>  <CHROM.1>
-83.72031888,-37.18759937,72.31360480,56.19420286,70.38036489,176.75671047
-57.10808469,27.37823191,37.71219526,20.05716408,-2.16709675,-1.33311041
2.12345351

>  <Name>
ligand

>  <RI>
0

>  <Rbt.Current_Directory>
/home/itssahil/PROJECTS/Mol_Feturizer/New_Systems/rnas/3F2Q

>  <Rbt.Executable>
rbdock ($Id: //depot/dev/client3/rdock/2013.1/src/exe/rbdock.cxx#4 $)

>  <Rbt.Library>
libRbt.so (2013.1, Build901 2013/11/27)

>  <Rbt.Parameter_File>
/export/apps/rDock/src/rDock_2013.1_src/data/scripts/dock_solv.prm

>  <Rbt.Receptor>
prm/pocket_docking_5.prm

>  <SCORE>
-33.9496

>  <SCORE.INTER>
-31.8425

>  <SCORE.INTER.CONST>
1

>  <SCORE.INTER.POLAR>
0

>  <SCORE.INTER.ROT>
7

>  <SCORE.INTER.SOLV>
17.5355

>  <SCORE.INTER.VDW>
-35.3402

>  <SCORE.INTER.norm>
-1.02718

>  <SCORE.INTRA>
-2.10712

>  <SCORE.INTRA.DIHEDRAL>
-4.63493

>  <SCORE.INTRA.DIHEDRAL.0>
10.0718

>  <SCORE.INTRA.POLAR>
0

>  <SCORE.INTRA.POLAR.0>
0

>  <SCORE.INTRA.REPUL>
0

>  <SCORE.INTRA.REPUL.0>
0

>  <SCORE.INTRA.SOLV>
0.961071

>  <SCORE.INTRA.SOLV.lig_0>
-48.6963

>  <SCORE.INTRA.VDW>
-0.270189

>  <SCORE.INTRA.VDW.0>
-0.836976

>  <SCORE.INTRA.norm>
-0.0679715

>  <SCORE.RESTR>
0

>  <SCORE.RESTR.CAVITY>
0

>  <SCORE.RESTR.norm>
0

>  <SCORE.SYSTEM>
0

>  <SCORE.SYSTEM.CONST>
0

>  <SCORE.SYSTEM.DIHEDRAL>
0

>  <SCORE.SYSTEM.SOLV>
0

>  <SCORE.SYSTEM.norm>
0

>  <SCORE.heavy>
31

>  <SCORE.norm>
-1.09515

>  <RMSD>
1.139

$$$$
ligand
 OpenBabel11021811473D
libRbt.so/2013.1/901 2013/11/27
 31 33  0  0  0  0  0  0  0  0999 V2000
   26.2308   41.9296   17.2344 P   0  0  1  0  0  0  0  0  0  0  0  0
   26.7529   41.1337   16.0574 O   0  0  0  0  0  0  0  0  0  0  0  0
   27.1598   43.0929   17.4552 O   0  5  0  0  0  0  0  0  0  0  0  0
   24.8462   42.4395   16.9434 O   0  0  0  0  0  0  0  0  0  0  0  0
   27.2811   40.6060   19.2160 C   0  0  0  0  0  0  0  0  0  0  0  0
   26.1185   40.9763   18.5155 O   0  0  0  0  0  0  0  0  0  0  0  0
   28.1718   39.7785   18.3009 C   0  0  1  0  0  0  0  0  0  0  0  0
   29.3705   39.4824   18.9855 O   0  0  0  0  0  0  0  0  0  0  0  0
   27.4595   38.4898   17.8905 C   0  0  1  0  0  0  0  0  0  0  0  0
   28.2219   37.8181   16.9106 O   0  0  0  0  0  0  0  0  0  0  0  0
   27.1300   37.5632   19.0692 C   0  0  1  0  0  0  0  0  0  0  0  0
   26.2346   36.5565   18.6527 O   0  0  0  0  0  0  0  0  0  0  0  0
   28.3687   36.9134   19.6649 C   0  0  0  0  0  0  0  0  0  0  0  0
   28.4134   34.1492   19.0810 N   0  0  0  0  0  0  0  0  0  0  0  0
   28.5019   32.8091   18.7635 C   0  0  0  0  0  0  0  0  0  0  0  0
   28.8173   32.4624   17.6218 O   0  0  0  0  0  0  0  0  0  0  0  0
   28.2261   31.8603   19.7273 N   0  0  0  0  0  0  0  0  0  0  0  0
   27.8634   32.2463   21.0040 C   0  0  0  0  0  0  0  0  0  0  0  0
   27.7757   33.5847   21.3257 C   0  0  1  0  0  0  0  0  0  0  0  0
   27.6238   31.4113   21.8746 O   0  0  0  0  0  0  0  0  0  0  0  0
   27.3315   35.2900   22.9348 C   0  0  2  0  0  0  0  0  0  0  0  0
   27.4164   33.9521   22.6079 N   0  0  0  0  0  0  0  0  0  0  0  0
   26.9674   35.6629   24.2264 C   0  0  0  0  0  0  0  0  0  0  0  0
   26.8715   37.0093   24.5641 C   0  0  1  0  0  0  0  0  0  0  0  0
   26.4875   37.3945   25.9661 C   0  0  0  0  0  0  0  0  0  0  0  0
   27.1463   37.9861   23.6003 C   0  0  1  0  0  0  0  0  0  0  0  0
   27.0662   39.4463   23.9380 C   0  0  0  0  0  0  0  0  0  0  0  0
   27.5104   37.6093   22.3110 C   0  0  0  0  0  0  0  0  0  0  0  0
   27.6045   36.2626   21.9682 C   0  0  2  0  0  0  0  0  0  0  0  0
   28.0543   34.5444   20.3593 C   0  0  2  0  0  0  0  0  0  0  0  0
   27.9587   35.8854   20.6783 N   0  0  0  0  0  0  0  0  0  0  0  0
  1  2  1  6  0  0  0
  1  3  1  0  0  0  0
  1  4  2  0  0  0  0
  1  6  1  0  0  0  0
  5  6  1  0  0  0  0
  7  5  1  1  0  0  0
  7  8  1  0  0  0  0
  7  9  1  0  0  0  0
  9 10  1  6  0  0  0
  9 11  1  0  0  0  0
 11 12  1  6  0  0  0
 11 13  1  0  0  0  0
 13 31  1  0  0  0  0
 14 15  1  0  0  0  0
 15 16  2  0  0  0  0
 15 17  1  0  0  0  0
 17 18  1  0  0  0  0
 18 20  2  0  0  0  0
 19 18  1  1  0  0  0
 19 22  1  0  0  0  0
 19 30  1  0  0  0  0
 21 23  1  6  0  0  0
 21 29  1  0  0  0  0
 21 22  1  0  0  0  0
 23 24  1  0  0  0  0
 24 25  1  1  0  0  0
 24 26  1  0  0  0  0
 26 27  1  1  0  0  0
 26 28  1  0  0  0  0
 29 28  1  6  0  0  0
 29 31  1  0  0  0  0
 30 14  1  6  0  0  0
 30 31  1  0  0  0  0
M  CHG  1   3  -1
M  END
>  <CHROM.1>
-63.85203397,75.70033770,176.43190165,172.49846392,167.39977736,-172.26100382
-80.70147198,27.38742553,37.29284202,19.99190139,-2.19807108,-1.35265861
2.04723728

>  <Name>
ligand

>  <RI>
0

>  <Rbt.Current_Directory>
/home/itssahil/PROJECTS/Mol_Feturizer/New_Systems/rnas/3F2Q

>  <Rbt.Executable>
rbdock ($Id: //depot/dev/client3/rdock/2013.1/src/exe/rbdock.cxx#4 $)

>  <Rbt.Library>
libRbt.so (2013.1, Build901 2013/11/27)

>  <Rbt.Parameter_File>
/export/apps/rDock/src/rDock_2013.1_src/data/scripts/dock_solv.prm

>  <Rbt.Receptor>
prm/pocket_docking_3.prm

>  <SCORE>
-35.7802

>  <SCORE.INTER>
-31.0677

>  <SCORE.INTER.CONST>
1

>  <SCORE.INTER.POLAR>
0

>  <SCORE.INTER.ROT>
7

>  <SCORE.INTER.SOLV>
16.5301

>  <SCORE.INTER.VDW>
-34.4885

>  <SCORE.INTER.norm>
-1.00218

>  <SCORE.INTRA>
-4.71249

>  <SCORE.INTRA.DIHEDRAL>
-7.10255

>  <SCORE.INTRA.DIHEDRAL.0>
10.0718

>  <SCORE.INTRA.POLAR>
0

>  <SCORE.INTRA.POLAR.0>
0

>  <SCORE.INTRA.REPUL>
0

>  <SCORE.INTRA.REPUL.0>
0

>  <SCORE.INTRA.SOLV>
-0.0396011

>  <SCORE.INTRA.SOLV.lig_0>
-48.6963

>  <SCORE.INTRA.VDW>
-1.14142

>  <SCORE.INTRA.VDW.0>
-0.836976

>  <SCORE.INTRA.norm>
-0.152016

>  <SCORE.RESTR>
0

>  <SCORE.RESTR.CAVITY>
0

>  <SCORE.RESTR.norm>
0

>  <SCORE.SYSTEM>
0

>  <SCORE.SYSTEM.CONST>
0

>  <SCORE.SYSTEM.DIHEDRAL>
0

>  <SCORE.SYSTEM.SOLV>
0

>  <SCORE.SYSTEM.norm>
0

>  <SCORE.heavy>
31

>  <SCORE.norm>
-1.1542

>  <RMSD>
1.154

$$$$
ligand
 OpenBabel11021811473D
libRbt.so/2013.1/901 2013/11/27
 31 33  0  0  0  0  0  0  0  0999 V2000
   26.1669   42.7394   16.8820 P   0  0  1  0  0  0  0  0  0  0  0  0
   26.3381   42.0123   15.5654 O   0  0  0  0  0  0  0  0  0  0  0  0
   25.8886   44.1870   16.5787 O   0  5  0  0  0  0  0  0  0  0  0  0
   25.0141   42.1558   17.6516 O   0  0  0  0  0  0  0  0  0  0  0  0
   28.2144   41.3418   17.6796 C   0  0  0  0  0  0  0  0  0  0  0  0
   27.4780   42.5365   17.7779 O   0  0  0  0  0  0  0  0  0  0  0  0
   27.5119   40.2562   18.4817 C   0  0  1  0  0  0  0  0  0  0  0  0
   26.3351   39.8805   17.7981 O   0  0  0  0  0  0  0  0  0  0  0  0
   28.4327   39.0493   18.6615 C   0  0  1  0  0  0  0  0  0  0  0  0
   29.6769   39.4745   19.1750 O   0  0  0  0  0  0  0  0  0  0  0  0
   27.8278   37.9333   19.5247 C   0  0  1  0  0  0  0  0  0  0  0  0
   26.6974   37.3881   18.8814 O   0  0  0  0  0  0  0  0  0  0  0  0
   28.8200   36.8193   19.8180 C   0  0  0  0  0  0  0  0  0  0  0  0
   28.6014   34.0682   19.2122 N   0  0  0  0  0  0  0  0  0  0  0  0
   28.5644   32.7268   18.8900 C   0  0  0  0  0  0  0  0  0  0  0  0
   28.9358   32.3468   17.7760 O   0  0  0  0  0  0  0  0  0  0  0  0
   28.1008   31.8153   19.8169 N   0  0  0  0  0  0  0  0  0  0  0  0
   27.6754   32.2396   21.0617 C   0  0  0  0  0  0  0  0  0  0  0  0
   27.7126   33.5792   21.3882 C   0  0  1  0  0  0  0  0  0  0  0  0
   27.2686   31.4371   21.9001 O   0  0  0  0  0  0  0  0  0  0  0  0
   27.3274   35.3236   22.9705 C   0  0  2  0  0  0  0  0  0  0  0  0
   27.2880   33.9848   22.6385 N   0  0  0  0  0  0  0  0  0  0  0  0
   26.8979   35.7352   24.2298 C   0  0  0  0  0  0  0  0  0  0  0  0
   26.9264   37.0835   24.5716 C   0  0  1  0  0  0  0  0  0  0  0  0
   26.4691   37.5096   25.9394 C   0  0  0  0  0  0  0  0  0  0  0  0
   27.3922   38.0231   23.6448 C   0  0  1  0  0  0  0  0  0  0  0  0
   27.4493   39.4828   23.9891 C   0  0  0  0  0  0  0  0  0  0  0  0
   27.8211   37.6077   22.3877 C   0  0  0  0  0  0  0  0  0  0  0  0
   27.7912   36.2591   22.0407 C   0  0  2  0  0  0  0  0  0  0  0  0
   28.1804   34.5014   20.4589 C   0  0  2  0  0  0  0  0  0  0  0  0
   28.2103   35.8444   20.7821 N   0  0  0  0  0  0  0  0  0  0  0  0
  1  2  1  6  0  0  0
  1  3  1  0  0  0  0
  1  4  2  0  0  0  0
  1  6  1  0  0  0  0
  5  6  1  0  0  0  0
  7  5  1  6  0  0  0
  7  8  1  0  0  0  0
  7  9  1  0  0  0  0
  9 10  1  1  0  0  0
  9 11  1  0  0  0  0
 11 12  1  6  0  0  0
 11 13  1  0  0  0  0
 13 31  1  0  0  0  0
 14 15  1  0  0  0  0
 15 16  2  0  0  0  0
 15 17  1  0  0  0  0
 17 18  1  0  0  0  0
 18 20  2  0  0  0  0
 19 18  1  1  0  0  0
 19 22  1  0  0  0  0
 19 30  1  0  0  0  0
 21 23  1  6  0  0  0
 21 29  1  0  0  0  0
 21 22  1  0  0  0  0
 23 24  1  0  0  0  0
 24 25  1  1  0  0  0
 24 26  1  0  0  0  0
 26 27  1  1  0  0  0
 26 28  1  0  0  0  0
 29 28  1  6  0  0  0
 29 31  1  0  0  0  0
 30 14  1  6  0  0  0
 30 31  1  0  0  0  0
M  CHG  1   3  -1
M  END
>  <CHROM.1>
-79.06703660,-32.02519032,71.70130558,51.76398725,64.66017577,173.92269805
-59.46642151,27.43747570,37.62840117,19.99590445,-2.23250091,-1.36788791
2.01269811

>  <Name>
ligand

>  <RI>
0

>  <Rbt.Current_Directory>
/home/itssahil/PROJECTS/Mol_Feturizer/New_Systems/rnas/3F2Q

>  <Rbt.Executable>
rbdock ($Id: //depot/dev/client3/rdock/2013.1/src/exe/rbdock.cxx#4 $)

>  <Rbt.Library>
libRbt.so (2013.1, Build901 2013/11/27)

>  <Rbt.Parameter_File>
/export/apps/rDock/src/rDock_2013.1_src/data/scripts/dock_solv.prm

>  <Rbt.Receptor>
prm/pocket_docking_4.prm

>  <SCORE>
-34.0589

>  <SCORE.INTER>
-31.5771

>  <SCORE.INTER.CONST>
1

>  <SCORE.INTER.POLAR>
0

>  <SCORE.INTER.ROT>
7

>  <SCORE.INTER.SOLV>
17.1518

>  <SCORE.INTER.VDW>
-35.0353

>  <SCORE.INTER.norm>
-1.01862

>  <SCORE.INTRA>
-2.48184

>  <SCORE.INTRA.DIHEDRAL>
-5.14534

>  <SCORE.INTRA.DIHEDRAL.0>
10.0718

>  <SCORE.INTRA.POLAR>
0

>  <SCORE.INTRA.POLAR.0>
0

>  <SCORE.INTRA.REPUL>
0

>  <SCORE.INTRA.REPUL.0>
0

>  <SCORE.INTRA.SOLV>
0.99204

>  <SCORE.INTRA.SOLV.lig_0>
-48.6963

>  <SCORE.INTRA.VDW>
-0.40519

>  <SCORE.INTRA.VDW.0>
-0.836976

>  <SCORE.INTRA.norm>
-0.0800593

>  <SCORE.RESTR>
0

>  <SCORE.RESTR.CAVITY>
0

>  <SCORE.RESTR.norm>
0

>  <SCORE.SYSTEM>
0

>  <SCORE.SYSTEM.CONST>
0

>  <SCORE.SYSTEM.DIHEDRAL>
0

>  <SCORE.SYSTEM.SOLV>
0

>  <SCORE.SYSTEM.norm>
0

>  <SCORE.heavy>
31

>  <SCORE.norm>
-1.09868

>  <RMSD>
1.165

$$$$
ligand
 OpenBabel11021811473D
libRbt.so/2013.1/901 2013/11/27
 31 33  0  0  0  0  0  0  0  0999 V2000
   25.9257   42.1361   17.1880 P   0  0  1  0  0  0  0  0  0  0  0  0
   24.7392   41.7607   18.0500 O   0  0  0  0  0  0  0  0  0  0  0  0
   25.3992   42.6716   15.8837 O   0  5  0  0  0  0  0  0  0  0  0  0
   26.7496   43.1932   17.8702 O   0  0  0  0  0  0  0  0  0  0  0  0
   27.6968   40.4336   18.0521 C   0  0  0  0  0  0  0  0  0  0  0  0
   26.8707   40.8584   16.9954 O   0  0  0  0  0  0  0  0  0  0  0  0
   28.5628   39.2775   17.5736 C   0  0  1  0  0  0  0  0  0  0  0  0
   29.6417   39.1208   18.4706 O   0  0  0  0  0  0  0  0  0  0  0  0
   27.7387   37.9921   17.5005 C   0  0  1  0  0  0  0  0  0  0  0  0
   28.4406   37.0207   16.7546 O   0  0  0  0  0  0  0  0  0  0  0  0
   27.3237   37.4449   18.8734 C   0  0  1  0  0  0  0  0  0  0  0  0
   26.3608   36.4271   18.7134 O   0  0  0  0  0  0  0  0  0  0  0  0
   28.5013   36.8972   19.6639 C   0  0  0  0  0  0  0  0  0  0  0  0
   28.4392   34.1266   19.1130 N   0  0  0  0  0  0  0  0  0  0  0  0
   28.4769   32.7799   18.8140 C   0  0  0  0  0  0  0  0  0  0  0  0
   28.8157   32.4046   17.6881 O   0  0  0  0  0  0  0  0  0  0  0  0
   28.1243   31.8571   19.7779 N   0  0  0  0  0  0  0  0  0  0  0  0
   27.7354   32.2756   21.0366 C   0  0  0  0  0  0  0  0  0  0  0  0
   27.6983   33.6206   21.3399 C   0  0  1  0  0  0  0  0  0  0  0  0
   27.4275   31.4636   21.9074 O   0  0  0  0  0  0  0  0  0  0  0  0
   27.2771   35.3649   22.9130 C   0  0  2  0  0  0  0  0  0  0  0  0
   27.3117   34.0205   22.6044 N   0  0  0  0  0  0  0  0  0  0  0  0
   26.8857   35.7707   24.1866 C   0  0  0  0  0  0  0  0  0  0  0  0
   26.8402   37.1242   24.5055 C   0  0  1  0  0  0  0  0  0  0  0  0
   26.4257   37.5445   25.8886 C   0  0  0  0  0  0  0  0  0  0  0  0
   27.1930   38.0751   23.5412 C   0  0  1  0  0  0  0  0  0  0  0  0
   27.1685   39.5416   23.8594 C   0  0  0  0  0  0  0  0  0  0  0  0
   27.5842   37.6655   22.2699 C   0  0  0  0  0  0  0  0  0  0  0  0
   27.6282   36.3116   21.9458 C   0  0  2  0  0  0  0  0  0  0  0  0
   28.0542   34.5542   20.3733 C   0  0  2  0  0  0  0  0  0  0  0  0
   28.0094   35.9021   20.6736 N   0  0  0  0  0  0  0  0  0  0  0  0
  1  2  1  1  0  0  0
  1  3  1  0  0  0  0
  1  4  2  0  0  0  0
  1  6  1  0  0  0  0
  5  6  1  0  0  0  0
  7  5  1  1  0  0  0
  7  8  1  0  0  0  0
  7  9  1  0  0  0  0
  9 10  1  1  0  0  0
  9 11  1  0  0  0  0
 11 12  1  6  0  0  0
 11 13  1  0  0  0  0
 13 31  1  0  0  0  0
 14 15  1  0  0  0  0
 15 16  2  0  0  0  0
 15 17  1  0  0  0  0
 17 18  1  0  0  0  0
 18 20  2  0  0  0  0
 19 18  1  1  0  0  0
 19 22  1  0  0  0  0
 19 30  1  0  0  0  0
 21 23  1  6  0  0  0
 21 29  1  0  0  0  0
 21 22  1  0  0  0  0
 23 24  1  0  0  0  0
 24 25  1  1  0  0  0
 24 26  1  0  0  0  0
 26 27  1  1  0  0  0
 26 28  1  0  0  0  0
 29 28  1  6  0  0  0
 29 31  1  0  0  0  0
 30 14  1  6  0  0  0
 30 31  1  0  0  0  0
M  CHG  1   3  -1
M  END
>  <CHROM.1>
-175.62268881,-75.26654899,162.69161805,165.54412954,168.48086709,-156.55770419
-89.03957905,27.37409411,37.27711102,19.88330215,2.17277658,1.31957517,-1.07279146

>  <Name>
ligand

>  <RI>
0

>  <Rbt.Current_Directory>
/home/itssahil/PROJECTS/Mol_Feturizer/New_Systems/rnas/3F2Q

>  <Rbt.Executable>
rbdock ($Id: //depot/dev/client3/rdock/2013.1/src/exe/rbdock.cxx#4 $)

>  <Rbt.Library>
libRbt.so (2013.1, Build901 2013/11/27)

>  <Rbt.Parameter_File>
/export/apps/rDock/src/rDock_2013.1_src/data/scripts/dock_solv.prm

>  <Rbt.Receptor>
prm/pocket_docking_3.prm

>  <SCORE>
-33.9596

>  <SCORE.INTER>
-30.826

>  <SCORE.INTER.CONST>
1

>  <SCORE.INTER.POLAR>
0

>  <SCORE.INTER.ROT>
7

>  <SCORE.INTER.SOLV>
17.1429

>  <SCORE.INTER.VDW>
-34.5316

>  <SCORE.INTER.norm>
-0.994387

>  <SCORE.INTRA>
-3.13369

>  <SCORE.INTRA.DIHEDRAL>
-4.13342

>  <SCORE.INTRA.DIHEDRAL.0>
10.0718

>  <SCORE.INTRA.POLAR>
0

>  <SCORE.INTRA.POLAR.0>
0

>  <SCORE.INTRA.REPUL>
0

>  <SCORE.INTRA.REPUL.0>
0

>  <SCORE.INTRA.SOLV>
-1.13834

>  <SCORE.INTRA.SOLV.lig_0>
-48.6963

>  <SCORE.INTRA.VDW>
-0.497815

>  <SCORE.INTRA.VDW.0>
-0.836976

>  <SCORE.INTRA.norm>
-0.101087

>  <SCORE.RESTR>
7.6226e-05

>  <SCORE.RESTR.CAVITY>
7.6226e-05

>  <SCORE.RESTR.norm>
2.4589e-06

>  <SCORE.SYSTEM>
0

>  <SCORE.SYSTEM.CONST>
0

>  <SCORE.SYSTEM.DIHEDRAL>
0

>  <SCORE.SYSTEM.SOLV>
0

>  <SCORE.SYSTEM.norm>
0

>  <SCORE.heavy>
31

>  <SCORE.norm>
-1.09547

>  <RMSD>
1.173

$$$$
ligand
 OpenBabel11021811473D
libRbt.so/2013.1/901 2013/11/27
 31 33  0  0  0  0  0  0  0  0999 V2000
   27.6107   42.3428   16.6296 P   0  0  1  0  0  0  0  0  0  0  0  0
   26.5057   42.0451   15.6386 O   0  0  0  0  0  0  0  0  0  0  0  0
   28.9009   41.8241   16.0539 O   0  5  0  0  0  0  0  0  0  0  0  0
   27.7205   43.8257   16.8551 O   0  0  0  0  0  0  0  0  0  0  0  0
   26.9055   40.3184   18.1081 C   0  0  0  0  0  0  0  0  0  0  0  0
   27.2533   41.6800   18.0422 O   0  0  0  0  0  0  0  0  0  0  0  0
   28.1412   39.4747   17.8315 C   0  0  1  0  0  0  0  0  0  0  0  0
   29.0239   39.5950   18.9267 O   0  0  0  0  0  0  0  0  0  0  0  0
   27.7490   38.0123   17.6206 C   0  0  1  0  0  0  0  0  0  0  0  0
   28.8214   37.3152   17.0235 O   0  0  0  0  0  0  0  0  0  0  0  0
   27.2731   37.3093   18.8996 C   0  0  1  0  0  0  0  0  0  0  0  0
   26.5737   36.1305   18.5676 O   0  0  0  0  0  0  0  0  0  0  0  0
   28.4196   36.9617   19.8357 C   0  0  0  0  0  0  0  0  0  0  0  0
   28.4391   34.1929   19.2728 N   0  0  0  0  0  0  0  0  0  0  0  0
   28.5164   32.8492   18.9679 C   0  0  0  0  0  0  0  0  0  0  0  0
   28.8658   32.4890   17.8404 O   0  0  0  0  0  0  0  0  0  0  0  0
   28.1915   31.9122   19.9279 N   0  0  0  0  0  0  0  0  0  0  0  0
   27.7908   32.3135   21.1884 C   0  0  0  0  0  0  0  0  0  0  0  0
   27.7141   33.6556   21.4976 C   0  0  1  0  0  0  0  0  0  0  0  0
   27.5072   31.4891   22.0558 O   0  0  0  0  0  0  0  0  0  0  0  0
   27.2421   35.3798   23.0783 C   0  0  2  0  0  0  0  0  0  0  0  0
   27.3162   34.0383   22.7638 N   0  0  0  0  0  0  0  0  0  0  0  0
   26.8392   35.7682   24.3538 C   0  0  0  0  0  0  0  0  0  0  0  0
   26.7538   37.1184   24.6786 C   0  0  1  0  0  0  0  0  0  0  0  0
   26.3275   37.5203   26.0636 C   0  0  0  0  0  0  0  0  0  0  0  0
   27.0782   38.0835   23.7184 C   0  0  1  0  0  0  0  0  0  0  0  0
   27.0105   39.5473   24.0430 C   0  0  0  0  0  0  0  0  0  0  0  0
   27.4809   37.6912   22.4453 C   0  0  0  0  0  0  0  0  0  0  0  0
   27.5647   36.3406   22.1153 C   0  0  2  0  0  0  0  0  0  0  0  0
   28.0420   34.6035   20.5350 C   0  0  2  0  0  0  0  0  0  0  0  0
   27.9575   35.9481   20.8412 N   0  0  0  0  0  0  0  0  0  0  0  0
  1  2  1  6  0  0  0
  1  3  1  0  0  0  0
  1  4  2  0  0  0  0
  1  6  1  0  0  0  0
  5  6  1  0  0  0  0
  7  5  1  1  0  0  0
  7  8  1  0  0  0  0
  7  9  1  0  0  0  0
  9 10  1  1  0  0  0
  9 11  1  0  0  0  0
 11 12  1  6  0  0  0
 11 13  1  0  0  0  0
 13 31  1  0  0  0  0
 14 15  1  0  0  0  0
 15 16  2  0  0  0  0
 15 17  1  0  0  0  0
 17 18  1  0  0  0  0
 18 20  2  0  0  0  0
 19 18  1  1  0  0  0
 19 22  1  0  0  0  0
 19 30  1  0  0  0  0
 21 23  1  6  0  0  0
 21 29  1  0  0  0  0
 21 22  1  0  0  0  0
 23 24  1  0  0  0  0
 24 25  1  1  0  0  0
 24 26  1  0  0  0  0
 26 27  1  1  0  0  0
 26 28  1  0  0  0  0
 29 28  1  6  0  0  0
 29 31  1  0  0  0  0
 30 14  1  6  0  0  0
 30 31  1  0  0  0  0
M  CHG  1   3  -1
M  END
>  <CHROM.1>
70.40478916,51.79846148,70.06243733,164.47820218,162.80965975,-163.56175881
-98.22372932,27.67250786,37.35692871,19.89233472,-1.52898964,-1.36212252
2.60937855

>  <Name>
ligand

>  <RI>
0

>  <Rbt.Current_Directory>
/home/itssahil/PROJECTS/Mol_Feturizer/New_Systems/rnas/3F2Q

>  <Rbt.Executable>
rbdock ($Id: //depot/dev/client3/rdock/2013.1/src/exe/rbdock.cxx#4 $)

>  <Rbt.Library>
libRbt.so (2013.1, Build901 2013/11/27)

>  <Rbt.Parameter_File>
/export/apps/rDock/src/rDock_2013.1_src/data/scripts/dock_solv.prm

>  <Rbt.Receptor>
prm/blind_docking_80.prm

>  <SCORE>
-34.9415

>  <SCORE.INTER>
-32.0471

>  <SCORE.INTER.CONST>
1

>  <SCORE.INTER.POLAR>
0

>  <SCORE.INTER.ROT>
7

>  <SCORE.INTER.SOLV>
20.9636

>  <SCORE.INTER.VDW>
-36.6193

>  <SCORE.INTER.norm>
-1.03378

>  <SCORE.INTRA>
-2.89443

>  <SCORE.INTRA.DIHEDRAL>
-4.80747

>  <SCORE.INTRA.DIHEDRAL.0>
10.0718

>  <SCORE.INTRA.POLAR>
0

>  <SCORE.INTRA.POLAR.0>
0

>  <SCORE.INTRA.REPUL>
0

>  <SCORE.INTRA.REPUL.0>
0

>  <SCORE.INTRA.SOLV>
0.784258

>  <SCORE.INTRA.SOLV.lig_0>
-48.6963

>  <SCORE.INTRA.VDW>
-0.882818

>  <SCORE.INTRA.VDW.0>
-0.836976

>  <SCORE.INTRA.norm>
-0.0933686

>  <SCORE.RESTR>
0

>  <SCORE.RESTR.CAVITY>
0

>  <SCORE.RESTR.norm>
0

>  <SCORE.SYSTEM>
0

>  <SCORE.SYSTEM.CONST>
0

>  <SCORE.SYSTEM.DIHEDRAL>
0

>  <SCORE.SYSTEM.SOLV>
0

>  <SCORE.SYSTEM.norm>
0

>  <SCORE.heavy>
31

>  <SCORE.norm>
-1.12715

>  <RMSD>
1.176

$$$$
ligand
 OpenBabel11021811473D
libRbt.so/2013.1/901 2013/11/27
 31 33  0  0  0  0  0  0  0  0999 V2000
   26.4552   41.9849   16.9258 P   0  0  1  0  0  0  0  0  0  0  0  0
   25.6353   42.6056   15.8150 O   0  0  0  0  0  0  0  0  0  0  0  0
   27.3720   43.0459   17.4727 O   0  5  0  0  0  0  0  0  0  0  0  0
   25.5531   41.4861   18.0209 O   0  0  0  0  0  0  0  0  0  0  0  0
   28.4814   40.3490   16.9275 C   0  0  0  0  0  0  0  0  0  0  0  0
   27.2481   40.7153   16.3583 O   0  0  0  0  0  0  0  0  0  0  0  0
   28.2281   39.6258   18.2421 C   0  0  1  0  0  0  0  0  0  0  0  0
   27.7661   40.5636   19.1911 O   0  0  0  0  0  0  0  0  0  0  0  0
   27.1978   38.5137   18.0461 C   0  0  1  0  0  0  0  0  0  0  0  0
   27.5912   37.6870   16.9717 O   0  0  0  0  0  0  0  0  0  0  0  0
   26.9303   37.6885   19.3125 C   0  0  1  0  0  0  0  0  0  0  0  0
   25.9414   36.7172   19.0527 O   0  0  0  0  0  0  0  0  0  0  0  0
   28.1806   36.9994   19.8353 C   0  0  0  0  0  0  0  0  0  0  0  0
   28.2362   34.2363   19.2472 N   0  0  0  0  0  0  0  0  0  0  0  0
   28.3293   32.8973   18.9265 C   0  0  0  0  0  0  0  0  0  0  0  0
   28.6271   32.5543   17.7790 O   0  0  0  0  0  0  0  0  0  0  0  0
   28.0779   31.9453   19.8938 N   0  0  0  0  0  0  0  0  0  0  0  0
   27.7348   32.3270   21.1772 C   0  0  0  0  0  0  0  0  0  0  0  0
   27.6426   33.6644   21.5021 C   0  0  1  0  0  0  0  0  0  0  0  0
   27.5170   31.4892   22.0508 O   0  0  0  0  0  0  0  0  0  0  0  0
   27.2138   35.3644   23.1209 C   0  0  2  0  0  0  0  0  0  0  0  0
   27.3031   34.0275   22.7909 N   0  0  0  0  0  0  0  0  0  0  0  0
   26.8697   35.7330   24.4192 C   0  0  0  0  0  0  0  0  0  0  0  0
   26.7695   37.0782   24.7603 C   0  0  1  0  0  0  0  0  0  0  0  0
   26.4074   37.4589   26.1693 C   0  0  0  0  0  0  0  0  0  0  0  0
   27.0196   38.0582   23.7930 C   0  0  1  0  0  0  0  0  0  0  0  0
   26.9343   39.5174   24.1340 C   0  0  0  0  0  0  0  0  0  0  0  0
   27.3638   37.6857   22.4970 C   0  0  0  0  0  0  0  0  0  0  0  0
   27.4622   36.3401   22.1509 C   0  0  2  0  0  0  0  0  0  0  0  0
   27.8966   34.6273   20.5321 C   0  0  2  0  0  0  0  0  0  0  0  0
   27.7964   35.9672   20.8545 N   0  0  0  0  0  0  0  0  0  0  0  0
  1  2  1  6  0  0  0
  1  3  1  0  0  0  0
  1  4  2  0  0  0  0
  1  6  1  0  0  0  0
  5  6  1  0  0  0  0
  7  5  1  6  0  0  0
  7  8  1  0  0  0  0
  7  9  1  0  0  0  0
  9 10  1  6  0  0  0
  9 11  1  0  0  0  0
 11 12  1  6  0  0  0
 11 13  1  0  0  0  0
 13 31  1  0  0  0  0
 14 15  1  0  0  0  0
 15 16  2  0  0  0  0
 15 17  1  0  0  0  0
 17 18  1  0  0  0  0
 18 20  2  0  0  0  0
 19 18  1  1  0  0  0
 19 22  1  0  0  0  0
 19 30  1  0  0  0  0
 21 23  1  6  0  0  0
 21 29  1  0  0  0  0
 21 22  1  0  0  0  0
 23 24  1  0  0  0  0
 24 25  1  1  0  0  0
 24 26  1  0  0  0  0
 26 27  1  1  0  0  0
 26 28  1  0  0  0  0
 29 28  1  6  0  0  0
 29 31  1  0  0  0  0
 30 14  1  6  0  0  0
 30 31  1  0  0  0  0
M  CHG  1   3  -1
M  END
>  <CHROM.1>
77.70112179,150.62062247,-70.93998399,52.13025016,178.16962735,-166.54371160
-77.91854258,27.29384957,37.37993195,19.98713250,-2.01912751,-1.37821463
2.13038037

>  <Name>
ligand

>  <RI>
0

>  <Rbt.Current_Directory>
/home/itssahil/PROJECTS/Mol_Feturizer/New_Systems/rnas/3F2Q

>  <Rbt.Executable>
rbdock ($Id: //depot/dev/client3/rdock/2013.1/src/exe/rbdock.cxx#4 $)

>  <Rbt.Library>
libRbt.so (2013.1, Build901 2013/11/27)

>  <Rbt.Parameter_File>
/export/apps/rDock/src/rDock_2013.1_src/data/scripts/dock_solv.prm

>  <Rbt.Receptor>
prm/pocket_docking_2.prm

>  <SCORE>
-34.3572

>  <SCORE.INTER>
-32.7695

>  <SCORE.INTER.CONST>
1

>  <SCORE.INTER.POLAR>
0

>  <SCORE.INTER.ROT>
7

>  <SCORE.INTER.SOLV>
15.7791

>  <SCORE.INTER.VDW>
-35.3727

>  <SCORE.INTER.norm>
-1.05708

>  <SCORE.INTRA>
-1.59005

>  <SCORE.INTRA.DIHEDRAL>
-4.71416

>  <SCORE.INTRA.DIHEDRAL.0>
10.0718

>  <SCORE.INTRA.POLAR>
0

>  <SCORE.INTRA.POLAR.0>
0

>  <SCORE.INTRA.REPUL>
0

>  <SCORE.INTRA.REPUL.0>
0

>  <SCORE.INTRA.SOLV>
3.82118

>  <SCORE.INTRA.SOLV.lig_0>
-48.6963

>  <SCORE.INTRA.VDW>
-1.14356

>  <SCORE.INTRA.VDW.0>
-0.836976

>  <SCORE.INTRA.norm>
-0.0512921

>  <SCORE.RESTR>
0.00239177

>  <SCORE.RESTR.CAVITY>
0.00239177

>  <SCORE.RESTR.norm>
7.71538e-05

>  <SCORE.SYSTEM>
0

>  <SCORE.SYSTEM.CONST>
0

>  <SCORE.SYSTEM.DIHEDRAL>
0

>  <SCORE.SYSTEM.SOLV>
0

>  <SCORE.SYSTEM.norm>
0

>  <SCORE.heavy>
31

>  <SCORE.norm>
-1.1083

>  <RMSD>
1.186

$$$$
ligand
 OpenBabel11021811473D
libRbt.so/2013.1/901 2013/11/27
 31 33  0  0  0  0  0  0  0  0999 V2000
   26.1412   41.8981   17.3346 P   0  0  1  0  0  0  0  0  0  0  0  0
   26.6988   41.1564   16.1386 O   0  0  0  0  0  0  0  0  0  0  0  0
   27.0645   43.0472   17.6383 O   0  5  0  0  0  0  0  0  0  0  0  0
   24.7671   42.4251   17.0246 O   0  0  0  0  0  0  0  0  0  0  0  0
   27.1069   40.5743   19.3586 C   0  0  0  0  0  0  0  0  0  0  0  0
   25.9875   40.8865   18.5657 O   0  0  0  0  0  0  0  0  0  0  0  0
   28.1185   39.8129   18.5146 C   0  0  1  0  0  0  0  0  0  0  0  0
   29.2632   39.5602   19.3015 O   0  0  0  0  0  0  0  0  0  0  0  0
   27.5133   38.5006   18.0163 C   0  0  1  0  0  0  0  0  0  0  0  0
   28.3875   37.8985   17.0858 O   0  0  0  0  0  0  0  0  0  0  0  0
   27.1420   37.5246   19.1414 C   0  0  1  0  0  0  0  0  0  0  0  0
   26.3070   36.5060   18.6371 O   0  0  0  0  0  0  0  0  0  0  0  0
   28.3619   36.8924   19.7921 C   0  0  0  0  0  0  0  0  0  0  0  0
   28.4246   34.1196   19.2527 N   0  0  0  0  0  0  0  0  0  0  0  0
   28.5227   32.7748   18.9588 C   0  0  0  0  0  0  0  0  0  0  0  0
   28.8727   32.4106   17.8328 O   0  0  0  0  0  0  0  0  0  0  0  0
   28.2178   31.8408   19.9283 N   0  0  0  0  0  0  0  0  0  0  0  0
   27.8164   32.2463   21.1873 C   0  0  0  0  0  0  0  0  0  0  0  0
   27.7190   33.5895   21.4854 C   0  0  1  0  0  0  0  0  0  0  0  0
   27.5505   31.4247   22.0630 O   0  0  0  0  0  0  0  0  0  0  0  0
   27.2259   35.3192   23.0537 C   0  0  2  0  0  0  0  0  0  0  0  0
   27.3207   33.9765   22.7503 N   0  0  0  0  0  0  0  0  0  0  0  0
   26.8226   35.7119   24.3277 C   0  0  0  0  0  0  0  0  0  0  0  0
   26.7164   37.0632   24.6415 C   0  0  1  0  0  0  0  0  0  0  0  0
   26.2900   37.4699   26.0250 C   0  0  0  0  0  0  0  0  0  0  0  0
   27.0203   38.0252   23.6715 C   0  0  1  0  0  0  0  0  0  0  0  0
   26.9299   39.4904   23.9840 C   0  0  0  0  0  0  0  0  0  0  0  0
   27.4235   37.6287   22.3998 C   0  0  0  0  0  0  0  0  0  0  0  0
   27.5281   36.2769   22.0809 C   0  0  2  0  0  0  0  0  0  0  0  0
   28.0267   34.5343   20.5132 C   0  0  2  0  0  0  0  0  0  0  0  0
   27.9214   35.8800   20.8084 N   0  0  0  0  0  0  0  0  0  0  0  0
  1  2  1  6  0  0  0
  1  3  1  0  0  0  0
  1  4  2  0  0  0  0
  1  6  1  0  0  0  0
  5  6  1  0  0  0  0
  7  5  1  1  0  0  0
  7  8  1  0  0  0  0
  7  9  1  0  0  0  0
  9 10  1  6  0  0  0
  9 11  1  0  0  0  0
 11 12  1  6  0  0  0
 11 13  1  0  0  0  0
 13 31  1  0  0  0  0
 14 15  1  0  0  0  0
 15 16  2  0  0  0  0
 15 17  1  0  0  0  0
 17 18  1  0  0  0  0
 18 20  2  0  0  0  0
 19 18  1  1  0  0  0
 19 22  1  0  0  0  0
 19 30  1  0  0  0  0
 21 23  1  6  0  0  0
 21 29  1  0  0  0  0
 21 22  1  0  0  0  0
 23 24  1  0  0  0  0
 24 25  1  1  0  0  0
 24 26  1  0  0  0  0
 26 27  1  1  0  0  0
 26 28  1  0  0  0  0
 29 28  1  6  0  0  0
 29 31  1  0  0  0  0
 30 14  1  6  0  0  0
 30 31  1  0  0  0  0
M  CHG  1   3  -1
M  END
>  <CHROM.1>
-65.72944375,81.40432897,177.26953801,171.74575480,165.67137948,-175.87833825
-81.13990212,27.33030204,37.29464820,20.12208406,-2.15733926,-1.33183699
2.09348064

>  <Name>
ligand

>  <RI>
0

>  <Rbt.Current_Directory>
/home/itssahil/PROJECTS/Mol_Feturizer/New_Systems/rnas/3F2Q

>  <Rbt.Executable>
rbdock ($Id: //depot/dev/client3/rdock/2013.1/src/exe/rbdock.cxx#4 $)

>  <Rbt.Library>
libRbt.so (2013.1, Build901 2013/11/27)

>  <Rbt.Parameter_File>
/export/apps/rDock/src/rDock_2013.1_src/data/scripts/dock_solv.prm

>  <Rbt.Receptor>
prm/pocket_docking_4.prm

>  <SCORE>
-35.9808

>  <SCORE.INTER>
-31.2817

>  <SCORE.INTER.CONST>
1

>  <SCORE.INTER.POLAR>
0

>  <SCORE.INTER.ROT>
7

>  <SCORE.INTER.SOLV>
16.6563

>  <SCORE.INTER.VDW>
-34.6732

>  <SCORE.INTER.norm>
-1.00909

>  <SCORE.INTRA>
-4.69915

>  <SCORE.INTRA.DIHEDRAL>
-6.68876

>  <SCORE.INTRA.DIHEDRAL.0>
10.0718

>  <SCORE.INTRA.POLAR>
0

>  <SCORE.INTRA.POLAR.0>
0

>  <SCORE.INTRA.REPUL>
0

>  <SCORE.INTRA.REPUL.0>
0

>  <SCORE.INTRA.SOLV>
-0.0127534

>  <SCORE.INTRA.SOLV.lig_0>
-48.6963

>  <SCORE.INTRA.VDW>
-1.3484

>  <SCORE.INTRA.VDW.0>
-0.836976

>  <SCORE.INTRA.norm>
-0.151586

>  <SCORE.RESTR>
0

>  <SCORE.RESTR.CAVITY>
0

>  <SCORE.RESTR.norm>
0

>  <SCORE.SYSTEM>
0

>  <SCORE.SYSTEM.CONST>
0

>  <SCORE.SYSTEM.DIHEDRAL>
0

>  <SCORE.SYSTEM.SOLV>
0

>  <SCORE.SYSTEM.norm>
0

>  <SCORE.heavy>
31

>  <SCORE.norm>
-1.16067

>  <RMSD>
1.191

$$$$
ligand
 OpenBabel11021811473D
libRbt.so/2013.1/901 2013/11/27
 31 33  0  0  0  0  0  0  0  0999 V2000
   26.5793   42.9310   16.7087 P   0  0  1  0  0  0  0  0  0  0  0  0
   26.4970   42.5070   15.2578 O   0  0  0  0  0  0  0  0  0  0  0  0
   27.8688   43.6834   16.8986 O   0  5  0  0  0  0  0  0  0  0  0  0
   25.4199   43.8239   17.0554 O   0  0  0  0  0  0  0  0  0  0  0  0
   26.6387   41.7713   19.0396 C   0  0  0  0  0  0  0  0  0  0  0  0
   26.4727   41.6397   17.6488 O   0  0  0  0  0  0  0  0  0  0  0  0
   26.3424   40.4355   19.7053 C   0  0  1  0  0  0  0  0  0  0  0  0
   25.1004   39.9607   19.2307 O   0  0  0  0  0  0  0  0  0  0  0  0
   27.4516   39.4304   19.3951 C   0  0  1  0  0  0  0  0  0  0  0  0
   28.5993   39.7410   20.1559 O   0  0  0  0  0  0  0  0  0  0  0  0
   27.0330   37.9669   19.5938 C   0  0  1  0  0  0  0  0  0  0  0  0
   26.3290   37.5108   18.4602 O   0  0  0  0  0  0  0  0  0  0  0  0
   28.2189   37.0497   19.8465 C   0  0  0  0  0  0  0  0  0  0  0  0
   28.3145   34.2900   19.2480 N   0  0  0  0  0  0  0  0  0  0  0  0
   28.4271   32.9536   18.9227 C   0  0  0  0  0  0  0  0  0  0  0  0
   28.7366   32.6191   17.7757 O   0  0  0  0  0  0  0  0  0  0  0  0
   28.1821   31.9945   19.8846 N   0  0  0  0  0  0  0  0  0  0  0  0
   27.8260   32.3666   21.1673 C   0  0  0  0  0  0  0  0  0  0  0  0
   27.7142   33.7013   21.4968 C   0  0  1  0  0  0  0  0  0  0  0  0
   27.6138   31.5225   22.0362 O   0  0  0  0  0  0  0  0  0  0  0  0
   27.2530   35.3891   23.1195 C   0  0  2  0  0  0  0  0  0  0  0  0
   27.3619   34.0549   22.7848 N   0  0  0  0  0  0  0  0  0  0  0  0
   26.8959   35.7480   24.4170 C   0  0  0  0  0  0  0  0  0  0  0  0
   26.7759   37.0904   24.7627 C   0  0  1  0  0  0  0  0  0  0  0  0
   26.4000   37.4607   26.1709 C   0  0  0  0  0  0  0  0  0  0  0  0
   27.0193   38.0775   23.8009 C   0  0  1  0  0  0  0  0  0  0  0  0
   26.9128   39.5340   24.1470 C   0  0  0  0  0  0  0  0  0  0  0  0
   27.3765   37.7147   22.5057 C   0  0  0  0  0  0  0  0  0  0  0  0
   27.4947   36.3719   22.1549 C   0  0  2  0  0  0  0  0  0  0  0  0
   27.9617   34.6714   20.5323 C   0  0  2  0  0  0  0  0  0  0  0  0
   27.8419   36.0085   20.8592 N   0  0  0  0  0  0  0  0  0  0  0  0
  1  2  1  6  0  0  0
  1  3  1  0  0  0  0
  1  4  2  0  0  0  0
  1  6  1  0  0  0  0
  5  6  1  0  0  0  0
  7  5  1  6  0  0  0
  7  8  1  0  0  0  0
  7  9  1  0  0  0  0
  9 10  1  1  0  0  0
  9 11  1  0  0  0  0
 11 12  1  6  0  0  0
 11 13  1  0  0  0  0
 13 31  1  0  0  0  0
 14 15  1  0  0  0  0
 15 16  2  0  0  0  0
 15 17  1  0  0  0  0
 17 18  1  0  0  0  0
 18 20  2  0  0  0  0
 19 18  1  1  0  0  0
 19 22  1  0  0  0  0
 19 30  1  0  0  0  0
 21 23  1  6  0  0  0
 21 29  1  0  0  0  0
 21 22  1  0  0  0  0
 23 24  1  0  0  0  0
 24 25  1  1  0  0  0
 24 26  1  0  0  0  0
 26 27  1  1  0  0  0
 26 28  1  0  0  0  0
 29 28  1  6  0  0  0
 29 31  1  0  0  0  0
 30 14  1  6  0  0  0
 30 31  1  0  0  0  0
M  CHG  1   3  -1
M  END
>  <CHROM.1>
173.96161761,174.61336113,-50.28032662,74.75151586,81.75128041,142.34330636
-62.93951888,27.19949760,37.78312372,20.19311708,-2.18066559,-1.36270248
2.06398331

>  <Name>
ligand

>  <RI>
0

>  <Rbt.Current_Directory>
/home/itssahil/PROJECTS/Mol_Feturizer/New_Systems/rnas/3F2Q

>  <Rbt.Executable>
rbdock ($Id: //depot/dev/client3/rdock/2013.1/src/exe/rbdock.cxx#4 $)

>  <Rbt.Library>
libRbt.so (2013.1, Build901 2013/11/27)

>  <Rbt.Parameter_File>
/export/apps/rDock/src/rDock_2013.1_src/data/scripts/dock_solv.prm

>  <Rbt.Receptor>
prm/blind_docking_80.prm

>  <SCORE>
-34.2364

>  <SCORE.INTER>
-31.9118

>  <SCORE.INTER.CONST>
1

>  <SCORE.INTER.POLAR>
0

>  <SCORE.INTER.ROT>
7

>  <SCORE.INTER.SOLV>
20.0413

>  <SCORE.INTER.VDW>
-36.2216

>  <SCORE.INTER.norm>
-1.02941

>  <SCORE.INTRA>
-2.32464

>  <SCORE.INTRA.DIHEDRAL>
-2.25374

>  <SCORE.INTRA.DIHEDRAL.0>
10.0718

>  <SCORE.INTRA.POLAR>
0

>  <SCORE.INTRA.POLAR.0>
0

>  <SCORE.INTRA.REPUL>
0

>  <SCORE.INTRA.REPUL.0>
0

>  <SCORE.INTRA.SOLV>
-0.649455

>  <SCORE.INTRA.SOLV.lig_0>
-48.6963

>  <SCORE.INTRA.VDW>
-0.873046

>  <SCORE.INTRA.VDW.0>
-0.836976

>  <SCORE.INTRA.norm>
-0.0749885

>  <SCORE.RESTR>
0

>  <SCORE.RESTR.CAVITY>
0

>  <SCORE.RESTR.norm>
0

>  <SCORE.SYSTEM>
0

>  <SCORE.SYSTEM.CONST>
0

>  <SCORE.SYSTEM.DIHEDRAL>
0

>  <SCORE.SYSTEM.SOLV>
0

>  <SCORE.SYSTEM.norm>
0

>  <SCORE.heavy>
31

>  <SCORE.norm>
-1.1044

>  <RMSD>
1.195

$$$$
ligand
 OpenBabel11021811473D
libRbt.so/2013.1/901 2013/11/27
 31 33  0  0  0  0  0  0  0  0999 V2000
   25.9787   42.7123   16.4993 P   0  0  1  0  0  0  0  0  0  0  0  0
   24.4969   43.0170   16.4463 O   0  0  0  0  0  0  0  0  0  0  0  0
   26.5719   43.0645   15.1617 O   0  5  0  0  0  0  0  0  0  0  0  0
   26.6393   43.5311   17.5741 O   0  0  0  0  0  0  0  0  0  0  0  0
   27.4959   40.6475   16.9647 C   0  0  0  0  0  0  0  0  0  0  0  0
   26.1935   41.1735   16.8850 O   0  0  0  0  0  0  0  0  0  0  0  0
   27.4180   39.1843   17.3750 C   0  0  1  0  0  0  0  0  0  0  0  0
   28.7019   38.6111   17.2473 O   0  0  0  0  0  0  0  0  0  0  0  0
   26.9205   39.0629   18.8153 C   0  0  1  0  0  0  0  0  0  0  0  0
   25.7302   39.8058   18.9701 O   0  0  0  0  0  0  0  0  0  0  0  0
   26.7353   37.6133   19.2852 C   0  0  1  0  0  0  0  0  0  0  0  0
   26.1841   36.8379   18.2442 O   0  0  0  0  0  0  0  0  0  0  0  0
   28.0378   36.9775   19.7444 C   0  0  0  0  0  0  0  0  0  0  0  0
   28.1654   34.2120   19.1797 N   0  0  0  0  0  0  0  0  0  0  0  0
   28.2913   32.8738   18.8667 C   0  0  0  0  0  0  0  0  0  0  0  0
   28.5381   32.5292   17.7076 O   0  0  0  0  0  0  0  0  0  0  0  0
   28.1298   31.9241   19.8552 N   0  0  0  0  0  0  0  0  0  0  0  0
   27.8439   32.3073   21.1521 C   0  0  0  0  0  0  0  0  0  0  0  0
   27.7192   33.6438   21.4692 C   0  0  1  0  0  0  0  0  0  0  0  0
   27.7065   31.4719   22.0442 O   0  0  0  0  0  0  0  0  0  0  0  0
   27.3163   35.3449   23.0937 C   0  0  2  0  0  0  0  0  0  0  0  0
   27.4379   34.0087   22.7715 N   0  0  0  0  0  0  0  0  0  0  0  0
   27.0307   35.7151   24.4056 C   0  0  0  0  0  0  0  0  0  0  0  0
   26.8986   37.0594   24.7392 C   0  0  1  0  0  0  0  0  0  0  0  0
   26.6007   37.4423   26.1627 C   0  0  0  0  0  0  0  0  0  0  0  0
   27.0577   38.0371   23.7506 C   0  0  1  0  0  0  0  0  0  0  0  0
   26.9362   39.4958   24.0822 C   0  0  0  0  0  0  0  0  0  0  0  0
   27.3437   37.6630   22.4410 C   0  0  0  0  0  0  0  0  0  0  0  0
   27.4738   36.3182   22.1024 C   0  0  2  0  0  0  0  0  0  0  0  0
   27.8827   34.6046   20.4778 C   0  0  2  0  0  0  0  0  0  0  0  0
   27.7498   35.9433   20.7929 N   0  0  0  0  0  0  0  0  0  0  0  0
  1  2  1  6  0  0  0
  1  3  1  0  0  0  0
  1  4  2  0  0  0  0
  1  6  1  0  0  0  0
  5  6  1  0  0  0  0
  7  5  1  1  0  0  0
  7  8  1  0  0  0  0
  7  9  1  0  0  0  0
  9 10  1  6  0  0  0
  9 11  1  0  0  0  0
 11 12  1  6  0  0  0
 11 13  1  0  0  0  0
 13 31  1  0  0  0  0
 14 15  1  0  0  0  0
 15 16  2  0  0  0  0
 15 17  1  0  0  0  0
 17 18  1  0  0  0  0
 18 20  2  0  0  0  0
 19 18  1  1  0  0  0
 19 22  1  0  0  0  0
 19 30  1  0  0  0  0
 21 23  1  6  0  0  0
 21 29  1  0  0  0  0
 21 22  1  0  0  0  0
 23 24  1  0  0  0  0
 24 25  1  1  0  0  0
 24 26  1  0  0  0  0
 26 27  1  1  0  0  0
 26 28  1  0  0  0  0
 29 28  1  6  0  0  0
 29 31  1  0  0  0  0
 30 14  1  6  0  0  0
 30 31  1  0  0  0  0
M  CHG  1   3  -1
M  END
>  <CHROM.1>
178.78095537,178.53187222,170.83321996,51.49247615,-39.74725303,150.77498827
-77.93734719,27.12314945,37.54357328,19.84754953,-2.28251081,-1.34344580
1.87735941

>  <Name>
ligand

>  <RI>
0

>  <Rbt.Current_Directory>
/home/itssahil/PROJECTS/Mol_Feturizer/New_Systems/rnas/3F2Q

>  <Rbt.Executable>
rbdock ($Id: //depot/dev/client3/rdock/2013.1/src/exe/rbdock.cxx#4 $)

>  <Rbt.Library>
libRbt.so (2013.1, Build901 2013/11/27)

>  <Rbt.Parameter_File>
/export/apps/rDock/src/rDock_2013.1_src/data/scripts/dock_solv.prm

>  <Rbt.Receptor>
prm/pocket_docking_6.prm

>  <SCORE>
-34.6883

>  <SCORE.INTER>
-31.7

>  <SCORE.INTER.CONST>
1

>  <SCORE.INTER.POLAR>
0

>  <SCORE.INTER.ROT>
7

>  <SCORE.INTER.SOLV>
20.8053

>  <SCORE.INTER.VDW>
-36.3351

>  <SCORE.INTER.norm>
-1.02258

>  <SCORE.INTRA>
-2.98828

>  <SCORE.INTRA.DIHEDRAL>
-4.18825

>  <SCORE.INTRA.DIHEDRAL.0>
10.0718

>  <SCORE.INTRA.POLAR>
0

>  <SCORE.INTRA.POLAR.0>
0

>  <SCORE.INTRA.REPUL>
0

>  <SCORE.INTRA.REPUL.0>
0

>  <SCORE.INTRA.SOLV>
-0.0856842

>  <SCORE.INTRA.SOLV.lig_0>
-48.6963

>  <SCORE.INTRA.VDW>
-0.85131

>  <SCORE.INTRA.VDW.0>
-0.836976

>  <SCORE.INTRA.norm>
-0.096396

>  <SCORE.RESTR>
0

>  <SCORE.RESTR.CAVITY>
0

>  <SCORE.RESTR.norm>
0

>  <SCORE.SYSTEM>
0

>  <SCORE.SYSTEM.CONST>
0

>  <SCORE.SYSTEM.DIHEDRAL>
0

>  <SCORE.SYSTEM.SOLV>
0

>  <SCORE.SYSTEM.norm>
0

>  <SCORE.heavy>
31

>  <SCORE.norm>
-1.11898

>  <RMSD>
1.200

$$$$
ligand
 OpenBabel11021811473D
libRbt.so/2013.1/901 2013/11/27
 31 33  0  0  0  0  0  0  0  0999 V2000
   26.1930   43.2081   16.0765 P   0  0  1  0  0  0  0  0  0  0  0  0
   24.9732   43.5332   16.9119 O   0  0  0  0  0  0  0  0  0  0  0  0
   25.8703   43.5285   14.6418 O   0  5  0  0  0  0  0  0  0  0  0  0
   27.3657   44.0358   16.5255 O   0  0  0  0  0  0  0  0  0  0  0  0
   26.9401   41.2145   17.5762 C   0  0  0  0  0  0  0  0  0  0  0  0
   26.5938   41.6733   16.2922 O   0  0  0  0  0  0  0  0  0  0  0  0
   27.1765   39.7124   17.5215 C   0  0  1  0  0  0  0  0  0  0  0  0
   28.4919   39.4792   17.0646 O   0  0  0  0  0  0  0  0  0  0  0  0
   26.9745   39.0926   18.9042 C   0  0  1  0  0  0  0  0  0  0  0  0
   25.6512   39.3229   19.3383 O   0  0  0  0  0  0  0  0  0  0  0  0
   27.3289   37.6005   18.9707 C   0  0  1  0  0  0  0  0  0  0  0  0
   27.7442   37.1487   17.7010 O   0  0  0  0  0  0  0  0  0  0  0  0
   28.4206   37.3045   19.9867 C   0  0  0  0  0  0  0  0  0  0  0  0
   28.4450   34.5588   19.3204 N   0  0  0  0  0  0  0  0  0  0  0  0
   28.5253   33.2274   18.9663 C   0  0  0  0  0  0  0  0  0  0  0  0
   28.8908   32.9091   17.8312 O   0  0  0  0  0  0  0  0  0  0  0  0
   28.1851   32.2555   19.8854 N   0  0  0  0  0  0  0  0  0  0  0  0
   27.7662   32.6099   21.1541 C   0  0  0  0  0  0  0  0  0  0  0  0
   27.6866   33.9395   21.5124 C   0  0  1  0  0  0  0  0  0  0  0  0
   27.4689   31.7539   21.9856 O   0  0  0  0  0  0  0  0  0  0  0  0
   27.1934   35.6039   23.1498 C   0  0  2  0  0  0  0  0  0  0  0  0
   27.2705   34.2751   22.7862 N   0  0  0  0  0  0  0  0  0  0  0  0
   26.7722   35.9449   24.4329 C   0  0  0  0  0  0  0  0  0  0  0  0
   26.6837   37.2820   24.8070 C   0  0  1  0  0  0  0  0  0  0  0  0
   26.2374   37.6323   26.1997 C   0  0  0  0  0  0  0  0  0  0  0  0
   27.0233   38.2819   23.8886 C   0  0  1  0  0  0  0  0  0  0  0  0
   26.9526   39.7326   24.2670 C   0  0  0  0  0  0  0  0  0  0  0  0
   27.4443   37.9371   22.6077 C   0  0  0  0  0  0  0  0  0  0  0  0
   27.5314   36.5997   22.2284 C   0  0  2  0  0  0  0  0  0  0  0  0
   28.0299   34.9223   20.5911 C   0  0  2  0  0  0  0  0  0  0  0  0
   27.9425   36.2547   20.9464 N   0  0  0  0  0  0  0  0  0  0  0  0
  1  2  1  1  0  0  0
  1  3  1  0  0  0  0
  1  4  2  0  0  0  0
  1  6  1  0  0  0  0
  5  6  1  0  0  0  0
  7  5  1  1  0  0  0
  7  8  1  0  0  0  0
  7  9  1  0  0  0  0
  9 10  1  6  0  0  0
  9 11  1  0  0  0  0
 11 12  1  6  0  0  0
 11 13  1  0  0  0  0
 13 31  1  0  0  0  0
 14 15  1  0  0  0  0
 15 16  2  0  0  0  0
 15 17  1  0  0  0  0
 17 18  1  0  0  0  0
 18 20  2  0  0  0  0
 19 18  1  1  0  0  0
 19 22  1  0  0  0  0
 19 30  1  0  0  0  0
 21 23  1  6  0  0  0
 21 29  1  0  0  0  0
 21 22  1  0  0  0  0
 23 24  1  0  0  0  0
 24 25  1  1  0  0  0
 24 26  1  0  0  0  0
 26 27  1  1  0  0  0
 26 28  1  0  0  0  0
 29 28  1  6  0  0  0
 29 31  1  0  0  0  0
 30 14  1  6  0  0  0
 30 31  1  0  0  0  0
M  CHG  1   3  -1
M  END
>  <CHROM.1>
175.93403940,-60.64458477,82.50430686,60.54100860,-0.99760200,125.52887221
-103.18152807,27.22019610,37.86902156,19.81232237,2.06055881,1.31148481,-1.07817628

>  <Name>
ligand

>  <RI>
0

>  <Rbt.Current_Directory>
/home/itssahil/PROJECTS/Mol_Feturizer/New_Systems/rnas/3F2Q

>  <Rbt.Executable>
rbdock ($Id: //depot/dev/client3/rdock/2013.1/src/exe/rbdock.cxx#4 $)

>  <Rbt.Library>
libRbt.so (2013.1, Build901 2013/11/27)

>  <Rbt.Parameter_File>
/export/apps/rDock/src/rDock_2013.1_src/data/scripts/dock_solv.prm

>  <Rbt.Receptor>
prm/blind_docking_60.prm

>  <SCORE>
-30.1512

>  <SCORE.INTER>
-30.889

>  <SCORE.INTER.CONST>
1

>  <SCORE.INTER.POLAR>
0

>  <SCORE.INTER.ROT>
7

>  <SCORE.INTER.SOLV>
24.2433

>  <SCORE.INTER.VDW>
-36.9404

>  <SCORE.INTER.norm>
-0.996418

>  <SCORE.INTRA>
0.737772

>  <SCORE.INTRA.DIHEDRAL>
3.57681

>  <SCORE.INTRA.DIHEDRAL.0>
10.0718

>  <SCORE.INTRA.POLAR>
0

>  <SCORE.INTRA.POLAR.0>
0

>  <SCORE.INTRA.REPUL>
0

>  <SCORE.INTRA.REPUL.0>
0

>  <SCORE.INTRA.SOLV>
-1.33626

>  <SCORE.INTRA.SOLV.lig_0>
-48.6963

>  <SCORE.INTRA.VDW>
-0.3825

>  <SCORE.INTRA.VDW.0>
-0.836976

>  <SCORE.INTRA.norm>
0.0237991

>  <SCORE.RESTR>
0

>  <SCORE.RESTR.CAVITY>
0

>  <SCORE.RESTR.norm>
0

>  <SCORE.SYSTEM>
0

>  <SCORE.SYSTEM.CONST>
0

>  <SCORE.SYSTEM.DIHEDRAL>
0

>  <SCORE.SYSTEM.SOLV>
0

>  <SCORE.SYSTEM.norm>
0

>  <SCORE.heavy>
31

>  <SCORE.norm>
-0.972619

>  <RMSD>
1.203

$$$$
ligand
 OpenBabel11021811473D
libRbt.so/2013.1/901 2013/11/27
 31 33  0  0  0  0  0  0  0  0999 V2000
   26.2500   41.8905   17.2778 P   0  0  1  0  0  0  0  0  0  0  0  0
   26.8009   41.1145   16.1006 O   0  0  0  0  0  0  0  0  0  0  0  0
   27.1467   43.0767   17.5107 O   0  5  0  0  0  0  0  0  0  0  0  0
   24.8546   42.3655   16.9796 O   0  0  0  0  0  0  0  0  0  0  0  0
   27.3198   40.5929   19.2661 C   0  0  0  0  0  0  0  0  0  0  0  0
   26.1541   40.9281   18.5534 O   0  0  0  0  0  0  0  0  0  0  0  0
   28.2278   39.7606   18.3727 C   0  0  1  0  0  0  0  0  0  0  0  0
   29.4202   39.4823   19.0757 O   0  0  0  0  0  0  0  0  0  0  0  0
   27.5302   38.4613   17.9702 C   0  0  1  0  0  0  0  0  0  0  0  0
   28.3324   37.7594   17.0448 O   0  0  0  0  0  0  0  0  0  0  0  0
   27.1472   37.5709   19.1605 C   0  0  1  0  0  0  0  0  0  0  0  0
   26.3146   36.5193   18.7250 O   0  0  0  0  0  0  0  0  0  0  0  0
   28.3602   36.9865   19.8666 C   0  0  0  0  0  0  0  0  0  0  0  0
   28.3918   34.2178   19.3043 N   0  0  0  0  0  0  0  0  0  0  0  0
   28.4748   32.8745   18.9990 C   0  0  0  0  0  0  0  0  0  0  0  0
   28.8169   32.5160   17.8687 O   0  0  0  0  0  0  0  0  0  0  0  0
   28.1637   31.9358   19.9619 N   0  0  0  0  0  0  0  0  0  0  0  0
   27.7711   32.3350   21.2257 C   0  0  0  0  0  0  0  0  0  0  0  0
   27.6888   33.6767   21.5351 C   0  0  1  0  0  0  0  0  0  0  0  0
   27.4998   31.5091   22.0956 O   0  0  0  0  0  0  0  0  0  0  0  0
   27.2196   35.3985   23.1194 C   0  0  2  0  0  0  0  0  0  0  0  0
   27.2993   34.0574   22.8046 N   0  0  0  0  0  0  0  0  0  0  0  0
   26.8251   35.7848   24.3981 C   0  0  0  0  0  0  0  0  0  0  0  0
   26.7342   37.1346   24.7233 C   0  0  1  0  0  0  0  0  0  0  0  0
   26.3171   37.5343   26.1117 C   0  0  0  0  0  0  0  0  0  0  0  0
   27.0446   38.1013   23.7601 C   0  0  1  0  0  0  0  0  0  0  0  0
   26.9707   39.5648   24.0849 C   0  0  0  0  0  0  0  0  0  0  0  0
   27.4390   37.7111   22.4837 C   0  0  0  0  0  0  0  0  0  0  0  0
   27.5283   36.3610   22.1534 C   0  0  2  0  0  0  0  0  0  0  0  0
   28.0029   34.6262   20.5696 C   0  0  2  0  0  0  0  0  0  0  0  0
   27.9127   35.9705   20.8762 N   0  0  0  0  0  0  0  0  0  0  0  0
  1  2  1  6  0  0  0
  1  3  1  0  0  0  0
  1  4  2  0  0  0  0
  1  6  1  0  0  0  0
  5  6  1  0  0  0  0
  7  5  1  1  0  0  0
  7  8  1  0  0  0  0
  7  9  1  0  0  0  0
  9 10  1  6  0  0  0
  9 11  1  0  0  0  0
 11 12  1  6  0  0  0
 11 13  1  0  0  0  0
 13 31  1  0  0  0  0
 14 15  1  0  0  0  0
 15 16  2  0  0  0  0
 15 17  1  0  0  0  0
 17 18  1  0  0  0  0
 18 20  2  0  0  0  0
 19 18  1  1  0  0  0
 19 22  1  0  0  0  0
 19 30  1  0  0  0  0
 21 23  1  6  0  0  0
 21 29  1  0  0  0  0
 21 22  1  0  0  0  0
 23 24  1  0  0  0  0
 24 25  1  1  0  0  0
 24 26  1  0  0  0  0
 26 27  1  1  0  0  0
 26 28  1  0  0  0  0
 29 28  1  6  0  0  0
 29 31  1  0  0  0  0
 30 14  1  6  0  0  0
 30 31  1  0  0  0  0
M  CHG  1   3  -1
M  END
>  <CHROM.1>
-65.68461900,76.17328557,177.32524533,174.60489955,169.95473255,-171.40511880
-84.84467804,27.36011688,37.33313018,20.13091138,-2.09336271,-1.34310575
2.12316205

>  <Name>
ligand

>  <RI>
0

>  <Rbt.Current_Directory>
/home/itssahil/PROJECTS/Mol_Feturizer/New_Systems/rnas/3F2Q

>  <Rbt.Executable>
rbdock ($Id: //depot/dev/client3/rdock/2013.1/src/exe/rbdock.cxx#4 $)

>  <Rbt.Library>
libRbt.so (2013.1, Build901 2013/11/27)

>  <Rbt.Parameter_File>
/export/apps/rDock/src/rDock_2013.1_src/data/scripts/dock_solv.prm

>  <Rbt.Receptor>
prm/pocket_docking_7.prm

>  <SCORE>
-36.092

>  <SCORE.INTER>
-31.3349

>  <SCORE.INTER.CONST>
1

>  <SCORE.INTER.POLAR>
0

>  <SCORE.INTER.ROT>
7

>  <SCORE.INTER.SOLV>
16.6346

>  <SCORE.INTER.VDW>
-34.7015

>  <SCORE.INTER.norm>
-1.0108

>  <SCORE.INTRA>
-4.75714

>  <SCORE.INTRA.DIHEDRAL>
-7.2445

>  <SCORE.INTRA.DIHEDRAL.0>
10.0718

>  <SCORE.INTRA.POLAR>
0

>  <SCORE.INTRA.POLAR.0>
0

>  <SCORE.INTRA.REPUL>
0

>  <SCORE.INTRA.REPUL.0>
0

>  <SCORE.INTRA.SOLV>
-0.0666973

>  <SCORE.INTRA.SOLV.lig_0>
-48.6963

>  <SCORE.INTRA.VDW>
-1.10154

>  <SCORE.INTRA.VDW.0>
-0.836976

>  <SCORE.INTRA.norm>
-0.153456

>  <SCORE.RESTR>
0

>  <SCORE.RESTR.CAVITY>
0

>  <SCORE.RESTR.norm>
0

>  <SCORE.SYSTEM>
0

>  <SCORE.SYSTEM.CONST>
0

>  <SCORE.SYSTEM.DIHEDRAL>
0

>  <SCORE.SYSTEM.SOLV>
0

>  <SCORE.SYSTEM.norm>
0

>  <SCORE.heavy>
31

>  <SCORE.norm>
-1.16426

>  <RMSD>
1.204

$$$$
ligand
 OpenBabel11021811473D
libRbt.so/2013.1/901 2013/11/27
 31 33  0  0  0  0  0  0  0  0999 V2000
   27.6391   42.2655   16.6859 P   0  0  1  0  0  0  0  0  0  0  0  0
   26.5429   41.8467   15.7295 O   0  0  0  0  0  0  0  0  0  0  0  0
   28.9541   41.8158   16.1083 O   0  5  0  0  0  0  0  0  0  0  0  0
   27.6450   43.7608   16.8464 O   0  0  0  0  0  0  0  0  0  0  0  0
   26.9991   40.2844   18.2503 C   0  0  0  0  0  0  0  0  0  0  0  0
   27.3530   41.6409   18.1318 O   0  0  0  0  0  0  0  0  0  0  0  0
   28.1619   39.4232   17.7795 C   0  0  1  0  0  0  0  0  0  0  0  0
   29.1937   39.4941   18.7406 O   0  0  0  0  0  0  0  0  0  0  0  0
   27.7078   37.9760   17.5900 C   0  0  1  0  0  0  0  0  0  0  0  0
   28.7318   37.2364   16.9599 O   0  0  0  0  0  0  0  0  0  0  0  0
   27.2505   37.2965   18.8883 C   0  0  1  0  0  0  0  0  0  0  0  0
   26.5106   36.1343   18.5871 O   0  0  0  0  0  0  0  0  0  0  0  0
   28.4138   36.9259   19.7943 C   0  0  0  0  0  0  0  0  0  0  0  0
   28.4333   34.1543   19.2455 N   0  0  0  0  0  0  0  0  0  0  0  0
   28.5104   32.8091   18.9469 C   0  0  0  0  0  0  0  0  0  0  0  0
   28.8529   32.4435   17.8190 O   0  0  0  0  0  0  0  0  0  0  0  0
   28.1929   31.8767   19.9138 N   0  0  0  0  0  0  0  0  0  0  0  0
   27.7998   32.2839   21.1748 C   0  0  0  0  0  0  0  0  0  0  0  0
   27.7234   33.6274   21.4776 C   0  0  1  0  0  0  0  0  0  0  0  0
   27.5229   31.4636   22.0482 O   0  0  0  0  0  0  0  0  0  0  0  0
   27.2593   35.3592   23.0525 C   0  0  2  0  0  0  0  0  0  0  0  0
   27.3332   34.0162   22.7444 N   0  0  0  0  0  0  0  0  0  0  0  0
   26.8642   35.7536   24.3285 C   0  0  0  0  0  0  0  0  0  0  0  0
   26.7792   37.1054   24.6470 C   0  0  1  0  0  0  0  0  0  0  0  0
   26.3613   37.5138   26.0327 C   0  0  0  0  0  0  0  0  0  0  0  0
   27.0961   38.0659   23.6798 C   0  0  1  0  0  0  0  0  0  0  0  0
   27.0286   39.5312   23.9973 C   0  0  0  0  0  0  0  0  0  0  0  0
   27.4911   37.6676   22.4061 C   0  0  0  0  0  0  0  0  0  0  0  0
   27.5745   36.3154   22.0825 C   0  0  2  0  0  0  0  0  0  0  0  0
   28.0438   34.5708   20.5081 C   0  0  2  0  0  0  0  0  0  0  0  0
   27.9596   35.9169   20.8079 N   0  0  0  0  0  0  0  0  0  0  0  0
  1  2  1  6  0  0  0
  1  3  1  0  0  0  0
  1  4  2  0  0  0  0
  1  6  1  0  0  0  0
  5  6  1  0  0  0  0
  7  5  1  1  0  0  0
  7  8  1  0  0  0  0
  7  9  1  0  0  0  0
  9 10  1  1  0  0  0
  9 11  1  0  0  0  0
 11 12  1  6  0  0  0
 11 13  1  0  0  0  0
 13 31  1  0  0  0  0
 14 15  1  0  0  0  0
 15 16  2  0  0  0  0
 15 17  1  0  0  0  0
 17 18  1  0  0  0  0
 18 20  2  0  0  0  0
 19 18  1  1  0  0  0
 19 22  1  0  0  0  0
 19 30  1  0  0  0  0
 21 23  1  6  0  0  0
 21 29  1  0  0  0  0
 21 22  1  0  0  0  0
 23 24  1  0  0  0  0
 24 25  1  1  0  0  0
 24 26  1  0  0  0  0
 26 27  1  1  0  0  0
 26 28  1  0  0  0  0
 29 28  1  6  0  0  0
 29 31  1  0  0  0  0
 30 14  1  6  0  0  0
 30 31  1  0  0  0  0
M  CHG  1   3  -1
M  END
>  <CHROM.1>
64.10430170,46.66392514,71.81729292,170.97453271,163.55856817,-162.66535465
-96.64092708,27.68617976,37.31525570,19.88259756,-1.51654598,-1.36480386
2.62761191

>  <Name>
ligand

>  <RI>
0

>  <Rbt.Current_Directory>
/home/itssahil/PROJECTS/Mol_Feturizer/New_Systems/rnas/3F2Q

>  <Rbt.Executable>
rbdock ($Id: //depot/dev/client3/rdock/2013.1/src/exe/rbdock.cxx#4 $)

>  <Rbt.Library>
libRbt.so (2013.1, Build901 2013/11/27)

>  <Rbt.Parameter_File>
/export/apps/rDock/src/rDock_2013.1_src/data/scripts/dock_solv.prm

>  <Rbt.Receptor>
prm/blind_docking_80.prm

>  <SCORE>
-35.0858

>  <SCORE.INTER>
-31.9802

>  <SCORE.INTER.CONST>
1

>  <SCORE.INTER.POLAR>
0

>  <SCORE.INTER.ROT>
7

>  <SCORE.INTER.SOLV>
20.5429

>  <SCORE.INTER.VDW>
-36.4344

>  <SCORE.INTER.norm>
-1.03162

>  <SCORE.INTRA>
-3.10556

>  <SCORE.INTRA.DIHEDRAL>
-5.45164

>  <SCORE.INTRA.DIHEDRAL.0>
10.0718

>  <SCORE.INTRA.POLAR>
0

>  <SCORE.INTRA.POLAR.0>
0

>  <SCORE.INTRA.REPUL>
0

>  <SCORE.INTRA.REPUL.0>
0

>  <SCORE.INTRA.SOLV>
0.903296

>  <SCORE.INTRA.SOLV.lig_0>
-48.6963

>  <SCORE.INTRA.VDW>
-0.831386

>  <SCORE.INTRA.VDW.0>
-0.836976

>  <SCORE.INTRA.norm>
-0.100179

>  <SCORE.RESTR>
0

>  <SCORE.RESTR.CAVITY>
0

>  <SCORE.RESTR.norm>
0

>  <SCORE.SYSTEM>
0

>  <SCORE.SYSTEM.CONST>
0

>  <SCORE.SYSTEM.DIHEDRAL>
0

>  <SCORE.SYSTEM.SOLV>
0

>  <SCORE.SYSTEM.norm>
0

>  <SCORE.heavy>
31

>  <SCORE.norm>
-1.1318

>  <RMSD>
1.214

$$$$
ligand
 OpenBabel11021811473D
libRbt.so/2013.1/901 2013/11/27
 31 33  0  0  0  0  0  0  0  0999 V2000
   25.6336   42.8284   16.9615 P   0  0  1  0  0  0  0  0  0  0  0  0
   24.6060   43.9390   17.0058 O   0  0  0  0  0  0  0  0  0  0  0  0
   25.9791   42.5748   15.5188 O   0  5  0  0  0  0  0  0  0  0  0  0
   26.8718   43.2361   17.7114 O   0  0  0  0  0  0  0  0  0  0  0  0
   25.8791   40.7696   18.5373 C   0  0  0  0  0  0  0  0  0  0  0  0
   25.0488   41.5309   17.6944 O   0  0  0  0  0  0  0  0  0  0  0  0
   26.7389   39.8457   17.6873 C   0  0  1  0  0  0  0  0  0  0  0  0
   27.2872   40.5930   16.6223 O   0  0  0  0  0  0  0  0  0  0  0  0
   27.8518   39.2284   18.5342 C   0  0  1  0  0  0  0  0  0  0  0  0
   28.4831   40.2360   19.2949 O   0  0  0  0  0  0  0  0  0  0  0  0
   27.3802   38.0720   19.4268 C   0  0  1  0  0  0  0  0  0  0  0  0
   26.7663   37.0767   18.6386 O   0  0  0  0  0  0  0  0  0  0  0  0
   28.5158   37.4479   20.2221 C   0  0  0  0  0  0  0  0  0  0  0  0
   28.5149   34.7345   19.4340 N   0  0  0  0  0  0  0  0  0  0  0  0
   28.5841   33.4187   19.0240 C   0  0  0  0  0  0  0  0  0  0  0  0
   28.9952   33.1428   17.8935 O   0  0  0  0  0  0  0  0  0  0  0  0
   28.1819   32.4149   19.8819 N   0  0  0  0  0  0  0  0  0  0  0  0
   27.7122   32.7221   21.1450 C   0  0  0  0  0  0  0  0  0  0  0  0
   27.6433   34.0360   21.5591 C   0  0  1  0  0  0  0  0  0  0  0  0
   27.3592   31.8371   21.9226 O   0  0  0  0  0  0  0  0  0  0  0  0
   27.1090   35.6370   23.2462 C   0  0  2  0  0  0  0  0  0  0  0  0
   27.1757   34.3241   22.8266 N   0  0  0  0  0  0  0  0  0  0  0  0
   26.6360   35.9301   24.5230 C   0  0  0  0  0  0  0  0  0  0  0  0
   26.5576   37.2511   24.9528 C   0  0  1  0  0  0  0  0  0  0  0  0
   26.0546   37.5493   26.3383 C   0  0  0  0  0  0  0  0  0  0  0  0
   26.9598   38.2828   24.0970 C   0  0  1  0  0  0  0  0  0  0  0  0
   26.9013   39.7165   24.5371 C   0  0  0  0  0  0  0  0  0  0  0  0
   27.4324   37.9856   22.8222 C   0  0  0  0  0  0  0  0  0  0  0  0
   27.5096   36.6647   22.3870 C   0  0  2  0  0  0  0  0  0  0  0  0
   28.0489   35.0507   20.6998 C   0  0  2  0  0  0  0  0  0  0  0  0
   27.9724   36.3676   21.1107 N   0  0  0  0  0  0  0  0  0  0  0  0
  1  2  1  1  0  0  0
  1  3  1  0  0  0  0
  1  4  2  0  0  0  0
  1  6  1  0  0  0  0
  5  6  1  0  0  0  0
  7  5  1  1  0  0  0
  7  8  1  0  0  0  0
  7  9  1  0  0  0  0
  9 10  1  1  0  0  0
  9 11  1  0  0  0  0
 11 12  1  6  0  0  0
 11 13  1  0  0  0  0
 13 31  1  0  0  0  0
 14 15  1  0  0  0  0
 15 16  2  0  0  0  0
 15 17  1  0  0  0  0
 17 18  1  0  0  0  0
 18 20  2  0  0  0  0
 19 18  1  1  0  0  0
 19 22  1  0  0  0  0
 19 30  1  0  0  0  0
 21 23  1  6  0  0  0
 21 29  1  0  0  0  0
 21 22  1  0  0  0  0
 23 24  1  0  0  0  0
 24 25  1  1  0  0  0
 24 26  1  0  0  0  0
 26 27  1  1  0  0  0
 26 28  1  0  0  0  0
 29 28  1  6  0  0  0
 29 31  1  0  0  0  0
 30 14  1  6  0  0  0
 30 31  1  0  0  0  0
M  CHG  1   3  -1
M  END
>  <CHROM.1>
-80.67661411,-138.67735727,46.72894846,-47.36230736,56.21118144,177.64341573
-88.09393311,27.08637281,37.91183768,20.11484210,2.23470072,1.29211146,-1.19998248

>  <Name>
ligand

>  <RI>
0

>  <Rbt.Current_Directory>
/home/itssahil/PROJECTS/Mol_Feturizer/New_Systems/rnas/3F2Q

>  <Rbt.Executable>
rbdock ($Id: //depot/dev/client3/rdock/2013.1/src/exe/rbdock.cxx#4 $)

>  <Rbt.Library>
libRbt.so (2013.1, Build901 2013/11/27)

>  <Rbt.Parameter_File>
/export/apps/rDock/src/rDock_2013.1_src/data/scripts/dock_solv.prm

>  <Rbt.Receptor>
prm/pocket_docking_2.prm

>  <SCORE>
-31.3224

>  <SCORE.INTER>
-31.1731

>  <SCORE.INTER.CONST>
1

>  <SCORE.INTER.POLAR>
0

>  <SCORE.INTER.ROT>
7

>  <SCORE.INTER.SOLV>
18.0066

>  <SCORE.INTER.VDW>
-35.0509

>  <SCORE.INTER.norm>
-1.00558

>  <SCORE.INTRA>
-0.153862

>  <SCORE.INTRA.DIHEDRAL>
-3.51793

>  <SCORE.INTRA.DIHEDRAL.0>
10.0718

>  <SCORE.INTRA.POLAR>
0

>  <SCORE.INTRA.POLAR.0>
0

>  <SCORE.INTRA.REPUL>
0

>  <SCORE.INTRA.REPUL.0>
0

>  <SCORE.INTRA.SOLV>
3.2946

>  <SCORE.INTRA.SOLV.lig_0>
-48.6963

>  <SCORE.INTRA.VDW>
-0.0421963

>  <SCORE.INTRA.VDW.0>
-0.836976

>  <SCORE.INTRA.norm>
-0.00496328

>  <SCORE.RESTR>
0.00462728

>  <SCORE.RESTR.CAVITY>
0.00462728

>  <SCORE.RESTR.norm>
0.000149267

>  <SCORE.SYSTEM>
0

>  <SCORE.SYSTEM.CONST>
0

>  <SCORE.SYSTEM.DIHEDRAL>
0

>  <SCORE.SYSTEM.SOLV>
0

>  <SCORE.SYSTEM.norm>
0

>  <SCORE.heavy>
31

>  <SCORE.norm>
-1.0104

>  <RMSD>
1.214

$$$$
ligand
 OpenBabel11021811473D
libRbt.so/2013.1/901 2013/11/27
 31 33  0  0  0  0  0  0  0  0999 V2000
   26.8454   42.0966   17.4280 P   0  0  1  0  0  0  0  0  0  0  0  0
   25.9033   40.9206   17.2829 O   0  0  0  0  0  0  0  0  0  0  0  0
   26.3977   43.1691   16.4718 O   0  5  0  0  0  0  0  0  0  0  0  0
   26.8019   42.6264   18.8348 O   0  0  0  0  0  0  0  0  0  0  0  0
   28.6006   40.2708   16.8217 C   0  0  0  0  0  0  0  0  0  0  0  0
   28.3473   41.6137   17.1563 O   0  0  0  0  0  0  0  0  0  0  0  0
   28.5113   39.4188   18.0793 C   0  0  1  0  0  0  0  0  0  0  0  0
   28.3386   40.2720   19.1908 O   0  0  0  0  0  0  0  0  0  0  0  0
   27.3440   38.4375   17.9736 C   0  0  1  0  0  0  0  0  0  0  0  0
   27.5663   37.5502   16.8985 O   0  0  0  0  0  0  0  0  0  0  0  0
   27.0588   37.6736   19.2742 C   0  0  1  0  0  0  0  0  0  0  0  0
   26.0254   36.7372   19.0642 O   0  0  0  0  0  0  0  0  0  0  0  0
   28.2855   36.9510   19.8077 C   0  0  0  0  0  0  0  0  0  0  0  0
   28.3456   34.1821   19.2483 N   0  0  0  0  0  0  0  0  0  0  0  0
   28.4420   32.8395   18.9436 C   0  0  0  0  0  0  0  0  0  0  0  0
   28.7736   32.4840   17.8092 O   0  0  0  0  0  0  0  0  0  0  0  0
   28.1560   31.8982   19.9117 N   0  0  0  0  0  0  0  0  0  0  0  0
   27.7753   32.2941   21.1801 C   0  0  0  0  0  0  0  0  0  0  0  0
   27.6797   33.6349   21.4891 C   0  0  1  0  0  0  0  0  0  0  0  0
   27.5264   31.4659   22.0546 O   0  0  0  0  0  0  0  0  0  0  0  0
   27.2093   35.3527   23.0774 C   0  0  2  0  0  0  0  0  0  0  0  0
   27.3022   34.0123   22.7632 N   0  0  0  0  0  0  0  0  0  0  0  0
   26.8269   35.7356   24.3608 C   0  0  0  0  0  0  0  0  0  0  0  0
   26.7229   37.0845   24.6856 C   0  0  1  0  0  0  0  0  0  0  0  0
   26.3192   37.4806   26.0790 C   0  0  0  0  0  0  0  0  0  0  0  0
   27.0077   38.0539   23.7172 C   0  0  1  0  0  0  0  0  0  0  0  0
   26.9191   39.5167   24.0412 C   0  0  0  0  0  0  0  0  0  0  0  0
   27.3900   37.6671   22.4361 C   0  0  0  0  0  0  0  0  0  0  0  0
   27.4925   36.3177   22.1062 C   0  0  2  0  0  0  0  0  0  0  0  0
   27.9684   34.5872   20.5183 C   0  0  2  0  0  0  0  0  0  0  0  0
   27.8648   35.9306   20.8244 N   0  0  0  0  0  0  0  0  0  0  0  0
  1  2  1  6  0  0  0
  1  3  1  0  0  0  0
  1  4  2  0  0  0  0
  1  6  1  0  0  0  0
  5  6  1  0  0  0  0
  7  5  1  6  0  0  0
  7  8  1  0  0  0  0
  7  9  1  0  0  0  0
  9 10  1  6  0  0  0
  9 11  1  0  0  0  0
 11 12  1  6  0  0  0
 11 13  1  0  0  0  0
 13 31  1  0  0  0  0
 14 15  1  0  0  0  0
 15 16  2  0  0  0  0
 15 17  1  0  0  0  0
 17 18  1  0  0  0  0
 18 20  2  0  0  0  0
 19 18  1  1  0  0  0
 19 22  1  0  0  0  0
 19 30  1  0  0  0  0
 21 23  1  6  0  0  0
 21 29  1  0  0  0  0
 21 22  1  0  0  0  0
 23 24  1  0  0  0  0
 24 25  1  1  0  0  0
 24 26  1  0  0  0  0
 26 27  1  1  0  0  0
 26 28  1  0  0  0  0
 29 28  1  6  0  0  0
 29 31  1  0  0  0  0
 30 14  1  6  0  0  0
 30 31  1  0  0  0  0
M  CHG  1   3  -1
M  END
>  <CHROM.1>
-76.65137744,0.88949649,-5.91422866,62.83381043,-176.45568759,-163.90178627
-76.01118498,27.44092510,37.36445278,20.06579086,1.82013355,1.36495929,-0.74665802

>  <Name>
ligand

>  <RI>
0

>  <Rbt.Current_Directory>
/home/itssahil/PROJECTS/Mol_Feturizer/New_Systems/rnas/3F2Q

>  <Rbt.Executable>
rbdock ($Id: //depot/dev/client3/rdock/2013.1/src/exe/rbdock.cxx#4 $)

>  <Rbt.Library>
libRbt.so (2013.1, Build901 2013/11/27)

>  <Rbt.Parameter_File>
/export/apps/rDock/src/rDock_2013.1_src/data/scripts/dock_solv.prm

>  <Rbt.Receptor>
prm/pocket_docking_2.prm

>  <SCORE>
-30.6672

>  <SCORE.INTER>
-31.5598

>  <SCORE.INTER.CONST>
1

>  <SCORE.INTER.POLAR>
0

>  <SCORE.INTER.ROT>
7

>  <SCORE.INTER.SOLV>
16.3368

>  <SCORE.INTER.VDW>
-34.7521

>  <SCORE.INTER.norm>
-1.01806

>  <SCORE.INTRA>
0.889131

>  <SCORE.INTRA.DIHEDRAL>
1.15081

>  <SCORE.INTRA.DIHEDRAL.0>
10.0718

>  <SCORE.INTRA.POLAR>
0

>  <SCORE.INTRA.POLAR.0>
0

>  <SCORE.INTRA.REPUL>
0

>  <SCORE.INTRA.REPUL.0>
0

>  <SCORE.INTRA.SOLV>
1.1429

>  <SCORE.INTRA.SOLV.lig_0>
-48.6963

>  <SCORE.INTRA.VDW>
-0.257724

>  <SCORE.INTRA.VDW.0>
-0.836976

>  <SCORE.INTRA.norm>
0.0286816

>  <SCORE.RESTR>
0.00345987

>  <SCORE.RESTR.CAVITY>
0.00345987

>  <SCORE.RESTR.norm>
0.000111609

>  <SCORE.SYSTEM>
0

>  <SCORE.SYSTEM.CONST>
0

>  <SCORE.SYSTEM.DIHEDRAL>
0

>  <SCORE.SYSTEM.SOLV>
0

>  <SCORE.SYSTEM.norm>
0

>  <SCORE.heavy>
31

>  <SCORE.norm>
-0.989266

>  <RMSD>
1.220

$$$$
ligand
 OpenBabel11021811473D
libRbt.so/2013.1/901 2013/11/27
 31 33  0  0  0  0  0  0  0  0999 V2000
   26.2010   42.7098   17.1166 P   0  0  1  0  0  0  0  0  0  0  0  0
   26.4522   42.1979   15.7144 O   0  0  0  0  0  0  0  0  0  0  0  0
   27.5230   43.1322   17.6989 O   0  5  0  0  0  0  0  0  0  0  0  0
   25.2677   43.8886   17.0798 O   0  0  0  0  0  0  0  0  0  0  0  0
   26.1502   40.3592   18.2363 C   0  0  0  0  0  0  0  0  0  0  0  0
   25.4811   41.5700   17.9798 O   0  0  0  0  0  0  0  0  0  0  0  0
   27.1638   40.5765   19.3502 C   0  0  1  0  0  0  0  0  0  0  0  0
   26.4743   40.6458   20.5803 O   0  0  0  0  0  0  0  0  0  0  0  0
   28.1808   39.4355   19.3723 C   0  0  1  0  0  0  0  0  0  0  0  0
   29.2210   39.7449   20.2750 O   0  0  0  0  0  0  0  0  0  0  0  0
   27.5649   38.0643   19.6836 C   0  0  1  0  0  0  0  0  0  0  0  0
   26.7798   37.6323   18.5947 O   0  0  0  0  0  0  0  0  0  0  0  0
   28.6151   37.0088   19.9909 C   0  0  0  0  0  0  0  0  0  0  0  0
   28.4952   34.2589   19.3526 N   0  0  0  0  0  0  0  0  0  0  0  0
   28.5061   32.9211   19.0140 C   0  0  0  0  0  0  0  0  0  0  0  0
   28.8836   32.5688   17.8930 O   0  0  0  0  0  0  0  0  0  0  0  0
   28.0833   31.9817   19.9326 N   0  0  0  0  0  0  0  0  0  0  0  0
   27.6510   32.3747   21.1853 C   0  0  0  0  0  0  0  0  0  0  0  0
   27.6405   33.7107   21.5280 C   0  0  1  0  0  0  0  0  0  0  0  0
   27.2803   31.5474   22.0163 O   0  0  0  0  0  0  0  0  0  0  0  0
   27.2013   35.4201   23.1343 C   0  0  2  0  0  0  0  0  0  0  0  0
   27.2097   34.0849   22.7861 N   0  0  0  0  0  0  0  0  0  0  0  0
   26.7655   35.8000   24.4014 C   0  0  0  0  0  0  0  0  0  0  0  0
   26.7461   37.1443   24.7597 C   0  0  1  0  0  0  0  0  0  0  0  0
   26.2827   37.5363   26.1355 C   0  0  0  0  0  0  0  0  0  0  0  0
   27.1699   38.1118   23.8415 C   0  0  1  0  0  0  0  0  0  0  0  0
   27.1749   39.5683   24.2035 C   0  0  0  0  0  0  0  0  0  0  0  0
   27.6053   37.7280   22.5766 C   0  0  0  0  0  0  0  0  0  0  0  0
   27.6234   36.3835   22.2131 C   0  0  2  0  0  0  0  0  0  0  0  0
   28.0670   34.6609   20.6073 C   0  0  2  0  0  0  0  0  0  0  0  0
   28.0489   36.0001   20.9468 N   0  0  0  0  0  0  0  0  0  0  0  0
  1  2  1  6  0  0  0
  1  3  1  0  0  0  0
  1  4  2  0  0  0  0
  1  6  1  0  0  0  0
  5  6  1  0  0  0  0
  7  5  1  6  0  0  0
  7  8  1  0  0  0  0
  7  9  1  0  0  0  0
  9 10  1  1  0  0  0
  9 11  1  0  0  0  0
 11 12  1  6  0  0  0
 11 13  1  0  0  0  0
 13 31  1  0  0  0  0
 14 15  1  0  0  0  0
 15 16  2  0  0  0  0
 15 17  1  0  0  0  0
 17 18  1  0  0  0  0
 18 20  2  0  0  0  0
 19 18  1  1  0  0  0
 19 22  1  0  0  0  0
 19 30  1  0  0  0  0
 21 23  1  6  0  0  0
 21 29  1  0  0  0  0
 21 22  1  0  0  0  0
 23 24  1  0  0  0  0
 24 25  1  1  0  0  0
 24 26  1  0  0  0  0
 26 27  1  1  0  0  0
 26 28  1  0  0  0  0
 29 28  1  6  0  0  0
 29 31  1  0  0  0  0
 30 14  1  6  0  0  0
 30 31  1  0  0  0  0
M  CHG  1   3  -1
M  END
>  <CHROM.1>
78.07920326,63.35988898,75.76189262,171.53503029,70.31644833,149.86333196
-61.24296222,27.27217570,37.73414966,20.32902298,-2.30206381,-1.36432216
1.97627004

>  <Name>
ligand

>  <RI>
0

>  <Rbt.Current_Directory>
/home/itssahil/PROJECTS/Mol_Feturizer/New_Systems/rnas/3F2Q

>  <Rbt.Executable>
rbdock ($Id: //depot/dev/client3/rdock/2013.1/src/exe/rbdock.cxx#4 $)

>  <Rbt.Library>
libRbt.so (2013.1, Build901 2013/11/27)

>  <Rbt.Parameter_File>
/export/apps/rDock/src/rDock_2013.1_src/data/scripts/dock_solv.prm

>  <Rbt.Receptor>
prm/blind_docking_80.prm

>  <SCORE>
-33.9872

>  <SCORE.INTER>
-31.9544

>  <SCORE.INTER.CONST>
1

>  <SCORE.INTER.POLAR>
0

>  <SCORE.INTER.ROT>
7

>  <SCORE.INTER.SOLV>
16.5236

>  <SCORE.INTER.VDW>
-35.0774

>  <SCORE.INTER.norm>
-1.03079

>  <SCORE.INTRA>
-2.03279

>  <SCORE.INTRA.DIHEDRAL>
-3.13427

>  <SCORE.INTRA.DIHEDRAL.0>
10.0718

>  <SCORE.INTRA.POLAR>
0

>  <SCORE.INTRA.POLAR.0>
0

>  <SCORE.INTRA.REPUL>
0

>  <SCORE.INTRA.REPUL.0>
0

>  <SCORE.INTRA.SOLV>
0.646746

>  <SCORE.INTRA.SOLV.lig_0>
-48.6963

>  <SCORE.INTRA.VDW>
-0.789022

>  <SCORE.INTRA.VDW.0>
-0.836976

>  <SCORE.INTRA.norm>
-0.0655737

>  <SCORE.RESTR>
0

>  <SCORE.RESTR.CAVITY>
0

>  <SCORE.RESTR.norm>
0

>  <SCORE.SYSTEM>
0

>  <SCORE.SYSTEM.CONST>
0

>  <SCORE.SYSTEM.DIHEDRAL>
0

>  <SCORE.SYSTEM.SOLV>
0

>  <SCORE.SYSTEM.norm>
0

>  <SCORE.heavy>
31

>  <SCORE.norm>
-1.09636

>  <RMSD>
1.229

$$$$
ligand
 OpenBabel11021811473D
libRbt.so/2013.1/901 2013/11/27
 31 33  0  0  0  0  0  0  0  0999 V2000
   26.4837   42.6369   16.7325 P   0  0  1  0  0  0  0  0  0  0  0  0
   26.9137   43.2078   18.0670 O   0  0  0  0  0  0  0  0  0  0  0  0
   24.9791   42.6296   16.6955 O   0  5  0  0  0  0  0  0  0  0  0  0
   27.0106   43.4873   15.6096 O   0  0  0  0  0  0  0  0  0  0  0  0
   26.6360   40.1059   17.3263 C   0  0  0  0  0  0  0  0  0  0  0  0
   27.1137   41.1768   16.5489 O   0  0  0  0  0  0  0  0  0  0  0  0
   26.9882   40.3537   18.7857 C   0  0  1  0  0  0  0  0  0  0  0  0
   25.8204   40.1991   19.5640 O   0  0  0  0  0  0  0  0  0  0  0  0
   28.0686   39.3746   19.2446 C   0  0  1  0  0  0  0  0  0  0  0  0
   28.7430   39.9040   20.3660 O   0  0  0  0  0  0  0  0  0  0  0  0
   27.5414   37.9614   19.5298 C   0  0  1  0  0  0  0  0  0  0  0  0
   26.8897   37.4525   18.3874 O   0  0  0  0  0  0  0  0  0  0  0  0
   28.6436   36.9998   19.9447 C   0  0  0  0  0  0  0  0  0  0  0  0
   28.5607   34.2546   19.2811 N   0  0  0  0  0  0  0  0  0  0  0  0
   28.5897   32.9202   18.9304 C   0  0  0  0  0  0  0  0  0  0  0  0
   28.9753   32.5829   17.8076 O   0  0  0  0  0  0  0  0  0  0  0  0
   28.1760   31.9671   19.8391 N   0  0  0  0  0  0  0  0  0  0  0  0
   27.7347   32.3432   21.0938 C   0  0  0  0  0  0  0  0  0  0  0  0
   27.7060   33.6758   21.4486 C   0  0  1  0  0  0  0  0  0  0  0  0
   27.3718   31.5037   21.9160 O   0  0  0  0  0  0  0  0  0  0  0  0
   27.2401   35.3647   23.0688 C   0  0  2  0  0  0  0  0  0  0  0  0
   27.2665   34.0330   22.7085 N   0  0  0  0  0  0  0  0  0  0  0  0
   26.7954   35.7276   24.3378 C   0  0  0  0  0  0  0  0  0  0  0  0
   26.7577   37.0682   24.7082 C   0  0  1  0  0  0  0  0  0  0  0  0
   26.2850   37.4417   26.0860 C   0  0  0  0  0  0  0  0  0  0  0  0
   27.1722   38.0493   23.8003 C   0  0  1  0  0  0  0  0  0  0  0  0
   27.1575   39.5024   24.1755 C   0  0  0  0  0  0  0  0  0  0  0  0
   27.6165   37.6826   22.5334 C   0  0  0  0  0  0  0  0  0  0  0  0
   27.6529   36.3418   22.1578 C   0  0  2  0  0  0  0  0  0  0  0  0
   28.1234   34.6396   20.5379 C   0  0  2  0  0  0  0  0  0  0  0  0
   28.0872   35.9754   20.8896 N   0  0  0  0  0  0  0  0  0  0  0  0
  1  2  1  1  0  0  0
  1  3  1  0  0  0  0
  1  4  2  0  0  0  0
  1  6  1  0  0  0  0
  5  6  1  0  0  0  0
  7  5  1  6  0  0  0
  7  8  1  0  0  0  0
  7  9  1  0  0  0  0
  9 10  1  1  0  0  0
  9 11  1  0  0  0  0
 11 12  1  6  0  0  0
 11 13  1  0  0  0  0
 13 31  1  0  0  0  0
 14 15  1  0  0  0  0
 15 16  2  0  0  0  0
 15 17  1  0  0  0  0
 17 18  1  0  0  0  0
 18 20  2  0  0  0  0
 19 18  1  1  0  0  0
 19 22  1  0  0  0  0
 19 30  1  0  0  0  0
 21 23  1  6  0  0  0
 21 29  1  0  0  0  0
 21 22  1  0  0  0  0
 23 24  1  0  0  0  0
 24 25  1  1  0  0  0
 24 26  1  0  0  0  0
 26 27  1  1  0  0  0
 26 28  1  0  0  0  0
 29 28  1  6  0  0  0
 29 31  1  0  0  0  0
 30 14  1  6  0  0  0
 30 31  1  0  0  0  0
M  CHG  1   3  -1
M  END
>  <CHROM.1>
-66.24481952,70.78301996,129.06363729,157.65461572,56.44119762,148.80592952
-67.10145342,27.33343380,37.66147430,20.11633353,-2.16594215,-1.36044388
2.05141185

>  <Name>
ligand

>  <RI>
0

>  <Rbt.Current_Directory>
/home/itssahil/PROJECTS/Mol_Feturizer/New_Systems/rnas/3F2Q

>  <Rbt.Executable>
rbdock ($Id: //depot/dev/client3/rdock/2013.1/src/exe/rbdock.cxx#4 $)

>  <Rbt.Library>
libRbt.so (2013.1, Build901 2013/11/27)

>  <Rbt.Parameter_File>
/export/apps/rDock/src/rDock_2013.1_src/data/scripts/dock_solv.prm

>  <Rbt.Receptor>
prm/pocket_docking_4.prm

>  <SCORE>
-32.0515

>  <SCORE.INTER>
-31.5661

>  <SCORE.INTER.CONST>
1

>  <SCORE.INTER.POLAR>
0

>  <SCORE.INTER.ROT>
7

>  <SCORE.INTER.SOLV>
19.5656

>  <SCORE.INTER.VDW>
-35.8326

>  <SCORE.INTER.norm>
-1.01826

>  <SCORE.INTRA>
-0.485418

>  <SCORE.INTRA.DIHEDRAL>
1.1109

>  <SCORE.INTRA.DIHEDRAL.0>
10.0718

>  <SCORE.INTRA.POLAR>
0

>  <SCORE.INTRA.POLAR.0>
0

>  <SCORE.INTRA.REPUL>
0

>  <SCORE.INTRA.REPUL.0>
0

>  <SCORE.INTRA.SOLV>
0.310046

>  <SCORE.INTRA.SOLV.lig_0>
-48.6963

>  <SCORE.INTRA.VDW>
-1.19589

>  <SCORE.INTRA.VDW.0>
-0.836976

>  <SCORE.INTRA.norm>
-0.0156587

>  <SCORE.RESTR>
0

>  <SCORE.RESTR.CAVITY>
0

>  <SCORE.RESTR.norm>
0

>  <SCORE.SYSTEM>
0

>  <SCORE.SYSTEM.CONST>
0

>  <SCORE.SYSTEM.DIHEDRAL>
0

>  <SCORE.SYSTEM.SOLV>
0

>  <SCORE.SYSTEM.norm>
0

>  <SCORE.heavy>
31

>  <SCORE.norm>
-1.03392

>  <RMSD>
1.231

$$$$
ligand
 OpenBabel11021811473D
libRbt.so/2013.1/901 2013/11/27
 31 33  0  0  0  0  0  0  0  0999 V2000
   25.8738   42.7806   16.4735 P   0  0  1  0  0  0  0  0  0  0  0  0
   24.3875   42.6135   16.7074 O   0  0  0  0  0  0  0  0  0  0  0  0
   26.0607   43.4297   15.1286 O   0  5  0  0  0  0  0  0  0  0  0  0
   26.4727   43.6540   17.5414 O   0  0  0  0  0  0  0  0  0  0  0  0
   26.4488   40.5808   17.7432 C   0  0  0  0  0  0  0  0  0  0  0  0
   26.5938   41.3546   16.5772 O   0  0  0  0  0  0  0  0  0  0  0  0
   27.2264   39.2831   17.5798 C   0  0  1  0  0  0  0  0  0  0  0  0
   28.6059   39.5832   17.5622 O   0  0  0  0  0  0  0  0  0  0  0  0
   26.9038   38.3233   18.7250 C   0  0  1  0  0  0  0  0  0  0  0  0
   25.5122   38.0913   18.7714 O   0  0  0  0  0  0  0  0  0  0  0  0
   27.6850   37.0033   18.6640 C   0  0  1  0  0  0  0  0  0  0  0  0
   28.4076   36.9286   17.4552 O   0  0  0  0  0  0  0  0  0  0  0  0
   28.6465   36.8395   19.8303 C   0  0  0  0  0  0  0  0  0  0  0  0
   28.5554   34.0791   19.2344 N   0  0  0  0  0  0  0  0  0  0  0  0
   28.5803   32.7364   18.9164 C   0  0  0  0  0  0  0  0  0  0  0  0
   28.9609   32.3710   17.8007 O   0  0  0  0  0  0  0  0  0  0  0  0
   28.1682   31.8068   19.8497 N   0  0  0  0  0  0  0  0  0  0  0  0
   27.7325   32.2144   21.0965 C   0  0  0  0  0  0  0  0  0  0  0  0
   27.7080   33.5553   21.4187 C   0  0  1  0  0  0  0  0  0  0  0  0
   27.3712   31.3960   21.9404 O   0  0  0  0  0  0  0  0  0  0  0  0
   27.2517   35.2844   22.9989 C   0  0  2  0  0  0  0  0  0  0  0  0
   27.2740   33.9442   22.6712 N   0  0  0  0  0  0  0  0  0  0  0  0
   26.8127   35.6791   24.2603 C   0  0  0  0  0  0  0  0  0  0  0  0
   26.7792   37.0284   24.5980 C   0  0  1  0  0  0  0  0  0  0  0  0
   26.3126   37.4366   25.9680 C   0  0  0  0  0  0  0  0  0  0  0  0
   27.1922   37.9861   23.6648 C   0  0  1  0  0  0  0  0  0  0  0  0
   27.1819   39.4481   24.0043 C   0  0  0  0  0  0  0  0  0  0  0  0
   27.6308   37.5876   22.4055 C   0  0  0  0  0  0  0  0  0  0  0  0
   27.6630   36.2380   22.0627 C   0  0  2  0  0  0  0  0  0  0  0  0
   28.1238   34.4957   20.4831 C   0  0  2  0  0  0  0  0  0  0  0  0
   28.0917   35.8397   20.8021 N   0  0  0  0  0  0  0  0  0  0  0  0
  1  2  1  1  0  0  0
  1  3  1  0  0  0  0
  1  4  2  0  0  0  0
  1  6  1  0  0  0  0
  5  6  1  0  0  0  0
  7  5  1  1  0  0  0
  7  8  1  0  0  0  0
  7  9  1  0  0  0  0
  9 10  1  6  0  0  0
  9 11  1  0  0  0  0
 11 12  1  6  0  0  0
 11 13  1  0  0  0  0
 13 31  1  0  0  0  0
 14 15  1  0  0  0  0
 15 16  2  0  0  0  0
 15 17  1  0  0  0  0
 17 18  1  0  0  0  0
 18 20  2  0  0  0  0
 19 18  1  1  0  0  0
 19 22  1  0  0  0  0
 19 30  1  0  0  0  0
 21 23  1  6  0  0  0
 21 29  1  0  0  0  0
 21 22  1  0  0  0  0
 23 24  1  0  0  0  0
 24 25  1  1  0  0  0
 24 26  1  0  0  0  0
 26 27  1  1  0  0  0
 26 28  1  0  0  0  0
 29 28  1  6  0  0  0
 29 31  1  0  0  0  0
 30 14  1  6  0  0  0
 30 31  1  0  0  0  0
M  CHG  1   3  -1
M  END
>  <CHROM.1>
179.93357141,-56.14599840,68.19827521,56.78799063,-7.09801672,105.36072319
-111.65297310,27.21521737,37.44816300,19.80334514,-2.23231023,-1.30436535
1.95974296

>  <Name>
ligand

>  <RI>
0

>  <Rbt.Current_Directory>
/home/itssahil/PROJECTS/Mol_Feturizer/New_Systems/rnas/3F2Q

>  <Rbt.Executable>
rbdock ($Id: //depot/dev/client3/rdock/2013.1/src/exe/rbdock.cxx#4 $)

>  <Rbt.Library>
libRbt.so (2013.1, Build901 2013/11/27)

>  <Rbt.Parameter_File>
/export/apps/rDock/src/rDock_2013.1_src/data/scripts/dock_solv.prm

>  <Rbt.Receptor>
prm/blind_docking_100.prm

>  <SCORE>
-32.5578

>  <SCORE.INTER>
-31.9561

>  <SCORE.INTER.CONST>
1

>  <SCORE.INTER.POLAR>
0

>  <SCORE.INTER.ROT>
7

>  <SCORE.INTER.SOLV>
20.9235

>  <SCORE.INTER.VDW>
-36.5453

>  <SCORE.INTER.norm>
-1.03084

>  <SCORE.INTRA>
-0.601723

>  <SCORE.INTRA.DIHEDRAL>
1.2753

>  <SCORE.INTRA.DIHEDRAL.0>
10.0718

>  <SCORE.INTRA.POLAR>
0

>  <SCORE.INTRA.POLAR.0>
0

>  <SCORE.INTRA.REPUL>
0

>  <SCORE.INTRA.REPUL.0>
0

>  <SCORE.INTRA.SOLV>
-1.3378

>  <SCORE.INTRA.SOLV.lig_0>
-48.6963

>  <SCORE.INTRA.VDW>
-0.570471

>  <SCORE.INTRA.VDW.0>
-0.836976

>  <SCORE.INTRA.norm>
-0.0194104

>  <SCORE.RESTR>
0

>  <SCORE.RESTR.CAVITY>
0

>  <SCORE.RESTR.norm>
0

>  <SCORE.SYSTEM>
0

>  <SCORE.SYSTEM.CONST>
0

>  <SCORE.SYSTEM.DIHEDRAL>
0

>  <SCORE.SYSTEM.SOLV>
0

>  <SCORE.SYSTEM.norm>
0

>  <SCORE.heavy>
31

>  <SCORE.norm>
-1.05025

>  <RMSD>
1.232

$$$$
ligand
 OpenBabel11021811473D
libRbt.so/2013.1/901 2013/11/27
 31 33  0  0  0  0  0  0  0  0999 V2000
   26.8474   42.4727   17.1320 P   0  0  1  0  0  0  0  0  0  0  0  0
   27.9928   43.4623   17.1180 O   0  0  0  0  0  0  0  0  0  0  0  0
   25.5635   43.2489   17.0130 O   0  5  0  0  0  0  0  0  0  0  0  0
   26.9692   41.5209   15.9739 O   0  0  0  0  0  0  0  0  0  0  0  0
   28.0642   40.8267   18.7419 C   0  0  0  0  0  0  0  0  0  0  0  0
   26.9174   41.5944   18.4685 O   0  0  0  0  0  0  0  0  0  0  0  0
   27.8644   40.0825   20.0540 C   0  0  1  0  0  0  0  0  0  0  0  0
   27.3605   40.9874   21.0135 O   0  0  0  0  0  0  0  0  0  0  0  0
   26.8955   38.9161   19.8604 C   0  0  1  0  0  0  0  0  0  0  0  0
   25.7381   39.3674   19.1901 O   0  0  0  0  0  0  0  0  0  0  0  0
   27.5167   37.7088   19.1442 C   0  0  1  0  0  0  0  0  0  0  0  0
   28.0130   38.1014   17.8839 O   0  0  0  0  0  0  0  0  0  0  0  0
   28.6398   37.0694   19.9450 C   0  0  0  0  0  0  0  0  0  0  0  0
   28.5554   34.3234   19.2851 N   0  0  0  0  0  0  0  0  0  0  0  0
   28.5840   32.9883   18.9370 C   0  0  0  0  0  0  0  0  0  0  0  0
   28.9819   32.6477   17.8195 O   0  0  0  0  0  0  0  0  0  0  0  0
   28.1561   32.0382   19.8422 N   0  0  0  0  0  0  0  0  0  0  0  0
   27.7011   32.4180   21.0909 C   0  0  0  0  0  0  0  0  0  0  0  0
   27.6728   33.7512   21.4432 C   0  0  1  0  0  0  0  0  0  0  0  0
   27.3255   31.5811   21.9102 O   0  0  0  0  0  0  0  0  0  0  0  0
   27.1933   35.4446   23.0548 C   0  0  2  0  0  0  0  0  0  0  0  0
   27.2194   34.1121   22.6971 N   0  0  0  0  0  0  0  0  0  0  0  0
   26.7346   35.8111   24.3178 C   0  0  0  0  0  0  0  0  0  0  0  0
   26.6971   37.1524   24.6855 C   0  0  1  0  0  0  0  0  0  0  0  0
   26.2092   37.5300   26.0569 C   0  0  0  0  0  0  0  0  0  0  0  0
   27.1259   38.1306   23.7810 C   0  0  1  0  0  0  0  0  0  0  0  0
   27.1117   39.5844   24.1535 C   0  0  0  0  0  0  0  0  0  0  0  0
   27.5841   37.7602   22.5202 C   0  0  0  0  0  0  0  0  0  0  0  0
   27.6203   36.4186   22.1472 C   0  0  2  0  0  0  0  0  0  0  0  0
   28.1044   34.7121   20.5360 C   0  0  2  0  0  0  0  0  0  0  0  0
   28.0686   36.0485   20.8849 N   0  0  0  0  0  0  0  0  0  0  0  0
  1  2  1  6  0  0  0
  1  3  1  0  0  0  0
  1  4  2  0  0  0  0
  1  6  1  0  0  0  0
  5  6  1  0  0  0  0
  7  5  1  6  0  0  0
  7  8  1  0  0  0  0
  7  9  1  0  0  0  0
  9 10  1  6  0  0  0
  9 11  1  0  0  0  0
 11 12  1  6  0  0  0
 11 13  1  0  0  0  0
 13 31  1  0  0  0  0
 14 15  1  0  0  0  0
 15 16  2  0  0  0  0
 15 17  1  0  0  0  0
 17 18  1  0  0  0  0
 18 20  2  0  0  0  0
 19 18  1  1  0  0  0
 19 22  1  0  0  0  0
 19 30  1  0  0  0  0
 21 23  1  6  0  0  0
 21 29  1  0  0  0  0
 21 22  1  0  0  0  0
 23 24  1  0  0  0  0
 24 25  1  1  0  0  0
 24 26  1  0  0  0  0
 26 27  1  1  0  0  0
 26 28  1  0  0  0  0
 29 28  1  6  0  0  0
 29 31  1  0  0  0  0
 30 14  1  6  0  0  0
 30 31  1  0  0  0  0
M  CHG  1   3  -1
M  END
>  <CHROM.1>
-179.33642187,-58.78311198,-46.78132062,-49.40543742,-57.74503131,87.38235401
-86.97347807,27.41421334,37.69504278,20.27797677,-1.95509542,-1.35575377
2.32049364

>  <Name>
ligand

>  <RI>
0

>  <Rbt.Current_Directory>
/home/itssahil/PROJECTS/Mol_Feturizer/New_Systems/rnas/3F2Q

>  <Rbt.Executable>
rbdock ($Id: //depot/dev/client3/rdock/2013.1/src/exe/rbdock.cxx#4 $)

>  <Rbt.Library>
libRbt.so (2013.1, Build901 2013/11/27)

>  <Rbt.Parameter_File>
/export/apps/rDock/src/rDock_2013.1_src/data/scripts/dock_solv.prm

>  <Rbt.Receptor>
prm/pocket_docking_6.prm

>  <SCORE>
-35.4378

>  <SCORE.INTER>
-31.5521

>  <SCORE.INTER.CONST>
1

>  <SCORE.INTER.POLAR>
0

>  <SCORE.INTER.ROT>
7

>  <SCORE.INTER.SOLV>
17.0103

>  <SCORE.INTER.VDW>
-34.9715

>  <SCORE.INTER.norm>
-1.01781

>  <SCORE.INTRA>
-3.88572

>  <SCORE.INTRA.DIHEDRAL>
-5.27956

>  <SCORE.INTRA.DIHEDRAL.0>
10.0718

>  <SCORE.INTRA.POLAR>
0

>  <SCORE.INTRA.POLAR.0>
0

>  <SCORE.INTRA.REPUL>
0

>  <SCORE.INTRA.REPUL.0>
0

>  <SCORE.INTRA.SOLV>
-0.172689

>  <SCORE.INTRA.SOLV.lig_0>
-48.6963

>  <SCORE.INTRA.VDW>
-1.1596

>  <SCORE.INTRA.VDW.0>
-0.836976

>  <SCORE.INTRA.norm>
-0.125346

>  <SCORE.RESTR>
0

>  <SCORE.RESTR.CAVITY>
0

>  <SCORE.RESTR.norm>
0

>  <SCORE.SYSTEM>
0

>  <SCORE.SYSTEM.CONST>
0

>  <SCORE.SYSTEM.DIHEDRAL>
0

>  <SCORE.SYSTEM.SOLV>
0

>  <SCORE.SYSTEM.norm>
0

>  <SCORE.heavy>
31

>  <SCORE.norm>
-1.14315

>  <RMSD>
1.233

$$$$
ligand
 OpenBabel11021811473D
libRbt.so/2013.1/901 2013/11/27
 31 33  0  0  0  0  0  0  0  0999 V2000
   25.8373   43.3251   16.1449 P   0  0  1  0  0  0  0  0  0  0  0  0
   24.6274   43.5775   15.2709 O   0  0  0  0  0  0  0  0  0  0  0  0
   27.0655   43.6678   15.3453 O   0  5  0  0  0  0  0  0  0  0  0  0
   25.7796   44.1897   17.3741 O   0  0  0  0  0  0  0  0  0  0  0  0
   26.9050   41.3090   17.4006 C   0  0  0  0  0  0  0  0  0  0  0  0
   25.8281   41.8036   16.6424 O   0  0  0  0  0  0  0  0  0  0  0  0
   26.6043   39.8769   17.8178 C   0  0  1  0  0  0  0  0  0  0  0  0
   26.5953   39.0634   16.6639 O   0  0  0  0  0  0  0  0  0  0  0  0
   27.6553   39.3817   18.8113 C   0  0  1  0  0  0  0  0  0  0  0  0
   27.9400   40.3996   19.7470 O   0  0  0  0  0  0  0  0  0  0  0  0
   27.2725   38.0722   19.5148 C   0  0  1  0  0  0  0  0  0  0  0  0
   26.7088   37.1745   18.5846 O   0  0  0  0  0  0  0  0  0  0  0  0
   28.4584   37.4062   20.1943 C   0  0  0  0  0  0  0  0  0  0  0  0
   28.4683   34.6721   19.4818 N   0  0  0  0  0  0  0  0  0  0  0  0
   28.5416   33.3463   19.1057 C   0  0  0  0  0  0  0  0  0  0  0  0
   28.9115   33.0448   17.9675 O   0  0  0  0  0  0  0  0  0  0  0  0
   28.1896   32.3614   20.0063 N   0  0  0  0  0  0  0  0  0  0  0  0
   27.7659   32.6972   21.2784 C   0  0  0  0  0  0  0  0  0  0  0  0
   27.6931   34.0210   21.6587 C   0  0  1  0  0  0  0  0  0  0  0  0
   27.4580   31.8293   22.0936 O   0  0  0  0  0  0  0  0  0  0  0  0
   27.2016   35.6609   23.3212 C   0  0  2  0  0  0  0  0  0  0  0  0
   27.2720   34.3379   22.9356 N   0  0  0  0  0  0  0  0  0  0  0  0
   26.7754   35.9830   24.6075 C   0  0  0  0  0  0  0  0  0  0  0  0
   26.6937   37.3142   25.0037 C   0  0  1  0  0  0  0  0  0  0  0  0
   26.2418   37.6440   26.3996 C   0  0  0  0  0  0  0  0  0  0  0  0
   27.0453   38.3271   24.1043 C   0  0  1  0  0  0  0  0  0  0  0  0
   26.9822   39.7717   24.5068 C   0  0  0  0  0  0  0  0  0  0  0  0
   27.4714   38.0011   22.8201 C   0  0  0  0  0  0  0  0  0  0  0  0
   27.5516   36.6697   22.4187 C   0  0  2  0  0  0  0  0  0  0  0  0
   28.0482   35.0169   20.7561 C   0  0  2  0  0  0  0  0  0  0  0  0
   27.9677   36.3436   21.1334 N   0  0  0  0  0  0  0  0  0  0  0  0
  1  2  1  6  0  0  0
  1  3  1  0  0  0  0
  1  4  2  0  0  0  0
  1  6  1  0  0  0  0
  5  6  1  0  0  0  0
  7  5  1  6  0  0  0
  7  8  1  0  0  0  0
  7  9  1  0  0  0  0
  9 10  1  1  0  0  0
  9 11  1  0  0  0  0
 11 12  1  6  0  0  0
 11 13  1  0  0  0  0
 13 31  1  0  0  0  0
 14 15  1  0  0  0  0
 15 16  2  0  0  0  0
 15 17  1  0  0  0  0
 17 18  1  0  0  0  0
 18 20  2  0  0  0  0
 19 18  1  1  0  0  0
 19 22  1  0  0  0  0
 19 30  1  0  0  0  0
 21 23  1  6  0  0  0
 21 29  1  0  0  0  0
 21 22  1  0  0  0  0
 23 24  1  0  0  0  0
 24 25  1  1  0  0  0
 24 26  1  0  0  0  0
 26 27  1  1  0  0  0
 26 28  1  0  0  0  0
 29 28  1  6  0  0  0
 29 31  1  0  0  0  0
 30 14  1  6  0  0  0
 30 31  1  0  0  0  0
M  CHG  1   3  -1
M  END
>  <CHROM.1>
176.30214593,175.87017487,67.17011521,42.29277216,42.50636489,165.90897990
-83.34529866,27.12736680,37.99059220,19.97022714,-2.29060261,-1.33851418
1.82239927

>  <Name>
ligand

>  <RI>
0

>  <Rbt.Current_Directory>
/home/itssahil/PROJECTS/Mol_Feturizer/New_Systems/rnas/3F2Q

>  <Rbt.Executable>
rbdock ($Id: //depot/dev/client3/rdock/2013.1/src/exe/rbdock.cxx#4 $)

>  <Rbt.Library>
libRbt.so (2013.1, Build901 2013/11/27)

>  <Rbt.Parameter_File>
/export/apps/rDock/src/rDock_2013.1_src/data/scripts/dock_solv.prm

>  <Rbt.Receptor>
prm/pocket_docking_8.prm

>  <SCORE>
-34.7458

>  <SCORE.INTER>
-30.8311

>  <SCORE.INTER.CONST>
1

>  <SCORE.INTER.POLAR>
0

>  <SCORE.INTER.ROT>
7

>  <SCORE.INTER.SOLV>
22.0379

>  <SCORE.INTER.VDW>
-36.1667

>  <SCORE.INTER.norm>
-0.994553

>  <SCORE.INTRA>
-3.91462

>  <SCORE.INTRA.DIHEDRAL>
-5.4831

>  <SCORE.INTRA.DIHEDRAL.0>
10.0718

>  <SCORE.INTRA.POLAR>
0

>  <SCORE.INTRA.POLAR.0>
0

>  <SCORE.INTRA.REPUL>
0

>  <SCORE.INTRA.REPUL.0>
0

>  <SCORE.INTRA.SOLV>
-0.868739

>  <SCORE.INTRA.SOLV.lig_0>
-48.6963

>  <SCORE.INTRA.VDW>
-0.738704

>  <SCORE.INTRA.VDW.0>
-0.836976

>  <SCORE.INTRA.norm>
-0.126278

>  <SCORE.RESTR>
0

>  <SCORE.RESTR.CAVITY>
0

>  <SCORE.RESTR.norm>
0

>  <SCORE.SYSTEM>
0

>  <SCORE.SYSTEM.CONST>
0

>  <SCORE.SYSTEM.DIHEDRAL>
0

>  <SCORE.SYSTEM.SOLV>
0

>  <SCORE.SYSTEM.norm>
0

>  <SCORE.heavy>
31

>  <SCORE.norm>
-1.12083

>  <RMSD>
1.241

$$$$
ligand
 OpenBabel11021811473D
libRbt.so/2013.1/901 2013/11/27
 31 33  0  0  0  0  0  0  0  0999 V2000
   26.1739   43.1344   16.9091 P   0  0  1  0  0  0  0  0  0  0  0  0
   26.1230   41.9290   15.9947 O   0  0  0  0  0  0  0  0  0  0  0  0
   27.3660   43.9643   16.5150 O   0  5  0  0  0  0  0  0  0  0  0  0
   24.9204   43.9520   16.7610 O   0  0  0  0  0  0  0  0  0  0  0  0
   27.2814   41.8037   18.8545 C   0  0  0  0  0  0  0  0  0  0  0  0
   26.2368   42.6463   18.4324 O   0  0  0  0  0  0  0  0  0  0  0  0
   26.7806   40.3673   18.8873 C   0  0  1  0  0  0  0  0  0  0  0  0
   26.3924   39.9951   17.5818 O   0  0  0  0  0  0  0  0  0  0  0  0
   27.8761   39.4349   19.4042 C   0  0  1  0  0  0  0  0  0  0  0  0
   28.3896   39.9351   20.6202 O   0  0  0  0  0  0  0  0  0  0  0  0
   27.4268   37.9744   19.5501 C   0  0  1  0  0  0  0  0  0  0  0  0
   26.8903   37.5130   18.3303 O   0  0  0  0  0  0  0  0  0  0  0  0
   28.5602   37.0547   19.9757 C   0  0  0  0  0  0  0  0  0  0  0  0
   28.5047   34.3040   19.3320 N   0  0  0  0  0  0  0  0  0  0  0  0
   28.5464   32.9678   18.9895 C   0  0  0  0  0  0  0  0  0  0  0  0
   28.9129   32.6287   17.8609 O   0  0  0  0  0  0  0  0  0  0  0  0
   28.1666   32.0149   19.9131 N   0  0  0  0  0  0  0  0  0  0  0  0
   27.7467   32.3930   21.1745 C   0  0  0  0  0  0  0  0  0  0  0  0
   27.7055   33.7274   21.5212 C   0  0  1  0  0  0  0  0  0  0  0  0
   27.4143   31.5538   22.0099 O   0  0  0  0  0  0  0  0  0  0  0  0
   27.2488   35.4202   23.1400 C   0  0  2  0  0  0  0  0  0  0  0  0
   27.2877   34.0866   22.7879 N   0  0  0  0  0  0  0  0  0  0  0  0
   26.8260   35.7850   24.4159 C   0  0  0  0  0  0  0  0  0  0  0  0
   26.7759   37.1274   24.7782 C   0  0  1  0  0  0  0  0  0  0  0  0
   26.3272   37.5033   26.1634 C   0  0  0  0  0  0  0  0  0  0  0  0
   27.1560   38.1084   23.8552 C   0  0  1  0  0  0  0  0  0  0  0  0
   27.1273   39.5637   24.2211 C   0  0  0  0  0  0  0  0  0  0  0  0
   27.5785   37.7397   22.5815 C   0  0  0  0  0  0  0  0  0  0  0  0
   27.6272   36.3971   22.2140 C   0  0  2  0  0  0  0  0  0  0  0  0
   28.0886   34.6911   20.5955 C   0  0  2  0  0  0  0  0  0  0  0  0
   28.0398   36.0285   20.9390 N   0  0  0  0  0  0  0  0  0  0  0  0
  1  2  1  6  0  0  0
  1  3  1  0  0  0  0
  1  4  2  0  0  0  0
  1  6  1  0  0  0  0
  5  6  1  0  0  0  0
  7  5  1  6  0  0  0
  7  8  1  0  0  0  0
  7  9  1  0  0  0  0
  9 10  1  1  0  0  0
  9 11  1  0  0  0  0
 11 12  1  6  0  0  0
 11 13  1  0  0  0  0
 13 31  1  0  0  0  0
 14 15  1  0  0  0  0
 15 16  2  0  0  0  0
 15 17  1  0  0  0  0
 17 18  1  0  0  0  0
 18 20  2  0  0  0  0
 19 18  1  1  0  0  0
 19 22  1  0  0  0  0
 19 30  1  0  0  0  0
 21 23  1  6  0  0  0
 21 29  1  0  0  0  0
 21 22  1  0  0  0  0
 23 24  1  0  0  0  0
 24 25  1  1  0  0  0
 24 26  1  0  0  0  0
 26 27  1  1  0  0  0
 26 28  1  0  0  0  0
 29 28  1  6  0  0  0
 29 31  1  0  0  0  0
 30 14  1  6  0  0  0
 30 31  1  0  0  0  0
M  CHG  1   3  -1
M  END
>  <CHROM.1>
-99.31111019,57.75906791,61.42521519,51.29809328,54.25851627,141.89341086
-68.58051620,27.26799588,37.84872412,20.18438260,-2.31532115,-1.36788317
1.93759244

>  <Name>
ligand

>  <RI>
0

>  <Rbt.Current_Directory>
/home/itssahil/PROJECTS/Mol_Feturizer/New_Systems/rnas/3F2Q

>  <Rbt.Executable>
rbdock ($Id: //depot/dev/client3/rdock/2013.1/src/exe/rbdock.cxx#4 $)

>  <Rbt.Library>
libRbt.so (2013.1, Build901 2013/11/27)

>  <Rbt.Parameter_File>
/export/apps/rDock/src/rDock_2013.1_src/data/scripts/dock_solv.prm

>  <Rbt.Receptor>
prm/blind_docking_80.prm

>  <SCORE>
-32.9836

>  <SCORE.INTER>
-32.2707

>  <SCORE.INTER.CONST>
1

>  <SCORE.INTER.POLAR>
0

>  <SCORE.INTER.ROT>
7

>  <SCORE.INTER.SOLV>
18.44

>  <SCORE.INTER.VDW>
-35.9271

>  <SCORE.INTER.norm>
-1.04099

>  <SCORE.INTRA>
-0.712957

>  <SCORE.INTRA.DIHEDRAL>
0.741535

>  <SCORE.INTRA.DIHEDRAL.0>
10.0718

>  <SCORE.INTRA.POLAR>
0

>  <SCORE.INTRA.POLAR.0>
0

>  <SCORE.INTRA.REPUL>
0

>  <SCORE.INTRA.REPUL.0>
0

>  <SCORE.INTRA.SOLV>
-0.194055

>  <SCORE.INTRA.SOLV.lig_0>
-48.6963

>  <SCORE.INTRA.VDW>
-0.986698

>  <SCORE.INTRA.VDW.0>
-0.836976

>  <SCORE.INTRA.norm>
-0.0229986

>  <SCORE.RESTR>
0

>  <SCORE.RESTR.CAVITY>
0

>  <SCORE.RESTR.norm>
0

>  <SCORE.SYSTEM>
0

>  <SCORE.SYSTEM.CONST>
0

>  <SCORE.SYSTEM.DIHEDRAL>
0

>  <SCORE.SYSTEM.SOLV>
0

>  <SCORE.SYSTEM.norm>
0

>  <SCORE.heavy>
31

>  <SCORE.norm>
-1.06399

>  <RMSD>
1.247

$$$$
ligand
 OpenBabel11021811473D
libRbt.so/2013.1/901 2013/11/27
 31 33  0  0  0  0  0  0  0  0999 V2000
   26.0187   42.9954   16.5510 P   0  0  1  0  0  0  0  0  0  0  0  0
   24.6810   43.6002   16.9204 O   0  0  0  0  0  0  0  0  0  0  0  0
   26.2074   43.1608   15.0670 O   0  5  0  0  0  0  0  0  0  0  0  0
   27.1276   43.7017   17.2811 O   0  0  0  0  0  0  0  0  0  0  0  0
   27.2362   40.7130   16.8507 C   0  0  0  0  0  0  0  0  0  0  0  0
   26.0568   41.4628   17.0120 O   0  0  0  0  0  0  0  0  0  0  0  0
   27.0047   39.3021   17.3716 C   0  0  1  0  0  0  0  0  0  0  0  0
   28.0931   38.4925   16.9800 O   0  0  0  0  0  0  0  0  0  0  0  0
   26.8695   39.3142   18.8942 C   0  0  1  0  0  0  0  0  0  0  0  0
   25.8532   40.2176   19.2729 O   0  0  0  0  0  0  0  0  0  0  0  0
   26.6340   37.9257   19.5049 C   0  0  1  0  0  0  0  0  0  0  0  0
   25.8604   37.1396   18.6260 O   0  0  0  0  0  0  0  0  0  0  0  0
   27.9316   37.1964   19.8148 C   0  0  0  0  0  0  0  0  0  0  0  0
   28.0307   34.4359   19.2204 N   0  0  0  0  0  0  0  0  0  0  0  0
   28.1412   33.1005   18.8906 C   0  0  0  0  0  0  0  0  0  0  0  0
   28.3410   32.7660   17.7195 O   0  0  0  0  0  0  0  0  0  0  0  0
   28.0172   32.1421   19.8761 N   0  0  0  0  0  0  0  0  0  0  0  0
   27.7838   32.5139   21.1867 C   0  0  0  0  0  0  0  0  0  0  0  0
   27.6747   33.8477   21.5207 C   0  0  1  0  0  0  0  0  0  0  0  0
   27.6803   31.6707   22.0760 O   0  0  0  0  0  0  0  0  0  0  0  0
   27.3404   35.5346   23.1752 C   0  0  2  0  0  0  0  0  0  0  0  0
   27.4462   34.2012   22.8364 N   0  0  0  0  0  0  0  0  0  0  0  0
   27.1080   35.8934   24.5007 C   0  0  0  0  0  0  0  0  0  0  0  0
   26.9922   37.2348   24.8515 C   0  0  1  0  0  0  0  0  0  0  0  0
   26.7519   37.6052   26.2891 C   0  0  0  0  0  0  0  0  0  0  0  0
   27.1140   38.2212   23.8662 C   0  0  1  0  0  0  0  0  0  0  0  0
   27.0089   39.6770   24.2156 C   0  0  0  0  0  0  0  0  0  0  0  0
   27.3468   37.8585   22.5429 C   0  0  0  0  0  0  0  0  0  0  0  0
   27.4604   36.5166   22.1872 C   0  0  2  0  0  0  0  0  0  0  0  0
   27.8007   34.8172   20.5323 C   0  0  2  0  0  0  0  0  0  0  0  0
   27.6833   36.1532   20.8645 N   0  0  0  0  0  0  0  0  0  0  0  0
  1  2  1  1  0  0  0
  1  3  1  0  0  0  0
  1  4  2  0  0  0  0
  1  6  1  0  0  0  0
  5  6  1  0  0  0  0
  7  5  1  1  0  0  0
  7  8  1  0  0  0  0
  7  9  1  0  0  0  0
  9 10  1  6  0  0  0
  9 11  1  0  0  0  0
 11 12  1  6  0  0  0
 11 13  1  0  0  0  0
 13 31  1  0  0  0  0
 14 15  1  0  0  0  0
 15 16  2  0  0  0  0
 15 17  1  0  0  0  0
 17 18  1  0  0  0  0
 18 20  2  0  0  0  0
 19 18  1  1  0  0  0
 19 22  1  0  0  0  0
 19 30  1  0  0  0  0
 21 23  1  6  0  0  0
 21 29  1  0  0  0  0
 21 22  1  0  0  0  0
 23 24  1  0  0  0  0
 24 25  1  1  0  0  0
 24 26  1  0  0  0  0
 26 27  1  1  0  0  0
 26 28  1  0  0  0  0
 29 28  1  6  0  0  0
 29 31  1  0  0  0  0
 30 14  1  6  0  0  0
 30 31  1  0  0  0  0
M  CHG  1   3  -1
M  END
>  <CHROM.1>
179.72310488,-175.95699915,169.05365775,54.84219666,-33.97629717,157.52354264
-72.82244755,27.06269367,37.75999976,19.91754803,2.39409633,1.37139642,-1.38338734

>  <Name>
ligand

>  <RI>
0

>  <Rbt.Current_Directory>
/home/itssahil/PROJECTS/Mol_Feturizer/New_Systems/rnas/3F2Q

>  <Rbt.Executable>
rbdock ($Id: //depot/dev/client3/rdock/2013.1/src/exe/rbdock.cxx#4 $)

>  <Rbt.Library>
libRbt.so (2013.1, Build901 2013/11/27)

>  <Rbt.Parameter_File>
/export/apps/rDock/src/rDock_2013.1_src/data/scripts/dock_solv.prm

>  <Rbt.Receptor>
prm/pocket_docking_2.prm

>  <SCORE>
-33.6988

>  <SCORE.INTER>
-30.5073

>  <SCORE.INTER.CONST>
1

>  <SCORE.INTER.POLAR>
0

>  <SCORE.INTER.ROT>
7

>  <SCORE.INTER.SOLV>
21.3573

>  <SCORE.INTER.VDW>
-35.724

>  <SCORE.INTER.norm>
-0.984107

>  <SCORE.INTRA>
-3.21045

>  <SCORE.INTRA.DIHEDRAL>
-4.41192

>  <SCORE.INTRA.DIHEDRAL.0>
10.0718

>  <SCORE.INTRA.POLAR>
0

>  <SCORE.INTRA.POLAR.0>
0

>  <SCORE.INTRA.REPUL>
0

>  <SCORE.INTRA.REPUL.0>
0

>  <SCORE.INTRA.SOLV>
-0.199523

>  <SCORE.INTRA.SOLV.lig_0>
-48.6963

>  <SCORE.INTRA.VDW>
-0.904732

>  <SCORE.INTRA.VDW.0>
-0.836976

>  <SCORE.INTRA.norm>
-0.103563

>  <SCORE.RESTR>
0.0189615

>  <SCORE.RESTR.CAVITY>
0.0189615

>  <SCORE.RESTR.norm>
0.000611662

>  <SCORE.SYSTEM>
0

>  <SCORE.SYSTEM.CONST>
0

>  <SCORE.SYSTEM.DIHEDRAL>
0

>  <SCORE.SYSTEM.SOLV>
0

>  <SCORE.SYSTEM.norm>
0

>  <SCORE.heavy>
31

>  <SCORE.norm>
-1.08706

>  <RMSD>
1.248

$$$$
ligand
 OpenBabel11021811473D
libRbt.so/2013.1/901 2013/11/27
 31 33  0  0  0  0  0  0  0  0999 V2000
   25.8375   42.7666   17.1304 P   0  0  1  0  0  0  0  0  0  0  0  0
   25.9792   42.3785   15.6740 O   0  0  0  0  0  0  0  0  0  0  0  0
   27.1430   43.3663   17.5787 O   0  5  0  0  0  0  0  0  0  0  0  0
   24.7366   43.7782   17.2936 O   0  0  0  0  0  0  0  0  0  0  0  0
   26.4169   40.6867   18.5863 C   0  0  0  0  0  0  0  0  0  0  0  0
   25.4214   41.4801   17.9873 O   0  0  0  0  0  0  0  0  0  0  0  0
   26.9482   39.6959   17.5608 C   0  0  1  0  0  0  0  0  0  0  0  0
   27.4575   40.4169   16.4589 O   0  0  0  0  0  0  0  0  0  0  0  0
   28.0418   38.8260   18.1805 C   0  0  1  0  0  0  0  0  0  0  0  0
   29.0739   39.6478   18.6825 O   0  0  0  0  0  0  0  0  0  0  0  0
   27.5276   37.8602   19.2572 C   0  0  1  0  0  0  0  0  0  0  0  0
   26.6324   36.9340   18.6832 O   0  0  0  0  0  0  0  0  0  0  0  0
   28.6513   37.1047   19.9484 C   0  0  0  0  0  0  0  0  0  0  0  0
   28.5568   34.3631   19.2716 N   0  0  0  0  0  0  0  0  0  0  0  0
   28.5806   33.0300   18.9157 C   0  0  0  0  0  0  0  0  0  0  0  0
   28.9825   32.6941   17.7981 O   0  0  0  0  0  0  0  0  0  0  0  0
   28.1433   32.0766   19.8129 N   0  0  0  0  0  0  0  0  0  0  0  0
   27.6837   32.4512   21.0616 C   0  0  0  0  0  0  0  0  0  0  0  0
   27.6602   33.7824   21.4217 C   0  0  1  0  0  0  0  0  0  0  0  0
   27.2998   31.6113   21.8738 O   0  0  0  0  0  0  0  0  0  0  0  0
   27.1808   35.4685   23.0410 C   0  0  2  0  0  0  0  0  0  0  0  0
   27.2022   34.1381   22.6754 N   0  0  0  0  0  0  0  0  0  0  0  0
   26.7175   35.8297   24.3038 C   0  0  0  0  0  0  0  0  0  0  0  0
   26.6847   37.1690   24.6793 C   0  0  1  0  0  0  0  0  0  0  0  0
   26.1916   37.5408   26.0504 C   0  0  0  0  0  0  0  0  0  0  0  0
   27.1230   38.1504   23.7829 C   0  0  1  0  0  0  0  0  0  0  0  0
   27.1140   39.6020   24.1641 C   0  0  0  0  0  0  0  0  0  0  0  0
   27.5858   37.7852   22.5222 C   0  0  0  0  0  0  0  0  0  0  0  0
   27.6173   36.4458   22.1415 C   0  0  2  0  0  0  0  0  0  0  0  0
   28.1013   34.7465   20.5224 C   0  0  2  0  0  0  0  0  0  0  0  0
   28.0703   36.0810   20.8792 N   0  0  0  0  0  0  0  0  0  0  0  0
  1  2  1  6  0  0  0
  1  3  1  0  0  0  0
  1  4  2  0  0  0  0
  1  6  1  0  0  0  0
  5  6  1  0  0  0  0
  7  5  1  1  0  0  0
  7  8  1  0  0  0  0
  7  9  1  0  0  0  0
  9 10  1  1  0  0  0
  9 11  1  0  0  0  0
 11 12  1  6  0  0  0
 11 13  1  0  0  0  0
 13 31  1  0  0  0  0
 14 15  1  0  0  0  0
 15 16  2  0  0  0  0
 15 17  1  0  0  0  0
 17 18  1  0  0  0  0
 18 20  2  0  0  0  0
 19 18  1  1  0  0  0
 19 22  1  0  0  0  0
 19 30  1  0  0  0  0
 21 23  1  6  0  0  0
 21 29  1  0  0  0  0
 21 22  1  0  0  0  0
 23 24  1  0  0  0  0
 24 25  1  1  0  0  0
 24 26  1  0  0  0  0
 26 27  1  1  0  0  0
 26 28  1  0  0  0  0
 29 28  1  6  0  0  0
 29 31  1  0  0  0  0
 30 14  1  6  0  0  0
 30 31  1  0  0  0  0
M  CHG  1   3  -1
M  END
>  <CHROM.1>
-83.62286074,92.31057426,58.36541520,-57.08146086,63.62030836,-174.05742787
-80.81710170,27.22045206,37.70783588,19.99424774,2.20425442,1.30811219,-1.11461993

>  <Name>
ligand

>  <RI>
0

>  <Rbt.Current_Directory>
/home/itssahil/PROJECTS/Mol_Feturizer/New_Systems/rnas/3F2Q

>  <Rbt.Executable>
rbdock ($Id: //depot/dev/client3/rdock/2013.1/src/exe/rbdock.cxx#4 $)

>  <Rbt.Library>
libRbt.so (2013.1, Build901 2013/11/27)

>  <Rbt.Parameter_File>
/export/apps/rDock/src/rDock_2013.1_src/data/scripts/dock_solv.prm

>  <Rbt.Receptor>
prm/blind_docking_60.prm

>  <SCORE>
-35.0988

>  <SCORE.INTER>
-32.3567

>  <SCORE.INTER.CONST>
1

>  <SCORE.INTER.POLAR>
0

>  <SCORE.INTER.ROT>
7

>  <SCORE.INTER.SOLV>
16.9122

>  <SCORE.INTER.VDW>
-35.4752

>  <SCORE.INTER.norm>
-1.04376

>  <SCORE.INTRA>
-2.74213

>  <SCORE.INTRA.DIHEDRAL>
-4.62764

>  <SCORE.INTRA.DIHEDRAL.0>
10.0718

>  <SCORE.INTRA.POLAR>
0

>  <SCORE.INTRA.POLAR.0>
0

>  <SCORE.INTRA.REPUL>
0

>  <SCORE.INTRA.REPUL.0>
0

>  <SCORE.INTRA.SOLV>
0.805551

>  <SCORE.INTRA.SOLV.lig_0>
-48.6963

>  <SCORE.INTRA.VDW>
-0.831085

>  <SCORE.INTRA.VDW.0>
-0.836976

>  <SCORE.INTRA.norm>
-0.0884557

>  <SCORE.RESTR>
0

>  <SCORE.RESTR.CAVITY>
0

>  <SCORE.RESTR.norm>
0

>  <SCORE.SYSTEM>
0

>  <SCORE.SYSTEM.CONST>
0

>  <SCORE.SYSTEM.DIHEDRAL>
0

>  <SCORE.SYSTEM.SOLV>
0

>  <SCORE.SYSTEM.norm>
0

>  <SCORE.heavy>
31

>  <SCORE.norm>
-1.13222

>  <RMSD>
1.249

$$$$
ligand
 OpenBabel11021811473D
libRbt.so/2013.1/901 2013/11/27
 31 33  0  0  0  0  0  0  0  0999 V2000
   25.8296   42.7200   17.0151 P   0  0  1  0  0  0  0  0  0  0  0  0
   26.0287   42.3860   15.5521 O   0  0  0  0  0  0  0  0  0  0  0  0
   27.0959   43.3569   17.5209 O   0  5  0  0  0  0  0  0  0  0  0  0
   24.6837   43.6804   17.1773 O   0  0  0  0  0  0  0  0  0  0  0  0
   26.4488   40.6386   18.4525 C   0  0  0  0  0  0  0  0  0  0  0  0
   25.4428   41.3903   17.8181 O   0  0  0  0  0  0  0  0  0  0  0  0
   27.0441   39.6586   17.4522 C   0  0  1  0  0  0  0  0  0  0  0  0
   27.5811   40.3892   16.3700 O   0  0  0  0  0  0  0  0  0  0  0  0
   28.1311   38.8152   18.1183 C   0  0  1  0  0  0  0  0  0  0  0  0
   29.1295   39.6609   18.6479 O   0  0  0  0  0  0  0  0  0  0  0  0
   27.5974   37.8499   19.1859 C   0  0  1  0  0  0  0  0  0  0  0  0
   26.6979   36.9355   18.5997 O   0  0  0  0  0  0  0  0  0  0  0  0
   28.7071   37.0796   19.8836 C   0  0  0  0  0  0  0  0  0  0  0  0
   28.5913   34.3362   19.2174 N   0  0  0  0  0  0  0  0  0  0  0  0
   28.6050   33.0014   18.8673 C   0  0  0  0  0  0  0  0  0  0  0  0
   29.0139   32.6568   17.7549 O   0  0  0  0  0  0  0  0  0  0  0  0
   28.1500   32.0564   19.7644 N   0  0  0  0  0  0  0  0  0  0  0  0
   27.6827   32.4408   21.0072 C   0  0  0  0  0  0  0  0  0  0  0  0
   27.6692   33.7738   21.3614 C   0  0  1  0  0  0  0  0  0  0  0  0
   27.2829   31.6083   21.8193 O   0  0  0  0  0  0  0  0  0  0  0  0
   27.1918   35.4714   22.9692 C   0  0  2  0  0  0  0  0  0  0  0  0
   27.2032   34.1393   22.6094 N   0  0  0  0  0  0  0  0  0  0  0  0
   26.7205   35.8426   24.2261 C   0  0  0  0  0  0  0  0  0  0  0  0
   26.6977   37.1838   24.5957 C   0  0  1  0  0  0  0  0  0  0  0  0
   26.1956   37.5663   25.9607 C   0  0  0  0  0  0  0  0  0  0  0  0
   27.1540   38.1569   23.6993 C   0  0  1  0  0  0  0  0  0  0  0  0
   27.1560   39.6102   24.0743 C   0  0  0  0  0  0  0  0  0  0  0  0
   27.6247   37.7818   22.4445 C   0  0  0  0  0  0  0  0  0  0  0  0
   27.6463   36.4405   22.0697 C   0  0  2  0  0  0  0  0  0  0  0  0
   28.1281   34.7296   20.4623 C   0  0  2  0  0  0  0  0  0  0  0  0
   28.1072   36.0658   20.8132 N   0  0  0  0  0  0  0  0  0  0  0  0
  1  2  1  6  0  0  0
  1  3  1  0  0  0  0
  1  4  2  0  0  0  0
  1  6  1  0  0  0  0
  5  6  1  0  0  0  0
  7  5  1  1  0  0  0
  7  8  1  0  0  0  0
  7  9  1  0  0  0  0
  9 10  1  1  0  0  0
  9 11  1  0  0  0  0
 11 12  1  6  0  0  0
 11 13  1  0  0  0  0
 13 31  1  0  0  0  0
 14 15  1  0  0  0  0
 15 16  2  0  0  0  0
 15 17  1  0  0  0  0
 17 18  1  0  0  0  0
 18 20  2  0  0  0  0
 19 18  1  1  0  0  0
 19 22  1  0  0  0  0
 19 30  1  0  0  0  0
 21 23  1  6  0  0  0
 21 29  1  0  0  0  0
 21 22  1  0  0  0  0
 23 24  1  0  0  0  0
 24 25  1  1  0  0  0
 24 26  1  0  0  0  0
 26 27  1  1  0  0  0
 26 28  1  0  0  0  0
 29 28  1  6  0  0  0
 29 31  1  0  0  0  0
 30 14  1  6  0  0  0
 30 31  1  0  0  0  0
M  CHG  1   3  -1
M  END
>  <CHROM.1>
-86.35794533,94.07844819,59.48053944,-57.66916222,61.24312062,-174.54077965
-80.43290116,27.24725748,37.69020708,19.91373487,2.19810655,1.30612623,-1.11436680

>  <Name>
ligand

>  <RI>
0

>  <Rbt.Current_Directory>
/home/itssahil/PROJECTS/Mol_Feturizer/New_Systems/rnas/3F2Q

>  <Rbt.Executable>
rbdock ($Id: //depot/dev/client3/rdock/2013.1/src/exe/rbdock.cxx#4 $)

>  <Rbt.Library>
libRbt.so (2013.1, Build901 2013/11/27)

>  <Rbt.Parameter_File>
/export/apps/rDock/src/rDock_2013.1_src/data/scripts/dock_solv.prm

>  <Rbt.Receptor>
prm/pocket_docking_3.prm

>  <SCORE>
-34.8875

>  <SCORE.INTER>
-32.0859

>  <SCORE.INTER.CONST>
1

>  <SCORE.INTER.POLAR>
0

>  <SCORE.INTER.ROT>
7

>  <SCORE.INTER.SOLV>
16.6484

>  <SCORE.INTER.VDW>
-35.2067

>  <SCORE.INTER.norm>
-1.03503

>  <SCORE.INTRA>
-2.80162

>  <SCORE.INTRA.DIHEDRAL>
-4.0985

>  <SCORE.INTRA.DIHEDRAL.0>
10.0718

>  <SCORE.INTRA.POLAR>
0

>  <SCORE.INTRA.POLAR.0>
0

>  <SCORE.INTRA.REPUL>
0

>  <SCORE.INTRA.REPUL.0>
0

>  <SCORE.INTRA.SOLV>
0.685083

>  <SCORE.INTRA.SOLV.lig_0>
-48.6963

>  <SCORE.INTRA.VDW>
-1.09492

>  <SCORE.INTRA.VDW.0>
-0.836976

>  <SCORE.INTRA.norm>
-0.0903749

>  <SCORE.RESTR>
0

>  <SCORE.RESTR.CAVITY>
0

>  <SCORE.RESTR.norm>
0

>  <SCORE.SYSTEM>
0

>  <SCORE.SYSTEM.CONST>
0

>  <SCORE.SYSTEM.DIHEDRAL>
0

>  <SCORE.SYSTEM.SOLV>
0

>  <SCORE.SYSTEM.norm>
0

>  <SCORE.heavy>
31

>  <SCORE.norm>
-1.1254

>  <RMSD>
1.249

$$$$
ligand
 OpenBabel11021811473D
libRbt.so/2013.1/901 2013/11/27
 31 33  0  0  0  0  0  0  0  0999 V2000
   25.7423   43.3163   16.2074 P   0  0  1  0  0  0  0  0  0  0  0  0
   24.6676   43.5053   15.1582 O   0  0  0  0  0  0  0  0  0  0  0  0
   27.0409   43.8178   15.6354 O   0  5  0  0  0  0  0  0  0  0  0  0
   25.4023   44.0989   17.4459 O   0  0  0  0  0  0  0  0  0  0  0  0
   26.8293   41.3282   17.4908 C   0  0  0  0  0  0  0  0  0  0  0  0
   25.8083   41.7742   16.6319 O   0  0  0  0  0  0  0  0  0  0  0  0
   26.5914   39.8638   17.8291 C   0  0  1  0  0  0  0  0  0  0  0  0
   26.5921   39.1181   16.6302 O   0  0  0  0  0  0  0  0  0  0  0  0
   27.6788   39.3542   18.7749 C   0  0  1  0  0  0  0  0  0  0  0  0
   27.8463   40.2656   19.8397 O   0  0  0  0  0  0  0  0  0  0  0  0
   27.4284   37.9320   19.2956 C   0  0  1  0  0  0  0  0  0  0  0  0
   27.2995   37.0395   18.2112 O   0  0  0  0  0  0  0  0  0  0  0  0
   28.5367   37.4431   20.2144 C   0  0  0  0  0  0  0  0  0  0  0  0
   28.5177   34.7216   19.4552 N   0  0  0  0  0  0  0  0  0  0  0  0
   28.5778   33.4013   19.0582 C   0  0  0  0  0  0  0  0  0  0  0  0
   28.9730   33.1123   17.9253 O   0  0  0  0  0  0  0  0  0  0  0  0
   28.1844   32.4079   19.9320 N   0  0  0  0  0  0  0  0  0  0  0  0
   27.7324   32.7297   21.1980 C   0  0  0  0  0  0  0  0  0  0  0  0
   27.6727   34.0481   21.5990 C   0  0  1  0  0  0  0  0  0  0  0  0
   27.3874   31.8540   21.9895 O   0  0  0  0  0  0  0  0  0  0  0  0
   27.1655   35.6683   23.2760 C   0  0  2  0  0  0  0  0  0  0  0  0
   27.2229   34.3510   22.8695 N   0  0  0  0  0  0  0  0  0  0  0  0
   26.7104   35.9763   24.5558 C   0  0  0  0  0  0  0  0  0  0  0  0
   26.6415   37.3020   24.9726 C   0  0  1  0  0  0  0  0  0  0  0  0
   26.1579   37.6163   26.3615 C   0  0  0  0  0  0  0  0  0  0  0  0
   27.0350   38.3234   24.1006 C   0  0  1  0  0  0  0  0  0  0  0  0
   26.9864   39.7619   24.5263 C   0  0  0  0  0  0  0  0  0  0  0  0
   27.4898   38.0114   22.8228 C   0  0  0  0  0  0  0  0  0  0  0  0
   27.5574   36.6858   22.4007 C   0  0  2  0  0  0  0  0  0  0  0  0
   28.0696   35.0525   20.7236 C   0  0  2  0  0  0  0  0  0  0  0  0
   28.0023   36.3739   21.1216 N   0  0  0  0  0  0  0  0  0  0  0  0
  1  2  1  6  0  0  0
  1  3  1  0  0  0  0
  1  4  2  0  0  0  0
  1  6  1  0  0  0  0
  5  6  1  0  0  0  0
  7  5  1  6  0  0  0
  7  8  1  0  0  0  0
  7  9  1  0  0  0  0
  9 10  1  1  0  0  0
  9 11  1  0  0  0  0
 11 12  1  6  0  0  0
 11 13  1  0  0  0  0
 13 31  1  0  0  0  0
 14 15  1  0  0  0  0
 15 16  2  0  0  0  0
 15 17  1  0  0  0  0
 17 18  1  0  0  0  0
 18 20  2  0  0  0  0
 19 18  1  1  0  0  0
 19 22  1  0  0  0  0
 19 30  1  0  0  0  0
 21 23  1  6  0  0  0
 21 29  1  0  0  0  0
 21 22  1  0  0  0  0
 23 24  1  0  0  0  0
 24 25  1  1  0  0  0
 24 26  1  0  0  0  0
 26 27  1  1  0  0  0
 26 28  1  0  0  0  0
 29 28  1  6  0  0  0
 29 31  1  0  0  0  0
 30 14  1  6  0  0  0
 30 31  1  0  0  0  0
M  CHG  1   3  -1
M  END
>  <CHROM.1>
175.07442764,173.20456506,59.44400362,48.19221890,57.14857910,155.98087812
-95.65539842,27.12402330,37.98803997,19.94693152,2.27764294,1.32233636,-1.29790462

>  <Name>
ligand

>  <RI>
0

>  <Rbt.Current_Directory>
/home/itssahil/PROJECTS/Mol_Feturizer/New_Systems/rnas/3F2Q

>  <Rbt.Executable>
rbdock ($Id: //depot/dev/client3/rdock/2013.1/src/exe/rbdock.cxx#4 $)

>  <Rbt.Library>
libRbt.so (2013.1, Build901 2013/11/27)

>  <Rbt.Parameter_File>
/export/apps/rDock/src/rDock_2013.1_src/data/scripts/dock_solv.prm

>  <Rbt.Receptor>
prm/pocket_docking_4.prm

>  <SCORE>
-35.2234

>  <SCORE.INTER>
-30.7409

>  <SCORE.INTER.CONST>
1

>  <SCORE.INTER.POLAR>
0

>  <SCORE.INTER.ROT>
7

>  <SCORE.INTER.SOLV>
20.6268

>  <SCORE.INTER.VDW>
-35.6362

>  <SCORE.INTER.norm>
-0.99164

>  <SCORE.INTRA>
-4.48255

>  <SCORE.INTRA.DIHEDRAL>
-5.9999

>  <SCORE.INTRA.DIHEDRAL.0>
10.0718

>  <SCORE.INTRA.POLAR>
0

>  <SCORE.INTRA.POLAR.0>
0

>  <SCORE.INTRA.REPUL>
0

>  <SCORE.INTRA.REPUL.0>
0

>  <SCORE.INTRA.SOLV>
-0.82027

>  <SCORE.INTRA.SOLV.lig_0>
-48.6963

>  <SCORE.INTRA.VDW>
-1.07247

>  <SCORE.INTRA.VDW.0>
-0.836976

>  <SCORE.INTRA.norm>
-0.144598

>  <SCORE.RESTR>
0

>  <SCORE.RESTR.CAVITY>
0

>  <SCORE.RESTR.norm>
0

>  <SCORE.SYSTEM>
0

>  <SCORE.SYSTEM.CONST>
0

>  <SCORE.SYSTEM.DIHEDRAL>
0

>  <SCORE.SYSTEM.SOLV>
0

>  <SCORE.SYSTEM.norm>
0

>  <SCORE.heavy>
31

>  <SCORE.norm>
-1.13624

>  <RMSD>
1.249

$$$$
ligand
 OpenBabel11021811473D
libRbt.so/2013.1/901 2013/11/27
 31 33  0  0  0  0  0  0  0  0999 V2000
   25.7654   43.3181   16.2664 P   0  0  1  0  0  0  0  0  0  0  0  0
   24.6803   43.5111   15.2286 O   0  0  0  0  0  0  0  0  0  0  0  0
   27.0611   43.8079   15.6779 O   0  5  0  0  0  0  0  0  0  0  0  0
   25.4452   44.1076   17.5057 O   0  0  0  0  0  0  0  0  0  0  0  0
   26.8396   41.3310   17.5622 C   0  0  0  0  0  0  0  0  0  0  0  0
   25.8248   41.7771   16.6958 O   0  0  0  0  0  0  0  0  0  0  0  0
   26.6110   39.8609   17.8818 C   0  0  1  0  0  0  0  0  0  0  0  0
   26.6851   39.1216   16.6813 O   0  0  0  0  0  0  0  0  0  0  0  0
   27.6585   39.3656   18.8789 C   0  0  1  0  0  0  0  0  0  0  0  0
   27.6922   40.2257   19.9976 O   0  0  0  0  0  0  0  0  0  0  0  0
   27.4619   37.9047   19.3073 C   0  0  1  0  0  0  0  0  0  0  0  0
   27.4144   37.0729   18.1694 O   0  0  0  0  0  0  0  0  0  0  0  0
   28.5616   37.4158   20.2365 C   0  0  0  0  0  0  0  0  0  0  0  0
   28.5353   34.7002   19.4565 N   0  0  0  0  0  0  0  0  0  0  0  0
   28.5920   33.3827   19.0498 C   0  0  0  0  0  0  0  0  0  0  0  0
   28.9896   33.1009   17.9159 O   0  0  0  0  0  0  0  0  0  0  0  0
   28.1922   32.3841   19.9148 N   0  0  0  0  0  0  0  0  0  0  0  0
   27.7375   32.6980   21.1817 C   0  0  0  0  0  0  0  0  0  0  0  0
   27.6812   34.0135   21.5926 C   0  0  1  0  0  0  0  0  0  0  0  0
   27.3869   31.8175   21.9655 O   0  0  0  0  0  0  0  0  0  0  0  0
   27.1745   35.6228   23.2802 C   0  0  2  0  0  0  0  0  0  0  0  0
   27.2285   34.3083   22.8640 N   0  0  0  0  0  0  0  0  0  0  0  0
   26.7165   35.9227   24.5609 C   0  0  0  0  0  0  0  0  0  0  0  0
   26.6510   37.2454   24.9876 C   0  0  1  0  0  0  0  0  0  0  0  0
   26.1642   37.5509   26.3773 C   0  0  0  0  0  0  0  0  0  0  0  0
   27.0509   38.2720   24.1246 C   0  0  1  0  0  0  0  0  0  0  0  0
   27.0061   39.7073   24.5610 C   0  0  0  0  0  0  0  0  0  0  0  0
   27.5085   37.9681   22.8459 C   0  0  0  0  0  0  0  0  0  0  0  0
   27.5728   36.6454   22.4139 C   0  0  2  0  0  0  0  0  0  0  0  0
   28.0844   35.0230   20.7260 C   0  0  2  0  0  0  0  0  0  0  0  0
   28.0205   36.3416   21.1338 N   0  0  0  0  0  0  0  0  0  0  0  0
  1  2  1  6  0  0  0
  1  3  1  0  0  0  0
  1  4  2  0  0  0  0
  1  6  1  0  0  0  0
  5  6  1  0  0  0  0
  7  5  1  6  0  0  0
  7  8  1  0  0  0  0
  7  9  1  0  0  0  0
  9 10  1  1  0  0  0
  9 11  1  0  0  0  0
 11 12  1  6  0  0  0
 11 13  1  0  0  0  0
 13 31  1  0  0  0  0
 14 15  1  0  0  0  0
 15 16  2  0  0  0  0
 15 17  1  0  0  0  0
 17 18  1  0  0  0  0
 18 20  2  0  0  0  0
 19 18  1  1  0  0  0
 19 22  1  0  0  0  0
 19 30  1  0  0  0  0
 21 23  1  6  0  0  0
 21 29  1  0  0  0  0
 21 22  1  0  0  0  0
 23 24  1  0  0  0  0
 24 25  1  1  0  0  0
 24 26  1  0  0  0  0
 26 27  1  1  0  0  0
 26 28  1  0  0  0  0
 29 28  1  6  0  0  0
 29 31  1  0  0  0  0
 30 14  1  6  0  0  0
 30 31  1  0  0  0  0
M  CHG  1   3  -1
M  END
>  <CHROM.1>
176.16774811,174.23131096,61.71621302,52.11931297,54.85968891,151.65552903
-96.28385702,27.13900201,37.96666991,19.97493950,2.26950357,1.32097578,-1.28162167

>  <Name>
ligand

>  <RI>
0

>  <Rbt.Current_Directory>
/home/itssahil/PROJECTS/Mol_Feturizer/New_Systems/rnas/3F2Q

>  <Rbt.Executable>
rbdock ($Id: //depot/dev/client3/rdock/2013.1/src/exe/rbdock.cxx#4 $)

>  <Rbt.Library>
libRbt.so (2013.1, Build901 2013/11/27)

>  <Rbt.Parameter_File>
/export/apps/rDock/src/rDock_2013.1_src/data/scripts/dock_solv.prm

>  <Rbt.Receptor>
prm/pocket_docking_4.prm

>  <SCORE>
-35.3449

>  <SCORE.INTER>
-30.9663

>  <SCORE.INTER.CONST>
1

>  <SCORE.INTER.POLAR>
0

>  <SCORE.INTER.ROT>
7

>  <SCORE.INTER.SOLV>
20.5469

>  <SCORE.INTER.VDW>
-35.7598

>  <SCORE.INTER.norm>
-0.998911

>  <SCORE.INTRA>
-4.37862

>  <SCORE.INTRA.DIHEDRAL>
-5.66972

>  <SCORE.INTRA.DIHEDRAL.0>
10.0718

>  <SCORE.INTRA.POLAR>
0

>  <SCORE.INTRA.POLAR.0>
0

>  <SCORE.INTRA.REPUL>
0

>  <SCORE.INTRA.REPUL.0>
0

>  <SCORE.INTRA.SOLV>
-0.79561

>  <SCORE.INTRA.SOLV.lig_0>
-48.6963

>  <SCORE.INTRA.VDW>
-1.14595

>  <SCORE.INTRA.VDW.0>
-0.836976

>  <SCORE.INTRA.norm>
-0.141246

>  <SCORE.RESTR>
0

>  <SCORE.RESTR.CAVITY>
0

>  <SCORE.RESTR.norm>
0

>  <SCORE.SYSTEM>
0

>  <SCORE.SYSTEM.CONST>
0

>  <SCORE.SYSTEM.DIHEDRAL>
0

>  <SCORE.SYSTEM.SOLV>
0

>  <SCORE.SYSTEM.norm>
0

>  <SCORE.heavy>
31

>  <SCORE.norm>
-1.14016

>  <RMSD>
1.251

$$$$
ligand
 OpenBabel11021811473D
libRbt.so/2013.1/901 2013/11/27
 31 33  0  0  0  0  0  0  0  0999 V2000
   26.0614   42.5163   16.8390 P   0  0  1  0  0  0  0  0  0  0  0  0
   24.7188   41.9909   17.3003 O   0  0  0  0  0  0  0  0  0  0  0  0
   26.0500   42.5583   15.3346 O   0  5  0  0  0  0  0  0  0  0  0  0
   26.2908   43.9010   17.3793 O   0  0  0  0  0  0  0  0  0  0  0  0
   27.1979   40.1999   17.1913 C   0  0  0  0  0  0  0  0  0  0  0  0
   27.2271   41.5873   17.4227 O   0  0  0  0  0  0  0  0  0  0  0  0
   28.4282   39.5638   17.8215 C   0  0  1  0  0  0  0  0  0  0  0  0
   29.5650   40.3126   17.4469 O   0  0  0  0  0  0  0  0  0  0  0  0
   28.2885   39.5316   19.3434 C   0  0  1  0  0  0  0  0  0  0  0  0
   27.5998   40.6835   19.7808 O   0  0  0  0  0  0  0  0  0  0  0  0
   27.6267   38.2532   19.8765 C   0  0  1  0  0  0  0  0  0  0  0  0
   26.5600   37.8776   19.0340 O   0  0  0  0  0  0  0  0  0  0  0  0
   28.6038   37.0939   19.9904 C   0  0  0  0  0  0  0  0  0  0  0  0
   28.5244   34.3549   19.3012 N   0  0  0  0  0  0  0  0  0  0  0  0
   28.5551   33.0239   18.9380 C   0  0  0  0  0  0  0  0  0  0  0  0
   28.9403   32.6977   17.8118 O   0  0  0  0  0  0  0  0  0  0  0  0
   28.1435   32.0618   19.8380 N   0  0  0  0  0  0  0  0  0  0  0  0
   27.7026   32.4255   21.0966 C   0  0  0  0  0  0  0  0  0  0  0  0
   27.6723   33.7546   21.4639 C   0  0  1  0  0  0  0  0  0  0  0  0
   27.3416   31.5778   21.9112 O   0  0  0  0  0  0  0  0  0  0  0  0
   27.2051   35.4277   23.1001 C   0  0  2  0  0  0  0  0  0  0  0  0
   27.2332   34.0994   22.7274 N   0  0  0  0  0  0  0  0  0  0  0  0
   26.7609   35.7779   24.3729 C   0  0  0  0  0  0  0  0  0  0  0  0
   26.7215   37.1150   24.7558 C   0  0  1  0  0  0  0  0  0  0  0  0
   26.2493   37.4749   26.1374 C   0  0  0  0  0  0  0  0  0  0  0  0
   27.1339   38.1051   23.8568 C   0  0  1  0  0  0  0  0  0  0  0  0
   27.1173   39.5547   24.2456 C   0  0  0  0  0  0  0  0  0  0  0  0
   27.5777   37.7509   22.5862 C   0  0  0  0  0  0  0  0  0  0  0  0
   27.6158   36.4138   22.1981 C   0  0  2  0  0  0  0  0  0  0  0  0
   28.0876   34.7276   20.5619 C   0  0  2  0  0  0  0  0  0  0  0  0
   28.0497   36.0599   20.9261 N   0  0  0  0  0  0  0  0  0  0  0  0
  1  2  1  1  0  0  0
  1  3  1  0  0  0  0
  1  4  2  0  0  0  0
  1  6  1  0  0  0  0
  5  6  1  0  0  0  0
  7  5  1  6  0  0  0
  7  8  1  0  0  0  0
  7  9  1  0  0  0  0
  9 10  1  6  0  0  0
  9 11  1  0  0  0  0
 11 12  1  6  0  0  0
 11 13  1  0  0  0  0
 13 31  1  0  0  0  0
 14 15  1  0  0  0  0
 15 16  2  0  0  0  0
 15 17  1  0  0  0  0
 17 18  1  0  0  0  0
 18 20  2  0  0  0  0
 19 18  1  1  0  0  0
 19 22  1  0  0  0  0
 19 30  1  0  0  0  0
 21 23  1  6  0  0  0
 21 29  1  0  0  0  0
 21 22  1  0  0  0  0
 23 24  1  0  0  0  0
 24 25  1  1  0  0  0
 24 26  1  0  0  0  0
 26 27  1  1  0  0  0
 26 28  1  0  0  0  0
 29 28  1  6  0  0  0
 29 31  1  0  0  0  0
 30 14  1  6  0  0  0
 30 31  1  0  0  0  0
M  CHG  1   3  -1
M  END
>  <CHROM.1>
178.69692987,54.38868965,-47.86741456,-34.96319170,-40.23044161,160.67753617
-52.14900835,27.37182208,37.71902628,20.06564755,-2.04877603,-1.32680332
2.14294368

>  <Name>
ligand

>  <RI>
0

>  <Rbt.Current_Directory>
/home/itssahil/PROJECTS/Mol_Feturizer/New_Systems/rnas/3F2Q

>  <Rbt.Executable>
rbdock ($Id: //depot/dev/client3/rdock/2013.1/src/exe/rbdock.cxx#4 $)

>  <Rbt.Library>
libRbt.so (2013.1, Build901 2013/11/27)

>  <Rbt.Parameter_File>
/export/apps/rDock/src/rDock_2013.1_src/data/scripts/dock_solv.prm

>  <Rbt.Receptor>
prm/pocket_docking_4.prm

>  <SCORE>
-32.9074

>  <SCORE.INTER>
-31.7759

>  <SCORE.INTER.CONST>
1

>  <SCORE.INTER.POLAR>
0

>  <SCORE.INTER.ROT>
7

>  <SCORE.INTER.SOLV>
19.3941

>  <SCORE.INTER.VDW>
-35.9153

>  <SCORE.INTER.norm>
-1.02503

>  <SCORE.INTRA>
-1.13156

>  <SCORE.INTRA.DIHEDRAL>
-3.79031

>  <SCORE.INTRA.DIHEDRAL.0>
10.0718

>  <SCORE.INTRA.POLAR>
0

>  <SCORE.INTRA.POLAR.0>
0

>  <SCORE.INTRA.REPUL>
0

>  <SCORE.INTRA.REPUL.0>
0

>  <SCORE.INTRA.SOLV>
-0.665646

>  <SCORE.INTRA.SOLV.lig_0>
-48.6963

>  <SCORE.INTRA.VDW>
1.09642

>  <SCORE.INTRA.VDW.0>
-0.836976

>  <SCORE.INTRA.norm>
-0.0365019

>  <SCORE.RESTR>
0

>  <SCORE.RESTR.CAVITY>
0

>  <SCORE.RESTR.norm>
0

>  <SCORE.SYSTEM>
0

>  <SCORE.SYSTEM.CONST>
0

>  <SCORE.SYSTEM.DIHEDRAL>
0

>  <SCORE.SYSTEM.SOLV>
0

>  <SCORE.SYSTEM.norm>
0

>  <SCORE.heavy>
31

>  <SCORE.norm>
-1.06153

>  <RMSD>
1.261

$$$$
ligand
 OpenBabel11021811473D
libRbt.so/2013.1/901 2013/11/27
 31 33  0  0  0  0  0  0  0  0999 V2000
   26.4247   42.7577   16.8836 P   0  0  1  0  0  0  0  0  0  0  0  0
   27.1828   43.1884   18.1210 O   0  0  0  0  0  0  0  0  0  0  0  0
   25.3503   43.7783   16.6204 O   0  5  0  0  0  0  0  0  0  0  0  0
   27.3536   42.6889   15.7029 O   0  0  0  0  0  0  0  0  0  0  0  0
   26.6963   40.2402   17.4920 C   0  0  0  0  0  0  0  0  0  0  0  0
   25.8376   41.2847   17.1033 O   0  0  0  0  0  0  0  0  0  0  0  0
   27.1022   40.4433   18.9444 C   0  0  1  0  0  0  0  0  0  0  0  0
   25.9528   40.3217   19.7551 O   0  0  0  0  0  0  0  0  0  0  0  0
   28.1535   39.4108   19.3510 C   0  0  1  0  0  0  0  0  0  0  0  0
   28.8702   39.8803   20.4728 O   0  0  0  0  0  0  0  0  0  0  0  0
   27.5786   38.0105   19.6056 C   0  0  1  0  0  0  0  0  0  0  0  0
   26.8875   37.5599   18.4618 O   0  0  0  0  0  0  0  0  0  0  0  0
   28.6509   36.9968   19.9716 C   0  0  0  0  0  0  0  0  0  0  0  0
   28.5649   34.2492   19.3184 N   0  0  0  0  0  0  0  0  0  0  0  0
   28.5928   32.9132   18.9736 C   0  0  0  0  0  0  0  0  0  0  0  0
   28.9904   32.5697   17.8569 O   0  0  0  0  0  0  0  0  0  0  0  0
   28.1643   31.9656   19.8811 N   0  0  0  0  0  0  0  0  0  0  0  0
   27.7095   32.3487   21.1289 C   0  0  0  0  0  0  0  0  0  0  0  0
   27.6820   33.6828   21.4779 C   0  0  1  0  0  0  0  0  0  0  0  0
   27.3334   31.5141   21.9502 O   0  0  0  0  0  0  0  0  0  0  0  0
   27.2034   35.3804   23.0853 C   0  0  2  0  0  0  0  0  0  0  0  0
   27.2288   34.0470   22.7309 N   0  0  0  0  0  0  0  0  0  0  0  0
   26.7450   35.7502   24.3474 C   0  0  0  0  0  0  0  0  0  0  0  0
   26.7083   37.0925   24.7118 C   0  0  1  0  0  0  0  0  0  0  0  0
   26.2205   37.4737   26.0823 C   0  0  0  0  0  0  0  0  0  0  0  0
   27.1376   38.0682   23.8049 C   0  0  1  0  0  0  0  0  0  0  0  0
   27.1243   39.5229   24.1739 C   0  0  0  0  0  0  0  0  0  0  0  0
   27.5956   37.6944   22.5450 C   0  0  0  0  0  0  0  0  0  0  0  0
   27.6311   36.3519   22.1754 C   0  0  2  0  0  0  0  0  0  0  0  0
   28.1142   34.6412   20.5683 C   0  0  2  0  0  0  0  0  0  0  0  0
   28.0791   35.9785   20.9139 N   0  0  0  0  0  0  0  0  0  0  0  0
  1  2  1  1  0  0  0
  1  3  1  0  0  0  0
  1  4  2  0  0  0  0
  1  6  1  0  0  0  0
  5  6  1  0  0  0  0
  7  5  1  6  0  0  0
  7  8  1  0  0  0  0
  7  9  1  0  0  0  0
  9 10  1  1  0  0  0
  9 11  1  0  0  0  0
 11 12  1  6  0  0  0
 11 13  1  0  0  0  0
 13 31  1  0  0  0  0
 14 15  1  0  0  0  0
 15 16  2  0  0  0  0
 15 17  1  0  0  0  0
 17 18  1  0  0  0  0
 18 20  2  0  0  0  0
 19 18  1  1  0  0  0
 19 22  1  0  0  0  0
 19 30  1  0  0  0  0
 21 23  1  6  0  0  0
 21 29  1  0  0  0  0
 21 22  1  0  0  0  0
 23 24  1  0  0  0  0
 24 25  1  1  0  0  0
 24 26  1  0  0  0  0
 26 27  1  1  0  0  0
 26 28  1  0  0  0  0
 29 28  1  6  0  0  0
 29 31  1  0  0  0  0
 30 14  1  6  0  0  0
 30 31  1  0  0  0  0
M  CHG  1   3  -1
M  END
>  <CHROM.1>
72.06557534,-53.55114754,64.96795638,158.48737745,56.57949036,147.93981089
-63.69705962,27.32408119,37.70698112,20.19048729,-2.16345229,-1.35644461
2.08093283

>  <Name>
ligand

>  <RI>
0

>  <Rbt.Current_Directory>
/home/itssahil/PROJECTS/Mol_Feturizer/New_Systems/rnas/3F2Q

>  <Rbt.Executable>
rbdock ($Id: //depot/dev/client3/rdock/2013.1/src/exe/rbdock.cxx#4 $)

>  <Rbt.Library>
libRbt.so (2013.1, Build901 2013/11/27)

>  <Rbt.Parameter_File>
/export/apps/rDock/src/rDock_2013.1_src/data/scripts/dock_solv.prm

>  <Rbt.Receptor>
prm/blind_docking_80.prm

>  <SCORE>
-34.7881

>  <SCORE.INTER>
-32.0631

>  <SCORE.INTER.CONST>
1

>  <SCORE.INTER.POLAR>
0

>  <SCORE.INTER.ROT>
7

>  <SCORE.INTER.SOLV>
18.1207

>  <SCORE.INTER.VDW>
-35.6823

>  <SCORE.INTER.norm>
-1.0343

>  <SCORE.INTRA>
-2.72496

>  <SCORE.INTRA.DIHEDRAL>
-3.42148

>  <SCORE.INTRA.DIHEDRAL.0>
10.0718

>  <SCORE.INTRA.POLAR>
0

>  <SCORE.INTRA.POLAR.0>
0

>  <SCORE.INTRA.REPUL>
0

>  <SCORE.INTRA.REPUL.0>
0

>  <SCORE.INTRA.SOLV>
-0.152988

>  <SCORE.INTRA.SOLV.lig_0>
-48.6963

>  <SCORE.INTRA.VDW>
-0.937723

>  <SCORE.INTRA.VDW.0>
-0.836976

>  <SCORE.INTRA.norm>
-0.0879019

>  <SCORE.RESTR>
0

>  <SCORE.RESTR.CAVITY>
0

>  <SCORE.RESTR.norm>
0

>  <SCORE.SYSTEM>
0

>  <SCORE.SYSTEM.CONST>
0

>  <SCORE.SYSTEM.DIHEDRAL>
0

>  <SCORE.SYSTEM.SOLV>
0

>  <SCORE.SYSTEM.norm>
0

>  <SCORE.heavy>
31

>  <SCORE.norm>
-1.1222

>  <RMSD>
1.265

$$$$
ligand
 OpenBabel11021811473D
libRbt.so/2013.1/901 2013/11/27
 31 33  0  0  0  0  0  0  0  0999 V2000
   27.1182   42.2153   17.2833 P   0  0  1  0  0  0  0  0  0  0  0  0
   28.2222   43.1291   17.7707 O   0  0  0  0  0  0  0  0  0  0  0  0
   26.2566   41.8593   18.4649 O   0  5  0  0  0  0  0  0  0  0  0  0
   26.2847   42.9152   16.2455 O   0  0  0  0  0  0  0  0  0  0  0  0
   28.9880   40.4191   17.0402 C   0  0  0  0  0  0  0  0  0  0  0  0
   27.7616   40.9304   16.5779 O   0  0  0  0  0  0  0  0  0  0  0  0
   28.7442   39.6045   18.3021 C   0  0  1  0  0  0  0  0  0  0  0  0
   28.3153   40.4767   19.3261 O   0  0  0  0  0  0  0  0  0  0  0  0
   27.6910   38.5272   18.0431 C   0  0  1  0  0  0  0  0  0  0  0  0
   28.1233   37.6831   16.9976 O   0  0  0  0  0  0  0  0  0  0  0  0
   27.3153   37.7171   19.2917 C   0  0  1  0  0  0  0  0  0  0  0  0
   26.2917   36.7990   18.9782 O   0  0  0  0  0  0  0  0  0  0  0  0
   28.4991   36.9632   19.8764 C   0  0  0  0  0  0  0  0  0  0  0  0
   28.4920   34.1953   19.3086 N   0  0  0  0  0  0  0  0  0  0  0  0
   28.5570   32.8513   19.0023 C   0  0  0  0  0  0  0  0  0  0  0  0
   28.9185   32.4885   17.8794 O   0  0  0  0  0  0  0  0  0  0  0  0
   28.2060   31.9168   19.9556 N   0  0  0  0  0  0  0  0  0  0  0  0
   27.7916   32.3210   21.2107 C   0  0  0  0  0  0  0  0  0  0  0  0
   27.7273   33.6634   21.5213 C   0  0  1  0  0  0  0  0  0  0  0  0
   27.4848   31.4988   22.0722 O   0  0  0  0  0  0  0  0  0  0  0  0
   27.2535   35.3908   23.0981 C   0  0  2  0  0  0  0  0  0  0  0  0
   27.3154   34.0490   22.7822 N   0  0  0  0  0  0  0  0  0  0  0  0
   26.8367   35.7821   24.3681 C   0  0  0  0  0  0  0  0  0  0  0  0
   26.7635   37.1327   24.6942 C   0  0  1  0  0  0  0  0  0  0  0  0
   26.3217   37.5376   26.0735 C   0  0  0  0  0  0  0  0  0  0  0  0
   27.1142   38.0953   23.7407 C   0  0  1  0  0  0  0  0  0  0  0  0
   27.0602   39.5592   24.0671 C   0  0  0  0  0  0  0  0  0  0  0  0
   27.5309   37.7001   22.4730 C   0  0  0  0  0  0  0  0  0  0  0  0
   27.6026   36.3491   22.1417 C   0  0  2  0  0  0  0  0  0  0  0  0
   28.0814   34.6087   20.5655 C   0  0  2  0  0  0  0  0  0  0  0  0
   28.0093   35.9538   20.8729 N   0  0  0  0  0  0  0  0  0  0  0  0
  1  2  1  1  0  0  0
  1  3  1  0  0  0  0
  1  4  2  0  0  0  0
  1  6  1  0  0  0  0
  5  6  1  0  0  0  0
  7  5  1  6  0  0  0
  7  8  1  0  0  0  0
  7  9  1  0  0  0  0
  9 10  1  6  0  0  0
  9 11  1  0  0  0  0
 11 12  1  6  0  0  0
 11 13  1  0  0  0  0
 13 31  1  0  0  0  0
 14 15  1  0  0  0  0
 15 16  2  0  0  0  0
 15 17  1  0  0  0  0
 17 18  1  0  0  0  0
 18 20  2  0  0  0  0
 19 18  1  1  0  0  0
 19 22  1  0  0  0  0
 19 30  1  0  0  0  0
 21 23  1  6  0  0  0
 21 29  1  0  0  0  0
 21 22  1  0  0  0  0
 23 24  1  0  0  0  0
 24 25  1  1  0  0  0
 24 26  1  0  0  0  0
 26 27  1  1  0  0  0
 26 28  1  0  0  0  0
 29 28  1  6  0  0  0
 29 31  1  0  0  0  0
 30 14  1  6  0  0  0
 30 31  1  0  0  0  0
M  CHG  1   3  -1
M  END
>  <CHROM.1>
78.53433393,32.75821545,-66.60563914,58.63403198,176.89205383,-166.63264485
-76.53175101,27.60928619,37.43550687,20.07180920,-1.68132303,-1.35387284
2.52317046

>  <Name>
ligand

>  <RI>
0

>  <Rbt.Current_Directory>
/home/itssahil/PROJECTS/Mol_Feturizer/New_Systems/rnas/3F2Q

>  <Rbt.Executable>
rbdock ($Id: //depot/dev/client3/rdock/2013.1/src/exe/rbdock.cxx#4 $)

>  <Rbt.Library>
libRbt.so (2013.1, Build901 2013/11/27)

>  <Rbt.Parameter_File>
/export/apps/rDock/src/rDock_2013.1_src/data/scripts/dock_solv.prm

>  <Rbt.Receptor>
prm/pocket_docking_4.prm

>  <SCORE>
-36.0727

>  <SCORE.INTER>
-33.3518

>  <SCORE.INTER.CONST>
1

>  <SCORE.INTER.POLAR>
0

>  <SCORE.INTER.ROT>
7

>  <SCORE.INTER.SOLV>
15.1414

>  <SCORE.INTER.VDW>
-35.5484

>  <SCORE.INTER.norm>
-1.07586

>  <SCORE.INTRA>
-2.72092

>  <SCORE.INTRA.DIHEDRAL>
-5.18665

>  <SCORE.INTRA.DIHEDRAL.0>
10.0718

>  <SCORE.INTRA.POLAR>
0

>  <SCORE.INTRA.POLAR.0>
0

>  <SCORE.INTRA.REPUL>
0

>  <SCORE.INTRA.REPUL.0>
0

>  <SCORE.INTRA.SOLV>
1.9124

>  <SCORE.INTRA.SOLV.lig_0>
-48.6963

>  <SCORE.INTRA.VDW>
-1.08379

>  <SCORE.INTRA.VDW.0>
-0.836976

>  <SCORE.INTRA.norm>
-0.0877716

>  <SCORE.RESTR>
0

>  <SCORE.RESTR.CAVITY>
0

>  <SCORE.RESTR.norm>
0

>  <SCORE.SYSTEM>
0

>  <SCORE.SYSTEM.CONST>
0

>  <SCORE.SYSTEM.DIHEDRAL>
0

>  <SCORE.SYSTEM.SOLV>
0

>  <SCORE.SYSTEM.norm>
0

>  <SCORE.heavy>
31

>  <SCORE.norm>
-1.16364

>  <RMSD>
1.266

$$$$
ligand
 OpenBabel11021811473D
libRbt.so/2013.1/901 2013/11/27
 31 33  0  0  0  0  0  0  0  0999 V2000
   27.4190   42.5255   16.3535 P   0  0  1  0  0  0  0  0  0  0  0  0
   28.7111   42.0439   15.7291 O   0  0  0  0  0  0  0  0  0  0  0  0
   27.5958   43.9732   16.7251 O   0  5  0  0  0  0  0  0  0  0  0  0
   26.2868   42.3924   15.3725 O   0  0  0  0  0  0  0  0  0  0  0  0
   27.7029   41.8186   18.8438 C   0  0  0  0  0  0  0  0  0  0  0  0
   27.0584   41.6038   17.6118 O   0  0  0  0  0  0  0  0  0  0  0  0
   27.3993   40.6538   19.7745 C   0  0  1  0  0  0  0  0  0  0  0  0
   25.9995   40.4815   19.8397 O   0  0  0  0  0  0  0  0  0  0  0  0
   28.0706   39.3784   19.2650 C   0  0  1  0  0  0  0  0  0  0  0  0
   29.4578   39.4388   19.5188 O   0  0  0  0  0  0  0  0  0  0  0  0
   27.4583   38.0893   19.8303 C   0  0  1  0  0  0  0  0  0  0  0  0
   26.3751   37.6793   19.0256 O   0  0  0  0  0  0  0  0  0  0  0  0
   28.4672   36.9557   19.9232 C   0  0  0  0  0  0  0  0  0  0  0  0
   28.4674   34.1970   19.3128 N   0  0  0  0  0  0  0  0  0  0  0  0
   28.5359   32.8580   18.9856 C   0  0  0  0  0  0  0  0  0  0  0  0
   28.8976   32.5137   17.8570 O   0  0  0  0  0  0  0  0  0  0  0  0
   28.1883   31.9079   19.9246 N   0  0  0  0  0  0  0  0  0  0  0  0
   27.7738   32.2915   21.1862 C   0  0  0  0  0  0  0  0  0  0  0  0
   27.7059   33.6287   21.5175 C   0  0  1  0  0  0  0  0  0  0  0  0
   27.4700   31.4552   22.0351 O   0  0  0  0  0  0  0  0  0  0  0  0
   27.2286   35.3302   23.1212 C   0  0  2  0  0  0  0  0  0  0  0  0
   27.2941   33.9936   22.7846 N   0  0  0  0  0  0  0  0  0  0  0  0
   26.8117   35.7006   24.3975 C   0  0  0  0  0  0  0  0  0  0  0  0
   26.7350   37.0458   24.7445 C   0  0  1  0  0  0  0  0  0  0  0  0
   26.2932   37.4281   26.1302 C   0  0  0  0  0  0  0  0  0  0  0  0
   27.0823   38.0240   23.8057 C   0  0  1  0  0  0  0  0  0  0  0  0
   27.0244   39.4826   24.1547 C   0  0  0  0  0  0  0  0  0  0  0  0
   27.4990   37.6496   22.5317 C   0  0  0  0  0  0  0  0  0  0  0  0
   27.5742   36.3041   22.1795 C   0  0  2  0  0  0  0  0  0  0  0  0
   28.0567   34.5897   20.5762 C   0  0  2  0  0  0  0  0  0  0  0  0
   27.9810   35.9297   20.9045 N   0  0  0  0  0  0  0  0  0  0  0  0
  1  2  1  6  0  0  0
  1  3  1  0  0  0  0
  1  4  2  0  0  0  0
  1  6  1  0  0  0  0
  5  6  1  0  0  0  0
  7  5  1  6  0  0  0
  7  8  1  0  0  0  0
  7  9  1  0  0  0  0
  9 10  1  1  0  0  0
  9 11  1  0  0  0  0
 11 12  1  6  0  0  0
 11 13  1  0  0  0  0
 13 31  1  0  0  0  0
 14 15  1  0  0  0  0
 15 16  2  0  0  0  0
 15 17  1  0  0  0  0
 17 18  1  0  0  0  0
 18 20  2  0  0  0  0
 19 18  1  1  0  0  0
 19 22  1  0  0  0  0
 19 30  1  0  0  0  0
 21 23  1  6  0  0  0
 21 29  1  0  0  0  0
 21 22  1  0  0  0  0
 23 24  1  0  0  0  0
 24 25  1  1  0  0  0
 24 26  1  0  0  0  0
 26 27  1  1  0  0  0
 26 28  1  0  0  0  0
 29 28  1  6  0  0  0
 29 31  1  0  0  0  0
 30 14  1  6  0  0  0
 30 31  1  0  0  0  0
M  CHG  1   3  -1
M  END
>  <CHROM.1>
-168.61739899,79.65103119,-53.15489435,74.54136233,87.22695161,159.63435380
-50.99665601,27.56000232,37.68057668,20.14924371,-1.67280349,-1.35273935
2.51284744

>  <Name>
ligand

>  <RI>
0

>  <Rbt.Current_Directory>
/home/itssahil/PROJECTS/Mol_Feturizer/New_Systems/rnas/3F2Q

>  <Rbt.Executable>
rbdock ($Id: //depot/dev/client3/rdock/2013.1/src/exe/rbdock.cxx#4 $)

>  <Rbt.Library>
libRbt.so (2013.1, Build901 2013/11/27)

>  <Rbt.Parameter_File>
/export/apps/rDock/src/rDock_2013.1_src/data/scripts/dock_solv.prm

>  <Rbt.Receptor>
prm/pocket_docking_4.prm

>  <SCORE>
-33.8113

>  <SCORE.INTER>
-31.9995

>  <SCORE.INTER.CONST>
1

>  <SCORE.INTER.POLAR>
0

>  <SCORE.INTER.ROT>
7

>  <SCORE.INTER.SOLV>
23.6634

>  <SCORE.INTER.VDW>
-37.4875

>  <SCORE.INTER.norm>
-1.03224

>  <SCORE.INTRA>
-1.81178

>  <SCORE.INTRA.DIHEDRAL>
-3.16352

>  <SCORE.INTRA.DIHEDRAL.0>
10.0718

>  <SCORE.INTRA.POLAR>
0

>  <SCORE.INTRA.POLAR.0>
0

>  <SCORE.INTRA.REPUL>
0

>  <SCORE.INTRA.REPUL.0>
0

>  <SCORE.INTRA.SOLV>
-1.12854

>  <SCORE.INTRA.SOLV.lig_0>
-48.6963

>  <SCORE.INTRA.VDW>
0.334254

>  <SCORE.INTRA.VDW.0>
-0.836976

>  <SCORE.INTRA.norm>
-0.0584445

>  <SCORE.RESTR>
0

>  <SCORE.RESTR.CAVITY>
0

>  <SCORE.RESTR.norm>
0

>  <SCORE.SYSTEM>
0

>  <SCORE.SYSTEM.CONST>
0

>  <SCORE.SYSTEM.DIHEDRAL>
0

>  <SCORE.SYSTEM.SOLV>
0

>  <SCORE.SYSTEM.norm>
0

>  <SCORE.heavy>
31

>  <SCORE.norm>
-1.09069

>  <RMSD>
1.270

$$$$
ligand
 OpenBabel11021811473D
libRbt.so/2013.1/901 2013/11/27
 31 33  0  0  0  0  0  0  0  0999 V2000
   27.1316   42.2105   17.4054 P   0  0  1  0  0  0  0  0  0  0  0  0
   28.1918   43.1772   17.8880 O   0  0  0  0  0  0  0  0  0  0  0  0
   25.9582   43.0165   16.9167 O   0  5  0  0  0  0  0  0  0  0  0  0
   27.6686   41.3701   16.2797 O   0  0  0  0  0  0  0  0  0  0  0  0
   27.7551   40.6251   19.3749 C   0  0  0  0  0  0  0  0  0  0  0  0
   26.7425   41.2092   18.5922 O   0  0  0  0  0  0  0  0  0  0  0  0
   28.6178   39.7363   18.4910 C   0  0  1  0  0  0  0  0  0  0  0  0
   29.7518   39.3316   19.2283 O   0  0  0  0  0  0  0  0  0  0  0  0
   27.8213   38.5174   18.0257 C   0  0  1  0  0  0  0  0  0  0  0  0
   28.5592   37.8130   17.0501 O   0  0  0  0  0  0  0  0  0  0  0  0
   27.3856   37.5903   19.1690 C   0  0  1  0  0  0  0  0  0  0  0  0
   26.4542   36.6449   18.6920 O   0  0  0  0  0  0  0  0  0  0  0  0
   28.5565   36.8589   19.8059 C   0  0  0  0  0  0  0  0  0  0  0  0
   28.5011   34.0857   19.2676 N   0  0  0  0  0  0  0  0  0  0  0  0
   28.5427   32.7375   18.9759 C   0  0  0  0  0  0  0  0  0  0  0  0
   28.9023   32.3562   17.8586 O   0  0  0  0  0  0  0  0  0  0  0  0
   28.1706   31.8199   19.9376 N   0  0  0  0  0  0  0  0  0  0  0  0
   27.7584   32.2451   21.1865 C   0  0  0  0  0  0  0  0  0  0  0  0
   27.7173   33.5916   21.4824 C   0  0  1  0  0  0  0  0  0  0  0  0
   27.4328   31.4378   22.0553 O   0  0  0  0  0  0  0  0  0  0  0  0
   27.2686   35.3442   23.0386 C   0  0  2  0  0  0  0  0  0  0  0  0
   27.3073   33.9982   22.7373 N   0  0  0  0  0  0  0  0  0  0  0  0
   26.8536   35.7567   24.3025 C   0  0  0  0  0  0  0  0  0  0  0  0
   26.8038   37.1119   24.6139 C   0  0  1  0  0  0  0  0  0  0  0  0
   26.3636   37.5396   25.9868 C   0  0  0  0  0  0  0  0  0  0  0  0
   27.1762   38.0575   23.6518 C   0  0  1  0  0  0  0  0  0  0  0  0
   27.1476   39.5257   23.9623 C   0  0  0  0  0  0  0  0  0  0  0  0
   27.5909   37.6412   22.3902 C   0  0  0  0  0  0  0  0  0  0  0  0
   27.6393   36.2857   22.0737 C   0  0  2  0  0  0  0  0  0  0  0  0
   28.0928   34.5200   20.5182 C   0  0  2  0  0  0  0  0  0  0  0  0
   28.0441   35.8694   20.8110 N   0  0  0  0  0  0  0  0  0  0  0  0
  1  2  1  1  0  0  0
  1  3  1  0  0  0  0
  1  4  2  0  0  0  0
  1  6  1  0  0  0  0
  5  6  1  0  0  0  0
  7  5  1  1  0  0  0
  7  8  1  0  0  0  0
  7  9  1  0  0  0  0
  9 10  1  6  0  0  0
  9 11  1  0  0  0  0
 11 12  1  6  0  0  0
 11 13  1  0  0  0  0
 13 31  1  0  0  0  0
 14 15  1  0  0  0  0
 15 16  2  0  0  0  0
 15 17  1  0  0  0  0
 17 18  1  0  0  0  0
 18 20  2  0  0  0  0
 19 18  1  1  0  0  0
 19 22  1  0  0  0  0
 19 30  1  0  0  0  0
 21 23  1  6  0  0  0
 21 29  1  0  0  0  0
 21 22  1  0  0  0  0
 23 24  1  0  0  0  0
 24 25  1  1  0  0  0
 24 26  1  0  0  0  0
 26 27  1  1  0  0  0
 26 28  1  0  0  0  0
 29 28  1  6  0  0  0
 29 31  1  0  0  0  0
 30 14  1  6  0  0  0
 30 31  1  0  0  0  0
M  CHG  1   3  -1
M  END
>  <CHROM.1>
-63.49135404,-44.63331788,170.49401500,171.11618808,168.89977748,-174.09019832
-78.70472593,27.65636803,37.35950710,20.13417737,-1.72036726,-1.36021680
2.54119503

>  <Name>
ligand

>  <RI>
0

>  <Rbt.Current_Directory>
/home/itssahil/PROJECTS/Mol_Feturizer/New_Systems/rnas/3F2Q

>  <Rbt.Executable>
rbdock ($Id: //depot/dev/client3/rdock/2013.1/src/exe/rbdock.cxx#4 $)

>  <Rbt.Library>
libRbt.so (2013.1, Build901 2013/11/27)

>  <Rbt.Parameter_File>
/export/apps/rDock/src/rDock_2013.1_src/data/scripts/dock_solv.prm

>  <Rbt.Receptor>
prm/pocket_docking_5.prm

>  <SCORE>
-35.4788

>  <SCORE.INTER>
-31.6496

>  <SCORE.INTER.CONST>
1

>  <SCORE.INTER.POLAR>
0

>  <SCORE.INTER.ROT>
7

>  <SCORE.INTER.SOLV>
15.2357

>  <SCORE.INTER.VDW>
-34.445

>  <SCORE.INTER.norm>
-1.02096

>  <SCORE.INTRA>
-3.82913

>  <SCORE.INTRA.DIHEDRAL>
-6.99962

>  <SCORE.INTRA.DIHEDRAL.0>
10.0718

>  <SCORE.INTRA.POLAR>
0

>  <SCORE.INTRA.POLAR.0>
0

>  <SCORE.INTRA.REPUL>
0

>  <SCORE.INTRA.REPUL.0>
0

>  <SCORE.INTRA.SOLV>
1.17481

>  <SCORE.INTRA.SOLV.lig_0>
-48.6963

>  <SCORE.INTRA.VDW>
-0.916724

>  <SCORE.INTRA.VDW.0>
-0.836976

>  <SCORE.INTRA.norm>
-0.12352

>  <SCORE.RESTR>
0

>  <SCORE.RESTR.CAVITY>
0

>  <SCORE.RESTR.norm>
0

>  <SCORE.SYSTEM>
0

>  <SCORE.SYSTEM.CONST>
0

>  <SCORE.SYSTEM.DIHEDRAL>
0

>  <SCORE.SYSTEM.SOLV>
0

>  <SCORE.SYSTEM.norm>
0

>  <SCORE.heavy>
31

>  <SCORE.norm>
-1.14448

>  <RMSD>
1.276

$$$$
ligand
 OpenBabel11021811473D
libRbt.so/2013.1/901 2013/11/27
 31 33  0  0  0  0  0  0  0  0999 V2000
   25.8751   42.8236   17.2722 P   0  0  1  0  0  0  0  0  0  0  0  0
   27.2543   43.2650   17.7133 O   0  0  0  0  0  0  0  0  0  0  0  0
   24.9344   43.9824   17.4652 O   0  5  0  0  0  0  0  0  0  0  0  0
   25.8956   42.4283   15.8213 O   0  0  0  0  0  0  0  0  0  0  0  0
   26.4212   40.7002   18.6774 C   0  0  0  0  0  0  0  0  0  0  0  0
   25.4383   41.5275   18.1040 O   0  0  0  0  0  0  0  0  0  0  0  0
   26.8968   39.6969   17.6369 C   0  0  1  0  0  0  0  0  0  0  0  0
   27.3723   40.4051   16.5119 O   0  0  0  0  0  0  0  0  0  0  0  0
   28.0013   38.8137   18.2173 C   0  0  1  0  0  0  0  0  0  0  0  0
   29.0617   39.6228   18.6793 O   0  0  0  0  0  0  0  0  0  0  0  0
   27.5149   37.8561   19.3140 C   0  0  1  0  0  0  0  0  0  0  0  0
   26.5280   36.9929   18.7946 O   0  0  0  0  0  0  0  0  0  0  0  0
   28.6424   37.0253   19.9057 C   0  0  0  0  0  0  0  0  0  0  0  0
   28.5476   34.2750   19.2651 N   0  0  0  0  0  0  0  0  0  0  0  0
   28.5710   32.9375   18.9260 C   0  0  0  0  0  0  0  0  0  0  0  0
   28.9612   32.5884   17.8084 O   0  0  0  0  0  0  0  0  0  0  0  0
   28.1465   31.9947   19.8403 N   0  0  0  0  0  0  0  0  0  0  0  0
   27.7000   32.3840   21.0892 C   0  0  0  0  0  0  0  0  0  0  0  0
   27.6769   33.7197   21.4324 C   0  0  1  0  0  0  0  0  0  0  0  0
   27.3276   31.5537   21.9164 O   0  0  0  0  0  0  0  0  0  0  0  0
   27.2112   35.4251   23.0353 C   0  0  2  0  0  0  0  0  0  0  0  0
   27.2321   34.0902   22.6866 N   0  0  0  0  0  0  0  0  0  0  0  0
   26.7612   35.8014   24.2986 C   0  0  0  0  0  0  0  0  0  0  0  0
   26.7290   37.1453   24.6573 C   0  0  1  0  0  0  0  0  0  0  0  0
   26.2503   37.5333   26.0291 C   0  0  0  0  0  0  0  0  0  0  0  0
   27.1544   38.1162   23.7435 C   0  0  1  0  0  0  0  0  0  0  0  0
   27.1458   39.5726   24.1062 C   0  0  0  0  0  0  0  0  0  0  0  0
   27.6040   37.7361   22.4825 C   0  0  0  0  0  0  0  0  0  0  0  0
   27.6349   36.3920   22.1185 C   0  0  2  0  0  0  0  0  0  0  0  0
   28.1052   34.6733   20.5160 C   0  0  2  0  0  0  0  0  0  0  0  0
   28.0746   36.0122   20.8560 N   0  0  0  0  0  0  0  0  0  0  0  0
  1  2  1  1  0  0  0
  1  3  1  0  0  0  0
  1  4  2  0  0  0  0
  1  6  1  0  0  0  0
  5  6  1  0  0  0  0
  7  5  1  1  0  0  0
  7  8  1  0  0  0  0
  7  9  1  0  0  0  0
  9 10  1  1  0  0  0
  9 11  1  0  0  0  0
 11 12  1  6  0  0  0
 11 13  1  0  0  0  0
 13 31  1  0  0  0  0
 14 15  1  0  0  0  0
 15 16  2  0  0  0  0
 15 17  1  0  0  0  0
 17 18  1  0  0  0  0
 18 20  2  0  0  0  0
 19 18  1  1  0  0  0
 19 22  1  0  0  0  0
 19 30  1  0  0  0  0
 21 23  1  6  0  0  0
 21 29  1  0  0  0  0
 21 22  1  0  0  0  0
 23 24  1  0  0  0  0
 24 25  1  1  0  0  0
 24 26  1  0  0  0  0
 26 27  1  1  0  0  0
 26 28  1  0  0  0  0
 29 28  1  6  0  0  0
 29 31  1  0  0  0  0
 30 14  1  6  0  0  0
 30 31  1  0  0  0  0
M  CHG  1   3  -1
M  END
>  <CHROM.1>
-85.13221952,-23.61109997,56.89791089,-56.81040247,60.10828819,-173.78357827
-75.61342783,27.23118302,37.68701714,20.03363212,-2.22923760,-1.31632933
2.02772569

>  <Name>
ligand

>  <RI>
0

>  <Rbt.Current_Directory>
/home/itssahil/PROJECTS/Mol_Feturizer/New_Systems/rnas/3F2Q

>  <Rbt.Executable>
rbdock ($Id: //depot/dev/client3/rdock/2013.1/src/exe/rbdock.cxx#4 $)

>  <Rbt.Library>
libRbt.so (2013.1, Build901 2013/11/27)

>  <Rbt.Parameter_File>
/export/apps/rDock/src/rDock_2013.1_src/data/scripts/dock_solv.prm

>  <Rbt.Receptor>
prm/blind_docking_100.prm

>  <SCORE>
-34.3474

>  <SCORE.INTER>
-31.9722

>  <SCORE.INTER.CONST>
1

>  <SCORE.INTER.POLAR>
0

>  <SCORE.INTER.ROT>
7

>  <SCORE.INTER.SOLV>
17.9675

>  <SCORE.INTER.VDW>
-35.5706

>  <SCORE.INTER.norm>
-1.03136

>  <SCORE.INTRA>
-2.37524

>  <SCORE.INTRA.DIHEDRAL>
-4.13656

>  <SCORE.INTRA.DIHEDRAL.0>
10.0718

>  <SCORE.INTRA.POLAR>
0

>  <SCORE.INTRA.POLAR.0>
0

>  <SCORE.INTRA.REPUL>
0

>  <SCORE.INTRA.REPUL.0>
0

>  <SCORE.INTRA.SOLV>
0.814997

>  <SCORE.INTRA.SOLV.lig_0>
-48.6963

>  <SCORE.INTRA.VDW>
-0.714465

>  <SCORE.INTRA.VDW.0>
-0.836976

>  <SCORE.INTRA.norm>
-0.0766208

>  <SCORE.RESTR>
0

>  <SCORE.RESTR.CAVITY>
0

>  <SCORE.RESTR.norm>
0

>  <SCORE.SYSTEM>
0

>  <SCORE.SYSTEM.CONST>
0

>  <SCORE.SYSTEM.DIHEDRAL>
0

>  <SCORE.SYSTEM.SOLV>
0

>  <SCORE.SYSTEM.norm>
0

>  <SCORE.heavy>
31

>  <SCORE.norm>
-1.10798

>  <RMSD>
1.281

$$$$
ligand
 OpenBabel11021811473D
libRbt.so/2013.1/901 2013/11/27
 31 33  0  0  0  0  0  0  0  0999 V2000
   26.5543   42.7528   17.0509 P   0  0  1  0  0  0  0  0  0  0  0  0
   27.8403   43.5426   16.9334 O   0  0  0  0  0  0  0  0  0  0  0  0
   25.5249   43.6384   17.6999 O   0  5  0  0  0  0  0  0  0  0  0  0
   26.0734   42.3376   15.6878 O   0  0  0  0  0  0  0  0  0  0  0  0
   27.6757   41.4409   19.0010 C   0  0  0  0  0  0  0  0  0  0  0  0
   26.8262   41.4107   17.8799 O   0  0  0  0  0  0  0  0  0  0  0  0
   27.6553   40.0784   19.6783 C   0  0  1  0  0  0  0  0  0  0  0  0
   26.3747   39.8707   20.2353 O   0  0  0  0  0  0  0  0  0  0  0  0
   27.9825   38.9787   18.6682 C   0  0  1  0  0  0  0  0  0  0  0  0
   29.1381   39.3330   17.9391 O   0  0  0  0  0  0  0  0  0  0  0  0
   28.1276   37.5856   19.2963 C   0  0  1  0  0  0  0  0  0  0  0  0
   28.9853   37.6499   20.4140 O   0  0  0  0  0  0  0  0  0  0  0  0
   26.7932   36.9967   19.7253 C   0  0  0  0  0  0  0  0  0  0  0  0
   27.0688   34.2415   19.1627 N   0  0  0  0  0  0  0  0  0  0  0  0
   27.2481   32.9140   18.8310 C   0  0  0  0  0  0  0  0  0  0  0  0
   27.1239   32.5459   17.6595 O   0  0  0  0  0  0  0  0  0  0  0  0
   27.5573   32.0002   19.8181 N   0  0  0  0  0  0  0  0  0  0  0  0
   27.6875   32.4085   21.1322 C   0  0  0  0  0  0  0  0  0  0  0  0
   27.5109   33.7348   21.4674 C   0  0  1  0  0  0  0  0  0  0  0  0
   27.9716   31.6063   22.0200 O   0  0  0  0  0  0  0  0  0  0  0  0
   27.4776   35.4523   23.1238 C   0  0  2  0  0  0  0  0  0  0  0  0
   27.6496   34.1258   22.7850 N   0  0  0  0  0  0  0  0  0  0  0  0
   27.6149   35.8486   24.4519 C   0  0  0  0  0  0  0  0  0  0  0  0
   27.4361   37.1824   24.8051 C   0  0  1  0  0  0  0  0  0  0  0  0
   27.5986   37.5951   26.2421 C   0  0  0  0  0  0  0  0  0  0  0  0
   27.1211   38.1237   23.8186 C   0  0  1  0  0  0  0  0  0  0  0  0
   26.9369   39.5722   24.1658 C   0  0  0  0  0  0  0  0  0  0  0  0
   26.9854   37.7238   22.4925 C   0  0  0  0  0  0  0  0  0  0  0  0
   27.1607   36.3889   22.1353 C   0  0  2  0  0  0  0  0  0  0  0  0
   27.2012   34.6597   20.4768 C   0  0  2  0  0  0  0  0  0  0  0  0
   27.0159   35.9870   20.8128 N   0  0  0  0  0  0  0  0  0  0  0  0
  1  2  1  6  0  0  0
  1  3  1  0  0  0  0
  1  4  2  0  0  0  0
  1  6  1  0  0  0  0
  5  6  1  0  0  0  0
  7  5  1  6  0  0  0
  7  8  1  0  0  0  0
  7  9  1  0  0  0  0
  9 10  1  1  0  0  0
  9 11  1  0  0  0  0
 11 12  1  1  0  0  0
 11 13  1  0  0  0  0
 13 31  1  0  0  0  0
 14 15  1  0  0  0  0
 15 16  2  0  0  0  0
 15 17  1  0  0  0  0
 17 18  1  0  0  0  0
 18 20  2  0  0  0  0
 19 18  1  6  0  0  0
 19 22  1  0  0  0  0
 19 30  1  0  0  0  0
 21 23  1  1  0  0  0
 21 29  1  0  0  0  0
 21 22  1  0  0  0  0
 23 24  1  0  0  0  0
 24 25  1  6  0  0  0
 24 26  1  0  0  0  0
 26 27  1  6  0  0  0
 26 28  1  0  0  0  0
 29 28  1  1  0  0  0
 29 31  1  0  0  0  0
 30 14  1  1  0  0  0
 30 31  1  0  0  0  0
M  CHG  1   3  -1
M  END
>  <CHROM.1>
174.59305639,39.84370865,-67.61129765,48.76866121,-49.10421092,-155.65282199
82.48804379,27.31678615,37.70139911,20.24374025,-3.04096128,-1.50065087,1.20457513

>  <Name>
ligand

>  <RI>
0

>  <Rbt.Current_Directory>
/home/itssahil/PROJECTS/Mol_Feturizer/New_Systems/rnas/3F2Q

>  <Rbt.Executable>
rbdock ($Id: //depot/dev/client3/rdock/2013.1/src/exe/rbdock.cxx#4 $)

>  <Rbt.Library>
libRbt.so (2013.1, Build901 2013/11/27)

>  <Rbt.Parameter_File>
/export/apps/rDock/src/rDock_2013.1_src/data/scripts/dock_solv.prm

>  <Rbt.Receptor>
prm/pocket_docking_2.prm

>  <SCORE>
-28.1743

>  <SCORE.INTER>
-24.5626

>  <SCORE.INTER.CONST>
1

>  <SCORE.INTER.POLAR>
0

>  <SCORE.INTER.ROT>
7

>  <SCORE.INTER.SOLV>
17.9818

>  <SCORE.INTER.VDW>
-30.6357

>  <SCORE.INTER.norm>
-0.792343

>  <SCORE.INTRA>
-4.14635

>  <SCORE.INTRA.DIHEDRAL>
-5.26693

>  <SCORE.INTRA.DIHEDRAL.0>
10.0718

>  <SCORE.INTRA.POLAR>
0

>  <SCORE.INTRA.POLAR.0>
0

>  <SCORE.INTRA.REPUL>
0

>  <SCORE.INTRA.REPUL.0>
0

>  <SCORE.INTRA.SOLV>
-0.716559

>  <SCORE.INTRA.SOLV.lig_0>
-48.6963

>  <SCORE.INTRA.VDW>
-1.15461

>  <SCORE.INTRA.VDW.0>
-0.836976

>  <SCORE.INTRA.norm>
-0.133753

>  <SCORE.RESTR>
0.534659

>  <SCORE.RESTR.CAVITY>
0.534659

>  <SCORE.RESTR.norm>
0.0172471

>  <SCORE.SYSTEM>
0

>  <SCORE.SYSTEM.CONST>
0

>  <SCORE.SYSTEM.DIHEDRAL>
0

>  <SCORE.SYSTEM.SOLV>
0

>  <SCORE.SYSTEM.norm>
0

>  <SCORE.heavy>
31

>  <SCORE.norm>
-0.908849

>  <RMSD>
1.281

$$$$
ligand
 OpenBabel11021811473D
libRbt.so/2013.1/901 2013/11/27
 31 33  0  0  0  0  0  0  0  0999 V2000
   26.7716   42.6889   16.6861 P   0  0  1  0  0  0  0  0  0  0  0  0
   26.3436   42.3722   15.2691 O   0  0  0  0  0  0  0  0  0  0  0  0
   27.6373   43.9194   16.6441 O   0  5  0  0  0  0  0  0  0  0  0  0
   25.5663   42.9507   17.5466 O   0  0  0  0  0  0  0  0  0  0  0  0
   26.8185   40.2289   17.5393 C   0  0  0  0  0  0  0  0  0  0  0  0
   27.5265   41.4231   17.3109 O   0  0  0  0  0  0  0  0  0  0  0  0
   27.7804   39.1715   18.0610 C   0  0  1  0  0  0  0  0  0  0  0  0
   28.2972   39.6047   19.3014 O   0  0  0  0  0  0  0  0  0  0  0  0
   27.0609   37.8324   18.2212 C   0  0  1  0  0  0  0  0  0  0  0  0
   26.3053   37.5583   17.0608 O   0  0  0  0  0  0  0  0  0  0  0  0
   27.9968   36.6647   18.5631 C   0  0  1  0  0  0  0  0  0  0  0  0
   29.0184   36.5692   17.5956 O   0  0  0  0  0  0  0  0  0  0  0  0
   28.6259   36.8047   19.9401 C   0  0  0  0  0  0  0  0  0  0  0  0
   28.5632   34.0528   19.3026 N   0  0  0  0  0  0  0  0  0  0  0  0
   28.6031   32.7146   18.9676 C   0  0  0  0  0  0  0  0  0  0  0  0
   29.0349   32.3644   17.8658 O   0  0  0  0  0  0  0  0  0  0  0  0
   28.1486   31.7723   19.8680 N   0  0  0  0  0  0  0  0  0  0  0  0
   27.6557   32.1629   21.0988 C   0  0  0  0  0  0  0  0  0  0  0  0
   27.6159   33.4992   21.4381 C   0  0  1  0  0  0  0  0  0  0  0  0
   27.2559   31.3331   21.9138 O   0  0  0  0  0  0  0  0  0  0  0  0
   27.0867   35.2065   23.0191 C   0  0  2  0  0  0  0  0  0  0  0  0
   27.1245   33.8710   22.6744 N   0  0  0  0  0  0  0  0  0  0  0  0
   26.5898   35.5840   24.2643 C   0  0  0  0  0  0  0  0  0  0  0  0
   26.5404   36.9285   24.6186 C   0  0  1  0  0  0  0  0  0  0  0  0
   26.0109   37.3180   25.9712 C   0  0  0  0  0  0  0  0  0  0  0  0
   26.9958   37.8989   23.7188 C   0  0  1  0  0  0  0  0  0  0  0  0
   26.9694   39.3560   24.0776 C   0  0  0  0  0  0  0  0  0  0  0  0
   27.4922   37.5176   22.4758 C   0  0  0  0  0  0  0  0  0  0  0  0
   27.5405   36.1728   22.1162 C   0  0  2  0  0  0  0  0  0  0  0  0
   28.0743   34.4523   20.5357 C   0  0  2  0  0  0  0  0  0  0  0  0
   28.0271   35.7918   20.8714 N   0  0  0  0  0  0  0  0  0  0  0  0
  1  2  1  6  0  0  0
  1  3  1  0  0  0  0
  1  4  2  0  0  0  0
  1  6  1  0  0  0  0
  5  6  1  0  0  0  0
  7  5  1  1  0  0  0
  7  8  1  0  0  0  0
  7  9  1  0  0  0  0
  9 10  1  6  0  0  0
  9 11  1  0  0  0  0
 11 12  1  6  0  0  0
 11 13  1  0  0  0  0
 13 31  1  0  0  0  0
 14 15  1  0  0  0  0
 15 16  2  0  0  0  0
 15 17  1  0  0  0  0
 17 18  1  0  0  0  0
 18 20  2  0  0  0  0
 19 18  1  1  0  0  0
 19 22  1  0  0  0  0
 19 30  1  0  0  0  0
 21 23  1  6  0  0  0
 21 29  1  0  0  0  0
 21 22  1  0  0  0  0
 23 24  1  0  0  0  0
 24 25  1  1  0  0  0
 24 26  1  0  0  0  0
 26 27  1  1  0  0  0
 26 28  1  0  0  0  0
 29 28  1  6  0  0  0
 29 31  1  0  0  0  0
 30 14  1  6  0  0  0
 30 31  1  0  0  0  0
M  CHG  1   3  -1
M  END
>  <CHROM.1>
176.89986638,-65.92547653,62.99405695,47.05219139,-55.24211027,108.76001471
-129.98844182,27.42393596,37.32438911,19.86489124,-1.88808899,-1.32995267
2.30586713

>  <Name>
ligand

>  <RI>
0

>  <Rbt.Current_Directory>
/home/itssahil/PROJECTS/Mol_Feturizer/New_Systems/rnas/3F2Q

>  <Rbt.Executable>
rbdock ($Id: //depot/dev/client3/rdock/2013.1/src/exe/rbdock.cxx#4 $)

>  <Rbt.Library>
libRbt.so (2013.1, Build901 2013/11/27)

>  <Rbt.Parameter_File>
/export/apps/rDock/src/rDock_2013.1_src/data/scripts/dock_solv.prm

>  <Rbt.Receptor>
prm/pocket_docking_4.prm

>  <SCORE>
-34.0325

>  <SCORE.INTER>
-31.7107

>  <SCORE.INTER.CONST>
1

>  <SCORE.INTER.POLAR>
0

>  <SCORE.INTER.ROT>
7

>  <SCORE.INTER.SOLV>
20.2498

>  <SCORE.INTER.VDW>
-36.1571

>  <SCORE.INTER.norm>
-1.02293

>  <SCORE.INTRA>
-2.3218

>  <SCORE.INTRA.DIHEDRAL>
-3.21366

>  <SCORE.INTRA.DIHEDRAL.0>
10.0718

>  <SCORE.INTRA.POLAR>
0

>  <SCORE.INTRA.POLAR.0>
0

>  <SCORE.INTRA.REPUL>
0

>  <SCORE.INTRA.REPUL.0>
0

>  <SCORE.INTRA.SOLV>
-1.28407

>  <SCORE.INTRA.SOLV.lig_0>
-48.6963

>  <SCORE.INTRA.VDW>
-0.0729355

>  <SCORE.INTRA.VDW.0>
-0.836976

>  <SCORE.INTRA.norm>
-0.0748968

>  <SCORE.RESTR>
0

>  <SCORE.RESTR.CAVITY>
0

>  <SCORE.RESTR.norm>
0

>  <SCORE.SYSTEM>
0

>  <SCORE.SYSTEM.CONST>
0

>  <SCORE.SYSTEM.DIHEDRAL>
0

>  <SCORE.SYSTEM.SOLV>
0

>  <SCORE.SYSTEM.norm>
0

>  <SCORE.heavy>
31

>  <SCORE.norm>
-1.09782

>  <RMSD>
1.282

$$$$
ligand
 OpenBabel11021811473D
libRbt.so/2013.1/901 2013/11/27
 31 33  0  0  0  0  0  0  0  0999 V2000
   27.1884   42.2212   17.3281 P   0  0  1  0  0  0  0  0  0  0  0  0
   28.2887   43.1850   17.7178 O   0  0  0  0  0  0  0  0  0  0  0  0
   26.0074   43.0302   16.8636 O   0  5  0  0  0  0  0  0  0  0  0  0
   27.6537   41.3246   16.2139 O   0  0  0  0  0  0  0  0  0  0  0  0
   27.8791   40.6999   19.3257 C   0  0  0  0  0  0  0  0  0  0  0  0
   26.8400   41.2774   18.5734 O   0  0  0  0  0  0  0  0  0  0  0  0
   28.6553   39.7334   18.4432 C   0  0  1  0  0  0  0  0  0  0  0  0
   29.7966   39.2952   19.1494 O   0  0  0  0  0  0  0  0  0  0  0  0
   27.7765   38.5432   18.0586 C   0  0  1  0  0  0  0  0  0  0  0  0
   28.4282   37.7717   17.0725 O   0  0  0  0  0  0  0  0  0  0  0  0
   27.3533   37.6759   19.2524 C   0  0  1  0  0  0  0  0  0  0  0  0
   26.3657   36.7534   18.8494 O   0  0  0  0  0  0  0  0  0  0  0  0
   28.5202   36.9199   19.8675 C   0  0  0  0  0  0  0  0  0  0  0  0
   28.4956   34.1534   19.2936 N   0  0  0  0  0  0  0  0  0  0  0  0
   28.5526   32.8095   18.9854 C   0  0  0  0  0  0  0  0  0  0  0  0
   28.9300   32.4454   17.8682 O   0  0  0  0  0  0  0  0  0  0  0  0
   28.1758   31.8766   19.9304 N   0  0  0  0  0  0  0  0  0  0  0  0
   27.7437   32.2823   21.1791 C   0  0  0  0  0  0  0  0  0  0  0  0
   27.6872   33.6246   21.4914 C   0  0  1  0  0  0  0  0  0  0  0  0
   27.4138   31.4614   22.0333 O   0  0  0  0  0  0  0  0  0  0  0  0
   27.2033   35.3534   23.0636 C   0  0  2  0  0  0  0  0  0  0  0  0
   27.2574   34.0117   22.7459 N   0  0  0  0  0  0  0  0  0  0  0  0
   26.7683   35.7463   24.3271 C   0  0  0  0  0  0  0  0  0  0  0  0
   26.7028   37.0969   24.6548 C   0  0  1  0  0  0  0  0  0  0  0  0
   26.2411   37.5033   26.0271 C   0  0  0  0  0  0  0  0  0  0  0  0
   27.0796   38.0578   23.7097 C   0  0  1  0  0  0  0  0  0  0  0  0
   27.0344   39.5216   24.0383 C   0  0  0  0  0  0  0  0  0  0  0  0
   27.5143   37.6611   22.4485 C   0  0  0  0  0  0  0  0  0  0  0  0
   27.5784   36.3101   22.1156 C   0  0  2  0  0  0  0  0  0  0  0  0
   28.0673   34.5683   20.5440 C   0  0  2  0  0  0  0  0  0  0  0  0
   28.0032   35.9135   20.8532 N   0  0  0  0  0  0  0  0  0  0  0  0
  1  2  1  1  0  0  0
  1  3  1  0  0  0  0
  1  4  2  0  0  0  0
  1  6  1  0  0  0  0
  5  6  1  0  0  0  0
  7  5  1  1  0  0  0
  7  8  1  0  0  0  0
  7  9  1  0  0  0  0
  9 10  1  6  0  0  0
  9 11  1  0  0  0  0
 11 12  1  6  0  0  0
 11 13  1  0  0  0  0
 13 31  1  0  0  0  0
 14 15  1  0  0  0  0
 15 16  2  0  0  0  0
 15 17  1  0  0  0  0
 17 18  1  0  0  0  0
 18 20  2  0  0  0  0
 19 18  1  1  0  0  0
 19 22  1  0  0  0  0
 19 30  1  0  0  0  0
 21 23  1  6  0  0  0
 21 29  1  0  0  0  0
 21 22  1  0  0  0  0
 23 24  1  0  0  0  0
 24 25  1  1  0  0  0
 24 26  1  0  0  0  0
 26 27  1  1  0  0  0
 26 28  1  0  0  0  0
 29 28  1  6  0  0  0
 29 31  1  0  0  0  0
 30 14  1  6  0  0  0
 30 31  1  0  0  0  0
M  CHG  1   3  -1
M  END
>  <CHROM.1>
-64.69034000,-44.95549479,172.32676620,170.52001593,169.67626464,-169.75662423
-77.16737511,27.63873431,37.38455404,20.13711384,-1.65769694,-1.34534449
2.58242593

>  <Name>
ligand

>  <RI>
0

>  <Rbt.Current_Directory>
/home/itssahil/PROJECTS/Mol_Feturizer/New_Systems/rnas/3F2Q

>  <Rbt.Executable>
rbdock ($Id: //depot/dev/client3/rdock/2013.1/src/exe/rbdock.cxx#4 $)

>  <Rbt.Library>
libRbt.so (2013.1, Build901 2013/11/27)

>  <Rbt.Parameter_File>
/export/apps/rDock/src/rDock_2013.1_src/data/scripts/dock_solv.prm

>  <Rbt.Receptor>
prm/pocket_docking_4.prm

>  <SCORE>
-35.5814

>  <SCORE.INTER>
-31.8999

>  <SCORE.INTER.CONST>
1

>  <SCORE.INTER.POLAR>
0

>  <SCORE.INTER.ROT>
7

>  <SCORE.INTER.SOLV>
15.6665

>  <SCORE.INTER.VDW>
-34.7554

>  <SCORE.INTER.norm>
-1.02903

>  <SCORE.INTRA>
-3.68158

>  <SCORE.INTRA.DIHEDRAL>
-6.86753

>  <SCORE.INTRA.DIHEDRAL.0>
10.0718

>  <SCORE.INTRA.POLAR>
0

>  <SCORE.INTRA.POLAR.0>
0

>  <SCORE.INTRA.REPUL>
0

>  <SCORE.INTRA.REPUL.0>
0

>  <SCORE.INTRA.SOLV>
1.1711

>  <SCORE.INTRA.SOLV.lig_0>
-48.6963

>  <SCORE.INTRA.VDW>
-0.83337

>  <SCORE.INTRA.VDW.0>
-0.836976

>  <SCORE.INTRA.norm>
-0.118761

>  <SCORE.RESTR>
0

>  <SCORE.RESTR.CAVITY>
0

>  <SCORE.RESTR.norm>
0

>  <SCORE.SYSTEM>
0

>  <SCORE.SYSTEM.CONST>
0

>  <SCORE.SYSTEM.DIHEDRAL>
0

>  <SCORE.SYSTEM.SOLV>
0

>  <SCORE.SYSTEM.norm>
0

>  <SCORE.heavy>
31

>  <SCORE.norm>
-1.14779

>  <RMSD>
1.283

$$$$
ligand
 OpenBabel11021811473D
libRbt.so/2013.1/901 2013/11/27
 31 33  0  0  0  0  0  0  0  0999 V2000
   26.2625   43.2723   17.1186 P   0  0  1  0  0  0  0  0  0  0  0  0
   27.5303   43.8242   16.5026 O   0  0  0  0  0  0  0  0  0  0  0  0
   25.2153   44.3521   17.0682 O   0  5  0  0  0  0  0  0  0  0  0  0
   25.7875   42.0740   16.3438 O   0  0  0  0  0  0  0  0  0  0  0  0
   27.6004   41.8495   18.8412 C   0  0  0  0  0  0  0  0  0  0  0  0
   26.5664   42.7749   18.6095 O   0  0  0  0  0  0  0  0  0  0  0  0
   27.0054   40.4526   18.9420 C   0  0  1  0  0  0  0  0  0  0  0  0
   26.5141   40.0790   17.6722 O   0  0  0  0  0  0  0  0  0  0  0  0
   28.0641   39.4580   19.4182 C   0  0  1  0  0  0  0  0  0  0  0  0
   28.6746   39.9426   20.5950 O   0  0  0  0  0  0  0  0  0  0  0  0
   27.5287   38.0331   19.6166 C   0  0  1  0  0  0  0  0  0  0  0  0
   26.9228   37.5779   18.4272 O   0  0  0  0  0  0  0  0  0  0  0  0
   28.6156   37.0532   20.0289 C   0  0  0  0  0  0  0  0  0  0  0  0
   28.5222   34.3025   19.3901 N   0  0  0  0  0  0  0  0  0  0  0  0
   28.5463   32.9647   19.0520 C   0  0  0  0  0  0  0  0  0  0  0  0
   28.9391   32.6148   17.9356 O   0  0  0  0  0  0  0  0  0  0  0  0
   28.1195   32.0225   19.9660 N   0  0  0  0  0  0  0  0  0  0  0  0
   27.6701   32.4128   21.2135 C   0  0  0  0  0  0  0  0  0  0  0  0
   27.6463   33.7488   21.5557 C   0  0  1  0  0  0  0  0  0  0  0  0
   27.2956   31.5832   22.0405 O   0  0  0  0  0  0  0  0  0  0  0  0
   27.1769   35.4555   23.1563 C   0  0  2  0  0  0  0  0  0  0  0  0
   27.1985   34.1203   22.8086 N   0  0  0  0  0  0  0  0  0  0  0  0
   26.7239   35.8326   24.4182 C   0  0  0  0  0  0  0  0  0  0  0  0
   26.6910   37.1768   24.7758 C   0  0  1  0  0  0  0  0  0  0  0  0
   26.2091   37.5659   26.1461 C   0  0  0  0  0  0  0  0  0  0  0  0
   27.1187   38.1470   23.8623 C   0  0  1  0  0  0  0  0  0  0  0  0
   27.1093   39.6037   24.2239 C   0  0  0  0  0  0  0  0  0  0  0  0
   27.5712   37.7660   22.6026 C   0  0  0  0  0  0  0  0  0  0  0  0
   27.6029   36.4216   22.2397 C   0  0  2  0  0  0  0  0  0  0  0  0
   28.0768   34.7017   20.6396 C   0  0  2  0  0  0  0  0  0  0  0  0
   28.0455   36.0409   20.9786 N   0  0  0  0  0  0  0  0  0  0  0  0
  1  2  1  6  0  0  0
  1  3  1  0  0  0  0
  1  4  2  0  0  0  0
  1  6  1  0  0  0  0
  5  6  1  0  0  0  0
  7  5  1  6  0  0  0
  7  8  1  0  0  0  0
  7  9  1  0  0  0  0
  9 10  1  1  0  0  0
  9 11  1  0  0  0  0
 11 12  1  6  0  0  0
 11 13  1  0  0  0  0
 13 31  1  0  0  0  0
 14 15  1  0  0  0  0
 15 16  2  0  0  0  0
 15 17  1  0  0  0  0
 17 18  1  0  0  0  0
 18 20  2  0  0  0  0
 19 18  1  1  0  0  0
 19 22  1  0  0  0  0
 19 30  1  0  0  0  0
 21 23  1  6  0  0  0
 21 29  1  0  0  0  0
 21 22  1  0  0  0  0
 23 24  1  0  0  0  0
 24 25  1  1  0  0  0
 24 26  1  0  0  0  0
 26 27  1  1  0  0  0
 26 28  1  0  0  0  0
 29 28  1  6  0  0  0
 29 31  1  0  0  0  0
 30 14  1  6  0  0  0
 30 31  1  0  0  0  0
M  CHG  1   3  -1
M  END
>  <CHROM.1>
-97.70615682,-54.54488601,68.07262818,51.85168437,55.51240920,144.91619743
-66.03423919,27.30850183,37.90199388,20.25444562,-2.20080034,-1.36874387
2.07701174

>  <Name>
ligand

>  <RI>
0

>  <Rbt.Current_Directory>
/home/itssahil/PROJECTS/Mol_Feturizer/New_Systems/rnas/3F2Q

>  <Rbt.Executable>
rbdock ($Id: //depot/dev/client3/rdock/2013.1/src/exe/rbdock.cxx#4 $)

>  <Rbt.Library>
libRbt.so (2013.1, Build901 2013/11/27)

>  <Rbt.Parameter_File>
/export/apps/rDock/src/rDock_2013.1_src/data/scripts/dock_solv.prm

>  <Rbt.Receptor>
prm/pocket_docking_4.prm

>  <SCORE>
-32.8786

>  <SCORE.INTER>
-32.6724

>  <SCORE.INTER.CONST>
1

>  <SCORE.INTER.POLAR>
0

>  <SCORE.INTER.ROT>
7

>  <SCORE.INTER.SOLV>
18.1089

>  <SCORE.INTER.VDW>
-36.0845

>  <SCORE.INTER.norm>
-1.05395

>  <SCORE.INTRA>
-0.206267

>  <SCORE.INTRA.DIHEDRAL>
0.229833

>  <SCORE.INTRA.DIHEDRAL.0>
10.0718

>  <SCORE.INTRA.POLAR>
0

>  <SCORE.INTRA.POLAR.0>
0

>  <SCORE.INTRA.REPUL>
0

>  <SCORE.INTRA.REPUL.0>
0

>  <SCORE.INTRA.SOLV>
0.974533

>  <SCORE.INTRA.SOLV.lig_0>
-48.6963

>  <SCORE.INTRA.VDW>
-0.80845

>  <SCORE.INTRA.VDW.0>
-0.836976

>  <SCORE.INTRA.norm>
-0.00665377

>  <SCORE.RESTR>
0

>  <SCORE.RESTR.CAVITY>
0

>  <SCORE.RESTR.norm>
0

>  <SCORE.SYSTEM>
0

>  <SCORE.SYSTEM.CONST>
0

>  <SCORE.SYSTEM.DIHEDRAL>
0

>  <SCORE.SYSTEM.SOLV>
0

>  <SCORE.SYSTEM.norm>
0

>  <SCORE.heavy>
31

>  <SCORE.norm>
-1.0606

>  <RMSD>
1.288

$$$$
ligand
 OpenBabel11021811473D
libRbt.so/2013.1/901 2013/11/27
 31 33  0  0  0  0  0  0  0  0999 V2000
   26.1526   43.0903   17.1728 P   0  0  1  0  0  0  0  0  0  0  0  0
   27.2104   44.1364   16.8934 O   0  0  0  0  0  0  0  0  0  0  0  0
   24.9042   43.8022   17.6197 O   0  5  0  0  0  0  0  0  0  0  0  0
   25.8623   42.2994   15.9269 O   0  0  0  0  0  0  0  0  0  0  0  0
   26.0467   40.8248   18.4527 C   0  0  0  0  0  0  0  0  0  0  0  0
   26.6999   42.0568   18.2659 O   0  0  0  0  0  0  0  0  0  0  0  0
   26.7974   39.7424   17.6911 C   0  0  1  0  0  0  0  0  0  0  0  0
   27.3595   40.3155   16.5296 O   0  0  0  0  0  0  0  0  0  0  0  0
   27.8915   39.1366   18.5701 C   0  0  1  0  0  0  0  0  0  0  0  0
   28.4820   40.1487   19.3571 O   0  0  0  0  0  0  0  0  0  0  0  0
   27.4091   37.9673   19.4397 C   0  0  1  0  0  0  0  0  0  0  0  0
   26.5913   37.1076   18.6776 O   0  0  0  0  0  0  0  0  0  0  0  0
   28.5584   37.1670   20.0316 C   0  0  0  0  0  0  0  0  0  0  0  0
   28.4835   34.4292   19.3369 N   0  0  0  0  0  0  0  0  0  0  0  0
   28.5161   33.0991   18.9705 C   0  0  0  0  0  0  0  0  0  0  0  0
   28.8923   32.7770   17.8401 O   0  0  0  0  0  0  0  0  0  0  0  0
   28.1164   32.1334   19.8720 N   0  0  0  0  0  0  0  0  0  0  0  0
   27.6855   32.4925   21.1353 C   0  0  0  0  0  0  0  0  0  0  0  0
   27.6533   33.8208   21.5059 C   0  0  1  0  0  0  0  0  0  0  0  0
   27.3352   31.6417   21.9513 O   0  0  0  0  0  0  0  0  0  0  0  0
   27.1944   35.4883   23.1501 C   0  0  2  0  0  0  0  0  0  0  0  0
   27.2243   34.1610   22.7741 N   0  0  0  0  0  0  0  0  0  0  0  0
   26.7604   35.8340   24.4276 C   0  0  0  0  0  0  0  0  0  0  0  0
   26.7193   37.1700   24.8139 C   0  0  1  0  0  0  0  0  0  0  0  0
   26.2582   37.5250   26.2005 C   0  0  0  0  0  0  0  0  0  0  0  0
   27.1196   38.1638   23.9134 C   0  0  1  0  0  0  0  0  0  0  0  0
   27.1009   39.6124   24.3056 C   0  0  0  0  0  0  0  0  0  0  0  0
   27.5533   37.8142   22.6381 C   0  0  0  0  0  0  0  0  0  0  0  0
   27.5930   36.4780   22.2465 C   0  0  2  0  0  0  0  0  0  0  0  0
   28.0566   34.7973   20.6024 C   0  0  2  0  0  0  0  0  0  0  0  0
   28.0168   36.1287   20.9699 N   0  0  0  0  0  0  0  0  0  0  0  0
  1  2  1  6  0  0  0
  1  3  1  0  0  0  0
  1  4  2  0  0  0  0
  1  6  1  0  0  0  0
  5  6  1  0  0  0  0
  7  5  1  1  0  0  0
  7  8  1  0  0  0  0
  7  9  1  0  0  0  0
  9 10  1  1  0  0  0
  9 11  1  0  0  0  0
 11 12  1  6  0  0  0
 11 13  1  0  0  0  0
 13 31  1  0  0  0  0
 14 15  1  0  0  0  0
 15 16  2  0  0  0  0
 15 17  1  0  0  0  0
 17 18  1  0  0  0  0
 18 20  2  0  0  0  0
 19 18  1  1  0  0  0
 19 22  1  0  0  0  0
 19 30  1  0  0  0  0
 21 23  1  6  0  0  0
 21 29  1  0  0  0  0
 21 22  1  0  0  0  0
 23 24  1  0  0  0  0
 24 25  1  1  0  0  0
 24 26  1  0  0  0  0
 26 27  1  1  0  0  0
 26 28  1  0  0  0  0
 29 28  1  6  0  0  0
 29 31  1  0  0  0  0
 30 14  1  6  0  0  0
 30 31  1  0  0  0  0
M  CHG  1   3  -1
M  END
>  <CHROM.1>
98.65282372,-164.54095874,-32.62690431,-37.64490907,43.78287235,174.59799926
-77.44204729,27.23279829,37.83442503,20.09950678,-2.19678675,-1.34663213
2.03747952

>  <Name>
ligand

>  <RI>
0

>  <Rbt.Current_Directory>
/home/itssahil/PROJECTS/Mol_Feturizer/New_Systems/rnas/3F2Q

>  <Rbt.Executable>
rbdock ($Id: //depot/dev/client3/rdock/2013.1/src/exe/rbdock.cxx#4 $)

>  <Rbt.Library>
libRbt.so (2013.1, Build901 2013/11/27)

>  <Rbt.Parameter_File>
/export/apps/rDock/src/rDock_2013.1_src/data/scripts/dock_solv.prm

>  <Rbt.Receptor>
prm/pocket_docking_2.prm

>  <SCORE>
-30.3454

>  <SCORE.INTER>
-31.9577

>  <SCORE.INTER.CONST>
1

>  <SCORE.INTER.POLAR>
0

>  <SCORE.INTER.ROT>
7

>  <SCORE.INTER.SOLV>
17.8807

>  <SCORE.INTER.VDW>
-35.532

>  <SCORE.INTER.norm>
-1.03089

>  <SCORE.INTRA>
1.61226

>  <SCORE.INTRA.DIHEDRAL>
1.86285

>  <SCORE.INTRA.DIHEDRAL.0>
10.0718

>  <SCORE.INTRA.POLAR>
0

>  <SCORE.INTRA.POLAR.0>
0

>  <SCORE.INTRA.REPUL>
0

>  <SCORE.INTRA.REPUL.0>
0

>  <SCORE.INTRA.SOLV>
1.71981

>  <SCORE.INTRA.SOLV.lig_0>
-48.6963

>  <SCORE.INTRA.VDW>
-0.179068

>  <SCORE.INTRA.VDW.0>
-0.836976

>  <SCORE.INTRA.norm>
0.0520085

>  <SCORE.RESTR>
0

>  <SCORE.RESTR.CAVITY>
0

>  <SCORE.RESTR.norm>
0

>  <SCORE.SYSTEM>
0

>  <SCORE.SYSTEM.CONST>
0

>  <SCORE.SYSTEM.DIHEDRAL>
0

>  <SCORE.SYSTEM.SOLV>
0

>  <SCORE.SYSTEM.norm>
0

>  <SCORE.heavy>
31

>  <SCORE.norm>
-0.978885

>  <RMSD>
1.295

$$$$
ligand
 OpenBabel11021811473D
libRbt.so/2013.1/901 2013/11/27
 31 33  0  0  0  0  0  0  0  0999 V2000
   26.7121   42.7655   16.8321 P   0  0  1  0  0  0  0  0  0  0  0  0
   27.7858   43.8321   16.7991 O   0  0  0  0  0  0  0  0  0  0  0  0
   25.9560   42.9098   18.1254 O   0  5  0  0  0  0  0  0  0  0  0  0
   25.7681   42.9428   15.6748 O   0  0  0  0  0  0  0  0  0  0  0  0
   26.7473   40.1872   17.1962 C   0  0  0  0  0  0  0  0  0  0  0  0
   27.3874   41.3234   16.6683 O   0  0  0  0  0  0  0  0  0  0  0  0
   26.7859   40.2547   18.7158 C   0  0  1  0  0  0  0  0  0  0  0  0
   25.5315   39.8445   19.2175 O   0  0  0  0  0  0  0  0  0  0  0  0
   27.8972   39.3564   19.2589 C   0  0  1  0  0  0  0  0  0  0  0  0
   28.4137   39.9091   20.4507 O   0  0  0  0  0  0  0  0  0  0  0  0
   27.4677   37.8971   19.4641 C   0  0  1  0  0  0  0  0  0  0  0  0
   27.0025   37.3578   18.2469 O   0  0  0  0  0  0  0  0  0  0  0  0
   28.5945   37.0263   19.9967 C   0  0  0  0  0  0  0  0  0  0  0  0
   28.5048   34.2781   19.3465 N   0  0  0  0  0  0  0  0  0  0  0  0
   28.5306   32.9419   19.0023 C   0  0  0  0  0  0  0  0  0  0  0  0
   28.9148   32.5983   17.8809 O   0  0  0  0  0  0  0  0  0  0  0  0
   28.1150   31.9942   19.9158 N   0  0  0  0  0  0  0  0  0  0  0  0
   27.6752   32.3775   21.1689 C   0  0  0  0  0  0  0  0  0  0  0  0
   27.6499   33.7118   21.5172 C   0  0  1  0  0  0  0  0  0  0  0  0
   27.3108   31.5428   21.9954 O   0  0  0  0  0  0  0  0  0  0  0  0
   27.1887   35.4097   23.1294 C   0  0  2  0  0  0  0  0  0  0  0  0
   27.2118   34.0762   22.7756 N   0  0  0  0  0  0  0  0  0  0  0  0
   26.7454   35.7797   24.3969 C   0  0  0  0  0  0  0  0  0  0  0  0
   26.7111   37.1222   24.7608 C   0  0  1  0  0  0  0  0  0  0  0  0
   26.2399   37.5036   26.1370 C   0  0  0  0  0  0  0  0  0  0  0  0
   27.1274   38.0979   23.8479 C   0  0  1  0  0  0  0  0  0  0  0  0
   27.1163   39.5529   24.2161 C   0  0  0  0  0  0  0  0  0  0  0  0
   27.5702   37.7240   22.5826 C   0  0  0  0  0  0  0  0  0  0  0  0
   27.6033   36.3813   22.2135 C   0  0  2  0  0  0  0  0  0  0  0  0
   28.0691   34.6703   20.6017 C   0  0  2  0  0  0  0  0  0  0  0  0
   28.0362   36.0078   20.9468 N   0  0  0  0  0  0  0  0  0  0  0  0
  1  2  1  6  0  0  0
  1  3  1  0  0  0  0
  1  4  2  0  0  0  0
  1  6  1  0  0  0  0
  5  6  1  0  0  0  0
  7  5  1  6  0  0  0
  7  8  1  0  0  0  0
  7  9  1  0  0  0  0
  9 10  1  1  0  0  0
  9 11  1  0  0  0  0
 11 12  1  6  0  0  0
 11 13  1  0  0  0  0
 13 31  1  0  0  0  0
 14 15  1  0  0  0  0
 15 16  2  0  0  0  0
 15 17  1  0  0  0  0
 17 18  1  0  0  0  0
 18 20  2  0  0  0  0
 19 18  1  1  0  0  0
 19 22  1  0  0  0  0
 19 30  1  0  0  0  0
 21 23  1  6  0  0  0
 21 29  1  0  0  0  0
 21 22  1  0  0  0  0
 23 24  1  0  0  0  0
 24 25  1  1  0  0  0
 24 26  1  0  0  0  0
 26 27  1  1  0  0  0
 26 28  1  0  0  0  0
 29 28  1  6  0  0  0
 29 31  1  0  0  0  0
 30 14  1  6  0  0  0
 30 31  1  0  0  0  0
M  CHG  1   3  -1
M  END
>  <CHROM.1>
-68.96513919,153.83013481,138.20614827,148.50753913,57.77984474,144.17854802
-73.03076496,27.32348260,37.69115525,20.14828629,-2.06416577,-1.36846075
2.15026419

>  <Name>
ligand

>  <RI>
0

>  <Rbt.Current_Directory>
/home/itssahil/PROJECTS/Mol_Feturizer/New_Systems/rnas/3F2Q

>  <Rbt.Executable>
rbdock ($Id: //depot/dev/client3/rdock/2013.1/src/exe/rbdock.cxx#4 $)

>  <Rbt.Library>
libRbt.so (2013.1, Build901 2013/11/27)

>  <Rbt.Parameter_File>
/export/apps/rDock/src/rDock_2013.1_src/data/scripts/dock_solv.prm

>  <Rbt.Receptor>
prm/pocket_docking_4.prm

>  <SCORE>
-32.001

>  <SCORE.INTER>
-33.0587

>  <SCORE.INTER.CONST>
1

>  <SCORE.INTER.POLAR>
0

>  <SCORE.INTER.ROT>
7

>  <SCORE.INTER.SOLV>
17.8246

>  <SCORE.INTER.VDW>
-36.2473

>  <SCORE.INTER.norm>
-1.06641

>  <SCORE.INTRA>
1.04284

>  <SCORE.INTRA.DIHEDRAL>
3.16561

>  <SCORE.INTRA.DIHEDRAL.0>
10.0718

>  <SCORE.INTRA.POLAR>
0

>  <SCORE.INTRA.POLAR.0>
0

>  <SCORE.INTRA.REPUL>
0

>  <SCORE.INTRA.REPUL.0>
0

>  <SCORE.INTRA.SOLV>
1.68105

>  <SCORE.INTRA.SOLV.lig_0>
-48.6963

>  <SCORE.INTRA.VDW>
-1.38049

>  <SCORE.INTRA.VDW.0>
-0.836976

>  <SCORE.INTRA.norm>
0.0336399

>  <SCORE.RESTR>
0.0148468

>  <SCORE.RESTR.CAVITY>
0.0148468

>  <SCORE.RESTR.norm>
0.000478929

>  <SCORE.SYSTEM>
0

>  <SCORE.SYSTEM.CONST>
0

>  <SCORE.SYSTEM.DIHEDRAL>
0

>  <SCORE.SYSTEM.SOLV>
0

>  <SCORE.SYSTEM.norm>
0

>  <SCORE.heavy>
31

>  <SCORE.norm>
-1.03229

>  <RMSD>
1.298

$$$$
ligand
 OpenBabel11021811473D
libRbt.so/2013.1/901 2013/11/27
 31 33  0  0  0  0  0  0  0  0999 V2000
   26.5086   42.3980   16.9008 P   0  0  1  0  0  0  0  0  0  0  0  0
   25.4559   41.4174   17.3719 O   0  0  0  0  0  0  0  0  0  0  0  0
   26.4897   42.4098   15.3959 O   0  5  0  0  0  0  0  0  0  0  0  0
   26.2033   43.7765   17.4188 O   0  0  0  0  0  0  0  0  0  0  0  0
   28.5367   40.7754   17.0892 C   0  0  0  0  0  0  0  0  0  0  0  0
   27.9335   41.9789   17.4979 O   0  0  0  0  0  0  0  0  0  0  0  0
   27.7399   39.6046   17.6457 C   0  0  1  0  0  0  0  0  0  0  0  0
   28.3092   38.4041   17.1683 O   0  0  0  0  0  0  0  0  0  0  0  0
   27.7546   39.6313   19.1740 C   0  0  1  0  0  0  0  0  0  0  0  0
   27.0165   40.7422   19.6360 O   0  0  0  0  0  0  0  0  0  0  0  0
   27.2609   38.3291   19.8198 C   0  0  1  0  0  0  0  0  0  0  0  0
   26.2519   37.7503   19.0224 O   0  0  0  0  0  0  0  0  0  0  0  0
   28.3778   37.3177   20.0221 C   0  0  0  0  0  0  0  0  0  0  0  0
   28.3699   34.5793   19.3259 N   0  0  0  0  0  0  0  0  0  0  0  0
   28.4333   33.2516   18.9550 C   0  0  0  0  0  0  0  0  0  0  0  0
   28.7593   32.9445   17.8049 O   0  0  0  0  0  0  0  0  0  0  0  0
   28.1207   32.2709   19.8746 N   0  0  0  0  0  0  0  0  0  0  0  0
   27.7461   32.6128   21.1604 C   0  0  0  0  0  0  0  0  0  0  0  0
   27.6834   33.9387   21.5354 C   0  0  1  0  0  0  0  0  0  0  0  0
   27.4738   31.7489   21.9922 O   0  0  0  0  0  0  0  0  0  0  0  0
   27.2516   35.5868   23.2063 C   0  0  2  0  0  0  0  0  0  0  0  0
   27.3117   34.2618   22.8260 N   0  0  0  0  0  0  0  0  0  0  0  0
   26.8751   35.9152   24.5064 C   0  0  0  0  0  0  0  0  0  0  0  0
   26.8041   37.2485   24.8977 C   0  0  1  0  0  0  0  0  0  0  0  0
   26.4062   37.5851   26.3083 C   0  0  0  0  0  0  0  0  0  0  0  0
   27.1162   38.2572   23.9792 C   0  0  1  0  0  0  0  0  0  0  0  0
   27.0636   39.7039   24.3754 C   0  0  0  0  0  0  0  0  0  0  0  0
   27.4927   37.9249   22.6812 C   0  0  0  0  0  0  0  0  0  0  0  0
   27.5621   36.5915   22.2848 C   0  0  2  0  0  0  0  0  0  0  0  0
   27.9991   34.9304   20.6137 C   0  0  2  0  0  0  0  0  0  0  0  0
   27.9285   36.2591   20.9861 N   0  0  0  0  0  0  0  0  0  0  0  0
  1  2  1  1  0  0  0
  1  3  1  0  0  0  0
  1  4  2  0  0  0  0
  1  6  1  0  0  0  0
  5  6  1  0  0  0  0
  7  5  1  6  0  0  0
  7  8  1  0  0  0  0
  7  9  1  0  0  0  0
  9 10  1  1  0  0  0
  9 11  1  0  0  0  0
 11 12  1  6  0  0  0
 11 13  1  0  0  0  0
 13 31  1  0  0  0  0
 14 15  1  0  0  0  0
 15 16  2  0  0  0  0
 15 17  1  0  0  0  0
 17 18  1  0  0  0  0
 18 20  2  0  0  0  0
 19 18  1  1  0  0  0
 19 22  1  0  0  0  0
 19 30  1  0  0  0  0
 21 23  1  6  0  0  0
 21 29  1  0  0  0  0
 21 22  1  0  0  0  0
 23 24  1  0  0  0  0
 24 25  1  1  0  0  0
 24 26  1  0  0  0  0
 26 27  1  1  0  0  0
 26 28  1  0  0  0  0
 29 28  1  6  0  0  0
 29 31  1  0  0  0  0
 30 14  1  6  0  0  0
 30 31  1  0  0  0  0
M  CHG  1   3  -1
M  END
>  <CHROM.1>
-69.20064023,66.11045571,176.75336633,68.15790735,-33.64712278,164.01894302
-60.46886983,27.37187713,37.75030266,20.09278221,-1.97352397,-1.35649590
2.17211842

>  <Name>
ligand

>  <RI>
0

>  <Rbt.Current_Directory>
/home/itssahil/PROJECTS/Mol_Feturizer/New_Systems/rnas/3F2Q

>  <Rbt.Executable>
rbdock ($Id: //depot/dev/client3/rdock/2013.1/src/exe/rbdock.cxx#4 $)

>  <Rbt.Library>
libRbt.so (2013.1, Build901 2013/11/27)

>  <Rbt.Parameter_File>
/export/apps/rDock/src/rDock_2013.1_src/data/scripts/dock_solv.prm

>  <Rbt.Receptor>
prm/pocket_docking_4.prm

>  <SCORE>
-34.4427

>  <SCORE.INTER>
-31.486

>  <SCORE.INTER.CONST>
1

>  <SCORE.INTER.POLAR>
0

>  <SCORE.INTER.ROT>
7

>  <SCORE.INTER.SOLV>
18.4615

>  <SCORE.INTER.VDW>
-35.4112

>  <SCORE.INTER.norm>
-1.01568

>  <SCORE.INTRA>
-2.95668

>  <SCORE.INTRA.DIHEDRAL>
-5.03149

>  <SCORE.INTRA.DIHEDRAL.0>
10.0718

>  <SCORE.INTRA.POLAR>
0

>  <SCORE.INTRA.POLAR.0>
0

>  <SCORE.INTRA.REPUL>
0

>  <SCORE.INTRA.REPUL.0>
0

>  <SCORE.INTRA.SOLV>
0.899239

>  <SCORE.INTRA.SOLV.lig_0>
-48.6963

>  <SCORE.INTRA.VDW>
-0.890552

>  <SCORE.INTRA.VDW.0>
-0.836976

>  <SCORE.INTRA.norm>
-0.0953767

>  <SCORE.RESTR>
0

>  <SCORE.RESTR.CAVITY>
0

>  <SCORE.RESTR.norm>
0

>  <SCORE.SYSTEM>
0

>  <SCORE.SYSTEM.CONST>
0

>  <SCORE.SYSTEM.DIHEDRAL>
0

>  <SCORE.SYSTEM.SOLV>
0

>  <SCORE.SYSTEM.norm>
0

>  <SCORE.heavy>
31

>  <SCORE.norm>
-1.11105

>  <RMSD>
1.298

$$$$
ligand
 OpenBabel11021811473D
libRbt.so/2013.1/901 2013/11/27
 31 33  0  0  0  0  0  0  0  0999 V2000
   26.1797   42.9190   16.5313 P   0  0  1  0  0  0  0  0  0  0  0  0
   27.1971   43.6942   17.3410 O   0  0  0  0  0  0  0  0  0  0  0  0
   24.8214   43.5022   16.8144 O   0  5  0  0  0  0  0  0  0  0  0  0
   26.4832   43.0396   15.0633 O   0  0  0  0  0  0  0  0  0  0  0  0
   27.5256   40.7208   16.9031 C   0  0  0  0  0  0  0  0  0  0  0  0
   26.2747   41.3647   16.9025 O   0  0  0  0  0  0  0  0  0  0  0  0
   27.3397   39.2715   17.3277 C   0  0  1  0  0  0  0  0  0  0  0  0
   28.5570   38.5840   17.1303 O   0  0  0  0  0  0  0  0  0  0  0  0
   26.9177   39.1984   18.7951 C   0  0  1  0  0  0  0  0  0  0  0  0
   25.7659   39.9889   18.9972 O   0  0  0  0  0  0  0  0  0  0  0  0
   26.7053   37.7667   19.3067 C   0  0  1  0  0  0  0  0  0  0  0  0
   25.9989   37.0136   18.3462 O   0  0  0  0  0  0  0  0  0  0  0  0
   28.0133   37.0620   19.6292 C   0  0  0  0  0  0  0  0  0  0  0  0
   28.1609   34.3094   19.0089 N   0  0  0  0  0  0  0  0  0  0  0  0
   28.2952   32.9791   18.6671 C   0  0  0  0  0  0  0  0  0  0  0  0
   28.5108   32.6594   17.4947 O   0  0  0  0  0  0  0  0  0  0  0  0
   28.1773   32.0092   19.6420 N   0  0  0  0  0  0  0  0  0  0  0  0
   27.9263   32.3644   20.9540 C   0  0  0  0  0  0  0  0  0  0  0  0
   27.7934   33.6930   21.2999 C   0  0  1  0  0  0  0  0  0  0  0  0
   27.8279   31.5109   21.8340 O   0  0  0  0  0  0  0  0  0  0  0  0
   27.4178   35.3580   22.9677 C   0  0  2  0  0  0  0  0  0  0  0  0
   27.5474   34.0298   22.6169 N   0  0  0  0  0  0  0  0  0  0  0  0
   27.1678   35.7000   24.2944 C   0  0  0  0  0  0  0  0  0  0  0  0
   27.0278   37.0359   24.6572 C   0  0  1  0  0  0  0  0  0  0  0  0
   26.7688   37.3883   26.0960 C   0  0  0  0  0  0  0  0  0  0  0  0
   27.1431   38.0337   23.6827 C   0  0  1  0  0  0  0  0  0  0  0  0
   27.0121   39.4843   24.0453 C   0  0  0  0  0  0  0  0  0  0  0  0
   27.3936   37.6879   22.3581 C   0  0  0  0  0  0  0  0  0  0  0  0
   27.5313   36.3515   21.9905 C   0  0  2  0  0  0  0  0  0  0  0  0
   27.9131   34.6740   20.3223 C   0  0  2  0  0  0  0  0  0  0  0  0
   27.7719   36.0047   20.6663 N   0  0  0  0  0  0  0  0  0  0  0  0
  1  2  1  1  0  0  0
  1  3  1  0  0  0  0
  1  4  2  0  0  0  0
  1  6  1  0  0  0  0
  5  6  1  0  0  0  0
  7  5  1  1  0  0  0
  7  8  1  0  0  0  0
  7  9  1  0  0  0  0
  9 10  1  6  0  0  0
  9 11  1  0  0  0  0
 11 12  1  6  0  0  0
 11 13  1  0  0  0  0
 13 31  1  0  0  0  0
 14 15  1  0  0  0  0
 15 16  2  0  0  0  0
 15 17  1  0  0  0  0
 17 18  1  0  0  0  0
 18 20  2  0  0  0  0
 19 18  1  1  0  0  0
 19 22  1  0  0  0  0
 19 30  1  0  0  0  0
 21 23  1  6  0  0  0
 21 29  1  0  0  0  0
 21 22  1  0  0  0  0
 23 24  1  0  0  0  0
 24 25  1  1  0  0  0
 24 26  1  0  0  0  0
 26 27  1  1  0  0  0
 26 28  1  0  0  0  0
 29 28  1  6  0  0  0
 29 31  1  0  0  0  0
 30 14  1  6  0  0  0
 30 31  1  0  0  0  0
M  CHG  1   3  -1
M  END
>  <CHROM.1>
178.31530444,-49.68778676,171.17399970,54.70144558,-43.23146806,153.87114908
-73.25778558,27.19182873,37.63506093,19.77095997,-2.30082907,-1.36095099
1.87967119

>  <Name>
ligand

>  <RI>
0

>  <Rbt.Current_Directory>
/home/itssahil/PROJECTS/Mol_Feturizer/New_Systems/rnas/3F2Q

>  <Rbt.Executable>
rbdock ($Id: //depot/dev/client3/rdock/2013.1/src/exe/rbdock.cxx#4 $)

>  <Rbt.Library>
libRbt.so (2013.1, Build901 2013/11/27)

>  <Rbt.Parameter_File>
/export/apps/rDock/src/rDock_2013.1_src/data/scripts/dock_solv.prm

>  <Rbt.Receptor>
prm/pocket_docking_3.prm

>  <SCORE>
-35.008

>  <SCORE.INTER>
-31.3869

>  <SCORE.INTER.CONST>
1

>  <SCORE.INTER.POLAR>
0

>  <SCORE.INTER.ROT>
7

>  <SCORE.INTER.SOLV>
19.7497

>  <SCORE.INTER.VDW>
-35.7745

>  <SCORE.INTER.norm>
-1.01248

>  <SCORE.INTRA>
-3.63162

>  <SCORE.INTRA.DIHEDRAL>
-5.04989

>  <SCORE.INTRA.DIHEDRAL.0>
10.0718

>  <SCORE.INTRA.POLAR>
0

>  <SCORE.INTRA.POLAR.0>
0

>  <SCORE.INTRA.REPUL>
0

>  <SCORE.INTRA.REPUL.0>
0

>  <SCORE.INTRA.SOLV>
-0.759817

>  <SCORE.INTRA.SOLV.lig_0>
-48.6963

>  <SCORE.INTRA.VDW>
-0.726766

>  <SCORE.INTRA.VDW.0>
-0.836976

>  <SCORE.INTRA.norm>
-0.117149

>  <SCORE.RESTR>
0.0105522

>  <SCORE.RESTR.CAVITY>
0.0105522

>  <SCORE.RESTR.norm>
0.000340393

>  <SCORE.SYSTEM>
0

>  <SCORE.SYSTEM.CONST>
0

>  <SCORE.SYSTEM.DIHEDRAL>
0

>  <SCORE.SYSTEM.SOLV>
0

>  <SCORE.SYSTEM.norm>
0

>  <SCORE.heavy>
31

>  <SCORE.norm>
-1.12929

>  <RMSD>
1.310

$$$$
ligand
 OpenBabel11021811473D
libRbt.so/2013.1/901 2013/11/27
 31 33  0  0  0  0  0  0  0  0999 V2000
   25.6757   43.4383   16.2106 P   0  0  1  0  0  0  0  0  0  0  0  0
   24.6291   43.5822   15.1263 O   0  0  0  0  0  0  0  0  0  0  0  0
   26.9915   43.9052   15.6488 O   0  5  0  0  0  0  0  0  0  0  0  0
   25.3093   44.2810   17.4012 O   0  0  0  0  0  0  0  0  0  0  0  0
   26.7229   41.5062   17.6077 C   0  0  0  0  0  0  0  0  0  0  0  0
   25.7212   41.9180   16.7098 O   0  0  0  0  0  0  0  0  0  0  0  0
   26.5214   40.0346   17.9383 C   0  0  1  0  0  0  0  0  0  0  0  0
   26.6559   39.2831   16.7506 O   0  0  0  0  0  0  0  0  0  0  0  0
   27.5461   39.5788   18.9769 C   0  0  1  0  0  0  0  0  0  0  0  0
   27.4681   40.4089   20.1160 O   0  0  0  0  0  0  0  0  0  0  0  0
   27.4214   38.0975   19.3598 C   0  0  1  0  0  0  0  0  0  0  0  0
   27.4665   37.2965   18.2000 O   0  0  0  0  0  0  0  0  0  0  0  0
   28.5125   37.6484   20.3185 C   0  0  0  0  0  0  0  0  0  0  0  0
   28.5038   34.9387   19.5182 N   0  0  0  0  0  0  0  0  0  0  0  0
   28.5689   33.6248   19.1012 C   0  0  0  0  0  0  0  0  0  0  0  0
   28.9644   33.3546   17.9638 O   0  0  0  0  0  0  0  0  0  0  0  0
   28.1800   32.6167   19.9601 N   0  0  0  0  0  0  0  0  0  0  0  0
   27.7277   32.9175   21.2311 C   0  0  0  0  0  0  0  0  0  0  0  0
   27.6631   34.2294   21.6521 C   0  0  1  0  0  0  0  0  0  0  0  0
   27.3868   32.0285   22.0095 O   0  0  0  0  0  0  0  0  0  0  0  0
   27.1506   35.8220   23.3538 C   0  0  2  0  0  0  0  0  0  0  0  0
   27.2130   34.5112   22.9274 N   0  0  0  0  0  0  0  0  0  0  0  0
   26.6952   36.1088   24.6384 C   0  0  0  0  0  0  0  0  0  0  0  0
   26.6213   37.4277   25.0753 C   0  0  1  0  0  0  0  0  0  0  0  0
   26.1375   37.7190   26.4691 C   0  0  0  0  0  0  0  0  0  0  0  0
   27.0102   38.4638   24.2186 C   0  0  1  0  0  0  0  0  0  0  0  0
   26.9562   39.8954   24.6660 C   0  0  0  0  0  0  0  0  0  0  0  0
   27.4652   38.1730   22.9359 C   0  0  0  0  0  0  0  0  0  0  0  0
   27.5379   36.8541   22.4938 C   0  0  2  0  0  0  0  0  0  0  0  0
   28.0553   35.2485   20.7918 C   0  0  2  0  0  0  0  0  0  0  0  0
   27.9830   36.5635   21.2097 N   0  0  0  0  0  0  0  0  0  0  0  0
  1  2  1  6  0  0  0
  1  3  1  0  0  0  0
  1  4  2  0  0  0  0
  1  6  1  0  0  0  0
  5  6  1  0  0  0  0
  7  5  1  6  0  0  0
  7  8  1  0  0  0  0
  7  9  1  0  0  0  0
  9 10  1  1  0  0  0
  9 11  1  0  0  0  0
 11 12  1  6  0  0  0
 11 13  1  0  0  0  0
 13 31  1  0  0  0  0
 14 15  1  0  0  0  0
 15 16  2  0  0  0  0
 15 17  1  0  0  0  0
 17 18  1  0  0  0  0
 18 20  2  0  0  0  0
 19 18  1  1  0  0  0
 19 22  1  0  0  0  0
 19 30  1  0  0  0  0
 21 23  1  6  0  0  0
 21 29  1  0  0  0  0
 21 22  1  0  0  0  0
 23 24  1  0  0  0  0
 24 25  1  1  0  0  0
 24 26  1  0  0  0  0
 26 27  1  1  0  0  0
 26 28  1  0  0  0  0
 29 28  1  6  0  0  0
 29 31  1  0  0  0  0
 30 14  1  6  0  0  0
 30 31  1  0  0  0  0
M  CHG  1   3  -1
M  END
>  <CHROM.1>
178.87437132,172.76184974,62.18450458,55.31058944,54.06854978,149.02071002
-98.51979790,27.08671522,38.15422091,20.01806736,2.27512208,1.31312234,-1.30634751

>  <Name>
ligand

>  <RI>
0

>  <Rbt.Current_Directory>
/home/itssahil/PROJECTS/Mol_Feturizer/New_Systems/rnas/3F2Q

>  <Rbt.Executable>
rbdock ($Id: //depot/dev/client3/rdock/2013.1/src/exe/rbdock.cxx#4 $)

>  <Rbt.Library>
libRbt.so (2013.1, Build901 2013/11/27)

>  <Rbt.Parameter_File>
/export/apps/rDock/src/rDock_2013.1_src/data/scripts/dock_solv.prm

>  <Rbt.Receptor>
prm/pocket_docking_8.prm

>  <SCORE>
-35.293

>  <SCORE.INTER>
-31.0457

>  <SCORE.INTER.CONST>
1

>  <SCORE.INTER.POLAR>
0

>  <SCORE.INTER.ROT>
7

>  <SCORE.INTER.SOLV>
20.2483

>  <SCORE.INTER.VDW>
-35.7132

>  <SCORE.INTER.norm>
-1.00147

>  <SCORE.INTRA>
-4.24738

>  <SCORE.INTRA.DIHEDRAL>
-5.44639

>  <SCORE.INTRA.DIHEDRAL.0>
10.0718

>  <SCORE.INTRA.POLAR>
0

>  <SCORE.INTRA.POLAR.0>
0

>  <SCORE.INTRA.REPUL>
0

>  <SCORE.INTRA.REPUL.0>
0

>  <SCORE.INTRA.SOLV>
-0.769903

>  <SCORE.INTRA.SOLV.lig_0>
-48.6963

>  <SCORE.INTRA.VDW>
-1.13923

>  <SCORE.INTRA.VDW.0>
-0.836976

>  <SCORE.INTRA.norm>
-0.137012

>  <SCORE.RESTR>
0

>  <SCORE.RESTR.CAVITY>
0

>  <SCORE.RESTR.norm>
0

>  <SCORE.SYSTEM>
0

>  <SCORE.SYSTEM.CONST>
0

>  <SCORE.SYSTEM.DIHEDRAL>
0

>  <SCORE.SYSTEM.SOLV>
0

>  <SCORE.SYSTEM.norm>
0

>  <SCORE.heavy>
31

>  <SCORE.norm>
-1.13849

>  <RMSD>
1.310

$$$$
ligand
 OpenBabel11021811473D
libRbt.so/2013.1/901 2013/11/27
 31 33  0  0  0  0  0  0  0  0999 V2000
   26.0373   42.5060   17.6204 P   0  0  1  0  0  0  0  0  0  0  0  0
   25.9020   41.9002   16.2397 O   0  0  0  0  0  0  0  0  0  0  0  0
   25.9016   43.9989   17.4861 O   0  5  0  0  0  0  0  0  0  0  0  0
   24.9568   41.9819   18.5258 O   0  0  0  0  0  0  0  0  0  0  0  0
   27.5951   40.7675   18.7747 C   0  0  0  0  0  0  0  0  0  0  0  0
   27.4375   42.0675   18.2605 O   0  0  0  0  0  0  0  0  0  0  0  0
   27.3701   39.7592   17.6575 C   0  0  1  0  0  0  0  0  0  0  0  0
   27.8726   40.2999   16.4540 O   0  0  0  0  0  0  0  0  0  0  0  0
   28.0711   38.4406   17.9836 C   0  0  1  0  0  0  0  0  0  0  0  0
   29.4676   38.6427   18.0213 O   0  0  0  0  0  0  0  0  0  0  0  0
   27.5710   37.7772   19.2744 C   0  0  1  0  0  0  0  0  0  0  0  0
   26.5517   36.8501   18.9739 O   0  0  0  0  0  0  0  0  0  0  0  0
   28.6808   37.0687   20.0346 C   0  0  0  0  0  0  0  0  0  0  0  0
   28.5658   34.3264   19.3638 N   0  0  0  0  0  0  0  0  0  0  0  0
   28.5798   32.9922   19.0114 C   0  0  0  0  0  0  0  0  0  0  0  0
   28.9863   32.6499   17.8974 O   0  0  0  0  0  0  0  0  0  0  0  0
   28.1277   32.0452   19.9080 N   0  0  0  0  0  0  0  0  0  0  0  0
   27.6631   32.4271   21.1525 C   0  0  0  0  0  0  0  0  0  0  0  0
   27.6493   33.7594   21.5091 C   0  0  1  0  0  0  0  0  0  0  0  0
   27.2660   31.5928   21.9641 O   0  0  0  0  0  0  0  0  0  0  0  0
   27.1743   35.4538   23.1210 C   0  0  2  0  0  0  0  0  0  0  0  0
   27.1860   34.1224   22.7588 N   0  0  0  0  0  0  0  0  0  0  0  0
   26.7057   35.8224   24.3797 C   0  0  0  0  0  0  0  0  0  0  0  0
   26.6826   37.1629   24.7517 C   0  0  1  0  0  0  0  0  0  0  0  0
   26.1835   37.5426   26.1185 C   0  0  0  0  0  0  0  0  0  0  0  0
   27.1359   38.1380   23.8559 C   0  0  1  0  0  0  0  0  0  0  0  0
   27.1377   39.5906   24.2335 C   0  0  0  0  0  0  0  0  0  0  0  0
   27.6040   37.7655   22.5993 C   0  0  0  0  0  0  0  0  0  0  0  0
   27.6259   36.4248   22.2221 C   0  0  2  0  0  0  0  0  0  0  0  0
   28.1053   34.7172   20.6106 C   0  0  2  0  0  0  0  0  0  0  0  0
   28.0841   36.0528   20.9639 N   0  0  0  0  0  0  0  0  0  0  0  0
  1  2  1  6  0  0  0
  1  3  1  0  0  0  0
  1  4  2  0  0  0  0
  1  6  1  0  0  0  0
  5  6  1  0  0  0  0
  7  5  1  1  0  0  0
  7  8  1  0  0  0  0
  7  9  1  0  0  0  0
  9 10  1  1  0  0  0
  9 11  1  0  0  0  0
 11 12  1  6  0  0  0
 11 13  1  0  0  0  0
 13 31  1  0  0  0  0
 14 15  1  0  0  0  0
 15 16  2  0  0  0  0
 15 17  1  0  0  0  0
 17 18  1  0  0  0  0
 18 20  2  0  0  0  0
 19 18  1  1  0  0  0
 19 22  1  0  0  0  0
 19 30  1  0  0  0  0
 21 23  1  6  0  0  0
 21 29  1  0  0  0  0
 21 22  1  0  0  0  0
 23 24  1  0  0  0  0
 24 25  1  1  0  0  0
 24 26  1  0  0  0  0
 26 27  1  1  0  0  0
 26 28  1  0  0  0  0
 29 28  1  6  0  0  0
 29 31  1  0  0  0  0
 30 14  1  6  0  0  0
 30 31  1  0  0  0  0
M  CHG  1   3  -1
M  END
>  <CHROM.1>
60.45484855,-76.41546040,35.36642326,-64.70011860,93.53300633,-159.37991400
-84.07055810,27.34409223,37.58748460,20.13598414,2.05410731,1.29705553,-0.94190586

>  <Name>
ligand

>  <RI>
0

>  <Rbt.Current_Directory>
/home/itssahil/PROJECTS/Mol_Feturizer/New_Systems/rnas/3F2Q

>  <Rbt.Executable>
rbdock ($Id: //depot/dev/client3/rdock/2013.1/src/exe/rbdock.cxx#4 $)

>  <Rbt.Library>
libRbt.so (2013.1, Build901 2013/11/27)

>  <Rbt.Parameter_File>
/export/apps/rDock/src/rDock_2013.1_src/data/scripts/dock_solv.prm

>  <Rbt.Receptor>
prm/pocket_docking_2.prm

>  <SCORE>
-28.7096

>  <SCORE.INTER>
-29.7973

>  <SCORE.INTER.CONST>
1

>  <SCORE.INTER.POLAR>
0

>  <SCORE.INTER.ROT>
7

>  <SCORE.INTER.SOLV>
16.6068

>  <SCORE.INTER.VDW>
-33.6672

>  <SCORE.INTER.norm>
-0.961204

>  <SCORE.INTRA>
0.460265

>  <SCORE.INTRA.DIHEDRAL>
-1.68261

>  <SCORE.INTRA.DIHEDRAL.0>
10.0718

>  <SCORE.INTRA.POLAR>
0

>  <SCORE.INTRA.POLAR.0>
0

>  <SCORE.INTRA.REPUL>
0

>  <SCORE.INTRA.REPUL.0>
0

>  <SCORE.INTRA.SOLV>
0.632675

>  <SCORE.INTRA.SOLV.lig_0>
-48.6963

>  <SCORE.INTRA.VDW>
0.985232

>  <SCORE.INTRA.VDW.0>
-0.836976

>  <SCORE.INTRA.norm>
0.0148472

>  <SCORE.RESTR>
0.627423

>  <SCORE.RESTR.CAVITY>
0.627423

>  <SCORE.RESTR.norm>
0.0202395

>  <SCORE.SYSTEM>
0

>  <SCORE.SYSTEM.CONST>
0

>  <SCORE.SYSTEM.DIHEDRAL>
0

>  <SCORE.SYSTEM.SOLV>
0

>  <SCORE.SYSTEM.norm>
0

>  <SCORE.heavy>
31

>  <SCORE.norm>
-0.926117

>  <RMSD>
1.311

$$$$
ligand
 OpenBabel11021811473D
libRbt.so/2013.1/901 2013/11/27
 31 33  0  0  0  0  0  0  0  0999 V2000
   26.4094   42.4722   16.8591 P   0  0  1  0  0  0  0  0  0  0  0  0
   25.3601   41.5465   17.4367 O   0  0  0  0  0  0  0  0  0  0  0  0
   26.3165   42.3984   15.3588 O   0  5  0  0  0  0  0  0  0  0  0  0
   26.1604   43.8852   17.3099 O   0  0  0  0  0  0  0  0  0  0  0  0
   28.4145   40.8195   17.0327 C   0  0  0  0  0  0  0  0  0  0  0  0
   27.8526   42.0527   17.4105 O   0  0  0  0  0  0  0  0  0  0  0  0
   27.6284   39.6926   17.6866 C   0  0  1  0  0  0  0  0  0  0  0  0
   28.0742   38.4635   17.1537 O   0  0  0  0  0  0  0  0  0  0  0  0
   27.8241   39.7191   19.2024 C   0  0  1  0  0  0  0  0  0  0  0  0
   27.2256   40.8801   19.7375 O   0  0  0  0  0  0  0  0  0  0  0  0
   27.3187   38.4559   19.9131 C   0  0  1  0  0  0  0  0  0  0  0  0
   26.2320   37.9069   19.2015 O   0  0  0  0  0  0  0  0  0  0  0  0
   28.4008   37.3986   20.0642 C   0  0  0  0  0  0  0  0  0  0  0  0
   28.4237   34.6620   19.3611 N   0  0  0  0  0  0  0  0  0  0  0  0
   28.5029   33.3356   18.9885 C   0  0  0  0  0  0  0  0  0  0  0  0
   28.8571   33.0332   17.8456 O   0  0  0  0  0  0  0  0  0  0  0  0
   28.1743   32.3509   19.8982 N   0  0  0  0  0  0  0  0  0  0  0  0
   27.7681   32.6875   21.1758 C   0  0  0  0  0  0  0  0  0  0  0  0
   27.6896   34.0120   21.5526 C   0  0  1  0  0  0  0  0  0  0  0  0
   27.4812   31.8199   21.9989 O   0  0  0  0  0  0  0  0  0  0  0  0
   27.2102   35.6535   23.2170 C   0  0  2  0  0  0  0  0  0  0  0  0
   27.2863   34.3297   22.8350 N   0  0  0  0  0  0  0  0  0  0  0  0
   26.8019   35.9764   24.5089 C   0  0  0  0  0  0  0  0  0  0  0  0
   26.7146   37.3083   24.9017 C   0  0  1  0  0  0  0  0  0  0  0  0
   26.2823   37.6391   26.3035 C   0  0  0  0  0  0  0  0  0  0  0  0
   27.0426   38.3210   23.9932 C   0  0  1  0  0  0  0  0  0  0  0  0
   26.9730   39.7664   24.3916 C   0  0  0  0  0  0  0  0  0  0  0  0
   27.4508   37.9942   22.7034 C   0  0  0  0  0  0  0  0  0  0  0  0
   27.5366   36.6621   22.3055 C   0  0  2  0  0  0  0  0  0  0  0  0
   28.0212   35.0077   20.6409 C   0  0  2  0  0  0  0  0  0  0  0  0
   27.9349   36.3350   21.0148 N   0  0  0  0  0  0  0  0  0  0  0  0
  1  2  1  1  0  0  0
  1  3  1  0  0  0  0
  1  4  2  0  0  0  0
  1  6  1  0  0  0  0
  5  6  1  0  0  0  0
  7  5  1  6  0  0  0
  7  8  1  0  0  0  0
  7  9  1  0  0  0  0
  9 10  1  1  0  0  0
  9 11  1  0  0  0  0
 11 12  1  6  0  0  0
 11 13  1  0  0  0  0
 13 31  1  0  0  0  0
 14 15  1  0  0  0  0
 15 16  2  0  0  0  0
 15 17  1  0  0  0  0
 17 18  1  0  0  0  0
 18 20  2  0  0  0  0
 19 18  1  1  0  0  0
 19 22  1  0  0  0  0
 19 30  1  0  0  0  0
 21 23  1  6  0  0  0
 21 29  1  0  0  0  0
 21 22  1  0  0  0  0
 23 24  1  0  0  0  0
 24 25  1  1  0  0  0
 24 26  1  0  0  0  0
 26 27  1  1  0  0  0
 26 28  1  0  0  0  0
 29 28  1  6  0  0  0
 29 31  1  0  0  0  0
 30 14  1  6  0  0  0
 30 31  1  0  0  0  0
M  CHG  1   3  -1
M  END
>  <CHROM.1>
-69.54949028,66.79240102,171.68274587,67.09684939,-30.32772836,167.73969471
-56.57731022,27.34001040,37.82942394,20.10722085,-1.98450809,-1.34033050
2.15841105

>  <Name>
ligand

>  <RI>
0

>  <Rbt.Current_Directory>
/home/itssahil/PROJECTS/Mol_Feturizer/New_Systems/rnas/3F2Q

>  <Rbt.Executable>
rbdock ($Id: //depot/dev/client3/rdock/2013.1/src/exe/rbdock.cxx#4 $)

>  <Rbt.Library>
libRbt.so (2013.1, Build901 2013/11/27)

>  <Rbt.Parameter_File>
/export/apps/rDock/src/rDock_2013.1_src/data/scripts/dock_solv.prm

>  <Rbt.Receptor>
prm/pocket_docking_2.prm

>  <SCORE>
-34.1609

>  <SCORE.INTER>
-31.3962

>  <SCORE.INTER.CONST>
1

>  <SCORE.INTER.POLAR>
0

>  <SCORE.INTER.ROT>
7

>  <SCORE.INTER.SOLV>
18.8618

>  <SCORE.INTER.VDW>
-35.4847

>  <SCORE.INTER.norm>
-1.01278

>  <SCORE.INTRA>
-2.76466

>  <SCORE.INTRA.DIHEDRAL>
-4.76126

>  <SCORE.INTRA.DIHEDRAL.0>
10.0718

>  <SCORE.INTRA.POLAR>
0

>  <SCORE.INTRA.POLAR.0>
0

>  <SCORE.INTRA.REPUL>
0

>  <SCORE.INTRA.REPUL.0>
0

>  <SCORE.INTRA.SOLV>
0.746127

>  <SCORE.INTRA.SOLV.lig_0>
-48.6963

>  <SCORE.INTRA.VDW>
-0.757092

>  <SCORE.INTRA.VDW.0>
-0.836976

>  <SCORE.INTRA.norm>
-0.0891825

>  <SCORE.RESTR>
0

>  <SCORE.RESTR.CAVITY>
0

>  <SCORE.RESTR.norm>
0

>  <SCORE.SYSTEM>
0

>  <SCORE.SYSTEM.CONST>
0

>  <SCORE.SYSTEM.DIHEDRAL>
0

>  <SCORE.SYSTEM.SOLV>
0

>  <SCORE.SYSTEM.norm>
0

>  <SCORE.heavy>
31

>  <SCORE.norm>
-1.10196

>  <RMSD>
1.312

$$$$
ligand
 OpenBabel11021811473D
libRbt.so/2013.1/901 2013/11/27
 31 33  0  0  0  0  0  0  0  0999 V2000
   25.9288   43.3413   16.5901 P   0  0  1  0  0  0  0  0  0  0  0  0
   25.4861   43.6053   15.1667 O   0  0  0  0  0  0  0  0  0  0  0  0
   27.2347   44.0568   16.8089 O   0  5  0  0  0  0  0  0  0  0  0  0
   24.9019   43.8609   17.5583 O   0  0  0  0  0  0  0  0  0  0  0  0
   26.8129   41.2703   17.8982 C   0  0  0  0  0  0  0  0  0  0  0  0
   26.0411   41.7625   16.8298 O   0  0  0  0  0  0  0  0  0  0  0  0
   26.6194   39.7645   18.0002 C   0  0  1  0  0  0  0  0  0  0  0  0
   26.8203   39.1964   16.7234 O   0  0  0  0  0  0  0  0  0  0  0  0
   27.6021   39.1703   19.0091 C   0  0  1  0  0  0  0  0  0  0  0  0
   27.5065   39.8687   20.2320 O   0  0  0  0  0  0  0  0  0  0  0  0
   27.4350   37.6588   19.2184 C   0  0  1  0  0  0  0  0  0  0  0  0
   27.3871   37.0037   17.9704 O   0  0  0  0  0  0  0  0  0  0  0  0
   28.5539   37.0579   20.0541 C   0  0  0  0  0  0  0  0  0  0  0  0
   28.5223   34.3165   19.3705 N   0  0  0  0  0  0  0  0  0  0  0  0
   28.5769   32.9850   19.0118 C   0  0  0  0  0  0  0  0  0  0  0  0
   28.9934   32.6605   17.8963 O   0  0  0  0  0  0  0  0  0  0  0  0
   28.1541   32.0205   19.9040 N   0  0  0  0  0  0  0  0  0  0  0  0
   27.6783   32.3822   21.1503 C   0  0  0  0  0  0  0  0  0  0  0  0
   27.6240   33.7118   21.5132 C   0  0  1  0  0  0  0  0  0  0  0  0
   27.3069   31.5324   21.9581 O   0  0  0  0  0  0  0  0  0  0  0  0
   27.0978   35.3833   23.1330 C   0  0  2  0  0  0  0  0  0  0  0  0
   27.1500   34.0546   22.7646 N   0  0  0  0  0  0  0  0  0  0  0  0
   26.6185   35.7316   24.3934 C   0  0  0  0  0  0  0  0  0  0  0  0
   26.5547   37.0690   24.7717 C   0  0  1  0  0  0  0  0  0  0  0  0
   26.0445   37.4269   26.1403 C   0  0  0  0  0  0  0  0  0  0  0  0
   26.9779   38.0616   23.8805 C   0  0  1  0  0  0  0  0  0  0  0  0
   26.9354   39.5118   24.2649 C   0  0  0  0  0  0  0  0  0  0  0  0
   27.4568   37.7094   22.6222 C   0  0  0  0  0  0  0  0  0  0  0  0
   27.5194   36.3719   22.2386 C   0  0  2  0  0  0  0  0  0  0  0  0
   28.0503   34.6872   20.6191 C   0  0  2  0  0  0  0  0  0  0  0  0
   27.9885   36.0199   20.9787 N   0  0  0  0  0  0  0  0  0  0  0  0
  1  2  1  6  0  0  0
  1  3  1  0  0  0  0
  1  4  2  0  0  0  0
  1  6  1  0  0  0  0
  5  6  1  0  0  0  0
  7  5  1  6  0  0  0
  7  8  1  0  0  0  0
  7  9  1  0  0  0  0
  9 10  1  1  0  0  0
  9 11  1  0  0  0  0
 11 12  1  6  0  0  0
 11 13  1  0  0  0  0
 13 31  1  0  0  0  0
 14 15  1  0  0  0  0
 15 16  2  0  0  0  0
 15 17  1  0  0  0  0
 17 18  1  0  0  0  0
 18 20  2  0  0  0  0
 19 18  1  1  0  0  0
 19 22  1  0  0  0  0
 19 30  1  0  0  0  0
 21 23  1  6  0  0  0
 21 29  1  0  0  0  0
 21 22  1  0  0  0  0
 23 24  1  0  0  0  0
 24 25  1  1  0  0  0
 24 26  1  0  0  0  0
 26 27  1  1  0  0  0
 26 28  1  0  0  0  0
 29 28  1  6  0  0  0
 29 31  1  0  0  0  0
 30 14  1  6  0  0  0
 30 31  1  0  0  0  0
M  CHG  1   3  -1
M  END
>  <CHROM.1>
173.37133858,160.21633280,50.25243943,52.34835274,49.19834321,141.14794837
-88.50899431,27.13693819,37.77964611,19.98622220,-2.20829816,-1.32281903
1.99940469

>  <Name>
ligand

>  <RI>
0

>  <Rbt.Current_Directory>
/home/itssahil/PROJECTS/Mol_Feturizer/New_Systems/rnas/3F2Q

>  <Rbt.Executable>
rbdock ($Id: //depot/dev/client3/rdock/2013.1/src/exe/rbdock.cxx#4 $)

>  <Rbt.Library>
libRbt.so (2013.1, Build901 2013/11/27)

>  <Rbt.Parameter_File>
/export/apps/rDock/src/rDock_2013.1_src/data/scripts/dock_solv.prm

>  <Rbt.Receptor>
prm/pocket_docking_2.prm

>  <SCORE>
-34.996

>  <SCORE.INTER>
-32.124

>  <SCORE.INTER.CONST>
1

>  <SCORE.INTER.POLAR>
0

>  <SCORE.INTER.ROT>
7

>  <SCORE.INTER.SOLV>
19.9472

>  <SCORE.INTER.VDW>
-36.3317

>  <SCORE.INTER.norm>
-1.03626

>  <SCORE.INTRA>
-2.8782

>  <SCORE.INTRA.DIHEDRAL>
-2.9398

>  <SCORE.INTRA.DIHEDRAL.0>
10.0718

>  <SCORE.INTRA.POLAR>
0

>  <SCORE.INTRA.POLAR.0>
0

>  <SCORE.INTRA.REPUL>
0

>  <SCORE.INTRA.REPUL.0>
0

>  <SCORE.INTRA.SOLV>
-0.690453

>  <SCORE.INTRA.SOLV.lig_0>
-48.6963

>  <SCORE.INTRA.VDW>
-1.06308

>  <SCORE.INTRA.VDW.0>
-0.836976

>  <SCORE.INTRA.norm>
-0.0928452

>  <SCORE.RESTR>
0.00617291

>  <SCORE.RESTR.CAVITY>
0.00617291

>  <SCORE.RESTR.norm>
0.000199126

>  <SCORE.SYSTEM>
0

>  <SCORE.SYSTEM.CONST>
0

>  <SCORE.SYSTEM.DIHEDRAL>
0

>  <SCORE.SYSTEM.SOLV>
0

>  <SCORE.SYSTEM.norm>
0

>  <SCORE.heavy>
31

>  <SCORE.norm>
-1.1289

>  <RMSD>
1.315

$$$$
ligand
 OpenBabel11021811473D
libRbt.so/2013.1/901 2013/11/27
 31 33  0  0  0  0  0  0  0  0999 V2000
   26.3895   42.4888   16.8085 P   0  0  1  0  0  0  0  0  0  0  0  0
   25.3180   41.5572   17.3334 O   0  0  0  0  0  0  0  0  0  0  0  0
   26.3093   42.4864   15.3056 O   0  5  0  0  0  0  0  0  0  0  0  0
   26.1620   43.8839   17.3223 O   0  0  0  0  0  0  0  0  0  0  0  0
   28.3496   40.7797   16.9445 C   0  0  0  0  0  0  0  0  0  0  0  0
   27.8195   42.0175   17.3521 O   0  0  0  0  0  0  0  0  0  0  0  0
   27.5547   39.6582   17.5971 C   0  0  1  0  0  0  0  0  0  0  0  0
   28.0347   38.4229   17.1104 O   0  0  0  0  0  0  0  0  0  0  0  0
   27.6952   39.7234   19.1178 C   0  0  1  0  0  0  0  0  0  0  0  0
   27.0192   40.8614   19.6081 O   0  0  0  0  0  0  0  0  0  0  0  0
   27.2308   38.4490   19.8367 C   0  0  1  0  0  0  0  0  0  0  0  0
   26.2731   37.7760   19.0502 O   0  0  0  0  0  0  0  0  0  0  0  0
   28.3788   37.5008   20.1440 C   0  0  0  0  0  0  0  0  0  0  0  0
   28.3972   34.7716   19.4129 N   0  0  0  0  0  0  0  0  0  0  0  0
   28.4742   33.4489   19.0268 C   0  0  0  0  0  0  0  0  0  0  0  0
   28.8310   33.1574   17.8819 O   0  0  0  0  0  0  0  0  0  0  0  0
   28.1405   32.4557   19.9254 N   0  0  0  0  0  0  0  0  0  0  0  0
   27.7315   32.7801   21.2052 C   0  0  0  0  0  0  0  0  0  0  0  0
   27.6551   34.1008   21.5954 C   0  0  1  0  0  0  0  0  0  0  0  0
   27.4401   31.9048   22.0185 O   0  0  0  0  0  0  0  0  0  0  0  0
   27.1749   35.7263   23.2753 C   0  0  2  0  0  0  0  0  0  0  0  0
   27.2488   34.4064   22.8798 N   0  0  0  0  0  0  0  0  0  0  0  0
   26.7636   36.0369   24.5692 C   0  0  0  0  0  0  0  0  0  0  0  0
   26.6785   37.3649   24.9754 C   0  0  1  0  0  0  0  0  0  0  0  0
   26.2429   37.6823   26.3794 C   0  0  0  0  0  0  0  0  0  0  0  0
   27.0116   38.3861   24.0784 C   0  0  1  0  0  0  0  0  0  0  0  0
   26.9443   39.8275   24.4914 C   0  0  0  0  0  0  0  0  0  0  0  0
   27.4227   38.0715   22.7865 C   0  0  0  0  0  0  0  0  0  0  0  0
   27.5064   36.7434   22.3751 C   0  0  2  0  0  0  0  0  0  0  0  0
   27.9918   35.1051   20.6949 C   0  0  2  0  0  0  0  0  0  0  0  0
   27.9076   36.4287   21.0823 N   0  0  0  0  0  0  0  0  0  0  0  0
  1  2  1  1  0  0  0
  1  3  1  0  0  0  0
  1  4  2  0  0  0  0
  1  6  1  0  0  0  0
  5  6  1  0  0  0  0
  7  5  1  6  0  0  0
  7  8  1  0  0  0  0
  7  9  1  0  0  0  0
  9 10  1  1  0  0  0
  9 11  1  0  0  0  0
 11 12  1  6  0  0  0
 11 13  1  0  0  0  0
 13 31  1  0  0  0  0
 14 15  1  0  0  0  0
 15 16  2  0  0  0  0
 15 17  1  0  0  0  0
 17 18  1  0  0  0  0
 18 20  2  0  0  0  0
 19 18  1  1  0  0  0
 19 22  1  0  0  0  0
 19 30  1  0  0  0  0
 21 23  1  6  0  0  0
 21 29  1  0  0  0  0
 21 22  1  0  0  0  0
 23 24  1  0  0  0  0
 24 25  1  1  0  0  0
 24 26  1  0  0  0  0
 26 27  1  1  0  0  0
 26 28  1  0  0  0  0
 29 28  1  6  0  0  0
 29 31  1  0  0  0  0
 30 14  1  6  0  0  0
 30 31  1  0  0  0  0
M  CHG  1   3  -1
M  END
>  <CHROM.1>
-71.00702773,65.43186652,176.01621565,69.33784180,-25.82058320,168.42792679
-65.01909864,27.29989469,37.87145202,20.10720889,1.97539520,1.33944875,-1.00208757

>  <Name>
ligand

>  <RI>
0

>  <Rbt.Current_Directory>
/home/itssahil/PROJECTS/Mol_Feturizer/New_Systems/rnas/3F2Q

>  <Rbt.Executable>
rbdock ($Id: //depot/dev/client3/rdock/2013.1/src/exe/rbdock.cxx#4 $)

>  <Rbt.Library>
libRbt.so (2013.1, Build901 2013/11/27)

>  <Rbt.Parameter_File>
/export/apps/rDock/src/rDock_2013.1_src/data/scripts/dock_solv.prm

>  <Rbt.Receptor>
prm/pocket_docking_2.prm

>  <SCORE>
-34.0201

>  <SCORE.INTER>
-31.3492

>  <SCORE.INTER.CONST>
1

>  <SCORE.INTER.POLAR>
0

>  <SCORE.INTER.ROT>
7

>  <SCORE.INTER.SOLV>
18.8087

>  <SCORE.INTER.VDW>
-35.4357

>  <SCORE.INTER.norm>
-1.01126

>  <SCORE.INTRA>
-2.67098

>  <SCORE.INTRA.DIHEDRAL>
-4.05895

>  <SCORE.INTRA.DIHEDRAL.0>
10.0718

>  <SCORE.INTRA.POLAR>
0

>  <SCORE.INTRA.POLAR.0>
0

>  <SCORE.INTRA.REPUL>
0

>  <SCORE.INTRA.REPUL.0>
0

>  <SCORE.INTRA.SOLV>
0.828557

>  <SCORE.INTRA.SOLV.lig_0>
-48.6963

>  <SCORE.INTRA.VDW>
-1.05579

>  <SCORE.INTRA.VDW.0>
-0.836976

>  <SCORE.INTRA.norm>
-0.0861607

>  <SCORE.RESTR>
0

>  <SCORE.RESTR.CAVITY>
0

>  <SCORE.RESTR.norm>
0

>  <SCORE.SYSTEM>
0

>  <SCORE.SYSTEM.CONST>
0

>  <SCORE.SYSTEM.DIHEDRAL>
0

>  <SCORE.SYSTEM.SOLV>
0

>  <SCORE.SYSTEM.norm>
0

>  <SCORE.heavy>
31

>  <SCORE.norm>
-1.09742

>  <RMSD>
1.317

$$$$
ligand
 OpenBabel11021811473D
libRbt.so/2013.1/901 2013/11/27
 31 33  0  0  0  0  0  0  0  0999 V2000
   26.7605   42.7538   16.8700 P   0  0  1  0  0  0  0  0  0  0  0  0
   27.8291   43.8215   16.7713 O   0  0  0  0  0  0  0  0  0  0  0  0
   26.0203   42.9580   18.1644 O   0  5  0  0  0  0  0  0  0  0  0  0
   25.8012   42.8710   15.7177 O   0  0  0  0  0  0  0  0  0  0  0  0
   26.7389   40.1724   17.2133 C   0  0  0  0  0  0  0  0  0  0  0  0
   27.4400   41.3079   16.7677 O   0  0  0  0  0  0  0  0  0  0  0  0
   26.6816   40.1873   18.7338 C   0  0  1  0  0  0  0  0  0  0  0  0
   25.4248   39.6905   19.1426 O   0  0  0  0  0  0  0  0  0  0  0  0
   27.8078   39.3331   19.3157 C   0  0  1  0  0  0  0  0  0  0  0  0
   28.1707   39.8287   20.5866 O   0  0  0  0  0  0  0  0  0  0  0  0
   27.4789   37.8350   19.3772 C   0  0  1  0  0  0  0  0  0  0  0  0
   27.1787   37.3559   18.0852 O   0  0  0  0  0  0  0  0  0  0  0  0
   28.6148   37.0114   19.9627 C   0  0  0  0  0  0  0  0  0  0  0  0
   28.5349   34.2618   19.3169 N   0  0  0  0  0  0  0  0  0  0  0  0
   28.5654   32.9252   18.9749 C   0  0  0  0  0  0  0  0  0  0  0  0
   28.9523   32.5809   17.8546 O   0  0  0  0  0  0  0  0  0  0  0  0
   28.1517   31.9777   19.8893 N   0  0  0  0  0  0  0  0  0  0  0  0
   27.7089   32.3615   21.1412 C   0  0  0  0  0  0  0  0  0  0  0  0
   27.6788   33.6964   21.4873 C   0  0  1  0  0  0  0  0  0  0  0  0
   27.3461   31.5271   21.9686 O   0  0  0  0  0  0  0  0  0  0  0  0
   27.2099   35.3954   23.0961 C   0  0  2  0  0  0  0  0  0  0  0  0
   27.2378   34.0614   22.7445 N   0  0  0  0  0  0  0  0  0  0  0  0
   26.7637   35.7661   24.3623 C   0  0  0  0  0  0  0  0  0  0  0  0
   26.7246   37.1090   24.7240 C   0  0  1  0  0  0  0  0  0  0  0  0
   26.2502   37.4911   26.0989 C   0  0  0  0  0  0  0  0  0  0  0  0
   27.1390   38.0846   23.8101 C   0  0  1  0  0  0  0  0  0  0  0  0
   27.1227   39.5401   24.1758 C   0  0  0  0  0  0  0  0  0  0  0  0
   27.5848   37.7100   22.5460 C   0  0  0  0  0  0  0  0  0  0  0  0
   27.6227   36.3669   22.1792 C   0  0  2  0  0  0  0  0  0  0  0  0
   28.0962   34.6547   20.5708 C   0  0  2  0  0  0  0  0  0  0  0  0
   28.0585   35.9926   20.9137 N   0  0  0  0  0  0  0  0  0  0  0  0
  1  2  1  6  0  0  0
  1  3  1  0  0  0  0
  1  4  2  0  0  0  0
  1  6  1  0  0  0  0
  5  6  1  0  0  0  0
  7  5  1  6  0  0  0
  7  8  1  0  0  0  0
  7  9  1  0  0  0  0
  9 10  1  1  0  0  0
  9 11  1  0  0  0  0
 11 12  1  6  0  0  0
 11 13  1  0  0  0  0
 13 31  1  0  0  0  0
 14 15  1  0  0  0  0
 15 16  2  0  0  0  0
 15 17  1  0  0  0  0
 17 18  1  0  0  0  0
 18 20  2  0  0  0  0
 19 18  1  1  0  0  0
 19 22  1  0  0  0  0
 19 30  1  0  0  0  0
 21 23  1  6  0  0  0
 21 29  1  0  0  0  0
 21 22  1  0  0  0  0
 23 24  1  0  0  0  0
 24 25  1  1  0  0  0
 24 26  1  0  0  0  0
 26 27  1  1  0  0  0
 26 28  1  0  0  0  0
 29 28  1  6  0  0  0
 29 31  1  0  0  0  0
 30 14  1  6  0  0  0
 30 31  1  0  0  0  0
M  CHG  1   3  -1
M  END
>  <CHROM.1>
-72.14208714,161.53995904,142.95714594,151.57099235,58.25223394,137.24363597
-75.67352480,27.33534945,37.66684877,20.13481182,-2.06310534,-1.36347313
2.15962222

>  <Name>
ligand

>  <RI>
0

>  <Rbt.Current_Directory>
/home/itssahil/PROJECTS/Mol_Feturizer/New_Systems/rnas/3F2Q

>  <Rbt.Executable>
rbdock ($Id: //depot/dev/client3/rdock/2013.1/src/exe/rbdock.cxx#4 $)

>  <Rbt.Library>
libRbt.so (2013.1, Build901 2013/11/27)

>  <Rbt.Parameter_File>
/export/apps/rDock/src/rDock_2013.1_src/data/scripts/dock_solv.prm

>  <Rbt.Receptor>
prm/blind_docking_100.prm

>  <SCORE>
-32.0829

>  <SCORE.INTER>
-32.7641

>  <SCORE.INTER.CONST>
1

>  <SCORE.INTER.POLAR>
0

>  <SCORE.INTER.ROT>
7

>  <SCORE.INTER.SOLV>
17.9238

>  <SCORE.INTER.VDW>
-36.084

>  <SCORE.INTER.norm>
-1.0569

>  <SCORE.INTRA>
0.681144

>  <SCORE.INTRA.DIHEDRAL>
2.88796

>  <SCORE.INTRA.DIHEDRAL.0>
10.0718

>  <SCORE.INTRA.POLAR>
0

>  <SCORE.INTRA.POLAR.0>
0

>  <SCORE.INTRA.REPUL>
0

>  <SCORE.INTRA.REPUL.0>
0

>  <SCORE.INTRA.SOLV>
1.62353

>  <SCORE.INTRA.SOLV.lig_0>
-48.6963

>  <SCORE.INTRA.VDW>
-1.5746

>  <SCORE.INTRA.VDW.0>
-0.836976

>  <SCORE.INTRA.norm>
0.0219724

>  <SCORE.RESTR>
0

>  <SCORE.RESTR.CAVITY>
0

>  <SCORE.RESTR.norm>
0

>  <SCORE.SYSTEM>
0

>  <SCORE.SYSTEM.CONST>
0

>  <SCORE.SYSTEM.DIHEDRAL>
0

>  <SCORE.SYSTEM.SOLV>
0

>  <SCORE.SYSTEM.norm>
0

>  <SCORE.heavy>
31

>  <SCORE.norm>
-1.03493

>  <RMSD>
1.318

$$$$
ligand
 OpenBabel11021811473D
libRbt.so/2013.1/901 2013/11/27
 31 33  0  0  0  0  0  0  0  0999 V2000
   26.1960   42.8814   16.5645 P   0  0  1  0  0  0  0  0  0  0  0  0
   27.1759   43.6640   17.4123 O   0  0  0  0  0  0  0  0  0  0  0  0
   24.8207   43.4406   16.8114 O   0  5  0  0  0  0  0  0  0  0  0  0
   26.5421   43.0216   15.1077 O   0  0  0  0  0  0  0  0  0  0  0  0
   27.5616   40.6942   16.9288 C   0  0  0  0  0  0  0  0  0  0  0  0
   26.3041   41.3251   16.9234 O   0  0  0  0  0  0  0  0  0  0  0  0
   27.3868   39.2384   17.3356 C   0  0  1  0  0  0  0  0  0  0  0  0
   28.6089   38.5624   17.1286 O   0  0  0  0  0  0  0  0  0  0  0  0
   26.9668   39.1441   18.8024 C   0  0  1  0  0  0  0  0  0  0  0  0
   25.8286   39.9494   19.0224 O   0  0  0  0  0  0  0  0  0  0  0  0
   26.7319   37.7066   19.2870 C   0  0  1  0  0  0  0  0  0  0  0  0
   26.0243   36.9794   18.3075 O   0  0  0  0  0  0  0  0  0  0  0  0
   28.0281   36.9796   19.6079 C   0  0  0  0  0  0  0  0  0  0  0  0
   28.1825   34.2235   19.0049 N   0  0  0  0  0  0  0  0  0  0  0  0
   28.3207   32.8913   18.6723 C   0  0  0  0  0  0  0  0  0  0  0  0
   28.5534   32.5651   17.5050 O   0  0  0  0  0  0  0  0  0  0  0  0
   28.1875   31.9268   19.6507 N   0  0  0  0  0  0  0  0  0  0  0  0
   27.9174   32.2893   20.9569 C   0  0  0  0  0  0  0  0  0  0  0  0
   27.7805   33.6199   21.2935 C   0  0  1  0  0  0  0  0  0  0  0  0
   27.8052   31.4407   21.8399 O   0  0  0  0  0  0  0  0  0  0  0  0
   27.3816   35.2943   22.9464 C   0  0  2  0  0  0  0  0  0  0  0  0
   27.5153   33.9641   22.6048 N   0  0  0  0  0  0  0  0  0  0  0  0
   27.1122   35.6437   24.2674 C   0  0  0  0  0  0  0  0  0  0  0  0
   26.9681   36.9817   24.6208 C   0  0  1  0  0  0  0  0  0  0  0  0
   26.6880   37.3421   26.0537 C   0  0  0  0  0  0  0  0  0  0  0  0
   27.0986   37.9741   23.6427 C   0  0  1  0  0  0  0  0  0  0  0  0
   26.9635   39.4267   23.9954 C   0  0  0  0  0  0  0  0  0  0  0  0
   27.3685   37.6209   22.3239 C   0  0  0  0  0  0  0  0  0  0  0  0
   27.5105   36.2824   21.9656 C   0  0  2  0  0  0  0  0  0  0  0  0
   27.9156   34.5955   20.3124 C   0  0  2  0  0  0  0  0  0  0  0  0
   27.7704   35.9282   20.6471 N   0  0  0  0  0  0  0  0  0  0  0  0
  1  2  1  1  0  0  0
  1  3  1  0  0  0  0
  1  4  2  0  0  0  0
  1  6  1  0  0  0  0
  5  6  1  0  0  0  0
  7  5  1  1  0  0  0
  7  8  1  0  0  0  0
  7  9  1  0  0  0  0
  9 10  1  6  0  0  0
  9 11  1  0  0  0  0
 11 12  1  6  0  0  0
 11 13  1  0  0  0  0
 13 31  1  0  0  0  0
 14 15  1  0  0  0  0
 15 16  2  0  0  0  0
 15 17  1  0  0  0  0
 17 18  1  0  0  0  0
 18 20  2  0  0  0  0
 19 18  1  1  0  0  0
 19 22  1  0  0  0  0
 19 30  1  0  0  0  0
 21 23  1  6  0  0  0
 21 29  1  0  0  0  0
 21 22  1  0  0  0  0
 23 24  1  0  0  0  0
 24 25  1  1  0  0  0
 24 26  1  0  0  0  0
 26 27  1  1  0  0  0
 26 28  1  0  0  0  0
 29 28  1  6  0  0  0
 29 31  1  0  0  0  0
 30 14  1  6  0  0  0
 30 31  1  0  0  0  0
M  CHG  1   3  -1
M  END
>  <CHROM.1>
178.48588635,-51.01550699,170.55562417,53.27773908,-42.57368187,152.60288466
-71.88395917,27.19546821,37.57866246,19.76899430,-2.25398664,-1.35499536
1.93736708

>  <Name>
ligand

>  <RI>
0

>  <Rbt.Current_Directory>
/home/itssahil/PROJECTS/Mol_Feturizer/New_Systems/rnas/3F2Q

>  <Rbt.Executable>
rbdock ($Id: //depot/dev/client3/rdock/2013.1/src/exe/rbdock.cxx#4 $)

>  <Rbt.Library>
libRbt.so (2013.1, Build901 2013/11/27)

>  <Rbt.Parameter_File>
/export/apps/rDock/src/rDock_2013.1_src/data/scripts/dock_solv.prm

>  <Rbt.Receptor>
prm/pocket_docking_3.prm

>  <SCORE>
-35.0768

>  <SCORE.INTER>
-31.5675

>  <SCORE.INTER.CONST>
1

>  <SCORE.INTER.POLAR>
0

>  <SCORE.INTER.ROT>
7

>  <SCORE.INTER.SOLV>
19.775

>  <SCORE.INTER.VDW>
-35.9033

>  <SCORE.INTER.norm>
-1.01831

>  <SCORE.INTRA>
-3.5093

>  <SCORE.INTRA.DIHEDRAL>
-4.7626

>  <SCORE.INTRA.DIHEDRAL.0>
10.0718

>  <SCORE.INTRA.POLAR>
0

>  <SCORE.INTRA.POLAR.0>
0

>  <SCORE.INTRA.REPUL>
0

>  <SCORE.INTRA.REPUL.0>
0

>  <SCORE.INTRA.SOLV>
-0.767832

>  <SCORE.INTRA.SOLV.lig_0>
-48.6963

>  <SCORE.INTRA.VDW>
-0.744087

>  <SCORE.INTRA.VDW.0>
-0.836976

>  <SCORE.INTRA.norm>
-0.113203

>  <SCORE.RESTR>
0

>  <SCORE.RESTR.CAVITY>
0

>  <SCORE.RESTR.norm>
0

>  <SCORE.SYSTEM>
0

>  <SCORE.SYSTEM.CONST>
0

>  <SCORE.SYSTEM.DIHEDRAL>
0

>  <SCORE.SYSTEM.SOLV>
0

>  <SCORE.SYSTEM.norm>
0

>  <SCORE.heavy>
31

>  <SCORE.norm>
-1.13151

>  <RMSD>
1.321

$$$$
ligand
 OpenBabel11021811473D
libRbt.so/2013.1/901 2013/11/27
 31 33  0  0  0  0  0  0  0  0999 V2000
   26.1394   43.1096   17.1422 P   0  0  1  0  0  0  0  0  0  0  0  0
   27.2930   44.0564   16.8888 O   0  0  0  0  0  0  0  0  0  0  0  0
   24.9390   43.9339   17.5226 O   0  5  0  0  0  0  0  0  0  0  0  0
   25.8337   42.3189   15.8999 O   0  0  0  0  0  0  0  0  0  0  0  0
   25.9352   40.7938   18.3158 C   0  0  0  0  0  0  0  0  0  0  0  0
   26.5517   42.0578   18.2765 O   0  0  0  0  0  0  0  0  0  0  0  0
   26.8108   39.7895   17.5808 C   0  0  1  0  0  0  0  0  0  0  0  0
   27.3776   40.4247   16.4544 O   0  0  0  0  0  0  0  0  0  0  0  0
   27.9086   39.2652   18.5062 C   0  0  1  0  0  0  0  0  0  0  0  0
   28.5278   40.3474   19.1681 O   0  0  0  0  0  0  0  0  0  0  0  0
   27.4211   38.2080   19.5068 C   0  0  1  0  0  0  0  0  0  0  0  0
   26.6066   37.2635   18.8484 O   0  0  0  0  0  0  0  0  0  0  0  0
   28.5668   37.4840   20.1957 C   0  0  0  0  0  0  0  0  0  0  0  0
   28.5458   34.7663   19.4229 N   0  0  0  0  0  0  0  0  0  0  0  0
   28.6053   33.4477   19.0201 C   0  0  0  0  0  0  0  0  0  0  0  0
   29.0122   33.1627   17.8904 O   0  0  0  0  0  0  0  0  0  0  0  0
   28.1979   32.4516   19.8844 N   0  0  0  0  0  0  0  0  0  0  0  0
   27.7327   32.7691   21.1467 C   0  0  0  0  0  0  0  0  0  0  0  0
   27.6736   34.0857   21.5536 C   0  0  1  0  0  0  0  0  0  0  0  0
   27.3752   31.8908   21.9299 O   0  0  0  0  0  0  0  0  0  0  0  0
   27.1535   35.6997   23.2326 C   0  0  2  0  0  0  0  0  0  0  0  0
   27.2105   34.3841   22.8203 N   0  0  0  0  0  0  0  0  0  0  0  0
   26.6850   36.0033   24.5086 C   0  0  0  0  0  0  0  0  0  0  0  0
   26.6165   37.3271   24.9312 C   0  0  1  0  0  0  0  0  0  0  0  0
   26.1183   37.6365   26.3159 C   0  0  0  0  0  0  0  0  0  0  0  0
   27.0241   38.3512   24.0688 C   0  0  1  0  0  0  0  0  0  0  0  0
   26.9763   39.7877   24.5010 C   0  0  0  0  0  0  0  0  0  0  0  0
   27.4922   38.0437   22.7948 C   0  0  0  0  0  0  0  0  0  0  0  0
   27.5595   36.7198   22.3669 C   0  0  2  0  0  0  0  0  0  0  0  0
   28.0844   35.0927   20.6877 C   0  0  2  0  0  0  0  0  0  0  0  0
   28.0178   36.4125   21.0914 N   0  0  0  0  0  0  0  0  0  0  0  0
  1  2  1  6  0  0  0
  1  3  1  0  0  0  0
  1  4  2  0  0  0  0
  1  6  1  0  0  0  0
  5  6  1  0  0  0  0
  7  5  1  1  0  0  0
  7  8  1  0  0  0  0
  7  9  1  0  0  0  0
  9 10  1  1  0  0  0
  9 11  1  0  0  0  0
 11 12  1  6  0  0  0
 11 13  1  0  0  0  0
 13 31  1  0  0  0  0
 14 15  1  0  0  0  0
 15 16  2  0  0  0  0
 15 17  1  0  0  0  0
 17 18  1  0  0  0  0
 18 20  2  0  0  0  0
 19 18  1  1  0  0  0
 19 22  1  0  0  0  0
 19 30  1  0  0  0  0
 21 23  1  6  0  0  0
 21 29  1  0  0  0  0
 21 22  1  0  0  0  0
 23 24  1  0  0  0  0
 24 25  1  1  0  0  0
 24 26  1  0  0  0  0
 26 27  1  1  0  0  0
 26 28  1  0  0  0  0
 29 28  1  6  0  0  0
 29 31  1  0  0  0  0
 30 14  1  6  0  0  0
 30 31  1  0  0  0  0
M  CHG  1   3  -1
M  END
>  <CHROM.1>
95.37450489,-153.93634603,-37.85384679,-47.50351534,45.35587883,-176.51873823
-82.28163918,27.22551383,38.00833773,20.13166228,2.12418905,1.32119165,-1.06977706

>  <Name>
ligand

>  <RI>
0

>  <Rbt.Current_Directory>
/home/itssahil/PROJECTS/Mol_Feturizer/New_Systems/rnas/3F2Q

>  <Rbt.Executable>
rbdock ($Id: //depot/dev/client3/rdock/2013.1/src/exe/rbdock.cxx#4 $)

>  <Rbt.Library>
libRbt.so (2013.1, Build901 2013/11/27)

>  <Rbt.Parameter_File>
/export/apps/rDock/src/rDock_2013.1_src/data/scripts/dock_solv.prm

>  <Rbt.Receptor>
prm/pocket_docking_2.prm

>  <SCORE>
-30.422

>  <SCORE.INTER>
-31.111

>  <SCORE.INTER.CONST>
1

>  <SCORE.INTER.POLAR>
0

>  <SCORE.INTER.ROT>
7

>  <SCORE.INTER.SOLV>
17.7723

>  <SCORE.INTER.VDW>
-34.9315

>  <SCORE.INTER.norm>
-1.00358

>  <SCORE.INTRA>
0.663213

>  <SCORE.INTRA.DIHEDRAL>
-0.0899639

>  <SCORE.INTRA.DIHEDRAL.0>
10.0718

>  <SCORE.INTRA.POLAR>
0

>  <SCORE.INTRA.POLAR.0>
0

>  <SCORE.INTRA.REPUL>
0

>  <SCORE.INTRA.REPUL.0>
0

>  <SCORE.INTRA.SOLV>
1.96604

>  <SCORE.INTRA.SOLV.lig_0>
-48.6963

>  <SCORE.INTRA.VDW>
-0.274823

>  <SCORE.INTRA.VDW.0>
-0.836976

>  <SCORE.INTRA.norm>
0.021394

>  <SCORE.RESTR>
0.0257949

>  <SCORE.RESTR.CAVITY>
0.0257949

>  <SCORE.RESTR.norm>
0.000832094

>  <SCORE.SYSTEM>
0

>  <SCORE.SYSTEM.CONST>
0

>  <SCORE.SYSTEM.DIHEDRAL>
0

>  <SCORE.SYSTEM.SOLV>
0

>  <SCORE.SYSTEM.norm>
0

>  <SCORE.heavy>
31

>  <SCORE.norm>
-0.981356

>  <RMSD>
1.328

$$$$
ligand
 OpenBabel11021811473D
libRbt.so/2013.1/901 2013/11/27
 31 33  0  0  0  0  0  0  0  0999 V2000
   26.3426   42.5838   16.8410 P   0  0  1  0  0  0  0  0  0  0  0  0
   27.0609   42.7333   15.5169 O   0  0  0  0  0  0  0  0  0  0  0  0
   27.2637   43.0746   17.9253 O   0  5  0  0  0  0  0  0  0  0  0  0
   25.0814   43.4030   16.8431 O   0  0  0  0  0  0  0  0  0  0  0  0
   26.8450   40.1199   17.5179 C   0  0  0  0  0  0  0  0  0  0  0  0
   25.9086   41.0563   17.0430 O   0  0  0  0  0  0  0  0  0  0  0  0
   26.9578   40.2509   19.0297 C   0  0  1  0  0  0  0  0  0  0  0  0
   25.6878   40.0132   19.5989 O   0  0  0  0  0  0  0  0  0  0  0  0
   27.9812   39.2543   19.5739 C   0  0  1  0  0  0  0  0  0  0  0  0
   28.3757   39.6415   20.8727 O   0  0  0  0  0  0  0  0  0  0  0  0
   27.4979   37.7975   19.5515 C   0  0  1  0  0  0  0  0  0  0  0  0
   27.0282   37.4673   18.2634 O   0  0  0  0  0  0  0  0  0  0  0  0
   28.5869   36.8150   19.9519 C   0  0  0  0  0  0  0  0  0  0  0  0
   28.5593   34.0634   19.3102 N   0  0  0  0  0  0  0  0  0  0  0  0
   28.6159   32.7267   18.9721 C   0  0  0  0  0  0  0  0  0  0  0  0
   29.0362   32.3854   17.8630 O   0  0  0  0  0  0  0  0  0  0  0  0
   28.1908   31.7756   19.8776 N   0  0  0  0  0  0  0  0  0  0  0  0
   27.7107   32.1560   21.1166 C   0  0  0  0  0  0  0  0  0  0  0  0
   27.6544   33.4909   21.4590 C   0  0  1  0  0  0  0  0  0  0  0  0
   27.3372   31.3184   21.9361 O   0  0  0  0  0  0  0  0  0  0  0  0
   27.1219   35.1867   23.0513 C   0  0  2  0  0  0  0  0  0  0  0  0
   27.1761   33.8525   22.7035 N   0  0  0  0  0  0  0  0  0  0  0  0
   26.6382   35.5539   24.3047 C   0  0  0  0  0  0  0  0  0  0  0  0
   26.5723   36.8969   24.6623 C   0  0  1  0  0  0  0  0  0  0  0  0
   26.0575   37.2754   26.0236 C   0  0  0  0  0  0  0  0  0  0  0  0
   26.9978   37.8761   23.7574 C   0  0  1  0  0  0  0  0  0  0  0  0
   26.9532   39.3319   24.1194 C   0  0  0  0  0  0  0  0  0  0  0  0
   27.4810   37.5050   22.5061 C   0  0  0  0  0  0  0  0  0  0  0  0
   27.5458   36.1618   22.1433 C   0  0  2  0  0  0  0  0  0  0  0  0
   28.0830   34.4529   20.5515 C   0  0  2  0  0  0  0  0  0  0  0  0
   28.0192   35.7908   20.8904 N   0  0  0  0  0  0  0  0  0  0  0  0
  1  2  1  6  0  0  0
  1  3  1  0  0  0  0
  1  4  2  0  0  0  0
  1  6  1  0  0  0  0
  5  6  1  0  0  0  0
  7  5  1  6  0  0  0
  7  8  1  0  0  0  0
  7  9  1  0  0  0  0
  9 10  1  1  0  0  0
  9 11  1  0  0  0  0
 11 12  1  6  0  0  0
 11 13  1  0  0  0  0
 13 31  1  0  0  0  0
 14 15  1  0  0  0  0
 15 16  2  0  0  0  0
 15 17  1  0  0  0  0
 17 18  1  0  0  0  0
 18 20  2  0  0  0  0
 19 18  1  1  0  0  0
 19 22  1  0  0  0  0
 19 30  1  0  0  0  0
 21 23  1  6  0  0  0
 21 29  1  0  0  0  0
 21 22  1  0  0  0  0
 23 24  1  0  0  0  0
 24 25  1  1  0  0  0
 24 26  1  0  0  0  0
 26 27  1  1  0  0  0
 26 28  1  0  0  0  0
 29 28  1  6  0  0  0
 29 31  1  0  0  0  0
 30 14  1  6  0  0  0
 30 31  1  0  0  0  0
M  CHG  1   3  -1
M  END
>  <CHROM.1>
80.19437354,81.52176126,59.44473599,162.38229731,51.76727402,136.30717927
-64.41246918,27.24179685,37.52067416,20.17498880,-2.14112443,-1.33324985
2.10622182

>  <Name>
ligand

>  <RI>
0

>  <Rbt.Current_Directory>
/home/itssahil/PROJECTS/Mol_Feturizer/New_Systems/rnas/3F2Q

>  <Rbt.Executable>
rbdock ($Id: //depot/dev/client3/rdock/2013.1/src/exe/rbdock.cxx#4 $)

>  <Rbt.Library>
libRbt.so (2013.1, Build901 2013/11/27)

>  <Rbt.Parameter_File>
/export/apps/rDock/src/rDock_2013.1_src/data/scripts/dock_solv.prm

>  <Rbt.Receptor>
prm/pocket_docking_2.prm

>  <SCORE>
-33.5469

>  <SCORE.INTER>
-33.093

>  <SCORE.INTER.CONST>
1

>  <SCORE.INTER.POLAR>
0

>  <SCORE.INTER.ROT>
7

>  <SCORE.INTER.SOLV>
16.7398

>  <SCORE.INTER.VDW>
-35.9086

>  <SCORE.INTER.norm>
-1.06752

>  <SCORE.INTRA>
-0.554937

>  <SCORE.INTRA.DIHEDRAL>
-0.558691

>  <SCORE.INTRA.DIHEDRAL.0>
10.0718

>  <SCORE.INTRA.POLAR>
0

>  <SCORE.INTRA.POLAR.0>
0

>  <SCORE.INTRA.REPUL>
0

>  <SCORE.INTRA.REPUL.0>
0

>  <SCORE.INTRA.SOLV>
1.07586

>  <SCORE.INTRA.SOLV.lig_0>
-48.6963

>  <SCORE.INTRA.VDW>
-0.813523

>  <SCORE.INTRA.VDW.0>
-0.836976

>  <SCORE.INTRA.norm>
-0.0179012

>  <SCORE.RESTR>
0.101095

>  <SCORE.RESTR.CAVITY>
0.101095

>  <SCORE.RESTR.norm>
0.00326114

>  <SCORE.SYSTEM>
0

>  <SCORE.SYSTEM.CONST>
0

>  <SCORE.SYSTEM.DIHEDRAL>
0

>  <SCORE.SYSTEM.SOLV>
0

>  <SCORE.SYSTEM.norm>
0

>  <SCORE.heavy>
31

>  <SCORE.norm>
-1.08216

>  <RMSD>
1.333

$$$$
ligand
 OpenBabel11021811473D
libRbt.so/2013.1/901 2013/11/27
 31 33  0  0  0  0  0  0  0  0999 V2000
   26.2065   42.8609   16.5971 P   0  0  1  0  0  0  0  0  0  0  0  0
   27.2325   43.6261   17.4054 O   0  0  0  0  0  0  0  0  0  0  0  0
   24.8486   43.4225   16.9223 O   0  5  0  0  0  0  0  0  0  0  0  0
   26.4786   43.0217   15.1268 O   0  0  0  0  0  0  0  0  0  0  0  0
   27.5905   40.6860   16.9662 C   0  0  0  0  0  0  0  0  0  0  0  0
   26.3247   41.2989   16.9267 O   0  0  0  0  0  0  0  0  0  0  0  0
   27.4255   39.2275   17.3672 C   0  0  1  0  0  0  0  0  0  0  0  0
   28.6628   38.5696   17.1948 O   0  0  0  0  0  0  0  0  0  0  0  0
   26.9653   39.1257   18.8214 C   0  0  1  0  0  0  0  0  0  0  0  0
   25.7908   39.8878   19.0014 O   0  0  0  0  0  0  0  0  0  0  0  0
   26.7713   37.6831   19.3089 C   0  0  1  0  0  0  0  0  0  0  0  0
   26.2374   36.8930   18.2699 O   0  0  0  0  0  0  0  0  0  0  0  0
   28.0655   37.0536   19.7992 C   0  0  0  0  0  0  0  0  0  0  0  0
   28.2130   34.2924   19.2182 N   0  0  0  0  0  0  0  0  0  0  0  0
   28.3493   32.9568   18.8988 C   0  0  0  0  0  0  0  0  0  0  0  0
   28.6229   32.6209   17.7432 O   0  0  0  0  0  0  0  0  0  0  0  0
   28.1683   31.9998   19.8769 N   0  0  0  0  0  0  0  0  0  0  0  0
   27.8524   32.3731   21.1696 C   0  0  0  0  0  0  0  0  0  0  0  0
   27.7172   33.7071   21.4932 C   0  0  1  0  0  0  0  0  0  0  0  0
   27.6973   31.5312   22.0526 O   0  0  0  0  0  0  0  0  0  0  0  0
   27.2736   35.3958   23.1200 C   0  0  2  0  0  0  0  0  0  0  0  0
   27.4058   34.0622   22.7914 N   0  0  0  0  0  0  0  0  0  0  0  0
   26.9577   35.7561   24.4277 C   0  0  0  0  0  0  0  0  0  0  0  0
   26.8147   37.0977   24.7677 C   0  0  1  0  0  0  0  0  0  0  0  0
   26.4840   37.4699   26.1867 C   0  0  0  0  0  0  0  0  0  0  0  0
   26.9934   38.0827   23.7897 C   0  0  1  0  0  0  0  0  0  0  0  0
   26.8607   39.5388   24.1286 C   0  0  0  0  0  0  0  0  0  0  0  0
   27.3096   37.7185   22.4842 C   0  0  0  0  0  0  0  0  0  0  0  0
   27.4506   36.3764   22.1392 C   0  0  2  0  0  0  0  0  0  0  0  0
   27.9003   34.6752   20.5124 C   0  0  2  0  0  0  0  0  0  0  0  0
   27.7569   36.0114   20.8337 N   0  0  0  0  0  0  0  0  0  0  0  0
  1  2  1  1  0  0  0
  1  3  1  0  0  0  0
  1  4  2  0  0  0  0
  1  6  1  0  0  0  0
  5  6  1  0  0  0  0
  7  5  1  1  0  0  0
  7  8  1  0  0  0  0
  7  9  1  0  0  0  0
  9 10  1  6  0  0  0
  9 11  1  0  0  0  0
 11 12  1  6  0  0  0
 11 13  1  0  0  0  0
 13 31  1  0  0  0  0
 14 15  1  0  0  0  0
 15 16  2  0  0  0  0
 15 17  1  0  0  0  0
 17 18  1  0  0  0  0
 18 20  2  0  0  0  0
 19 18  1  1  0  0  0
 19 22  1  0  0  0  0
 19 30  1  0  0  0  0
 21 23  1  6  0  0  0
 21 29  1  0  0  0  0
 21 22  1  0  0  0  0
 23 24  1  0  0  0  0
 24 25  1  1  0  0  0
 24 26  1  0  0  0  0
 26 27  1  1  0  0  0
 26 28  1  0  0  0  0
 29 28  1  6  0  0  0
 29 31  1  0  0  0  0
 30 14  1  6  0  0  0
 30 31  1  0  0  0  0
M  CHG  1   3  -1
M  END
>  <CHROM.1>
177.15957729,-45.79558318,170.61845423,54.71162825,-37.08032576,152.12536161
-78.29819560,27.17478600,37.61852051,19.88394160,2.15527931,1.34085639,-1.12965802

>  <Name>
ligand

>  <RI>
0

>  <Rbt.Current_Directory>
/home/itssahil/PROJECTS/Mol_Feturizer/New_Systems/rnas/3F2Q

>  <Rbt.Executable>
rbdock ($Id: //depot/dev/client3/rdock/2013.1/src/exe/rbdock.cxx#4 $)

>  <Rbt.Library>
libRbt.so (2013.1, Build901 2013/11/27)

>  <Rbt.Parameter_File>
/export/apps/rDock/src/rDock_2013.1_src/data/scripts/dock_solv.prm

>  <Rbt.Receptor>
prm/pocket_docking_4.prm

>  <SCORE>
-35.4478

>  <SCORE.INTER>
-32.2724

>  <SCORE.INTER.CONST>
1

>  <SCORE.INTER.POLAR>
0

>  <SCORE.INTER.ROT>
7

>  <SCORE.INTER.SOLV>
19.7127

>  <SCORE.INTER.VDW>
-36.3525

>  <SCORE.INTER.norm>
-1.04104

>  <SCORE.INTRA>
-3.17547

>  <SCORE.INTRA.DIHEDRAL>
-3.8448

>  <SCORE.INTRA.DIHEDRAL.0>
10.0718

>  <SCORE.INTRA.POLAR>
0

>  <SCORE.INTRA.POLAR.0>
0

>  <SCORE.INTRA.REPUL>
0

>  <SCORE.INTRA.REPUL.0>
0

>  <SCORE.INTRA.SOLV>
-0.745973

>  <SCORE.INTRA.SOLV.lig_0>
-48.6963

>  <SCORE.INTRA.VDW>
-0.880085

>  <SCORE.INTRA.VDW.0>
-0.836976

>  <SCORE.INTRA.norm>
-0.102435

>  <SCORE.RESTR>
0

>  <SCORE.RESTR.CAVITY>
0

>  <SCORE.RESTR.norm>
0

>  <SCORE.SYSTEM>
0

>  <SCORE.SYSTEM.CONST>
0

>  <SCORE.SYSTEM.DIHEDRAL>
0

>  <SCORE.SYSTEM.SOLV>
0

>  <SCORE.SYSTEM.norm>
0

>  <SCORE.heavy>
31

>  <SCORE.norm>
-1.14348

>  <RMSD>
1.338

$$$$
ligand
 OpenBabel11021811473D
libRbt.so/2013.1/901 2013/11/27
 31 33  0  0  0  0  0  0  0  0999 V2000
   27.1329   42.4954   17.4969 P   0  0  1  0  0  0  0  0  0  0  0  0
   27.5127   41.2540   16.7183 O   0  0  0  0  0  0  0  0  0  0  0  0
   27.7822   43.6775   16.8289 O   0  5  0  0  0  0  0  0  0  0  0  0
   25.6395   42.6736   17.4943 O   0  0  0  0  0  0  0  0  0  0  0  0
   27.1252   41.2216   19.7682 C   0  0  0  0  0  0  0  0  0  0  0  0
   27.5810   42.3252   19.0243 O   0  0  0  0  0  0  0  0  0  0  0  0
   27.7527   39.9521   19.2115 C   0  0  1  0  0  0  0  0  0  0  0  0
   29.0211   39.7775   19.8065 O   0  0  0  0  0  0  0  0  0  0  0  0
   26.8577   38.7470   19.5001 C   0  0  1  0  0  0  0  0  0  0  0  0
   25.5604   38.9890   18.9991 O   0  0  0  0  0  0  0  0  0  0  0  0
   27.4185   37.4196   18.9710 C   0  0  1  0  0  0  0  0  0  0  0  0
   27.8590   37.5806   17.6410 O   0  0  0  0  0  0  0  0  0  0  0  0
   28.5674   36.8930   19.8162 C   0  0  0  0  0  0  0  0  0  0  0  0
   28.5318   34.1273   19.2389 N   0  0  0  0  0  0  0  0  0  0  0  0
   28.5834   32.7835   18.9291 C   0  0  0  0  0  0  0  0  0  0  0  0
   28.9590   32.4193   17.8113 O   0  0  0  0  0  0  0  0  0  0  0  0
   28.2034   31.8509   19.8731 N   0  0  0  0  0  0  0  0  0  0  0  0
   27.7734   32.2568   21.1225 C   0  0  0  0  0  0  0  0  0  0  0  0
   27.7223   33.5989   21.4365 C   0  0  1  0  0  0  0  0  0  0  0  0
   27.4406   31.4361   21.9758 O   0  0  0  0  0  0  0  0  0  0  0  0
   27.2457   35.3277   23.0110 C   0  0  2  0  0  0  0  0  0  0  0  0
   27.2944   33.9862   22.6915 N   0  0  0  0  0  0  0  0  0  0  0  0
   26.8127   35.7207   24.2751 C   0  0  0  0  0  0  0  0  0  0  0  0
   26.7526   37.0711   24.6045 C   0  0  1  0  0  0  0  0  0  0  0  0
   26.2930   37.4777   25.9774 C   0  0  0  0  0  0  0  0  0  0  0  0
   27.1328   38.0317   23.6604 C   0  0  1  0  0  0  0  0  0  0  0  0
   27.0934   39.4953   23.9908 C   0  0  0  0  0  0  0  0  0  0  0  0
   27.5654   37.6349   22.3986 C   0  0  0  0  0  0  0  0  0  0  0  0
   27.6241   36.2841   22.0639 C   0  0  2  0  0  0  0  0  0  0  0  0
   28.1056   34.5423   20.4901 C   0  0  2  0  0  0  0  0  0  0  0  0
   28.0469   35.8873   20.8009 N   0  0  0  0  0  0  0  0  0  0  0  0
  1  2  1  6  0  0  0
  1  3  1  0  0  0  0
  1  4  2  0  0  0  0
  1  6  1  0  0  0  0
  5  6  1  0  0  0  0
  7  5  1  1  0  0  0
  7  8  1  0  0  0  0
  7  9  1  0  0  0  0
  9 10  1  6  0  0  0
  9 11  1  0  0  0  0
 11 12  1  6  0  0  0
 11 13  1  0  0  0  0
 13 31  1  0  0  0  0
 14 15  1  0  0  0  0
 15 16  2  0  0  0  0
 15 17  1  0  0  0  0
 17 18  1  0  0  0  0
 18 20  2  0  0  0  0
 19 18  1  1  0  0  0
 19 22  1  0  0  0  0
 19 30  1  0  0  0  0
 21 23  1  6  0  0  0
 21 29  1  0  0  0  0
 21 22  1  0  0  0  0
 23 24  1  0  0  0  0
 24 25  1  1  0  0  0
 24 26  1  0  0  0  0
 26 27  1  1  0  0  0
 26 28  1  0  0  0  0
 29 28  1  6  0  0  0
 29 31  1  0  0  0  0
 30 14  1  6  0  0  0
 30 31  1  0  0  0  0
M  CHG  1   3  -1
M  END
>  <CHROM.1>
67.95230610,-56.13748309,85.14521879,54.82544871,-46.90151263,96.47104064
-90.39352279,27.49675554,37.53998244,20.26267853,-1.88401861,-1.35552566
2.44002416

>  <Name>
ligand

>  <RI>
0

>  <Rbt.Current_Directory>
/home/itssahil/PROJECTS/Mol_Feturizer/New_Systems/rnas/3F2Q

>  <Rbt.Executable>
rbdock ($Id: //depot/dev/client3/rdock/2013.1/src/exe/rbdock.cxx#4 $)

>  <Rbt.Library>
libRbt.so (2013.1, Build901 2013/11/27)

>  <Rbt.Parameter_File>
/export/apps/rDock/src/rDock_2013.1_src/data/scripts/dock_solv.prm

>  <Rbt.Receptor>
prm/pocket_docking_4.prm

>  <SCORE>
-33.9578

>  <SCORE.INTER>
-31.2418

>  <SCORE.INTER.CONST>
1

>  <SCORE.INTER.POLAR>
0

>  <SCORE.INTER.ROT>
7

>  <SCORE.INTER.SOLV>
18.3789

>  <SCORE.INTER.VDW>
-35.2208

>  <SCORE.INTER.norm>
-1.0078

>  <SCORE.INTRA>
-2.71605

>  <SCORE.INTRA.DIHEDRAL>
-2.10356

>  <SCORE.INTRA.DIHEDRAL.0>
10.0718

>  <SCORE.INTRA.POLAR>
0

>  <SCORE.INTRA.POLAR.0>
0

>  <SCORE.INTRA.REPUL>
0

>  <SCORE.INTRA.REPUL.0>
0

>  <SCORE.INTRA.SOLV>
0.215615

>  <SCORE.INTRA.SOLV.lig_0>
-48.6963

>  <SCORE.INTRA.VDW>
-1.77208

>  <SCORE.INTRA.VDW.0>
-0.836976

>  <SCORE.INTRA.norm>
-0.0876145

>  <SCORE.RESTR>
0

>  <SCORE.RESTR.CAVITY>
0

>  <SCORE.RESTR.norm>
0

>  <SCORE.SYSTEM>
0

>  <SCORE.SYSTEM.CONST>
0

>  <SCORE.SYSTEM.DIHEDRAL>
0

>  <SCORE.SYSTEM.SOLV>
0

>  <SCORE.SYSTEM.norm>
0

>  <SCORE.heavy>
31

>  <SCORE.norm>
-1.09541

>  <RMSD>
1.341

$$$$
ligand
 OpenBabel11021811473D
libRbt.so/2013.1/901 2013/11/27
 31 33  0  0  0  0  0  0  0  0999 V2000
   25.4212   42.7498   16.6633 P   0  0  1  0  0  0  0  0  0  0  0  0
   24.1333   42.2811   17.3060 O   0  0  0  0  0  0  0  0  0  0  0  0
   25.0700   43.4413   15.3735 O   0  5  0  0  0  0  0  0  0  0  0  0
   26.1350   43.7123   17.5722 O   0  0  0  0  0  0  0  0  0  0  0  0
   26.5748   40.5645   17.4852 C   0  0  0  0  0  0  0  0  0  0  0  0
   26.3964   41.4986   16.4484 O   0  0  0  0  0  0  0  0  0  0  0  0
   27.6604   39.5766   17.0843 C   0  0  1  0  0  0  0  0  0  0  0  0
   28.8970   40.2568   17.0447 O   0  0  0  0  0  0  0  0  0  0  0  0
   27.7197   38.4196   18.0816 C   0  0  1  0  0  0  0  0  0  0  0  0
   28.6899   37.4831   17.6643 O   0  0  0  0  0  0  0  0  0  0  0  0
   27.9641   38.8642   19.5304 C   0  0  1  0  0  0  0  0  0  0  0  0
   26.7546   38.8263   20.2547 O   0  0  0  0  0  0  0  0  0  0  0  0
   28.9968   38.0024   20.2392 C   0  0  0  0  0  0  0  0  0  0  0  0
   28.8670   35.4190   19.1021 N   0  0  0  0  0  0  0  0  0  0  0  0
   28.8757   34.1641   18.5281 C   0  0  0  0  0  0  0  0  0  0  0  0
   29.3554   34.0009   17.4027 O   0  0  0  0  0  0  0  0  0  0  0  0
   28.3362   33.0959   19.2158 N   0  0  0  0  0  0  0  0  0  0  0  0
   27.7897   33.2781   20.4723 C   0  0  0  0  0  0  0  0  0  0  0  0
   27.7810   34.5305   21.0501 C   0  0  1  0  0  0  0  0  0  0  0  0
   27.3140   32.3333   21.0996 O   0  0  0  0  0  0  0  0  0  0  0  0
   27.2279   35.9437   22.8918 C   0  0  2  0  0  0  0  0  0  0  0  0
   27.2350   34.6931   22.3086 N   0  0  0  0  0  0  0  0  0  0  0  0
   26.6762   36.1106   24.1597 C   0  0  0  0  0  0  0  0  0  0  0  0
   26.6573   37.3687   24.7534 C   0  0  1  0  0  0  0  0  0  0  0  0
   26.0674   37.5294   26.1273 C   0  0  0  0  0  0  0  0  0  0  0  0
   27.1986   38.4644   24.0714 C   0  0  1  0  0  0  0  0  0  0  0  0
   27.2067   39.8312   24.6915 C   0  0  0  0  0  0  0  0  0  0  0  0
   27.7496   38.2933   22.8049 C   0  0  0  0  0  0  0  0  0  0  0  0
   27.7677   37.0359   22.2059 C   0  0  2  0  0  0  0  0  0  0  0  0
   28.3248   35.6095   20.3626 C   0  0  2  0  0  0  0  0  0  0  0  0
   28.3090   36.8659   20.9372 N   0  0  0  0  0  0  0  0  0  0  0  0
  1  2  1  1  0  0  0
  1  3  1  0  0  0  0
  1  4  2  0  0  0  0
  1  6  1  0  0  0  0
  5  6  1  0  0  0  0
  7  5  1  1  0  0  0
  7  8  1  0  0  0  0
  7  9  1  0  0  0  0
  9 10  1  6  0  0  0
  9 11  1  0  0  0  0
 11 12  1  1  0  0  0
 11 13  1  0  0  0  0
 13 31  1  0  0  0  0
 14 15  1  0  0  0  0
 15 16  2  0  0  0  0
 15 17  1  0  0  0  0
 17 18  1  0  0  0  0
 18 20  2  0  0  0  0
 19 18  1  1  0  0  0
 19 22  1  0  0  0  0
 19 30  1  0  0  0  0
 21 23  1  6  0  0  0
 21 29  1  0  0  0  0
 21 22  1  0  0  0  0
 23 24  1  0  0  0  0
 24 25  1  1  0  0  0
 24 26  1  0  0  0  0
 26 27  1  1  0  0  0
 26 28  1  0  0  0  0
 29 28  1  6  0  0  0
 29 31  1  0  0  0  0
 30 14  1  6  0  0  0
 30 31  1  0  0  0  0
M  CHG  1   3  -1
M  END
>  <CHROM.1>
-173.59017181,-45.20918872,68.09352369,177.43372904,102.41935006,-91.19448774
-84.38870062,27.28511974,38.07247301,19.81872820,2.16344703,1.21722278,-1.19336190

>  <Name>
ligand

>  <RI>
0

>  <Rbt.Current_Directory>
/home/itssahil/PROJECTS/Mol_Feturizer/New_Systems/rnas/3F2Q

>  <Rbt.Executable>
rbdock ($Id: //depot/dev/client3/rdock/2013.1/src/exe/rbdock.cxx#4 $)

>  <Rbt.Library>
libRbt.so (2013.1, Build901 2013/11/27)

>  <Rbt.Parameter_File>
/export/apps/rDock/src/rDock_2013.1_src/data/scripts/dock_solv.prm

>  <Rbt.Receptor>
prm/pocket_docking_8.prm

>  <SCORE>
-27.2855

>  <SCORE.INTER>
-26.7847

>  <SCORE.INTER.CONST>
1

>  <SCORE.INTER.POLAR>
0

>  <SCORE.INTER.ROT>
7

>  <SCORE.INTER.SOLV>
16.898

>  <SCORE.INTER.VDW>
-31.7558

>  <SCORE.INTER.norm>
-0.864021

>  <SCORE.INTRA>
-0.500871

>  <SCORE.INTRA.DIHEDRAL>
-0.75719

>  <SCORE.INTRA.DIHEDRAL.0>
10.0718

>  <SCORE.INTRA.POLAR>
0

>  <SCORE.INTRA.POLAR.0>
0

>  <SCORE.INTRA.REPUL>
0

>  <SCORE.INTRA.REPUL.0>
0

>  <SCORE.INTRA.SOLV>
-0.764908

>  <SCORE.INTRA.SOLV.lig_0>
-48.6963

>  <SCORE.INTRA.VDW>
0.260178

>  <SCORE.INTRA.VDW.0>
-0.836976

>  <SCORE.INTRA.norm>
-0.0161571

>  <SCORE.RESTR>
0

>  <SCORE.RESTR.CAVITY>
0

>  <SCORE.RESTR.norm>
0

>  <SCORE.SYSTEM>
0

>  <SCORE.SYSTEM.CONST>
0

>  <SCORE.SYSTEM.DIHEDRAL>
0

>  <SCORE.SYSTEM.SOLV>
0

>  <SCORE.SYSTEM.norm>
0

>  <SCORE.heavy>
31

>  <SCORE.norm>
-0.880179

>  <RMSD>
1.344

$$$$
ligand
 OpenBabel11021811473D
libRbt.so/2013.1/901 2013/11/27
 31 33  0  0  0  0  0  0  0  0999 V2000
   25.7095   42.5931   16.7558 P   0  0  1  0  0  0  0  0  0  0  0  0
   24.7513   43.0989   15.6986 O   0  0  0  0  0  0  0  0  0  0  0  0
   26.4591   43.7768   17.3055 O   0  5  0  0  0  0  0  0  0  0  0  0
   24.9502   41.9189   17.8652 O   0  0  0  0  0  0  0  0  0  0  0  0
   27.6664   40.8818   16.9091 C   0  0  0  0  0  0  0  0  0  0  0  0
   26.6780   41.4913   16.1149 O   0  0  0  0  0  0  0  0  0  0  0  0
   27.0343   39.7561   17.7143 C   0  0  1  0  0  0  0  0  0  0  0  0
   26.4992   38.8056   16.8178 O   0  0  0  0  0  0  0  0  0  0  0  0
   28.0759   39.1043   18.6237 C   0  0  1  0  0  0  0  0  0  0  0  0
   28.5883   40.0648   19.5222 O   0  0  0  0  0  0  0  0  0  0  0  0
   27.5576   37.8669   19.3698 C   0  0  1  0  0  0  0  0  0  0  0  0
   26.8407   37.0370   18.4830 O   0  0  0  0  0  0  0  0  0  0  0  0
   28.6757   37.0616   20.0122 C   0  0  0  0  0  0  0  0  0  0  0  0
   28.5824   34.3181   19.3430 N   0  0  0  0  0  0  0  0  0  0  0  0
   28.6069   32.9839   18.9911 C   0  0  0  0  0  0  0  0  0  0  0  0
   29.0142   32.6445   17.8767 O   0  0  0  0  0  0  0  0  0  0  0  0
   28.1644   32.0336   19.8890 N   0  0  0  0  0  0  0  0  0  0  0  0
   27.6988   32.4122   21.1342 C   0  0  0  0  0  0  0  0  0  0  0  0
   27.6745   33.7445   21.4902 C   0  0  1  0  0  0  0  0  0  0  0  0
   27.3101   31.5751   21.9470 O   0  0  0  0  0  0  0  0  0  0  0  0
   27.1883   35.4357   23.1021 C   0  0  2  0  0  0  0  0  0  0  0  0
   27.2105   34.1043   22.7406 N   0  0  0  0  0  0  0  0  0  0  0  0
   26.7189   35.8011   24.3615 C   0  0  0  0  0  0  0  0  0  0  0  0
   26.6853   37.1415   24.7329 C   0  0  1  0  0  0  0  0  0  0  0  0
   26.1856   37.5177   26.1004 C   0  0  0  0  0  0  0  0  0  0  0  0
   27.1289   38.1199   23.8358 C   0  0  1  0  0  0  0  0  0  0  0  0
   27.1192   39.5726   24.2126 C   0  0  0  0  0  0  0  0  0  0  0  0
   27.5978   37.7506   22.5785 C   0  0  0  0  0  0  0  0  0  0  0  0
   27.6301   36.4101   22.2019 C   0  0  2  0  0  0  0  0  0  0  0  0
   28.1209   34.7056   20.5904 C   0  0  2  0  0  0  0  0  0  0  0  0
   28.0892   36.0412   20.9431 N   0  0  0  0  0  0  0  0  0  0  0  0
  1  2  1  6  0  0  0
  1  3  1  0  0  0  0
  1  4  2  0  0  0  0
  1  6  1  0  0  0  0
  5  6  1  0  0  0  0
  7  5  1  6  0  0  0
  7  8  1  0  0  0  0
  7  9  1  0  0  0  0
  9 10  1  1  0  0  0
  9 11  1  0  0  0  0
 11 12  1  6  0  0  0
 11 13  1  0  0  0  0
 13 31  1  0  0  0  0
 14 15  1  0  0  0  0
 15 16  2  0  0  0  0
 15 17  1  0  0  0  0
 17 18  1  0  0  0  0
 18 20  2  0  0  0  0
 19 18  1  1  0  0  0
 19 22  1  0  0  0  0
 19 30  1  0  0  0  0
 21 23  1  6  0  0  0
 21 29  1  0  0  0  0
 21 22  1  0  0  0  0
 23 24  1  0  0  0  0
 24 25  1  1  0  0  0
 24 26  1  0  0  0  0
 26 27  1  1  0  0  0
 26 28  1  0  0  0  0
 29 28  1  6  0  0  0
 29 31  1  0  0  0  0
 30 14  1  6  0  0  0
 30 31  1  0  0  0  0
M  CHG  1   3  -1
M  END
>  <CHROM.1>
81.80708550,179.50802656,60.74107267,60.57336945,45.18542221,168.65607612
-77.76770792,27.20285568,37.62674080,19.95297513,-2.29855996,-1.32506000
1.87423656

>  <Name>
ligand

>  <RI>
0

>  <Rbt.Current_Directory>
/home/itssahil/PROJECTS/Mol_Feturizer/New_Systems/rnas/3F2Q

>  <Rbt.Executable>
rbdock ($Id: //depot/dev/client3/rdock/2013.1/src/exe/rbdock.cxx#4 $)

>  <Rbt.Library>
libRbt.so (2013.1, Build901 2013/11/27)

>  <Rbt.Parameter_File>
/export/apps/rDock/src/rDock_2013.1_src/data/scripts/dock_solv.prm

>  <Rbt.Receptor>
prm/pocket_docking_2.prm

>  <SCORE>
-34.9365

>  <SCORE.INTER>
-32.3256

>  <SCORE.INTER.CONST>
1

>  <SCORE.INTER.POLAR>
0

>  <SCORE.INTER.ROT>
7

>  <SCORE.INTER.SOLV>
18.1895

>  <SCORE.INTER.VDW>
-35.8802

>  <SCORE.INTER.norm>
-1.04276

>  <SCORE.INTRA>
-2.70135

>  <SCORE.INTRA.DIHEDRAL>
-5.24457

>  <SCORE.INTRA.DIHEDRAL.0>
10.0718

>  <SCORE.INTRA.POLAR>
0

>  <SCORE.INTRA.POLAR.0>
0

>  <SCORE.INTRA.REPUL>
0

>  <SCORE.INTRA.REPUL.0>
0

>  <SCORE.INTRA.SOLV>
1.28101

>  <SCORE.INTRA.SOLV.lig_0>
-48.6963

>  <SCORE.INTRA.VDW>
-0.719573

>  <SCORE.INTRA.VDW.0>
-0.836976

>  <SCORE.INTRA.norm>
-0.0871404

>  <SCORE.RESTR>
0.090406

>  <SCORE.RESTR.CAVITY>
0.090406

>  <SCORE.RESTR.norm>
0.00291632

>  <SCORE.SYSTEM>
0

>  <SCORE.SYSTEM.CONST>
0

>  <SCORE.SYSTEM.DIHEDRAL>
0

>  <SCORE.SYSTEM.SOLV>
0

>  <SCORE.SYSTEM.norm>
0

>  <SCORE.heavy>
31

>  <SCORE.norm>
-1.12698

>  <RMSD>
1.349

$$$$
ligand
 OpenBabel11021811473D
libRbt.so/2013.1/901 2013/11/27
 31 33  0  0  0  0  0  0  0  0999 V2000
   28.0122   41.7097   16.6571 P   0  0  1  0  0  0  0  0  0  0  0  0
   26.7332   41.4507   15.8899 O   0  0  0  0  0  0  0  0  0  0  0  0
   29.1684   41.4702   15.7239 O   0  5  0  0  0  0  0  0  0  0  0  0
   28.0460   43.1317   17.1456 O   0  0  0  0  0  0  0  0  0  0  0  0
   27.1780   41.0105   19.0229 C   0  0  0  0  0  0  0  0  0  0  0  0
   28.0576   40.7692   17.9517 O   0  0  0  0  0  0  0  0  0  0  0  0
   27.4167   39.9703   20.1075 C   0  0  1  0  0  0  0  0  0  0  0  0
   26.9310   40.4766   21.3327 O   0  0  0  0  0  0  0  0  0  0  0  0
   26.7096   38.6622   19.7530 C   0  0  1  0  0  0  0  0  0  0  0  0
   25.5677   38.9375   18.9702 O   0  0  0  0  0  0  0  0  0  0  0  0
   27.6193   37.6342   19.0659 C   0  0  1  0  0  0  0  0  0  0  0  0
   28.2268   38.2127   17.9323 O   0  0  0  0  0  0  0  0  0  0  0  0
   28.6998   37.0995   19.9922 C   0  0  0  0  0  0  0  0  0  0  0  0
   28.5766   34.3636   19.2974 N   0  0  0  0  0  0  0  0  0  0  0  0
   28.5864   33.0326   18.9327 C   0  0  0  0  0  0  0  0  0  0  0  0
   28.9848   32.7000   17.8130 O   0  0  0  0  0  0  0  0  0  0  0  0
   28.1392   32.0780   19.8238 N   0  0  0  0  0  0  0  0  0  0  0  0
   27.6837   32.4492   21.0749 C   0  0  0  0  0  0  0  0  0  0  0  0
   27.6741   33.7782   21.4437 C   0  0  1  0  0  0  0  0  0  0  0  0
   27.2910   31.6081   21.8817 O   0  0  0  0  0  0  0  0  0  0  0  0
   27.2123   35.4585   23.0741 C   0  0  2  0  0  0  0  0  0  0  0  0
   27.2198   34.1304   22.6998 N   0  0  0  0  0  0  0  0  0  0  0  0
   26.7528   35.8163   24.3393 C   0  0  0  0  0  0  0  0  0  0  0  0
   26.7341   37.1534   24.7236 C   0  0  1  0  0  0  0  0  0  0  0  0
   26.2449   37.5213   26.0972 C   0  0  0  0  0  0  0  0  0  0  0  0
   27.1825   38.1360   23.8336 C   0  0  1  0  0  0  0  0  0  0  0  0
   27.1888   39.5851   24.2243 C   0  0  0  0  0  0  0  0  0  0  0  0
   27.6415   37.7743   22.5705 C   0  0  0  0  0  0  0  0  0  0  0  0
   27.6590   36.4371   22.1810 C   0  0  2  0  0  0  0  0  0  0  0  0
   28.1251   34.7435   20.5508 C   0  0  2  0  0  0  0  0  0  0  0  0
   28.1081   36.0759   20.9163 N   0  0  0  0  0  0  0  0  0  0  0  0
  1  2  1  6  0  0  0
  1  3  1  0  0  0  0
  1  4  2  0  0  0  0
  1  6  1  0  0  0  0
  5  6  1  0  0  0  0
  7  5  1  6  0  0  0
  7  8  1  0  0  0  0
  7  9  1  0  0  0  0
  9 10  1  6  0  0  0
  9 11  1  0  0  0  0
 11 12  1  6  0  0  0
 11 13  1  0  0  0  0
 13 31  1  0  0  0  0
 14 15  1  0  0  0  0
 15 16  2  0  0  0  0
 15 17  1  0  0  0  0
 17 18  1  0  0  0  0
 18 20  2  0  0  0  0
 19 18  1  1  0  0  0
 19 22  1  0  0  0  0
 19 30  1  0  0  0  0
 21 23  1  6  0  0  0
 21 29  1  0  0  0  0
 21 22  1  0  0  0  0
 23 24  1  0  0  0  0
 24 25  1  1  0  0  0
 24 26  1  0  0  0  0
 26 27  1  1  0  0  0
 26 28  1  0  0  0  0
 29 28  1  6  0  0  0
 29 31  1  0  0  0  0
 30 14  1  6  0  0  0
 30 31  1  0  0  0  0
M  CHG  1   3  -1
M  END
>  <CHROM.1>
179.29042569,-70.07592032,158.43587194,-29.05794166,-54.40353357,77.98714963
-94.41730740,27.61277797,37.51100470,20.19939765,-1.48461051,-1.33650094
2.65982713

>  <Name>
ligand

>  <RI>
0

>  <Rbt.Current_Directory>
/home/itssahil/PROJECTS/Mol_Feturizer/New_Systems/rnas/3F2Q

>  <Rbt.Executable>
rbdock ($Id: //depot/dev/client3/rdock/2013.1/src/exe/rbdock.cxx#4 $)

>  <Rbt.Library>
libRbt.so (2013.1, Build901 2013/11/27)

>  <Rbt.Parameter_File>
/export/apps/rDock/src/rDock_2013.1_src/data/scripts/dock_solv.prm

>  <Rbt.Receptor>
prm/pocket_docking_8.prm

>  <SCORE>
-32.5744

>  <SCORE.INTER>
-30.1211

>  <SCORE.INTER.CONST>
1

>  <SCORE.INTER.POLAR>
0

>  <SCORE.INTER.ROT>
7

>  <SCORE.INTER.SOLV>
21.2286

>  <SCORE.INTER.VDW>
-35.4236

>  <SCORE.INTER.norm>
-0.971648

>  <SCORE.INTRA>
-2.45335

>  <SCORE.INTRA.DIHEDRAL>
-2.91521

>  <SCORE.INTRA.DIHEDRAL.0>
10.0718

>  <SCORE.INTRA.POLAR>
0

>  <SCORE.INTRA.POLAR.0>
0

>  <SCORE.INTRA.REPUL>
0

>  <SCORE.INTRA.REPUL.0>
0

>  <SCORE.INTRA.SOLV>
-0.223486

>  <SCORE.INTRA.SOLV.lig_0>
-48.6963

>  <SCORE.INTRA.VDW>
-0.884002

>  <SCORE.INTRA.VDW.0>
-0.836976

>  <SCORE.INTRA.norm>
-0.0791403

>  <SCORE.RESTR>
0

>  <SCORE.RESTR.CAVITY>
0

>  <SCORE.RESTR.norm>
0

>  <SCORE.SYSTEM>
0

>  <SCORE.SYSTEM.CONST>
0

>  <SCORE.SYSTEM.DIHEDRAL>
0

>  <SCORE.SYSTEM.SOLV>
0

>  <SCORE.SYSTEM.norm>
0

>  <SCORE.heavy>
31

>  <SCORE.norm>
-1.05079

>  <RMSD>
1.350

$$$$
ligand
 OpenBabel11021811473D
libRbt.so/2013.1/901 2013/11/27
 31 33  0  0  0  0  0  0  0  0999 V2000
   25.9171   43.3883   16.1568 P   0  0  1  0  0  0  0  0  0  0  0  0
   26.1683   44.3625   17.2878 O   0  0  0  0  0  0  0  0  0  0  0  0
   24.6540   43.8093   15.4551 O   0  5  0  0  0  0  0  0  0  0  0  0
   27.0649   43.4132   15.1852 O   0  0  0  0  0  0  0  0  0  0  0  0
   26.9044   41.3820   17.4916 C   0  0  0  0  0  0  0  0  0  0  0  0
   25.8325   41.9009   16.7427 O   0  0  0  0  0  0  0  0  0  0  0  0
   26.5917   39.9440   17.8787 C   0  0  1  0  0  0  0  0  0  0  0  0
   26.5934   39.1518   16.7100 O   0  0  0  0  0  0  0  0  0  0  0  0
   27.6276   39.4256   18.8761 C   0  0  1  0  0  0  0  0  0  0  0  0
   27.8198   40.3793   19.8989 O   0  0  0  0  0  0  0  0  0  0  0  0
   27.2883   38.0468   19.4593 C   0  0  1  0  0  0  0  0  0  0  0  0
   26.8428   37.1880   18.4333 O   0  0  0  0  0  0  0  0  0  0  0  0
   28.4709   37.4055   20.1677 C   0  0  0  0  0  0  0  0  0  0  0  0
   28.4814   34.6769   19.4339 N   0  0  0  0  0  0  0  0  0  0  0  0
   28.5551   33.3541   19.0475 C   0  0  0  0  0  0  0  0  0  0  0  0
   28.9260   33.0615   17.9074 O   0  0  0  0  0  0  0  0  0  0  0  0
   28.2022   32.3623   19.9402 N   0  0  0  0  0  0  0  0  0  0  0  0
   27.7773   32.6881   21.2145 C   0  0  0  0  0  0  0  0  0  0  0  0
   27.7042   34.0090   21.6050 C   0  0  1  0  0  0  0  0  0  0  0  0
   27.4686   31.8139   22.0226 O   0  0  0  0  0  0  0  0  0  0  0  0
   27.2112   35.6358   23.2797 C   0  0  2  0  0  0  0  0  0  0  0  0
   27.2819   34.3159   22.8839 N   0  0  0  0  0  0  0  0  0  0  0  0
   26.7837   35.9479   24.5681 C   0  0  0  0  0  0  0  0  0  0  0  0
   26.7017   37.2760   24.9745 C   0  0  1  0  0  0  0  0  0  0  0  0
   26.2485   37.5949   26.3725 C   0  0  0  0  0  0  0  0  0  0  0  0
   27.0542   38.2959   24.0834 C   0  0  1  0  0  0  0  0  0  0  0  0
   26.9906   39.7373   24.4970 C   0  0  0  0  0  0  0  0  0  0  0  0
   27.4814   37.9799   22.7971 C   0  0  0  0  0  0  0  0  0  0  0  0
   27.5620   36.6517   22.3854 C   0  0  2  0  0  0  0  0  0  0  0  0
   28.0602   35.0118   20.7105 C   0  0  2  0  0  0  0  0  0  0  0  0
   27.9793   36.3356   21.0980 N   0  0  0  0  0  0  0  0  0  0  0  0
  1  2  1  1  0  0  0
  1  3  1  0  0  0  0
  1  4  2  0  0  0  0
  1  6  1  0  0  0  0
  5  6  1  0  0  0  0
  7  5  1  6  0  0  0
  7  8  1  0  0  0  0
  7  9  1  0  0  0  0
  9 10  1  1  0  0  0
  9 11  1  0  0  0  0
 11 12  1  6  0  0  0
 11 13  1  0  0  0  0
 13 31  1  0  0  0  0
 14 15  1  0  0  0  0
 15 16  2  0  0  0  0
 15 17  1  0  0  0  0
 17 18  1  0  0  0  0
 18 20  2  0  0  0  0
 19 18  1  1  0  0  0
 19 22  1  0  0  0  0
 19 30  1  0  0  0  0
 21 23  1  6  0  0  0
 21 29  1  0  0  0  0
 21 22  1  0  0  0  0
 23 24  1  0  0  0  0
 24 25  1  1  0  0  0
 24 26  1  0  0  0  0
 26 27  1  1  0  0  0
 26 28  1  0  0  0  0
 29 28  1  6  0  0  0
 29 31  1  0  0  0  0
 30 14  1  6  0  0  0
 30 31  1  0  0  0  0
M  CHG  1   3  -1
M  END
>  <CHROM.1>
-177.82090558,-56.41163668,67.86765700,47.31968516,43.97166585,160.42836412
-85.12652357,27.15357320,38.00291864,19.95498211,-2.26954171,-1.34128360
1.85455384

>  <Name>
ligand

>  <RI>
0

>  <Rbt.Current_Directory>
/home/itssahil/PROJECTS/Mol_Feturizer/New_Systems/rnas/3F2Q

>  <Rbt.Executable>
rbdock ($Id: //depot/dev/client3/rdock/2013.1/src/exe/rbdock.cxx#4 $)

>  <Rbt.Library>
libRbt.so (2013.1, Build901 2013/11/27)

>  <Rbt.Parameter_File>
/export/apps/rDock/src/rDock_2013.1_src/data/scripts/dock_solv.prm

>  <Rbt.Receptor>
prm/pocket_docking_4.prm

>  <SCORE>
-35.434

>  <SCORE.INTER>
-31.0959

>  <SCORE.INTER.CONST>
1

>  <SCORE.INTER.POLAR>
0

>  <SCORE.INTER.ROT>
7

>  <SCORE.INTER.SOLV>
21.7716

>  <SCORE.INTER.VDW>
-36.2544

>  <SCORE.INTER.norm>
-1.00309

>  <SCORE.INTRA>
-4.33814

>  <SCORE.INTRA.DIHEDRAL>
-5.56136

>  <SCORE.INTRA.DIHEDRAL.0>
10.0718

>  <SCORE.INTRA.POLAR>
0

>  <SCORE.INTRA.POLAR.0>
0

>  <SCORE.INTRA.REPUL>
0

>  <SCORE.INTRA.REPUL.0>
0

>  <SCORE.INTRA.SOLV>
-1.32192

>  <SCORE.INTRA.SOLV.lig_0>
-48.6963

>  <SCORE.INTRA.VDW>
-0.896506

>  <SCORE.INTRA.VDW.0>
-0.836976

>  <SCORE.INTRA.norm>
-0.13994

>  <SCORE.RESTR>
0

>  <SCORE.RESTR.CAVITY>
0

>  <SCORE.RESTR.norm>
0

>  <SCORE.SYSTEM>
0

>  <SCORE.SYSTEM.CONST>
0

>  <SCORE.SYSTEM.DIHEDRAL>
0

>  <SCORE.SYSTEM.SOLV>
0

>  <SCORE.SYSTEM.norm>
0

>  <SCORE.heavy>
31

>  <SCORE.norm>
-1.14303

>  <RMSD>
1.351

$$$$
ligand
 OpenBabel11021811473D
libRbt.so/2013.1/901 2013/11/27
 31 33  0  0  0  0  0  0  0  0999 V2000
   25.8981   43.3660   16.2836 P   0  0  1  0  0  0  0  0  0  0  0  0
   26.4283   44.2779   17.3694 O   0  0  0  0  0  0  0  0  0  0  0  0
   24.5510   43.8862   15.8593 O   0  5  0  0  0  0  0  0  0  0  0  0
   26.8315   43.3652   15.1044 O   0  0  0  0  0  0  0  0  0  0  0  0
   26.8963   41.3564   17.6052 C   0  0  0  0  0  0  0  0  0  0  0  0
   25.8359   41.8634   16.8320 O   0  0  0  0  0  0  0  0  0  0  0  0
   26.6216   39.8955   17.9304 C   0  0  1  0  0  0  0  0  0  0  0  0
   26.6984   39.1456   16.7366 O   0  0  0  0  0  0  0  0  0  0  0  0
   27.6359   39.3792   18.9509 C   0  0  1  0  0  0  0  0  0  0  0  0
   27.6412   40.2227   20.0827 O   0  0  0  0  0  0  0  0  0  0  0  0
   27.4183   37.9135   19.3517 C   0  0  1  0  0  0  0  0  0  0  0  0
   27.3002   37.1125   18.1970 O   0  0  0  0  0  0  0  0  0  0  0  0
   28.5426   37.3728   20.2206 C   0  0  0  0  0  0  0  0  0  0  0  0
   28.5073   34.6468   19.4779 N   0  0  0  0  0  0  0  0  0  0  0  0
   28.5593   33.3238   19.0888 C   0  0  0  0  0  0  0  0  0  0  0  0
   28.9501   33.0259   17.9567 O   0  0  0  0  0  0  0  0  0  0  0  0
   28.1628   32.3378   19.9696 N   0  0  0  0  0  0  0  0  0  0  0  0
   27.7157   32.6697   21.2347 C   0  0  0  0  0  0  0  0  0  0  0  0
   27.6640   33.9908   21.6279 C   0  0  1  0  0  0  0  0  0  0  0  0
   27.3680   31.8007   22.0324 O   0  0  0  0  0  0  0  0  0  0  0  0
   27.1696   35.6239   23.2962 C   0  0  2  0  0  0  0  0  0  0  0  0
   27.2190   34.3038   22.8976 N   0  0  0  0  0  0  0  0  0  0  0  0
   26.7194   35.9421   24.5753 C   0  0  0  0  0  0  0  0  0  0  0  0
   26.6585   37.2705   24.9842 C   0  0  1  0  0  0  0  0  0  0  0  0
   26.1801   37.5959   26.3723 C   0  0  0  0  0  0  0  0  0  0  0  0
   27.0553   38.2846   24.1051 C   0  0  1  0  0  0  0  0  0  0  0  0
   27.0155   39.7258   24.5221 C   0  0  0  0  0  0  0  0  0  0  0  0
   27.5052   37.9624   22.8281 C   0  0  0  0  0  0  0  0  0  0  0  0
   27.5648   36.6339   22.4139 C   0  0  2  0  0  0  0  0  0  0  0  0
   28.0640   34.9877   20.7454 C   0  0  2  0  0  0  0  0  0  0  0  0
   28.0048   36.3119   21.1355 N   0  0  0  0  0  0  0  0  0  0  0  0
  1  2  1  1  0  0  0
  1  3  1  0  0  0  0
  1  4  2  0  0  0  0
  1  6  1  0  0  0  0
  5  6  1  0  0  0  0
  7  5  1  6  0  0  0
  7  8  1  0  0  0  0
  7  9  1  0  0  0  0
  9 10  1  1  0  0  0
  9 11  1  0  0  0  0
 11 12  1  6  0  0  0
 11 13  1  0  0  0  0
 13 31  1  0  0  0  0
 14 15  1  0  0  0  0
 15 16  2  0  0  0  0
 15 17  1  0  0  0  0
 17 18  1  0  0  0  0
 18 20  2  0  0  0  0
 19 18  1  1  0  0  0
 19 22  1  0  0  0  0
 19 30  1  0  0  0  0
 21 23  1  6  0  0  0
 21 29  1  0  0  0  0
 21 22  1  0  0  0  0
 23 24  1  0  0  0  0
 24 25  1  1  0  0  0
 24 26  1  0  0  0  0
 26 27  1  1  0  0  0
 26 28  1  0  0  0  0
 29 28  1  6  0  0  0
 29 31  1  0  0  0  0
 30 14  1  6  0  0  0
 30 31  1  0  0  0  0
M  CHG  1   3  -1
M  END
>  <CHROM.1>
-176.96589655,-42.10541663,67.89750622,53.96533900,50.50464032,150.39741308
-92.70416621,27.15868095,37.97187247,19.99932082,-2.24551940,-1.33465098
1.88998700

>  <Name>
ligand

>  <RI>
0

>  <Rbt.Current_Directory>
/home/itssahil/PROJECTS/Mol_Feturizer/New_Systems/rnas/3F2Q

>  <Rbt.Executable>
rbdock ($Id: //depot/dev/client3/rdock/2013.1/src/exe/rbdock.cxx#4 $)

>  <Rbt.Library>
libRbt.so (2013.1, Build901 2013/11/27)

>  <Rbt.Parameter_File>
/export/apps/rDock/src/rDock_2013.1_src/data/scripts/dock_solv.prm

>  <Rbt.Receptor>
prm/blind_docking_80.prm

>  <SCORE>
-35.2286

>  <SCORE.INTER>
-31.1165

>  <SCORE.INTER.CONST>
1

>  <SCORE.INTER.POLAR>
0

>  <SCORE.INTER.ROT>
7

>  <SCORE.INTER.SOLV>
20.7118

>  <SCORE.INTER.VDW>
-35.9149

>  <SCORE.INTER.norm>
-1.00376

>  <SCORE.INTRA>
-4.12468

>  <SCORE.INTRA.DIHEDRAL>
-4.74656

>  <SCORE.INTRA.DIHEDRAL.0>
10.0718

>  <SCORE.INTRA.POLAR>
0

>  <SCORE.INTRA.POLAR.0>
0

>  <SCORE.INTRA.REPUL>
0

>  <SCORE.INTRA.REPUL.0>
0

>  <SCORE.INTRA.SOLV>
-1.36159

>  <SCORE.INTRA.SOLV.lig_0>
-48.6963

>  <SCORE.INTRA.VDW>
-1.0706

>  <SCORE.INTRA.VDW.0>
-0.836976

>  <SCORE.INTRA.norm>
-0.133054

>  <SCORE.RESTR>
0.0125887

>  <SCORE.RESTR.CAVITY>
0.0125887

>  <SCORE.RESTR.norm>
0.000406087

>  <SCORE.SYSTEM>
0

>  <SCORE.SYSTEM.CONST>
0

>  <SCORE.SYSTEM.DIHEDRAL>
0

>  <SCORE.SYSTEM.SOLV>
0

>  <SCORE.SYSTEM.norm>
0

>  <SCORE.heavy>
31

>  <SCORE.norm>
-1.13641

>  <RMSD>
1.361

$$$$
ligand
 OpenBabel11021811473D
libRbt.so/2013.1/901 2013/11/27
 31 33  0  0  0  0  0  0  0  0999 V2000
   24.8933   42.8372   17.4058 P   0  0  1  0  0  0  0  0  0  0  0  0
   24.1582   42.7536   18.7264 O   0  0  0  0  0  0  0  0  0  0  0  0
   23.8970   43.2206   16.3449 O   0  5  0  0  0  0  0  0  0  0  0  0
   25.9762   43.8783   17.4790 O   0  0  0  0  0  0  0  0  0  0  0  0
   26.3119   40.7764   18.1285 C   0  0  0  0  0  0  0  0  0  0  0  0
   25.6097   41.4377   17.1044 O   0  0  0  0  0  0  0  0  0  0  0  0
   27.2148   39.7187   17.5107 C   0  0  1  0  0  0  0  0  0  0  0  0
   27.9365   40.3061   16.4489 O   0  0  0  0  0  0  0  0  0  0  0  0
   28.1732   39.1593   18.5620 C   0  0  1  0  0  0  0  0  0  0  0  0
   28.5393   40.1829   19.4623 O   0  0  0  0  0  0  0  0  0  0  0  0
   27.6264   37.9337   19.3072 C   0  0  1  0  0  0  0  0  0  0  0  0
   26.8646   37.1373   18.4274 O   0  0  0  0  0  0  0  0  0  0  0  0
   28.7279   37.0844   19.9212 C   0  0  0  0  0  0  0  0  0  0  0  0
   28.6047   34.3437   19.2454 N   0  0  0  0  0  0  0  0  0  0  0  0
   28.6148   33.0100   18.8907 C   0  0  0  0  0  0  0  0  0  0  0  0
   29.0247   32.6680   17.7780 O   0  0  0  0  0  0  0  0  0  0  0  0
   28.1551   32.0633   19.7838 N   0  0  0  0  0  0  0  0  0  0  0  0
   27.6868   32.4450   21.0270 C   0  0  0  0  0  0  0  0  0  0  0  0
   27.6768   33.7768   21.3858 C   0  0  1  0  0  0  0  0  0  0  0  0
   27.2828   31.6111   21.8356 O   0  0  0  0  0  0  0  0  0  0  0  0
   27.2017   35.4704   22.9984 C   0  0  2  0  0  0  0  0  0  0  0  0
   27.2096   34.1396   22.6341 N   0  0  0  0  0  0  0  0  0  0  0  0
   26.7292   35.8389   24.2558 C   0  0  0  0  0  0  0  0  0  0  0  0
   26.7100   37.1788   24.6299 C   0  0  1  0  0  0  0  0  0  0  0  0
   26.2066   37.5583   25.9952 C   0  0  0  0  0  0  0  0  0  0  0  0
   27.1710   38.1535   23.7377 C   0  0  1  0  0  0  0  0  0  0  0  0
   27.1770   39.6055   24.1177 C   0  0  0  0  0  0  0  0  0  0  0  0
   27.6429   37.7812   22.4825 C   0  0  0  0  0  0  0  0  0  0  0  0
   27.6610   36.4411   22.1031 C   0  0  2  0  0  0  0  0  0  0  0  0
   28.1404   34.7342   20.4908 C   0  0  2  0  0  0  0  0  0  0  0  0
   28.1231   36.0693   20.8462 N   0  0  0  0  0  0  0  0  0  0  0  0
  1  2  1  1  0  0  0
  1  3  1  0  0  0  0
  1  4  2  0  0  0  0
  1  6  1  0  0  0  0
  5  6  1  0  0  0  0
  7  5  1  1  0  0  0
  7  8  1  0  0  0  0
  7  9  1  0  0  0  0
  9 10  1  1  0  0  0
  9 11  1  0  0  0  0
 11 12  1  6  0  0  0
 11 13  1  0  0  0  0
 13 31  1  0  0  0  0
 14 15  1  0  0  0  0
 15 16  2  0  0  0  0
 15 17  1  0  0  0  0
 17 18  1  0  0  0  0
 18 20  2  0  0  0  0
 19 18  1  1  0  0  0
 19 22  1  0  0  0  0
 19 30  1  0  0  0  0
 21 23  1  6  0  0  0
 21 29  1  0  0  0  0
 21 22  1  0  0  0  0
 23 24  1  0  0  0  0
 24 25  1  1  0  0  0
 24 26  1  0  0  0  0
 26 27  1  1  0  0  0
 26 28  1  0  0  0  0
 29 28  1  6  0  0  0
 29 31  1  0  0  0  0
 30 14  1  6  0  0  0
 30 31  1  0  0  0  0
M  CHG  1   3  -1
M  END
>  <CHROM.1>
-163.69669691,-44.41008278,48.57554995,-34.75597711,35.78306587,169.09194372
-75.99687436,27.06047044,37.75765221,20.04754535,-2.42666730,-1.25597017
1.86312409

>  <Name>
ligand

>  <RI>
0

>  <Rbt.Current_Directory>
/home/itssahil/PROJECTS/Mol_Feturizer/New_Systems/rnas/3F2Q

>  <Rbt.Executable>
rbdock ($Id: //depot/dev/client3/rdock/2013.1/src/exe/rbdock.cxx#4 $)

>  <Rbt.Library>
libRbt.so (2013.1, Build901 2013/11/27)

>  <Rbt.Parameter_File>
/export/apps/rDock/src/rDock_2013.1_src/data/scripts/dock_solv.prm

>  <Rbt.Receptor>
prm/pocket_docking_3.prm

>  <SCORE>
-32.0432

>  <SCORE.INTER>
-30.1262

>  <SCORE.INTER.CONST>
1

>  <SCORE.INTER.POLAR>
0

>  <SCORE.INTER.ROT>
7

>  <SCORE.INTER.SOLV>
18.5137

>  <SCORE.INTER.VDW>
-34.522

>  <SCORE.INTER.norm>
-0.971814

>  <SCORE.INTRA>
-1.91699

>  <SCORE.INTRA.DIHEDRAL>
-2.2263

>  <SCORE.INTRA.DIHEDRAL.0>
10.0718

>  <SCORE.INTRA.POLAR>
0

>  <SCORE.INTRA.POLAR.0>
0

>  <SCORE.INTRA.REPUL>
0

>  <SCORE.INTRA.REPUL.0>
0

>  <SCORE.INTRA.SOLV>
-1.27084

>  <SCORE.INTRA.SOLV.lig_0>
-48.6963

>  <SCORE.INTRA.VDW>
-0.168414

>  <SCORE.INTRA.VDW.0>
-0.836976

>  <SCORE.INTRA.norm>
-0.0618382

>  <SCORE.RESTR>
0

>  <SCORE.RESTR.CAVITY>
0

>  <SCORE.RESTR.norm>
0

>  <SCORE.SYSTEM>
0

>  <SCORE.SYSTEM.CONST>
0

>  <SCORE.SYSTEM.DIHEDRAL>
0

>  <SCORE.SYSTEM.SOLV>
0

>  <SCORE.SYSTEM.norm>
0

>  <SCORE.heavy>
31

>  <SCORE.norm>
-1.03365

>  <RMSD>
1.364

$$$$
ligand
 OpenBabel11021811473D
libRbt.so/2013.1/901 2013/11/27
 31 33  0  0  0  0  0  0  0  0999 V2000
   27.1274   42.3306   16.9085 P   0  0  1  0  0  0  0  0  0  0  0  0
   26.1180   41.2068   17.0060 O   0  0  0  0  0  0  0  0  0  0  0  0
   27.3825   42.5983   15.4496 O   0  5  0  0  0  0  0  0  0  0  0  0
   26.5864   43.5729   17.5610 O   0  0  0  0  0  0  0  0  0  0  0  0
   29.1549   40.7568   17.3490 C   0  0  0  0  0  0  0  0  0  0  0  0
   28.4560   41.9250   17.7041 O   0  0  0  0  0  0  0  0  0  0  0  0
   28.3223   39.5422   17.7323 C   0  0  1  0  0  0  0  0  0  0  0  0
   28.9997   38.3787   17.3073 O   0  0  0  0  0  0  0  0  0  0  0  0
   28.0992   39.5073   19.2442 C   0  0  1  0  0  0  0  0  0  0  0  0
   27.3076   40.6097   19.6322 O   0  0  0  0  0  0  0  0  0  0  0  0
   27.4999   38.1878   19.7504 C   0  0  1  0  0  0  0  0  0  0  0  0
   26.5378   37.7148   18.8342 O   0  0  0  0  0  0  0  0  0  0  0  0
   28.5533   37.1130   19.9663 C   0  0  0  0  0  0  0  0  0  0  0  0
   28.4980   34.3692   19.2941 N   0  0  0  0  0  0  0  0  0  0  0  0
   28.5399   33.0365   18.9382 C   0  0  0  0  0  0  0  0  0  0  0  0
   28.9113   32.7086   17.8078 O   0  0  0  0  0  0  0  0  0  0  0  0
   28.1548   32.0746   19.8501 N   0  0  0  0  0  0  0  0  0  0  0  0
   27.7294   32.4402   21.1134 C   0  0  0  0  0  0  0  0  0  0  0  0
   27.6879   33.7710   21.4735 C   0  0  1  0  0  0  0  0  0  0  0  0
   27.3922   31.5929   21.9385 O   0  0  0  0  0  0  0  0  0  0  0  0
   27.2254   35.4477   23.1074 C   0  0  2  0  0  0  0  0  0  0  0  0
   27.2645   34.1177   22.7419 N   0  0  0  0  0  0  0  0  0  0  0  0
   26.7970   35.7999   24.3850 C   0  0  0  0  0  0  0  0  0  0  0  0
   26.7467   37.1385   24.7608 C   0  0  1  0  0  0  0  0  0  0  0  0
   26.2918   37.5007   26.1477 C   0  0  0  0  0  0  0  0  0  0  0  0
   27.1321   38.1285   23.8498 C   0  0  1  0  0  0  0  0  0  0  0  0
   27.1032   39.5800   24.2304 C   0  0  0  0  0  0  0  0  0  0  0  0
   27.5602   37.7724   22.5743 C   0  0  0  0  0  0  0  0  0  0  0  0
   27.6091   36.4336   22.1932 C   0  0  2  0  0  0  0  0  0  0  0  0
   28.0764   34.7438   20.5595 C   0  0  2  0  0  0  0  0  0  0  0  0
   28.0273   36.0776   20.9166 N   0  0  0  0  0  0  0  0  0  0  0  0
  1  2  1  1  0  0  0
  1  3  1  0  0  0  0
  1  4  2  0  0  0  0
  1  6  1  0  0  0  0
  5  6  1  0  0  0  0
  7  5  1  1  0  0  0
  7  8  1  0  0  0  0
  7  9  1  0  0  0  0
  9 10  1  6  0  0  0
  9 11  1  0  0  0  0
 11 12  1  6  0  0  0
 11 13  1  0  0  0  0
 13 31  1  0  0  0  0
 14 15  1  0  0  0  0
 15 16  2  0  0  0  0
 15 17  1  0  0  0  0
 17 18  1  0  0  0  0
 18 20  2  0  0  0  0
 19 18  1  1  0  0  0
 19 22  1  0  0  0  0
 19 30  1  0  0  0  0
 21 23  1  6  0  0  0
 21 29  1  0  0  0  0
 21 22  1  0  0  0  0
 23 24  1  0  0  0  0
 24 25  1  1  0  0  0
 24 26  1  0  0  0  0
 26 27  1  1  0  0  0
 26 28  1  0  0  0  0
 29 28  1  6  0  0  0
 29 31  1  0  0  0  0
 30 14  1  6  0  0  0
 30 31  1  0  0  0  0
M  CHG  1   3  -1
M  END
>  <CHROM.1>
-69.32344481,57.90409886,176.89793063,65.67088769,-38.62224539,158.62561359
-57.94268619,27.61682790,37.62700347,20.05985329,-1.65017523,-1.33954549
2.51613333

>  <Name>
ligand

>  <RI>
0

>  <Rbt.Current_Directory>
/home/itssahil/PROJECTS/Mol_Feturizer/New_Systems/rnas/3F2Q

>  <Rbt.Executable>
rbdock ($Id: //depot/dev/client3/rdock/2013.1/src/exe/rbdock.cxx#4 $)

>  <Rbt.Library>
libRbt.so (2013.1, Build901 2013/11/27)

>  <Rbt.Parameter_File>
/export/apps/rDock/src/rDock_2013.1_src/data/scripts/dock_solv.prm

>  <Rbt.Receptor>
prm/blind_docking_80.prm

>  <SCORE>
-34.5637

>  <SCORE.INTER>
-31.7886

>  <SCORE.INTER.CONST>
1

>  <SCORE.INTER.POLAR>
0

>  <SCORE.INTER.ROT>
7

>  <SCORE.INTER.SOLV>
19.3016

>  <SCORE.INTER.VDW>
-35.8929

>  <SCORE.INTER.norm>
-1.02544

>  <SCORE.INTRA>
-2.77508

>  <SCORE.INTRA.DIHEDRAL>
-5.25244

>  <SCORE.INTRA.DIHEDRAL.0>
10.0718

>  <SCORE.INTRA.POLAR>
0

>  <SCORE.INTRA.POLAR.0>
0

>  <SCORE.INTRA.REPUL>
0

>  <SCORE.INTRA.REPUL.0>
0

>  <SCORE.INTRA.SOLV>
0.895535

>  <SCORE.INTRA.SOLV.lig_0>
-48.6963

>  <SCORE.INTRA.VDW>
-0.596625

>  <SCORE.INTRA.VDW.0>
-0.836976

>  <SCORE.INTRA.norm>
-0.0895186

>  <SCORE.RESTR>
0

>  <SCORE.RESTR.CAVITY>
0

>  <SCORE.RESTR.norm>
0

>  <SCORE.SYSTEM>
0

>  <SCORE.SYSTEM.CONST>
0

>  <SCORE.SYSTEM.DIHEDRAL>
0

>  <SCORE.SYSTEM.SOLV>
0

>  <SCORE.SYSTEM.norm>
0

>  <SCORE.heavy>
31

>  <SCORE.norm>
-1.11496

>  <RMSD>
1.365

$$$$
ligand
 OpenBabel11021811473D
libRbt.so/2013.1/901 2013/11/27
 31 33  0  0  0  0  0  0  0  0999 V2000
   26.0737   42.9000   16.3798 P   0  0  1  0  0  0  0  0  0  0  0  0
   26.3378   43.4581   14.9977 O   0  0  0  0  0  0  0  0  0  0  0  0
   26.7567   43.7950   17.3787 O   0  5  0  0  0  0  0  0  0  0  0  0
   24.5955   42.8739   16.6557 O   0  0  0  0  0  0  0  0  0  0  0  0
   26.4780   40.6655   17.6546 C   0  0  0  0  0  0  0  0  0  0  0  0
   26.5897   41.3864   16.4516 O   0  0  0  0  0  0  0  0  0  0  0  0
   27.1388   39.3055   17.4836 C   0  0  1  0  0  0  0  0  0  0  0  0
   28.5289   39.4961   17.3265 O   0  0  0  0  0  0  0  0  0  0  0  0
   26.8554   38.4214   18.6980 C   0  0  1  0  0  0  0  0  0  0  0  0
   25.4610   38.2951   18.8776 O   0  0  0  0  0  0  0  0  0  0  0  0
   27.5338   37.0459   18.6330 C   0  0  1  0  0  0  0  0  0  0  0  0
   28.1578   36.8771   17.3797 O   0  0  0  0  0  0  0  0  0  0  0  0
   28.5646   36.8508   19.7334 C   0  0  0  0  0  0  0  0  0  0  0  0
   28.5110   34.0895   19.1369 N   0  0  0  0  0  0  0  0  0  0  0  0
   28.5533   32.7478   18.8165 C   0  0  0  0  0  0  0  0  0  0  0  0
   28.9065   32.3909   17.6891 O   0  0  0  0  0  0  0  0  0  0  0  0
   28.1890   31.8093   19.7609 N   0  0  0  0  0  0  0  0  0  0  0  0
   27.7839   32.2072   21.0211 C   0  0  0  0  0  0  0  0  0  0  0  0
   27.7422   33.5471   21.3457 C   0  0  1  0  0  0  0  0  0  0  0  0
   27.4654   31.3811   21.8747 O   0  0  0  0  0  0  0  0  0  0  0  0
   27.3001   35.2655   22.9414 C   0  0  2  0  0  0  0  0  0  0  0  0
   27.3394   33.9262   22.6115 N   0  0  0  0  0  0  0  0  0  0  0  0
   26.8924   35.6503   24.2164 C   0  0  0  0  0  0  0  0  0  0  0  0
   26.8420   36.9985   24.5566 C   0  0  1  0  0  0  0  0  0  0  0  0
   26.4097   37.3962   25.9410 C   0  0  0  0  0  0  0  0  0  0  0  0
   27.2065   37.9650   23.6124 C   0  0  1  0  0  0  0  0  0  0  0  0
   27.1771   39.4262   23.9541 C   0  0  0  0  0  0  0  0  0  0  0  0
   27.6140   37.5763   22.3397 C   0  0  0  0  0  0  0  0  0  0  0  0
   27.6629   36.2279   21.9943 C   0  0  2  0  0  0  0  0  0  0  0  0
   28.1098   34.4964   20.3990 C   0  0  2  0  0  0  0  0  0  0  0  0
   28.0604   35.8392   20.7205 N   0  0  0  0  0  0  0  0  0  0  0  0
  1  2  1  6  0  0  0
  1  3  1  0  0  0  0
  1  4  2  0  0  0  0
  1  6  1  0  0  0  0
  5  6  1  0  0  0  0
  7  5  1  1  0  0  0
  7  8  1  0  0  0  0
  7  9  1  0  0  0  0
  9 10  1  6  0  0  0
  9 11  1  0  0  0  0
 11 12  1  6  0  0  0
 11 13  1  0  0  0  0
 13 31  1  0  0  0  0
 14 15  1  0  0  0  0
 15 16  2  0  0  0  0
 15 17  1  0  0  0  0
 17 18  1  0  0  0  0
 18 20  2  0  0  0  0
 19 18  1  1  0  0  0
 19 22  1  0  0  0  0
 19 30  1  0  0  0  0
 21 23  1  6  0  0  0
 21 29  1  0  0  0  0
 21 22  1  0  0  0  0
 23 24  1  0  0  0  0
 24 25  1  1  0  0  0
 24 26  1  0  0  0  0
 26 27  1  1  0  0  0
 26 28  1  0  0  0  0
 29 28  1  6  0  0  0
 29 31  1  0  0  0  0
 30 14  1  6  0  0  0
 30 31  1  0  0  0  0
M  CHG  1   3  -1
M  END
>  <CHROM.1>
-175.48084257,178.55216085,67.19481276,57.09122236,-6.00229562,110.10993319
-108.90751787,27.24394243,37.47757350,19.72557557,-2.21175498,-1.32145327
1.97686118

>  <Name>
ligand

>  <RI>
0

>  <Rbt.Current_Directory>
/home/itssahil/PROJECTS/Mol_Feturizer/New_Systems/rnas/3F2Q

>  <Rbt.Executable>
rbdock ($Id: //depot/dev/client3/rdock/2013.1/src/exe/rbdock.cxx#4 $)

>  <Rbt.Library>
libRbt.so (2013.1, Build901 2013/11/27)

>  <Rbt.Parameter_File>
/export/apps/rDock/src/rDock_2013.1_src/data/scripts/dock_solv.prm

>  <Rbt.Receptor>
prm/pocket_docking_3.prm

>  <SCORE>
-32.8087

>  <SCORE.INTER>
-32.6841

>  <SCORE.INTER.CONST>
1

>  <SCORE.INTER.POLAR>
0

>  <SCORE.INTER.ROT>
7

>  <SCORE.INTER.SOLV>
19.7633

>  <SCORE.INTER.VDW>
-36.6438

>  <SCORE.INTER.norm>
-1.05433

>  <SCORE.INTRA>
-0.124895

>  <SCORE.INTRA.DIHEDRAL>
1.76634

>  <SCORE.INTRA.DIHEDRAL.0>
10.0718

>  <SCORE.INTRA.POLAR>
0

>  <SCORE.INTRA.POLAR.0>
0

>  <SCORE.INTRA.REPUL>
0

>  <SCORE.INTRA.REPUL.0>
0

>  <SCORE.INTRA.SOLV>
-0.789346

>  <SCORE.INTRA.SOLV.lig_0>
-48.6963

>  <SCORE.INTRA.VDW>
-0.613392

>  <SCORE.INTRA.VDW.0>
-0.836976

>  <SCORE.INTRA.norm>
-0.00402887

>  <SCORE.RESTR>
0.000309697

>  <SCORE.RESTR.CAVITY>
0.000309697

>  <SCORE.RESTR.norm>
9.99023e-06

>  <SCORE.SYSTEM>
0

>  <SCORE.SYSTEM.CONST>
0

>  <SCORE.SYSTEM.DIHEDRAL>
0

>  <SCORE.SYSTEM.SOLV>
0

>  <SCORE.SYSTEM.norm>
0

>  <SCORE.heavy>
31

>  <SCORE.norm>
-1.05834

>  <RMSD>
1.365

$$$$
ligand
 OpenBabel11021811473D
libRbt.so/2013.1/901 2013/11/27
 31 33  0  0  0  0  0  0  0  0999 V2000
   26.4831   42.8274   16.5233 P   0  0  1  0  0  0  0  0  0  0  0  0
   26.5283   43.0191   15.0224 O   0  0  0  0  0  0  0  0  0  0  0  0
   27.6486   43.5694   17.1200 O   0  5  0  0  0  0  0  0  0  0  0  0
   25.1985   43.3778   17.0788 O   0  0  0  0  0  0  0  0  0  0  0  0
   27.7329   40.5734   16.8965 C   0  0  0  0  0  0  0  0  0  0  0  0
   26.5071   41.2631   16.8623 O   0  0  0  0  0  0  0  0  0  0  0  0
   27.4842   39.1368   17.3321 C   0  0  1  0  0  0  0  0  0  0  0  0
   28.6800   38.4036   17.1718 O   0  0  0  0  0  0  0  0  0  0  0  0
   27.0247   39.0961   18.7895 C   0  0  1  0  0  0  0  0  0  0  0  0
   25.8628   39.8830   18.9424 O   0  0  0  0  0  0  0  0  0  0  0  0
   26.8086   37.6758   19.3301 C   0  0  1  0  0  0  0  0  0  0  0  0
   26.2353   36.8635   18.3299 O   0  0  0  0  0  0  0  0  0  0  0  0
   28.0983   37.0334   19.8154 C   0  0  0  0  0  0  0  0  0  0  0  0
   28.2289   34.2705   19.2383 N   0  0  0  0  0  0  0  0  0  0  0  0
   28.3571   32.9336   18.9208 C   0  0  0  0  0  0  0  0  0  0  0  0
   28.6287   32.5945   17.7656 O   0  0  0  0  0  0  0  0  0  0  0  0
   28.1702   31.9791   19.9001 N   0  0  0  0  0  0  0  0  0  0  0  0
   27.8565   32.3562   21.1924 C   0  0  0  0  0  0  0  0  0  0  0  0
   27.7294   33.6914   21.5141 C   0  0  1  0  0  0  0  0  0  0  0  0
   27.6963   31.5164   22.0765 O   0  0  0  0  0  0  0  0  0  0  0  0
   27.2962   35.3850   23.1385 C   0  0  2  0  0  0  0  0  0  0  0  0
   27.4202   34.0502   22.8117 N   0  0  0  0  0  0  0  0  0  0  0  0
   26.9824   35.7491   24.4457 C   0  0  0  0  0  0  0  0  0  0  0  0
   26.8476   37.0920   24.7838 C   0  0  1  0  0  0  0  0  0  0  0  0
   26.5191   37.4681   26.2023 C   0  0  0  0  0  0  0  0  0  0  0  0
   27.0323   38.0745   23.8044 C   0  0  1  0  0  0  0  0  0  0  0  0
   26.9085   39.5318   24.1414 C   0  0  0  0  0  0  0  0  0  0  0  0
   27.3463   37.7066   22.4995 C   0  0  0  0  0  0  0  0  0  0  0  0
   27.4792   36.3632   22.1564 C   0  0  2  0  0  0  0  0  0  0  0  0
   27.9185   34.6570   20.5320 C   0  0  2  0  0  0  0  0  0  0  0  0
   27.7833   35.9945   20.8514 N   0  0  0  0  0  0  0  0  0  0  0  0
  1  2  1  6  0  0  0
  1  3  1  0  0  0  0
  1  4  2  0  0  0  0
  1  6  1  0  0  0  0
  5  6  1  0  0  0  0
  7  5  1  1  0  0  0
  7  8  1  0  0  0  0
  7  9  1  0  0  0  0
  9 10  1  6  0  0  0
  9 11  1  0  0  0  0
 11 12  1  6  0  0  0
 11 13  1  0  0  0  0
 13 31  1  0  0  0  0
 14 15  1  0  0  0  0
 15 16  2  0  0  0  0
 15 17  1  0  0  0  0
 17 18  1  0  0  0  0
 18 20  2  0  0  0  0
 19 18  1  1  0  0  0
 19 22  1  0  0  0  0
 19 30  1  0  0  0  0
 21 23  1  6  0  0  0
 21 29  1  0  0  0  0
 21 22  1  0  0  0  0
 23 24  1  0  0  0  0
 24 25  1  1  0  0  0
 24 26  1  0  0  0  0
 26 27  1  1  0  0  0
 26 28  1  0  0  0  0
 29 28  1  6  0  0  0
 29 31  1  0  0  0  0
 30 14  1  6  0  0  0
 30 31  1  0  0  0  0
M  CHG  1   3  -1
M  END
>  <CHROM.1>
176.17686841,82.58447501,171.35454294,57.28807623,-38.27035343,154.41414106
-77.96911365,27.25348532,37.58870927,19.87452921,2.07185283,1.35405040,-1.06252637

>  <Name>
ligand

>  <RI>
0

>  <Rbt.Current_Directory>
/home/itssahil/PROJECTS/Mol_Feturizer/New_Systems/rnas/3F2Q

>  <Rbt.Executable>
rbdock ($Id: //depot/dev/client3/rdock/2013.1/src/exe/rbdock.cxx#4 $)

>  <Rbt.Library>
libRbt.so (2013.1, Build901 2013/11/27)

>  <Rbt.Parameter_File>
/export/apps/rDock/src/rDock_2013.1_src/data/scripts/dock_solv.prm

>  <Rbt.Receptor>
prm/pocket_docking_5.prm

>  <SCORE>
-35.683

>  <SCORE.INTER>
-32.4939

>  <SCORE.INTER.CONST>
1

>  <SCORE.INTER.POLAR>
0

>  <SCORE.INTER.ROT>
7

>  <SCORE.INTER.SOLV>
19.2513

>  <SCORE.INTER.VDW>
-36.3464

>  <SCORE.INTER.norm>
-1.04819

>  <SCORE.INTRA>
-3.18912

>  <SCORE.INTRA.DIHEDRAL>
-3.96897

>  <SCORE.INTRA.DIHEDRAL.0>
10.0718

>  <SCORE.INTRA.POLAR>
0

>  <SCORE.INTRA.POLAR.0>
0

>  <SCORE.INTRA.REPUL>
0

>  <SCORE.INTRA.REPUL.0>
0

>  <SCORE.INTRA.SOLV>
-0.441507

>  <SCORE.INTRA.SOLV.lig_0>
-48.6963

>  <SCORE.INTRA.VDW>
-0.983882

>  <SCORE.INTRA.VDW.0>
-0.836976

>  <SCORE.INTRA.norm>
-0.102875

>  <SCORE.RESTR>
0

>  <SCORE.RESTR.CAVITY>
0

>  <SCORE.RESTR.norm>
0

>  <SCORE.SYSTEM>
0

>  <SCORE.SYSTEM.CONST>
0

>  <SCORE.SYSTEM.DIHEDRAL>
0

>  <SCORE.SYSTEM.SOLV>
0

>  <SCORE.SYSTEM.norm>
0

>  <SCORE.heavy>
31

>  <SCORE.norm>
-1.15107

>  <RMSD>
1.366

$$$$
ligand
 OpenBabel11021811473D
libRbt.so/2013.1/901 2013/11/27
 31 33  0  0  0  0  0  0  0  0999 V2000
   26.0767   43.0100   16.4660 P   0  0  1  0  0  0  0  0  0  0  0  0
   26.3628   43.0857   14.9814 O   0  0  0  0  0  0  0  0  0  0  0  0
   27.1082   43.8422   17.1792 O   0  5  0  0  0  0  0  0  0  0  0  0
   24.7041   43.5503   16.7588 O   0  0  0  0  0  0  0  0  0  0  0  0
   27.2730   40.7283   16.8464 C   0  0  0  0  0  0  0  0  0  0  0  0
   26.0864   41.4790   16.9338 O   0  0  0  0  0  0  0  0  0  0  0  0
   27.0159   39.3264   17.3792 C   0  0  1  0  0  0  0  0  0  0  0  0
   28.0839   38.4913   16.9851 O   0  0  0  0  0  0  0  0  0  0  0  0
   26.8928   39.3519   18.9026 C   0  0  1  0  0  0  0  0  0  0  0  0
   25.8897   40.2696   19.2820 O   0  0  0  0  0  0  0  0  0  0  0  0
   26.6466   37.9709   19.5262 C   0  0  1  0  0  0  0  0  0  0  0  0
   25.8118   37.2064   18.6850 O   0  0  0  0  0  0  0  0  0  0  0  0
   27.9360   37.2057   19.7778 C   0  0  0  0  0  0  0  0  0  0  0  0
   28.0719   34.4462   19.1862 N   0  0  0  0  0  0  0  0  0  0  0  0
   28.2001   33.1120   18.8576 C   0  0  0  0  0  0  0  0  0  0  0  0
   28.4033   32.7790   17.6867 O   0  0  0  0  0  0  0  0  0  0  0  0
   28.0900   32.1530   19.8443 N   0  0  0  0  0  0  0  0  0  0  0  0
   27.8529   32.5230   21.1547 C   0  0  0  0  0  0  0  0  0  0  0  0
   27.7261   33.8556   21.4874 C   0  0  1  0  0  0  0  0  0  0  0  0
   27.7616   31.6794   22.0450 O   0  0  0  0  0  0  0  0  0  0  0  0
   27.3705   35.5395   23.1405 C   0  0  2  0  0  0  0  0  0  0  0  0
   27.4940   34.2073   22.8029 N   0  0  0  0  0  0  0  0  0  0  0  0
   27.1345   35.8965   24.4659 C   0  0  0  0  0  0  0  0  0  0  0  0
   27.0009   37.2366   24.8154 C   0  0  1  0  0  0  0  0  0  0  0  0
   26.7570   37.6052   26.2528 C   0  0  0  0  0  0  0  0  0  0  0  0
   27.1084   38.2235   23.8290 C   0  0  1  0  0  0  0  0  0  0  0  0
   26.9839   39.6781   24.1769 C   0  0  0  0  0  0  0  0  0  0  0  0
   27.3449   37.8627   22.5058 C   0  0  0  0  0  0  0  0  0  0  0  0
   27.4763   36.5220   22.1514 C   0  0  2  0  0  0  0  0  0  0  0  0
   27.8380   34.8256   20.4979 C   0  0  2  0  0  0  0  0  0  0  0  0
   27.7029   36.1603   20.8288 N   0  0  0  0  0  0  0  0  0  0  0  0
  1  2  1  6  0  0  0
  1  3  1  0  0  0  0
  1  4  2  0  0  0  0
  1  6  1  0  0  0  0
  5  6  1  0  0  0  0
  7  5  1  1  0  0  0
  7  8  1  0  0  0  0
  7  9  1  0  0  0  0
  9 10  1  6  0  0  0
  9 11  1  0  0  0  0
 11 12  1  6  0  0  0
 11 13  1  0  0  0  0
 13 31  1  0  0  0  0
 14 15  1  0  0  0  0
 15 16  2  0  0  0  0
 15 17  1  0  0  0  0
 17 18  1  0  0  0  0
 18 20  2  0  0  0  0
 19 18  1  1  0  0  0
 19 22  1  0  0  0  0
 19 30  1  0  0  0  0
 21 23  1  6  0  0  0
 21 29  1  0  0  0  0
 21 22  1  0  0  0  0
 23 24  1  0  0  0  0
 24 25  1  1  0  0  0
 24 26  1  0  0  0  0
 26 27  1  1  0  0  0
 26 28  1  0  0  0  0
 29 28  1  6  0  0  0
 29 31  1  0  0  0  0
 30 14  1  6  0  0  0
 30 31  1  0  0  0  0
M  CHG  1   3  -1
M  END
>  <CHROM.1>
178.77647110,63.94463513,165.38289524,55.40820479,-36.38427060,158.15155419
-69.57940593,27.09324264,37.77367635,19.88048797,-2.36237978,-1.36624399
1.78664511

>  <Name>
ligand

>  <RI>
0

>  <Rbt.Current_Directory>
/home/itssahil/PROJECTS/Mol_Feturizer/New_Systems/rnas/3F2Q

>  <Rbt.Executable>
rbdock ($Id: //depot/dev/client3/rdock/2013.1/src/exe/rbdock.cxx#4 $)

>  <Rbt.Library>
libRbt.so (2013.1, Build901 2013/11/27)

>  <Rbt.Parameter_File>
/export/apps/rDock/src/rDock_2013.1_src/data/scripts/dock_solv.prm

>  <Rbt.Receptor>
prm/pocket_docking_2.prm

>  <SCORE>
-35.1429

>  <SCORE.INTER>
-31.4538

>  <SCORE.INTER.CONST>
1

>  <SCORE.INTER.POLAR>
0

>  <SCORE.INTER.ROT>
7

>  <SCORE.INTER.SOLV>
18.7769

>  <SCORE.INTER.VDW>
-35.4949

>  <SCORE.INTER.norm>
-1.01464

>  <SCORE.INTRA>
-3.6942

>  <SCORE.INTRA.DIHEDRAL>
-4.53869

>  <SCORE.INTRA.DIHEDRAL.0>
10.0718

>  <SCORE.INTRA.POLAR>
0

>  <SCORE.INTRA.POLAR.0>
0

>  <SCORE.INTRA.REPUL>
0

>  <SCORE.INTRA.REPUL.0>
0

>  <SCORE.INTRA.SOLV>
-0.779666

>  <SCORE.INTRA.SOLV.lig_0>
-48.6963

>  <SCORE.INTRA.VDW>
-1.03502

>  <SCORE.INTRA.VDW.0>
-0.836976

>  <SCORE.INTRA.norm>
-0.119168

>  <SCORE.RESTR>
0.00512826

>  <SCORE.RESTR.CAVITY>
0.00512826

>  <SCORE.RESTR.norm>
0.000165428

>  <SCORE.SYSTEM>
0

>  <SCORE.SYSTEM.CONST>
0

>  <SCORE.SYSTEM.DIHEDRAL>
0

>  <SCORE.SYSTEM.SOLV>
0

>  <SCORE.SYSTEM.norm>
0

>  <SCORE.heavy>
31

>  <SCORE.norm>
-1.13364

>  <RMSD>
1.368

$$$$
ligand
 OpenBabel11021811473D
libRbt.so/2013.1/901 2013/11/27
 31 33  0  0  0  0  0  0  0  0999 V2000
   26.0871   43.0308   16.5794 P   0  0  1  0  0  0  0  0  0  0  0  0
   26.3107   43.1400   15.0862 O   0  0  0  0  0  0  0  0  0  0  0  0
   27.1653   43.8235   17.2681 O   0  5  0  0  0  0  0  0  0  0  0  0
   24.7398   43.5901   16.9451 O   0  0  0  0  0  0  0  0  0  0  0  0
   27.2545   40.7200   16.8608 C   0  0  0  0  0  0  0  0  0  0  0  0
   26.0850   41.4882   17.0072 O   0  0  0  0  0  0  0  0  0  0  0  0
   26.9965   39.3149   17.3848 C   0  0  1  0  0  0  0  0  0  0  0  0
   28.0687   38.4838   16.9937 O   0  0  0  0  0  0  0  0  0  0  0  0
   26.8630   39.3325   18.9075 C   0  0  1  0  0  0  0  0  0  0  0  0
   25.8444   40.2343   19.2838 O   0  0  0  0  0  0  0  0  0  0  0  0
   26.6324   37.9457   19.5238 C   0  0  1  0  0  0  0  0  0  0  0  0
   25.8500   37.1579   18.6542 O   0  0  0  0  0  0  0  0  0  0  0  0
   27.9323   37.2164   19.8233 C   0  0  0  0  0  0  0  0  0  0  0  0
   28.0387   34.4599   19.2118 N   0  0  0  0  0  0  0  0  0  0  0  0
   28.1525   33.1269   18.8734 C   0  0  0  0  0  0  0  0  0  0  0  0
   28.3503   32.8002   17.6998 O   0  0  0  0  0  0  0  0  0  0  0  0
   28.0341   32.1620   19.8534 N   0  0  0  0  0  0  0  0  0  0  0  0
   27.8030   32.5251   21.1669 C   0  0  0  0  0  0  0  0  0  0  0  0
   27.6906   33.8565   21.5093 C   0  0  1  0  0  0  0  0  0  0  0  0
   27.7045   31.6761   22.0512 O   0  0  0  0  0  0  0  0  0  0  0  0
   27.3552   35.5321   23.1750 C   0  0  2  0  0  0  0  0  0  0  0  0
   27.4644   34.2011   22.8277 N   0  0  0  0  0  0  0  0  0  0  0  0
   27.1251   35.8820   24.5033 C   0  0  0  0  0  0  0  0  0  0  0  0
   27.0060   37.2208   24.8626 C   0  0  1  0  0  0  0  0  0  0  0  0
   26.7683   37.5816   26.3031 C   0  0  0  0  0  0  0  0  0  0  0  0
   27.1221   38.2136   23.8831 C   0  0  1  0  0  0  0  0  0  0  0  0
   27.0133   39.6670   24.2417 C   0  0  0  0  0  0  0  0  0  0  0  0
   27.3526   37.8599   22.5570 C   0  0  0  0  0  0  0  0  0  0  0  0
   27.4695   36.5205   22.1928 C   0  0  2  0  0  0  0  0  0  0  0  0
   27.8109   34.8324   20.5266 C   0  0  2  0  0  0  0  0  0  0  0  0
   27.6901   36.1659   20.8672 N   0  0  0  0  0  0  0  0  0  0  0  0
  1  2  1  6  0  0  0
  1  3  1  0  0  0  0
  1  4  2  0  0  0  0
  1  6  1  0  0  0  0
  5  6  1  0  0  0  0
  7  5  1  1  0  0  0
  7  8  1  0  0  0  0
  7  9  1  0  0  0  0
  9 10  1  6  0  0  0
  9 11  1  0  0  0  0
 11 12  1  6  0  0  0
 11 13  1  0  0  0  0
 13 31  1  0  0  0  0
 14 15  1  0  0  0  0
 15 16  2  0  0  0  0
 15 17  1  0  0  0  0
 17 18  1  0  0  0  0
 18 20  2  0  0  0  0
 19 18  1  1  0  0  0
 19 22  1  0  0  0  0
 19 30  1  0  0  0  0
 21 23  1  6  0  0  0
 21 29  1  0  0  0  0
 21 22  1  0  0  0  0
 23 24  1  0  0  0  0
 24 25  1  1  0  0  0
 24 26  1  0  0  0  0
 26 27  1  1  0  0  0
 26 28  1  0  0  0  0
 29 28  1  6  0  0  0
 29 31  1  0  0  0  0
 30 14  1  6  0  0  0
 30 31  1  0  0  0  0
M  CHG  1   3  -1
M  END
>  <CHROM.1>
177.95208697,64.52785580,168.36249831,56.11861950,-34.49772578,158.13022677
-72.68361109,27.08092471,37.77276340,19.92272225,2.38092422,1.37425839,-1.36843024

>  <Name>
ligand

>  <RI>
0

>  <Rbt.Current_Directory>
/home/itssahil/PROJECTS/Mol_Feturizer/New_Systems/rnas/3F2Q

>  <Rbt.Executable>
rbdock ($Id: //depot/dev/client3/rdock/2013.1/src/exe/rbdock.cxx#4 $)

>  <Rbt.Library>
libRbt.so (2013.1, Build901 2013/11/27)

>  <Rbt.Parameter_File>
/export/apps/rDock/src/rDock_2013.1_src/data/scripts/dock_solv.prm

>  <Rbt.Receptor>
prm/pocket_docking_2.prm

>  <SCORE>
-35.1946

>  <SCORE.INTER>
-31.5325

>  <SCORE.INTER.CONST>
1

>  <SCORE.INTER.POLAR>
0

>  <SCORE.INTER.ROT>
7

>  <SCORE.INTER.SOLV>
18.5342

>  <SCORE.INTER.VDW>
-35.4664

>  <SCORE.INTER.norm>
-1.01718

>  <SCORE.INTRA>
-3.67075

>  <SCORE.INTRA.DIHEDRAL>
-4.52016

>  <SCORE.INTRA.DIHEDRAL.0>
10.0718

>  <SCORE.INTRA.POLAR>
0

>  <SCORE.INTRA.POLAR.0>
0

>  <SCORE.INTRA.REPUL>
0

>  <SCORE.INTRA.REPUL.0>
0

>  <SCORE.INTRA.SOLV>
-0.685174

>  <SCORE.INTRA.SOLV.lig_0>
-48.6963

>  <SCORE.INTRA.VDW>
-1.06808

>  <SCORE.INTRA.VDW.0>
-0.836976

>  <SCORE.INTRA.norm>
-0.118411

>  <SCORE.RESTR>
0.00868689

>  <SCORE.RESTR.CAVITY>
0.00868689

>  <SCORE.RESTR.norm>
0.000280222

>  <SCORE.SYSTEM>
0

>  <SCORE.SYSTEM.CONST>
0

>  <SCORE.SYSTEM.DIHEDRAL>
0

>  <SCORE.SYSTEM.SOLV>
0

>  <SCORE.SYSTEM.norm>
0

>  <SCORE.heavy>
31

>  <SCORE.norm>
-1.13531

>  <RMSD>
1.375

$$$$
ligand
 OpenBabel11021811473D
libRbt.so/2013.1/901 2013/11/27
 31 33  0  0  0  0  0  0  0  0999 V2000
   26.8879   42.6241   17.0501 P   0  0  1  0  0  0  0  0  0  0  0  0
   27.7526   43.8554   16.8838 O   0  0  0  0  0  0  0  0  0  0  0  0
   26.0722   42.7970   18.3030 O   0  5  0  0  0  0  0  0  0  0  0  0
   25.9696   42.4708   15.8689 O   0  0  0  0  0  0  0  0  0  0  0  0
   27.2529   40.0691   17.3972 C   0  0  0  0  0  0  0  0  0  0  0  0
   27.8171   41.3213   17.0922 O   0  0  0  0  0  0  0  0  0  0  0  0
   28.3328   39.0009   17.3073 C   0  0  1  0  0  0  0  0  0  0  0  0
   29.2662   39.2147   18.3448 O   0  0  0  0  0  0  0  0  0  0  0  0
   27.7132   37.6085   17.4257 C   0  0  1  0  0  0  0  0  0  0  0  0
   28.6229   36.6422   16.9448 O   0  0  0  0  0  0  0  0  0  0  0  0
   27.2341   37.2635   18.8426 C   0  0  1  0  0  0  0  0  0  0  0  0
   26.3684   36.1510   18.7992 O   0  0  0  0  0  0  0  0  0  0  0  0
   28.3841   36.9634   19.7908 C   0  0  0  0  0  0  0  0  0  0  0  0
   28.3997   34.1876   19.2634 N   0  0  0  0  0  0  0  0  0  0  0  0
   28.4746   32.8402   18.9745 C   0  0  0  0  0  0  0  0  0  0  0  0
   28.8056   32.4660   17.8460 O   0  0  0  0  0  0  0  0  0  0  0  0
   28.1678   31.9151   19.9519 N   0  0  0  0  0  0  0  0  0  0  0  0
   27.7875   32.3320   21.2137 C   0  0  0  0  0  0  0  0  0  0  0  0
   27.7134   33.6777   21.5068 C   0  0  1  0  0  0  0  0  0  0  0  0
   27.5202   31.5183   22.0963 O   0  0  0  0  0  0  0  0  0  0  0  0
   27.2646   35.4214   23.0729 C   0  0  2  0  0  0  0  0  0  0  0  0
   27.3361   34.0761   22.7745 N   0  0  0  0  0  0  0  0  0  0  0  0
   26.8825   35.8256   24.3498 C   0  0  0  0  0  0  0  0  0  0  0  0
   26.7999   37.1797   24.6586 C   0  0  1  0  0  0  0  0  0  0  0  0
   26.3961   37.5987   26.0453 C   0  0  0  0  0  0  0  0  0  0  0  0
   27.1061   38.1329   23.6807 C   0  0  1  0  0  0  0  0  0  0  0  0
   27.0409   39.6006   23.9875 C   0  0  0  0  0  0  0  0  0  0  0  0
   27.4881   37.7249   22.4061 C   0  0  0  0  0  0  0  0  0  0  0  0
   27.5690   36.3703   22.0922 C   0  0  2  0  0  0  0  0  0  0  0  0
   28.0231   34.6137   20.5266 C   0  0  2  0  0  0  0  0  0  0  0  0
   27.9411   35.9621   20.8169 N   0  0  0  0  0  0  0  0  0  0  0  0
  1  2  1  6  0  0  0
  1  3  1  0  0  0  0
  1  4  2  0  0  0  0
  1  6  1  0  0  0  0
  5  6  1  0  0  0  0
  7  5  1  1  0  0  0
  7  8  1  0  0  0  0
  7  9  1  0  0  0  0
  9 10  1  1  0  0  0
  9 11  1  0  0  0  0
 11 12  1  6  0  0  0
 11 13  1  0  0  0  0
 13 31  1  0  0  0  0
 14 15  1  0  0  0  0
 15 16  2  0  0  0  0
 15 17  1  0  0  0  0
 17 18  1  0  0  0  0
 18 20  2  0  0  0  0
 19 18  1  1  0  0  0
 19 22  1  0  0  0  0
 19 30  1  0  0  0  0
 21 23  1  6  0  0  0
 21 29  1  0  0  0  0
 21 22  1  0  0  0  0
 23 24  1  0  0  0  0
 24 25  1  1  0  0  0
 24 26  1  0  0  0  0
 26 27  1  1  0  0  0
 26 28  1  0  0  0  0
 29 28  1  6  0  0  0
 29 31  1  0  0  0  0
 30 14  1  6  0  0  0
 30 31  1  0  0  0  0
M  CHG  1   3  -1
M  END
>  <CHROM.1>
177.41172795,172.57285178,67.32619788,162.29250502,164.13354666,-148.87010957
-100.01272190,27.53322576,37.35771983,19.91209616,1.83900859,1.35538081,-0.77853268

>  <Name>
ligand

>  <RI>
0

>  <Rbt.Current_Directory>
/home/itssahil/PROJECTS/Mol_Feturizer/New_Systems/rnas/3F2Q

>  <Rbt.Executable>
rbdock ($Id: //depot/dev/client3/rdock/2013.1/src/exe/rbdock.cxx#4 $)

>  <Rbt.Library>
libRbt.so (2013.1, Build901 2013/11/27)

>  <Rbt.Parameter_File>
/export/apps/rDock/src/rDock_2013.1_src/data/scripts/dock_solv.prm

>  <Rbt.Receptor>
prm/pocket_docking_5.prm

>  <SCORE>
-34.8549

>  <SCORE.INTER>
-32.125

>  <SCORE.INTER.CONST>
1

>  <SCORE.INTER.POLAR>
0

>  <SCORE.INTER.ROT>
7

>  <SCORE.INTER.SOLV>
17.4559

>  <SCORE.INTER.VDW>
-35.502

>  <SCORE.INTER.norm>
-1.03629

>  <SCORE.INTRA>
-2.72995

>  <SCORE.INTRA.DIHEDRAL>
-3.53522

>  <SCORE.INTRA.DIHEDRAL.0>
10.0718

>  <SCORE.INTRA.POLAR>
0

>  <SCORE.INTRA.POLAR.0>
0

>  <SCORE.INTRA.REPUL>
0

>  <SCORE.INTRA.REPUL.0>
0

>  <SCORE.INTRA.SOLV>
-0.667948

>  <SCORE.INTRA.SOLV.lig_0>
-48.6963

>  <SCORE.INTRA.VDW>
-0.628366

>  <SCORE.INTRA.VDW.0>
-0.836976

>  <SCORE.INTRA.norm>
-0.0880629

>  <SCORE.RESTR>
0

>  <SCORE.RESTR.CAVITY>
0

>  <SCORE.RESTR.norm>
0

>  <SCORE.SYSTEM>
0

>  <SCORE.SYSTEM.CONST>
0

>  <SCORE.SYSTEM.DIHEDRAL>
0

>  <SCORE.SYSTEM.SOLV>
0

>  <SCORE.SYSTEM.norm>
0

>  <SCORE.heavy>
31

>  <SCORE.norm>
-1.12435

>  <RMSD>
1.376

$$$$
ligand
 OpenBabel11021811473D
libRbt.so/2013.1/901 2013/11/27
 31 33  0  0  0  0  0  0  0  0999 V2000
   27.7444   42.4894   16.4203 P   0  0  1  0  0  0  0  0  0  0  0  0
   27.8542   43.9176   16.9098 O   0  0  0  0  0  0  0  0  0  0  0  0
   26.6555   42.4382   15.3825 O   0  5  0  0  0  0  0  0  0  0  0  0
   29.0451   42.0489   15.8071 O   0  0  0  0  0  0  0  0  0  0  0  0
   26.1357   41.2424   18.0447 C   0  0  0  0  0  0  0  0  0  0  0  0
   27.4608   41.5200   17.6622 O   0  0  0  0  0  0  0  0  0  0  0  0
   26.1473   40.2427   19.1918 C   0  0  1  0  0  0  0  0  0  0  0  0
   24.8574   39.6818   19.3142 O   0  0  0  0  0  0  0  0  0  0  0  0
   27.1824   39.1483   18.9316 C   0  0  1  0  0  0  0  0  0  0  0  0
   28.4585   39.5971   19.3350 O   0  0  0  0  0  0  0  0  0  0  0  0
   26.8358   37.8021   19.5827 C   0  0  1  0  0  0  0  0  0  0  0  0
   25.8906   37.1158   18.7925 O   0  0  0  0  0  0  0  0  0  0  0  0
   28.0565   36.9177   19.7803 C   0  0  0  0  0  0  0  0  0  0  0  0
   28.2032   34.1508   19.2271 N   0  0  0  0  0  0  0  0  0  0  0  0
   28.3386   32.8122   18.9201 C   0  0  0  0  0  0  0  0  0  0  0  0
   28.5971   32.4646   17.7645 O   0  0  0  0  0  0  0  0  0  0  0  0
   28.1734   31.8653   19.9107 N   0  0  0  0  0  0  0  0  0  0  0  0
   27.8744   32.2517   21.2037 C   0  0  0  0  0  0  0  0  0  0  0  0
   27.7401   33.5888   21.5147 C   0  0  1  0  0  0  0  0  0  0  0  0
   27.7336   31.4190   22.0976 O   0  0  0  0  0  0  0  0  0  0  0  0
   27.3146   35.2937   23.1293 C   0  0  2  0  0  0  0  0  0  0  0  0
   27.4457   33.9570   22.8132 N   0  0  0  0  0  0  0  0  0  0  0  0
   27.0157   35.6673   24.4373 C   0  0  0  0  0  0  0  0  0  0  0  0
   26.8739   37.0121   24.7648 C   0  0  1  0  0  0  0  0  0  0  0  0
   26.5618   37.3987   26.1842 C   0  0  0  0  0  0  0  0  0  0  0  0
   27.0366   37.9870   23.7740 C   0  0  1  0  0  0  0  0  0  0  0  0
   26.9048   39.4463   24.0991 C   0  0  0  0  0  0  0  0  0  0  0  0
   27.3358   37.6096   22.4682 C   0  0  0  0  0  0  0  0  0  0  0  0
   27.4756   36.2642   22.1358 C   0  0  2  0  0  0  0  0  0  0  0  0
   27.9073   34.5467   20.5212 C   0  0  2  0  0  0  0  0  0  0  0  0
   27.7648   35.8859   20.8301 N   0  0  0  0  0  0  0  0  0  0  0  0
  1  2  1  1  0  0  0
  1  3  1  0  0  0  0
  1  4  2  0  0  0  0
  1  6  1  0  0  0  0
  5  6  1  0  0  0  0
  7  5  1  6  0  0  0
  7  8  1  0  0  0  0
  7  9  1  0  0  0  0
  9 10  1  1  0  0  0
  9 11  1  0  0  0  0
 11 12  1  6  0  0  0
 11 13  1  0  0  0  0
 13 31  1  0  0  0  0
 14 15  1  0  0  0  0
 15 16  2  0  0  0  0
 15 17  1  0  0  0  0
 17 18  1  0  0  0  0
 18 20  2  0  0  0  0
 19 18  1  1  0  0  0
 19 22  1  0  0  0  0
 19 30  1  0  0  0  0
 21 23  1  6  0  0  0
 21 29  1  0  0  0  0
 21 22  1  0  0  0  0
 23 24  1  0  0  0  0
 24 25  1  1  0  0  0
 24 26  1  0  0  0  0
 26 27  1  1  0  0  0
 26 28  1  0  0  0  0
 29 28  1  6  0  0  0
 29 31  1  0  0  0  0
 30 14  1  6  0  0  0
 30 31  1  0  0  0  0
M  CHG  1   3  -1
M  END
>  <CHROM.1>
176.87063486,90.06079535,-163.35948527,83.29121326,80.15842820,159.52689695
-62.48701318,27.38583169,37.56477964,20.05809321,-1.70578984,-1.36334923
2.46358074

>  <Name>
ligand

>  <RI>
0

>  <Rbt.Current_Directory>
/home/itssahil/PROJECTS/Mol_Feturizer/New_Systems/rnas/3F2Q

>  <Rbt.Executable>
rbdock ($Id: //depot/dev/client3/rdock/2013.1/src/exe/rbdock.cxx#4 $)

>  <Rbt.Library>
libRbt.so (2013.1, Build901 2013/11/27)

>  <Rbt.Parameter_File>
/export/apps/rDock/src/rDock_2013.1_src/data/scripts/dock_solv.prm

>  <Rbt.Receptor>
prm/pocket_docking_5.prm

>  <SCORE>
-31.285

>  <SCORE.INTER>
-29.738

>  <SCORE.INTER.CONST>
1

>  <SCORE.INTER.POLAR>
0

>  <SCORE.INTER.ROT>
7

>  <SCORE.INTER.SOLV>
24.2464

>  <SCORE.INTER.VDW>
-36.1741

>  <SCORE.INTER.norm>
-0.95929

>  <SCORE.INTRA>
-1.54706

>  <SCORE.INTRA.DIHEDRAL>
-2.14385

>  <SCORE.INTRA.DIHEDRAL.0>
10.0718

>  <SCORE.INTRA.POLAR>
0

>  <SCORE.INTRA.POLAR.0>
0

>  <SCORE.INTRA.REPUL>
0

>  <SCORE.INTRA.REPUL.0>
0

>  <SCORE.INTRA.SOLV>
-0.825245

>  <SCORE.INTRA.SOLV.lig_0>
-48.6963

>  <SCORE.INTRA.VDW>
-0.0625174

>  <SCORE.INTRA.VDW.0>
-0.836976

>  <SCORE.INTRA.norm>
-0.0499053

>  <SCORE.RESTR>
0

>  <SCORE.RESTR.CAVITY>
0

>  <SCORE.RESTR.norm>
0

>  <SCORE.SYSTEM>
0

>  <SCORE.SYSTEM.CONST>
0

>  <SCORE.SYSTEM.DIHEDRAL>
0

>  <SCORE.SYSTEM.SOLV>
0

>  <SCORE.SYSTEM.norm>
0

>  <SCORE.heavy>
31

>  <SCORE.norm>
-1.00919

>  <RMSD>
1.377

$$$$
ligand
 OpenBabel11021811473D
libRbt.so/2013.1/901 2013/11/27
 31 33  0  0  0  0  0  0  0  0999 V2000
   26.6140   42.2384   17.4336 P   0  0  1  0  0  0  0  0  0  0  0  0
   27.2189   43.6247   17.4951 O   0  0  0  0  0  0  0  0  0  0  0  0
   25.3741   42.3117   16.5837 O   0  5  0  0  0  0  0  0  0  0  0  0
   27.5894   41.2729   16.8185 O   0  0  0  0  0  0  0  0  0  0  0  0
   25.9001   40.3920   19.1255 C   0  0  0  0  0  0  0  0  0  0  0  0
   26.3159   41.7200   18.9185 O   0  0  0  0  0  0  0  0  0  0  0  0
   27.0823   39.4597   18.9052 C   0  0  1  0  0  0  0  0  0  0  0  0
   28.0727   39.7520   19.8679 O   0  0  0  0  0  0  0  0  0  0  0  0
   26.6377   38.0019   19.0230 C   0  0  1  0  0  0  0  0  0  0  0  0
   25.5469   37.7675   18.1582 O   0  0  0  0  0  0  0  0  0  0  0  0
   27.7661   36.9899   18.7802 C   0  0  1  0  0  0  0  0  0  0  0  0
   28.5392   37.3898   17.6706 O   0  0  0  0  0  0  0  0  0  0  0  0
   28.6747   36.8278   19.9884 C   0  0  0  0  0  0  0  0  0  0  0  0
   28.5814   34.0748   19.3592 N   0  0  0  0  0  0  0  0  0  0  0  0
   28.6061   32.7355   19.0271 C   0  0  0  0  0  0  0  0  0  0  0  0
   29.0185   32.3792   17.9198 O   0  0  0  0  0  0  0  0  0  0  0  0
   28.1579   31.7990   19.9367 N   0  0  0  0  0  0  0  0  0  0  0  0
   27.6867   32.1965   21.1738 C   0  0  0  0  0  0  0  0  0  0  0  0
   27.6622   33.5339   21.5101 C   0  0  1  0  0  0  0  0  0  0  0  0
   27.2929   31.3718   21.9969 O   0  0  0  0  0  0  0  0  0  0  0  0
   27.1700   35.2492   23.0944 C   0  0  2  0  0  0  0  0  0  0  0  0
   27.1924   33.9125   22.7527 N   0  0  0  0  0  0  0  0  0  0  0  0
   26.6949   35.6336   24.3459 C   0  0  0  0  0  0  0  0  0  0  0  0
   26.6611   36.9794   24.6974 C   0  0  1  0  0  0  0  0  0  0  0  0
   26.1550   37.3763   26.0567 C   0  0  0  0  0  0  0  0  0  0  0  0
   27.1102   37.9439   23.7882 C   0  0  1  0  0  0  0  0  0  0  0  0
   27.1004   39.4021   24.1436 C   0  0  0  0  0  0  0  0  0  0  0  0
   27.5849   37.5557   22.5389 C   0  0  0  0  0  0  0  0  0  0  0  0
   27.6175   36.2097   22.1822 C   0  0  2  0  0  0  0  0  0  0  0  0
   28.1142   34.4812   20.5984 C   0  0  2  0  0  0  0  0  0  0  0  0
   28.0823   35.8218   20.9312 N   0  0  0  0  0  0  0  0  0  0  0  0
  1  2  1  1  0  0  0
  1  3  1  0  0  0  0
  1  4  2  0  0  0  0
  1  6  1  0  0  0  0
  5  6  1  0  0  0  0
  7  5  1  1  0  0  0
  7  8  1  0  0  0  0
  7  9  1  0  0  0  0
  9 10  1  6  0  0  0
  9 11  1  0  0  0  0
 11 12  1  6  0  0  0
 11 13  1  0  0  0  0
 13 31  1  0  0  0  0
 14 15  1  0  0  0  0
 15 16  2  0  0  0  0
 15 17  1  0  0  0  0
 17 18  1  0  0  0  0
 18 20  2  0  0  0  0
 19 18  1  1  0  0  0
 19 22  1  0  0  0  0
 19 30  1  0  0  0  0
 21 23  1  6  0  0  0
 21 29  1  0  0  0  0
 21 22  1  0  0  0  0
 23 24  1  0  0  0  0
 24 25  1  1  0  0  0
 24 26  1  0  0  0  0
 26 27  1  1  0  0  0
 26 28  1  0  0  0  0
 29 28  1  6  0  0  0
 29 31  1  0  0  0  0
 30 14  1  6  0  0  0
 30 31  1  0  0  0  0
M  CHG  1   3  -1
M  END
>  <CHROM.1>
72.73152034,-172.40535468,62.96190712,53.40754556,-43.17839907,84.97752886
-112.85556502,27.30762901,37.32126072,20.22959611,-2.10532038,-1.33822166
2.17863934

>  <Name>
ligand

>  <RI>
0

>  <Rbt.Current_Directory>
/home/itssahil/PROJECTS/Mol_Feturizer/New_Systems/rnas/3F2Q

>  <Rbt.Executable>
rbdock ($Id: //depot/dev/client3/rdock/2013.1/src/exe/rbdock.cxx#4 $)

>  <Rbt.Library>
libRbt.so (2013.1, Build901 2013/11/27)

>  <Rbt.Parameter_File>
/export/apps/rDock/src/rDock_2013.1_src/data/scripts/dock_solv.prm

>  <Rbt.Receptor>
prm/pocket_docking_2.prm

>  <SCORE>
-32.323

>  <SCORE.INTER>
-29.775

>  <SCORE.INTER.CONST>
1

>  <SCORE.INTER.POLAR>
0

>  <SCORE.INTER.ROT>
7

>  <SCORE.INTER.SOLV>
16.0061

>  <SCORE.INTER.VDW>
-33.452

>  <SCORE.INTER.norm>
-0.960483

>  <SCORE.INTRA>
-2.80146

>  <SCORE.INTRA.DIHEDRAL>
-4.74183

>  <SCORE.INTRA.DIHEDRAL.0>
10.0718

>  <SCORE.INTRA.POLAR>
0

>  <SCORE.INTRA.POLAR.0>
0

>  <SCORE.INTRA.REPUL>
0

>  <SCORE.INTRA.REPUL.0>
0

>  <SCORE.INTRA.SOLV>
1.86846

>  <SCORE.INTRA.SOLV.lig_0>
-48.6963

>  <SCORE.INTRA.VDW>
-1.36478

>  <SCORE.INTRA.VDW.0>
-0.836976

>  <SCORE.INTRA.norm>
-0.0903698

>  <SCORE.RESTR>
0.253432

>  <SCORE.RESTR.CAVITY>
0.253432

>  <SCORE.RESTR.norm>
0.00817524

>  <SCORE.SYSTEM>
0

>  <SCORE.SYSTEM.CONST>
0

>  <SCORE.SYSTEM.DIHEDRAL>
0

>  <SCORE.SYSTEM.SOLV>
0

>  <SCORE.SYSTEM.norm>
0

>  <SCORE.heavy>
31

>  <SCORE.norm>
-1.04268

>  <RMSD>
1.378

$$$$
ligand
 OpenBabel11021811473D
libRbt.so/2013.1/901 2013/11/27
 31 33  0  0  0  0  0  0  0  0999 V2000
   25.8470   43.3220   16.1535 P   0  0  1  0  0  0  0  0  0  0  0  0
   26.0722   44.2983   17.2882 O   0  0  0  0  0  0  0  0  0  0  0  0
   24.5698   43.7080   15.4572 O   0  5  0  0  0  0  0  0  0  0  0  0
   26.9906   43.3857   15.1788 O   0  0  0  0  0  0  0  0  0  0  0  0
   26.9146   41.3266   17.4421 C   0  0  0  0  0  0  0  0  0  0  0  0
   25.8089   41.8302   16.7329 O   0  0  0  0  0  0  0  0  0  0  0  0
   26.6337   39.8867   17.8460 C   0  0  1  0  0  0  0  0  0  0  0  0
   26.6372   39.0837   16.6848 O   0  0  0  0  0  0  0  0  0  0  0  0
   27.6905   39.3975   18.8362 C   0  0  1  0  0  0  0  0  0  0  0  0
   27.8142   40.3239   19.8940 O   0  0  0  0  0  0  0  0  0  0  0  0
   27.4317   37.9804   19.3666 C   0  0  1  0  0  0  0  0  0  0  0  0
   27.2912   37.0824   18.2883 O   0  0  0  0  0  0  0  0  0  0  0  0
   28.5403   37.4887   20.2835 C   0  0  0  0  0  0  0  0  0  0  0  0
   28.5061   34.7675   19.5239 N   0  0  0  0  0  0  0  0  0  0  0  0
   28.5587   33.4470   19.1264 C   0  0  0  0  0  0  0  0  0  0  0  0
   28.9483   33.1565   17.9920 O   0  0  0  0  0  0  0  0  0  0  0  0
   28.1640   32.4552   20.0015 N   0  0  0  0  0  0  0  0  0  0  0  0
   27.7182   32.7788   21.2692 C   0  0  0  0  0  0  0  0  0  0  0  0
   27.6660   34.0974   21.6707 C   0  0  1  0  0  0  0  0  0  0  0  0
   27.3722   31.9045   22.0618 O   0  0  0  0  0  0  0  0  0  0  0  0
   27.1724   35.7196   23.3499 C   0  0  2  0  0  0  0  0  0  0  0  0
   27.2224   34.4020   22.9429 N   0  0  0  0  0  0  0  0  0  0  0  0
   26.7235   36.0294   24.6314 C   0  0  0  0  0  0  0  0  0  0  0  0
   26.6621   37.3552   25.0488 C   0  0  1  0  0  0  0  0  0  0  0  0
   26.1852   37.6715   26.4394 C   0  0  0  0  0  0  0  0  0  0  0  0
   27.0571   38.3751   24.1755 C   0  0  1  0  0  0  0  0  0  0  0  0
   27.0166   39.8136   24.6016 C   0  0  0  0  0  0  0  0  0  0  0  0
   27.5057   38.0613   22.8959 C   0  0  0  0  0  0  0  0  0  0  0  0
   27.5657   36.7354   22.4733 C   0  0  2  0  0  0  0  0  0  0  0  0
   28.0642   35.1001   20.7940 C   0  0  2  0  0  0  0  0  0  0  0  0
   28.0044   36.4218   21.1925 N   0  0  0  0  0  0  0  0  0  0  0  0
  1  2  1  1  0  0  0
  1  3  1  0  0  0  0
  1  4  2  0  0  0  0
  1  6  1  0  0  0  0
  5  6  1  0  0  0  0
  7  5  1  6  0  0  0
  7  8  1  0  0  0  0
  7  9  1  0  0  0  0
  9 10  1  1  0  0  0
  9 11  1  0  0  0  0
 11 12  1  6  0  0  0
 11 13  1  0  0  0  0
 13 31  1  0  0  0  0
 14 15  1  0  0  0  0
 15 16  2  0  0  0  0
 15 17  1  0  0  0  0
 17 18  1  0  0  0  0
 18 20  2  0  0  0  0
 19 18  1  1  0  0  0
 19 22  1  0  0  0  0
 19 30  1  0  0  0  0
 21 23  1  6  0  0  0
 21 29  1  0  0  0  0
 21 22  1  0  0  0  0
 23 24  1  0  0  0  0
 24 25  1  1  0  0  0
 24 26  1  0  0  0  0
 26 27  1  1  0  0  0
 26 28  1  0  0  0  0
 29 28  1  6  0  0  0
 29 31  1  0  0  0  0
 30 14  1  6  0  0  0
 30 31  1  0  0  0  0
M  CHG  1   3  -1
M  END
>  <CHROM.1>
-178.53143313,-58.31643054,69.49538753,51.08111871,54.69457202,156.40703054
-95.79316905,27.15518426,38.02282741,19.98559307,2.24922080,1.33286303,-1.28772465

>  <Name>
ligand

>  <RI>
0

>  <Rbt.Current_Directory>
/home/itssahil/PROJECTS/Mol_Feturizer/New_Systems/rnas/3F2Q

>  <Rbt.Executable>
rbdock ($Id: //depot/dev/client3/rdock/2013.1/src/exe/rbdock.cxx#4 $)

>  <Rbt.Library>
libRbt.so (2013.1, Build901 2013/11/27)

>  <Rbt.Parameter_File>
/export/apps/rDock/src/rDock_2013.1_src/data/scripts/dock_solv.prm

>  <Rbt.Receptor>
prm/pocket_docking_7.prm

>  <SCORE>
-35.6135

>  <SCORE.INTER>
-30.8411

>  <SCORE.INTER.CONST>
1

>  <SCORE.INTER.POLAR>
0

>  <SCORE.INTER.ROT>
7

>  <SCORE.INTER.SOLV>
21.3519

>  <SCORE.INTER.VDW>
-35.9447

>  <SCORE.INTER.norm>
-0.994874

>  <SCORE.INTRA>
-4.77241

>  <SCORE.INTRA.DIHEDRAL>
-6.05159

>  <SCORE.INTRA.DIHEDRAL.0>
10.0718

>  <SCORE.INTRA.POLAR>
0

>  <SCORE.INTRA.POLAR.0>
0

>  <SCORE.INTRA.REPUL>
0

>  <SCORE.INTRA.REPUL.0>
0

>  <SCORE.INTRA.SOLV>
-1.31439

>  <SCORE.INTRA.SOLV.lig_0>
-48.6963

>  <SCORE.INTRA.VDW>
-1.08942

>  <SCORE.INTRA.VDW.0>
-0.836976

>  <SCORE.INTRA.norm>
-0.153949

>  <SCORE.RESTR>
0

>  <SCORE.RESTR.CAVITY>
0

>  <SCORE.RESTR.norm>
0

>  <SCORE.SYSTEM>
0

>  <SCORE.SYSTEM.CONST>
0

>  <SCORE.SYSTEM.DIHEDRAL>
0

>  <SCORE.SYSTEM.SOLV>
0

>  <SCORE.SYSTEM.norm>
0

>  <SCORE.heavy>
31

>  <SCORE.norm>
-1.14882

>  <RMSD>
1.380

$$$$
ligand
 OpenBabel11021811473D
libRbt.so/2013.1/901 2013/11/27
 31 33  0  0  0  0  0  0  0  0999 V2000
   26.0249   42.5583   16.8998 P   0  0  1  0  0  0  0  0  0  0  0  0
   27.0205   43.5673   17.4309 O   0  0  0  0  0  0  0  0  0  0  0  0
   25.2526   42.0101   18.0695 O   0  5  0  0  0  0  0  0  0  0  0  0
   25.0778   43.2202   15.9372 O   0  0  0  0  0  0  0  0  0  0  0  0
   27.8053   40.6664   16.7190 C   0  0  0  0  0  0  0  0  0  0  0  0
   26.8017   41.4207   16.0842 O   0  0  0  0  0  0  0  0  0  0  0  0
   27.1533   39.5955   17.5812 C   0  0  1  0  0  0  0  0  0  0  0  0
   26.5334   38.6506   16.7348 O   0  0  0  0  0  0  0  0  0  0  0  0
   28.1994   38.9153   18.4641 C   0  0  1  0  0  0  0  0  0  0  0  0
   28.7616   39.8616   19.3479 O   0  0  0  0  0  0  0  0  0  0  0  0
   27.6662   37.6933   19.2249 C   0  0  1  0  0  0  0  0  0  0  0  0
   27.0761   36.7853   18.3215 O   0  0  0  0  0  0  0  0  0  0  0  0
   28.7511   36.9776   20.0137 C   0  0  0  0  0  0  0  0  0  0  0  0
   28.6107   34.2396   19.3302 N   0  0  0  0  0  0  0  0  0  0  0  0
   28.6129   32.9067   18.9728 C   0  0  0  0  0  0  0  0  0  0  0  0
   29.0349   32.5629   17.8652 O   0  0  0  0  0  0  0  0  0  0  0  0
   28.1315   31.9627   19.8573 N   0  0  0  0  0  0  0  0  0  0  0  0
   27.6494   32.3464   21.0946 C   0  0  0  0  0  0  0  0  0  0  0  0
   27.6474   33.6774   21.4562 C   0  0  1  0  0  0  0  0  0  0  0  0
   27.2261   31.5147   21.8956 O   0  0  0  0  0  0  0  0  0  0  0  0
   27.1662   35.3723   23.0657 C   0  0  2  0  0  0  0  0  0  0  0  0
   27.1663   34.0422   22.6986 N   0  0  0  0  0  0  0  0  0  0  0  0
   26.6798   35.7427   24.3171 C   0  0  0  0  0  0  0  0  0  0  0  0
   26.6683   37.0820   24.6939 C   0  0  1  0  0  0  0  0  0  0  0  0
   26.1496   37.4636   26.0529 C   0  0  0  0  0  0  0  0  0  0  0  0
   27.1513   38.0540   23.8104 C   0  0  1  0  0  0  0  0  0  0  0  0
   27.1661   39.5051   24.1936 C   0  0  0  0  0  0  0  0  0  0  0  0
   27.6372   37.6797   22.5611 C   0  0  0  0  0  0  0  0  0  0  0  0
   27.6475   36.3403   22.1790 C   0  0  2  0  0  0  0  0  0  0  0  0
   28.1329   34.6321   20.5699 C   0  0  2  0  0  0  0  0  0  0  0  0
   28.1235   35.9666   20.9280 N   0  0  0  0  0  0  0  0  0  0  0  0
  1  2  1  1  0  0  0
  1  3  1  0  0  0  0
  1  4  2  0  0  0  0
  1  6  1  0  0  0  0
  5  6  1  0  0  0  0
  7  5  1  6  0  0  0
  7  8  1  0  0  0  0
  7  9  1  0  0  0  0
  9 10  1  1  0  0  0
  9 11  1  0  0  0  0
 11 12  1  6  0  0  0
 11 13  1  0  0  0  0
 13 31  1  0  0  0  0
 14 15  1  0  0  0  0
 15 16  2  0  0  0  0
 15 17  1  0  0  0  0
 17 18  1  0  0  0  0
 18 20  2  0  0  0  0
 19 18  1  1  0  0  0
 19 22  1  0  0  0  0
 19 30  1  0  0  0  0
 21 23  1  6  0  0  0
 21 29  1  0  0  0  0
 21 22  1  0  0  0  0
 23 24  1  0  0  0  0
 24 25  1  1  0  0  0
 24 26  1  0  0  0  0
 26 27  1  1  0  0  0
 26 28  1  0  0  0  0
 29 28  1  6  0  0  0
 29 31  1  0  0  0  0
 30 14  1  6  0  0  0
 30 31  1  0  0  0  0
M  CHG  1   3  -1
M  END
>  <CHROM.1>
78.79264191,57.80864584,68.41015731,62.75797800,53.91147968,169.32567135
-84.69664833,27.30036144,37.53950699,19.93292711,2.17114299,1.33737974,-1.12996993

>  <Name>
ligand

>  <RI>
0

>  <Rbt.Current_Directory>
/home/itssahil/PROJECTS/Mol_Feturizer/New_Systems/rnas/3F2Q

>  <Rbt.Executable>
rbdock ($Id: //depot/dev/client3/rdock/2013.1/src/exe/rbdock.cxx#4 $)

>  <Rbt.Library>
libRbt.so (2013.1, Build901 2013/11/27)

>  <Rbt.Parameter_File>
/export/apps/rDock/src/rDock_2013.1_src/data/scripts/dock_solv.prm

>  <Rbt.Receptor>
prm/blind_docking_100.prm

>  <SCORE>
-36.3191

>  <SCORE.INTER>
-32.349

>  <SCORE.INTER.CONST>
1

>  <SCORE.INTER.POLAR>
0

>  <SCORE.INTER.ROT>
7

>  <SCORE.INTER.SOLV>
17.1844

>  <SCORE.INTER.VDW>
-35.5608

>  <SCORE.INTER.norm>
-1.04352

>  <SCORE.INTRA>
-3.97008

>  <SCORE.INTRA.DIHEDRAL>
-6.11166

>  <SCORE.INTRA.DIHEDRAL.0>
10.0718

>  <SCORE.INTRA.POLAR>
0

>  <SCORE.INTRA.POLAR.0>
0

>  <SCORE.INTRA.REPUL>
0

>  <SCORE.INTRA.REPUL.0>
0

>  <SCORE.INTRA.SOLV>
0.539962

>  <SCORE.INTRA.SOLV.lig_0>
-48.6963

>  <SCORE.INTRA.VDW>
-1.18423

>  <SCORE.INTRA.VDW.0>
-0.836976

>  <SCORE.INTRA.norm>
-0.128067

>  <SCORE.RESTR>
0

>  <SCORE.RESTR.CAVITY>
0

>  <SCORE.RESTR.norm>
0

>  <SCORE.SYSTEM>
0

>  <SCORE.SYSTEM.CONST>
0

>  <SCORE.SYSTEM.DIHEDRAL>
0

>  <SCORE.SYSTEM.SOLV>
0

>  <SCORE.SYSTEM.norm>
0

>  <SCORE.heavy>
31

>  <SCORE.norm>
-1.17158

>  <RMSD>
1.385

$$$$
ligand
 OpenBabel11021811473D
libRbt.so/2013.1/901 2013/11/27
 31 33  0  0  0  0  0  0  0  0999 V2000
   25.7297   42.4270   16.8398 P   0  0  1  0  0  0  0  0  0  0  0  0
   24.6860   42.9529   15.8777 O   0  0  0  0  0  0  0  0  0  0  0  0
   26.4858   43.6054   17.3920 O   0  5  0  0  0  0  0  0  0  0  0  0
   25.0691   41.6804   17.9658 O   0  0  0  0  0  0  0  0  0  0  0  0
   27.6977   40.7222   16.7884 C   0  0  0  0  0  0  0  0  0  0  0  0
   26.6782   41.3847   16.0804 O   0  0  0  0  0  0  0  0  0  0  0  0
   27.0890   39.5747   17.5809 C   0  0  1  0  0  0  0  0  0  0  0  0
   26.5357   38.6442   16.6745 O   0  0  0  0  0  0  0  0  0  0  0  0
   28.1546   38.9051   18.4486 C   0  0  1  0  0  0  0  0  0  0  0  0
   28.7081   39.8533   19.3359 O   0  0  0  0  0  0  0  0  0  0  0  0
   27.6493   37.6674   19.2031 C   0  0  1  0  0  0  0  0  0  0  0  0
   27.1477   36.7189   18.2879 O   0  0  0  0  0  0  0  0  0  0  0  0
   28.7317   37.0182   20.0507 C   0  0  0  0  0  0  0  0  0  0  0  0
   28.5658   34.2848   19.3548 N   0  0  0  0  0  0  0  0  0  0  0  0
   28.5552   32.9538   18.9903 C   0  0  0  0  0  0  0  0  0  0  0  0
   28.9594   32.6136   17.8749 O   0  0  0  0  0  0  0  0  0  0  0  0
   28.0812   32.0078   19.8766 N   0  0  0  0  0  0  0  0  0  0  0  0
   27.6191   32.3875   21.1227 C   0  0  0  0  0  0  0  0  0  0  0  0
   27.6299   33.7166   21.4914 C   0  0  1  0  0  0  0  0  0  0  0  0
   27.2025   31.5540   21.9253 O   0  0  0  0  0  0  0  0  0  0  0  0
   27.1816   35.4055   23.1166 C   0  0  2  0  0  0  0  0  0  0  0  0
   27.1687   34.0774   22.7425 N   0  0  0  0  0  0  0  0  0  0  0  0
   26.7152   35.7719   24.3768 C   0  0  0  0  0  0  0  0  0  0  0  0
   26.7169   37.1092   24.7608 C   0  0  1  0  0  0  0  0  0  0  0  0
   26.2198   37.4864   26.1291 C   0  0  0  0  0  0  0  0  0  0  0  0
   27.1927   38.0832   23.8756 C   0  0  1  0  0  0  0  0  0  0  0  0
   27.2213   39.5321   24.2663 C   0  0  0  0  0  0  0  0  0  0  0  0
   27.6584   37.7129   22.6175 C   0  0  0  0  0  0  0  0  0  0  0  0
   27.6556   36.3755   22.2282 C   0  0  2  0  0  0  0  0  0  0  0  0
   28.1081   34.6733   20.6033 C   0  0  2  0  0  0  0  0  0  0  0  0
   28.1115   36.0058   20.9685 N   0  0  0  0  0  0  0  0  0  0  0  0
  1  2  1  6  0  0  0
  1  3  1  0  0  0  0
  1  4  2  0  0  0  0
  1  6  1  0  0  0  0
  5  6  1  0  0  0  0
  7  5  1  6  0  0  0
  7  8  1  0  0  0  0
  7  9  1  0  0  0  0
  9 10  1  1  0  0  0
  9 11  1  0  0  0  0
 11 12  1  6  0  0  0
 11 13  1  0  0  0  0
 13 31  1  0  0  0  0
 14 15  1  0  0  0  0
 15 16  2  0  0  0  0
 15 17  1  0  0  0  0
 17 18  1  0  0  0  0
 18 20  2  0  0  0  0
 19 18  1  1  0  0  0
 19 22  1  0  0  0  0
 19 30  1  0  0  0  0
 21 23  1  6  0  0  0
 21 29  1  0  0  0  0
 21 22  1  0  0  0  0
 23 24  1  0  0  0  0
 24 25  1  1  0  0  0
 24 26  1  0  0  0  0
 26 27  1  1  0  0  0
 26 28  1  0  0  0  0
 29 28  1  6  0  0  0
 29 31  1  0  0  0  0
 30 14  1  6  0  0  0
 30 31  1  0  0  0  0
M  CHG  1   3  -1
M  END
>  <CHROM.1>
79.04476638,-177.58915193,63.37457879,59.17180125,57.78227256,168.31468184
-89.10175879,27.22750632,37.52723616,19.94268227,2.29216891,1.33264456,-1.27330190

>  <Name>
ligand

>  <RI>
0

>  <Rbt.Current_Directory>
/home/itssahil/PROJECTS/Mol_Feturizer/New_Systems/rnas/3F2Q

>  <Rbt.Executable>
rbdock ($Id: //depot/dev/client3/rdock/2013.1/src/exe/rbdock.cxx#4 $)

>  <Rbt.Library>
libRbt.so (2013.1, Build901 2013/11/27)

>  <Rbt.Parameter_File>
/export/apps/rDock/src/rDock_2013.1_src/data/scripts/dock_solv.prm

>  <Rbt.Receptor>
prm/pocket_docking_4.prm

>  <SCORE>
-35.5755

>  <SCORE.INTER>
-31.8956

>  <SCORE.INTER.CONST>
1

>  <SCORE.INTER.POLAR>
0

>  <SCORE.INTER.ROT>
7

>  <SCORE.INTER.SOLV>
17.6558

>  <SCORE.INTER.VDW>
-35.4156

>  <SCORE.INTER.norm>
-1.02889

>  <SCORE.INTRA>
-3.67996

>  <SCORE.INTRA.DIHEDRAL>
-6.34425

>  <SCORE.INTRA.DIHEDRAL.0>
10.0718

>  <SCORE.INTRA.POLAR>
0

>  <SCORE.INTRA.POLAR.0>
0

>  <SCORE.INTRA.REPUL>
0

>  <SCORE.INTRA.REPUL.0>
0

>  <SCORE.INTRA.SOLV>
1.43011

>  <SCORE.INTRA.SOLV.lig_0>
-48.6963

>  <SCORE.INTRA.VDW>
-1.22289

>  <SCORE.INTRA.VDW.0>
-0.836976

>  <SCORE.INTRA.norm>
-0.118708

>  <SCORE.RESTR>
0

>  <SCORE.RESTR.CAVITY>
0

>  <SCORE.RESTR.norm>
0

>  <SCORE.SYSTEM>
0

>  <SCORE.SYSTEM.CONST>
0

>  <SCORE.SYSTEM.DIHEDRAL>
0

>  <SCORE.SYSTEM.SOLV>
0

>  <SCORE.SYSTEM.norm>
0

>  <SCORE.heavy>
31

>  <SCORE.norm>
-1.1476

>  <RMSD>
1.385

$$$$
ligand
 OpenBabel11021811473D
libRbt.so/2013.1/901 2013/11/27
 31 33  0  0  0  0  0  0  0  0999 V2000
   25.7836   43.4321   16.0888 P   0  0  1  0  0  0  0  0  0  0  0  0
   26.9761   43.6366   15.1790 O   0  0  0  0  0  0  0  0  0  0  0  0
   25.8664   44.4483   17.1959 O   0  5  0  0  0  0  0  0  0  0  0  0
   24.5051   43.6273   15.3212 O   0  0  0  0  0  0  0  0  0  0  0  0
   26.8494   41.4614   17.4161 C   0  0  0  0  0  0  0  0  0  0  0  0
   25.7783   41.9260   16.6312 O   0  0  0  0  0  0  0  0  0  0  0  0
   26.5872   40.0154   17.8109 C   0  0  1  0  0  0  0  0  0  0  0  0
   26.6137   39.2180   16.6461 O   0  0  0  0  0  0  0  0  0  0  0  0
   27.6425   39.5379   18.8084 C   0  0  1  0  0  0  0  0  0  0  0  0
   27.8086   40.5056   19.8226 O   0  0  0  0  0  0  0  0  0  0  0  0
   27.3487   38.1541   19.4042 C   0  0  1  0  0  0  0  0  0  0  0  0
   27.0777   37.2340   18.3703 O   0  0  0  0  0  0  0  0  0  0  0  0
   28.4959   37.6278   20.2517 C   0  0  0  0  0  0  0  0  0  0  0  0
   28.4766   34.9075   19.4879 N   0  0  0  0  0  0  0  0  0  0  0  0
   28.5358   33.5883   19.0870 C   0  0  0  0  0  0  0  0  0  0  0  0
   28.9052   33.3041   17.9443 O   0  0  0  0  0  0  0  0  0  0  0  0
   28.1704   32.5908   19.9682 N   0  0  0  0  0  0  0  0  0  0  0  0
   27.7473   32.9073   21.2454 C   0  0  0  0  0  0  0  0  0  0  0  0
   27.6885   34.2245   21.6504 C   0  0  1  0  0  0  0  0  0  0  0  0
   27.4275   32.0279   22.0434 O   0  0  0  0  0  0  0  0  0  0  0  0
   27.2115   35.8383   23.3423 C   0  0  2  0  0  0  0  0  0  0  0  0
   27.2678   34.5221   22.9320 N   0  0  0  0  0  0  0  0  0  0  0  0
   26.7856   36.1410   24.6334 C   0  0  0  0  0  0  0  0  0  0  0  0
   26.7180   37.4654   25.0544 C   0  0  1  0  0  0  0  0  0  0  0  0
   26.2664   37.7740   26.4552 C   0  0  0  0  0  0  0  0  0  0  0  0
   27.0834   38.4910   24.1750 C   0  0  1  0  0  0  0  0  0  0  0  0
   27.0356   39.9283   24.6045 C   0  0  0  0  0  0  0  0  0  0  0  0
   27.5090   38.1844   22.8860 C   0  0  0  0  0  0  0  0  0  0  0  0
   27.5752   36.8599   22.4598 C   0  0  2  0  0  0  0  0  0  0  0  0
   28.0573   35.2331   20.7675 C   0  0  2  0  0  0  0  0  0  0  0  0
   27.9908   36.5533   21.1695 N   0  0  0  0  0  0  0  0  0  0  0  0
  1  2  1  6  0  0  0
  1  3  1  0  0  0  0
  1  4  2  0  0  0  0
  1  6  1  0  0  0  0
  5  6  1  0  0  0  0
  7  5  1  6  0  0  0
  7  8  1  0  0  0  0
  7  9  1  0  0  0  0
  9 10  1  1  0  0  0
  9 11  1  0  0  0  0
 11 12  1  6  0  0  0
 11 13  1  0  0  0  0
 13 31  1  0  0  0  0
 14 15  1  0  0  0  0
 15 16  2  0  0  0  0
 15 17  1  0  0  0  0
 17 18  1  0  0  0  0
 18 20  2  0  0  0  0
 19 18  1  1  0  0  0
 19 22  1  0  0  0  0
 19 30  1  0  0  0  0
 21 23  1  6  0  0  0
 21 29  1  0  0  0  0
 21 22  1  0  0  0  0
 23 24  1  0  0  0  0
 24 25  1  1  0  0  0
 24 26  1  0  0  0  0
 26 27  1  1  0  0  0
 26 28  1  0  0  0  0
 29 28  1  6  0  0  0
 29 31  1  0  0  0  0
 30 14  1  6  0  0  0
 30 31  1  0  0  0  0
M  CHG  1   3  -1
M  END
>  <CHROM.1>
179.27126622,61.87413428,66.01244948,47.04333153,50.76636622,160.21954738
-93.15147037,27.13220198,38.14990203,19.95726953,2.30414703,1.33620313,-1.35134383

>  <Name>
ligand

>  <RI>
0

>  <Rbt.Current_Directory>
/home/itssahil/PROJECTS/Mol_Feturizer/New_Systems/rnas/3F2Q

>  <Rbt.Executable>
rbdock ($Id: //depot/dev/client3/rdock/2013.1/src/exe/rbdock.cxx#4 $)

>  <Rbt.Library>
libRbt.so (2013.1, Build901 2013/11/27)

>  <Rbt.Parameter_File>
/export/apps/rDock/src/rDock_2013.1_src/data/scripts/dock_solv.prm

>  <Rbt.Receptor>
prm/pocket_docking_8.prm

>  <SCORE>
-36.5203

>  <SCORE.INTER>
-31.6886

>  <SCORE.INTER.CONST>
1

>  <SCORE.INTER.POLAR>
0

>  <SCORE.INTER.ROT>
7

>  <SCORE.INTER.SOLV>
19.6765

>  <SCORE.INTER.VDW>
-35.9512

>  <SCORE.INTER.norm>
-1.02221

>  <SCORE.INTRA>
-4.83167

>  <SCORE.INTRA.DIHEDRAL>
-6.21196

>  <SCORE.INTRA.DIHEDRAL.0>
10.0718

>  <SCORE.INTRA.POLAR>
0

>  <SCORE.INTRA.POLAR.0>
0

>  <SCORE.INTRA.REPUL>
0

>  <SCORE.INTRA.REPUL.0>
0

>  <SCORE.INTRA.SOLV>
-1.37255

>  <SCORE.INTRA.SOLV.lig_0>
-48.6963

>  <SCORE.INTRA.VDW>
-1.03942

>  <SCORE.INTRA.VDW.0>
-0.836976

>  <SCORE.INTRA.norm>
-0.15586

>  <SCORE.RESTR>
0

>  <SCORE.RESTR.CAVITY>
0

>  <SCORE.RESTR.norm>
0

>  <SCORE.SYSTEM>
0

>  <SCORE.SYSTEM.CONST>
0

>  <SCORE.SYSTEM.DIHEDRAL>
0

>  <SCORE.SYSTEM.SOLV>
0

>  <SCORE.SYSTEM.norm>
0

>  <SCORE.heavy>
31

>  <SCORE.norm>
-1.17807

>  <RMSD>
1.385

$$$$
ligand
 OpenBabel11021811473D
libRbt.so/2013.1/901 2013/11/27
 31 33  0  0  0  0  0  0  0  0999 V2000
   26.9176   42.5921   17.0499 P   0  0  1  0  0  0  0  0  0  0  0  0
   27.7779   43.8224   16.8559 O   0  0  0  0  0  0  0  0  0  0  0  0
   26.1100   42.7852   18.3052 O   0  5  0  0  0  0  0  0  0  0  0  0
   25.9917   42.4157   15.8780 O   0  0  0  0  0  0  0  0  0  0  0  0
   27.2738   40.0263   17.3169 C   0  0  0  0  0  0  0  0  0  0  0  0
   27.8505   41.2926   17.1088 O   0  0  0  0  0  0  0  0  0  0  0  0
   28.3703   38.9713   17.3040 C   0  0  1  0  0  0  0  0  0  0  0  0
   29.2597   39.2323   18.3691 O   0  0  0  0  0  0  0  0  0  0  0  0
   27.7649   37.5748   17.4446 C   0  0  1  0  0  0  0  0  0  0  0  0
   28.6965   36.6080   17.0088 O   0  0  0  0  0  0  0  0  0  0  0  0
   27.2586   37.2600   18.8592 C   0  0  1  0  0  0  0  0  0  0  0  0
   26.3825   36.1555   18.8208 O   0  0  0  0  0  0  0  0  0  0  0  0
   28.3893   36.9657   19.8319 C   0  0  0  0  0  0  0  0  0  0  0  0
   28.4187   34.1957   19.2753 N   0  0  0  0  0  0  0  0  0  0  0  0
   28.5008   32.8517   18.9732 C   0  0  0  0  0  0  0  0  0  0  0  0
   28.8493   32.4902   17.8457 O   0  0  0  0  0  0  0  0  0  0  0  0
   28.1817   31.9156   19.9360 N   0  0  0  0  0  0  0  0  0  0  0  0
   27.7819   32.3181   21.1964 C   0  0  0  0  0  0  0  0  0  0  0  0
   27.7005   33.6605   21.5027 C   0  0  1  0  0  0  0  0  0  0  0  0
   27.5035   31.4945   22.0662 O   0  0  0  0  0  0  0  0  0  0  0  0
   27.2249   35.3865   23.0806 C   0  0  2  0  0  0  0  0  0  0  0  0
   27.3038   34.0446   22.7689 N   0  0  0  0  0  0  0  0  0  0  0  0
   26.8232   35.7762   24.3559 C   0  0  0  0  0  0  0  0  0  0  0  0
   26.7331   37.1268   24.6779 C   0  0  1  0  0  0  0  0  0  0  0  0
   26.3080   37.5301   26.0629 C   0  0  0  0  0  0  0  0  0  0  0  0
   27.0516   38.0909   23.7148 C   0  0  1  0  0  0  0  0  0  0  0  0
   26.9787   39.5552   24.0363 C   0  0  0  0  0  0  0  0  0  0  0  0
   27.4532   37.6974   22.4418 C   0  0  0  0  0  0  0  0  0  0  0  0
   27.5417   36.3464   22.1146 C   0  0  2  0  0  0  0  0  0  0  0  0
   28.0227   34.6075   20.5373 C   0  0  2  0  0  0  0  0  0  0  0  0
   27.9334   35.9526   20.8407 N   0  0  0  0  0  0  0  0  0  0  0  0
  1  2  1  6  0  0  0
  1  3  1  0  0  0  0
  1  4  2  0  0  0  0
  1  6  1  0  0  0  0
  5  6  1  0  0  0  0
  7  5  1  1  0  0  0
  7  8  1  0  0  0  0
  7  9  1  0  0  0  0
  9 10  1  1  0  0  0
  9 11  1  0  0  0  0
 11 12  1  6  0  0  0
 11 13  1  0  0  0  0
 13 31  1  0  0  0  0
 14 15  1  0  0  0  0
 15 16  2  0  0  0  0
 15 17  1  0  0  0  0
 17 18  1  0  0  0  0
 18 20  2  0  0  0  0
 19 18  1  1  0  0  0
 19 22  1  0  0  0  0
 19 30  1  0  0  0  0
 21 23  1  6  0  0  0
 21 29  1  0  0  0  0
 21 22  1  0  0  0  0
 23 24  1  0  0  0  0
 24 25  1  1  0  0  0
 24 26  1  0  0  0  0
 26 27  1  1  0  0  0
 26 28  1  0  0  0  0
 29 28  1  6  0  0  0
 29 31  1  0  0  0  0
 30 14  1  6  0  0  0
 30 31  1  0  0  0  0
M  CHG  1   3  -1
M  END
>  <CHROM.1>
178.96795127,178.46764824,62.20489503,161.24844304,162.75367824,-146.98263518
-100.74899053,27.53484840,37.33559533,19.92034717,1.79740202,1.34299903,-0.74262562

>  <Name>
ligand

>  <RI>
0

>  <Rbt.Current_Directory>
/home/itssahil/PROJECTS/Mol_Feturizer/New_Systems/rnas/3F2Q

>  <Rbt.Executable>
rbdock ($Id: //depot/dev/client3/rdock/2013.1/src/exe/rbdock.cxx#4 $)

>  <Rbt.Library>
libRbt.so (2013.1, Build901 2013/11/27)

>  <Rbt.Parameter_File>
/export/apps/rDock/src/rDock_2013.1_src/data/scripts/dock_solv.prm

>  <Rbt.Receptor>
prm/pocket_docking_7.prm

>  <SCORE>
-34.931

>  <SCORE.INTER>
-32.3429

>  <SCORE.INTER.CONST>
1

>  <SCORE.INTER.POLAR>
0

>  <SCORE.INTER.ROT>
7

>  <SCORE.INTER.SOLV>
17.5418

>  <SCORE.INTER.VDW>
-35.6758

>  <SCORE.INTER.norm>
-1.04332

>  <SCORE.INTRA>
-2.58812

>  <SCORE.INTRA.DIHEDRAL>
-3.30501

>  <SCORE.INTRA.DIHEDRAL.0>
10.0718

>  <SCORE.INTRA.POLAR>
0

>  <SCORE.INTRA.POLAR.0>
0

>  <SCORE.INTRA.REPUL>
0

>  <SCORE.INTRA.REPUL.0>
0

>  <SCORE.INTRA.SOLV>
-0.61866

>  <SCORE.INTRA.SOLV.lig_0>
-48.6963

>  <SCORE.INTRA.VDW>
-0.626292

>  <SCORE.INTRA.VDW.0>
-0.836976

>  <SCORE.INTRA.norm>
-0.0834879

>  <SCORE.RESTR>
0

>  <SCORE.RESTR.CAVITY>
0

>  <SCORE.RESTR.norm>
0

>  <SCORE.SYSTEM>
0

>  <SCORE.SYSTEM.CONST>
0

>  <SCORE.SYSTEM.DIHEDRAL>
0

>  <SCORE.SYSTEM.SOLV>
0

>  <SCORE.SYSTEM.norm>
0

>  <SCORE.heavy>
31

>  <SCORE.norm>
-1.12681

>  <RMSD>
1.394

$$$$
ligand
 OpenBabel11021811473D
libRbt.so/2013.1/901 2013/11/27
 31 33  0  0  0  0  0  0  0  0999 V2000
   26.0287   42.5330   16.8825 P   0  0  1  0  0  0  0  0  0  0  0  0
   27.0254   43.5422   17.4113 O   0  0  0  0  0  0  0  0  0  0  0  0
   25.2431   42.0021   18.0513 O   0  5  0  0  0  0  0  0  0  0  0  0
   25.0938   43.1897   15.9044 O   0  0  0  0  0  0  0  0  0  0  0  0
   27.8142   40.6433   16.7318 C   0  0  0  0  0  0  0  0  0  0  0  0
   26.8060   41.3823   16.0861 O   0  0  0  0  0  0  0  0  0  0  0  0
   27.1695   39.5603   17.5844 C   0  0  1  0  0  0  0  0  0  0  0  0
   26.5534   38.6206   16.7297 O   0  0  0  0  0  0  0  0  0  0  0  0
   28.2209   38.8772   18.4588 C   0  0  1  0  0  0  0  0  0  0  0  0
   28.8045   39.8252   19.3267 O   0  0  0  0  0  0  0  0  0  0  0  0
   27.6861   37.6671   19.2372 C   0  0  1  0  0  0  0  0  0  0  0  0
   27.1001   36.7441   18.3464 O   0  0  0  0  0  0  0  0  0  0  0  0
   28.7689   36.9651   20.0411 C   0  0  0  0  0  0  0  0  0  0  0  0
   28.6219   34.2230   19.3757 N   0  0  0  0  0  0  0  0  0  0  0  0
   28.6209   32.8877   19.0271 C   0  0  0  0  0  0  0  0  0  0  0  0
   29.0413   32.5357   17.9215 O   0  0  0  0  0  0  0  0  0  0  0  0
   28.1380   31.9507   19.9181 N   0  0  0  0  0  0  0  0  0  0  0  0
   27.6577   32.3435   21.1532 C   0  0  0  0  0  0  0  0  0  0  0  0
   27.6589   33.6770   21.5061 C   0  0  1  0  0  0  0  0  0  0  0  0
   27.2331   31.5181   21.9600 O   0  0  0  0  0  0  0  0  0  0  0  0
   27.1827   35.3835   23.1047 C   0  0  2  0  0  0  0  0  0  0  0  0
   27.1795   34.0509   22.7464 N   0  0  0  0  0  0  0  0  0  0  0  0
   26.6980   35.7632   24.3540 C   0  0  0  0  0  0  0  0  0  0  0  0
   26.6898   37.1050   24.7220 C   0  0  1  0  0  0  0  0  0  0  0  0
   26.1729   37.4966   26.0788 C   0  0  0  0  0  0  0  0  0  0  0  0
   27.1743   38.0701   23.8318 C   0  0  1  0  0  0  0  0  0  0  0  0
   27.1926   39.5236   24.2054 C   0  0  0  0  0  0  0  0  0  0  0  0
   27.6584   37.6864   22.5846 C   0  0  0  0  0  0  0  0  0  0  0  0
   27.6655   36.3445   22.2114 C   0  0  2  0  0  0  0  0  0  0  0  0
   28.1459   34.6247   20.6132 C   0  0  2  0  0  0  0  0  0  0  0  0
   28.1398   35.9615   20.9624 N   0  0  0  0  0  0  0  0  0  0  0  0
  1  2  1  1  0  0  0
  1  3  1  0  0  0  0
  1  4  2  0  0  0  0
  1  6  1  0  0  0  0
  5  6  1  0  0  0  0
  7  5  1  6  0  0  0
  7  8  1  0  0  0  0
  7  9  1  0  0  0  0
  9 10  1  1  0  0  0
  9 11  1  0  0  0  0
 11 12  1  6  0  0  0
 11 13  1  0  0  0  0
 13 31  1  0  0  0  0
 14 15  1  0  0  0  0
 15 16  2  0  0  0  0
 15 17  1  0  0  0  0
 17 18  1  0  0  0  0
 18 20  2  0  0  0  0
 19 18  1  1  0  0  0
 19 22  1  0  0  0  0
 19 30  1  0  0  0  0
 21 23  1  6  0  0  0
 21 29  1  0  0  0  0
 21 22  1  0  0  0  0
 23 24  1  0  0  0  0
 24 25  1  1  0  0  0
 24 26  1  0  0  0  0
 26 27  1  1  0  0  0
 26 28  1  0  0  0  0
 29 28  1  6  0  0  0
 29 31  1  0  0  0  0
 30 14  1  6  0  0  0
 30 31  1  0  0  0  0
M  CHG  1   3  -1
M  END
>  <CHROM.1>
80.47674754,56.81522478,67.30189230,61.22165262,55.15174635,169.71359670
-85.32590671,27.31468452,37.52776765,19.95261790,2.17615173,1.33819250,-1.14262507

>  <Name>
ligand

>  <RI>
0

>  <Rbt.Current_Directory>
/home/itssahil/PROJECTS/Mol_Feturizer/New_Systems/rnas/3F2Q

>  <Rbt.Executable>
rbdock ($Id: //depot/dev/client3/rdock/2013.1/src/exe/rbdock.cxx#4 $)

>  <Rbt.Library>
libRbt.so (2013.1, Build901 2013/11/27)

>  <Rbt.Parameter_File>
/export/apps/rDock/src/rDock_2013.1_src/data/scripts/dock_solv.prm

>  <Rbt.Receptor>
prm/pocket_docking_6.prm

>  <SCORE>
-36.4245

>  <SCORE.INTER>
-32.3718

>  <SCORE.INTER.CONST>
1

>  <SCORE.INTER.POLAR>
0

>  <SCORE.INTER.ROT>
7

>  <SCORE.INTER.SOLV>
17.4051

>  <SCORE.INTER.VDW>
-35.6496

>  <SCORE.INTER.norm>
-1.04425

>  <SCORE.INTRA>
-4.0527

>  <SCORE.INTRA.DIHEDRAL>
-5.99151

>  <SCORE.INTRA.DIHEDRAL.0>
10.0718

>  <SCORE.INTRA.POLAR>
0

>  <SCORE.INTRA.POLAR.0>
0

>  <SCORE.INTRA.REPUL>
0

>  <SCORE.INTRA.REPUL.0>
0

>  <SCORE.INTRA.SOLV>
0.427273

>  <SCORE.INTRA.SOLV.lig_0>
-48.6963

>  <SCORE.INTRA.VDW>
-1.27058

>  <SCORE.INTRA.VDW.0>
-0.836976

>  <SCORE.INTRA.norm>
-0.130732

>  <SCORE.RESTR>
0

>  <SCORE.RESTR.CAVITY>
0

>  <SCORE.RESTR.norm>
0

>  <SCORE.SYSTEM>
0

>  <SCORE.SYSTEM.CONST>
0

>  <SCORE.SYSTEM.DIHEDRAL>
0

>  <SCORE.SYSTEM.SOLV>
0

>  <SCORE.SYSTEM.norm>
0

>  <SCORE.heavy>
31

>  <SCORE.norm>
-1.17498

>  <RMSD>
1.396

$$$$
ligand
 OpenBabel11021811473D
libRbt.so/2013.1/901 2013/11/27
 31 33  0  0  0  0  0  0  0  0999 V2000
   26.9094   42.5944   17.1213 P   0  0  1  0  0  0  0  0  0  0  0  0
   27.7564   43.8299   16.9033 O   0  0  0  0  0  0  0  0  0  0  0  0
   26.1697   42.7637   18.4211 O   0  5  0  0  0  0  0  0  0  0  0  0
   25.9225   42.4363   15.9976 O   0  0  0  0  0  0  0  0  0  0  0  0
   27.3092   40.0427   17.4538 C   0  0  0  0  0  0  0  0  0  0  0  0
   27.8459   41.2962   17.1075 O   0  0  0  0  0  0  0  0  0  0  0  0
   28.3909   38.9817   17.3135 C   0  0  1  0  0  0  0  0  0  0  0  0
   29.3682   39.1997   18.3089 O   0  0  0  0  0  0  0  0  0  0  0  0
   27.7861   37.5851   17.4565 C   0  0  1  0  0  0  0  0  0  0  0  0
   28.7205   36.6177   17.0282 O   0  0  0  0  0  0  0  0  0  0  0  0
   27.2740   37.2749   18.8700 C   0  0  1  0  0  0  0  0  0  0  0  0
   26.3885   36.1781   18.8298 O   0  0  0  0  0  0  0  0  0  0  0  0
   28.4000   36.9710   19.8452 C   0  0  0  0  0  0  0  0  0  0  0  0
   28.4430   34.2054   19.2679 N   0  0  0  0  0  0  0  0  0  0  0  0
   28.5319   32.8639   18.9564 C   0  0  0  0  0  0  0  0  0  0  0  0
   28.8910   32.5121   17.8292 O   0  0  0  0  0  0  0  0  0  0  0  0
   28.2077   31.9195   19.9093 N   0  0  0  0  0  0  0  0  0  0  0  0
   27.7960   32.3113   21.1693 C   0  0  0  0  0  0  0  0  0  0  0  0
   27.7077   33.6511   21.4851 C   0  0  1  0  0  0  0  0  0  0  0  0
   27.5129   31.4802   22.0305 O   0  0  0  0  0  0  0  0  0  0  0  0
   27.2133   35.3635   23.0719 C   0  0  2  0  0  0  0  0  0  0  0  0
   27.2991   34.0243   22.7508 N   0  0  0  0  0  0  0  0  0  0  0  0
   26.7996   35.7423   24.3467 C   0  0  0  0  0  0  0  0  0  0  0  0
   26.7024   37.0901   24.6781 C   0  0  1  0  0  0  0  0  0  0  0  0
   26.2644   37.4815   26.0624 C   0  0  0  0  0  0  0  0  0  0  0  0
   27.0259   38.0625   23.7251 C   0  0  1  0  0  0  0  0  0  0  0  0
   26.9457   39.5240   24.0570 C   0  0  0  0  0  0  0  0  0  0  0  0
   27.4396   37.6799   22.4525 C   0  0  0  0  0  0  0  0  0  0  0  0
   27.5352   36.3317   22.1159 C   0  0  2  0  0  0  0  0  0  0  0  0
   28.0350   34.6064   20.5296 C   0  0  2  0  0  0  0  0  0  0  0  0
   27.9389   35.9488   20.8424 N   0  0  0  0  0  0  0  0  0  0  0  0
  1  2  1  6  0  0  0
  1  3  1  0  0  0  0
  1  4  2  0  0  0  0
  1  6  1  0  0  0  0
  5  6  1  0  0  0  0
  7  5  1  1  0  0  0
  7  8  1  0  0  0  0
  7  9  1  0  0  0  0
  9 10  1  1  0  0  0
  9 11  1  0  0  0  0
 11 12  1  6  0  0  0
 11 13  1  0  0  0  0
 13 31  1  0  0  0  0
 14 15  1  0  0  0  0
 15 16  2  0  0  0  0
 15 17  1  0  0  0  0
 17 18  1  0  0  0  0
 18 20  2  0  0  0  0
 19 18  1  1  0  0  0
 19 22  1  0  0  0  0
 19 30  1  0  0  0  0
 21 23  1  6  0  0  0
 21 29  1  0  0  0  0
 21 22  1  0  0  0  0
 23 24  1  0  0  0  0
 24 25  1  1  0  0  0
 24 26  1  0  0  0  0
 26 27  1  1  0  0  0
 26 28  1  0  0  0  0
 29 28  1  6  0  0  0
 29 31  1  0  0  0  0
 30 14  1  6  0  0  0
 30 31  1  0  0  0  0
M  CHG  1   3  -1
M  END
>  <CHROM.1>
178.09030081,172.18535584,68.18916038,166.75357574,162.15606700,-146.25610112
-100.42990345,27.54065314,37.33081650,19.93534018,1.78902371,1.33185817,-0.72443615

>  <Name>
ligand

>  <RI>
0

>  <Rbt.Current_Directory>
/home/itssahil/PROJECTS/Mol_Feturizer/New_Systems/rnas/3F2Q

>  <Rbt.Executable>
rbdock ($Id: //depot/dev/client3/rdock/2013.1/src/exe/rbdock.cxx#4 $)

>  <Rbt.Library>
libRbt.so (2013.1, Build901 2013/11/27)

>  <Rbt.Parameter_File>
/export/apps/rDock/src/rDock_2013.1_src/data/scripts/dock_solv.prm

>  <Rbt.Receptor>
prm/pocket_docking_4.prm

>  <SCORE>
-34.9317

>  <SCORE.INTER>
-32.1907

>  <SCORE.INTER.CONST>
1

>  <SCORE.INTER.POLAR>
0

>  <SCORE.INTER.ROT>
7

>  <SCORE.INTER.SOLV>
17.2517

>  <SCORE.INTER.VDW>
-35.4777

>  <SCORE.INTER.norm>
-1.03841

>  <SCORE.INTRA>
-2.74099

>  <SCORE.INTRA.DIHEDRAL>
-3.36491

>  <SCORE.INTRA.DIHEDRAL.0>
10.0718

>  <SCORE.INTRA.POLAR>
0

>  <SCORE.INTRA.POLAR.0>
0

>  <SCORE.INTRA.REPUL>
0

>  <SCORE.INTRA.REPUL.0>
0

>  <SCORE.INTRA.SOLV>
-0.649394

>  <SCORE.INTRA.SOLV.lig_0>
-48.6963

>  <SCORE.INTRA.VDW>
-0.733837

>  <SCORE.INTRA.VDW.0>
-0.836976

>  <SCORE.INTRA.norm>
-0.0884189

>  <SCORE.RESTR>
0

>  <SCORE.RESTR.CAVITY>
0

>  <SCORE.RESTR.norm>
0

>  <SCORE.SYSTEM>
0

>  <SCORE.SYSTEM.CONST>
0

>  <SCORE.SYSTEM.DIHEDRAL>
0

>  <SCORE.SYSTEM.SOLV>
0

>  <SCORE.SYSTEM.norm>
0

>  <SCORE.heavy>
31

>  <SCORE.norm>
-1.12683

>  <RMSD>
1.403

$$$$
ligand
 OpenBabel11021811473D
libRbt.so/2013.1/901 2013/11/27
 31 33  0  0  0  0  0  0  0  0999 V2000
   26.1236   43.3920   16.9684 P   0  0  1  0  0  0  0  0  0  0  0  0
   27.5007   43.8584   16.5470 O   0  0  0  0  0  0  0  0  0  0  0  0
   25.2192   44.5944   17.0065 O   0  5  0  0  0  0  0  0  0  0  0  0
   25.5893   42.3915   15.9808 O   0  0  0  0  0  0  0  0  0  0  0  0
   26.9419   41.4435   18.4900 C   0  0  0  0  0  0  0  0  0  0  0  0
   26.2219   42.6473   18.3820 O   0  0  0  0  0  0  0  0  0  0  0  0
   27.1079   41.0925   19.9612 C   0  0  1  0  0  0  0  0  0  0  0  0
   25.8509   40.7105   20.4783 O   0  0  0  0  0  0  0  0  0  0  0  0
   28.1193   39.9581   20.1254 C   0  0  1  0  0  0  0  0  0  0  0  0
   28.8360   40.1324   21.3290 O   0  0  0  0  0  0  0  0  0  0  0  0
   27.4955   38.5577   20.0484 C   0  0  1  0  0  0  0  0  0  0  0  0
   26.8229   38.3986   18.8192 O   0  0  0  0  0  0  0  0  0  0  0  0
   28.5263   37.4503   20.1995 C   0  0  0  0  0  0  0  0  0  0  0  0
   28.5036   34.7281   19.4428 N   0  0  0  0  0  0  0  0  0  0  0  0
   28.5619   33.4073   19.0472 C   0  0  0  0  0  0  0  0  0  0  0  0
   28.9589   33.1165   17.9154 O   0  0  0  0  0  0  0  0  0  0  0  0
   28.1647   32.4155   19.9211 N   0  0  0  0  0  0  0  0  0  0  0  0
   27.7107   32.7394   21.1858 C   0  0  0  0  0  0  0  0  0  0  0  0
   27.6527   34.0583   21.5855 C   0  0  1  0  0  0  0  0  0  0  0  0
   27.3623   31.8651   21.9774 O   0  0  0  0  0  0  0  0  0  0  0  0
   27.1450   35.6811   23.2598 C   0  0  2  0  0  0  0  0  0  0  0  0
   27.2008   34.3632   22.8547 N   0  0  0  0  0  0  0  0  0  0  0  0
   26.6878   35.9912   24.5384 C   0  0  0  0  0  0  0  0  0  0  0  0
   26.6206   37.3174   24.9538 C   0  0  1  0  0  0  0  0  0  0  0  0
   26.1347   37.6340   26.3413 C   0  0  0  0  0  0  0  0  0  0  0  0
   27.0180   38.3372   24.0817 C   0  0  1  0  0  0  0  0  0  0  0  0
   26.9713   39.7761   24.5059 C   0  0  0  0  0  0  0  0  0  0  0  0
   27.4749   38.0231   22.8052 C   0  0  0  0  0  0  0  0  0  0  0  0
   27.5408   36.6969   22.3845 C   0  0  2  0  0  0  0  0  0  0  0  0
   28.0534   35.0610   20.7100 C   0  0  2  0  0  0  0  0  0  0  0  0
   27.9878   36.3830   21.1065 N   0  0  0  0  0  0  0  0  0  0  0  0
  1  2  1  6  0  0  0
  1  3  1  0  0  0  0
  1  4  2  0  0  0  0
  1  6  1  0  0  0  0
  5  6  1  0  0  0  0
  7  5  1  6  0  0  0
  7  8  1  0  0  0  0
  7  9  1  0  0  0  0
  9 10  1  1  0  0  0
  9 11  1  0  0  0  0
 11 12  1  6  0  0  0
 11 13  1  0  0  0  0
 13 31  1  0  0  0  0
 14 15  1  0  0  0  0
 15 16  2  0  0  0  0
 15 17  1  0  0  0  0
 17 18  1  0  0  0  0
 18 20  2  0  0  0  0
 19 18  1  1  0  0  0
 19 22  1  0  0  0  0
 19 30  1  0  0  0  0
 21 23  1  6  0  0  0
 21 29  1  0  0  0  0
 21 22  1  0  0  0  0
 23 24  1  0  0  0  0
 24 25  1  1  0  0  0
 24 26  1  0  0  0  0
 26 27  1  1  0  0  0
 26 28  1  0  0  0  0
 29 28  1  6  0  0  0
 29 31  1  0  0  0  0
 30 14  1  6  0  0  0
 30 31  1  0  0  0  0
M  CHG  1   3  -1
M  END
>  <CHROM.1>
169.11656871,-64.95026120,70.38302015,146.27758075,57.48542430,136.95653189
-55.22322928,27.22281748,38.18541444,20.46620617,-2.23827515,-1.34787800
2.02360585

>  <Name>
ligand

>  <RI>
0

>  <Rbt.Current_Directory>
/home/itssahil/PROJECTS/Mol_Feturizer/New_Systems/rnas/3F2Q

>  <Rbt.Executable>
rbdock ($Id: //depot/dev/client3/rdock/2013.1/src/exe/rbdock.cxx#4 $)

>  <Rbt.Library>
libRbt.so (2013.1, Build901 2013/11/27)

>  <Rbt.Parameter_File>
/export/apps/rDock/src/rDock_2013.1_src/data/scripts/dock_solv.prm

>  <Rbt.Receptor>
prm/pocket_docking_3.prm

>  <SCORE>
-33.4463

>  <SCORE.INTER>
-31.9364

>  <SCORE.INTER.CONST>
1

>  <SCORE.INTER.POLAR>
0

>  <SCORE.INTER.ROT>
7

>  <SCORE.INTER.SOLV>
18.7221

>  <SCORE.INTER.VDW>
-35.7983

>  <SCORE.INTER.norm>
-1.03021

>  <SCORE.INTRA>
-1.50988

>  <SCORE.INTRA.DIHEDRAL>
-0.370984

>  <SCORE.INTRA.DIHEDRAL.0>
10.0718

>  <SCORE.INTRA.POLAR>
0

>  <SCORE.INTRA.POLAR.0>
0

>  <SCORE.INTRA.REPUL>
0

>  <SCORE.INTRA.REPUL.0>
0

>  <SCORE.INTRA.SOLV>
-1.06588

>  <SCORE.INTRA.SOLV.lig_0>
-48.6963

>  <SCORE.INTRA.VDW>
-0.791446

>  <SCORE.INTRA.VDW.0>
-0.836976

>  <SCORE.INTRA.norm>
-0.0487057

>  <SCORE.RESTR>
0

>  <SCORE.RESTR.CAVITY>
0

>  <SCORE.RESTR.norm>
0

>  <SCORE.SYSTEM>
0

>  <SCORE.SYSTEM.CONST>
0

>  <SCORE.SYSTEM.DIHEDRAL>
0

>  <SCORE.SYSTEM.SOLV>
0

>  <SCORE.SYSTEM.norm>
0

>  <SCORE.heavy>
31

>  <SCORE.norm>
-1.07891

>  <RMSD>
1.404

$$$$
ligand
 OpenBabel11021811473D
libRbt.so/2013.1/901 2013/11/27
 31 33  0  0  0  0  0  0  0  0999 V2000
   25.7662   42.9450   16.7915 P   0  0  1  0  0  0  0  0  0  0  0  0
   26.6232   42.3112   15.7166 O   0  0  0  0  0  0  0  0  0  0  0  0
   25.7614   44.4325   16.5625 O   0  5  0  0  0  0  0  0  0  0  0  0
   24.3595   42.4189   16.7116 O   0  0  0  0  0  0  0  0  0  0  0  0
   26.7343   41.2176   18.4828 C   0  0  0  0  0  0  0  0  0  0  0  0
   26.3347   42.5432   18.2330 O   0  0  0  0  0  0  0  0  0  0  0  0
   27.2233   41.1070   19.9195 C   0  0  1  0  0  0  0  0  0  0  0  0
   26.1081   40.9029   20.7610 O   0  0  0  0  0  0  0  0  0  0  0  0
   28.2131   39.9501   20.0557 C   0  0  1  0  0  0  0  0  0  0  0  0
   29.0312   40.1567   21.1873 O   0  0  0  0  0  0  0  0  0  0  0  0
   27.5466   38.5679   20.0972 C   0  0  1  0  0  0  0  0  0  0  0  0
   26.7868   38.3660   18.9265 O   0  0  0  0  0  0  0  0  0  0  0  0
   28.5540   37.4380   20.2387 C   0  0  0  0  0  0  0  0  0  0  0  0
   28.4804   34.7065   19.5199 N   0  0  0  0  0  0  0  0  0  0  0  0
   28.5138   33.3796   19.1419 C   0  0  0  0  0  0  0  0  0  0  0  0
   28.8939   33.0672   18.0101 O   0  0  0  0  0  0  0  0  0  0  0  0
   28.1105   32.4062   20.0336 N   0  0  0  0  0  0  0  0  0  0  0  0
   27.6753   32.7545   21.2984 C   0  0  0  0  0  0  0  0  0  0  0  0
   27.6423   34.0795   21.6805 C   0  0  1  0  0  0  0  0  0  0  0  0
   27.3217   31.8967   22.1056 O   0  0  0  0  0  0  0  0  0  0  0  0
   27.1783   35.7328   23.3375 C   0  0  2  0  0  0  0  0  0  0  0  0
   27.2089   34.4088   22.9501 N   0  0  0  0  0  0  0  0  0  0  0  0
   26.7398   36.0675   24.6164 C   0  0  0  0  0  0  0  0  0  0  0  0
   26.6979   37.4001   25.0143 C   0  0  1  0  0  0  0  0  0  0  0  0
   26.2320   37.7432   26.4023 C   0  0  0  0  0  0  0  0  0  0  0  0
   27.1018   38.4015   24.1240 C   0  0  1  0  0  0  0  0  0  0  0  0
   27.0823   39.8466   24.5288 C   0  0  0  0  0  0  0  0  0  0  0  0
   27.5399   38.0629   22.8472 C   0  0  0  0  0  0  0  0  0  0  0  0
   27.5805   36.7302   22.4441 C   0  0  2  0  0  0  0  0  0  0  0  0
   28.0492   35.0637   20.7870 C   0  0  2  0  0  0  0  0  0  0  0  0
   28.0087   36.3918   21.1660 N   0  0  0  0  0  0  0  0  0  0  0  0
  1  2  1  6  0  0  0
  1  3  1  0  0  0  0
  1  4  2  0  0  0  0
  1  6  1  0  0  0  0
  5  6  1  0  0  0  0
  7  5  1  6  0  0  0
  7  8  1  0  0  0  0
  7  9  1  0  0  0  0
  9 10  1  1  0  0  0
  9 11  1  0  0  0  0
 11 12  1  6  0  0  0
 11 13  1  0  0  0  0
 13 31  1  0  0  0  0
 14 15  1  0  0  0  0
 15 16  2  0  0  0  0
 15 17  1  0  0  0  0
 17 18  1  0  0  0  0
 18 20  2  0  0  0  0
 19 18  1  1  0  0  0
 19 22  1  0  0  0  0
 19 30  1  0  0  0  0
 21 23  1  6  0  0  0
 21 29  1  0  0  0  0
 21 22  1  0  0  0  0
 23 24  1  0  0  0  0
 24 25  1  1  0  0  0
 24 26  1  0  0  0  0
 26 27  1  1  0  0  0
 26 28  1  0  0  0  0
 29 28  1  6  0  0  0
 29 31  1  0  0  0  0
 30 14  1  6  0  0  0
 30 31  1  0  0  0  0
M  CHG  1   3  -1
M  END
>  <CHROM.1>
-179.70064293,-43.33766408,84.42729087,157.47236190,58.35465238,140.74571296
-54.50578971,27.17158272,38.10614380,20.47865926,-2.45833276,-1.35366728
1.75817612

>  <Name>
ligand

>  <RI>
0

>  <Rbt.Current_Directory>
/home/itssahil/PROJECTS/Mol_Feturizer/New_Systems/rnas/3F2Q

>  <Rbt.Executable>
rbdock ($Id: //depot/dev/client3/rdock/2013.1/src/exe/rbdock.cxx#4 $)

>  <Rbt.Library>
libRbt.so (2013.1, Build901 2013/11/27)

>  <Rbt.Parameter_File>
/export/apps/rDock/src/rDock_2013.1_src/data/scripts/dock_solv.prm

>  <Rbt.Receptor>
prm/pocket_docking_3.prm

>  <SCORE>
-33.4269

>  <SCORE.INTER>
-31.6591

>  <SCORE.INTER.CONST>
1

>  <SCORE.INTER.POLAR>
0

>  <SCORE.INTER.ROT>
7

>  <SCORE.INTER.SOLV>
18.132

>  <SCORE.INTER.VDW>
-35.4167

>  <SCORE.INTER.norm>
-1.02126

>  <SCORE.INTRA>
-1.76785

>  <SCORE.INTRA.DIHEDRAL>
-1.03529

>  <SCORE.INTRA.DIHEDRAL.0>
10.0718

>  <SCORE.INTRA.POLAR>
0

>  <SCORE.INTRA.POLAR.0>
0

>  <SCORE.INTRA.REPUL>
0

>  <SCORE.INTRA.REPUL.0>
0

>  <SCORE.INTRA.SOLV>
-1.27501

>  <SCORE.INTRA.SOLV.lig_0>
-48.6963

>  <SCORE.INTRA.VDW>
-0.612704

>  <SCORE.INTRA.VDW.0>
-0.836976

>  <SCORE.INTRA.norm>
-0.0570275

>  <SCORE.RESTR>
0

>  <SCORE.RESTR.CAVITY>
0

>  <SCORE.RESTR.norm>
0

>  <SCORE.SYSTEM>
0

>  <SCORE.SYSTEM.CONST>
0

>  <SCORE.SYSTEM.DIHEDRAL>
0

>  <SCORE.SYSTEM.SOLV>
0

>  <SCORE.SYSTEM.norm>
0

>  <SCORE.heavy>
31

>  <SCORE.norm>
-1.07829

>  <RMSD>
1.405

$$$$
ligand
 OpenBabel11021811473D
libRbt.so/2013.1/901 2013/11/27
 31 33  0  0  0  0  0  0  0  0999 V2000
   25.6838   43.3848   16.3893 P   0  0  1  0  0  0  0  0  0  0  0  0
   27.0650   43.8089   15.9375 O   0  0  0  0  0  0  0  0  0  0  0  0
   25.2633   44.2964   17.5106 O   0  5  0  0  0  0  0  0  0  0  0  0
   24.7066   43.5020   15.2521 O   0  0  0  0  0  0  0  0  0  0  0  0
   26.6076   41.4162   17.8220 C   0  0  0  0  0  0  0  0  0  0  0  0
   25.7140   41.8443   16.8232 O   0  0  0  0  0  0  0  0  0  0  0  0
   26.4713   39.9112   18.0006 C   0  0  1  0  0  0  0  0  0  0  0  0
   26.7526   39.2835   16.7677 O   0  0  0  0  0  0  0  0  0  0  0  0
   27.4311   39.4162   19.0825 C   0  0  1  0  0  0  0  0  0  0  0  0
   27.2696   40.1919   20.2507 O   0  0  0  0  0  0  0  0  0  0  0  0
   27.2981   37.9178   19.3882 C   0  0  1  0  0  0  0  0  0  0  0  0
   27.2632   37.1835   18.1847 O   0  0  0  0  0  0  0  0  0  0  0  0
   28.4314   37.3965   20.2574 C   0  0  0  0  0  0  0  0  0  0  0  0
   28.5042   34.6710   19.5160 N   0  0  0  0  0  0  0  0  0  0  0  0
   28.6092   33.3505   19.1288 C   0  0  0  0  0  0  0  0  0  0  0  0
   29.0304   33.0664   18.0040 O   0  0  0  0  0  0  0  0  0  0  0  0
   28.2315   32.3514   20.0029 N   0  0  0  0  0  0  0  0  0  0  0  0
   27.7506   32.6676   21.2596 C   0  0  0  0  0  0  0  0  0  0  0  0
   27.6459   33.9861   21.6510 C   0  0  1  0  0  0  0  0  0  0  0  0
   27.4191   31.7869   22.0515 O   0  0  0  0  0  0  0  0  0  0  0  0
   27.0652   35.6010   23.3091 C   0  0  2  0  0  0  0  0  0  0  0  0
   27.1676   34.2834   22.9123 N   0  0  0  0  0  0  0  0  0  0  0  0
   26.5813   35.9033   24.5797 C   0  0  0  0  0  0  0  0  0  0  0  0
   26.4669   37.2289   24.9866 C   0  0  1  0  0  0  0  0  0  0  0  0
   25.9527   37.5374   26.3657 C   0  0  0  0  0  0  0  0  0  0  0  0
   26.8439   38.2561   24.1141 C   0  0  1  0  0  0  0  0  0  0  0  0
   26.7465   39.6951   24.5294 C   0  0  0  0  0  0  0  0  0  0  0  0
   27.3276   37.9498   22.8455 C   0  0  0  0  0  0  0  0  0  0  0  0
   27.4407   36.6241   22.4333 C   0  0  2  0  0  0  0  0  0  0  0  0
   28.0267   34.9963   20.7752 C   0  0  2  0  0  0  0  0  0  0  0  0
   27.9145   36.3176   21.1633 N   0  0  0  0  0  0  0  0  0  0  0  0
  1  2  1  6  0  0  0
  1  3  1  0  0  0  0
  1  4  2  0  0  0  0
  1  6  1  0  0  0  0
  5  6  1  0  0  0  0
  7  5  1  6  0  0  0
  7  8  1  0  0  0  0
  7  9  1  0  0  0  0
  9 10  1  1  0  0  0
  9 11  1  0  0  0  0
 11 12  1  6  0  0  0
 11 13  1  0  0  0  0
 13 31  1  0  0  0  0
 14 15  1  0  0  0  0
 15 16  2  0  0  0  0
 15 17  1  0  0  0  0
 17 18  1  0  0  0  0
 18 20  2  0  0  0  0
 19 18  1  1  0  0  0
 19 22  1  0  0  0  0
 19 30  1  0  0  0  0
 21 23  1  6  0  0  0
 21 29  1  0  0  0  0
 21 22  1  0  0  0  0
 23 24  1  0  0  0  0
 24 25  1  1  0  0  0
 24 26  1  0  0  0  0
 26 27  1  1  0  0  0
 26 28  1  0  0  0  0
 29 28  1  6  0  0  0
 29 31  1  0  0  0  0
 30 14  1  6  0  0  0
 30 31  1  0  0  0  0
M  CHG  1   3  -1
M  END
>  <CHROM.1>
-177.75098958,56.78109639,58.88399357,51.25782398,46.90339651,146.23767031
-91.54155414,27.03393528,37.98120425,20.05180328,-2.21700078,-1.29529961
1.93635593

>  <Name>
ligand

>  <RI>
0

>  <Rbt.Current_Directory>
/home/itssahil/PROJECTS/Mol_Feturizer/New_Systems/rnas/3F2Q

>  <Rbt.Executable>
rbdock ($Id: //depot/dev/client3/rdock/2013.1/src/exe/rbdock.cxx#4 $)

>  <Rbt.Library>
libRbt.so (2013.1, Build901 2013/11/27)

>  <Rbt.Parameter_File>
/export/apps/rDock/src/rDock_2013.1_src/data/scripts/dock_solv.prm

>  <Rbt.Receptor>
prm/pocket_docking_2.prm

>  <SCORE>
-35.6111

>  <SCORE.INTER>
-31.6407

>  <SCORE.INTER.CONST>
1

>  <SCORE.INTER.POLAR>
0

>  <SCORE.INTER.ROT>
7

>  <SCORE.INTER.SOLV>
19.2908

>  <SCORE.INTER.VDW>
-35.7908

>  <SCORE.INTER.norm>
-1.02067

>  <SCORE.INTRA>
-3.98594

>  <SCORE.INTRA.DIHEDRAL>
-4.44724

>  <SCORE.INTRA.DIHEDRAL.0>
10.0718

>  <SCORE.INTRA.POLAR>
0

>  <SCORE.INTRA.POLAR.0>
0

>  <SCORE.INTRA.REPUL>
0

>  <SCORE.INTRA.REPUL.0>
0

>  <SCORE.INTRA.SOLV>
-1.2973

>  <SCORE.INTRA.SOLV.lig_0>
-48.6963

>  <SCORE.INTRA.VDW>
-1.11366

>  <SCORE.INTRA.VDW.0>
-0.836976

>  <SCORE.INTRA.norm>
-0.128579

>  <SCORE.RESTR>
0.0155702

>  <SCORE.RESTR.CAVITY>
0.0155702

>  <SCORE.RESTR.norm>
0.000502265

>  <SCORE.SYSTEM>
0

>  <SCORE.SYSTEM.CONST>
0

>  <SCORE.SYSTEM.DIHEDRAL>
0

>  <SCORE.SYSTEM.SOLV>
0

>  <SCORE.SYSTEM.norm>
0

>  <SCORE.heavy>
31

>  <SCORE.norm>
-1.14874

>  <RMSD>
1.407

$$$$
ligand
 OpenBabel11021811473D
libRbt.so/2013.1/901 2013/11/27
 31 33  0  0  0  0  0  0  0  0999 V2000
   25.7639   43.2304   16.7514 P   0  0  1  0  0  0  0  0  0  0  0  0
   24.5298   43.0076   17.5992 O   0  0  0  0  0  0  0  0  0  0  0  0
   25.3302   43.2994   15.3118 O   0  5  0  0  0  0  0  0  0  0  0  0
   26.4335   44.5205   17.1376 O   0  0  0  0  0  0  0  0  0  0  0  0
   26.3592   40.7593   17.3178 C   0  0  0  0  0  0  0  0  0  0  0  0
   26.8176   42.0565   17.0240 O   0  0  0  0  0  0  0  0  0  0  0  0
   27.5471   39.8095   17.3631 C   0  0  1  0  0  0  0  0  0  0  0  0
   28.5322   40.2763   16.4659 O   0  0  0  0  0  0  0  0  0  0  0  0
   28.1111   39.7323   18.7818 C   0  0  1  0  0  0  0  0  0  0  0  0
   27.8735   40.9509   19.4534 O   0  0  0  0  0  0  0  0  0  0  0  0
   27.5847   38.5397   19.5923 C   0  0  1  0  0  0  0  0  0  0  0  0
   27.1371   37.5263   18.7197 O   0  0  0  0  0  0  0  0  0  0  0  0
   28.6332   37.9628   20.5300 C   0  0  0  0  0  0  0  0  0  0  0  0
   28.6147   35.2878   19.6203 N   0  0  0  0  0  0  0  0  0  0  0  0
   28.6767   33.9902   19.1546 C   0  0  0  0  0  0  0  0  0  0  0  0
   29.1353   33.7558   18.0330 O   0  0  0  0  0  0  0  0  0  0  0  0
   28.2141   32.9586   19.9463 N   0  0  0  0  0  0  0  0  0  0  0  0
   27.6912   33.2198   21.1989 C   0  0  0  0  0  0  0  0  0  0  0  0
   27.6293   34.5152   21.6686 C   0  0  1  0  0  0  0  0  0  0  0  0
   27.2839   32.3092   21.9182 O   0  0  0  0  0  0  0  0  0  0  0  0
   27.0480   36.0511   23.4000 C   0  0  2  0  0  0  0  0  0  0  0  0
   27.1080   34.7571   22.9248 N   0  0  0  0  0  0  0  0  0  0  0  0
   26.5210   36.2978   24.6654 C   0  0  0  0  0  0  0  0  0  0  0  0
   26.4491   37.5998   25.1507 C   0  0  1  0  0  0  0  0  0  0  0  0
   25.8870   37.8473   26.5234 C   0  0  0  0  0  0  0  0  0  0  0  0
   26.9122   38.6592   24.3623 C   0  0  1  0  0  0  0  0  0  0  0  0
   26.8620   40.0729   24.8639 C   0  0  0  0  0  0  0  0  0  0  0  0
   27.4387   38.4085   23.0986 C   0  0  0  0  0  0  0  0  0  0  0  0
   27.5097   37.1068   22.6080 C   0  0  2  0  0  0  0  0  0  0  0  0
   28.0957   35.5577   20.8760 C   0  0  2  0  0  0  0  0  0  0  0  0
   28.0265   36.8565   21.3424 N   0  0  0  0  0  0  0  0  0  0  0  0
  1  2  1  1  0  0  0
  1  3  1  0  0  0  0
  1  4  2  0  0  0  0
  1  6  1  0  0  0  0
  5  6  1  0  0  0  0
  7  5  1  1  0  0  0
  7  8  1  0  0  0  0
  7  9  1  0  0  0  0
  9 10  1  1  0  0  0
  9 11  1  0  0  0  0
 11 12  1  6  0  0  0
 11 13  1  0  0  0  0
 13 31  1  0  0  0  0
 14 15  1  0  0  0  0
 15 16  2  0  0  0  0
 15 17  1  0  0  0  0
 17 18  1  0  0  0  0
 18 20  2  0  0  0  0
 19 18  1  1  0  0  0
 19 22  1  0  0  0  0
 19 30  1  0  0  0  0
 21 23  1  6  0  0  0
 21 29  1  0  0  0  0
 21 22  1  0  0  0  0
 23 24  1  0  0  0  0
 24 25  1  1  0  0  0
 24 26  1  0  0  0  0
 26 27  1  1  0  0  0
 26 28  1  0  0  0  0
 29 28  1  6  0  0  0
 29 31  1  0  0  0  0
 30 14  1  6  0  0  0
 30 31  1  0  0  0  0
M  CHG  1   3  -1
M  END
>  <CHROM.1>
173.11222943,33.25199205,-30.74187524,-28.97678403,23.01057629,176.78309934
-94.67104628,27.20167967,38.31242430,20.13314827,2.03804168,1.26972753,-1.07849349

>  <Name>
ligand

>  <RI>
0

>  <Rbt.Current_Directory>
/home/itssahil/PROJECTS/Mol_Feturizer/New_Systems/rnas/3F2Q

>  <Rbt.Executable>
rbdock ($Id: //depot/dev/client3/rdock/2013.1/src/exe/rbdock.cxx#4 $)

>  <Rbt.Library>
libRbt.so (2013.1, Build901 2013/11/27)

>  <Rbt.Parameter_File>
/export/apps/rDock/src/rDock_2013.1_src/data/scripts/dock_solv.prm

>  <Rbt.Receptor>
prm/pocket_docking_2.prm

>  <SCORE>
-27.2037

>  <SCORE.INTER>
-28.0274

>  <SCORE.INTER.CONST>
1

>  <SCORE.INTER.POLAR>
0

>  <SCORE.INTER.ROT>
7

>  <SCORE.INTER.SOLV>
19.2301

>  <SCORE.INTER.VDW>
-33.3617

>  <SCORE.INTER.norm>
-0.90411

>  <SCORE.INTRA>
0.818832

>  <SCORE.INTRA.DIHEDRAL>
1.68958

>  <SCORE.INTRA.DIHEDRAL.0>
10.0718

>  <SCORE.INTRA.POLAR>
0

>  <SCORE.INTRA.POLAR.0>
0

>  <SCORE.INTRA.REPUL>
0

>  <SCORE.INTRA.REPUL.0>
0

>  <SCORE.INTRA.SOLV>
-1.07643

>  <SCORE.INTRA.SOLV.lig_0>
-48.6963

>  <SCORE.INTRA.VDW>
0.512257

>  <SCORE.INTRA.VDW.0>
-0.836976

>  <SCORE.INTRA.norm>
0.026414

>  <SCORE.RESTR>
0.00488181

>  <SCORE.RESTR.CAVITY>
0.00488181

>  <SCORE.RESTR.norm>
0.000157478

>  <SCORE.SYSTEM>
0

>  <SCORE.SYSTEM.CONST>
0

>  <SCORE.SYSTEM.DIHEDRAL>
0

>  <SCORE.SYSTEM.SOLV>
0

>  <SCORE.SYSTEM.norm>
0

>  <SCORE.heavy>
31

>  <SCORE.norm>
-0.877539

>  <RMSD>
1.416

$$$$
ligand
 OpenBabel11021811473D
libRbt.so/2013.1/901 2013/11/27
 31 33  0  0  0  0  0  0  0  0999 V2000
   26.1652   42.5232   16.9239 P   0  0  1  0  0  0  0  0  0  0  0  0
   24.6525   42.5564   16.9717 O   0  0  0  0  0  0  0  0  0  0  0  0
   26.5739   41.4686   15.9311 O   0  5  0  0  0  0  0  0  0  0  0  0
   26.7005   43.8594   16.4880 O   0  0  0  0  0  0  0  0  0  0  0  0
   26.0506   41.3791   19.2605 C   0  0  0  0  0  0  0  0  0  0  0  0
   26.7394   42.2457   18.3922 O   0  0  0  0  0  0  0  0  0  0  0  0
   26.8671   41.1945   20.5312 C   0  0  1  0  0  0  0  0  0  0  0  0
   25.9949   40.8250   21.5781 O   0  0  0  0  0  0  0  0  0  0  0  0
   27.9362   40.1217   20.3239 C   0  0  1  0  0  0  0  0  0  0  0  0
   28.8827   40.1874   21.3690 O   0  0  0  0  0  0  0  0  0  0  0  0
   27.3682   38.7031   20.1774 C   0  0  1  0  0  0  0  0  0  0  0  0
   26.7344   38.5667   18.9250 O   0  0  0  0  0  0  0  0  0  0  0  0
   28.4360   37.6297   20.3152 C   0  0  0  0  0  0  0  0  0  0  0  0
   28.4475   34.9122   19.5412 N   0  0  0  0  0  0  0  0  0  0  0  0
   28.5217   33.5953   19.1354 C   0  0  0  0  0  0  0  0  0  0  0  0
   28.8934   33.3196   17.9913 O   0  0  0  0  0  0  0  0  0  0  0  0
   28.1685   32.5903   20.0131 N   0  0  0  0  0  0  0  0  0  0  0  0
   27.7427   32.8972   21.2918 C   0  0  0  0  0  0  0  0  0  0  0  0
   27.6691   34.2122   21.7017 C   0  0  1  0  0  0  0  0  0  0  0  0
   27.4337   32.0112   22.0868 O   0  0  0  0  0  0  0  0  0  0  0  0
   27.1747   35.8141   23.4000 C   0  0  2  0  0  0  0  0  0  0  0  0
   27.2459   34.5001   22.9848 N   0  0  0  0  0  0  0  0  0  0  0  0
   26.7464   36.1070   24.6925 C   0  0  0  0  0  0  0  0  0  0  0  0
   26.6639   37.4290   25.1185 C   0  0  1  0  0  0  0  0  0  0  0  0
   26.2097   37.7271   26.5208 C   0  0  0  0  0  0  0  0  0  0  0  0
   27.0167   38.4620   24.2427 C   0  0  1  0  0  0  0  0  0  0  0  0
   26.9526   39.8971   24.6776 C   0  0  0  0  0  0  0  0  0  0  0  0
   27.4448   38.1650   22.9522 C   0  0  0  0  0  0  0  0  0  0  0  0
   27.5259   36.8431   22.5210 C   0  0  2  0  0  0  0  0  0  0  0  0
   28.0254   35.2282   20.8224 C   0  0  2  0  0  0  0  0  0  0  0  0
   27.9441   36.5461   21.2293 N   0  0  0  0  0  0  0  0  0  0  0  0
  1  2  1  1  0  0  0
  1  3  1  0  0  0  0
  1  4  2  0  0  0  0
  1  6  1  0  0  0  0
  5  6  1  0  0  0  0
  7  5  1  6  0  0  0
  7  8  1  0  0  0  0
  7  9  1  0  0  0  0
  9 10  1  1  0  0  0
  9 11  1  0  0  0  0
 11 12  1  6  0  0  0
 11 13  1  0  0  0  0
 13 31  1  0  0  0  0
 14 15  1  0  0  0  0
 15 16  2  0  0  0  0
 15 17  1  0  0  0  0
 17 18  1  0  0  0  0
 18 20  2  0  0  0  0
 19 18  1  1  0  0  0
 19 22  1  0  0  0  0
 19 30  1  0  0  0  0
 21 23  1  6  0  0  0
 21 29  1  0  0  0  0
 21 22  1  0  0  0  0
 23 24  1  0  0  0  0
 24 25  1  1  0  0  0
 24 26  1  0  0  0  0
 26 27  1  1  0  0  0
 26 28  1  0  0  0  0
 29 28  1  6  0  0  0
 29 31  1  0  0  0  0
 30 14  1  6  0  0  0
 30 31  1  0  0  0  0
M  CHG  1   3  -1
M  END
>  <CHROM.1>
174.98075376,36.10259116,155.79942299,165.67609621,72.19921770,133.77278007
-56.35411222,27.18971319,38.11180776,20.62441081,-2.31511193,-1.35138792
1.89089495

>  <Name>
ligand

>  <RI>
0

>  <Rbt.Current_Directory>
/home/itssahil/PROJECTS/Mol_Feturizer/New_Systems/rnas/3F2Q

>  <Rbt.Executable>
rbdock ($Id: //depot/dev/client3/rdock/2013.1/src/exe/rbdock.cxx#4 $)

>  <Rbt.Library>
libRbt.so (2013.1, Build901 2013/11/27)

>  <Rbt.Parameter_File>
/export/apps/rDock/src/rDock_2013.1_src/data/scripts/dock_solv.prm

>  <Rbt.Receptor>
prm/pocket_docking_6.prm

>  <SCORE>
-32.3831

>  <SCORE.INTER>
-30.8596

>  <SCORE.INTER.CONST>
1

>  <SCORE.INTER.POLAR>
0

>  <SCORE.INTER.ROT>
7

>  <SCORE.INTER.SOLV>
19.6642

>  <SCORE.INTER.VDW>
-35.3945

>  <SCORE.INTER.norm>
-0.995472

>  <SCORE.INTRA>
-1.5235

>  <SCORE.INTRA.DIHEDRAL>
-0.182514

>  <SCORE.INTRA.DIHEDRAL.0>
10.0718

>  <SCORE.INTRA.POLAR>
0

>  <SCORE.INTRA.POLAR.0>
0

>  <SCORE.INTRA.REPUL>
0

>  <SCORE.INTRA.REPUL.0>
0

>  <SCORE.INTRA.SOLV>
-0.989238

>  <SCORE.INTRA.SOLV.lig_0>
-48.6963

>  <SCORE.INTRA.VDW>
-0.937623

>  <SCORE.INTRA.VDW.0>
-0.836976

>  <SCORE.INTRA.norm>
-0.0491451

>  <SCORE.RESTR>
0

>  <SCORE.RESTR.CAVITY>
0

>  <SCORE.RESTR.norm>
0

>  <SCORE.SYSTEM>
0

>  <SCORE.SYSTEM.CONST>
0

>  <SCORE.SYSTEM.DIHEDRAL>
0

>  <SCORE.SYSTEM.SOLV>
0

>  <SCORE.SYSTEM.norm>
0

>  <SCORE.heavy>
31

>  <SCORE.norm>
-1.04462

>  <RMSD>
1.429

$$$$
ligand
 OpenBabel11021811473D
libRbt.so/2013.1/901 2013/11/27
 31 33  0  0  0  0  0  0  0  0999 V2000
   25.8025   43.4509   16.0814 P   0  0  1  0  0  0  0  0  0  0  0  0
   27.0271   43.6761   15.2204 O   0  0  0  0  0  0  0  0  0  0  0  0
   25.8264   44.4639   17.1941 O   0  5  0  0  0  0  0  0  0  0  0  0
   24.5528   43.6303   15.2641 O   0  0  0  0  0  0  0  0  0  0  0  0
   26.8302   41.4983   17.4644 C   0  0  0  0  0  0  0  0  0  0  0  0
   25.7979   41.9428   16.6182 O   0  0  0  0  0  0  0  0  0  0  0  0
   26.5509   40.0609   17.8785 C   0  0  1  0  0  0  0  0  0  0  0  0
   26.6401   39.2369   16.7355 O   0  0  0  0  0  0  0  0  0  0  0  0
   27.5535   39.6102   18.9406 C   0  0  1  0  0  0  0  0  0  0  0  0
   27.6035   40.5635   19.9804 O   0  0  0  0  0  0  0  0  0  0  0  0
   27.2813   38.2030   19.4901 C   0  0  1  0  0  0  0  0  0  0  0  0
   27.0561   37.3068   18.4247 O   0  0  0  0  0  0  0  0  0  0  0  0
   28.4224   37.6805   20.3483 C   0  0  0  0  0  0  0  0  0  0  0  0
   28.4383   34.9668   19.5613 N   0  0  0  0  0  0  0  0  0  0  0  0
   28.5151   33.6517   19.1500 C   0  0  0  0  0  0  0  0  0  0  0  0
   28.9016   33.3807   18.0097 O   0  0  0  0  0  0  0  0  0  0  0  0
   28.1478   32.6433   20.0179 N   0  0  0  0  0  0  0  0  0  0  0  0
   27.7054   32.9449   21.2922 C   0  0  0  0  0  0  0  0  0  0  0  0
   27.6291   34.2580   21.7075 C   0  0  1  0  0  0  0  0  0  0  0  0
   27.3837   32.0557   22.0786 O   0  0  0  0  0  0  0  0  0  0  0  0
   27.1154   35.8528   23.4068 C   0  0  2  0  0  0  0  0  0  0  0  0
   27.1893   34.5407   22.9862 N   0  0  0  0  0  0  0  0  0  0  0  0
   26.6702   36.1404   24.6948 C   0  0  0  0  0  0  0  0  0  0  0  0
   26.5848   37.4604   25.1261 C   0  0  1  0  0  0  0  0  0  0  0  0
   26.1124   37.7528   26.5236 C   0  0  0  0  0  0  0  0  0  0  0  0
   26.9518   38.4969   24.2603 C   0  0  1  0  0  0  0  0  0  0  0  0
   26.8850   39.9300   24.7012 C   0  0  0  0  0  0  0  0  0  0  0  0
   27.3967   38.2053   22.9742 C   0  0  0  0  0  0  0  0  0  0  0  0
   27.4807   36.8852   22.5377 C   0  0  2  0  0  0  0  0  0  0  0  0
   27.9996   35.2775   20.8381 C   0  0  2  0  0  0  0  0  0  0  0  0
   27.9157   36.5936   21.2504 N   0  0  0  0  0  0  0  0  0  0  0  0
  1  2  1  6  0  0  0
  1  3  1  0  0  0  0
  1  4  2  0  0  0  0
  1  6  1  0  0  0  0
  5  6  1  0  0  0  0
  7  5  1  6  0  0  0
  7  8  1  0  0  0  0
  7  9  1  0  0  0  0
  9 10  1  1  0  0  0
  9 11  1  0  0  0  0
 11 12  1  6  0  0  0
 11 13  1  0  0  0  0
 13 31  1  0  0  0  0
 14 15  1  0  0  0  0
 15 16  2  0  0  0  0
 15 17  1  0  0  0  0
 17 18  1  0  0  0  0
 18 20  2  0  0  0  0
 19 18  1  1  0  0  0
 19 22  1  0  0  0  0
 19 30  1  0  0  0  0
 21 23  1  6  0  0  0
 21 29  1  0  0  0  0
 21 22  1  0  0  0  0
 23 24  1  0  0  0  0
 24 25  1  1  0  0  0
 24 26  1  0  0  0  0
 26 27  1  1  0  0  0
 26 28  1  0  0  0  0
 29 28  1  6  0  0  0
 29 31  1  0  0  0  0
 30 14  1  6  0  0  0
 30 31  1  0  0  0  0
M  CHG  1   3  -1
M  END
>  <CHROM.1>
177.28801225,63.09311418,66.24115322,50.59957500,47.68999904,158.68159939
-93.17493164,27.07893701,38.18167853,20.01484822,2.22786237,1.32829729,-1.28305590

>  <Name>
ligand

>  <RI>
0

>  <Rbt.Current_Directory>
/home/itssahil/PROJECTS/Mol_Feturizer/New_Systems/rnas/3F2Q

>  <Rbt.Executable>
rbdock ($Id: //depot/dev/client3/rdock/2013.1/src/exe/rbdock.cxx#4 $)

>  <Rbt.Library>
libRbt.so (2013.1, Build901 2013/11/27)

>  <Rbt.Parameter_File>
/export/apps/rDock/src/rDock_2013.1_src/data/scripts/dock_solv.prm

>  <Rbt.Receptor>
prm/pocket_docking_3.prm

>  <SCORE>
-36.4002

>  <SCORE.INTER>
-31.6897

>  <SCORE.INTER.CONST>
1

>  <SCORE.INTER.POLAR>
0

>  <SCORE.INTER.ROT>
7

>  <SCORE.INTER.SOLV>
19.8478

>  <SCORE.INTER.VDW>
-36.0091

>  <SCORE.INTER.norm>
-1.02225

>  <SCORE.INTRA>
-4.71055

>  <SCORE.INTRA.DIHEDRAL>
-6.0059

>  <SCORE.INTRA.DIHEDRAL.0>
10.0718

>  <SCORE.INTRA.POLAR>
0

>  <SCORE.INTRA.POLAR.0>
0

>  <SCORE.INTRA.REPUL>
0

>  <SCORE.INTRA.REPUL.0>
0

>  <SCORE.INTRA.SOLV>
-1.34091

>  <SCORE.INTRA.SOLV.lig_0>
-48.6963

>  <SCORE.INTRA.VDW>
-1.03715

>  <SCORE.INTRA.VDW.0>
-0.836976

>  <SCORE.INTRA.norm>
-0.151953

>  <SCORE.RESTR>
0

>  <SCORE.RESTR.CAVITY>
0

>  <SCORE.RESTR.norm>
0

>  <SCORE.SYSTEM>
0

>  <SCORE.SYSTEM.CONST>
0

>  <SCORE.SYSTEM.DIHEDRAL>
0

>  <SCORE.SYSTEM.SOLV>
0

>  <SCORE.SYSTEM.norm>
0

>  <SCORE.heavy>
31

>  <SCORE.norm>
-1.1742

>  <RMSD>
1.430

$$$$
ligand
 OpenBabel11021811473D
libRbt.so/2013.1/901 2013/11/27
 31 33  0  0  0  0  0  0  0  0999 V2000
   25.7462   43.4092   16.1095 P   0  0  1  0  0  0  0  0  0  0  0  0
   25.7802   44.4011   17.2525 O   0  0  0  0  0  0  0  0  0  0  0  0
   24.5319   43.7090   15.2724 O   0  5  0  0  0  0  0  0  0  0  0  0
   26.9844   43.5453   15.2667 O   0  0  0  0  0  0  0  0  0  0  0  0
   26.7993   41.4862   17.5147 C   0  0  0  0  0  0  0  0  0  0  0  0
   25.7407   41.9196   16.6957 O   0  0  0  0  0  0  0  0  0  0  0  0
   26.5629   40.0355   17.9084 C   0  0  1  0  0  0  0  0  0  0  0  0
   26.6342   39.2357   16.7471 O   0  0  0  0  0  0  0  0  0  0  0  0
   27.6068   39.5861   18.9306 C   0  0  1  0  0  0  0  0  0  0  0  0
   27.6282   40.4895   20.0150 O   0  0  0  0  0  0  0  0  0  0  0  0
   27.4163   38.1419   19.4147 C   0  0  1  0  0  0  0  0  0  0  0  0
   27.4001   37.2639   18.3112 O   0  0  0  0  0  0  0  0  0  0  0  0
   28.5018   37.7034   20.3847 C   0  0  0  0  0  0  0  0  0  0  0  0
   28.5119   34.9939   19.5834 N   0  0  0  0  0  0  0  0  0  0  0  0
   28.5863   33.6805   19.1664 C   0  0  0  0  0  0  0  0  0  0  0  0
   28.9899   33.4128   18.0312 O   0  0  0  0  0  0  0  0  0  0  0  0
   28.1976   32.6700   20.0226 N   0  0  0  0  0  0  0  0  0  0  0  0
   27.7363   32.9681   21.2910 C   0  0  0  0  0  0  0  0  0  0  0  0
   27.6623   34.2794   21.7121 C   0  0  1  0  0  0  0  0  0  0  0  0
   27.3954   32.0770   22.0671 O   0  0  0  0  0  0  0  0  0  0  0  0
   27.1315   35.8688   23.4112 C   0  0  2  0  0  0  0  0  0  0  0  0
   27.2032   34.5584   22.9848 N   0  0  0  0  0  0  0  0  0  0  0  0
   26.6670   36.1527   24.6932 C   0  0  0  0  0  0  0  0  0  0  0  0
   26.5837   37.4710   25.1302 C   0  0  1  0  0  0  0  0  0  0  0  0
   26.0901   37.7593   26.5211 C   0  0  0  0  0  0  0  0  0  0  0  0
   26.9722   38.5094   24.2761 C   0  0  1  0  0  0  0  0  0  0  0  0
   26.9081   39.9406   24.7237 C   0  0  0  0  0  0  0  0  0  0  0  0
   27.4363   38.2215   22.9960 C   0  0  0  0  0  0  0  0  0  0  0  0
   27.5184   36.9032   22.5539 C   0  0  2  0  0  0  0  0  0  0  0  0
   28.0543   35.3009   20.8544 C   0  0  2  0  0  0  0  0  0  0  0  0
   27.9727   36.6153   21.2724 N   0  0  0  0  0  0  0  0  0  0  0  0
  1  2  1  1  0  0  0
  1  3  1  0  0  0  0
  1  4  2  0  0  0  0
  1  6  1  0  0  0  0
  5  6  1  0  0  0  0
  7  5  1  6  0  0  0
  7  8  1  0  0  0  0
  7  9  1  0  0  0  0
  9 10  1  1  0  0  0
  9 11  1  0  0  0  0
 11 12  1  6  0  0  0
 11 13  1  0  0  0  0
 13 31  1  0  0  0  0
 14 15  1  0  0  0  0
 15 16  2  0  0  0  0
 15 17  1  0  0  0  0
 17 18  1  0  0  0  0
 18 20  2  0  0  0  0
 19 18  1  1  0  0  0
 19 22  1  0  0  0  0
 19 30  1  0  0  0  0
 21 23  1  6  0  0  0
 21 29  1  0  0  0  0
 21 22  1  0  0  0  0
 23 24  1  0  0  0  0
 24 25  1  1  0  0  0
 24 26  1  0  0  0  0
 26 27  1  1  0  0  0
 26 28  1  0  0  0  0
 29 28  1  6  0  0  0
 29 31  1  0  0  0  0
 30 14  1  6  0  0  0
 30 31  1  0  0  0  0
M  CHG  1   3  -1
M  END
>  <CHROM.1>
-178.84404710,-59.07656243,65.52797118,53.09854975,55.68907355,154.29055797
-98.82131881,27.10706001,38.17706626,20.02737821,2.22426363,1.31362834,-1.27871825

>  <Name>
ligand

>  <RI>
0

>  <Rbt.Current_Directory>
/home/itssahil/PROJECTS/Mol_Feturizer/New_Systems/rnas/3F2Q

>  <Rbt.Executable>
rbdock ($Id: //depot/dev/client3/rdock/2013.1/src/exe/rbdock.cxx#4 $)

>  <Rbt.Library>
libRbt.so (2013.1, Build901 2013/11/27)

>  <Rbt.Parameter_File>
/export/apps/rDock/src/rDock_2013.1_src/data/scripts/dock_solv.prm

>  <Rbt.Receptor>
prm/pocket_docking_6.prm

>  <SCORE>
-35.5222

>  <SCORE.INTER>
-30.7412

>  <SCORE.INTER.CONST>
1

>  <SCORE.INTER.POLAR>
0

>  <SCORE.INTER.ROT>
7

>  <SCORE.INTER.SOLV>
21.2162

>  <SCORE.INTER.VDW>
-35.8329

>  <SCORE.INTER.norm>
-0.991651

>  <SCORE.INTRA>
-4.78103

>  <SCORE.INTRA.DIHEDRAL>
-6.13999

>  <SCORE.INTRA.DIHEDRAL.0>
10.0718

>  <SCORE.INTRA.POLAR>
0

>  <SCORE.INTRA.POLAR.0>
0

>  <SCORE.INTRA.REPUL>
0

>  <SCORE.INTRA.REPUL.0>
0

>  <SCORE.INTRA.SOLV>
-1.26387

>  <SCORE.INTRA.SOLV.lig_0>
-48.6963

>  <SCORE.INTRA.VDW>
-1.0791

>  <SCORE.INTRA.VDW.0>
-0.836976

>  <SCORE.INTRA.norm>
-0.154227

>  <SCORE.RESTR>
0

>  <SCORE.RESTR.CAVITY>
0

>  <SCORE.RESTR.norm>
0

>  <SCORE.SYSTEM>
0

>  <SCORE.SYSTEM.CONST>
0

>  <SCORE.SYSTEM.DIHEDRAL>
0

>  <SCORE.SYSTEM.SOLV>
0

>  <SCORE.SYSTEM.norm>
0

>  <SCORE.heavy>
31

>  <SCORE.norm>
-1.14588

>  <RMSD>
1.436

$$$$
ligand
 OpenBabel11021811473D
libRbt.so/2013.1/901 2013/11/27
 31 33  0  0  0  0  0  0  0  0999 V2000
   24.9983   42.0999   18.0935 P   0  0  1  0  0  0  0  0  0  0  0  0
   23.9186   41.1381   18.5417 O   0  0  0  0  0  0  0  0  0  0  0  0
   24.3338   43.2297   17.3539 O   0  5  0  0  0  0  0  0  0  0  0  0
   25.7366   42.6440   19.2854 O   0  0  0  0  0  0  0  0  0  0  0  0
   26.5664   40.0743   17.6246 C   0  0  0  0  0  0  0  0  0  0  0  0
   26.0695   41.3189   17.1963 O   0  0  0  0  0  0  0  0  0  0  0  0
   27.4967   40.2903   18.8092 C   0  0  1  0  0  0  0  0  0  0  0  0
   26.7141   40.4652   19.9712 O   0  0  0  0  0  0  0  0  0  0  0  0
   28.4343   39.0941   18.9726 C   0  0  1  0  0  0  0  0  0  0  0  0
   29.5753   39.4829   19.7072 O   0  0  0  0  0  0  0  0  0  0  0  0
   27.7634   37.8637   19.5990 C   0  0  1  0  0  0  0  0  0  0  0  0
   26.7536   37.3792   18.7420 O   0  0  0  0  0  0  0  0  0  0  0  0
   28.7507   36.7445   19.8887 C   0  0  0  0  0  0  0  0  0  0  0  0
   28.6408   33.9938   19.2522 N   0  0  0  0  0  0  0  0  0  0  0  0
   28.6581   32.6548   18.9186 C   0  0  0  0  0  0  0  0  0  0  0  0
   29.0969   32.2950   17.8226 O   0  0  0  0  0  0  0  0  0  0  0  0
   28.1732   31.7227   19.8136 N   0  0  0  0  0  0  0  0  0  0  0  0
   27.6725   32.1241   21.0378 C   0  0  0  0  0  0  0  0  0  0  0  0
   27.6553   33.4613   21.3757 C   0  0  1  0  0  0  0  0  0  0  0  0
   27.2457   31.3033   21.8481 O   0  0  0  0  0  0  0  0  0  0  0  0
   27.1403   35.1803   22.9487 C   0  0  2  0  0  0  0  0  0  0  0  0
   27.1556   33.8440   22.6054 N   0  0  0  0  0  0  0  0  0  0  0  0
   26.6351   35.5688   24.1872 C   0  0  0  0  0  0  0  0  0  0  0  0
   26.6083   36.9144   24.5399 C   0  0  1  0  0  0  0  0  0  0  0  0
   26.0694   37.3156   25.8853 C   0  0  0  0  0  0  0  0  0  0  0  0
   27.0946   37.8746   23.6454 C   0  0  1  0  0  0  0  0  0  0  0  0
   27.0929   39.3323   24.0030 C   0  0  0  0  0  0  0  0  0  0  0  0
   27.5991   37.4823   22.4091 C   0  0  0  0  0  0  0  0  0  0  0  0
   27.6250   36.1365   22.0511 C   0  0  2  0  0  0  0  0  0  0  0  0
   28.1442   34.4042   20.4787 C   0  0  2  0  0  0  0  0  0  0  0  0
   28.1197   35.7446   20.8129 N   0  0  0  0  0  0  0  0  0  0  0  0
  1  2  1  1  0  0  0
  1  3  1  0  0  0  0
  1  4  2  0  0  0  0
  1  6  1  0  0  0  0
  5  6  1  0  0  0  0
  7  5  1  6  0  0  0
  7  8  1  0  0  0  0
  7  9  1  0  0  0  0
  9 10  1  1  0  0  0
  9 11  1  0  0  0  0
 11 12  1  6  0  0  0
 11 13  1  0  0  0  0
 13 31  1  0  0  0  0
 14 15  1  0  0  0  0
 15 16  2  0  0  0  0
 15 17  1  0  0  0  0
 17 18  1  0  0  0  0
 18 20  2  0  0  0  0
 19 18  1  1  0  0  0
 19 22  1  0  0  0  0
 19 30  1  0  0  0  0
 21 23  1  6  0  0  0
 21 29  1  0  0  0  0
 21 22  1  0  0  0  0
 23 24  1  0  0  0  0
 24 25  1  1  0  0  0
 24 26  1  0  0  0  0
 26 27  1  1  0  0  0
 26 28  1  0  0  0  0
 29 28  1  6  0  0  0
 29 31  1  0  0  0  0
 30 14  1  6  0  0  0
 30 31  1  0  0  0  0
M  CHG  1   3  -1
M  END
>  <CHROM.1>
-71.56512219,-46.21471013,79.74939612,158.48777726,64.36440420,165.04034514
-57.12005490,27.08339917,37.40678928,20.36198410,-2.48932906,-1.25812080
1.91995151

>  <Name>
ligand

>  <RI>
0

>  <Rbt.Current_Directory>
/home/itssahil/PROJECTS/Mol_Feturizer/New_Systems/rnas/3F2Q

>  <Rbt.Executable>
rbdock ($Id: //depot/dev/client3/rdock/2013.1/src/exe/rbdock.cxx#4 $)

>  <Rbt.Library>
libRbt.so (2013.1, Build901 2013/11/27)

>  <Rbt.Parameter_File>
/export/apps/rDock/src/rDock_2013.1_src/data/scripts/dock_solv.prm

>  <Rbt.Receptor>
prm/pocket_docking_3.prm

>  <SCORE>
-31.2278

>  <SCORE.INTER>
-29.8029

>  <SCORE.INTER.CONST>
1

>  <SCORE.INTER.POLAR>
0

>  <SCORE.INTER.ROT>
7

>  <SCORE.INTER.SOLV>
17.496

>  <SCORE.INTER.VDW>
-33.9673

>  <SCORE.INTER.norm>
-0.961384

>  <SCORE.INTRA>
-1.44408

>  <SCORE.INTRA.DIHEDRAL>
-4.25917

>  <SCORE.INTRA.DIHEDRAL.0>
10.0718

>  <SCORE.INTRA.POLAR>
0

>  <SCORE.INTRA.POLAR.0>
0

>  <SCORE.INTRA.REPUL>
0

>  <SCORE.INTRA.REPUL.0>
0

>  <SCORE.INTRA.SOLV>
1.53595

>  <SCORE.INTRA.SOLV.lig_0>
-48.6963

>  <SCORE.INTRA.VDW>
-0.0824699

>  <SCORE.INTRA.VDW.0>
-0.836976

>  <SCORE.INTRA.norm>
-0.0465832

>  <SCORE.RESTR>
0.0191473

>  <SCORE.RESTR.CAVITY>
0.0191473

>  <SCORE.RESTR.norm>
0.000617654

>  <SCORE.SYSTEM>
0

>  <SCORE.SYSTEM.CONST>
0

>  <SCORE.SYSTEM.DIHEDRAL>
0

>  <SCORE.SYSTEM.SOLV>
0

>  <SCORE.SYSTEM.norm>
0

>  <SCORE.heavy>
31

>  <SCORE.norm>
-1.00735

>  <RMSD>
1.439

$$$$
ligand
 OpenBabel11021811473D
libRbt.so/2013.1/901 2013/11/27
 31 33  0  0  0  0  0  0  0  0999 V2000
   26.7065   41.6891   17.1785 P   0  0  1  0  0  0  0  0  0  0  0  0
   27.6320   40.7185   16.4765 O   0  0  0  0  0  0  0  0  0  0  0  0
   27.5563   42.6729   17.9368 O   0  5  0  0  0  0  0  0  0  0  0  0
   25.8634   42.4230   16.1724 O   0  0  0  0  0  0  0  0  0  0  0  0
   26.1105   40.5086   19.4219 C   0  0  0  0  0  0  0  0  0  0  0  0
   25.7034   40.8787   18.1271 O   0  0  0  0  0  0  0  0  0  0  0  0
   27.2698   39.5285   19.3186 C   0  0  1  0  0  0  0  0  0  0  0  0
   28.0600   39.6402   20.4833 O   0  0  0  0  0  0  0  0  0  0  0  0
   26.7456   38.1008   19.1646 C   0  0  1  0  0  0  0  0  0  0  0  0
   25.7308   38.0715   18.1839 O   0  0  0  0  0  0  0  0  0  0  0  0
   27.8412   37.0694   18.8609 C   0  0  1  0  0  0  0  0  0  0  0  0
   28.6360   37.5160   17.7849 O   0  0  0  0  0  0  0  0  0  0  0  0
   28.7344   36.7960   20.0605 C   0  0  0  0  0  0  0  0  0  0  0  0
   28.6349   34.0561   19.3777 N   0  0  0  0  0  0  0  0  0  0  0  0
   28.6578   32.7226   19.0232 C   0  0  0  0  0  0  0  0  0  0  0  0
   29.1216   32.3794   17.9322 O   0  0  0  0  0  0  0  0  0  0  0  0
   28.1504   31.7773   19.8916 N   0  0  0  0  0  0  0  0  0  0  0  0
   27.6218   32.1602   21.1099 C   0  0  0  0  0  0  0  0  0  0  0  0
   27.5988   33.4918   21.4686 C   0  0  1  0  0  0  0  0  0  0  0  0
   27.1747   31.3274   21.8968 O   0  0  0  0  0  0  0  0  0  0  0  0
   27.0499   35.1866   23.0565 C   0  0  2  0  0  0  0  0  0  0  0  0
   27.0711   33.8558   22.6922 N   0  0  0  0  0  0  0  0  0  0  0  0
   26.5165   35.5563   24.2888 C   0  0  0  0  0  0  0  0  0  0  0  0
   26.4835   36.8961   24.6623 C   0  0  1  0  0  0  0  0  0  0  0  0
   25.9138   37.2769   26.0009 C   0  0  0  0  0  0  0  0  0  0  0  0
   26.9923   37.8695   23.7949 C   0  0  1  0  0  0  0  0  0  0  0  0
   26.9847   39.3212   24.1756 C   0  0  0  0  0  0  0  0  0  0  0  0
   27.5251   37.4959   22.5647 C   0  0  0  0  0  0  0  0  0  0  0  0
   27.5572   36.1559   22.1858 C   0  0  2  0  0  0  0  0  0  0  0  0
   28.1103   34.4479   20.5986 C   0  0  2  0  0  0  0  0  0  0  0  0
   28.0802   35.7829   20.9535 N   0  0  0  0  0  0  0  0  0  0  0  0
  1  2  1  6  0  0  0
  1  3  1  0  0  0  0
  1  4  2  0  0  0  0
  1  6  1  0  0  0  0
  5  6  1  0  0  0  0
  7  5  1  1  0  0  0
  7  8  1  0  0  0  0
  7  9  1  0  0  0  0
  9 10  1  6  0  0  0
  9 11  1  0  0  0  0
 11 12  1  6  0  0  0
 11 13  1  0  0  0  0
 13 31  1  0  0  0  0
 14 15  1  0  0  0  0
 15 16  2  0  0  0  0
 15 17  1  0  0  0  0
 17 18  1  0  0  0  0
 18 20  2  0  0  0  0
 19 18  1  1  0  0  0
 19 22  1  0  0  0  0
 19 30  1  0  0  0  0
 21 23  1  6  0  0  0
 21 29  1  0  0  0  0
 21 22  1  0  0  0  0
 23 24  1  0  0  0  0
 24 25  1  1  0  0  0
 24 26  1  0  0  0  0
 26 27  1  1  0  0  0
 26 28  1  0  0  0  0
 29 28  1  6  0  0  0
 29 31  1  0  0  0  0
 30 14  1  6  0  0  0
 30 31  1  0  0  0  0
M  CHG  1   3  -1
M  END
>  <CHROM.1>
-64.39159956,84.07320825,152.71389405,46.87449343,-50.34491181,83.14948249
-108.67079980,27.31574148,37.19846074,20.21814629,-1.97934837,-1.31552161
2.25835879

>  <Name>
ligand

>  <RI>
0

>  <Rbt.Current_Directory>
/home/itssahil/PROJECTS/Mol_Feturizer/New_Systems/rnas/3F2Q

>  <Rbt.Executable>
rbdock ($Id: //depot/dev/client3/rdock/2013.1/src/exe/rbdock.cxx#4 $)

>  <Rbt.Library>
libRbt.so (2013.1, Build901 2013/11/27)

>  <Rbt.Parameter_File>
/export/apps/rDock/src/rDock_2013.1_src/data/scripts/dock_solv.prm

>  <Rbt.Receptor>
prm/pocket_docking_2.prm

>  <SCORE>
-31.3416

>  <SCORE.INTER>
-28.5655

>  <SCORE.INTER.CONST>
1

>  <SCORE.INTER.POLAR>
0

>  <SCORE.INTER.ROT>
7

>  <SCORE.INTER.SOLV>
17.2529

>  <SCORE.INTER.VDW>
-33.0613

>  <SCORE.INTER.norm>
-0.921467

>  <SCORE.INTRA>
-3.02353

>  <SCORE.INTRA.DIHEDRAL>
-2.83314

>  <SCORE.INTRA.DIHEDRAL.0>
10.0718

>  <SCORE.INTRA.POLAR>
0

>  <SCORE.INTRA.POLAR.0>
0

>  <SCORE.INTRA.REPUL>
0

>  <SCORE.INTRA.REPUL.0>
0

>  <SCORE.INTRA.SOLV>
0.739577

>  <SCORE.INTRA.SOLV.lig_0>
-48.6963

>  <SCORE.INTRA.VDW>
-1.97675

>  <SCORE.INTRA.VDW.0>
-0.836976

>  <SCORE.INTRA.norm>
-0.0975333

>  <SCORE.RESTR>
0.247397

>  <SCORE.RESTR.CAVITY>
0.247397

>  <SCORE.RESTR.norm>
0.00798056

>  <SCORE.SYSTEM>
0

>  <SCORE.SYSTEM.CONST>
0

>  <SCORE.SYSTEM.DIHEDRAL>
0

>  <SCORE.SYSTEM.SOLV>
0

>  <SCORE.SYSTEM.norm>
0

>  <SCORE.heavy>
31

>  <SCORE.norm>
-1.01102

>  <RMSD>
1.446

$$$$
ligand
 OpenBabel11021811473D
libRbt.so/2013.1/901 2013/11/27
 31 33  0  0  0  0  0  0  0  0999 V2000
   26.4685   42.5343   16.8595 P   0  0  1  0  0  0  0  0  0  0  0  0
   26.2955   43.9812   17.2695 O   0  0  0  0  0  0  0  0  0  0  0  0
   25.3099   41.7531   17.4184 O   0  5  0  0  0  0  0  0  0  0  0  0
   26.4782   42.4169   15.3602 O   0  0  0  0  0  0  0  0  0  0  0  0
   28.3650   40.7515   16.9391 C   0  0  0  0  0  0  0  0  0  0  0  0
   27.8843   41.9980   17.3798 O   0  0  0  0  0  0  0  0  0  0  0  0
   27.5528   39.6442   17.5947 C   0  0  1  0  0  0  0  0  0  0  0  0
   28.0396   38.3989   17.1413 O   0  0  0  0  0  0  0  0  0  0  0  0
   27.6606   39.7370   19.1167 C   0  0  1  0  0  0  0  0  0  0  0  0
   26.9499   40.8675   19.5743 O   0  0  0  0  0  0  0  0  0  0  0  0
   27.2096   38.4644   19.8471 C   0  0  1  0  0  0  0  0  0  0  0  0
   26.2185   37.8034   19.0923 O   0  0  0  0  0  0  0  0  0  0  0  0
   28.3585   37.5042   20.1106 C   0  0  0  0  0  0  0  0  0  0  0  0
   28.4019   34.7746   19.3821 N   0  0  0  0  0  0  0  0  0  0  0  0
   28.4908   33.4525   18.9967 C   0  0  0  0  0  0  0  0  0  0  0  0
   28.8413   33.1639   17.8491 O   0  0  0  0  0  0  0  0  0  0  0  0
   28.1761   32.4565   19.8990 N   0  0  0  0  0  0  0  0  0  0  0  0
   27.7742   32.7776   21.1819 C   0  0  0  0  0  0  0  0  0  0  0  0
   27.6860   34.0978   21.5714 C   0  0  1  0  0  0  0  0  0  0  0  0
   27.4996   31.8999   21.9985 O   0  0  0  0  0  0  0  0  0  0  0  0
   27.2014   35.7195   23.2537 C   0  0  2  0  0  0  0  0  0  0  0  0
   27.2871   34.4001   22.8589 N   0  0  0  0  0  0  0  0  0  0  0  0
   26.7975   36.0268   24.5507 C   0  0  0  0  0  0  0  0  0  0  0  0
   26.7005   37.3541   24.9564 C   0  0  1  0  0  0  0  0  0  0  0  0
   26.2732   37.6681   26.3636 C   0  0  0  0  0  0  0  0  0  0  0  0
   27.0144   38.3781   24.0555 C   0  0  1  0  0  0  0  0  0  0  0  0
   26.9341   39.8191   24.4677 C   0  0  0  0  0  0  0  0  0  0  0  0
   27.4182   38.0669   22.7606 C   0  0  0  0  0  0  0  0  0  0  0  0
   27.5136   36.7394   22.3498 C   0  0  2  0  0  0  0  0  0  0  0  0
   28.0035   35.1048   20.6672 C   0  0  2  0  0  0  0  0  0  0  0  0
   27.9075   36.4278   21.0539 N   0  0  0  0  0  0  0  0  0  0  0  0
  1  2  1  1  0  0  0
  1  3  1  0  0  0  0
  1  4  2  0  0  0  0
  1  6  1  0  0  0  0
  5  6  1  0  0  0  0
  7  5  1  6  0  0  0
  7  8  1  0  0  0  0
  7  9  1  0  0  0  0
  9 10  1  1  0  0  0
  9 11  1  0  0  0  0
 11 12  1  6  0  0  0
 11 13  1  0  0  0  0
 13 31  1  0  0  0  0
 14 15  1  0  0  0  0
 15 16  2  0  0  0  0
 15 17  1  0  0  0  0
 17 18  1  0  0  0  0
 18 20  2  0  0  0  0
 19 18  1  1  0  0  0
 19 22  1  0  0  0  0
 19 30  1  0  0  0  0
 21 23  1  6  0  0  0
 21 29  1  0  0  0  0
 21 22  1  0  0  0  0
 23 24  1  0  0  0  0
 24 25  1  1  0  0  0
 24 26  1  0  0  0  0
 26 27  1  1  0  0  0
 26 28  1  0  0  0  0
 29 28  1  6  0  0  0
 29 31  1  0  0  0  0
 30 14  1  6  0  0  0
 30 31  1  0  0  0  0
M  CHG  1   3  -1
M  END
>  <CHROM.1>
-72.16831212,-169.80578400,179.74882661,70.76965871,-29.64907284,168.80819667
-63.22157228,27.32279955,37.87983579,20.10228128,1.95804048,1.33706470,-0.97439687

>  <Name>
ligand

>  <RI>
0

>  <Rbt.Current_Directory>
/home/itssahil/PROJECTS/Mol_Feturizer/New_Systems/rnas/3F2Q

>  <Rbt.Executable>
rbdock ($Id: //depot/dev/client3/rdock/2013.1/src/exe/rbdock.cxx#4 $)

>  <Rbt.Library>
libRbt.so (2013.1, Build901 2013/11/27)

>  <Rbt.Parameter_File>
/export/apps/rDock/src/rDock_2013.1_src/data/scripts/dock_solv.prm

>  <Rbt.Receptor>
prm/pocket_docking_2.prm

>  <SCORE>
-33.3734

>  <SCORE.INTER>
-31.8206

>  <SCORE.INTER.CONST>
1

>  <SCORE.INTER.POLAR>
0

>  <SCORE.INTER.ROT>
7

>  <SCORE.INTER.SOLV>
17.9978

>  <SCORE.INTER.VDW>
-35.4797

>  <SCORE.INTER.norm>
-1.02647

>  <SCORE.INTRA>
-1.56145

>  <SCORE.INTRA.DIHEDRAL>
-4.35212

>  <SCORE.INTRA.DIHEDRAL.0>
10.0718

>  <SCORE.INTRA.POLAR>
0

>  <SCORE.INTRA.POLAR.0>
0

>  <SCORE.INTRA.REPUL>
0

>  <SCORE.INTRA.REPUL.0>
0

>  <SCORE.INTRA.SOLV>
3.18043

>  <SCORE.INTRA.SOLV.lig_0>
-48.6963

>  <SCORE.INTRA.VDW>
-0.975603

>  <SCORE.INTRA.VDW.0>
-0.836976

>  <SCORE.INTRA.norm>
-0.0503694

>  <SCORE.RESTR>
0.0087344

>  <SCORE.RESTR.CAVITY>
0.0087344

>  <SCORE.RESTR.norm>
0.000281755

>  <SCORE.SYSTEM>
0

>  <SCORE.SYSTEM.CONST>
0

>  <SCORE.SYSTEM.DIHEDRAL>
0

>  <SCORE.SYSTEM.SOLV>
0

>  <SCORE.SYSTEM.norm>
0

>  <SCORE.heavy>
31

>  <SCORE.norm>
-1.07656

>  <RMSD>
1.448

$$$$
ligand
 OpenBabel11021811473D
libRbt.so/2013.1/901 2013/11/27
 31 33  0  0  0  0  0  0  0  0999 V2000
   27.6309   41.7321   16.5796 P   0  0  1  0  0  0  0  0  0  0  0  0
   28.9178   41.2868   15.9185 O   0  0  0  0  0  0  0  0  0  0  0  0
   27.9453   42.9159   17.4541 O   0  5  0  0  0  0  0  0  0  0  0  0
   26.6223   42.1301   15.5374 O   0  0  0  0  0  0  0  0  0  0  0  0
   27.6602   40.0166   18.5386 C   0  0  0  0  0  0  0  0  0  0  0  0
   27.0004   40.5091   17.3978 O   0  0  0  0  0  0  0  0  0  0  0  0
   26.7450   39.0377   19.2595 C   0  0  1  0  0  0  0  0  0  0  0  0
   25.4460   39.5884   19.3100 O   0  0  0  0  0  0  0  0  0  0  0  0
   26.7268   37.6937   18.5315 C   0  0  1  0  0  0  0  0  0  0  0  0
   26.2592   37.8754   17.2121 O   0  0  0  0  0  0  0  0  0  0  0  0
   28.0772   36.9640   18.5466 C   0  0  1  0  0  0  0  0  0  0  0  0
   28.9319   37.5158   17.5698 O   0  0  0  0  0  0  0  0  0  0  0  0
   28.7616   37.0304   19.9026 C   0  0  0  0  0  0  0  0  0  0  0  0
   28.6448   34.2889   19.2289 N   0  0  0  0  0  0  0  0  0  0  0  0
   28.6583   32.9549   18.8759 C   0  0  0  0  0  0  0  0  0  0  0  0
   29.0767   32.6118   17.7667 O   0  0  0  0  0  0  0  0  0  0  0  0
   28.1922   32.0090   19.7665 N   0  0  0  0  0  0  0  0  0  0  0  0
   27.7142   32.3918   21.0056 C   0  0  0  0  0  0  0  0  0  0  0  0
   27.7009   33.7240   21.3629 C   0  0  1  0  0  0  0  0  0  0  0  0
   27.3045   31.5586   21.8120 O   0  0  0  0  0  0  0  0  0  0  0  0
   27.2128   35.4192   22.9699 C   0  0  2  0  0  0  0  0  0  0  0  0
   27.2241   34.0880   22.6072 N   0  0  0  0  0  0  0  0  0  0  0  0
   26.7306   35.7889   24.2232 C   0  0  0  0  0  0  0  0  0  0  0  0
   26.7079   37.1292   24.5957 C   0  0  1  0  0  0  0  0  0  0  0  0
   26.1939   37.5100   25.9567 C   0  0  0  0  0  0  0  0  0  0  0  0
   27.1752   38.1031   23.7059 C   0  0  1  0  0  0  0  0  0  0  0  0
   27.1776   39.5555   24.0843 C   0  0  0  0  0  0  0  0  0  0  0  0
   27.6569   37.7296   22.4548 C   0  0  0  0  0  0  0  0  0  0  0  0
   27.6785   36.3891   22.0770 C   0  0  2  0  0  0  0  0  0  0  0  0
   28.1709   34.6806   20.4704 C   0  0  2  0  0  0  0  0  0  0  0  0
   28.1503   36.0161   20.8241 N   0  0  0  0  0  0  0  0  0  0  0  0
  1  2  1  6  0  0  0
  1  3  1  0  0  0  0
  1  4  2  0  0  0  0
  1  6  1  0  0  0  0
  5  6  1  0  0  0  0
  7  5  1  6  0  0  0
  7  8  1  0  0  0  0
  7  9  1  0  0  0  0
  9 10  1  6  0  0  0
  9 11  1  0  0  0  0
 11 12  1  6  0  0  0
 11 13  1  0  0  0  0
 13 31  1  0  0  0  0
 14 15  1  0  0  0  0
 15 16  2  0  0  0  0
 15 17  1  0  0  0  0
 17 18  1  0  0  0  0
 18 20  2  0  0  0  0
 19 18  1  1  0  0  0
 19 22  1  0  0  0  0
 19 30  1  0  0  0  0
 21 23  1  6  0  0  0
 21 29  1  0  0  0  0
 21 22  1  0  0  0  0
 23 24  1  0  0  0  0
 24 25  1  1  0  0  0
 24 26  1  0  0  0  0
 26 27  1  1  0  0  0
 26 28  1  0  0  0  0
 29 28  1  6  0  0  0
 29 31  1  0  0  0  0
 30 14  1  6  0  0  0
 30 31  1  0  0  0  0
M  CHG  1   3  -1
M  END
>  <CHROM.1>
170.14024662,67.48227947,-44.04626548,-59.89100579,-79.38599434,79.42380946
-127.39223076,27.55142891,37.28433445,19.88902886,-1.64571752,-1.33677008
2.45674360

>  <Name>
ligand

>  <RI>
0

>  <Rbt.Current_Directory>
/home/itssahil/PROJECTS/Mol_Feturizer/New_Systems/rnas/3F2Q

>  <Rbt.Executable>
rbdock ($Id: //depot/dev/client3/rdock/2013.1/src/exe/rbdock.cxx#4 $)

>  <Rbt.Library>
libRbt.so (2013.1, Build901 2013/11/27)

>  <Rbt.Parameter_File>
/export/apps/rDock/src/rDock_2013.1_src/data/scripts/dock_solv.prm

>  <Rbt.Receptor>
prm/blind_docking_80.prm

>  <SCORE>
-33.9598

>  <SCORE.INTER>
-30.7576

>  <SCORE.INTER.CONST>
1

>  <SCORE.INTER.POLAR>
0

>  <SCORE.INTER.ROT>
7

>  <SCORE.INTER.SOLV>
21.568

>  <SCORE.INTER.VDW>
-35.9611

>  <SCORE.INTER.norm>
-0.992181

>  <SCORE.INTRA>
-3.20223

>  <SCORE.INTRA.DIHEDRAL>
-4.8323

>  <SCORE.INTRA.DIHEDRAL.0>
10.0718

>  <SCORE.INTRA.POLAR>
0

>  <SCORE.INTRA.POLAR.0>
0

>  <SCORE.INTRA.REPUL>
0

>  <SCORE.INTRA.REPUL.0>
0

>  <SCORE.INTRA.SOLV>
-0.825661

>  <SCORE.INTRA.SOLV.lig_0>
-48.6963

>  <SCORE.INTRA.VDW>
-0.373249

>  <SCORE.INTRA.VDW.0>
-0.836976

>  <SCORE.INTRA.norm>
-0.103298

>  <SCORE.RESTR>
0

>  <SCORE.RESTR.CAVITY>
0

>  <SCORE.RESTR.norm>
0

>  <SCORE.SYSTEM>
0

>  <SCORE.SYSTEM.CONST>
0

>  <SCORE.SYSTEM.DIHEDRAL>
0

>  <SCORE.SYSTEM.SOLV>
0

>  <SCORE.SYSTEM.norm>
0

>  <SCORE.heavy>
31

>  <SCORE.norm>
-1.09548

>  <RMSD>
1.456

$$$$
ligand
 OpenBabel11021811473D
libRbt.so/2013.1/901 2013/11/27
 31 33  0  0  0  0  0  0  0  0999 V2000
   26.0363   42.4247   16.8635 P   0  0  1  0  0  0  0  0  0  0  0  0
   26.7717   43.3664   17.7929 O   0  0  0  0  0  0  0  0  0  0  0  0
   25.0416   41.6481   17.6835 O   0  5  0  0  0  0  0  0  0  0  0  0
   25.3125   43.2043   15.8003 O   0  0  0  0  0  0  0  0  0  0  0  0
   28.0651   40.7920   16.8608 C   0  0  0  0  0  0  0  0  0  0  0  0
   27.0913   41.4815   16.1153 O   0  0  0  0  0  0  0  0  0  0  0  0
   27.4064   39.6255   17.5824 C   0  0  1  0  0  0  0  0  0  0  0  0
   27.9393   38.4213   17.0731 O   0  0  0  0  0  0  0  0  0  0  0  0
   27.6545   39.7241   19.0875 C   0  0  1  0  0  0  0  0  0  0  0  0
   27.0382   40.8886   19.5943 O   0  0  0  0  0  0  0  0  0  0  0  0
   27.2154   38.4783   19.8695 C   0  0  1  0  0  0  0  0  0  0  0  0
   26.1895   37.8095   19.1701 O   0  0  0  0  0  0  0  0  0  0  0  0
   28.3617   37.5110   20.1180 C   0  0  0  0  0  0  0  0  0  0  0  0
   28.3981   34.7793   19.3969 N   0  0  0  0  0  0  0  0  0  0  0  0
   28.4834   33.4560   19.0147 C   0  0  0  0  0  0  0  0  0  0  0  0
   28.8257   33.1639   17.8655 O   0  0  0  0  0  0  0  0  0  0  0  0
   28.1743   32.4628   19.9220 N   0  0  0  0  0  0  0  0  0  0  0  0
   27.7814   32.7878   21.2067 C   0  0  0  0  0  0  0  0  0  0  0  0
   27.6968   34.1092   21.5931 C   0  0  1  0  0  0  0  0  0  0  0  0
   27.5119   31.9126   22.0276 O   0  0  0  0  0  0  0  0  0  0  0  0
   27.2251   35.7359   23.2741 C   0  0  2  0  0  0  0  0  0  0  0  0
   27.3071   34.4153   22.8825 N   0  0  0  0  0  0  0  0  0  0  0  0
   26.8303   36.0472   24.5730 C   0  0  0  0  0  0  0  0  0  0  0  0
   26.7372   37.3758   24.9755 C   0  0  1  0  0  0  0  0  0  0  0  0
   26.3198   37.6940   26.3848 C   0  0  0  0  0  0  0  0  0  0  0  0
   27.0455   38.3970   24.0696 C   0  0  1  0  0  0  0  0  0  0  0  0
   26.9691   39.8391   24.4783 C   0  0  0  0  0  0  0  0  0  0  0  0
   27.4401   38.0818   22.7728 C   0  0  0  0  0  0  0  0  0  0  0  0
   27.5317   36.7531   22.3651 C   0  0  2  0  0  0  0  0  0  0  0  0
   28.0089   35.1134   20.6838 C   0  0  2  0  0  0  0  0  0  0  0  0
   27.9164   36.4376   21.0674 N   0  0  0  0  0  0  0  0  0  0  0  0
  1  2  1  1  0  0  0
  1  3  1  0  0  0  0
  1  4  2  0  0  0  0
  1  6  1  0  0  0  0
  5  6  1  0  0  0  0
  7  5  1  6  0  0  0
  7  8  1  0  0  0  0
  7  9  1  0  0  0  0
  9 10  1  1  0  0  0
  9 11  1  0  0  0  0
 11 12  1  6  0  0  0
 11 13  1  0  0  0  0
 13 31  1  0  0  0  0
 14 15  1  0  0  0  0
 15 16  2  0  0  0  0
 15 17  1  0  0  0  0
 17 18  1  0  0  0  0
 18 20  2  0  0  0  0
 19 18  1  1  0  0  0
 19 22  1  0  0  0  0
 19 30  1  0  0  0  0
 21 23  1  6  0  0  0
 21 29  1  0  0  0  0
 21 22  1  0  0  0  0
 23 24  1  0  0  0  0
 24 25  1  1  0  0  0
 24 26  1  0  0  0  0
 26 27  1  1  0  0  0
 26 28  1  0  0  0  0
 29 28  1  6  0  0  0
 29 31  1  0  0  0  0
 30 14  1  6  0  0  0
 30 31  1  0  0  0  0
M  CHG  1   3  -1
M  END
>  <CHROM.1>
74.57942675,50.29955389,115.35764067,63.81495231,-25.92932068,170.91739376
-62.71785574,27.22362373,37.86582907,20.10954152,2.13351751,1.32691309,-1.15553136

>  <Name>
ligand

>  <RI>
0

>  <Rbt.Current_Directory>
/home/itssahil/PROJECTS/Mol_Feturizer/New_Systems/rnas/3F2Q

>  <Rbt.Executable>
rbdock ($Id: //depot/dev/client3/rdock/2013.1/src/exe/rbdock.cxx#4 $)

>  <Rbt.Library>
libRbt.so (2013.1, Build901 2013/11/27)

>  <Rbt.Parameter_File>
/export/apps/rDock/src/rDock_2013.1_src/data/scripts/dock_solv.prm

>  <Rbt.Receptor>
prm/pocket_docking_2.prm

>  <SCORE>
-32.309

>  <SCORE.INTER>
-32.446

>  <SCORE.INTER.CONST>
1

>  <SCORE.INTER.POLAR>
0

>  <SCORE.INTER.ROT>
7

>  <SCORE.INTER.SOLV>
16.3328

>  <SCORE.INTER.VDW>
-35.3416

>  <SCORE.INTER.norm>
-1.04664

>  <SCORE.INTRA>
0.136958

>  <SCORE.INTRA.DIHEDRAL>
1.13364

>  <SCORE.INTRA.DIHEDRAL.0>
10.0718

>  <SCORE.INTRA.POLAR>
0

>  <SCORE.INTRA.POLAR.0>
0

>  <SCORE.INTRA.REPUL>
0

>  <SCORE.INTRA.REPUL.0>
0

>  <SCORE.INTRA.SOLV>
2.20582

>  <SCORE.INTRA.SOLV.lig_0>
-48.6963

>  <SCORE.INTRA.VDW>
-1.53278

>  <SCORE.INTRA.VDW.0>
-0.836976

>  <SCORE.INTRA.norm>
0.004418

>  <SCORE.RESTR>
0

>  <SCORE.RESTR.CAVITY>
0

>  <SCORE.RESTR.norm>
0

>  <SCORE.SYSTEM>
0

>  <SCORE.SYSTEM.CONST>
0

>  <SCORE.SYSTEM.DIHEDRAL>
0

>  <SCORE.SYSTEM.SOLV>
0

>  <SCORE.SYSTEM.norm>
0

>  <SCORE.heavy>
31

>  <SCORE.norm>
-1.04223

>  <RMSD>
1.458

$$$$
ligand
 OpenBabel11021811473D
libRbt.so/2013.1/901 2013/11/27
 31 33  0  0  0  0  0  0  0  0999 V2000
   26.0413   42.4200   16.8347 P   0  0  1  0  0  0  0  0  0  0  0  0
   26.7725   43.4367   17.6851 O   0  0  0  0  0  0  0  0  0  0  0  0
   25.0956   41.6634   17.7283 O   0  5  0  0  0  0  0  0  0  0  0  0
   25.2630   43.1132   15.7505 O   0  0  0  0  0  0  0  0  0  0  0  0
   28.0824   40.8033   16.8742 C   0  0  0  0  0  0  0  0  0  0  0  0
   27.1042   41.4665   16.1110 O   0  0  0  0  0  0  0  0  0  0  0  0
   27.4393   39.6279   17.5955 C   0  0  1  0  0  0  0  0  0  0  0  0
   27.9749   38.4305   17.0734 O   0  0  0  0  0  0  0  0  0  0  0  0
   27.7025   39.7192   19.0985 C   0  0  1  0  0  0  0  0  0  0  0  0
   27.1120   40.8937   19.6128 O   0  0  0  0  0  0  0  0  0  0  0  0
   27.2478   38.4801   19.8822 C   0  0  1  0  0  0  0  0  0  0  0  0
   26.2080   37.8278   19.1879 O   0  0  0  0  0  0  0  0  0  0  0  0
   28.3800   37.4947   20.1246 C   0  0  0  0  0  0  0  0  0  0  0  0
   28.4099   34.7665   19.3903 N   0  0  0  0  0  0  0  0  0  0  0  0
   28.4925   33.4446   19.0025 C   0  0  0  0  0  0  0  0  0  0  0  0
   28.8467   33.1563   17.8559 O   0  0  0  0  0  0  0  0  0  0  0  0
   28.1672   32.4487   19.9011 N   0  0  0  0  0  0  0  0  0  0  0  0
   27.7610   32.7695   21.1827 C   0  0  0  0  0  0  0  0  0  0  0  0
   27.6791   34.0894   21.5746 C   0  0  1  0  0  0  0  0  0  0  0  0
   27.4770   31.8918   21.9960 O   0  0  0  0  0  0  0  0  0  0  0  0
   27.1964   35.7105   23.2581 C   0  0  2  0  0  0  0  0  0  0  0  0
   27.2758   34.3914   22.8609 N   0  0  0  0  0  0  0  0  0  0  0  0
   26.7881   36.0175   24.5538 C   0  0  0  0  0  0  0  0  0  0  0  0
   26.6975   37.3446   24.9618 C   0  0  1  0  0  0  0  0  0  0  0  0
   26.2652   37.6581   26.3677 C   0  0  0  0  0  0  0  0  0  0  0  0
   27.0221   38.3685   24.0648 C   0  0  1  0  0  0  0  0  0  0  0  0
   26.9488   39.8090   24.4797 C   0  0  0  0  0  0  0  0  0  0  0  0
   27.4303   38.0575   22.7711 C   0  0  0  0  0  0  0  0  0  0  0  0
   27.5194   36.7303   22.3579 C   0  0  2  0  0  0  0  0  0  0  0  0
   28.0074   35.0964   20.6742 C   0  0  2  0  0  0  0  0  0  0  0  0
   27.9177   36.4192   21.0633 N   0  0  0  0  0  0  0  0  0  0  0  0
  1  2  1  1  0  0  0
  1  3  1  0  0  0  0
  1  4  2  0  0  0  0
  1  6  1  0  0  0  0
  5  6  1  0  0  0  0
  7  5  1  6  0  0  0
  7  8  1  0  0  0  0
  7  9  1  0  0  0  0
  9 10  1  1  0  0  0
  9 11  1  0  0  0  0
 11 12  1  6  0  0  0
 11 13  1  0  0  0  0
 13 31  1  0  0  0  0
 14 15  1  0  0  0  0
 15 16  2  0  0  0  0
 15 17  1  0  0  0  0
 17 18  1  0  0  0  0
 18 20  2  0  0  0  0
 19 18  1  1  0  0  0
 19 22  1  0  0  0  0
 19 30  1  0  0  0  0
 21 23  1  6  0  0  0
 21 29  1  0  0  0  0
 21 22  1  0  0  0  0
 23 24  1  0  0  0  0
 24 25  1  1  0  0  0
 24 26  1  0  0  0  0
 26 27  1  1  0  0  0
 26 28  1  0  0  0  0
 29 28  1  6  0  0  0
 29 31  1  0  0  0  0
 30 14  1  6  0  0  0
 30 31  1  0  0  0  0
M  CHG  1   3  -1
M  END
>  <CHROM.1>
76.04503540,53.22613676,113.59627759,62.36315882,-25.65627475,171.57332157
-61.95442551,27.22478604,37.85426892,20.09930438,2.10726668,1.32438452,-1.12900021

>  <Name>
ligand

>  <RI>
0

>  <Rbt.Current_Directory>
/home/itssahil/PROJECTS/Mol_Feturizer/New_Systems/rnas/3F2Q

>  <Rbt.Executable>
rbdock ($Id: //depot/dev/client3/rdock/2013.1/src/exe/rbdock.cxx#4 $)

>  <Rbt.Library>
libRbt.so (2013.1, Build901 2013/11/27)

>  <Rbt.Parameter_File>
/export/apps/rDock/src/rDock_2013.1_src/data/scripts/dock_solv.prm

>  <Rbt.Receptor>
prm/pocket_docking_2.prm

>  <SCORE>
-32.3311

>  <SCORE.INTER>
-32.5203

>  <SCORE.INTER.CONST>
1

>  <SCORE.INTER.POLAR>
0

>  <SCORE.INTER.ROT>
7

>  <SCORE.INTER.SOLV>
16.4911

>  <SCORE.INTER.VDW>
-35.4439

>  <SCORE.INTER.norm>
-1.04904

>  <SCORE.INTRA>
0.187558

>  <SCORE.INTRA.DIHEDRAL>
1.1393

>  <SCORE.INTRA.DIHEDRAL.0>
10.0718

>  <SCORE.INTRA.POLAR>
0

>  <SCORE.INTRA.POLAR.0>
0

>  <SCORE.INTRA.REPUL>
0

>  <SCORE.INTRA.REPUL.0>
0

>  <SCORE.INTRA.SOLV>
2.193

>  <SCORE.INTRA.SOLV.lig_0>
-48.6963

>  <SCORE.INTRA.VDW>
-1.47859

>  <SCORE.INTRA.VDW.0>
-0.836976

>  <SCORE.INTRA.norm>
0.00605026

>  <SCORE.RESTR>
0.0016724

>  <SCORE.RESTR.CAVITY>
0.0016724

>  <SCORE.RESTR.norm>
5.39485e-05

>  <SCORE.SYSTEM>
0

>  <SCORE.SYSTEM.CONST>
0

>  <SCORE.SYSTEM.DIHEDRAL>
0

>  <SCORE.SYSTEM.SOLV>
0

>  <SCORE.SYSTEM.norm>
0

>  <SCORE.heavy>
31

>  <SCORE.norm>
-1.04294

>  <RMSD>
1.458

$$$$
ligand
 OpenBabel11021811473D
libRbt.so/2013.1/901 2013/11/27
 31 33  0  0  0  0  0  0  0  0999 V2000
   25.7353   43.4968   16.1320 P   0  0  1  0  0  0  0  0  0  0  0  0
   26.9273   43.7006   15.2214 O   0  0  0  0  0  0  0  0  0  0  0  0
   25.8146   44.5188   17.2340 O   0  5  0  0  0  0  0  0  0  0  0  0
   24.4563   43.6839   15.3632 O   0  0  0  0  0  0  0  0  0  0  0  0
   26.7618   41.5627   17.5417 C   0  0  0  0  0  0  0  0  0  0  0  0
   25.7349   41.9934   16.6819 O   0  0  0  0  0  0  0  0  0  0  0  0
   26.5266   40.1045   17.9074 C   0  0  1  0  0  0  0  0  0  0  0  0
   26.6596   39.3200   16.7411 O   0  0  0  0  0  0  0  0  0  0  0  0
   27.5297   39.6553   18.9697 C   0  0  1  0  0  0  0  0  0  0  0  0
   27.5178   40.5658   20.0483 O   0  0  0  0  0  0  0  0  0  0  0  0
   27.3122   38.2156   19.4560 C   0  0  1  0  0  0  0  0  0  0  0  0
   27.2330   37.3426   18.3512 O   0  0  0  0  0  0  0  0  0  0  0  0
   28.4156   37.7412   20.3881 C   0  0  0  0  0  0  0  0  0  0  0  0
   28.4783   35.0298   19.5958 N   0  0  0  0  0  0  0  0  0  0  0  0
   28.5786   33.7165   19.1841 C   0  0  0  0  0  0  0  0  0  0  0  0
   29.0018   33.4516   18.0554 O   0  0  0  0  0  0  0  0  0  0  0  0
   28.1938   32.7028   20.0382 N   0  0  0  0  0  0  0  0  0  0  0  0
   27.7105   32.9975   21.2992 C   0  0  0  0  0  0  0  0  0  0  0  0
   27.6106   34.3088   21.7149 C   0  0  1  0  0  0  0  0  0  0  0  0
   27.3727   32.1036   22.0734 O   0  0  0  0  0  0  0  0  0  0  0  0
   27.0322   35.8949   23.4015 C   0  0  2  0  0  0  0  0  0  0  0  0
   27.1299   34.5845   22.9803 N   0  0  0  0  0  0  0  0  0  0  0  0
   26.5459   36.1755   24.6761 C   0  0  0  0  0  0  0  0  0  0  0  0
   26.4363   37.4937   25.1076 C   0  0  1  0  0  0  0  0  0  0  0  0
   25.9194   37.7785   26.4907 C   0  0  0  0  0  0  0  0  0  0  0  0
   26.8205   38.5354   24.2556 C   0  0  1  0  0  0  0  0  0  0  0  0
   26.7283   39.9667   24.6976 C   0  0  0  0  0  0  0  0  0  0  0  0
   27.3065   38.2507   22.9829 C   0  0  0  0  0  0  0  0  0  0  0  0
   27.4149   36.9326   22.5462 C   0  0  2  0  0  0  0  0  0  0  0  0
   27.9986   35.3336   20.8594 C   0  0  2  0  0  0  0  0  0  0  0  0
   27.8911   36.6478   21.2720 N   0  0  0  0  0  0  0  0  0  0  0  0
  1  2  1  6  0  0  0
  1  3  1  0  0  0  0
  1  4  2  0  0  0  0
  1  6  1  0  0  0  0
  5  6  1  0  0  0  0
  7  5  1  6  0  0  0
  7  8  1  0  0  0  0
  7  9  1  0  0  0  0
  9 10  1  1  0  0  0
  9 11  1  0  0  0  0
 11 12  1  6  0  0  0
 11 13  1  0  0  0  0
 13 31  1  0  0  0  0
 14 15  1  0  0  0  0
 15 16  2  0  0  0  0
 15 17  1  0  0  0  0
 17 18  1  0  0  0  0
 18 20  2  0  0  0  0
 19 18  1  1  0  0  0
 19 22  1  0  0  0  0
 19 30  1  0  0  0  0
 21 23  1  6  0  0  0
 21 29  1  0  0  0  0
 21 22  1  0  0  0  0
 23 24  1  0  0  0  0
 24 25  1  1  0  0  0
 24 26  1  0  0  0  0
 26 27  1  1  0  0  0
 26 28  1  0  0  0  0
 29 28  1  6  0  0  0
 29 31  1  0  0  0  0
 30 14  1  6  0  0  0
 30 31  1  0  0  0  0
M  CHG  1   3  -1
M  END
>  <CHROM.1>
-179.77543789,66.08737405,65.54917947,51.50137595,51.44597710,155.37123663
-95.56694839,27.04130863,38.22830465,20.03345572,2.16975885,1.30186743,-1.21589604

>  <Name>
ligand

>  <RI>
0

>  <Rbt.Current_Directory>
/home/itssahil/PROJECTS/Mol_Feturizer/New_Systems/rnas/3F2Q

>  <Rbt.Executable>
rbdock ($Id: //depot/dev/client3/rdock/2013.1/src/exe/rbdock.cxx#4 $)

>  <Rbt.Library>
libRbt.so (2013.1, Build901 2013/11/27)

>  <Rbt.Parameter_File>
/export/apps/rDock/src/rDock_2013.1_src/data/scripts/dock_solv.prm

>  <Rbt.Receptor>
prm/blind_docking_60.prm

>  <SCORE>
-36.2971

>  <SCORE.INTER>
-31.5454

>  <SCORE.INTER.CONST>
1

>  <SCORE.INTER.POLAR>
0

>  <SCORE.INTER.ROT>
7

>  <SCORE.INTER.SOLV>
19.7411

>  <SCORE.INTER.VDW>
-35.8773

>  <SCORE.INTER.norm>
-1.01759

>  <SCORE.INTRA>
-4.75171

>  <SCORE.INTRA.DIHEDRAL>
-5.93831

>  <SCORE.INTRA.DIHEDRAL.0>
10.0718

>  <SCORE.INTRA.POLAR>
0

>  <SCORE.INTRA.POLAR.0>
0

>  <SCORE.INTRA.REPUL>
0

>  <SCORE.INTRA.REPUL.0>
0

>  <SCORE.INTRA.SOLV>
-1.3179

>  <SCORE.INTRA.SOLV.lig_0>
-48.6963

>  <SCORE.INTRA.VDW>
-1.12361

>  <SCORE.INTRA.VDW.0>
-0.836976

>  <SCORE.INTRA.norm>
-0.153281

>  <SCORE.RESTR>
0

>  <SCORE.RESTR.CAVITY>
0

>  <SCORE.RESTR.norm>
0

>  <SCORE.SYSTEM>
0

>  <SCORE.SYSTEM.CONST>
0

>  <SCORE.SYSTEM.DIHEDRAL>
0

>  <SCORE.SYSTEM.SOLV>
0

>  <SCORE.SYSTEM.norm>
0

>  <SCORE.heavy>
31

>  <SCORE.norm>
-1.17088

>  <RMSD>
1.459

$$$$
ligand
 OpenBabel11021811473D
libRbt.so/2013.1/901 2013/11/27
 31 33  0  0  0  0  0  0  0  0999 V2000
   26.4264   42.8878   16.7194 P   0  0  1  0  0  0  0  0  0  0  0  0
   27.8096   43.3820   17.0853 O   0  0  0  0  0  0  0  0  0  0  0  0
   25.4232   43.8476   17.3002 O   0  5  0  0  0  0  0  0  0  0  0  0
   26.2704   42.8404   15.2243 O   0  0  0  0  0  0  0  0  0  0  0  0
   27.0601   40.3624   16.7704 C   0  0  0  0  0  0  0  0  0  0  0  0
   26.2345   41.3923   17.2573 O   0  0  0  0  0  0  0  0  0  0  0  0
   26.6784   39.0551   17.4491 C   0  0  1  0  0  0  0  0  0  0  0  0
   26.4914   38.0691   16.4560 O   0  0  0  0  0  0  0  0  0  0  0  0
   27.7719   38.6261   18.4274 C   0  0  1  0  0  0  0  0  0  0  0  0
   27.8528   39.5566   19.4858 O   0  0  0  0  0  0  0  0  0  0  0  0
   27.6007   37.1957   18.9575 C   0  0  1  0  0  0  0  0  0  0  0  0
   27.6882   36.2754   17.8926 O   0  0  0  0  0  0  0  0  0  0  0  0
   28.6345   36.8366   20.0129 C   0  0  0  0  0  0  0  0  0  0  0  0
   28.5829   34.0804   19.3930 N   0  0  0  0  0  0  0  0  0  0  0  0
   28.6279   32.7405   19.0655 C   0  0  0  0  0  0  0  0  0  0  0  0
   29.0465   32.3867   17.9597 O   0  0  0  0  0  0  0  0  0  0  0  0
   28.1932   31.8005   19.9779 N   0  0  0  0  0  0  0  0  0  0  0  0
   27.7151   32.1950   21.2134 C   0  0  0  0  0  0  0  0  0  0  0  0
   27.6703   33.5331   21.5450 C   0  0  1  0  0  0  0  0  0  0  0  0
   27.3331   31.3674   22.0390 O   0  0  0  0  0  0  0  0  0  0  0  0
   27.1512   35.2462   23.1232 C   0  0  2  0  0  0  0  0  0  0  0  0
   27.1939   33.9089   22.7860 N   0  0  0  0  0  0  0  0  0  0  0  0
   26.6693   35.6277   24.3730 C   0  0  0  0  0  0  0  0  0  0  0  0
   26.6151   36.9740   24.7199 C   0  0  1  0  0  0  0  0  0  0  0  0
   26.1021   37.3679   26.0775 C   0  0  0  0  0  0  0  0  0  0  0  0
   27.0505   37.9421   23.8078 C   0  0  1  0  0  0  0  0  0  0  0  0
   27.0185   39.4012   24.1581 C   0  0  0  0  0  0  0  0  0  0  0  0
   27.5319   37.5568   22.5601 C   0  0  0  0  0  0  0  0  0  0  0  0
   27.5850   36.2102   22.2080 C   0  0  2  0  0  0  0  0  0  0  0  0
   28.1087   34.4839   20.6305 C   0  0  2  0  0  0  0  0  0  0  0  0
   28.0565   35.8251   20.9587 N   0  0  0  0  0  0  0  0  0  0  0  0
  1  2  1  1  0  0  0
  1  3  1  0  0  0  0
  1  4  2  0  0  0  0
  1  6  1  0  0  0  0
  5  6  1  0  0  0  0
  7  5  1  6  0  0  0
  7  8  1  0  0  0  0
  7  9  1  0  0  0  0
  9 10  1  1  0  0  0
  9 11  1  0  0  0  0
 11 12  1  6  0  0  0
 11 13  1  0  0  0  0
 13 31  1  0  0  0  0
 14 15  1  0  0  0  0
 15 16  2  0  0  0  0
 15 17  1  0  0  0  0
 17 18  1  0  0  0  0
 18 20  2  0  0  0  0
 19 18  1  1  0  0  0
 19 22  1  0  0  0  0
 19 30  1  0  0  0  0
 21 23  1  6  0  0  0
 21 29  1  0  0  0  0
 21 22  1  0  0  0  0
 23 24  1  0  0  0  0
 24 25  1  1  0  0  0
 24 26  1  0  0  0  0
 26 27  1  1  0  0  0
 26 28  1  0  0  0  0
 29 28  1  6  0  0  0
 29 31  1  0  0  0  0
 30 14  1  6  0  0  0
 30 31  1  0  0  0  0
M  CHG  1   3  -1
M  END
>  <CHROM.1>
179.50374066,-62.38038775,129.73522563,65.74300314,62.83957140,150.89213088
-101.16378234,27.30786056,37.43202033,19.89729062,2.09760001,1.34849752,-1.05727119

>  <Name>
ligand

>  <RI>
0

>  <Rbt.Current_Directory>
/home/itssahil/PROJECTS/Mol_Feturizer/New_Systems/rnas/3F2Q

>  <Rbt.Executable>
rbdock ($Id: //depot/dev/client3/rdock/2013.1/src/exe/rbdock.cxx#4 $)

>  <Rbt.Library>
libRbt.so (2013.1, Build901 2013/11/27)

>  <Rbt.Parameter_File>
/export/apps/rDock/src/rDock_2013.1_src/data/scripts/dock_solv.prm

>  <Rbt.Receptor>
prm/pocket_docking_2.prm

>  <SCORE>
-33.1553

>  <SCORE.INTER>
-30.7738

>  <SCORE.INTER.CONST>
1

>  <SCORE.INTER.POLAR>
0

>  <SCORE.INTER.ROT>
7

>  <SCORE.INTER.SOLV>
20.9776

>  <SCORE.INTER.VDW>
-35.7751

>  <SCORE.INTER.norm>
-0.992705

>  <SCORE.INTRA>
-2.391

>  <SCORE.INTRA.DIHEDRAL>
-0.944006

>  <SCORE.INTRA.DIHEDRAL.0>
10.0718

>  <SCORE.INTRA.POLAR>
0

>  <SCORE.INTRA.POLAR.0>
0

>  <SCORE.INTRA.REPUL>
0

>  <SCORE.INTRA.REPUL.0>
0

>  <SCORE.INTRA.SOLV>
-1.31983

>  <SCORE.INTRA.SOLV.lig_0>
-48.6963

>  <SCORE.INTRA.VDW>
-1.25908

>  <SCORE.INTRA.VDW.0>
-0.836976

>  <SCORE.INTRA.norm>
-0.077129

>  <SCORE.RESTR>
0.00955951

>  <SCORE.RESTR.CAVITY>
0.00955951

>  <SCORE.RESTR.norm>
0.000308371

>  <SCORE.SYSTEM>
0

>  <SCORE.SYSTEM.CONST>
0

>  <SCORE.SYSTEM.DIHEDRAL>
0

>  <SCORE.SYSTEM.SOLV>
0

>  <SCORE.SYSTEM.norm>
0

>  <SCORE.heavy>
31

>  <SCORE.norm>
-1.06953

>  <RMSD>
1.477

$$$$
ligand
 OpenBabel11021811473D
libRbt.so/2013.1/901 2013/11/27
 31 33  0  0  0  0  0  0  0  0999 V2000
   27.2640   42.0201   17.5148 P   0  0  1  0  0  0  0  0  0  0  0  0
   25.8768   42.2326   18.0825 O   0  0  0  0  0  0  0  0  0  0  0  0
   27.1164   41.3954   16.1536 O   0  5  0  0  0  0  0  0  0  0  0  0
   27.9811   43.3361   17.3895 O   0  0  0  0  0  0  0  0  0  0  0  0
   27.6716   39.8234   18.8527 C   0  0  0  0  0  0  0  0  0  0  0  0
   28.1193   41.1152   18.5210 O   0  0  0  0  0  0  0  0  0  0  0  0
   27.6330   38.9708   17.5930 C   0  0  1  0  0  0  0  0  0  0  0  0
   28.9563   38.7699   17.1436 O   0  0  0  0  0  0  0  0  0  0  0  0
   26.9579   37.6297   17.8803 C   0  0  1  0  0  0  0  0  0  0  0  0
   26.3057   37.1682   16.7166 O   0  0  0  0  0  0  0  0  0  0  0  0
   27.9111   36.5655   18.4417 C   0  0  1  0  0  0  0  0  0  0  0  0
   28.9937   36.3765   17.5580 O   0  0  0  0  0  0  0  0  0  0  0  0
   28.4478   36.9295   19.8168 C   0  0  0  0  0  0  0  0  0  0  0  0
   28.4822   34.1560   19.2783 N   0  0  0  0  0  0  0  0  0  0  0  0
   28.5673   32.8099   18.9861 C   0  0  0  0  0  0  0  0  0  0  0  0
   28.9344   32.4408   17.8671 O   0  0  0  0  0  0  0  0  0  0  0  0
   28.2301   31.8804   19.9492 N   0  0  0  0  0  0  0  0  0  0  0  0
   27.8095   32.2916   21.2000 C   0  0  0  0  0  0  0  0  0  0  0  0
   27.7250   33.6360   21.4964 C   0  0  1  0  0  0  0  0  0  0  0  0
   27.5147   31.4739   22.0701 O   0  0  0  0  0  0  0  0  0  0  0  0
   27.2251   35.3726   23.0549 C   0  0  2  0  0  0  0  0  0  0  0  0
   27.3072   34.0287   22.7531 N   0  0  0  0  0  0  0  0  0  0  0  0
   26.8022   35.7710   24.3207 C   0  0  0  0  0  0  0  0  0  0  0  0
   26.7088   37.1238   24.6325 C   0  0  1  0  0  0  0  0  0  0  0  0
   26.2607   37.5365   26.0074 C   0  0  0  0  0  0  0  0  0  0  0  0
   27.0453   38.0813   23.6690 C   0  0  1  0  0  0  0  0  0  0  0  0
   26.9693   39.5477   23.9799 C   0  0  0  0  0  0  0  0  0  0  0  0
   27.4681   37.6791   22.4055 C   0  0  0  0  0  0  0  0  0  0  0  0
   27.5601   36.3259   22.0885 C   0  0  2  0  0  0  0  0  0  0  0  0
   28.0652   34.5764   20.5307 C   0  0  2  0  0  0  0  0  0  0  0  0
   27.9729   35.9234   20.8240 N   0  0  0  0  0  0  0  0  0  0  0  0
  1  2  1  1  0  0  0
  1  3  1  0  0  0  0
  1  4  2  0  0  0  0
  1  6  1  0  0  0  0
  5  6  1  0  0  0  0
  7  5  1  1  0  0  0
  7  8  1  0  0  0  0
  7  9  1  0  0  0  0
  9 10  1  6  0  0  0
  9 11  1  0  0  0  0
 11 12  1  6  0  0  0
 11 13  1  0  0  0  0
 13 31  1  0  0  0  0
 14 15  1  0  0  0  0
 15 16  2  0  0  0  0
 15 17  1  0  0  0  0
 17 18  1  0  0  0  0
 18 20  2  0  0  0  0
 19 18  1  1  0  0  0
 19 22  1  0  0  0  0
 19 30  1  0  0  0  0
 21 23  1  6  0  0  0
 21 29  1  0  0  0  0
 21 22  1  0  0  0  0
 23 24  1  0  0  0  0
 24 25  1  1  0  0  0
 24 26  1  0  0  0  0
 26 27  1  1  0  0  0
 26 28  1  0  0  0  0
 29 28  1  6  0  0  0
 29 31  1  0  0  0  0
 30 14  1  6  0  0  0
 30 31  1  0  0  0  0
M  CHG  1   3  -1
M  END
>  <CHROM.1>
62.39095790,59.36488940,67.18300843,149.46442530,-56.38796058,116.27805240
-139.54253407,27.60306836,37.19006144,19.97205961,1.74280182,1.35439783,-0.67395099

>  <Name>
ligand

>  <RI>
0

>  <Rbt.Current_Directory>
/home/itssahil/PROJECTS/Mol_Feturizer/New_Systems/rnas/3F2Q

>  <Rbt.Executable>
rbdock ($Id: //depot/dev/client3/rdock/2013.1/src/exe/rbdock.cxx#4 $)

>  <Rbt.Library>
libRbt.so (2013.1, Build901 2013/11/27)

>  <Rbt.Parameter_File>
/export/apps/rDock/src/rDock_2013.1_src/data/scripts/dock_solv.prm

>  <Rbt.Receptor>
prm/pocket_docking_5.prm

>  <SCORE>
-28.8106

>  <SCORE.INTER>
-30.7115

>  <SCORE.INTER.CONST>
1

>  <SCORE.INTER.POLAR>
0

>  <SCORE.INTER.ROT>
7

>  <SCORE.INTER.SOLV>
19.178

>  <SCORE.INTER.VDW>
-35.1336

>  <SCORE.INTER.norm>
-0.990692

>  <SCORE.INTRA>
1.90083

>  <SCORE.INTRA.DIHEDRAL>
-0.738906

>  <SCORE.INTRA.DIHEDRAL.0>
10.0718

>  <SCORE.INTRA.POLAR>
0

>  <SCORE.INTRA.POLAR.0>
0

>  <SCORE.INTRA.REPUL>
0

>  <SCORE.INTRA.REPUL.0>
0

>  <SCORE.INTRA.SOLV>
1.60177

>  <SCORE.INTRA.SOLV.lig_0>
-48.6963

>  <SCORE.INTRA.VDW>
1.4694

>  <SCORE.INTRA.VDW.0>
-0.836976

>  <SCORE.INTRA.norm>
0.061317

>  <SCORE.RESTR>
0

>  <SCORE.RESTR.CAVITY>
0

>  <SCORE.RESTR.norm>
0

>  <SCORE.SYSTEM>
0

>  <SCORE.SYSTEM.CONST>
0

>  <SCORE.SYSTEM.DIHEDRAL>
0

>  <SCORE.SYSTEM.SOLV>
0

>  <SCORE.SYSTEM.norm>
0

>  <SCORE.heavy>
31

>  <SCORE.norm>
-0.929375

>  <RMSD>
1.492

$$$$
ligand
 OpenBabel11021811473D
libRbt.so/2013.1/901 2013/11/27
 31 33  0  0  0  0  0  0  0  0999 V2000
   27.9726   42.1654   16.9209 P   0  0  1  0  0  0  0  0  0  0  0  0
   28.6063   42.6414   18.2106 O   0  0  0  0  0  0  0  0  0  0  0  0
   27.0134   43.2282   16.4567 O   0  5  0  0  0  0  0  0  0  0  0  0
   29.0288   41.9482   15.8725 O   0  0  0  0  0  0  0  0  0  0  0  0
   26.3531   40.6031   18.2316 C   0  0  0  0  0  0  0  0  0  0  0  0
   27.2595   40.7534   17.1661 O   0  0  0  0  0  0  0  0  0  0  0  0
   27.1193   40.6366   19.5459 C   0  0  1  0  0  0  0  0  0  0  0  0
   26.1997   40.4945   20.6077 O   0  0  0  0  0  0  0  0  0  0  0  0
   28.1562   39.5141   19.5845 C   0  0  1  0  0  0  0  0  0  0  0  0
   29.0934   39.7694   20.6087 O   0  0  0  0  0  0  0  0  0  0  0  0
   27.5455   38.1130   19.7273 C   0  0  1  0  0  0  0  0  0  0  0  0
   26.8249   37.7822   18.5610 O   0  0  0  0  0  0  0  0  0  0  0  0
   28.5940   37.0427   19.9857 C   0  0  0  0  0  0  0  0  0  0  0  0
   28.5096   34.2981   19.3196 N   0  0  0  0  0  0  0  0  0  0  0  0
   28.5378   32.9641   18.9675 C   0  0  0  0  0  0  0  0  0  0  0  0
   28.9186   32.6282   17.8426 O   0  0  0  0  0  0  0  0  0  0  0  0
   28.1285   32.0099   19.8770 N   0  0  0  0  0  0  0  0  0  0  0  0
   27.6926   32.3845   21.1340 C   0  0  0  0  0  0  0  0  0  0  0  0
   27.6648   33.7167   21.4903 C   0  0  1  0  0  0  0  0  0  0  0  0
   27.3338   31.5440   21.9570 O   0  0  0  0  0  0  0  0  0  0  0  0
   27.2051   35.4038   23.1143 C   0  0  2  0  0  0  0  0  0  0  0  0
   27.2306   34.0724   22.7525 N   0  0  0  0  0  0  0  0  0  0  0  0
   26.7657   35.7650   24.3856 C   0  0  0  0  0  0  0  0  0  0  0  0
   26.7290   37.1052   24.7575 C   0  0  1  0  0  0  0  0  0  0  0  0
   26.2621   37.4772   26.1378 C   0  0  0  0  0  0  0  0  0  0  0  0
   27.1390   38.0875   23.8488 C   0  0  1  0  0  0  0  0  0  0  0  0
   27.1252   39.5403   24.2256 C   0  0  0  0  0  0  0  0  0  0  0  0
   27.5779   37.7223   22.5796 C   0  0  0  0  0  0  0  0  0  0  0  0
   27.6133   36.3819   22.2025 C   0  0  2  0  0  0  0  0  0  0  0  0
   28.0777   34.6817   20.5788 C   0  0  2  0  0  0  0  0  0  0  0  0
   28.0423   36.0170   20.9320 N   0  0  0  0  0  0  0  0  0  0  0  0
  1  2  1  1  0  0  0
  1  3  1  0  0  0  0
  1  4  2  0  0  0  0
  1  6  1  0  0  0  0
  5  6  1  0  0  0  0
  7  5  1  6  0  0  0
  7  8  1  0  0  0  0
  7  9  1  0  0  0  0
  9 10  1  1  0  0  0
  9 11  1  0  0  0  0
 11 12  1  6  0  0  0
 11 13  1  0  0  0  0
 13 31  1  0  0  0  0
 14 15  1  0  0  0  0
 15 16  2  0  0  0  0
 15 17  1  0  0  0  0
 17 18  1  0  0  0  0
 18 20  2  0  0  0  0
 19 18  1  1  0  0  0
 19 22  1  0  0  0  0
 19 30  1  0  0  0  0
 21 23  1  6  0  0  0
 21 29  1  0  0  0  0
 21 22  1  0  0  0  0
 23 24  1  0  0  0  0
 24 25  1  1  0  0  0
 24 26  1  0  0  0  0
 26 27  1  1  0  0  0
 26 28  1  0  0  0  0
 29 28  1  6  0  0  0
 29 31  1  0  0  0  0
 30 14  1  6  0  0  0
 30 31  1  0  0  0  0
M  CHG  1   3  -1
M  END
>  <CHROM.1>
-70.46142913,51.63533839,179.59024307,163.82588334,67.28348042,143.59065591
-59.33431425,27.64518360,37.63253002,20.29981996,-1.50286100,-1.35035407
2.71115603

>  <Name>
ligand

>  <RI>
0

>  <Rbt.Current_Directory>
/home/itssahil/PROJECTS/Mol_Feturizer/New_Systems/rnas/3F2Q

>  <Rbt.Executable>
rbdock ($Id: //depot/dev/client3/rdock/2013.1/src/exe/rbdock.cxx#4 $)

>  <Rbt.Library>
libRbt.so (2013.1, Build901 2013/11/27)

>  <Rbt.Parameter_File>
/export/apps/rDock/src/rDock_2013.1_src/data/scripts/dock_solv.prm

>  <Rbt.Receptor>
prm/blind_docking_80.prm

>  <SCORE>
-35.4794

>  <SCORE.INTER>
-32.66

>  <SCORE.INTER.CONST>
1

>  <SCORE.INTER.POLAR>
0

>  <SCORE.INTER.ROT>
7

>  <SCORE.INTER.SOLV>
20.0929

>  <SCORE.INTER.VDW>
-36.7376

>  <SCORE.INTER.norm>
-1.05355

>  <SCORE.INTRA>
-2.81936

>  <SCORE.INTRA.DIHEDRAL>
-3.56685

>  <SCORE.INTRA.DIHEDRAL.0>
10.0718

>  <SCORE.INTRA.POLAR>
0

>  <SCORE.INTRA.POLAR.0>
0

>  <SCORE.INTRA.REPUL>
0

>  <SCORE.INTRA.REPUL.0>
0

>  <SCORE.INTRA.SOLV>
-0.11119

>  <SCORE.INTRA.SOLV.lig_0>
-48.6963

>  <SCORE.INTRA.VDW>
-0.980335

>  <SCORE.INTRA.VDW.0>
-0.836976

>  <SCORE.INTRA.norm>
-0.090947

>  <SCORE.RESTR>
0

>  <SCORE.RESTR.CAVITY>
0

>  <SCORE.RESTR.norm>
0

>  <SCORE.SYSTEM>
0

>  <SCORE.SYSTEM.CONST>
0

>  <SCORE.SYSTEM.DIHEDRAL>
0

>  <SCORE.SYSTEM.SOLV>
0

>  <SCORE.SYSTEM.norm>
0

>  <SCORE.heavy>
31

>  <SCORE.norm>
-1.1445

>  <RMSD>
1.503

$$$$
ligand
 OpenBabel11021811473D
libRbt.so/2013.1/901 2013/11/27
 31 33  0  0  0  0  0  0  0  0999 V2000
   27.0603   42.6002   17.4440 P   0  0  1  0  0  0  0  0  0  0  0  0
   28.4175   43.2062   17.7310 O   0  0  0  0  0  0  0  0  0  0  0  0
   26.4389   42.2128   18.7588 O   0  5  0  0  0  0  0  0  0  0  0  0
   26.1809   43.6020   16.7476 O   0  0  0  0  0  0  0  0  0  0  0  0
   28.2623   40.4250   16.6661 C   0  0  0  0  0  0  0  0  0  0  0  0
   27.2305   41.3567   16.4503 O   0  0  0  0  0  0  0  0  0  0  0  0
   27.9870   39.6666   17.9563 C   0  0  1  0  0  0  0  0  0  0  0  0
   26.6342   39.2626   17.9620 O   0  0  0  0  0  0  0  0  0  0  0  0
   28.9072   38.4508   18.0639 C   0  0  1  0  0  0  0  0  0  0  0  0
   30.2467   38.8512   17.8693 O   0  0  0  0  0  0  0  0  0  0  0  0
   28.7466   37.6679   19.3745 C   0  0  1  0  0  0  0  0  0  0  0  0
   29.0999   38.4852   20.4682 O   0  0  0  0  0  0  0  0  0  0  0  0
   27.3312   37.1505   19.5757 C   0  0  0  0  0  0  0  0  0  0  0  0
   27.4982   34.3891   19.0013 N   0  0  0  0  0  0  0  0  0  0  0  0
   27.6334   33.0559   18.6712 C   0  0  0  0  0  0  0  0  0  0  0  0
   27.6564   32.7102   17.4867 O   0  0  0  0  0  0  0  0  0  0  0  0
   27.7329   32.1120   19.6733 N   0  0  0  0  0  0  0  0  0  0  0  0
   27.6979   32.4959   21.0007 C   0  0  0  0  0  0  0  0  0  0  0  0
   27.5647   33.8275   21.3345 C   0  0  1  0  0  0  0  0  0  0  0  0
   27.7946   31.6661   21.9033 O   0  0  0  0  0  0  0  0  0  0  0  0
   27.4072   35.5251   23.0044 C   0  0  2  0  0  0  0  0  0  0  0  0
   27.5363   34.1935   22.6663 N   0  0  0  0  0  0  0  0  0  0  0  0
   27.3763   35.8963   24.3464 C   0  0  0  0  0  0  0  0  0  0  0  0
   27.2388   37.2355   24.6979 C   0  0  1  0  0  0  0  0  0  0  0  0
   27.2180   37.6201   26.1516 C   0  0  0  0  0  0  0  0  0  0  0  0
   27.1354   38.2072   23.6961 C   0  0  1  0  0  0  0  0  0  0  0  0
   27.0013   39.6612   24.0433 C   0  0  0  0  0  0  0  0  0  0  0  0
   27.1674   37.8322   22.3562 C   0  0  0  0  0  0  0  0  0  0  0  0
   27.3019   36.4923   22.0003 C   0  0  2  0  0  0  0  0  0  0  0  0
   27.4660   34.7826   20.3292 C   0  0  2  0  0  0  0  0  0  0  0  0
   27.3242   36.1159   20.6627 N   0  0  0  0  0  0  0  0  0  0  0  0
  1  2  1  1  0  0  0
  1  3  1  0  0  0  0
  1  4  2  0  0  0  0
  1  6  1  0  0  0  0
  5  6  1  0  0  0  0
  7  5  1  6  0  0  0
  7  8  1  0  0  0  0
  7  9  1  0  0  0  0
  9 10  1  1  0  0  0
  9 11  1  0  0  0  0
 11 12  1  1  0  0  0
 11 13  1  0  0  0  0
 13 31  1  0  0  0  0
 14 15  1  0  0  0  0
 15 16  2  0  0  0  0
 15 17  1  0  0  0  0
 17 18  1  0  0  0  0
 18 20  2  0  0  0  0
 19 18  1  6  0  0  0
 19 22  1  0  0  0  0
 19 30  1  0  0  0  0
 21 23  1  1  0  0  0
 21 29  1  0  0  0  0
 21 22  1  0  0  0  0
 23 24  1  0  0  0  0
 24 25  1  6  0  0  0
 24 26  1  0  0  0  0
 26 27  1  6  0  0  0
 26 28  1  0  0  0  0
 29 28  1  1  0  0  0
 29 31  1  0  0  0  0
 30 14  1  6  0  0  0
 30 31  1  0  0  0  0
M  CHG  1   3  -1
M  END
>  <CHROM.1>
66.93851587,44.11787940,46.42361794,51.76746446,-62.86273657,165.39846605
81.42717133,27.60749394,37.66075524,20.02903423,1.70569891,1.45814978,-0.62202862

>  <Name>
ligand

>  <RI>
0

>  <Rbt.Current_Directory>
/home/itssahil/PROJECTS/Mol_Feturizer/New_Systems/rnas/3F2Q

>  <Rbt.Executable>
rbdock ($Id: //depot/dev/client3/rdock/2013.1/src/exe/rbdock.cxx#4 $)

>  <Rbt.Library>
libRbt.so (2013.1, Build901 2013/11/27)

>  <Rbt.Parameter_File>
/export/apps/rDock/src/rDock_2013.1_src/data/scripts/dock_solv.prm

>  <Rbt.Receptor>
prm/pocket_docking_3.prm

>  <SCORE>
-31.6311

>  <SCORE.INTER>
-28.8688

>  <SCORE.INTER.CONST>
1

>  <SCORE.INTER.POLAR>
0

>  <SCORE.INTER.ROT>
7

>  <SCORE.INTER.SOLV>
14.7201

>  <SCORE.INTER.VDW>
-32.4192

>  <SCORE.INTER.norm>
-0.931251

>  <SCORE.INTRA>
-2.89

>  <SCORE.INTRA.DIHEDRAL>
-6.61901

>  <SCORE.INTRA.DIHEDRAL.0>
10.0718

>  <SCORE.INTRA.POLAR>
0

>  <SCORE.INTRA.POLAR.0>
0

>  <SCORE.INTRA.REPUL>
0

>  <SCORE.INTRA.REPUL.0>
0

>  <SCORE.INTRA.SOLV>
1.15227

>  <SCORE.INTRA.SOLV.lig_0>
-48.6963

>  <SCORE.INTRA.VDW>
-0.156631

>  <SCORE.INTRA.VDW.0>
-0.836976

>  <SCORE.INTRA.norm>
-0.0932258

>  <SCORE.RESTR>
0.127684

>  <SCORE.RESTR.CAVITY>
0.127684

>  <SCORE.RESTR.norm>
0.00411885

>  <SCORE.SYSTEM>
0

>  <SCORE.SYSTEM.CONST>
0

>  <SCORE.SYSTEM.DIHEDRAL>
0

>  <SCORE.SYSTEM.SOLV>
0

>  <SCORE.SYSTEM.norm>
0

>  <SCORE.heavy>
31

>  <SCORE.norm>
-1.02036

>  <RMSD>
1.521

$$$$
ligand
 OpenBabel11021811473D
libRbt.so/2013.1/901 2013/11/27
 31 33  0  0  0  0  0  0  0  0999 V2000
   26.0885   42.5117   16.9309 P   0  0  1  0  0  0  0  0  0  0  0  0
   24.9758   41.6919   17.5485 O   0  0  0  0  0  0  0  0  0  0  0  0
   25.7950   42.6583   15.4621 O   0  5  0  0  0  0  0  0  0  0  0  0
   26.1482   43.8716   17.5704 O   0  0  0  0  0  0  0  0  0  0  0  0
   27.7672   40.5411   16.6472 C   0  0  0  0  0  0  0  0  0  0  0  0
   27.4947   41.8003   17.2124 O   0  0  0  0  0  0  0  0  0  0  0  0
   27.2419   39.4547   17.5742 C   0  0  1  0  0  0  0  0  0  0  0  0
   27.2616   38.2237   16.8831 O   0  0  0  0  0  0  0  0  0  0  0  0
   28.1014   39.3722   18.8356 C   0  0  1  0  0  0  0  0  0  0  0  0
   27.6258   40.2924   19.7945 O   0  0  0  0  0  0  0  0  0  0  0  0
   28.2007   37.9581   19.4246 C   0  0  1  0  0  0  0  0  0  0  0  0
   29.0058   37.9756   20.5823 O   0  0  0  0  0  0  0  0  0  0  0  0
   26.8409   37.3735   19.7720 C   0  0  0  0  0  0  0  0  0  0  0  0
   27.0045   34.6404   19.0745 N   0  0  0  0  0  0  0  0  0  0  0  0
   27.1307   33.3244   18.6784 C   0  0  0  0  0  0  0  0  0  0  0  0
   27.0066   33.0210   17.4886 O   0  0  0  0  0  0  0  0  0  0  0  0
   27.3865   32.3498   19.6217 N   0  0  0  0  0  0  0  0  0  0  0  0
   27.5164   32.6861   20.9561 C   0  0  0  0  0  0  0  0  0  0  0  0
   27.3928   34.0005   21.3556 C   0  0  1  0  0  0  0  0  0  0  0  0
   27.7533   31.8290   21.8056 O   0  0  0  0  0  0  0  0  0  0  0  0
   27.4114   35.6331   23.0960 C   0  0  2  0  0  0  0  0  0  0  0  0
   27.5303   34.3189   22.6928 N   0  0  0  0  0  0  0  0  0  0  0  0
   27.5476   35.9564   24.4439 C   0  0  0  0  0  0  0  0  0  0  0  0
   27.4219   37.2775   24.8618 C   0  0  1  0  0  0  0  0  0  0  0  0
   27.5825   37.6105   26.3194 C   0  0  0  0  0  0  0  0  0  0  0  0
   27.1615   38.2797   23.9203 C   0  0  1  0  0  0  0  0  0  0  0  0
   27.0355   39.7158   24.3379 C   0  0  0  0  0  0  0  0  0  0  0  0
   27.0267   37.9527   22.5743 C   0  0  0  0  0  0  0  0  0  0  0  0
   27.1488   36.6309   22.1524 C   0  0  2  0  0  0  0  0  0  0  0  0
   27.1370   34.9863   20.4094 C   0  0  2  0  0  0  0  0  0  0  0  0
   27.0048   36.3021   20.8098 N   0  0  0  0  0  0  0  0  0  0  0  0
  1  2  1  1  0  0  0
  1  3  1  0  0  0  0
  1  4  2  0  0  0  0
  1  6  1  0  0  0  0
  5  6  1  0  0  0  0
  7  5  1  6  0  0  0
  7  8  1  0  0  0  0
  7  9  1  0  0  0  0
  9 10  1  1  0  0  0
  9 11  1  0  0  0  0
 11 12  1  1  0  0  0
 11 13  1  0  0  0  0
 13 31  1  0  0  0  0
 14 15  1  0  0  0  0
 15 16  2  0  0  0  0
 15 17  1  0  0  0  0
 17 18  1  0  0  0  0
 18 20  2  0  0  0  0
 19 18  1  6  0  0  0
 19 22  1  0  0  0  0
 19 30  1  0  0  0  0
 21 23  1  1  0  0  0
 21 29  1  0  0  0  0
 21 22  1  0  0  0  0
 23 24  1  0  0  0  0
 24 25  1  6  0  0  0
 24 26  1  0  0  0  0
 26 27  1  6  0  0  0
 26 28  1  0  0  0  0
 29 28  1  1  0  0  0
 29 31  1  0  0  0  0
 30 14  1  1  0  0  0
 30 31  1  0  0  0  0
M  CHG  1   3  -1
M  END
>  <CHROM.1>
-87.08826926,65.11758771,167.79730068,86.63417241,-179.85302570,-157.11573660
80.49260109,27.15953479,37.75808802,20.02385140,-2.98342860,1.46351931,-2.31041091

>  <Name>
ligand

>  <RI>
0

>  <Rbt.Current_Directory>
/home/itssahil/PROJECTS/Mol_Feturizer/New_Systems/rnas/3F2Q

>  <Rbt.Executable>
rbdock ($Id: //depot/dev/client3/rdock/2013.1/src/exe/rbdock.cxx#4 $)

>  <Rbt.Library>
libRbt.so (2013.1, Build901 2013/11/27)

>  <Rbt.Parameter_File>
/export/apps/rDock/src/rDock_2013.1_src/data/scripts/dock_solv.prm

>  <Rbt.Receptor>
prm/pocket_docking_2.prm

>  <SCORE>
-25.4632

>  <SCORE.INTER>
-23.4656

>  <SCORE.INTER.CONST>
1

>  <SCORE.INTER.POLAR>
0

>  <SCORE.INTER.ROT>
7

>  <SCORE.INTER.SOLV>
17.947

>  <SCORE.INTER.VDW>
-29.8927

>  <SCORE.INTER.norm>
-0.756955

>  <SCORE.INTRA>
-1.99896

>  <SCORE.INTRA.DIHEDRAL>
-1.4539

>  <SCORE.INTRA.DIHEDRAL.0>
10.0718

>  <SCORE.INTRA.POLAR>
0

>  <SCORE.INTRA.POLAR.0>
0

>  <SCORE.INTRA.REPUL>
0

>  <SCORE.INTRA.REPUL.0>
0

>  <SCORE.INTRA.SOLV>
-0.221956

>  <SCORE.INTRA.SOLV.lig_0>
-48.6963

>  <SCORE.INTRA.VDW>
-1.16104

>  <SCORE.INTRA.VDW.0>
-0.836976

>  <SCORE.INTRA.norm>
-0.0644827

>  <SCORE.RESTR>
0.00136828

>  <SCORE.RESTR.CAVITY>
0.00136828

>  <SCORE.RESTR.norm>
4.4138e-05

>  <SCORE.SYSTEM>
0

>  <SCORE.SYSTEM.CONST>
0

>  <SCORE.SYSTEM.DIHEDRAL>
0

>  <SCORE.SYSTEM.SOLV>
0

>  <SCORE.SYSTEM.norm>
0

>  <SCORE.heavy>
31

>  <SCORE.norm>
-0.821393

>  <RMSD>
1.524

$$$$
ligand
 OpenBabel11021811473D
libRbt.so/2013.1/901 2013/11/27
 31 33  0  0  0  0  0  0  0  0999 V2000
   24.4599   42.7946   17.5788 P   0  0  1  0  0  0  0  0  0  0  0  0
   25.4555   43.8854   17.9114 O   0  0  0  0  0  0  0  0  0  0  0  0
   23.5521   42.6188   18.7663 O   0  5  0  0  0  0  0  0  0  0  0  0
   23.6454   43.1839   16.3759 O   0  0  0  0  0  0  0  0  0  0  0  0
   26.1261   40.8698   18.1269 C   0  0  0  0  0  0  0  0  0  0  0  0
   25.2457   41.4531   17.1974 O   0  0  0  0  0  0  0  0  0  0  0  0
   26.9730   39.8212   17.4207 C   0  0  1  0  0  0  0  0  0  0  0  0
   27.5725   40.4137   16.2881 O   0  0  0  0  0  0  0  0  0  0  0  0
   28.0428   39.2774   18.3676 C   0  0  1  0  0  0  0  0  0  0  0  0
   28.6615   40.3478   19.0487 O   0  0  0  0  0  0  0  0  0  0  0  0
   27.5190   38.2219   19.3513 C   0  0  1  0  0  0  0  0  0  0  0  0
   26.8888   37.1772   18.6439 O   0  0  0  0  0  0  0  0  0  0  0  0
   28.6196   37.6399   20.2239 C   0  0  0  0  0  0  0  0  0  0  0  0
   28.5826   34.9337   19.4124 N   0  0  0  0  0  0  0  0  0  0  0  0
   28.6346   33.6204   18.9917 C   0  0  0  0  0  0  0  0  0  0  0  0
   29.0521   33.3476   17.8628 O   0  0  0  0  0  0  0  0  0  0  0  0
   28.2081   32.6161   19.8370 N   0  0  0  0  0  0  0  0  0  0  0  0
   27.7312   32.9201   21.0982 C   0  0  0  0  0  0  0  0  0  0  0  0
   27.6794   34.2314   21.5230 C   0  0  1  0  0  0  0  0  0  0  0  0
   27.3565   32.0343   21.8647 O   0  0  0  0  0  0  0  0  0  0  0  0
   27.1547   35.8264   23.2187 C   0  0  2  0  0  0  0  0  0  0  0  0
   27.2043   34.5162   22.7884 N   0  0  0  0  0  0  0  0  0  0  0  0
   26.6741   36.1163   24.4934 C   0  0  0  0  0  0  0  0  0  0  0  0
   26.6129   37.4346   24.9339 C   0  0  1  0  0  0  0  0  0  0  0  0
   26.1014   37.7292   26.3170 C   0  0  0  0  0  0  0  0  0  0  0  0
   27.0399   38.4669   24.0909 C   0  0  1  0  0  0  0  0  0  0  0  0
   27.0003   39.8976   24.5428 C   0  0  0  0  0  0  0  0  0  0  0  0
   27.5200   38.1730   22.8181 C   0  0  0  0  0  0  0  0  0  0  0  0
   27.5801   36.8548   22.3723 C   0  0  2  0  0  0  0  0  0  0  0  0
   28.1096   35.2466   20.6763 C   0  0  2  0  0  0  0  0  0  0  0  0
   28.0503   36.5611   21.0979 N   0  0  0  0  0  0  0  0  0  0  0  0
  1  2  1  1  0  0  0
  1  3  1  0  0  0  0
  1  4  2  0  0  0  0
  1  6  1  0  0  0  0
  5  6  1  0  0  0  0
  7  5  1  1  0  0  0
  7  8  1  0  0  0  0
  7  9  1  0  0  0  0
  9 10  1  1  0  0  0
  9 11  1  0  0  0  0
 11 12  1  6  0  0  0
 11 13  1  0  0  0  0
 13 31  1  0  0  0  0
 14 15  1  0  0  0  0
 15 16  2  0  0  0  0
 15 17  1  0  0  0  0
 17 18  1  0  0  0  0
 18 20  2  0  0  0  0
 19 18  1  1  0  0  0
 19 22  1  0  0  0  0
 19 30  1  0  0  0  0
 21 23  1  6  0  0  0
 21 29  1  0  0  0  0
 21 22  1  0  0  0  0
 23 24  1  0  0  0  0
 24 25  1  1  0  0  0
 24 26  1  0  0  0  0
 26 27  1  1  0  0  0
 26 28  1  0  0  0  0
 29 28  1  6  0  0  0
 29 31  1  0  0  0  0
 30 14  1  6  0  0  0
 30 31  1  0  0  0  0
M  CHG  1   3  -1
M  END
>  <CHROM.1>
-166.90554938,58.80461177,52.68098523,-45.48816770,54.72756078,-176.59403957
-92.08863926,26.91677577,38.02215124,20.17846722,2.43010187,1.19918101,-1.33047659

>  <Name>
ligand

>  <RI>
0

>  <Rbt.Current_Directory>
/home/itssahil/PROJECTS/Mol_Feturizer/New_Systems/rnas/3F2Q

>  <Rbt.Executable>
rbdock ($Id: //depot/dev/client3/rdock/2013.1/src/exe/rbdock.cxx#4 $)

>  <Rbt.Library>
libRbt.so (2013.1, Build901 2013/11/27)

>  <Rbt.Parameter_File>
/export/apps/rDock/src/rDock_2013.1_src/data/scripts/dock_solv.prm

>  <Rbt.Receptor>
prm/pocket_docking_5.prm

>  <SCORE>
-32.2088

>  <SCORE.INTER>
-27.333

>  <SCORE.INTER.CONST>
1

>  <SCORE.INTER.POLAR>
0

>  <SCORE.INTER.ROT>
7

>  <SCORE.INTER.SOLV>
19.6745

>  <SCORE.INTER.VDW>
-33.0468

>  <SCORE.INTER.norm>
-0.88171

>  <SCORE.INTRA>
-4.87581

>  <SCORE.INTRA.DIHEDRAL>
-6.64827

>  <SCORE.INTRA.DIHEDRAL.0>
10.0718

>  <SCORE.INTRA.POLAR>
0

>  <SCORE.INTRA.POLAR.0>
0

>  <SCORE.INTRA.REPUL>
0

>  <SCORE.INTRA.REPUL.0>
0

>  <SCORE.INTRA.SOLV>
-1.46028

>  <SCORE.INTRA.SOLV.lig_0>
-48.6963

>  <SCORE.INTRA.VDW>
-0.82153

>  <SCORE.INTRA.VDW.0>
-0.836976

>  <SCORE.INTRA.norm>
-0.157284

>  <SCORE.RESTR>
0

>  <SCORE.RESTR.CAVITY>
0

>  <SCORE.RESTR.norm>
0

>  <SCORE.SYSTEM>
0

>  <SCORE.SYSTEM.CONST>
0

>  <SCORE.SYSTEM.DIHEDRAL>
0

>  <SCORE.SYSTEM.SOLV>
0

>  <SCORE.SYSTEM.norm>
0

>  <SCORE.heavy>
31

>  <SCORE.norm>
-1.03899

>  <RMSD>
1.557

$$$$
ligand
 OpenBabel11021811473D
libRbt.so/2013.1/901 2013/11/27
 31 33  0  0  0  0  0  0  0  0999 V2000
   26.2866   43.2143   16.2938 P   0  0  1  0  0  0  0  0  0  0  0  0
   25.9718   43.4889   14.8388 O   0  0  0  0  0  0  0  0  0  0  0  0
   27.6377   43.8052   16.5946 O   0  5  0  0  0  0  0  0  0  0  0  0
   25.2505   43.8512   17.1785 O   0  0  0  0  0  0  0  0  0  0  0  0
   26.8312   41.1023   17.7166 C   0  0  0  0  0  0  0  0  0  0  0  0
   26.2273   41.6376   16.5642 O   0  0  0  0  0  0  0  0  0  0  0  0
   26.4408   39.6375   17.8489 C   0  0  1  0  0  0  0  0  0  0  0  0
   26.8740   38.9493   16.6948 O   0  0  0  0  0  0  0  0  0  0  0  0
   27.0737   39.0306   19.1011 C   0  0  1  0  0  0  0  0  0  0  0  0
   26.3070   37.9266   19.5323 O   0  0  0  0  0  0  0  0  0  0  0  0
   28.5493   38.6466   18.9238 C   0  0  1  0  0  0  0  0  0  0  0  0
   29.2611   39.7243   18.3574 O   0  0  0  0  0  0  0  0  0  0  0  0
   29.2098   38.2464   20.2334 C   0  0  0  0  0  0  0  0  0  0  0  0
   29.1370   35.7628   18.8881 N   0  0  0  0  0  0  0  0  0  0  0  0
   29.1741   34.5582   18.2158 C   0  0  0  0  0  0  0  0  0  0  0  0
   29.6979   34.4870   17.1006 O   0  0  0  0  0  0  0  0  0  0  0  0
   28.6136   33.4371   18.7938 N   0  0  0  0  0  0  0  0  0  0  0  0
   28.0179   33.5165   20.0385 C   0  0  0  0  0  0  0  0  0  0  0  0
   27.9806   34.7183   20.7144 C   0  0  1  0  0  0  0  0  0  0  0  0
   27.5228   32.5234   20.5688 O   0  0  0  0  0  0  0  0  0  0  0  0
   27.3495   35.9775   22.6408 C   0  0  2  0  0  0  0  0  0  0  0  0
   27.3854   34.7781   21.9596 N   0  0  0  0  0  0  0  0  0  0  0  0
   26.7482   36.0408   23.8954 C   0  0  0  0  0  0  0  0  0  0  0  0
   26.7001   37.2470   24.5872 C   0  0  1  0  0  0  0  0  0  0  0  0
   26.0565   37.2954   25.9455 C   0  0  0  0  0  0  0  0  0  0  0  0
   27.2620   38.3950   24.0172 C   0  0  1  0  0  0  0  0  0  0  0  0
   27.2393   39.7074   24.7450 C   0  0  0  0  0  0  0  0  0  0  0  0
   27.8625   38.3275   22.7635 C   0  0  0  0  0  0  0  0  0  0  0  0
   27.9101   37.1225   22.0665 C   0  0  2  0  0  0  0  0  0  0  0  0
   28.5453   35.8501   20.1377 C   0  0  2  0  0  0  0  0  0  0  0  0
   28.5010   37.0562   20.8104 N   0  0  0  0  0  0  0  0  0  0  0  0
  1  2  1  6  0  0  0
  1  3  1  0  0  0  0
  1  4  2  0  0  0  0
  1  6  1  0  0  0  0
  5  6  1  0  0  0  0
  7  5  1  6  0  0  0
  7  8  1  0  0  0  0
  7  9  1  0  0  0  0
  9 10  1  6  0  0  0
  9 11  1  0  0  0  0
 11 12  1  1  0  0  0
 11 13  1  0  0  0  0
 13 31  1  0  0  0  0
 14 15  1  0  0  0  0
 15 16  2  0  0  0  0
 15 17  1  0  0  0  0
 17 18  1  0  0  0  0
 18 20  2  0  0  0  0
 19 18  1  1  0  0  0
 19 22  1  0  0  0  0
 19 30  1  0  0  0  0
 21 23  1  6  0  0  0
 21 29  1  0  0  0  0
 21 22  1  0  0  0  0
 23 24  1  0  0  0  0
 24 25  1  1  0  0  0
 24 26  1  0  0  0  0
 26 27  1  1  0  0  0
 26 28  1  0  0  0  0
 29 28  1  6  0  0  0
 29 31  1  0  0  0  0
 30 14  1  6  0  0  0
 30 31  1  0  0  0  0
M  CHG  1   3  -1
M  END
>  <CHROM.1>
170.91096878,162.43095757,59.31828218,155.24884931,49.36621552,60.48935288
-120.42880156,27.46272212,38.27716249,19.63820122,2.04620946,1.26061083,-1.09217484

>  <Name>
ligand

>  <RI>
0

>  <Rbt.Current_Directory>
/home/itssahil/PROJECTS/Mol_Feturizer/New_Systems/rnas/3F2Q

>  <Rbt.Executable>
rbdock ($Id: //depot/dev/client3/rdock/2013.1/src/exe/rbdock.cxx#4 $)

>  <Rbt.Library>
libRbt.so (2013.1, Build901 2013/11/27)

>  <Rbt.Parameter_File>
/export/apps/rDock/src/rDock_2013.1_src/data/scripts/dock_solv.prm

>  <Rbt.Receptor>
prm/blind_docking_100.prm

>  <SCORE>
-28.9907

>  <SCORE.INTER>
-24.6671

>  <SCORE.INTER.CONST>
1

>  <SCORE.INTER.POLAR>
0

>  <SCORE.INTER.ROT>
7

>  <SCORE.INTER.SOLV>
19.3919

>  <SCORE.INTER.VDW>
-31.1754

>  <SCORE.INTER.norm>
-0.795713

>  <SCORE.INTRA>
-4.32356

>  <SCORE.INTRA.DIHEDRAL>
-5.49458

>  <SCORE.INTRA.DIHEDRAL.0>
10.0718

>  <SCORE.INTRA.POLAR>
0

>  <SCORE.INTRA.POLAR.0>
0

>  <SCORE.INTRA.REPUL>
0

>  <SCORE.INTRA.REPUL.0>
0

>  <SCORE.INTRA.SOLV>
-0.455786

>  <SCORE.INTRA.SOLV.lig_0>
-48.6963

>  <SCORE.INTRA.VDW>
-1.34838

>  <SCORE.INTRA.VDW.0>
-0.836976

>  <SCORE.INTRA.norm>
-0.13947

>  <SCORE.RESTR>
0

>  <SCORE.RESTR.CAVITY>
0

>  <SCORE.RESTR.norm>
0

>  <SCORE.SYSTEM>
0

>  <SCORE.SYSTEM.CONST>
0

>  <SCORE.SYSTEM.DIHEDRAL>
0

>  <SCORE.SYSTEM.SOLV>
0

>  <SCORE.SYSTEM.norm>
0

>  <SCORE.heavy>
31

>  <SCORE.norm>
-0.935182

>  <RMSD>
1.595

$$$$
ligand
 OpenBabel11021811473D
libRbt.so/2013.1/901 2013/11/27
 31 33  0  0  0  0  0  0  0  0999 V2000
   26.3316   42.8403   16.8041 P   0  0  1  0  0  0  0  0  0  0  0  0
   26.0320   42.7316   15.3242 O   0  0  0  0  0  0  0  0  0  0  0  0
   27.6213   43.6001   16.9607 O   0  5  0  0  0  0  0  0  0  0  0  0
   25.2246   43.5781   17.5054 O   0  0  0  0  0  0  0  0  0  0  0  0
   27.1136   40.3564   16.7906 C   0  0  0  0  0  0  0  0  0  0  0  0
   26.3959   41.3746   17.4445 O   0  0  0  0  0  0  0  0  0  0  0  0
   27.0126   39.0744   17.6042 C   0  0  1  0  0  0  0  0  0  0  0  0
   27.2104   37.9753   16.7404 O   0  0  0  0  0  0  0  0  0  0  0  0
   28.0571   39.0705   18.7203 C   0  0  1  0  0  0  0  0  0  0  0  0
   27.7738   40.1046   19.6384 O   0  0  0  0  0  0  0  0  0  0  0  0
   28.1955   37.7179   19.4327 C   0  0  1  0  0  0  0  0  0  0  0  0
   28.9658   37.8690   20.6043 O   0  0  0  0  0  0  0  0  0  0  0  0
   26.8505   37.1089   19.7956 C   0  0  0  0  0  0  0  0  0  0  0  0
   27.0879   34.3547   19.2110 N   0  0  0  0  0  0  0  0  0  0  0  0
   27.2498   33.0275   18.8695 C   0  0  0  0  0  0  0  0  0  0  0  0
   27.1387   32.6725   17.6927 O   0  0  0  0  0  0  0  0  0  0  0  0
   27.5268   32.0992   19.8527 N   0  0  0  0  0  0  0  0  0  0  0  0
   27.6422   32.4929   21.1727 C   0  0  0  0  0  0  0  0  0  0  0  0
   27.4829   33.8188   21.5177 C   0  0  1  0  0  0  0  0  0  0  0  0
   27.8976   31.6776   22.0573 O   0  0  0  0  0  0  0  0  0  0  0  0
   27.4517   35.5211   23.1898 C   0  0  2  0  0  0  0  0  0  0  0  0
   27.6064   34.1950   22.8411 N   0  0  0  0  0  0  0  0  0  0  0  0
   27.5737   35.9025   24.5238 C   0  0  0  0  0  0  0  0  0  0  0  0
   27.4120   37.2358   24.8869 C   0  0  1  0  0  0  0  0  0  0  0  0
   27.5577   37.6322   26.3302 C   0  0  0  0  0  0  0  0  0  0  0  0
   27.1298   38.1917   23.9044 C   0  0  1  0  0  0  0  0  0  0  0  0
   26.9648   39.6399   24.2625 C   0  0  0  0  0  0  0  0  0  0  0  0
   27.0093   37.8066   22.5724 C   0  0  0  0  0  0  0  0  0  0  0  0
   27.1674   36.4723   22.2054 C   0  0  2  0  0  0  0  0  0  0  0  0
   27.2057   34.7582   20.5311 C   0  0  2  0  0  0  0  0  0  0  0  0
   27.0377   36.0853   20.8769 N   0  0  0  0  0  0  0  0  0  0  0  0
  1  2  1  6  0  0  0
  1  3  1  0  0  0  0
  1  4  2  0  0  0  0
  1  6  1  0  0  0  0
  5  6  1  0  0  0  0
  7  5  1  6  0  0  0
  7  8  1  0  0  0  0
  7  9  1  0  0  0  0
  9 10  1  1  0  0  0
  9 11  1  0  0  0  0
 11 12  1  1  0  0  0
 11 13  1  0  0  0  0
 13 31  1  0  0  0  0
 14 15  1  0  0  0  0
 15 16  2  0  0  0  0
 15 17  1  0  0  0  0
 17 18  1  0  0  0  0
 18 20  2  0  0  0  0
 19 18  1  6  0  0  0
 19 22  1  0  0  0  0
 19 30  1  0  0  0  0
 21 23  1  1  0  0  0
 21 29  1  0  0  0  0
 21 22  1  0  0  0  0
 23 24  1  0  0  0  0
 24 25  1  6  0  0  0
 24 26  1  0  0  0  0
 26 27  1  6  0  0  0
 26 28  1  0  0  0  0
 29 28  1  1  0  0  0
 29 31  1  0  0  0  0
 30 14  1  1  0  0  0
 30 31  1  0  0  0  0
M  CHG  1   3  -1
M  END
>  <CHROM.1>
-179.93556095,45.72448066,155.48540905,65.04342286,-168.18808900,-160.10823656
80.27368337,27.20938942,37.67836748,20.04536822,-3.06174828,1.47300288,-2.21388180

>  <Name>
ligand

>  <RI>
0

>  <Rbt.Current_Directory>
/home/itssahil/PROJECTS/Mol_Feturizer/New_Systems/rnas/3F2Q

>  <Rbt.Executable>
rbdock ($Id: //depot/dev/client3/rdock/2013.1/src/exe/rbdock.cxx#4 $)

>  <Rbt.Library>
libRbt.so (2013.1, Build901 2013/11/27)

>  <Rbt.Parameter_File>
/export/apps/rDock/src/rDock_2013.1_src/data/scripts/dock_solv.prm

>  <Rbt.Receptor>
prm/pocket_docking_2.prm

>  <SCORE>
-29.6801

>  <SCORE.INTER>
-25.9381

>  <SCORE.INTER.CONST>
1

>  <SCORE.INTER.POLAR>
0

>  <SCORE.INTER.ROT>
7

>  <SCORE.INTER.SOLV>
18.7748

>  <SCORE.INTER.VDW>
-31.817

>  <SCORE.INTER.norm>
-0.836712

>  <SCORE.INTRA>
-3.74587

>  <SCORE.INTRA.DIHEDRAL>
-4.83541

>  <SCORE.INTRA.DIHEDRAL.0>
10.0718

>  <SCORE.INTRA.POLAR>
0

>  <SCORE.INTRA.POLAR.0>
0

>  <SCORE.INTRA.REPUL>
0

>  <SCORE.INTRA.REPUL.0>
0

>  <SCORE.INTRA.SOLV>
-1.21726

>  <SCORE.INTRA.SOLV.lig_0>
-48.6963

>  <SCORE.INTRA.VDW>
-0.719544

>  <SCORE.INTRA.VDW.0>
-0.836976

>  <SCORE.INTRA.norm>
-0.120835

>  <SCORE.RESTR>
0.00387987

>  <SCORE.RESTR.CAVITY>
0.00387987

>  <SCORE.RESTR.norm>
0.000125157

>  <SCORE.SYSTEM>
0

>  <SCORE.SYSTEM.CONST>
0

>  <SCORE.SYSTEM.DIHEDRAL>
0

>  <SCORE.SYSTEM.SOLV>
0

>  <SCORE.SYSTEM.norm>
0

>  <SCORE.heavy>
31

>  <SCORE.norm>
-0.957421

>  <RMSD>
1.599

$$$$
ligand
 OpenBabel11021811473D
libRbt.so/2013.1/901 2013/11/27
 31 33  0  0  0  0  0  0  0  0999 V2000
   27.2853   42.4708   16.9127 P   0  0  1  0  0  0  0  0  0  0  0  0
   28.3238   42.0135   15.9107 O   0  0  0  0  0  0  0  0  0  0  0  0
   27.2470   43.9751   16.8857 O   0  5  0  0  0  0  0  0  0  0  0  0
   25.9328   41.9263   16.5441 O   0  0  0  0  0  0  0  0  0  0  0  0
   28.0534   40.5473   18.4912 C   0  0  0  0  0  0  0  0  0  0  0  0
   27.6461   41.8874   18.3591 O   0  0  0  0  0  0  0  0  0  0  0  0
   28.2425   40.2273   19.9667 C   0  0  1  0  0  0  0  0  0  0  0  0
   26.9710   40.1043   20.5681 O   0  0  0  0  0  0  0  0  0  0  0  0
   29.0378   38.9322   20.1312 C   0  0  1  0  0  0  0  0  0  0  0  0
   29.2146   38.6555   21.5041 O   0  0  0  0  0  0  0  0  0  0  0  0
   28.4235   37.7320   19.3974 C   0  0  1  0  0  0  0  0  0  0  0  0
   29.2496   36.5998   19.5535 O   0  0  0  0  0  0  0  0  0  0  0  0
   27.0243   37.3999   19.8908 C   0  0  0  0  0  0  0  0  0  0  0  0
   27.2433   34.6495   19.2818 N   0  0  0  0  0  0  0  0  0  0  0  0
   27.4008   33.3238   18.9323 C   0  0  0  0  0  0  0  0  0  0  0  0
   27.3718   32.9885   17.7450 O   0  0  0  0  0  0  0  0  0  0  0  0
   27.5808   32.3752   19.9187 N   0  0  0  0  0  0  0  0  0  0  0  0
   27.6040   32.7472   21.2497 C   0  0  0  0  0  0  0  0  0  0  0  0
   27.4489   34.0715   21.6029 C   0  0  1  0  0  0  0  0  0  0  0  0
   27.7727   31.9135   22.1380 O   0  0  0  0  0  0  0  0  0  0  0  0
   27.3286   35.7499   23.2950 C   0  0  2  0  0  0  0  0  0  0  0  0
   27.4794   34.4257   22.9378 N   0  0  0  0  0  0  0  0  0  0  0  0
   27.3570   36.1092   24.6403 C   0  0  0  0  0  0  0  0  0  0  0  0
   27.1983   37.4407   25.0114 C   0  0  1  0  0  0  0  0  0  0  0  0
   27.2423   37.8129   26.4678 C   0  0  0  0  0  0  0  0  0  0  0  0
   27.0135   38.4170   24.0258 C   0  0  1  0  0  0  0  0  0  0  0  0
   26.8545   39.8634   24.3935 C   0  0  0  0  0  0  0  0  0  0  0  0
   26.9864   38.0539   22.6825 C   0  0  0  0  0  0  0  0  0  0  0  0
   27.1419   36.7216   22.3071 C   0  0  2  0  0  0  0  0  0  0  0  0
   27.2691   35.0312   20.6133 C   0  0  2  0  0  0  0  0  0  0  0  0
   27.1052   36.3569   20.9666 N   0  0  0  0  0  0  0  0  0  0  0  0
  1  2  1  6  0  0  0
  1  3  1  0  0  0  0
  1  4  2  0  0  0  0
  1  6  1  0  0  0  0
  5  6  1  0  0  0  0
  7  5  1  6  0  0  0
  7  8  1  0  0  0  0
  7  9  1  0  0  0  0
  9 10  1  1  0  0  0
  9 11  1  0  0  0  0
 11 12  1  1  0  0  0
 11 13  1  0  0  0  0
 13 31  1  0  0  0  0
 14 15  1  0  0  0  0
 15 16  2  0  0  0  0
 15 17  1  0  0  0  0
 17 18  1  0  0  0  0
 18 20  2  0  0  0  0
 19 18  1  6  0  0  0
 19 22  1  0  0  0  0
 19 30  1  0  0  0  0
 21 23  1  1  0  0  0
 21 29  1  0  0  0  0
 21 22  1  0  0  0  0
 23 24  1  0  0  0  0
 24 25  1  6  0  0  0
 24 26  1  0  0  0  0
 26 27  1  6  0  0  0
 26 28  1  0  0  0  0
 29 28  1  1  0  0  0
 29 31  1  0  0  0  0
 30 14  1  1  0  0  0
 30 31  1  0  0  0  0
M  CHG  1   3  -1
M  END
>  <CHROM.1>
-176.23896530,-43.84447053,74.29539010,179.49452707,177.41123576,-93.33465941
94.28042267,27.55112603,37.75598937,20.45020067,-1.60311786,-1.52218972,2.57183643

>  <Name>
ligand

>  <RI>
0

>  <Rbt.Current_Directory>
/home/itssahil/PROJECTS/Mol_Feturizer/New_Systems/rnas/3F2Q

>  <Rbt.Executable>
rbdock ($Id: //depot/dev/client3/rdock/2013.1/src/exe/rbdock.cxx#4 $)

>  <Rbt.Library>
libRbt.so (2013.1, Build901 2013/11/27)

>  <Rbt.Parameter_File>
/export/apps/rDock/src/rDock_2013.1_src/data/scripts/dock_solv.prm

>  <Rbt.Receptor>
prm/pocket_docking_3.prm

>  <SCORE>
-28.529

>  <SCORE.INTER>
-25.5183

>  <SCORE.INTER.CONST>
1

>  <SCORE.INTER.POLAR>
0

>  <SCORE.INTER.ROT>
7

>  <SCORE.INTER.SOLV>
19.319

>  <SCORE.INTER.VDW>
-31.7185

>  <SCORE.INTER.norm>
-0.823172

>  <SCORE.INTRA>
-3.01064

>  <SCORE.INTRA.DIHEDRAL>
-4.61469

>  <SCORE.INTRA.DIHEDRAL.0>
10.0718

>  <SCORE.INTRA.POLAR>
0

>  <SCORE.INTRA.POLAR.0>
0

>  <SCORE.INTRA.REPUL>
0

>  <SCORE.INTRA.REPUL.0>
0

>  <SCORE.INTRA.SOLV>
-0.527287

>  <SCORE.INTRA.SOLV.lig_0>
-48.6963

>  <SCORE.INTRA.VDW>
-0.439647

>  <SCORE.INTRA.VDW.0>
-0.836976

>  <SCORE.INTRA.norm>
-0.0971173

>  <SCORE.RESTR>
0

>  <SCORE.RESTR.CAVITY>
0

>  <SCORE.RESTR.norm>
0

>  <SCORE.SYSTEM>
0

>  <SCORE.SYSTEM.CONST>
0

>  <SCORE.SYSTEM.DIHEDRAL>
0

>  <SCORE.SYSTEM.SOLV>
0

>  <SCORE.SYSTEM.norm>
0

>  <SCORE.heavy>
31

>  <SCORE.norm>
-0.920289

>  <RMSD>
1.618

$$$$
ligand
 OpenBabel11021811473D
libRbt.so/2013.1/901 2013/11/27
 31 33  0  0  0  0  0  0  0  0999 V2000
   26.4385   42.7537   16.9957 P   0  0  1  0  0  0  0  0  0  0  0  0
   27.0299   44.1414   16.8687 O   0  0  0  0  0  0  0  0  0  0  0  0
   25.4681   42.5586   15.8619 O   0  5  0  0  0  0  0  0  0  0  0  0
   27.5245   41.7166   16.9126 O   0  0  0  0  0  0  0  0  0  0  0  0
   25.8524   41.3773   19.1273 C   0  0  0  0  0  0  0  0  0  0  0  0
   25.7504   42.5963   18.4325 O   0  0  0  0  0  0  0  0  0  0  0  0
   27.2794   41.2068   19.6273 C   0  0  1  0  0  0  0  0  0  0  0  0
   27.6978   42.4186   20.2188 O   0  0  0  0  0  0  0  0  0  0  0  0
   27.3538   40.0649   20.6408 C   0  0  1  0  0  0  0  0  0  0  0  0
   26.3532   40.2357   21.6218 O   0  0  0  0  0  0  0  0  0  0  0  0
   27.2769   38.6692   20.0064 C   0  0  1  0  0  0  0  0  0  0  0  0
   27.2536   38.7814   18.6008 O   0  0  0  0  0  0  0  0  0  0  0  0
   28.4377   37.7770   20.4160 C   0  0  0  0  0  0  0  0  0  0  0  0
   28.4494   35.0747   19.5908 N   0  0  0  0  0  0  0  0  0  0  0  0
   28.5238   33.7655   19.1607 C   0  0  0  0  0  0  0  0  0  0  0  0
   28.9036   33.5106   18.0144 O   0  0  0  0  0  0  0  0  0  0  0  0
   28.1619   32.7448   20.0165 N   0  0  0  0  0  0  0  0  0  0  0  0
   27.7272   33.0285   21.2976 C   0  0  0  0  0  0  0  0  0  0  0  0
   27.6532   34.3356   21.7318 C   0  0  1  0  0  0  0  0  0  0  0  0
   27.4103   32.1282   22.0732 O   0  0  0  0  0  0  0  0  0  0  0  0
   27.1494   35.9061   23.4563 C   0  0  2  0  0  0  0  0  0  0  0  0
   27.2210   34.6001   23.0168 N   0  0  0  0  0  0  0  0  0  0  0  0
   26.7120   36.1755   24.7509 C   0  0  0  0  0  0  0  0  0  0  0  0
   26.6290   37.4894   25.2012 C   0  0  1  0  0  0  0  0  0  0  0  0
   26.1649   37.7619   26.6054 C   0  0  0  0  0  0  0  0  0  0  0  0
   26.9906   38.5380   24.3478 C   0  0  1  0  0  0  0  0  0  0  0  0
   26.9263   39.9647   24.8093 C   0  0  0  0  0  0  0  0  0  0  0  0
   27.4278   38.2646   23.0551 C   0  0  0  0  0  0  0  0  0  0  0  0
   27.5094   36.9508   22.5996 C   0  0  2  0  0  0  0  0  0  0  0  0
   28.0183   35.3672   20.8745 C   0  0  2  0  0  0  0  0  0  0  0  0
   27.9367   36.6774   21.3057 N   0  0  0  0  0  0  0  0  0  0  0  0
  1  2  1  6  0  0  0
  1  3  1  0  0  0  0
  1  4  2  0  0  0  0
  1  6  1  0  0  0  0
  5  6  1  0  0  0  0
  7  5  1  1  0  0  0
  7  8  1  0  0  0  0
  7  9  1  0  0  0  0
  9 10  1  1  0  0  0
  9 11  1  0  0  0  0
 11 12  1  6  0  0  0
 11 13  1  0  0  0  0
 13 31  1  0  0  0  0
 14 15  1  0  0  0  0
 15 16  2  0  0  0  0
 15 17  1  0  0  0  0
 17 18  1  0  0  0  0
 18 20  2  0  0  0  0
 19 18  1  1  0  0  0
 19 22  1  0  0  0  0
 19 30  1  0  0  0  0
 21 23  1  6  0  0  0
 21 29  1  0  0  0  0
 21 22  1  0  0  0  0
 23 24  1  0  0  0  0
 24 25  1  1  0  0  0
 24 26  1  0  0  0  0
 26 27  1  1  0  0  0
 26 28  1  0  0  0  0
 29 28  1  6  0  0  0
 29 31  1  0  0  0  0
 30 14  1  6  0  0  0
 30 31  1  0  0  0  0
M  CHG  1   3  -1
M  END
>  <CHROM.1>
71.51069174,-141.66988300,46.18639760,-50.10626541,4.35032116,110.82674316
-70.51195031,27.21426696,38.28795224,20.59436866,-2.11226670,-1.35090509
2.08861226

>  <Name>
ligand

>  <RI>
0

>  <Rbt.Current_Directory>
/home/itssahil/PROJECTS/Mol_Feturizer/New_Systems/rnas/3F2Q

>  <Rbt.Executable>
rbdock ($Id: //depot/dev/client3/rdock/2013.1/src/exe/rbdock.cxx#4 $)

>  <Rbt.Library>
libRbt.so (2013.1, Build901 2013/11/27)

>  <Rbt.Parameter_File>
/export/apps/rDock/src/rDock_2013.1_src/data/scripts/dock_solv.prm

>  <Rbt.Receptor>
prm/pocket_docking_4.prm

>  <SCORE>
-26.9903

>  <SCORE.INTER>
-31.3435

>  <SCORE.INTER.CONST>
1

>  <SCORE.INTER.POLAR>
0

>  <SCORE.INTER.ROT>
7

>  <SCORE.INTER.SOLV>
16.3455

>  <SCORE.INTER.VDW>
-34.6109

>  <SCORE.INTER.norm>
-1.01108

>  <SCORE.INTRA>
4.3532

>  <SCORE.INTRA.DIHEDRAL>
4.8763

>  <SCORE.INTRA.DIHEDRAL.0>
10.0718

>  <SCORE.INTRA.POLAR>
0

>  <SCORE.INTRA.POLAR.0>
0

>  <SCORE.INTRA.REPUL>
0.00422566

>  <SCORE.INTRA.REPUL.0>
0

>  <SCORE.INTRA.SOLV>
2.45427

>  <SCORE.INTRA.SOLV.lig_0>
-48.6963

>  <SCORE.INTRA.VDW>
0.66679

>  <SCORE.INTRA.VDW.0>
-0.836976

>  <SCORE.INTRA.norm>
0.140426

>  <SCORE.RESTR>
0

>  <SCORE.RESTR.CAVITY>
0

>  <SCORE.RESTR.norm>
0

>  <SCORE.SYSTEM>
0

>  <SCORE.SYSTEM.CONST>
0

>  <SCORE.SYSTEM.DIHEDRAL>
0

>  <SCORE.SYSTEM.SOLV>
0

>  <SCORE.SYSTEM.norm>
0

>  <SCORE.heavy>
31

>  <SCORE.norm>
-0.870656

>  <RMSD>
1.623

$$$$
ligand
 OpenBabel11021811473D
libRbt.so/2013.1/901 2013/11/27
 31 33  0  0  0  0  0  0  0  0999 V2000
   25.7208   42.1701   17.2430 P   0  0  1  0  0  0  0  0  0  0  0  0
   25.0350   41.3762   18.3343 O   0  0  0  0  0  0  0  0  0  0  0  0
   24.6595   42.9025   16.4669 O   0  5  0  0  0  0  0  0  0  0  0  0
   26.6782   43.1614   17.8452 O   0  0  0  0  0  0  0  0  0  0  0  0
   27.6785   40.4913   16.8815 C   0  0  0  0  0  0  0  0  0  0  0  0
   26.5852   41.1819   16.3272 O   0  0  0  0  0  0  0  0  0  0  0  0
   27.1642   39.2992   17.6750 C   0  0  1  0  0  0  0  0  0  0  0  0
   26.8949   38.2426   16.7780 O   0  0  0  0  0  0  0  0  0  0  0  0
   28.1991   38.8665   18.7135 C   0  0  1  0  0  0  0  0  0  0  0  0
   28.1131   39.7044   19.8462 O   0  0  0  0  0  0  0  0  0  0  0  0
   28.0973   37.3867   19.1084 C   0  0  1  0  0  0  0  0  0  0  0  0
   29.1397   37.0545   19.9984 O   0  0  0  0  0  0  0  0  0  0  0  0
   26.7636   37.0450   19.7532 C   0  0  0  0  0  0  0  0  0  0  0  0
   27.0013   34.2865   19.1894 N   0  0  0  0  0  0  0  0  0  0  0  0
   27.1623   32.9568   18.8570 C   0  0  0  0  0  0  0  0  0  0  0  0
   27.0302   32.5906   17.6858 O   0  0  0  0  0  0  0  0  0  0  0  0
   27.4619   32.0388   19.8431 N   0  0  0  0  0  0  0  0  0  0  0  0
   27.6008   32.4451   21.1569 C   0  0  0  0  0  0  0  0  0  0  0  0
   27.4426   33.7735   21.4928 C   0  0  1  0  0  0  0  0  0  0  0  0
   27.8765   31.6390   22.0439 O   0  0  0  0  0  0  0  0  0  0  0  0
   27.4361   35.4909   23.1497 C   0  0  2  0  0  0  0  0  0  0  0  0
   27.5897   34.1623   22.8102 N   0  0  0  0  0  0  0  0  0  0  0  0
   27.5820   35.8850   24.4775 C   0  0  0  0  0  0  0  0  0  0  0  0
   27.4217   37.2210   24.8315 C   0  0  1  0  0  0  0  0  0  0  0  0
   27.5933   37.6312   26.2680 C   0  0  0  0  0  0  0  0  0  0  0  0
   27.1167   38.1667   23.8459 C   0  0  1  0  0  0  0  0  0  0  0  0
   26.9525   39.6174   24.1938 C   0  0  0  0  0  0  0  0  0  0  0  0
   26.9724   37.7688   22.5200 C   0  0  0  0  0  0  0  0  0  0  0  0
   27.1291   36.4319   22.1622 C   0  0  2  0  0  0  0  0  0  0  0  0
   27.1426   34.7026   20.5032 C   0  0  2  0  0  0  0  0  0  0  0  0
   26.9757   36.0322   20.8400 N   0  0  0  0  0  0  0  0  0  0  0  0
  1  2  1  1  0  0  0
  1  3  1  0  0  0  0
  1  4  2  0  0  0  0
  1  6  1  0  0  0  0
  5  6  1  0  0  0  0
  7  5  1  6  0  0  0
  7  8  1  0  0  0  0
  7  9  1  0  0  0  0
  9 10  1  1  0  0  0
  9 11  1  0  0  0  0
 11 12  1  1  0  0  0
 11 13  1  0  0  0  0
 13 31  1  0  0  0  0
 14 15  1  0  0  0  0
 15 16  2  0  0  0  0
 15 17  1  0  0  0  0
 17 18  1  0  0  0  0
 18 20  2  0  0  0  0
 19 18  1  6  0  0  0
 19 22  1  0  0  0  0
 19 30  1  0  0  0  0
 21 23  1  1  0  0  0
 21 29  1  0  0  0  0
 21 22  1  0  0  0  0
 23 24  1  0  0  0  0
 24 25  1  6  0  0  0
 24 26  1  0  0  0  0
 26 27  1  6  0  0  0
 26 28  1  0  0  0  0
 29 28  1  1  0  0  0
 29 31  1  0  0  0  0
 30 14  1  1  0  0  0
 30 31  1  0  0  0  0
M  CHG  1   3  -1
M  END
>  <CHROM.1>
78.74486164,-64.26457829,81.27593734,80.71201528,176.12682704,-143.46203153
95.03064815,27.09264752,37.47433274,20.10053180,-3.09774558,1.42465859,-2.16290130

>  <Name>
ligand

>  <RI>
0

>  <Rbt.Current_Directory>
/home/itssahil/PROJECTS/Mol_Feturizer/New_Systems/rnas/3F2Q

>  <Rbt.Executable>
rbdock ($Id: //depot/dev/client3/rdock/2013.1/src/exe/rbdock.cxx#4 $)

>  <Rbt.Library>
libRbt.so (2013.1, Build901 2013/11/27)

>  <Rbt.Parameter_File>
/export/apps/rDock/src/rDock_2013.1_src/data/scripts/dock_solv.prm

>  <Rbt.Receptor>
prm/pocket_docking_2.prm

>  <SCORE>
-26.9259

>  <SCORE.INTER>
-25.1394

>  <SCORE.INTER.CONST>
1

>  <SCORE.INTER.POLAR>
0

>  <SCORE.INTER.ROT>
7

>  <SCORE.INTER.SOLV>
17.3845

>  <SCORE.INTER.VDW>
-30.8211

>  <SCORE.INTER.norm>
-0.810949

>  <SCORE.INTRA>
-1.85017

>  <SCORE.INTRA.DIHEDRAL>
-0.832415

>  <SCORE.INTRA.DIHEDRAL.0>
10.0718

>  <SCORE.INTRA.POLAR>
0

>  <SCORE.INTRA.POLAR.0>
0

>  <SCORE.INTRA.REPUL>
0

>  <SCORE.INTRA.REPUL.0>
0

>  <SCORE.INTRA.SOLV>
-0.134512

>  <SCORE.INTRA.SOLV.lig_0>
-48.6963

>  <SCORE.INTRA.VDW>
-1.36671

>  <SCORE.INTRA.VDW.0>
-0.836976

>  <SCORE.INTRA.norm>
-0.059683

>  <SCORE.RESTR>
0.0636902

>  <SCORE.RESTR.CAVITY>
0.0636902

>  <SCORE.RESTR.norm>
0.00205452

>  <SCORE.SYSTEM>
0

>  <SCORE.SYSTEM.CONST>
0

>  <SCORE.SYSTEM.DIHEDRAL>
0

>  <SCORE.SYSTEM.SOLV>
0

>  <SCORE.SYSTEM.norm>
0

>  <SCORE.heavy>
31

>  <SCORE.norm>
-0.868578

>  <RMSD>
1.632

$$$$
ligand
 OpenBabel11021811473D
libRbt.so/2013.1/901 2013/11/27
 31 33  0  0  0  0  0  0  0  0999 V2000
   25.7099   43.3808   17.1369 P   0  0  1  0  0  0  0  0  0  0  0  0
   24.3055   43.3263   17.6993 O   0  0  0  0  0  0  0  0  0  0  0  0
   25.7377   42.5532   15.8802 O   0  5  0  0  0  0  0  0  0  0  0  0
   26.0848   44.8008   16.8128 O   0  0  0  0  0  0  0  0  0  0  0  0
   26.4475   41.7173   18.9998 C   0  0  0  0  0  0  0  0  0  0  0  0
   26.7472   42.8635   18.2410 O   0  0  0  0  0  0  0  0  0  0  0  0
   27.6338   41.3877   19.8940 C   0  0  1  0  0  0  0  0  0  0  0  0
   27.9465   42.5273   20.6666 O   0  0  0  0  0  0  0  0  0  0  0  0
   27.3016   40.2030   20.8011 C   0  0  1  0  0  0  0  0  0  0  0  0
   26.0698   40.4341   21.4507 O   0  0  0  0  0  0  0  0  0  0  0  0
   27.3017   38.8501   20.0759 C   0  0  1  0  0  0  0  0  0  0  0  0
   27.4019   39.0516   18.6838 O   0  0  0  0  0  0  0  0  0  0  0  0
   28.4344   37.9438   20.5312 C   0  0  0  0  0  0  0  0  0  0  0  0
   28.4572   35.2447   19.6959 N   0  0  0  0  0  0  0  0  0  0  0  0
   28.5384   33.9366   19.2639 C   0  0  0  0  0  0  0  0  0  0  0  0
   28.9665   33.6824   18.1346 O   0  0  0  0  0  0  0  0  0  0  0  0
   28.1290   32.9162   20.0984 N   0  0  0  0  0  0  0  0  0  0  0  0
   27.6403   33.1990   21.3600 C   0  0  0  0  0  0  0  0  0  0  0  0
   27.5595   34.5051   21.7960 C   0  0  1  0  0  0  0  0  0  0  0  0
   27.2807   32.2989   22.1169 O   0  0  0  0  0  0  0  0  0  0  0  0
   26.9942   36.0738   23.5031 C   0  0  2  0  0  0  0  0  0  0  0  0
   27.0729   34.7689   23.0617 N   0  0  0  0  0  0  0  0  0  0  0  0
   26.5020   36.3425   24.7781 C   0  0  0  0  0  0  0  0  0  0  0  0
   26.4115   37.6553   25.2299 C   0  0  1  0  0  0  0  0  0  0  0  0
   25.8878   37.9269   26.6131 C   0  0  0  0  0  0  0  0  0  0  0  0
   26.8206   38.7036   24.3979 C   0  0  1  0  0  0  0  0  0  0  0  0
   26.7493   40.1291   24.8621 C   0  0  0  0  0  0  0  0  0  0  0  0
   27.3124   38.4310   23.1248 C   0  0  0  0  0  0  0  0  0  0  0  0
   27.4018   37.1183   22.6678 C   0  0  2  0  0  0  0  0  0  0  0  0
   27.9722   35.5365   20.9603 C   0  0  2  0  0  0  0  0  0  0  0  0
   27.8838   36.8457   21.3931 N   0  0  0  0  0  0  0  0  0  0  0  0
  1  2  1  1  0  0  0
  1  3  1  0  0  0  0
  1  4  2  0  0  0  0
  1  6  1  0  0  0  0
  5  6  1  0  0  0  0
  7  5  1  6  0  0  0
  7  8  1  0  0  0  0
  7  9  1  0  0  0  0
  9 10  1  6  0  0  0
  9 11  1  0  0  0  0
 11 12  1  6  0  0  0
 11 13  1  0  0  0  0
 13 31  1  0  0  0  0
 14 15  1  0  0  0  0
 15 16  2  0  0  0  0
 15 17  1  0  0  0  0
 17 18  1  0  0  0  0
 18 20  2  0  0  0  0
 19 18  1  1  0  0  0
 19 22  1  0  0  0  0
 19 30  1  0  0  0  0
 21 23  1  6  0  0  0
 21 29  1  0  0  0  0
 21 22  1  0  0  0  0
 23 24  1  0  0  0  0
 24 25  1  1  0  0  0
 24 26  1  0  0  0  0
 26 27  1  1  0  0  0
 26 28  1  0  0  0  0
 29 28  1  6  0  0  0
 29 31  1  0  0  0  0
 30 14  1  6  0  0  0
 30 31  1  0  0  0  0
M  CHG  1   3  -1
M  END
>  <CHROM.1>
175.87516934,43.52716161,54.95290680,-50.49959050,-9.40422425,106.35926953
-70.42100923,27.03606349,38.56209567,20.68499550,-2.25670666,-1.32257349
1.98573481

>  <Name>
ligand

>  <RI>
0

>  <Rbt.Current_Directory>
/home/itssahil/PROJECTS/Mol_Feturizer/New_Systems/rnas/3F2Q

>  <Rbt.Executable>
rbdock ($Id: //depot/dev/client3/rdock/2013.1/src/exe/rbdock.cxx#4 $)

>  <Rbt.Library>
libRbt.so (2013.1, Build901 2013/11/27)

>  <Rbt.Parameter_File>
/export/apps/rDock/src/rDock_2013.1_src/data/scripts/dock_solv.prm

>  <Rbt.Receptor>
prm/blind_docking_60.prm

>  <SCORE>
-29.3596

>  <SCORE.INTER>
-29.7043

>  <SCORE.INTER.CONST>
1

>  <SCORE.INTER.POLAR>
0

>  <SCORE.INTER.ROT>
7

>  <SCORE.INTER.SOLV>
19.931

>  <SCORE.INTER.VDW>
-34.7132

>  <SCORE.INTER.norm>
-0.958203

>  <SCORE.INTRA>
0.34466

>  <SCORE.INTRA.DIHEDRAL>
1.83634

>  <SCORE.INTRA.DIHEDRAL.0>
10.0718

>  <SCORE.INTRA.POLAR>
0

>  <SCORE.INTRA.POLAR.0>
0

>  <SCORE.INTRA.REPUL>
0

>  <SCORE.INTRA.REPUL.0>
0

>  <SCORE.INTRA.SOLV>
-1.32688

>  <SCORE.INTRA.SOLV.lig_0>
-48.6963

>  <SCORE.INTRA.VDW>
0.0899273

>  <SCORE.INTRA.VDW.0>
-0.836976

>  <SCORE.INTRA.norm>
0.0111181

>  <SCORE.RESTR>
0

>  <SCORE.RESTR.CAVITY>
0

>  <SCORE.RESTR.norm>
0

>  <SCORE.SYSTEM>
0

>  <SCORE.SYSTEM.CONST>
0

>  <SCORE.SYSTEM.DIHEDRAL>
0

>  <SCORE.SYSTEM.SOLV>
0

>  <SCORE.SYSTEM.norm>
0

>  <SCORE.heavy>
31

>  <SCORE.norm>
-0.947085

>  <RMSD>
1.634

$$$$
ligand
 OpenBabel11021811473D
libRbt.so/2013.1/901 2013/11/27
 31 33  0  0  0  0  0  0  0  0999 V2000
   27.3633   41.9686   17.4393 P   0  0  1  0  0  0  0  0  0  0  0  0
   28.7061   41.9698   16.7404 O   0  0  0  0  0  0  0  0  0  0  0  0
   27.6092   42.1358   18.9146 O   0  5  0  0  0  0  0  0  0  0  0  0
   26.5159   43.1056   16.9383 O   0  0  0  0  0  0  0  0  0  0  0  0
   26.9378   39.4169   17.7385 C   0  0  0  0  0  0  0  0  0  0  0  0
   26.5824   40.6150   17.0922 O   0  0  0  0  0  0  0  0  0  0  0  0
   28.3437   39.0195   17.3132 C   0  0  1  0  0  0  0  0  0  0  0  0
   29.2699   39.6510   18.1715 O   0  0  0  0  0  0  0  0  0  0  0  0
   28.5078   37.5010   17.3757 C   0  0  1  0  0  0  0  0  0  0  0  0
   29.6004   37.1087   16.5727 O   0  0  0  0  0  0  0  0  0  0  0  0
   28.6423   36.9520   18.8029 C   0  0  1  0  0  0  0  0  0  0  0  0
   29.6705   37.6349   19.4851 O   0  0  0  0  0  0  0  0  0  0  0  0
   27.3520   37.0711   19.5982 C   0  0  0  0  0  0  0  0  0  0  0  0
   27.4990   34.3074   19.0290 N   0  0  0  0  0  0  0  0  0  0  0  0
   27.6246   32.9727   18.7016 C   0  0  0  0  0  0  0  0  0  0  0  0
   27.6465   32.6246   17.5177 O   0  0  0  0  0  0  0  0  0  0  0  0
   27.7157   32.0298   19.7055 N   0  0  0  0  0  0  0  0  0  0  0  0
   27.6818   32.4164   21.0321 C   0  0  0  0  0  0  0  0  0  0  0  0
   27.5582   33.7497   21.3634 C   0  0  1  0  0  0  0  0  0  0  0  0
   27.7711   31.5876   21.9363 O   0  0  0  0  0  0  0  0  0  0  0  0
   27.4113   35.4513   23.0299 C   0  0  2  0  0  0  0  0  0  0  0  0
   27.5308   34.1182   22.6944 N   0  0  0  0  0  0  0  0  0  0  0  0
   27.3814   35.8253   24.3712 C   0  0  0  0  0  0  0  0  0  0  0  0
   27.2536   37.1661   24.7202 C   0  0  1  0  0  0  0  0  0  0  0  0
   27.2338   37.5535   26.1731 C   0  0  0  0  0  0  0  0  0  0  0  0
   27.1588   38.1367   23.7164 C   0  0  1  0  0  0  0  0  0  0  0  0
   27.0352   39.5923   24.0608 C   0  0  0  0  0  0  0  0  0  0  0  0
   27.1897   37.7591   22.3773 C   0  0  0  0  0  0  0  0  0  0  0  0
   27.3146   36.4175   22.0240 C   0  0  2  0  0  0  0  0  0  0  0  0
   27.4680   34.7036   20.3562 C   0  0  2  0  0  0  0  0  0  0  0  0
   27.3358   36.0386   20.6870 N   0  0  0  0  0  0  0  0  0  0  0  0
  1  2  1  6  0  0  0
  1  3  1  0  0  0  0
  1  4  2  0  0  0  0
  1  6  1  0  0  0  0
  5  6  1  0  0  0  0
  7  5  1  1  0  0  0
  7  8  1  0  0  0  0
  7  9  1  0  0  0  0
  9 10  1  6  0  0  0
  9 11  1  0  0  0  0
 11 12  1  1  0  0  0
 11 13  1  0  0  0  0
 13 31  1  0  0  0  0
 14 15  1  0  0  0  0
 15 16  2  0  0  0  0
 15 17  1  0  0  0  0
 17 18  1  0  0  0  0
 18 20  2  0  0  0  0
 19 18  1  6  0  0  0
 19 22  1  0  0  0  0
 19 30  1  0  0  0  0
 21 23  1  1  0  0  0
 21 29  1  0  0  0  0
 21 22  1  0  0  0  0
 23 24  1  0  0  0  0
 24 25  1  6  0  0  0
 24 26  1  0  0  0  0
 26 27  1  6  0  0  0
 26 28  1  0  0  0  0
 29 28  1  1  0  0  0
 29 31  1  0  0  0  0
 30 14  1  6  0  0  0
 30 31  1  0  0  0  0
M  CHG  1   3  -1
M  END
>  <CHROM.1>
-66.10466130,77.50252717,87.41114334,160.01517917,-52.82647133,155.41321960
116.90214102,27.71722222,37.30573655,19.94768581,1.44316869,1.43082478,-0.41283673

>  <Name>
ligand

>  <RI>
0

>  <Rbt.Current_Directory>
/home/itssahil/PROJECTS/Mol_Feturizer/New_Systems/rnas/3F2Q

>  <Rbt.Executable>
rbdock ($Id: //depot/dev/client3/rdock/2013.1/src/exe/rbdock.cxx#4 $)

>  <Rbt.Library>
libRbt.so (2013.1, Build901 2013/11/27)

>  <Rbt.Parameter_File>
/export/apps/rDock/src/rDock_2013.1_src/data/scripts/dock_solv.prm

>  <Rbt.Receptor>
prm/pocket_docking_3.prm

>  <SCORE>
-28.3866

>  <SCORE.INTER>
-28.1702

>  <SCORE.INTER.CONST>
1

>  <SCORE.INTER.POLAR>
0

>  <SCORE.INTER.ROT>
7

>  <SCORE.INTER.SOLV>
13.813

>  <SCORE.INTER.VDW>
-31.6511

>  <SCORE.INTER.norm>
-0.908717

>  <SCORE.INTRA>
-0.268044

>  <SCORE.INTRA.DIHEDRAL>
-2.44754

>  <SCORE.INTRA.DIHEDRAL.0>
10.0718

>  <SCORE.INTRA.POLAR>
0

>  <SCORE.INTRA.POLAR.0>
0

>  <SCORE.INTRA.REPUL>
0

>  <SCORE.INTRA.REPUL.0>
0

>  <SCORE.INTRA.SOLV>
1.19292

>  <SCORE.INTRA.SOLV.lig_0>
-48.6963

>  <SCORE.INTRA.VDW>
0.359266

>  <SCORE.INTRA.VDW.0>
-0.836976

>  <SCORE.INTRA.norm>
-0.00864658

>  <SCORE.RESTR>
0.0516303

>  <SCORE.RESTR.CAVITY>
0.0516303

>  <SCORE.RESTR.norm>
0.00166549

>  <SCORE.SYSTEM>
0

>  <SCORE.SYSTEM.CONST>
0

>  <SCORE.SYSTEM.DIHEDRAL>
0

>  <SCORE.SYSTEM.SOLV>
0

>  <SCORE.SYSTEM.norm>
0

>  <SCORE.heavy>
31

>  <SCORE.norm>
-0.915698

>  <RMSD>
1.651

$$$$
ligand
 OpenBabel11021811473D
libRbt.so/2013.1/901 2013/11/27
 31 33  0  0  0  0  0  0  0  0999 V2000
   26.0175   42.1393   18.6532 P   0  0  1  0  0  0  0  0  0  0  0  0
   25.7636   42.2786   20.1391 O   0  0  0  0  0  0  0  0  0  0  0  0
   25.2128   40.9696   18.1538 O   0  5  0  0  0  0  0  0  0  0  0  0
   25.5894   43.3886   17.9337 O   0  0  0  0  0  0  0  0  0  0  0  0
   28.2407   40.7931   18.8177 C   0  0  0  0  0  0  0  0  0  0  0  0
   27.5876   41.9652   18.3943 O   0  0  0  0  0  0  0  0  0  0  0  0
   27.8463   39.6443   17.9011 C   0  0  1  0  0  0  0  0  0  0  0  0
   27.7938   40.1237   16.5741 O   0  0  0  0  0  0  0  0  0  0  0  0
   28.8563   38.5027   18.0164 C   0  0  1  0  0  0  0  0  0  0  0  0
   30.1631   39.0062   17.8397 O   0  0  0  0  0  0  0  0  0  0  0  0
   28.7406   37.7044   19.3224 C   0  0  1  0  0  0  0  0  0  0  0  0
   29.1731   38.4943   20.4077 O   0  0  0  0  0  0  0  0  0  0  0  0
   27.3231   37.2239   19.5893 C   0  0  0  0  0  0  0  0  0  0  0  0
   27.4665   34.4528   19.0564 N   0  0  0  0  0  0  0  0  0  0  0  0
   27.5892   33.1140   18.7452 C   0  0  0  0  0  0  0  0  0  0  0  0
   27.5842   32.7489   17.5663 O   0  0  0  0  0  0  0  0  0  0  0  0
   27.7077   32.1860   19.7601 N   0  0  0  0  0  0  0  0  0  0  0  0
   27.7040   32.5916   21.0815 C   0  0  0  0  0  0  0  0  0  0  0  0
   27.5835   33.9290   21.3965 C   0  0  1  0  0  0  0  0  0  0  0  0
   27.8179   31.7762   21.9951 O   0  0  0  0  0  0  0  0  0  0  0  0
   27.4701   35.6541   23.0415 C   0  0  2  0  0  0  0  0  0  0  0  0
   27.5865   34.3167   22.7223 N   0  0  0  0  0  0  0  0  0  0  0  0
   27.4708   36.0472   24.3776 C   0  0  0  0  0  0  0  0  0  0  0  0
   27.3465   37.3924   24.7102 C   0  0  1  0  0  0  0  0  0  0  0  0
   27.3599   37.8007   26.1575 C   0  0  0  0  0  0  0  0  0  0  0  0
   27.2242   38.3482   23.6953 C   0  0  1  0  0  0  0  0  0  0  0  0
   27.1036   39.8082   24.0216 C   0  0  0  0  0  0  0  0  0  0  0  0
   27.2246   37.9514   22.3613 C   0  0  0  0  0  0  0  0  0  0  0  0
   27.3459   36.6053   22.0244 C   0  0  2  0  0  0  0  0  0  0  0  0
   27.4658   34.8680   20.3781 C   0  0  2  0  0  0  0  0  0  0  0  0
   27.3366   36.2072   20.6929 N   0  0  0  0  0  0  0  0  0  0  0  0
  1  2  1  1  0  0  0
  1  3  1  0  0  0  0
  1  4  2  0  0  0  0
  1  6  1  0  0  0  0
  5  6  1  0  0  0  0
  7  5  1  1  0  0  0
  7  8  1  0  0  0  0
  7  9  1  0  0  0  0
  9 10  1  1  0  0  0
  9 11  1  0  0  0  0
 11 12  1  1  0  0  0
 11 13  1  0  0  0  0
 13 31  1  0  0  0  0
 14 15  1  0  0  0  0
 15 16  2  0  0  0  0
 15 17  1  0  0  0  0
 17 18  1  0  0  0  0
 18 20  2  0  0  0  0
 19 18  1  6  0  0  0
 19 22  1  0  0  0  0
 19 30  1  0  0  0  0
 21 23  1  1  0  0  0
 21 29  1  0  0  0  0
 21 22  1  0  0  0  0
 23 24  1  0  0  0  0
 24 25  1  6  0  0  0
 24 26  1  0  0  0  0
 26 27  1  6  0  0  0
 26 28  1  0  0  0  0
 29 28  1  1  0  0  0
 29 31  1  0  0  0  0
 30 14  1  1  0  0  0
 30 31  1  0  0  0  0
M  CHG  1   3  -1
M  END
>  <CHROM.1>
73.16224354,67.99246286,39.84456231,-51.44975737,-69.97381283,167.31405726
82.94765698,27.44124741,37.67598600,20.32191380,2.27573913,1.41088866,-1.05407268

>  <Name>
ligand

>  <RI>
0

>  <Rbt.Current_Directory>
/home/itssahil/PROJECTS/Mol_Feturizer/New_Systems/rnas/3F2Q

>  <Rbt.Executable>
rbdock ($Id: //depot/dev/client3/rdock/2013.1/src/exe/rbdock.cxx#4 $)

>  <Rbt.Library>
libRbt.so (2013.1, Build901 2013/11/27)

>  <Rbt.Parameter_File>
/export/apps/rDock/src/rDock_2013.1_src/data/scripts/dock_solv.prm

>  <Rbt.Receptor>
prm/pocket_docking_3.prm

>  <SCORE>
-27.231

>  <SCORE.INTER>
-24.6276

>  <SCORE.INTER.CONST>
1

>  <SCORE.INTER.POLAR>
0

>  <SCORE.INTER.ROT>
7

>  <SCORE.INTER.SOLV>
14.816

>  <SCORE.INTER.VDW>
-29.6237

>  <SCORE.INTER.norm>
-0.794439

>  <SCORE.INTRA>
-2.6253

>  <SCORE.INTRA.DIHEDRAL>
-5.44287

>  <SCORE.INTRA.DIHEDRAL.0>
10.0718

>  <SCORE.INTRA.POLAR>
0

>  <SCORE.INTRA.POLAR.0>
0

>  <SCORE.INTRA.REPUL>
0

>  <SCORE.INTRA.REPUL.0>
0

>  <SCORE.INTRA.SOLV>
1.54271

>  <SCORE.INTRA.SOLV.lig_0>
-48.6963

>  <SCORE.INTRA.VDW>
-0.675219

>  <SCORE.INTRA.VDW.0>
-0.836976

>  <SCORE.INTRA.norm>
-0.084687

>  <SCORE.RESTR>
0.0219289

>  <SCORE.RESTR.CAVITY>
0.0219289

>  <SCORE.RESTR.norm>
0.000707384

>  <SCORE.SYSTEM>
0

>  <SCORE.SYSTEM.CONST>
0

>  <SCORE.SYSTEM.DIHEDRAL>
0

>  <SCORE.SYSTEM.SOLV>
0

>  <SCORE.SYSTEM.norm>
0

>  <SCORE.heavy>
31

>  <SCORE.norm>
-0.878419

>  <RMSD>
1.719

$$$$
ligand
 OpenBabel11021811473D
libRbt.so/2013.1/901 2013/11/27
 31 33  0  0  0  0  0  0  0  0999 V2000
   28.0429   42.1861   18.2081 P   0  0  1  0  0  0  0  0  0  0  0  0
   28.3849   42.9297   19.4816 O   0  0  0  0  0  0  0  0  0  0  0  0
   26.6904   41.5520   18.3914 O   0  5  0  0  0  0  0  0  0  0  0  0
   27.9985   43.1396   17.0459 O   0  0  0  0  0  0  0  0  0  0  0  0
   29.0358   40.2231   16.8144 C   0  0  0  0  0  0  0  0  0  0  0  0
   29.1900   41.1154   17.8912 O   0  0  0  0  0  0  0  0  0  0  0  0
   28.9425   38.8032   17.3535 C   0  0  1  0  0  0  0  0  0  0  0  0
   30.0858   38.5435   18.1402 O   0  0  0  0  0  0  0  0  0  0  0  0
   27.6721   38.6342   18.1867 C   0  0  1  0  0  0  0  0  0  0  0  0
   26.5469   38.9932   17.4137 O   0  0  0  0  0  0  0  0  0  0  0  0
   27.5086   37.2309   18.7869 C   0  0  1  0  0  0  0  0  0  0  0  0
   27.6024   36.2594   17.7690 O   0  0  0  0  0  0  0  0  0  0  0  0
   28.5434   36.9305   19.8595 C   0  0  0  0  0  0  0  0  0  0  0  0
   28.5512   34.1849   19.1924 N   0  0  0  0  0  0  0  0  0  0  0  0
   28.6246   32.8524   18.8409 C   0  0  0  0  0  0  0  0  0  0  0  0
   29.0330   32.5283   17.7223 O   0  0  0  0  0  0  0  0  0  0  0  0
   28.2294   31.8861   19.7438 N   0  0  0  0  0  0  0  0  0  0  0  0
   27.7626   32.2471   20.9937 C   0  0  0  0  0  0  0  0  0  0  0  0
   27.6896   33.5777   21.3495 C   0  0  1  0  0  0  0  0  0  0  0  0
   27.4159   31.3960   21.8110 O   0  0  0  0  0  0  0  0  0  0  0  0
   27.1542   35.2498   22.9657 C   0  0  2  0  0  0  0  0  0  0  0  0
   27.2250   33.9199   22.6046 N   0  0  0  0  0  0  0  0  0  0  0  0
   26.6842   35.5974   24.2299 C   0  0  0  0  0  0  0  0  0  0  0  0
   26.6018   36.9358   24.6011 C   0  0  1  0  0  0  0  0  0  0  0  0
   26.1022   37.2931   25.9737 C   0  0  0  0  0  0  0  0  0  0  0  0
   26.9968   37.9301   23.6989 C   0  0  1  0  0  0  0  0  0  0  0  0
   26.9339   39.3817   24.0753 C   0  0  0  0  0  0  0  0  0  0  0  0
   27.4665   37.5786   22.4369 C   0  0  0  0  0  0  0  0  0  0  0  0
   27.5477   36.2400   22.0605 C   0  0  2  0  0  0  0  0  0  0  0  0
   28.0881   34.5549   20.4445 C   0  0  2  0  0  0  0  0  0  0  0  0
   28.0075   35.8885   20.7970 N   0  0  0  0  0  0  0  0  0  0  0  0
  1  2  1  1  0  0  0
  1  3  1  0  0  0  0
  1  4  2  0  0  0  0
  1  6  1  0  0  0  0
  5  6  1  0  0  0  0
  7  5  1  1  0  0  0
  7  8  1  0  0  0  0
  7  9  1  0  0  0  0
  9 10  1  6  0  0  0
  9 11  1  0  0  0  0
 11 12  1  6  0  0  0
 11 13  1  0  0  0  0
 13 31  1  0  0  0  0
 14 15  1  0  0  0  0
 15 16  2  0  0  0  0
 15 17  1  0  0  0  0
 17 18  1  0  0  0  0
 18 20  2  0  0  0  0
 19 18  1  1  0  0  0
 19 22  1  0  0  0  0
 19 30  1  0  0  0  0
 21 23  1  6  0  0  0
 21 29  1  0  0  0  0
 21 22  1  0  0  0  0
 23 24  1  0  0  0  0
 24 25  1  1  0  0  0
 24 26  1  0  0  0  0
 26 27  1  1  0  0  0
 26 28  1  0  0  0  0
 29 28  1  6  0  0  0
 29 31  1  0  0  0  0
 30 14  1  6  0  0  0
 30 31  1  0  0  0  0
M  CHG  1   3  -1
M  END
>  <CHROM.1>
-115.06514029,174.62267810,-55.81542560,55.59462134,-53.69077651,155.00482778
-103.94557854,27.84653686,37.29302739,20.08515534,1.34495607,1.29859509,-0.21024728

>  <Name>
ligand

>  <RI>
0

>  <Rbt.Current_Directory>
/home/itssahil/PROJECTS/Mol_Feturizer/New_Systems/rnas/3F2Q

>  <Rbt.Executable>
rbdock ($Id: //depot/dev/client3/rdock/2013.1/src/exe/rbdock.cxx#4 $)

>  <Rbt.Library>
libRbt.so (2013.1, Build901 2013/11/27)

>  <Rbt.Parameter_File>
/export/apps/rDock/src/rDock_2013.1_src/data/scripts/dock_solv.prm

>  <Rbt.Receptor>
prm/pocket_docking_3.prm

>  <SCORE>
-31.6936

>  <SCORE.INTER>
-32.1825

>  <SCORE.INTER.CONST>
1

>  <SCORE.INTER.POLAR>
0

>  <SCORE.INTER.ROT>
7

>  <SCORE.INTER.SOLV>
16.6915

>  <SCORE.INTER.VDW>
-35.2855

>  <SCORE.INTER.norm>
-1.03814

>  <SCORE.INTRA>
0.488902

>  <SCORE.INTRA.DIHEDRAL>
0.773152

>  <SCORE.INTRA.DIHEDRAL.0>
10.0718

>  <SCORE.INTRA.POLAR>
0

>  <SCORE.INTRA.POLAR.0>
0

>  <SCORE.INTRA.REPUL>
0

>  <SCORE.INTRA.REPUL.0>
0

>  <SCORE.INTRA.SOLV>
2.74676

>  <SCORE.INTRA.SOLV.lig_0>
-48.6963

>  <SCORE.INTRA.VDW>
-1.27105

>  <SCORE.INTRA.VDW.0>
-0.836976

>  <SCORE.INTRA.norm>
0.015771

>  <SCORE.RESTR>
0

>  <SCORE.RESTR.CAVITY>
0

>  <SCORE.RESTR.norm>
0

>  <SCORE.SYSTEM>
0

>  <SCORE.SYSTEM.CONST>
0

>  <SCORE.SYSTEM.DIHEDRAL>
0

>  <SCORE.SYSTEM.SOLV>
0

>  <SCORE.SYSTEM.norm>
0

>  <SCORE.heavy>
31

>  <SCORE.norm>
-1.02237

>  <RMSD>
1.730

$$$$
ligand
 OpenBabel11021811473D
libRbt.so/2013.1/901 2013/11/27
 31 33  0  0  0  0  0  0  0  0999 V2000
   26.7528   41.7390   18.2249 P   0  0  1  0  0  0  0  0  0  0  0  0
   27.4681   42.7202   19.1289 O   0  0  0  0  0  0  0  0  0  0  0  0
   25.5693   41.1938   18.9780 O   0  5  0  0  0  0  0  0  0  0  0  0
   26.2794   42.4324   16.9772 O   0  0  0  0  0  0  0  0  0  0  0  0
   28.4851   39.8623   18.7333 C   0  0  0  0  0  0  0  0  0  0  0  0
   27.7738   40.5948   17.7655 O   0  0  0  0  0  0  0  0  0  0  0  0
   29.4727   38.9401   18.0335 C   0  0  1  0  0  0  0  0  0  0  0  0
   30.4276   38.5026   18.9770 O   0  0  0  0  0  0  0  0  0  0  0  0
   28.7413   37.7454   17.4216 C   0  0  1  0  0  0  0  0  0  0  0  0
   29.4678   37.2624   16.3119 O   0  0  0  0  0  0  0  0  0  0  0  0
   28.4466   36.6212   18.4243 C   0  0  1  0  0  0  0  0  0  0  0  0
   29.6399   36.2195   19.0596 O   0  0  0  0  0  0  0  0  0  0  0  0
   27.4334   37.0320   19.4808 C   0  0  0  0  0  0  0  0  0  0  0  0
   27.5034   34.2613   18.9312 N   0  0  0  0  0  0  0  0  0  0  0  0
   27.5911   32.9215   18.6124 C   0  0  0  0  0  0  0  0  0  0  0  0
   27.5863   32.5641   17.4311 O   0  0  0  0  0  0  0  0  0  0  0  0
   27.6742   31.9842   19.6222 N   0  0  0  0  0  0  0  0  0  0  0  0
   27.6700   32.3815   20.9461 C   0  0  0  0  0  0  0  0  0  0  0  0
   27.5845   33.7198   21.2687 C   0  0  1  0  0  0  0  0  0  0  0  0
   27.7526   31.5575   21.8554 O   0  0  0  0  0  0  0  0  0  0  0  0
   27.5051   35.4370   22.9239 C   0  0  2  0  0  0  0  0  0  0  0  0
   27.5865   34.0989   22.5971 N   0  0  0  0  0  0  0  0  0  0  0  0
   27.5049   35.8216   24.2625 C   0  0  0  0  0  0  0  0  0  0  0  0
   27.4155   37.1677   24.6027 C   0  0  1  0  0  0  0  0  0  0  0  0
   27.4275   37.5664   26.0527 C   0  0  0  0  0  0  0  0  0  0  0  0
   27.3295   38.1329   23.5930 C   0  0  1  0  0  0  0  0  0  0  0  0
   27.2471   39.5937   23.9277 C   0  0  0  0  0  0  0  0  0  0  0  0
   27.3306   37.7446   22.2565 C   0  0  0  0  0  0  0  0  0  0  0  0
   27.4169   36.3978   21.9119 C   0  0  2  0  0  0  0  0  0  0  0  0
   27.5025   34.6681   20.2555 C   0  0  2  0  0  0  0  0  0  0  0  0
   27.4084   36.0084   20.5778 N   0  0  0  0  0  0  0  0  0  0  0  0
  1  2  1  1  0  0  0
  1  3  1  0  0  0  0
  1  4  2  0  0  0  0
  1  6  1  0  0  0  0
  5  6  1  0  0  0  0
  7  5  1  1  0  0  0
  7  8  1  0  0  0  0
  7  9  1  0  0  0  0
  9 10  1  6  0  0  0
  9 11  1  0  0  0  0
 11 12  1  1  0  0  0
 11 13  1  0  0  0  0
 13 31  1  0  0  0  0
 14 15  1  0  0  0  0
 15 16  2  0  0  0  0
 15 17  1  0  0  0  0
 17 18  1  0  0  0  0
 18 20  2  0  0  0  0
 19 18  1  6  0  0  0
 19 22  1  0  0  0  0
 19 30  1  0  0  0  0
 21 23  1  1  0  0  0
 21 29  1  0  0  0  0
 21 22  1  0  0  0  0
 23 24  1  0  0  0  0
 24 25  1  6  0  0  0
 24 26  1  0  0  0  0
 26 27  1  6  0  0  0
 26 28  1  0  0  0  0
 29 28  1  1  0  0  0
 29 31  1  0  0  0  0
 30 14  1  1  0  0  0
 30 31  1  0  0  0  0
M  CHG  1   3  -1
M  END
>  <CHROM.1>
-174.69806499,54.24897771,163.48159099,152.89823303,-54.50788437,-168.23889701
134.48551124,27.74776500,37.16748326,20.10290058,1.79789457,1.40395790,-0.59543320

>  <Name>
ligand

>  <RI>
0

>  <Rbt.Current_Directory>
/home/itssahil/PROJECTS/Mol_Feturizer/New_Systems/rnas/3F2Q

>  <Rbt.Executable>
rbdock ($Id: //depot/dev/client3/rdock/2013.1/src/exe/rbdock.cxx#4 $)

>  <Rbt.Library>
libRbt.so (2013.1, Build901 2013/11/27)

>  <Rbt.Parameter_File>
/export/apps/rDock/src/rDock_2013.1_src/data/scripts/dock_solv.prm

>  <Rbt.Receptor>
prm/pocket_docking_3.prm

>  <SCORE>
-27.0165

>  <SCORE.INTER>
-25.7278

>  <SCORE.INTER.CONST>
1

>  <SCORE.INTER.POLAR>
0

>  <SCORE.INTER.ROT>
7

>  <SCORE.INTER.SOLV>
12.4118

>  <SCORE.INTER.VDW>
-29.5558

>  <SCORE.INTER.norm>
-0.82993

>  <SCORE.INTRA>
-1.28867

>  <SCORE.INTRA.DIHEDRAL>
-4.67077

>  <SCORE.INTRA.DIHEDRAL.0>
10.0718

>  <SCORE.INTRA.POLAR>
0

>  <SCORE.INTRA.POLAR.0>
0

>  <SCORE.INTRA.REPUL>
0

>  <SCORE.INTRA.REPUL.0>
0

>  <SCORE.INTRA.SOLV>
-0.906677

>  <SCORE.INTRA.SOLV.lig_0>
-48.6963

>  <SCORE.INTRA.VDW>
1.50006

>  <SCORE.INTRA.VDW.0>
-0.836976

>  <SCORE.INTRA.norm>
-0.0415699

>  <SCORE.RESTR>
0

>  <SCORE.RESTR.CAVITY>
0

>  <SCORE.RESTR.norm>
0

>  <SCORE.SYSTEM>
0

>  <SCORE.SYSTEM.CONST>
0

>  <SCORE.SYSTEM.DIHEDRAL>
0

>  <SCORE.SYSTEM.SOLV>
0

>  <SCORE.SYSTEM.norm>
0

>  <SCORE.heavy>
31

>  <SCORE.norm>
-0.8715

>  <RMSD>
1.754

$$$$
ligand
 OpenBabel11021811473D
libRbt.so/2013.1/901 2013/11/27
 31 33  0  0  0  0  0  0  0  0999 V2000
   24.2553   41.7625   18.9448 P   0  0  1  0  0  0  0  0  0  0  0  0
   24.4509   41.8386   17.4457 O   0  0  0  0  0  0  0  0  0  0  0  0
   23.1813   42.7470   19.3221 O   0  5  0  0  0  0  0  0  0  0  0  0
   23.8298   40.3762   19.3434 O   0  0  0  0  0  0  0  0  0  0  0  0
   26.5600   41.0046   19.8912 C   0  0  0  0  0  0  0  0  0  0  0  0
   25.6472   42.0541   19.6800 O   0  0  0  0  0  0  0  0  0  0  0  0
   26.8816   40.3479   18.5568 C   0  0  1  0  0  0  0  0  0  0  0  0
   27.3694   41.3357   17.6739 O   0  0  0  0  0  0  0  0  0  0  0  0
   27.9198   39.2420   18.7461 C   0  0  1  0  0  0  0  0  0  0  0  0
   29.0994   39.7882   19.2962 O   0  0  0  0  0  0  0  0  0  0  0  0
   27.4151   38.0565   19.5806 C   0  0  1  0  0  0  0  0  0  0  0  0
   26.3675   37.4020   18.9002 O   0  0  0  0  0  0  0  0  0  0  0  0
   28.5129   37.0513   19.8904 C   0  0  0  0  0  0  0  0  0  0  0  0
   28.4922   34.2938   19.2747 N   0  0  0  0  0  0  0  0  0  0  0  0
   28.5510   32.9547   18.9462 C   0  0  0  0  0  0  0  0  0  0  0  0
   28.9276   32.6082   17.8232 O   0  0  0  0  0  0  0  0  0  0  0  0
   28.1769   32.0070   19.8774 N   0  0  0  0  0  0  0  0  0  0  0  0
   27.7457   32.3931   21.1326 C   0  0  0  0  0  0  0  0  0  0  0  0
   27.6873   33.7304   21.4653 C   0  0  1  0  0  0  0  0  0  0  0  0
   27.4181   31.5588   21.9747 O   0  0  0  0  0  0  0  0  0  0  0  0
   27.2024   35.4344   23.0640 C   0  0  2  0  0  0  0  0  0  0  0  0
   27.2584   34.0978   22.7259 N   0  0  0  0  0  0  0  0  0  0  0  0
   26.7683   35.8074   24.3338 C   0  0  0  0  0  0  0  0  0  0  0  0
   26.7010   37.1528   24.6820 C   0  0  1  0  0  0  0  0  0  0  0  0
   26.2403   37.5377   26.0608 C   0  0  0  0  0  0  0  0  0  0  0  0
   27.0751   38.1285   23.7511 C   0  0  1  0  0  0  0  0  0  0  0  0
   27.0278   39.5871   24.1019 C   0  0  0  0  0  0  0  0  0  0  0  0
   27.5089   37.7517   22.4836 C   0  0  0  0  0  0  0  0  0  0  0  0
   27.5748   36.4060   22.1301 C   0  0  2  0  0  0  0  0  0  0  0  0
   28.0647   34.6890   20.5318 C   0  0  2  0  0  0  0  0  0  0  0  0
   27.9987   36.0292   20.8613 N   0  0  0  0  0  0  0  0  0  0  0  0
  1  2  1  6  0  0  0
  1  3  1  0  0  0  0
  1  4  2  0  0  0  0
  1  6  1  0  0  0  0
  5  6  1  0  0  0  0
  7  5  1  1  0  0  0
  7  8  1  0  0  0  0
  7  9  1  0  0  0  0
  9 10  1  1  0  0  0
  9 11  1  0  0  0  0
 11 12  1  6  0  0  0
 11 13  1  0  0  0  0
 13 31  1  0  0  0  0
 14 15  1  0  0  0  0
 15 16  2  0  0  0  0
 15 17  1  0  0  0  0
 17 18  1  0  0  0  0
 18 20  2  0  0  0  0
 19 18  1  1  0  0  0
 19 22  1  0  0  0  0
 19 30  1  0  0  0  0
 21 23  1  6  0  0  0
 21 29  1  0  0  0  0
 21 22  1  0  0  0  0
 23 24  1  0  0  0  0
 24 25  1  1  0  0  0
 24 26  1  0  0  0  0
 26 27  1  1  0  0  0
 26 28  1  0  0  0  0
 29 28  1  6  0  0  0
 29 31  1  0  0  0  0
 30 14  1  6  0  0  0
 30 31  1  0  0  0  0
M  CHG  1   3  -1
M  END
>  <CHROM.1>
55.83353298,-85.55844387,56.34530895,-59.46436075,64.86379192,172.12398804
-61.67837700,26.86867526,37.57188302,20.55474082,-2.61426914,-1.20308230
1.86048061

>  <Name>
ligand

>  <RI>
0

>  <Rbt.Current_Directory>
/home/itssahil/PROJECTS/Mol_Feturizer/New_Systems/rnas/3F2Q

>  <Rbt.Executable>
rbdock ($Id: //depot/dev/client3/rdock/2013.1/src/exe/rbdock.cxx#4 $)

>  <Rbt.Library>
libRbt.so (2013.1, Build901 2013/11/27)

>  <Rbt.Parameter_File>
/export/apps/rDock/src/rDock_2013.1_src/data/scripts/dock_solv.prm

>  <Rbt.Receptor>
prm/pocket_docking_7.prm

>  <SCORE>
-35.5185

>  <SCORE.INTER>
-31.9608

>  <SCORE.INTER.CONST>
1

>  <SCORE.INTER.POLAR>
0

>  <SCORE.INTER.ROT>
7

>  <SCORE.INTER.SOLV>
21.1775

>  <SCORE.INTER.VDW>
-36.6331

>  <SCORE.INTER.norm>
-1.031

>  <SCORE.INTRA>
-3.55763

>  <SCORE.INTRA.DIHEDRAL>
-7.37162

>  <SCORE.INTRA.DIHEDRAL.0>
10.0718

>  <SCORE.INTRA.POLAR>
0

>  <SCORE.INTRA.POLAR.0>
0

>  <SCORE.INTRA.REPUL>
0

>  <SCORE.INTRA.REPUL.0>
0

>  <SCORE.INTRA.SOLV>
1.04568

>  <SCORE.INTRA.SOLV.lig_0>
-48.6963

>  <SCORE.INTRA.VDW>
-0.394659

>  <SCORE.INTRA.VDW.0>
-0.836976

>  <SCORE.INTRA.norm>
-0.114762

>  <SCORE.RESTR>
0

>  <SCORE.RESTR.CAVITY>
0

>  <SCORE.RESTR.norm>
0

>  <SCORE.SYSTEM>
0

>  <SCORE.SYSTEM.CONST>
0

>  <SCORE.SYSTEM.DIHEDRAL>
0

>  <SCORE.SYSTEM.SOLV>
0

>  <SCORE.SYSTEM.norm>
0

>  <SCORE.heavy>
31

>  <SCORE.norm>
-1.14576

>  <RMSD>
1.763

$$$$
ligand
 OpenBabel11021811473D
libRbt.so/2013.1/901 2013/11/27
 31 33  0  0  0  0  0  0  0  0999 V2000
   24.2339   41.9961   18.8537 P   0  0  1  0  0  0  0  0  0  0  0  0
   22.9764   41.1766   19.0506 O   0  0  0  0  0  0  0  0  0  0  0  0
   23.8419   43.2970   18.2062 O   0  5  0  0  0  0  0  0  0  0  0  0
   24.8878   42.2709   20.1798 O   0  0  0  0  0  0  0  0  0  0  0  0
   26.1456   40.2450   18.6075 C   0  0  0  0  0  0  0  0  0  0  0  0
   25.2831   41.1615   17.9788 O   0  0  0  0  0  0  0  0  0  0  0  0
   26.8904   39.4517   17.5439 C   0  0  1  0  0  0  0  0  0  0  0  0
   27.4241   40.3547   16.5989 O   0  0  0  0  0  0  0  0  0  0  0  0
   28.0071   38.6259   18.1825 C   0  0  1  0  0  0  0  0  0  0  0  0
   28.9841   39.4887   18.7246 O   0  0  0  0  0  0  0  0  0  0  0  0
   27.5105   37.6209   19.2312 C   0  0  1  0  0  0  0  0  0  0  0  0
   26.6568   36.6765   18.6245 O   0  0  0  0  0  0  0  0  0  0  0  0
   28.6492   36.8903   19.9247 C   0  0  0  0  0  0  0  0  0  0  0  0
   28.5567   34.1345   19.3079 N   0  0  0  0  0  0  0  0  0  0  0  0
   28.5810   32.7942   18.9801 C   0  0  0  0  0  0  0  0  0  0  0  0
   28.9660   32.4364   17.8634 O   0  0  0  0  0  0  0  0  0  0  0  0
   28.1633   31.8583   19.9046 N   0  0  0  0  0  0  0  0  0  0  0  0
   27.7227   32.2573   21.1524 C   0  0  0  0  0  0  0  0  0  0  0  0
   27.6987   33.5958   21.4845 C   0  0  1  0  0  0  0  0  0  0  0  0
   27.3563   31.4332   21.9886 O   0  0  0  0  0  0  0  0  0  0  0  0
   27.2381   35.3138   23.0754 C   0  0  2  0  0  0  0  0  0  0  0  0
   27.2598   33.9760   22.7379 N   0  0  0  0  0  0  0  0  0  0  0  0
   26.7940   35.6998   24.3378 C   0  0  0  0  0  0  0  0  0  0  0  0
   26.7610   37.0466   24.6853 C   0  0  1  0  0  0  0  0  0  0  0  0
   26.2889   37.4454   26.0563 C   0  0  0  0  0  0  0  0  0  0  0  0
   27.1796   38.0106   23.7611 C   0  0  1  0  0  0  0  0  0  0  0  0
   27.1700   39.4700   24.1115 C   0  0  0  0  0  0  0  0  0  0  0  0
   27.6232   37.6208   22.5009 C   0  0  0  0  0  0  0  0  0  0  0  0
   27.6549   36.2737   22.1482 C   0  0  2  0  0  0  0  0  0  0  0  0
   28.1201   34.5425   20.5578 C   0  0  2  0  0  0  0  0  0  0  0  0
   28.0886   35.8841   20.8866 N   0  0  0  0  0  0  0  0  0  0  0  0
  1  2  1  1  0  0  0
  1  3  1  0  0  0  0
  1  4  2  0  0  0  0
  1  6  1  0  0  0  0
  5  6  1  0  0  0  0
  7  5  1  1  0  0  0
  7  8  1  0  0  0  0
  7  9  1  0  0  0  0
  9 10  1  1  0  0  0
  9 11  1  0  0  0  0
 11 12  1  6  0  0  0
 11 13  1  0  0  0  0
 13 31  1  0  0  0  0
 14 15  1  0  0  0  0
 15 16  2  0  0  0  0
 15 17  1  0  0  0  0
 17 18  1  0  0  0  0
 18 20  2  0  0  0  0
 19 18  1  1  0  0  0
 19 22  1  0  0  0  0
 19 30  1  0  0  0  0
 21 23  1  6  0  0  0
 21 29  1  0  0  0  0
 21 22  1  0  0  0  0
 23 24  1  0  0  0  0
 24 25  1  1  0  0  0
 24 26  1  0  0  0  0
 26 27  1  1  0  0  0
 26 28  1  0  0  0  0
 29 28  1  6  0  0  0
 29 31  1  0  0  0  0
 30 14  1  6  0  0  0
 30 31  1  0  0  0  0
M  CHG  1   3  -1
M  END
>  <CHROM.1>
171.99826594,-85.28412267,48.90068966,-65.59929408,62.50597678,-177.42450193
-81.10686454,26.89117965,37.39257271,20.38092718,2.56588047,1.18047397,-1.27181835

>  <Name>
ligand

>  <RI>
0

>  <Rbt.Current_Directory>
/home/itssahil/PROJECTS/Mol_Feturizer/New_Systems/rnas/3F2Q

>  <Rbt.Executable>
rbdock ($Id: //depot/dev/client3/rdock/2013.1/src/exe/rbdock.cxx#4 $)

>  <Rbt.Library>
libRbt.so (2013.1, Build901 2013/11/27)

>  <Rbt.Parameter_File>
/export/apps/rDock/src/rDock_2013.1_src/data/scripts/dock_solv.prm

>  <Rbt.Receptor>
prm/pocket_docking_4.prm

>  <SCORE>
-37.5992

>  <SCORE.INTER>
-33.0957

>  <SCORE.INTER.CONST>
1

>  <SCORE.INTER.POLAR>
0

>  <SCORE.INTER.ROT>
7

>  <SCORE.INTER.SOLV>
19.2433

>  <SCORE.INTER.VDW>
-36.7449

>  <SCORE.INTER.norm>
-1.0676

>  <SCORE.INTRA>
-4.5035

>  <SCORE.INTRA.DIHEDRAL>
-6.76435

>  <SCORE.INTRA.DIHEDRAL.0>
10.0718

>  <SCORE.INTRA.POLAR>
0

>  <SCORE.INTRA.POLAR.0>
0

>  <SCORE.INTRA.REPUL>
0

>  <SCORE.INTRA.REPUL.0>
0

>  <SCORE.INTRA.SOLV>
-1.27743

>  <SCORE.INTRA.SOLV.lig_0>
-48.6963

>  <SCORE.INTRA.VDW>
-0.482614

>  <SCORE.INTRA.VDW.0>
-0.836976

>  <SCORE.INTRA.norm>
-0.145274

>  <SCORE.RESTR>
0

>  <SCORE.RESTR.CAVITY>
0

>  <SCORE.RESTR.norm>
0

>  <SCORE.SYSTEM>
0

>  <SCORE.SYSTEM.CONST>
0

>  <SCORE.SYSTEM.DIHEDRAL>
0

>  <SCORE.SYSTEM.SOLV>
0

>  <SCORE.SYSTEM.norm>
0

>  <SCORE.heavy>
31

>  <SCORE.norm>
-1.21288

>  <RMSD>
1.773

$$$$
ligand
 OpenBabel11021811473D
libRbt.so/2013.1/901 2013/11/27
 31 33  0  0  0  0  0  0  0  0999 V2000
   23.9731   41.7384   19.3605 P   0  0  1  0  0  0  0  0  0  0  0  0
   23.1062   40.6867   18.7018 O   0  0  0  0  0  0  0  0  0  0  0  0
   23.9909   42.9495   18.4672 O   0  5  0  0  0  0  0  0  0  0  0  0
   23.4074   42.1115   20.7031 O   0  0  0  0  0  0  0  0  0  0  0  0
   26.3083   40.9335   18.5353 C   0  0  0  0  0  0  0  0  0  0  0  0
   25.4350   41.1394   19.6189 O   0  0  0  0  0  0  0  0  0  0  0  0
   27.7183   40.7189   19.0656 C   0  0  1  0  0  0  0  0  0  0  0  0
   27.7100   40.9200   20.4631 O   0  0  0  0  0  0  0  0  0  0  0  0
   28.2015   39.3074   18.7326 C   0  0  1  0  0  0  0  0  0  0  0  0
   29.6106   39.2956   18.6513 O   0  0  0  0  0  0  0  0  0  0  0  0
   27.6923   38.2343   19.7050 C   0  0  1  0  0  0  0  0  0  0  0  0
   26.4609   37.7194   19.2497 O   0  0  0  0  0  0  0  0  0  0  0  0
   28.6775   37.0894   19.8789 C   0  0  0  0  0  0  0  0  0  0  0  0
   28.5434   34.3363   19.2578 N   0  0  0  0  0  0  0  0  0  0  0  0
   28.5472   32.9965   18.9268 C   0  0  0  0  0  0  0  0  0  0  0  0
   28.9123   32.6367   17.8042 O   0  0  0  0  0  0  0  0  0  0  0  0
   28.1311   32.0636   19.8551 N   0  0  0  0  0  0  0  0  0  0  0  0
   27.7126   32.4651   21.1098 C   0  0  0  0  0  0  0  0  0  0  0  0
   27.7093   33.8031   21.4449 C   0  0  1  0  0  0  0  0  0  0  0  0
   27.3480   31.6436   21.9493 O   0  0  0  0  0  0  0  0  0  0  0  0
   27.2913   35.5229   23.0456 C   0  0  2  0  0  0  0  0  0  0  0  0
   27.2924   34.1857   22.7050 N   0  0  0  0  0  0  0  0  0  0  0  0
   26.8694   35.9114   24.3148 C   0  0  0  0  0  0  0  0  0  0  0  0
   26.8574   37.2577   24.6655 C   0  0  1  0  0  0  0  0  0  0  0  0
   26.4091   37.6590   26.0437 C   0  0  0  0  0  0  0  0  0  0  0  0
   27.2747   38.2187   23.7375 C   0  0  1  0  0  0  0  0  0  0  0  0
   27.2874   39.6773   24.0910 C   0  0  0  0  0  0  0  0  0  0  0  0
   27.6961   37.8264   22.4705 C   0  0  0  0  0  0  0  0  0  0  0  0
   27.7068   36.4798   22.1146 C   0  0  2  0  0  0  0  0  0  0  0  0
   28.1291   34.7467   20.5144 C   0  0  2  0  0  0  0  0  0  0  0  0
   28.1183   36.0879   20.8464 N   0  0  0  0  0  0  0  0  0  0  0  0
  1  2  1  6  0  0  0
  1  3  1  0  0  0  0
  1  4  2  0  0  0  0
  1  6  1  0  0  0  0
  5  6  1  0  0  0  0
  7  5  1  1  0  0  0
  7  8  1  0  0  0  0
  7  9  1  0  0  0  0
  9 10  1  1  0  0  0
  9 11  1  0  0  0  0
 11 12  1  6  0  0  0
 11 13  1  0  0  0  0
 13 31  1  0  0  0  0
 14 15  1  0  0  0  0
 15 16  2  0  0  0  0
 15 17  1  0  0  0  0
 17 18  1  0  0  0  0
 18 20  2  0  0  0  0
 19 18  1  1  0  0  0
 19 22  1  0  0  0  0
 19 30  1  0  0  0  0
 21 23  1  6  0  0  0
 21 29  1  0  0  0  0
 21 22  1  0  0  0  0
 23 24  1  0  0  0  0
 24 25  1  1  0  0  0
 24 26  1  0  0  0  0
 26 27  1  1  0  0  0
 26 28  1  0  0  0  0
 29 28  1  6  0  0  0
 29 31  1  0  0  0  0
 30 14  1  6  0  0  0
 30 31  1  0  0  0  0
M  CHG  1   3  -1
M  END
>  <CHROM.1>
165.15400924,72.42086123,-5.37799027,153.36064899,89.62257586,179.61287910
-54.47876639,26.91975889,37.60105306,20.69876670,-2.71762706,-1.17751648
1.84224289

>  <Name>
ligand

>  <RI>
0

>  <Rbt.Current_Directory>
/home/itssahil/PROJECTS/Mol_Feturizer/New_Systems/rnas/3F2Q

>  <Rbt.Executable>
rbdock ($Id: //depot/dev/client3/rdock/2013.1/src/exe/rbdock.cxx#4 $)

>  <Rbt.Library>
libRbt.so (2013.1, Build901 2013/11/27)

>  <Rbt.Parameter_File>
/export/apps/rDock/src/rDock_2013.1_src/data/scripts/dock_solv.prm

>  <Rbt.Receptor>
prm/blind_docking_80.prm

>  <SCORE>
-30.6544

>  <SCORE.INTER>
-31.8852

>  <SCORE.INTER.CONST>
1

>  <SCORE.INTER.POLAR>
0

>  <SCORE.INTER.ROT>
7

>  <SCORE.INTER.SOLV>
20.4107

>  <SCORE.INTER.VDW>
-36.327

>  <SCORE.INTER.norm>
-1.02855

>  <SCORE.INTRA>
1.23078

>  <SCORE.INTRA.DIHEDRAL>
2.32723

>  <SCORE.INTRA.DIHEDRAL.0>
10.0718

>  <SCORE.INTRA.POLAR>
0

>  <SCORE.INTRA.POLAR.0>
0

>  <SCORE.INTRA.REPUL>
0

>  <SCORE.INTRA.REPUL.0>
0

>  <SCORE.INTRA.SOLV>
-0.879235

>  <SCORE.INTRA.SOLV.lig_0>
-48.6963

>  <SCORE.INTRA.VDW>
0.506783

>  <SCORE.INTRA.VDW.0>
-0.836976

>  <SCORE.INTRA.norm>
0.0397026

>  <SCORE.RESTR>
0

>  <SCORE.RESTR.CAVITY>
0

>  <SCORE.RESTR.norm>
0

>  <SCORE.SYSTEM>
0

>  <SCORE.SYSTEM.CONST>
0

>  <SCORE.SYSTEM.DIHEDRAL>
0

>  <SCORE.SYSTEM.SOLV>
0

>  <SCORE.SYSTEM.norm>
0

>  <SCORE.heavy>
31

>  <SCORE.norm>
-0.988852

>  <RMSD>
1.784

$$$$
ligand
 OpenBabel11021811473D
libRbt.so/2013.1/901 2013/11/27
 31 33  0  0  0  0  0  0  0  0999 V2000
   27.0786   42.3038   17.3671 P   0  0  1  0  0  0  0  0  0  0  0  0
   27.0020   42.5061   15.8688 O   0  0  0  0  0  0  0  0  0  0  0  0
   28.4553   42.7102   17.8193 O   0  5  0  0  0  0  0  0  0  0  0  0
   26.0498   43.1550   18.0593 O   0  0  0  0  0  0  0  0  0  0  0  0
   27.0746   39.7603   16.8088 C   0  0  0  0  0  0  0  0  0  0  0  0
   26.7374   40.7796   17.7178 O   0  0  0  0  0  0  0  0  0  0  0  0
   26.6669   38.4161   17.3938 C   0  0  1  0  0  0  0  0  0  0  0  0
   26.5172   37.4912   16.3376 O   0  0  0  0  0  0  0  0  0  0  0  0
   27.7221   37.9269   18.3857 C   0  0  1  0  0  0  0  0  0  0  0  0
   28.9555   37.7569   17.7205 O   0  0  0  0  0  0  0  0  0  0  0  0
   27.8761   38.8278   19.6190 C   0  0  1  0  0  0  0  0  0  0  0  0
   26.6137   39.0635   20.2019 O   0  0  0  0  0  0  0  0  0  0  0  0
   28.8046   38.2320   20.6650 C   0  0  0  0  0  0  0  0  0  0  0  0
   28.8320   35.6490   19.5200 N   0  0  0  0  0  0  0  0  0  0  0  0
   28.9179   34.3973   18.9454 C   0  0  0  0  0  0  0  0  0  0  0  0
   29.4554   34.2570   17.8433 O   0  0  0  0  0  0  0  0  0  0  0  0
   28.3905   33.3060   19.6059 N   0  0  0  0  0  0  0  0  0  0  0  0
   27.7795   33.4622   20.8359 C   0  0  0  0  0  0  0  0  0  0  0  0
   27.6935   34.7114   21.4143 C   0  0  1  0  0  0  0  0  0  0  0  0
   27.3136   32.4971   21.4393 O   0  0  0  0  0  0  0  0  0  0  0  0
   26.9991   36.0955   23.2300 C   0  0  2  0  0  0  0  0  0  0  0  0
   27.0837   34.8481   22.6462 N   0  0  0  0  0  0  0  0  0  0  0  0
   26.3829   36.2361   24.4711 C   0  0  0  0  0  0  0  0  0  0  0  0
   26.2858   37.4906   25.0649 C   0  0  1  0  0  0  0  0  0  0  0  0
   25.6268   37.6231   26.4101 C   0  0  0  0  0  0  0  0  0  0  0  0
   26.8135   38.6093   24.4101 C   0  0  1  0  0  0  0  0  0  0  0  0
   26.7377   39.9734   25.0316 C   0  0  0  0  0  0  0  0  0  0  0  0
   27.4291   38.4645   23.1704 C   0  0  0  0  0  0  0  0  0  0  0  0
   27.5256   37.2107   22.5713 C   0  0  2  0  0  0  0  0  0  0  0  0
   28.2247   35.8136   20.7541 C   0  0  2  0  0  0  0  0  0  0  0  0
   28.1316   37.0666   21.3289 N   0  0  0  0  0  0  0  0  0  0  0  0
  1  2  1  6  0  0  0
  1  3  1  0  0  0  0
  1  4  2  0  0  0  0
  1  6  1  0  0  0  0
  5  6  1  0  0  0  0
  7  5  1  6  0  0  0
  7  8  1  0  0  0  0
  7  9  1  0  0  0  0
  9 10  1  6  0  0  0
  9 11  1  0  0  0  0
 11 12  1  1  0  0  0
 11 13  1  0  0  0  0
 13 31  1  0  0  0  0
 14 15  1  0  0  0  0
 15 16  2  0  0  0  0
 15 17  1  0  0  0  0
 17 18  1  0  0  0  0
 18 20  2  0  0  0  0
 19 18  1  1  0  0  0
 19 22  1  0  0  0  0
 19 30  1  0  0  0  0
 21 23  1  6  0  0  0
 21 29  1  0  0  0  0
 21 22  1  0  0  0  0
 23 24  1  0  0  0  0
 24 25  1  1  0  0  0
 24 26  1  0  0  0  0
 26 27  1  1  0  0  0
 26 28  1  0  0  0  0
 29 28  1  6  0  0  0
 29 31  1  0  0  0  0
 30 14  1  6  0  0  0
 30 31  1  0  0  0  0
M  CHG  1   3  -1
M  END
>  <CHROM.1>
178.95222493,31.65073271,157.63861831,-61.19724359,51.11226599,-71.65325083
-99.74709865,27.43966510,37.92363297,20.14584434,1.65390205,1.30857548,-0.82207610

>  <Name>
ligand

>  <RI>
0

>  <Rbt.Current_Directory>
/home/itssahil/PROJECTS/Mol_Feturizer/New_Systems/rnas/3F2Q

>  <Rbt.Executable>
rbdock ($Id: //depot/dev/client3/rdock/2013.1/src/exe/rbdock.cxx#4 $)

>  <Rbt.Library>
libRbt.so (2013.1, Build901 2013/11/27)

>  <Rbt.Parameter_File>
/export/apps/rDock/src/rDock_2013.1_src/data/scripts/dock_solv.prm

>  <Rbt.Receptor>
prm/pocket_docking_8.prm

>  <SCORE>
-29.5861

>  <SCORE.INTER>
-25.0515

>  <SCORE.INTER.CONST>
1

>  <SCORE.INTER.POLAR>
0

>  <SCORE.INTER.ROT>
7

>  <SCORE.INTER.SOLV>
18.3226

>  <SCORE.INTER.VDW>
-31.0752

>  <SCORE.INTER.norm>
-0.808114

>  <SCORE.INTRA>
-4.53459

>  <SCORE.INTRA.DIHEDRAL>
-5.0331

>  <SCORE.INTRA.DIHEDRAL.0>
10.0718

>  <SCORE.INTRA.POLAR>
0

>  <SCORE.INTRA.POLAR.0>
0

>  <SCORE.INTRA.REPUL>
0

>  <SCORE.INTRA.REPUL.0>
0

>  <SCORE.INTRA.SOLV>
-0.656107

>  <SCORE.INTRA.SOLV.lig_0>
-48.6963

>  <SCORE.INTRA.VDW>
-1.68999

>  <SCORE.INTRA.VDW.0>
-0.836976

>  <SCORE.INTRA.norm>
-0.146277

>  <SCORE.RESTR>
0

>  <SCORE.RESTR.CAVITY>
0

>  <SCORE.RESTR.norm>
0

>  <SCORE.SYSTEM>
0

>  <SCORE.SYSTEM.CONST>
0

>  <SCORE.SYSTEM.DIHEDRAL>
0

>  <SCORE.SYSTEM.SOLV>
0

>  <SCORE.SYSTEM.norm>
0

>  <SCORE.heavy>
31

>  <SCORE.norm>
-0.954391

>  <RMSD>
1.806

$$$$
ligand
 OpenBabel11021811473D
libRbt.so/2013.1/901 2013/11/27
 31 33  0  0  0  0  0  0  0  0999 V2000
   27.2294   42.1762   17.4536 P   0  0  1  0  0  0  0  0  0  0  0  0
   28.3894   42.2111   16.4816 O   0  0  0  0  0  0  0  0  0  0  0  0
   27.6127   42.9886   18.6612 O   0  5  0  0  0  0  0  0  0  0  0  0
   26.0013   42.7678   16.8182 O   0  0  0  0  0  0  0  0  0  0  0  0
   26.9577   39.6648   16.8203 C   0  0  0  0  0  0  0  0  0  0  0  0
   26.8824   40.6560   17.8159 O   0  0  0  0  0  0  0  0  0  0  0  0
   26.5742   38.3219   17.4243 C   0  0  1  0  0  0  0  0  0  0  0  0
   26.3778   37.3959   16.3768 O   0  0  0  0  0  0  0  0  0  0  0  0
   27.6710   37.8327   18.3700 C   0  0  1  0  0  0  0  0  0  0  0  0
   28.8761   37.6681   17.6536 O   0  0  0  0  0  0  0  0  0  0  0  0
   27.8736   38.7303   19.5987 C   0  0  1  0  0  0  0  0  0  0  0  0
   26.6325   38.9813   20.2197 O   0  0  0  0  0  0  0  0  0  0  0  0
   28.8259   38.1218   20.6157 C   0  0  0  0  0  0  0  0  0  0  0  0
   28.8022   35.5255   19.5012 N   0  0  0  0  0  0  0  0  0  0  0  0
   28.8628   34.2662   18.9400 C   0  0  0  0  0  0  0  0  0  0  0  0
   29.3759   34.1071   17.8288 O   0  0  0  0  0  0  0  0  0  0  0  0
   28.3378   33.1885   19.6243 N   0  0  0  0  0  0  0  0  0  0  0  0
   27.7541   33.3657   20.8646 C   0  0  0  0  0  0  0  0  0  0  0  0
   27.6934   34.6225   21.4297 C   0  0  1  0  0  0  0  0  0  0  0  0
   27.2907   32.4129   21.4890 O   0  0  0  0  0  0  0  0  0  0  0  0
   27.0515   36.0352   23.2427 C   0  0  2  0  0  0  0  0  0  0  0  0
   27.1107   34.7802   22.6722 N   0  0  0  0  0  0  0  0  0  0  0  0
   26.4626   36.1971   24.4945 C   0  0  0  0  0  0  0  0  0  0  0  0
   26.3912   37.4594   25.0751 C   0  0  1  0  0  0  0  0  0  0  0  0
   25.7617   37.6148   26.4319 C   0  0  0  0  0  0  0  0  0  0  0  0
   26.9170   38.5646   24.3963 C   0  0  1  0  0  0  0  0  0  0  0  0
   26.8685   39.9366   25.0028 C   0  0  0  0  0  0  0  0  0  0  0  0
   27.5051   38.3985   23.1459 C   0  0  0  0  0  0  0  0  0  0  0  0
   27.5760   37.1369   22.5600 C   0  0  2  0  0  0  0  0  0  0  0  0
   28.2223   35.7110   20.7456 C   0  0  2  0  0  0  0  0  0  0  0  0
   28.1545   36.9716   21.3072 N   0  0  0  0  0  0  0  0  0  0  0  0
  1  2  1  6  0  0  0
  1  3  1  0  0  0  0
  1  4  2  0  0  0  0
  1  6  1  0  0  0  0
  5  6  1  0  0  0  0
  7  5  1  6  0  0  0
  7  8  1  0  0  0  0
  7  9  1  0  0  0  0
  9 10  1  6  0  0  0
  9 11  1  0  0  0  0
 11 12  1  1  0  0  0
 11 13  1  0  0  0  0
 13 31  1  0  0  0  0
 14 15  1  0  0  0  0
 15 16  2  0  0  0  0
 15 17  1  0  0  0  0
 17 18  1  0  0  0  0
 18 20  2  0  0  0  0
 19 18  1  1  0  0  0
 19 22  1  0  0  0  0
 19 30  1  0  0  0  0
 21 23  1  6  0  0  0
 21 29  1  0  0  0  0
 21 22  1  0  0  0  0
 23 24  1  0  0  0  0
 24 25  1  1  0  0  0
 24 26  1  0  0  0  0
 26 27  1  1  0  0  0
 26 28  1  0  0  0  0
 29 28  1  6  0  0  0
 29 31  1  0  0  0  0
 30 14  1  6  0  0  0
 30 31  1  0  0  0  0
M  CHG  1   3  -1
M  END
>  <CHROM.1>
-179.71327866,-37.96976247,167.78030545,-60.84602942,50.01804507,-72.13179230
-98.78715117,27.47312598,37.82958547,20.16310493,1.63486530,1.33978040,-0.79965767

>  <Name>
ligand

>  <RI>
0

>  <Rbt.Current_Directory>
/home/itssahil/PROJECTS/Mol_Feturizer/New_Systems/rnas/3F2Q

>  <Rbt.Executable>
rbdock ($Id: //depot/dev/client3/rdock/2013.1/src/exe/rbdock.cxx#4 $)

>  <Rbt.Library>
libRbt.so (2013.1, Build901 2013/11/27)

>  <Rbt.Parameter_File>
/export/apps/rDock/src/rDock_2013.1_src/data/scripts/dock_solv.prm

>  <Rbt.Receptor>
prm/pocket_docking_3.prm

>  <SCORE>
-30.0008

>  <SCORE.INTER>
-24.9244

>  <SCORE.INTER.CONST>
1

>  <SCORE.INTER.POLAR>
0

>  <SCORE.INTER.ROT>
7

>  <SCORE.INTER.SOLV>
16.843

>  <SCORE.INTER.VDW>
-30.4972

>  <SCORE.INTER.norm>
-0.804012

>  <SCORE.INTRA>
-5.07646

>  <SCORE.INTRA.DIHEDRAL>
-6.42582

>  <SCORE.INTRA.DIHEDRAL.0>
10.0718

>  <SCORE.INTRA.POLAR>
0

>  <SCORE.INTRA.POLAR.0>
0

>  <SCORE.INTRA.REPUL>
0

>  <SCORE.INTRA.REPUL.0>
0

>  <SCORE.INTRA.SOLV>
-0.471214

>  <SCORE.INTRA.SOLV.lig_0>
-48.6963

>  <SCORE.INTRA.VDW>
-1.62795

>  <SCORE.INTRA.VDW.0>
-0.836976

>  <SCORE.INTRA.norm>
-0.163757

>  <SCORE.RESTR>
0

>  <SCORE.RESTR.CAVITY>
0

>  <SCORE.RESTR.norm>
0

>  <SCORE.SYSTEM>
0

>  <SCORE.SYSTEM.CONST>
0

>  <SCORE.SYSTEM.DIHEDRAL>
0

>  <SCORE.SYSTEM.SOLV>
0

>  <SCORE.SYSTEM.norm>
0

>  <SCORE.heavy>
31

>  <SCORE.norm>
-0.967769

>  <RMSD>
1.829

$$$$
ligand
 OpenBabel11021811473D
libRbt.so/2013.1/901 2013/11/27
 31 33  0  0  0  0  0  0  0  0999 V2000
   27.1875   42.1145   17.1551 P   0  0  1  0  0  0  0  0  0  0  0  0
   26.1623   41.9881   18.2617 O   0  0  0  0  0  0  0  0  0  0  0  0
   26.4695   42.5516   15.9067 O   0  5  0  0  0  0  0  0  0  0  0  0
   28.2256   43.1385   17.5233 O   0  0  0  0  0  0  0  0  0  0  0  0
   28.7676   40.2284   18.0078 C   0  0  0  0  0  0  0  0  0  0  0  0
   27.9508   40.7192   16.9729 O   0  0  0  0  0  0  0  0  0  0  0  0
   29.2899   38.8527   17.6203 C   0  0  1  0  0  0  0  0  0  0  0  0
   30.0867   38.9826   16.4621 O   0  0  0  0  0  0  0  0  0  0  0  0
   30.1065   38.2533   18.7651 C   0  0  1  0  0  0  0  0  0  0  0  0
   31.2208   39.0768   19.0346 O   0  0  0  0  0  0  0  0  0  0  0  0
   29.2884   37.9921   20.0374 C   0  0  1  0  0  0  0  0  0  0  0  0
   29.0283   39.2099   20.6994 O   0  0  0  0  0  0  0  0  0  0  0  0
   27.9710   37.2895   19.7505 C   0  0  0  0  0  0  0  0  0  0  0  0
   28.1112   34.5277   19.1704 N   0  0  0  0  0  0  0  0  0  0  0  0
   28.2422   33.1922   18.8485 C   0  0  0  0  0  0  0  0  0  0  0  0
   28.4646   32.8549   17.6823 O   0  0  0  0  0  0  0  0  0  0  0  0
   28.1132   32.2367   19.8362 N   0  0  0  0  0  0  0  0  0  0  0  0
   27.8546   32.6116   21.1412 C   0  0  0  0  0  0  0  0  0  0  0  0
   27.7250   33.9455   21.4673 C   0  0  1  0  0  0  0  0  0  0  0  0
   27.7464   31.7711   22.0325 O   0  0  0  0  0  0  0  0  0  0  0  0
   27.3449   35.6357   23.1085 C   0  0  2  0  0  0  0  0  0  0  0  0
   27.4713   34.3021   22.7775 N   0  0  0  0  0  0  0  0  0  0  0  0
   27.0870   35.9975   24.4285 C   0  0  0  0  0  0  0  0  0  0  0  0
   26.9503   37.3390   24.7713 C   0  0  1  0  0  0  0  0  0  0  0  0
   26.6827   37.7129   26.2031 C   0  0  0  0  0  0  0  0  0  0  0  0
   27.0767   38.3224   23.7836 C   0  0  1  0  0  0  0  0  0  0  0  0
   26.9494   39.7785   24.1246 C   0  0  0  0  0  0  0  0  0  0  0  0
   27.3350   37.9567   22.4658 C   0  0  0  0  0  0  0  0  0  0  0  0
   27.4695   36.6147   22.1182 C   0  0  2  0  0  0  0  0  0  0  0  0
   27.8558   34.9120   20.4767 C   0  0  2  0  0  0  0  0  0  0  0  0
   27.7178   36.2480   20.8008 N   0  0  0  0  0  0  0  0  0  0  0  0
  1  2  1  1  0  0  0
  1  3  1  0  0  0  0
  1  4  2  0  0  0  0
  1  6  1  0  0  0  0
  5  6  1  0  0  0  0
  7  5  1  1  0  0  0
  7  8  1  0  0  0  0
  7  9  1  0  0  0  0
  9 10  1  1  0  0  0
  9 11  1  0  0  0  0
 11 12  1  6  0  0  0
 11 13  1  0  0  0  0
 13 31  1  0  0  0  0
 14 15  1  0  0  0  0
 15 16  2  0  0  0  0
 15 17  1  0  0  0  0
 17 18  1  0  0  0  0
 18 20  2  0  0  0  0
 19 18  1  1  0  0  0
 19 22  1  0  0  0  0
 19 30  1  0  0  0  0
 21 23  1  6  0  0  0
 21 29  1  0  0  0  0
 21 22  1  0  0  0  0
 23 24  1  0  0  0  0
 24 25  1  1  0  0  0
 24 26  1  0  0  0  0
 26 27  1  1  0  0  0
 26 28  1  0  0  0  0
 29 28  1  6  0  0  0
 29 31  1  0  0  0  0
 30 14  1  6  0  0  0
 30 31  1  0  0  0  0
M  CHG  1   3  -1
M  END
>  <CHROM.1>
176.03868582,-65.48798554,62.56835481,-61.47735546,-75.00007736,139.29841833
66.97348887,27.98948013,37.62191952,20.11180484,1.44193686,1.31004428,-0.44921376

>  <Name>
ligand

>  <RI>
0

>  <Rbt.Current_Directory>
/home/itssahil/PROJECTS/Mol_Feturizer/New_Systems/rnas/3F2Q

>  <Rbt.Executable>
rbdock ($Id: //depot/dev/client3/rdock/2013.1/src/exe/rbdock.cxx#4 $)

>  <Rbt.Library>
libRbt.so (2013.1, Build901 2013/11/27)

>  <Rbt.Parameter_File>
/export/apps/rDock/src/rDock_2013.1_src/data/scripts/dock_solv.prm

>  <Rbt.Receptor>
prm/pocket_docking_8.prm

>  <SCORE>
-31.9972

>  <SCORE.INTER>
-29.6029

>  <SCORE.INTER.CONST>
1

>  <SCORE.INTER.POLAR>
0

>  <SCORE.INTER.ROT>
7

>  <SCORE.INTER.SOLV>
19.7414

>  <SCORE.INTER.VDW>
-34.5824

>  <SCORE.INTER.norm>
-0.954932

>  <SCORE.INTRA>
-2.39432

>  <SCORE.INTRA.DIHEDRAL>
-3.82032

>  <SCORE.INTRA.DIHEDRAL.0>
10.0718

>  <SCORE.INTRA.POLAR>
0

>  <SCORE.INTRA.POLAR.0>
0

>  <SCORE.INTRA.REPUL>
0

>  <SCORE.INTRA.REPUL.0>
0

>  <SCORE.INTRA.SOLV>
-1.18259

>  <SCORE.INTRA.SOLV.lig_0>
-48.6963

>  <SCORE.INTRA.VDW>
0.107133

>  <SCORE.INTRA.VDW.0>
-0.836976

>  <SCORE.INTRA.norm>
-0.0772363

>  <SCORE.RESTR>
0

>  <SCORE.RESTR.CAVITY>
0

>  <SCORE.RESTR.norm>
0

>  <SCORE.SYSTEM>
0

>  <SCORE.SYSTEM.CONST>
0

>  <SCORE.SYSTEM.DIHEDRAL>
0

>  <SCORE.SYSTEM.SOLV>
0

>  <SCORE.SYSTEM.norm>
0

>  <SCORE.heavy>
31

>  <SCORE.norm>
-1.03217

>  <RMSD>
1.839

$$$$
ligand
 OpenBabel11021811473D
libRbt.so/2013.1/901 2013/11/27
 31 33  0  0  0  0  0  0  0  0999 V2000
   27.7460   41.7259   16.9094 P   0  0  1  0  0  0  0  0  0  0  0  0
   28.2517   43.1493   17.0084 O   0  0  0  0  0  0  0  0  0  0  0  0
   27.1968   41.3352   18.2551 O   0  5  0  0  0  0  0  0  0  0  0  0
   26.6582   41.6319   15.8753 O   0  0  0  0  0  0  0  0  0  0  0  0
   30.0241   40.5201   17.2808 C   0  0  0  0  0  0  0  0  0  0  0  0
   28.9352   40.7697   16.4256 O   0  0  0  0  0  0  0  0  0  0  0  0
   29.9570   39.0792   17.7653 C   0  0  1  0  0  0  0  0  0  0  0  0
   30.9520   38.8871   18.7484 O   0  0  0  0  0  0  0  0  0  0  0  0
   28.5734   38.7765   18.3403 C   0  0  1  0  0  0  0  0  0  0  0  0
   27.6703   38.5117   17.2883 O   0  0  0  0  0  0  0  0  0  0  0  0
   28.5685   37.6426   19.3749 C   0  0  1  0  0  0  0  0  0  0  0  0
   29.1869   38.0765   20.5658 O   0  0  0  0  0  0  0  0  0  0  0  0
   27.1662   37.1485   19.6930 C   0  0  0  0  0  0  0  0  0  0  0  0
   27.3565   34.3898   19.1130 N   0  0  0  0  0  0  0  0  0  0  0  0
   27.5003   33.0588   18.7777 C   0  0  0  0  0  0  0  0  0  0  0  0
   27.4717   32.7116   17.5937 O   0  0  0  0  0  0  0  0  0  0  0  0
   27.6663   32.1185   19.7744 N   0  0  0  0  0  0  0  0  0  0  0  0
   27.6891   32.5039   21.1016 C   0  0  0  0  0  0  0  0  0  0  0  0
   27.5476   33.8334   21.4406 C   0  0  1  0  0  0  0  0  0  0  0  0
   27.8453   31.6775   21.9989 O   0  0  0  0  0  0  0  0  0  0  0  0
   27.4403   35.5304   23.1149 C   0  0  2  0  0  0  0  0  0  0  0  0
   27.5775   34.2009   22.7718 N   0  0  0  0  0  0  0  0  0  0  0  0
   27.4681   35.9032   24.4566 C   0  0  0  0  0  0  0  0  0  0  0  0
   27.3230   37.2401   24.8135 C   0  0  1  0  0  0  0  0  0  0  0  0
   27.3661   37.6266   26.2661 C   0  0  0  0  0  0  0  0  0  0  0  0
   27.1526   38.2081   23.8172 C   0  0  1  0  0  0  0  0  0  0  0  0
   27.0085   39.6599   24.1696 C   0  0  0  0  0  0  0  0  0  0  0  0
   27.1260   37.8316   22.4777 C   0  0  0  0  0  0  0  0  0  0  0  0
   27.2679   36.4939   22.1165 C   0  0  2  0  0  0  0  0  0  0  0  0
   27.3819   34.7848   20.4406 C   0  0  2  0  0  0  0  0  0  0  0  0
   27.2318   36.1158   20.7797 N   0  0  0  0  0  0  0  0  0  0  0  0
  1  2  1  1  0  0  0
  1  3  1  0  0  0  0
  1  4  2  0  0  0  0
  1  6  1  0  0  0  0
  5  6  1  0  0  0  0
  7  5  1  1  0  0  0
  7  8  1  0  0  0  0
  7  9  1  0  0  0  0
  9 10  1  6  0  0  0
  9 11  1  0  0  0  0
 11 12  1  1  0  0  0
 11 13  1  0  0  0  0
 13 31  1  0  0  0  0
 14 15  1  0  0  0  0
 15 16  2  0  0  0  0
 15 17  1  0  0  0  0
 17 18  1  0  0  0  0
 18 20  2  0  0  0  0
 19 18  1  6  0  0  0
 19 22  1  0  0  0  0
 19 30  1  0  0  0  0
 21 23  1  1  0  0  0
 21 29  1  0  0  0  0
 21 22  1  0  0  0  0
 23 24  1  0  0  0  0
 24 25  1  6  0  0  0
 24 26  1  0  0  0  0
 26 27  1  6  0  0  0
 26 28  1  0  0  0  0
 29 28  1  1  0  0  0
 29 31  1  0  0  0  0
 30 14  1  1  0  0  0
 30 31  1  0  0  0  0
M  CHG  1   3  -1
M  END
>  <CHROM.1>
109.51739209,68.69566863,-172.76163106,80.35076662,71.20245498,-175.88422685
84.18595621,27.90130055,37.43230138,20.01144134,0.67632808,1.45008285,0.26130500

>  <Name>
ligand

>  <RI>
0

>  <Rbt.Current_Directory>
/home/itssahil/PROJECTS/Mol_Feturizer/New_Systems/rnas/3F2Q

>  <Rbt.Executable>
rbdock ($Id: //depot/dev/client3/rdock/2013.1/src/exe/rbdock.cxx#4 $)

>  <Rbt.Library>
libRbt.so (2013.1, Build901 2013/11/27)

>  <Rbt.Parameter_File>
/export/apps/rDock/src/rDock_2013.1_src/data/scripts/dock_solv.prm

>  <Rbt.Receptor>
prm/pocket_docking_5.prm

>  <SCORE>
-28.6393

>  <SCORE.INTER>
-28.8994

>  <SCORE.INTER.CONST>
1

>  <SCORE.INTER.POLAR>
0

>  <SCORE.INTER.ROT>
7

>  <SCORE.INTER.SOLV>
16.3656

>  <SCORE.INTER.VDW>
-32.9881

>  <SCORE.INTER.norm>
-0.93224

>  <SCORE.INTRA>
0.260085

>  <SCORE.INTRA.DIHEDRAL>
-0.103328

>  <SCORE.INTRA.DIHEDRAL.0>
10.0718

>  <SCORE.INTRA.POLAR>
0

>  <SCORE.INTRA.POLAR.0>
0

>  <SCORE.INTRA.REPUL>
0

>  <SCORE.INTRA.REPUL.0>
0

>  <SCORE.INTRA.SOLV>
3.17094

>  <SCORE.INTRA.SOLV.lig_0>
-48.6963

>  <SCORE.INTRA.VDW>
-1.27372

>  <SCORE.INTRA.VDW.0>
-0.836976

>  <SCORE.INTRA.norm>
0.00838984

>  <SCORE.RESTR>
0

>  <SCORE.RESTR.CAVITY>
0

>  <SCORE.RESTR.norm>
0

>  <SCORE.SYSTEM>
0

>  <SCORE.SYSTEM.CONST>
0

>  <SCORE.SYSTEM.DIHEDRAL>
0

>  <SCORE.SYSTEM.SOLV>
0

>  <SCORE.SYSTEM.norm>
0

>  <SCORE.heavy>
31

>  <SCORE.norm>
-0.92385

>  <RMSD>
1.841

$$$$
ligand
 OpenBabel11021811473D
libRbt.so/2013.1/901 2013/11/27
 31 33  0  0  0  0  0  0  0  0999 V2000
   25.2766   41.2633   19.3540 P   0  0  1  0  0  0  0  0  0  0  0  0
   24.0077   40.9894   18.5752 O   0  0  0  0  0  0  0  0  0  0  0  0
   25.7367   42.6555   19.0146 O   0  5  0  0  0  0  0  0  0  0  0  0
   25.0105   41.1673   20.8311 O   0  0  0  0  0  0  0  0  0  0  0  0
   27.0660   40.2113   17.7814 C   0  0  0  0  0  0  0  0  0  0  0  0
   26.3697   40.1479   19.0022 O   0  0  0  0  0  0  0  0  0  0  0  0
   28.4012   39.4972   17.9318 C   0  0  1  0  0  0  0  0  0  0  0  0
   28.8501   39.6553   19.2610 O   0  0  0  0  0  0  0  0  0  0  0  0
   28.2512   38.0143   17.5923 C   0  0  1  0  0  0  0  0  0  0  0  0
   29.2158   37.6485   16.6288 O   0  0  0  0  0  0  0  0  0  0  0  0
   28.3114   37.0906   18.8168 C   0  0  1  0  0  0  0  0  0  0  0  0
   29.5037   37.3211   19.5339 O   0  0  0  0  0  0  0  0  0  0  0  0
   27.1250   37.2785   19.7488 C   0  0  0  0  0  0  0  0  0  0  0  0
   27.1664   34.5114   19.1787 N   0  0  0  0  0  0  0  0  0  0  0  0
   27.2366   33.1738   18.8466 C   0  0  0  0  0  0  0  0  0  0  0  0
   27.1559   32.8235   17.6659 O   0  0  0  0  0  0  0  0  0  0  0  0
   27.3878   32.2307   19.8430 N   0  0  0  0  0  0  0  0  0  0  0  0
   27.4688   32.6200   21.1668 C   0  0  0  0  0  0  0  0  0  0  0  0
   27.4009   33.9561   21.5026 C   0  0  1  0  0  0  0  0  0  0  0  0
   27.6126   31.7909   22.0637 O   0  0  0  0  0  0  0  0  0  0  0  0
   27.4249   35.6632   23.1699 C   0  0  2  0  0  0  0  0  0  0  0  0
   27.4884   34.3273   22.8303 N   0  0  0  0  0  0  0  0  0  0  0  0
   27.5108   36.0397   24.5081 C   0  0  0  0  0  0  0  0  0  0  0  0
   27.4402   37.3835   24.8617 C   0  0  1  0  0  0  0  0  0  0  0  0
   27.5455   37.7736   26.3103 C   0  0  0  0  0  0  0  0  0  0  0  0
   27.2860   38.3545   23.8657 C   0  0  1  0  0  0  0  0  0  0  0  0
   27.2218   39.8130   24.2141 C   0  0  0  0  0  0  0  0  0  0  0  0
   27.2012   37.9741   22.5296 C   0  0  0  0  0  0  0  0  0  0  0  0
   27.2684   36.6297   22.1718 C   0  0  2  0  0  0  0  0  0  0  0  0
   27.2506   34.9102   20.5027 C   0  0  2  0  0  0  0  0  0  0  0  0
   27.1741   36.2483   20.8387 N   0  0  0  0  0  0  0  0  0  0  0  0
  1  2  1  6  0  0  0
  1  3  1  0  0  0  0
  1  4  2  0  0  0  0
  1  6  1  0  0  0  0
  5  6  1  0  0  0  0
  7  5  1  1  0  0  0
  7  8  1  0  0  0  0
  7  9  1  0  0  0  0
  9 10  1  6  0  0  0
  9 11  1  0  0  0  0
 11 12  1  1  0  0  0
 11 13  1  0  0  0  0
 13 31  1  0  0  0  0
 14 15  1  0  0  0  0
 15 16  2  0  0  0  0
 15 17  1  0  0  0  0
 17 18  1  0  0  0  0
 18 20  2  0  0  0  0
 19 18  1  6  0  0  0
 19 22  1  0  0  0  0
 19 30  1  0  0  0  0
 21 23  1  1  0  0  0
 21 29  1  0  0  0  0
 21 22  1  0  0  0  0
 23 24  1  0  0  0  0
 24 25  1  6  0  0  0
 24 26  1  0  0  0  0
 26 27  1  6  0  0  0
 26 28  1  0  0  0  0
 29 28  1  1  0  0  0
 29 31  1  0  0  0  0
 30 14  1  1  0  0  0
 30 31  1  0  0  0  0
M  CHG  1   3  -1
M  END
>  <CHROM.1>
154.78216001,76.63102273,-32.01866424,127.45498126,-55.16537829,173.99583868
119.42081522,27.17574314,37.33838653,20.50541763,2.64863462,1.36519789,-1.35305045

>  <Name>
ligand

>  <RI>
0

>  <Rbt.Current_Directory>
/home/itssahil/PROJECTS/Mol_Feturizer/New_Systems/rnas/3F2Q

>  <Rbt.Executable>
rbdock ($Id: //depot/dev/client3/rdock/2013.1/src/exe/rbdock.cxx#4 $)

>  <Rbt.Library>
libRbt.so (2013.1, Build901 2013/11/27)

>  <Rbt.Parameter_File>
/export/apps/rDock/src/rDock_2013.1_src/data/scripts/dock_solv.prm

>  <Rbt.Receptor>
prm/pocket_docking_3.prm

>  <SCORE>
-23.8992

>  <SCORE.INTER>
-24.8914

>  <SCORE.INTER.CONST>
1

>  <SCORE.INTER.POLAR>
0

>  <SCORE.INTER.ROT>
7

>  <SCORE.INTER.SOLV>
15.3097

>  <SCORE.INTER.VDW>
-29.9642

>  <SCORE.INTER.norm>
-0.802948

>  <SCORE.INTRA>
0.978145

>  <SCORE.INTRA.DIHEDRAL>
2.02319

>  <SCORE.INTRA.DIHEDRAL.0>
10.0718

>  <SCORE.INTRA.POLAR>
0

>  <SCORE.INTRA.POLAR.0>
0

>  <SCORE.INTRA.REPUL>
0

>  <SCORE.INTRA.REPUL.0>
0

>  <SCORE.INTRA.SOLV>
0.0242147

>  <SCORE.INTRA.SOLV.lig_0>
-48.6963

>  <SCORE.INTRA.VDW>
-0.0455569

>  <SCORE.INTRA.VDW.0>
-0.836976

>  <SCORE.INTRA.norm>
0.0315531

>  <SCORE.RESTR>
0.0140763

>  <SCORE.RESTR.CAVITY>
0.0140763

>  <SCORE.RESTR.norm>
0.000454073

>  <SCORE.SYSTEM>
0

>  <SCORE.SYSTEM.CONST>
0

>  <SCORE.SYSTEM.DIHEDRAL>
0

>  <SCORE.SYSTEM.SOLV>
0

>  <SCORE.SYSTEM.norm>
0

>  <SCORE.heavy>
31

>  <SCORE.norm>
-0.77094

>  <RMSD>
1.869

$$$$
ligand
 OpenBabel11021811473D
libRbt.so/2013.1/901 2013/11/27
 31 33  0  0  0  0  0  0  0  0999 V2000
   25.3971   41.5600   19.5812 P   0  0  1  0  0  0  0  0  0  0  0  0
   25.4348   41.5986   21.0940 O   0  0  0  0  0  0  0  0  0  0  0  0
   24.9026   40.2008   19.1650 O   0  5  0  0  0  0  0  0  0  0  0  0
   24.4641   42.6170   19.0577 O   0  0  0  0  0  0  0  0  0  0  0  0
   27.8343   40.8858   18.9589 C   0  0  0  0  0  0  0  0  0  0  0  0
   26.8522   41.8923   19.0026 O   0  0  0  0  0  0  0  0  0  0  0  0
   27.4549   39.8654   17.8958 C   0  0  1  0  0  0  0  0  0  0  0  0
   27.7059   40.4245   16.6239 O   0  0  0  0  0  0  0  0  0  0  0  0
   28.2613   38.5802   18.0821 C   0  0  1  0  0  0  0  0  0  0  0  0
   29.6286   38.8962   18.2341 O   0  0  0  0  0  0  0  0  0  0  0  0
   27.7632   37.6997   19.2366 C   0  0  1  0  0  0  0  0  0  0  0  0
   26.6140   36.9873   18.8358 O   0  0  0  0  0  0  0  0  0  0  0  0
   28.8176   36.7152   19.7169 C   0  0  0  0  0  0  0  0  0  0  0  0
   28.6128   33.9479   19.1849 N   0  0  0  0  0  0  0  0  0  0  0  0
   28.5827   32.5981   18.8990 C   0  0  0  0  0  0  0  0  0  0  0  0
   28.9627   32.1894   17.7982 O   0  0  0  0  0  0  0  0  0  0  0  0
   28.1164   31.7103   19.8474 N   0  0  0  0  0  0  0  0  0  0  0  0
   27.6814   32.1668   21.0774 C   0  0  0  0  0  0  0  0  0  0  0  0
   27.7117   33.5149   21.3676 C   0  0  1  0  0  0  0  0  0  0  0  0
   27.2721   31.3858   21.9347 O   0  0  0  0  0  0  0  0  0  0  0  0
   27.3100   35.3001   22.8994 C   0  0  2  0  0  0  0  0  0  0  0  0
   27.2775   33.9526   22.6037 N   0  0  0  0  0  0  0  0  0  0  0  0
   26.8708   35.7441   24.1443 C   0  0  0  0  0  0  0  0  0  0  0  0
   26.8923   37.1014   24.4495 C   0  0  1  0  0  0  0  0  0  0  0  0
   26.4246   37.5627   25.8022 C   0  0  0  0  0  0  0  0  0  0  0  0
   27.3607   38.0172   23.5005 C   0  0  1  0  0  0  0  0  0  0  0  0
   27.4103   39.4859   23.8053 C   0  0  0  0  0  0  0  0  0  0  0  0
   27.7992   37.5694   22.2579 C   0  0  0  0  0  0  0  0  0  0  0  0
   27.7764   36.2117   21.9474 C   0  0  2  0  0  0  0  0  0  0  0  0
   28.1822   34.4132   20.4166 C   0  0  2  0  0  0  0  0  0  0  0  0
   28.2051   35.7646   20.7033 N   0  0  0  0  0  0  0  0  0  0  0  0
  1  2  1  1  0  0  0
  1  3  1  0  0  0  0
  1  4  2  0  0  0  0
  1  6  1  0  0  0  0
  5  6  1  0  0  0  0
  7  5  1  1  0  0  0
  7  8  1  0  0  0  0
  7  9  1  0  0  0  0
  9 10  1  1  0  0  0
  9 11  1  0  0  0  0
 11 12  1  6  0  0  0
 11 13  1  0  0  0  0
 13 31  1  0  0  0  0
 14 15  1  0  0  0  0
 15 16  2  0  0  0  0
 15 17  1  0  0  0  0
 17 18  1  0  0  0  0
 18 20  2  0  0  0  0
 19 18  1  1  0  0  0
 19 22  1  0  0  0  0
 19 30  1  0  0  0  0
 21 23  1  6  0  0  0
 21 29  1  0  0  0  0
 21 22  1  0  0  0  0
 23 24  1  0  0  0  0
 24 25  1  1  0  0  0
 24 26  1  0  0  0  0
 26 27  1  1  0  0  0
 26 28  1  0  0  0  0
 29 28  1  6  0  0  0
 29 31  1  0  0  0  0
 30 14  1  6  0  0  0
 30 31  1  0  0  0  0
M  CHG  1   3  -1
M  END
>  <CHROM.1>
70.31648108,80.58200364,74.72829685,-48.65539251,78.13982749,-172.03330397
-67.47803340,27.29402189,37.29056729,20.45293858,2.28171424,1.24957504,-0.88532123

>  <Name>
ligand

>  <RI>
0

>  <Rbt.Current_Directory>
/home/itssahil/PROJECTS/Mol_Feturizer/New_Systems/rnas/3F2Q

>  <Rbt.Executable>
rbdock ($Id: //depot/dev/client3/rdock/2013.1/src/exe/rbdock.cxx#4 $)

>  <Rbt.Library>
libRbt.so (2013.1, Build901 2013/11/27)

>  <Rbt.Parameter_File>
/export/apps/rDock/src/rDock_2013.1_src/data/scripts/dock_solv.prm

>  <Rbt.Receptor>
prm/pocket_docking_3.prm

>  <SCORE>
-31.5913

>  <SCORE.INTER>
-29.1971

>  <SCORE.INTER.CONST>
1

>  <SCORE.INTER.POLAR>
0

>  <SCORE.INTER.ROT>
7

>  <SCORE.INTER.SOLV>
16.8347

>  <SCORE.INTER.VDW>
-33.343

>  <SCORE.INTER.norm>
-0.941843

>  <SCORE.INTRA>
-2.40358

>  <SCORE.INTRA.DIHEDRAL>
-5.06917

>  <SCORE.INTRA.DIHEDRAL.0>
10.0718

>  <SCORE.INTRA.POLAR>
0

>  <SCORE.INTRA.POLAR.0>
0

>  <SCORE.INTRA.REPUL>
0

>  <SCORE.INTRA.REPUL.0>
0

>  <SCORE.INTRA.SOLV>
1.56122

>  <SCORE.INTRA.SOLV.lig_0>
-48.6963

>  <SCORE.INTRA.VDW>
-0.649606

>  <SCORE.INTRA.VDW.0>
-0.836976

>  <SCORE.INTRA.norm>
-0.0775348

>  <SCORE.RESTR>
0.00941824

>  <SCORE.RESTR.CAVITY>
0.00941824

>  <SCORE.RESTR.norm>
0.000303814

>  <SCORE.SYSTEM>
0

>  <SCORE.SYSTEM.CONST>
0

>  <SCORE.SYSTEM.DIHEDRAL>
0

>  <SCORE.SYSTEM.SOLV>
0

>  <SCORE.SYSTEM.norm>
0

>  <SCORE.heavy>
31

>  <SCORE.norm>
-1.01907

>  <RMSD>
1.877

$$$$
ligand
 OpenBabel11021811473D
libRbt.so/2013.1/901 2013/11/27
 31 33  0  0  0  0  0  0  0  0999 V2000
   27.4073   41.8252   17.3996 P   0  0  1  0  0  0  0  0  0  0  0  0
   26.0554   41.2782   16.9936 O   0  0  0  0  0  0  0  0  0  0  0  0
   27.6156   43.1283   16.6761 O   0  5  0  0  0  0  0  0  0  0  0  0
   27.4473   42.0618   18.8842 O   0  0  0  0  0  0  0  0  0  0  0  0
   28.4479   39.4464   17.5994 C   0  0  0  0  0  0  0  0  0  0  0  0
   28.5414   40.7454   17.0673 O   0  0  0  0  0  0  0  0  0  0  0  0
   29.6643   38.6416   17.1655 C   0  0  1  0  0  0  0  0  0  0  0  0
   30.8251   39.2806   17.6529 O   0  0  0  0  0  0  0  0  0  0  0  0
   29.5754   37.2137   17.7039 C   0  0  1  0  0  0  0  0  0  0  0  0
   30.7257   36.4903   17.3214 O   0  0  0  0  0  0  0  0  0  0  0  0
   29.3505   37.1376   19.2204 C   0  0  1  0  0  0  0  0  0  0  0  0
   29.9323   38.2581   19.8488 O   0  0  0  0  0  0  0  0  0  0  0  0
   27.8772   37.0684   19.5893 C   0  0  0  0  0  0  0  0  0  0  0  0
   28.0379   34.2997   19.0492 N   0  0  0  0  0  0  0  0  0  0  0  0
   28.1774   32.9610   18.7444 C   0  0  0  0  0  0  0  0  0  0  0  0
   28.3640   32.6076   17.5767 O   0  0  0  0  0  0  0  0  0  0  0  0
   28.0971   32.0203   19.7513 N   0  0  0  0  0  0  0  0  0  0  0  0
   27.8786   32.4131   21.0584 C   0  0  0  0  0  0  0  0  0  0  0  0
   27.7406   33.7502   21.3673 C   0  0  1  0  0  0  0  0  0  0  0  0
   27.8139   31.5860   21.9663 O   0  0  0  0  0  0  0  0  0  0  0  0
   27.3929   35.4618   22.9934 C   0  0  2  0  0  0  0  0  0  0  0  0
   27.5274   34.1248   22.6797 N   0  0  0  0  0  0  0  0  0  0  0  0
   27.1759   35.8418   24.3157 C   0  0  0  0  0  0  0  0  0  0  0  0
   27.0313   37.1868   24.6414 C   0  0  1  0  0  0  0  0  0  0  0  0
   26.8083   37.5805   26.0755 C   0  0  0  0  0  0  0  0  0  0  0  0
   27.1087   38.1553   23.6341 C   0  0  1  0  0  0  0  0  0  0  0  0
   26.9718   39.6149   23.9560 C   0  0  0  0  0  0  0  0  0  0  0  0
   27.3262   37.7715   22.3142 C   0  0  0  0  0  0  0  0  0  0  0  0
   27.4685   36.4259   21.9837 C   0  0  2  0  0  0  0  0  0  0  0  0
   27.8225   34.7019   20.3572 C   0  0  2  0  0  0  0  0  0  0  0  0
   27.6762   36.0411   20.6645 N   0  0  0  0  0  0  0  0  0  0  0  0
  1  2  1  6  0  0  0
  1  3  1  0  0  0  0
  1  4  2  0  0  0  0
  1  6  1  0  0  0  0
  5  6  1  0  0  0  0
  7  5  1  1  0  0  0
  7  8  1  0  0  0  0
  7  9  1  0  0  0  0
  9 10  1  1  0  0  0
  9 11  1  0  0  0  0
 11 12  1  1  0  0  0
 11 13  1  0  0  0  0
 13 31  1  0  0  0  0
 14 15  1  0  0  0  0
 15 16  2  0  0  0  0
 15 17  1  0  0  0  0
 17 18  1  0  0  0  0
 18 20  2  0  0  0  0
 19 18  1  1  0  0  0
 19 22  1  0  0  0  0
 19 30  1  0  0  0  0
 21 23  1  6  0  0  0
 21 29  1  0  0  0  0
 21 22  1  0  0  0  0
 23 24  1  0  0  0  0
 24 25  1  1  0  0  0
 24 26  1  0  0  0  0
 26 27  1  1  0  0  0
 26 28  1  0  0  0  0
 29 28  1  6  0  0  0
 29 31  1  0  0  0  0
 30 14  1  6  0  0  0
 30 31  1  0  0  0  0
M  CHG  1   3  -1
M  END
>  <CHROM.1>
-178.36593129,-56.01705051,60.08750768,-178.54451792,-29.87218380,136.66606912
103.67736389,28.06662381,37.25048010,19.96628787,1.42267545,1.26835315,-0.40234655

>  <Name>
ligand

>  <RI>
0

>  <Rbt.Current_Directory>
/home/itssahil/PROJECTS/Mol_Feturizer/New_Systems/rnas/3F2Q

>  <Rbt.Executable>
rbdock ($Id: //depot/dev/client3/rdock/2013.1/src/exe/rbdock.cxx#4 $)

>  <Rbt.Library>
libRbt.so (2013.1, Build901 2013/11/27)

>  <Rbt.Parameter_File>
/export/apps/rDock/src/rDock_2013.1_src/data/scripts/dock_solv.prm

>  <Rbt.Receptor>
prm/pocket_docking_4.prm

>  <SCORE>
-30.6552

>  <SCORE.INTER>
-29.1167

>  <SCORE.INTER.CONST>
1

>  <SCORE.INTER.POLAR>
0

>  <SCORE.INTER.ROT>
7

>  <SCORE.INTER.SOLV>
16.3853

>  <SCORE.INTER.VDW>
-33.1396

>  <SCORE.INTER.norm>
-0.939249

>  <SCORE.INTRA>
-1.53854

>  <SCORE.INTRA.DIHEDRAL>
-1.86159

>  <SCORE.INTRA.DIHEDRAL.0>
10.0718

>  <SCORE.INTRA.POLAR>
0

>  <SCORE.INTRA.POLAR.0>
0

>  <SCORE.INTRA.REPUL>
0

>  <SCORE.INTRA.REPUL.0>
0

>  <SCORE.INTRA.SOLV>
-1.04903

>  <SCORE.INTRA.SOLV.lig_0>
-48.6963

>  <SCORE.INTRA.VDW>
-0.0832334

>  <SCORE.INTRA.VDW.0>
-0.836976

>  <SCORE.INTRA.norm>
-0.0496304

>  <SCORE.RESTR>
0

>  <SCORE.RESTR.CAVITY>
0

>  <SCORE.RESTR.norm>
0

>  <SCORE.SYSTEM>
0

>  <SCORE.SYSTEM.CONST>
0

>  <SCORE.SYSTEM.DIHEDRAL>
0

>  <SCORE.SYSTEM.SOLV>
0

>  <SCORE.SYSTEM.norm>
0

>  <SCORE.heavy>
31

>  <SCORE.norm>
-0.988879

>  <RMSD>
1.908

$$$$
ligand
 OpenBabel11021811473D
libRbt.so/2013.1/901 2013/11/27
 31 33  0  0  0  0  0  0  0  0999 V2000
   27.4722   41.7996   16.7915 P   0  0  1  0  0  0  0  0  0  0  0  0
   26.6917   40.5077   16.6757 O   0  0  0  0  0  0  0  0  0  0  0  0
   27.3666   42.5236   15.4763 O   0  5  0  0  0  0  0  0  0  0  0  0
   26.8980   42.6571   17.8855 O   0  0  0  0  0  0  0  0  0  0  0  0
   29.5516   40.2331   16.8523 C   0  0  0  0  0  0  0  0  0  0  0  0
   28.9858   41.4739   17.1983 O   0  0  0  0  0  0  0  0  0  0  0  0
   28.9838   39.1551   17.7638 C   0  0  1  0  0  0  0  0  0  0  0  0
   29.6024   37.9259   17.4482 O   0  0  0  0  0  0  0  0  0  0  0  0
   29.2297   39.5154   19.2289 C   0  0  1  0  0  0  0  0  0  0  0  0
   28.4398   40.6307   19.5819 O   0  0  0  0  0  0  0  0  0  0  0  0
   29.0056   38.3469   20.1989 C   0  0  1  0  0  0  0  0  0  0  0  0
   29.3018   38.7532   21.5165 O   0  0  0  0  0  0  0  0  0  0  0  0
   27.5832   37.8122   20.1500 C   0  0  0  0  0  0  0  0  0  0  0  0
   27.8350   35.0893   19.4389 N   0  0  0  0  0  0  0  0  0  0  0  0
   28.0182   33.7775   19.0513 C   0  0  0  0  0  0  0  0  0  0  0  0
   28.2094   33.5035   17.8632 O   0  0  0  0  0  0  0  0  0  0  0  0
   27.9765   32.7743   19.9984 N   0  0  0  0  0  0  0  0  0  0  0  0
   27.7530   33.0779   21.3282 C   0  0  0  0  0  0  0  0  0  0  0  0
   27.5714   34.3879   21.7198 C   0  0  1  0  0  0  0  0  0  0  0  0
   27.7224   32.1947   22.1835 O   0  0  0  0  0  0  0  0  0  0  0  0
   27.1757   35.9829   23.4502 C   0  0  2  0  0  0  0  0  0  0  0  0
   27.3538   34.6733   23.0538 N   0  0  0  0  0  0  0  0  0  0  0  0
   26.9542   36.2730   24.7943 C   0  0  0  0  0  0  0  0  0  0  0  0
   26.7659   37.5894   25.2032 C   0  0  1  0  0  0  0  0  0  0  0  0
   26.5386   37.8860   26.6599 C   0  0  0  0  0  0  0  0  0  0  0  0
   26.8036   38.6204   24.2575 C   0  0  1  0  0  0  0  0  0  0  0  0
   26.6190   40.0517   24.6696 C   0  0  0  0  0  0  0  0  0  0  0  0
   27.0259   38.3265   22.9155 C   0  0  0  0  0  0  0  0  0  0  0  0
   27.2119   37.0095   22.5017 C   0  0  2  0  0  0  0  0  0  0  0  0
   27.6143   35.4024   20.7702 C   0  0  2  0  0  0  0  0  0  0  0  0
   27.4242   36.7142   21.1604 N   0  0  0  0  0  0  0  0  0  0  0  0
  1  2  1  6  0  0  0
  1  3  1  0  0  0  0
  1  4  2  0  0  0  0
  1  6  1  0  0  0  0
  5  6  1  0  0  0  0
  7  5  1  6  0  0  0
  7  8  1  0  0  0  0
  7  9  1  0  0  0  0
  9 10  1  1  0  0  0
  9 11  1  0  0  0  0
 11 12  1  1  0  0  0
 11 13  1  0  0  0  0
 13 31  1  0  0  0  0
 14 15  1  0  0  0  0
 15 16  2  0  0  0  0
 15 17  1  0  0  0  0
 17 18  1  0  0  0  0
 18 20  2  0  0  0  0
 19 18  1  1  0  0  0
 19 22  1  0  0  0  0
 19 30  1  0  0  0  0
 21 23  1  6  0  0  0
 21 29  1  0  0  0  0
 21 22  1  0  0  0  0
 23 24  1  0  0  0  0
 24 25  1  1  0  0  0
 24 26  1  0  0  0  0
 26 27  1  1  0  0  0
 26 28  1  0  0  0  0
 29 28  1  6  0  0  0
 29 31  1  0  0  0  0
 30 14  1  6  0  0  0
 30 31  1  0  0  0  0
M  CHG  1   3  -1
M  END
>  <CHROM.1>
-74.48721921,26.85064375,-177.39721128,68.91690573,177.82472438,-177.68929735
80.49839454,27.80619927,37.84854424,20.28763769,1.17543933,1.36930708,-0.36920815

>  <Name>
ligand

>  <RI>
0

>  <Rbt.Current_Directory>
/home/itssahil/PROJECTS/Mol_Feturizer/New_Systems/rnas/3F2Q

>  <Rbt.Executable>
rbdock ($Id: //depot/dev/client3/rdock/2013.1/src/exe/rbdock.cxx#4 $)

>  <Rbt.Library>
libRbt.so (2013.1, Build901 2013/11/27)

>  <Rbt.Parameter_File>
/export/apps/rDock/src/rDock_2013.1_src/data/scripts/dock_solv.prm

>  <Rbt.Receptor>
prm/pocket_docking_8.prm

>  <SCORE>
-31.1909

>  <SCORE.INTER>
-27.7672

>  <SCORE.INTER.CONST>
1

>  <SCORE.INTER.POLAR>
0

>  <SCORE.INTER.ROT>
7

>  <SCORE.INTER.SOLV>
18.0184

>  <SCORE.INTER.VDW>
-32.7843

>  <SCORE.INTER.norm>
-0.895716

>  <SCORE.INTRA>
-3.42375

>  <SCORE.INTRA.DIHEDRAL>
-6.1591

>  <SCORE.INTRA.DIHEDRAL.0>
10.0718

>  <SCORE.INTRA.POLAR>
0

>  <SCORE.INTRA.POLAR.0>
0

>  <SCORE.INTRA.REPUL>
0

>  <SCORE.INTRA.REPUL.0>
0

>  <SCORE.INTRA.SOLV>
1.12081

>  <SCORE.INTRA.SOLV.lig_0>
-48.6963

>  <SCORE.INTRA.VDW>
-0.904605

>  <SCORE.INTRA.VDW.0>
-0.836976

>  <SCORE.INTRA.norm>
-0.110444

>  <SCORE.RESTR>
0

>  <SCORE.RESTR.CAVITY>
0

>  <SCORE.RESTR.norm>
0

>  <SCORE.SYSTEM>
0

>  <SCORE.SYSTEM.CONST>
0

>  <SCORE.SYSTEM.DIHEDRAL>
0

>  <SCORE.SYSTEM.SOLV>
0

>  <SCORE.SYSTEM.norm>
0

>  <SCORE.heavy>
31

>  <SCORE.norm>
-1.00616

>  <RMSD>
1.935

$$$$
ligand
 OpenBabel11021811473D
libRbt.so/2013.1/901 2013/11/27
 31 33  0  0  0  0  0  0  0  0999 V2000
   29.6658   40.9057   16.9783 P   0  0  1  0  0  0  0  0  0  0  0  0
   30.8041   41.9023   17.0286 O   0  0  0  0  0  0  0  0  0  0  0  0
   29.5545   40.4011   15.5648 O   0  5  0  0  0  0  0  0  0  0  0  0
   29.9432   39.7532   17.9037 O   0  0  0  0  0  0  0  0  0  0  0  0
   27.1122   40.8855   17.4886 C   0  0  0  0  0  0  0  0  0  0  0  0
   28.3209   41.6054   17.4926 O   0  0  0  0  0  0  0  0  0  0  0  0
   27.1780   39.7954   18.5482 C   0  0  1  0  0  0  0  0  0  0  0  0
   26.2516   40.1018   19.5686 O   0  0  0  0  0  0  0  0  0  0  0  0
   26.8596   38.4343   17.9297 C   0  0  1  0  0  0  0  0  0  0  0  0
   27.8400   38.1096   16.9676 O   0  0  0  0  0  0  0  0  0  0  0  0
   26.6997   37.3087   18.9612 C   0  0  1  0  0  0  0  0  0  0  0  0
   26.2620   36.1303   18.3220 O   0  0  0  0  0  0  0  0  0  0  0  0
   27.9889   37.0185   19.7131 C   0  0  0  0  0  0  0  0  0  0  0  0
   28.1040   34.2470   19.1753 N   0  0  0  0  0  0  0  0  0  0  0  0
   28.2227   32.9056   18.8737 C   0  0  0  0  0  0  0  0  0  0  0  0
   28.4396   32.5485   17.7124 O   0  0  0  0  0  0  0  0  0  0  0  0
   28.0877   31.9666   19.8763 N   0  0  0  0  0  0  0  0  0  0  0  0
   27.8352   32.3637   21.1759 C   0  0  0  0  0  0  0  0  0  0  0  0
   27.7178   33.7036   21.4817 C   0  0  1  0  0  0  0  0  0  0  0  0
   27.7217   31.5380   22.0803 O   0  0  0  0  0  0  0  0  0  0  0  0
   27.3559   35.4220   23.0974 C   0  0  2  0  0  0  0  0  0  0  0  0
   27.4701   34.0824   22.7868 N   0  0  0  0  0  0  0  0  0  0  0  0
   27.1041   35.8063   24.4123 C   0  0  0  0  0  0  0  0  0  0  0  0
   26.9797   37.1541   24.7346 C   0  0  1  0  0  0  0  0  0  0  0  0
   26.7185   37.5523   26.1610 C   0  0  0  0  0  0  0  0  0  0  0  0
   27.1124   38.1211   23.7316 C   0  0  1  0  0  0  0  0  0  0  0  0
   26.9984   39.5833   24.0504 C   0  0  0  0  0  0  0  0  0  0  0  0
   27.3646   37.7329   22.4191 C   0  0  0  0  0  0  0  0  0  0  0  0
   27.4868   36.3846   22.0919 C   0  0  2  0  0  0  0  0  0  0  0  0
   27.8548   34.6536   20.4760 C   0  0  2  0  0  0  0  0  0  0  0  0
   27.7291   35.9956   20.7798 N   0  0  0  0  0  0  0  0  0  0  0  0
  1  2  1  1  0  0  0
  1  3  1  0  0  0  0
  1  4  2  0  0  0  0
  1  6  1  0  0  0  0
  5  6  1  0  0  0  0
  7  5  1  6  0  0  0
  7  8  1  0  0  0  0
  7  9  1  0  0  0  0
  9 10  1  6  0  0  0
  9 11  1  0  0  0  0
 11 12  1  6  0  0  0
 11 13  1  0  0  0  0
 13 31  1  0  0  0  0
 14 15  1  0  0  0  0
 15 16  2  0  0  0  0
 15 17  1  0  0  0  0
 17 18  1  0  0  0  0
 18 20  2  0  0  0  0
 19 18  1  1  0  0  0
 19 22  1  0  0  0  0
 19 30  1  0  0  0  0
 21 23  1  6  0  0  0
 21 29  1  0  0  0  0
 21 22  1  0  0  0  0
 23 24  1  0  0  0  0
 24 25  1  1  0  0  0
 24 26  1  0  0  0  0
 26 27  1  1  0  0  0
 26 28  1  0  0  0  0
 29 28  1  6  0  0  0
 29 31  1  0  0  0  0
 30 14  1  6  0  0  0
 30 31  1  0  0  0  0
M  CHG  1   3  -1
M  END
>  <CHROM.1>
69.39637333,177.62396859,112.73853739,63.32962028,173.43164517,175.17497811
-96.71152475,27.87554065,37.16552955,19.97859743,-0.80835784,-1.33180166
-3.04825721

>  <Name>
ligand

>  <RI>
0

>  <Rbt.Current_Directory>
/home/itssahil/PROJECTS/Mol_Feturizer/New_Systems/rnas/3F2Q

>  <Rbt.Executable>
rbdock ($Id: //depot/dev/client3/rdock/2013.1/src/exe/rbdock.cxx#4 $)

>  <Rbt.Library>
libRbt.so (2013.1, Build901 2013/11/27)

>  <Rbt.Parameter_File>
/export/apps/rDock/src/rDock_2013.1_src/data/scripts/dock_solv.prm

>  <Rbt.Receptor>
prm/pocket_docking_4.prm

>  <SCORE>
-33.2407

>  <SCORE.INTER>
-32.2256

>  <SCORE.INTER.CONST>
1

>  <SCORE.INTER.POLAR>
0

>  <SCORE.INTER.ROT>
7

>  <SCORE.INTER.SOLV>
17.7816

>  <SCORE.INTER.VDW>
-35.6776

>  <SCORE.INTER.norm>
-1.03954

>  <SCORE.INTRA>
-1.21578

>  <SCORE.INTRA.DIHEDRAL>
-2.72664

>  <SCORE.INTRA.DIHEDRAL.0>
10.0718

>  <SCORE.INTRA.POLAR>
0

>  <SCORE.INTRA.POLAR.0>
0

>  <SCORE.INTRA.REPUL>
0

>  <SCORE.INTRA.REPUL.0>
0

>  <SCORE.INTRA.SOLV>
4.35377

>  <SCORE.INTRA.SOLV.lig_0>
-48.6963

>  <SCORE.INTRA.VDW>
-2.02935

>  <SCORE.INTRA.VDW.0>
-0.836976

>  <SCORE.INTRA.norm>
-0.0392188

>  <SCORE.RESTR>
0.200676

>  <SCORE.RESTR.CAVITY>
0.200676

>  <SCORE.RESTR.norm>
0.00647341

>  <SCORE.SYSTEM>
0

>  <SCORE.SYSTEM.CONST>
0

>  <SCORE.SYSTEM.DIHEDRAL>
0

>  <SCORE.SYSTEM.SOLV>
0

>  <SCORE.SYSTEM.norm>
0

>  <SCORE.heavy>
31

>  <SCORE.norm>
-1.07228

>  <RMSD>
1.953

$$$$
ligand
 OpenBabel11021811473D
libRbt.so/2013.1/901 2013/11/27
 31 33  0  0  0  0  0  0  0  0999 V2000
   24.2946   41.6479   19.7500 P   0  0  1  0  0  0  0  0  0  0  0  0
   23.9811   40.2298   19.3230 O   0  0  0  0  0  0  0  0  0  0  0  0
   23.2250   42.5469   19.1906 O   0  5  0  0  0  0  0  0  0  0  0  0
   24.3028   41.7487   21.2505 O   0  0  0  0  0  0  0  0  0  0  0  0
   26.8115   41.1139   19.3479 C   0  0  0  0  0  0  0  0  0  0  0  0
   25.7614   42.0447   19.2464 O   0  0  0  0  0  0  0  0  0  0  0  0
   26.6719   40.0824   18.2380 C   0  0  1  0  0  0  0  0  0  0  0  0
   26.8713   40.7255   16.9970 O   0  0  0  0  0  0  0  0  0  0  0  0
   27.6912   38.9589   18.4264 C   0  0  1  0  0  0  0  0  0  0  0  0
   28.9727   39.5117   18.6372 O   0  0  0  0  0  0  0  0  0  0  0  0
   27.3226   37.9703   19.5414 C   0  0  1  0  0  0  0  0  0  0  0  0
   26.1842   37.2268   19.1668 O   0  0  0  0  0  0  0  0  0  0  0  0
   28.4567   37.0131   19.8714 C   0  0  0  0  0  0  0  0  0  0  0  0
   28.4520   34.2533   19.2657 N   0  0  0  0  0  0  0  0  0  0  0  0
   28.5178   32.9138   18.9404 C   0  0  0  0  0  0  0  0  0  0  0  0
   28.8703   32.5674   17.8095 O   0  0  0  0  0  0  0  0  0  0  0  0
   28.1778   31.9653   19.8839 N   0  0  0  0  0  0  0  0  0  0  0  0
   27.7736   32.3511   21.1481 C   0  0  0  0  0  0  0  0  0  0  0  0
   27.7084   33.6889   21.4776 C   0  0  1  0  0  0  0  0  0  0  0  0
   27.4766   31.5163   22.0009 O   0  0  0  0  0  0  0  0  0  0  0  0
   27.2442   35.3932   23.0821 C   0  0  2  0  0  0  0  0  0  0  0  0
   27.3068   34.0561   22.7473 N   0  0  0  0  0  0  0  0  0  0  0  0
   26.8376   35.7659   24.3611 C   0  0  0  0  0  0  0  0  0  0  0  0
   26.7637   37.1117   24.7063 C   0  0  1  0  0  0  0  0  0  0  0  0
   26.3331   37.4964   26.0949 C   0  0  0  0  0  0  0  0  0  0  0  0
   27.1034   38.0882   23.7631 C   0  0  1  0  0  0  0  0  0  0  0  0
   27.0483   39.5474   24.1100 C   0  0  0  0  0  0  0  0  0  0  0  0
   27.5098   37.7116   22.4864 C   0  0  0  0  0  0  0  0  0  0  0  0
   27.5821   36.3655   22.1360 C   0  0  2  0  0  0  0  0  0  0  0  0
   28.0515   34.6482   20.5317 C   0  0  2  0  0  0  0  0  0  0  0  0
   27.9786   35.9888   20.8583 N   0  0  0  0  0  0  0  0  0  0  0  0
  1  2  1  6  0  0  0
  1  3  1  0  0  0  0
  1  4  2  0  0  0  0
  1  6  1  0  0  0  0
  5  6  1  0  0  0  0
  7  5  1  1  0  0  0
  7  8  1  0  0  0  0
  7  9  1  0  0  0  0
  9 10  1  1  0  0  0
  9 11  1  0  0  0  0
 11 12  1  6  0  0  0
 11 13  1  0  0  0  0
 13 31  1  0  0  0  0
 14 15  1  0  0  0  0
 15 16  2  0  0  0  0
 15 17  1  0  0  0  0
 17 18  1  0  0  0  0
 18 20  2  0  0  0  0
 19 18  1  1  0  0  0
 19 22  1  0  0  0  0
 19 30  1  0  0  0  0
 21 23  1  6  0  0  0
 21 29  1  0  0  0  0
 21 22  1  0  0  0  0
 23 24  1  0  0  0  0
 24 25  1  1  0  0  0
 24 26  1  0  0  0  0
 26 27  1  1  0  0  0
 26 28  1  0  0  0  0
 29 28  1  6  0  0  0
 29 31  1  0  0  0  0
 30 14  1  6  0  0  0
 30 31  1  0  0  0  0
M  CHG  1   3  -1
M  END
>  <CHROM.1>
76.92476619,-41.72328499,66.01791575,-49.43900904,68.13532377,-173.98001788
-64.02798652,26.84819794,37.47214254,20.65520392,2.60419227,1.18609637,-1.19593188

>  <Name>
ligand

>  <RI>
0

>  <Rbt.Current_Directory>
/home/itssahil/PROJECTS/Mol_Feturizer/New_Systems/rnas/3F2Q

>  <Rbt.Executable>
rbdock ($Id: //depot/dev/client3/rdock/2013.1/src/exe/rbdock.cxx#4 $)

>  <Rbt.Library>
libRbt.so (2013.1, Build901 2013/11/27)

>  <Rbt.Parameter_File>
/export/apps/rDock/src/rDock_2013.1_src/data/scripts/dock_solv.prm

>  <Rbt.Receptor>
prm/blind_docking_100.prm

>  <SCORE>
-36.948

>  <SCORE.INTER>
-32.9747

>  <SCORE.INTER.CONST>
1

>  <SCORE.INTER.POLAR>
0

>  <SCORE.INTER.ROT>
7

>  <SCORE.INTER.SOLV>
21.5109

>  <SCORE.INTER.VDW>
-37.4201

>  <SCORE.INTER.norm>
-1.0637

>  <SCORE.INTRA>
-3.97337

>  <SCORE.INTRA.DIHEDRAL>
-6.03274

>  <SCORE.INTRA.DIHEDRAL.0>
10.0718

>  <SCORE.INTRA.POLAR>
0

>  <SCORE.INTRA.POLAR.0>
0

>  <SCORE.INTRA.REPUL>
0

>  <SCORE.INTRA.REPUL.0>
0

>  <SCORE.INTRA.SOLV>
-0.611953

>  <SCORE.INTRA.SOLV.lig_0>
-48.6963

>  <SCORE.INTRA.VDW>
-0.651025

>  <SCORE.INTRA.VDW.0>
-0.836976

>  <SCORE.INTRA.norm>
-0.128173

>  <SCORE.RESTR>
0

>  <SCORE.RESTR.CAVITY>
0

>  <SCORE.RESTR.norm>
0

>  <SCORE.SYSTEM>
0

>  <SCORE.SYSTEM.CONST>
0

>  <SCORE.SYSTEM.DIHEDRAL>
0

>  <SCORE.SYSTEM.SOLV>
0

>  <SCORE.SYSTEM.norm>
0

>  <SCORE.heavy>
31

>  <SCORE.norm>
-1.19187

>  <RMSD>
1.956

$$$$
ligand
 OpenBabel11021811473D
libRbt.so/2013.1/901 2013/11/27
 31 33  0  0  0  0  0  0  0  0999 V2000
   27.4651   41.7824   17.1838 P   0  0  1  0  0  0  0  0  0  0  0  0
   26.5595   41.3739   16.0416 O   0  0  0  0  0  0  0  0  0  0  0  0
   27.7763   43.2465   17.0269 O   0  5  0  0  0  0  0  0  0  0  0  0
   26.7760   41.5527   18.5007 O   0  0  0  0  0  0  0  0  0  0  0  0
   28.6839   39.5057   17.5196 C   0  0  0  0  0  0  0  0  0  0  0  0
   28.7783   40.8670   17.1771 O   0  0  0  0  0  0  0  0  0  0  0  0
   30.0533   38.8588   17.3720 C   0  0  1  0  0  0  0  0  0  0  0  0
   30.9829   39.5899   18.1431 O   0  0  0  0  0  0  0  0  0  0  0  0
   30.0049   37.4025   17.8343 C   0  0  1  0  0  0  0  0  0  0  0  0
   31.2614   36.7955   17.6215 O   0  0  0  0  0  0  0  0  0  0  0  0
   29.5442   37.2306   19.2885 C   0  0  1  0  0  0  0  0  0  0  0  0
   29.8429   38.3940   20.0274 O   0  0  0  0  0  0  0  0  0  0  0  0
   28.0563   36.9383   19.3988 C   0  0  0  0  0  0  0  0  0  0  0  0
   28.1597   34.1582   18.9049 N   0  0  0  0  0  0  0  0  0  0  0  0
   28.2718   32.8119   18.6231 C   0  0  0  0  0  0  0  0  0  0  0  0
   28.4622   32.4355   17.4632 O   0  0  0  0  0  0  0  0  0  0  0  0
   28.1600   31.8898   19.6440 N   0  0  0  0  0  0  0  0  0  0  0  0
   27.9372   32.3086   20.9423 C   0  0  0  0  0  0  0  0  0  0  0  0
   27.8265   33.6534   21.2282 C   0  0  1  0  0  0  0  0  0  0  0  0
   27.8446   31.4981   21.8627 O   0  0  0  0  0  0  0  0  0  0  0  0
   27.5012   35.3986   22.8230 C   0  0  2  0  0  0  0  0  0  0  0  0
   27.6086   34.0540   22.5322 N   0  0  0  0  0  0  0  0  0  0  0  0
   27.2795   35.8049   24.1366 C   0  0  0  0  0  0  0  0  0  0  0  0
   27.1622   37.1579   24.4392 C   0  0  1  0  0  0  0  0  0  0  0  0
   26.9336   37.5798   25.8644 C   0  0  0  0  0  0  0  0  0  0  0  0
   27.2717   38.1079   23.4174 C   0  0  1  0  0  0  0  0  0  0  0  0
   27.1647   39.5753   23.7143 C   0  0  0  0  0  0  0  0  0  0  0  0
   27.4939   37.6979   22.1062 C   0  0  0  0  0  0  0  0  0  0  0  0
   27.6089   36.3442   21.7987 C   0  0  2  0  0  0  0  0  0  0  0  0
   27.9402   34.5865   20.2040 C   0  0  2  0  0  0  0  0  0  0  0  0
   27.8211   35.9334   20.4882 N   0  0  0  0  0  0  0  0  0  0  0  0
  1  2  1  6  0  0  0
  1  3  1  0  0  0  0
  1  4  2  0  0  0  0
  1  6  1  0  0  0  0
  5  6  1  0  0  0  0
  7  5  1  1  0  0  0
  7  8  1  0  0  0  0
  7  9  1  0  0  0  0
  9 10  1  1  0  0  0
  9 11  1  0  0  0  0
 11 12  1  1  0  0  0
 11 13  1  0  0  0  0
 13 31  1  0  0  0  0
 14 15  1  0  0  0  0
 15 16  2  0  0  0  0
 15 17  1  0  0  0  0
 17 18  1  0  0  0  0
 18 20  2  0  0  0  0
 19 18  1  1  0  0  0
 19 22  1  0  0  0  0
 19 30  1  0  0  0  0
 21 23  1  6  0  0  0
 21 29  1  0  0  0  0
 21 22  1  0  0  0  0
 23 24  1  0  0  0  0
 24 25  1  1  0  0  0
 24 26  1  0  0  0  0
 26 27  1  1  0  0  0
 26 28  1  0  0  0  0
 29 28  1  6  0  0  0
 29 31  1  0  0  0  0
 30 14  1  6  0  0  0
 30 31  1  0  0  0  0
M  CHG  1   3  -1
M  END
>  <CHROM.1>
177.44017033,-69.73680474,54.74293933,176.73852826,-26.34958957,141.52706835
89.30388879,28.20225845,37.23430897,19.87181135,1.42339439,1.27508413,-0.37472677

>  <Name>
ligand

>  <RI>
0

>  <Rbt.Current_Directory>
/home/itssahil/PROJECTS/Mol_Feturizer/New_Systems/rnas/3F2Q

>  <Rbt.Executable>
rbdock ($Id: //depot/dev/client3/rdock/2013.1/src/exe/rbdock.cxx#4 $)

>  <Rbt.Library>
libRbt.so (2013.1, Build901 2013/11/27)

>  <Rbt.Parameter_File>
/export/apps/rDock/src/rDock_2013.1_src/data/scripts/dock_solv.prm

>  <Rbt.Receptor>
prm/pocket_docking_5.prm

>  <SCORE>
-31.2673

>  <SCORE.INTER>
-29.8897

>  <SCORE.INTER.CONST>
1

>  <SCORE.INTER.POLAR>
0

>  <SCORE.INTER.ROT>
7

>  <SCORE.INTER.SOLV>
15.9523

>  <SCORE.INTER.VDW>
-33.5106

>  <SCORE.INTER.norm>
-0.964185

>  <SCORE.INTRA>
-1.37758

>  <SCORE.INTRA.DIHEDRAL>
-1.71585

>  <SCORE.INTRA.DIHEDRAL.0>
10.0718

>  <SCORE.INTRA.POLAR>
0

>  <SCORE.INTRA.POLAR.0>
0

>  <SCORE.INTRA.REPUL>
0

>  <SCORE.INTRA.REPUL.0>
0

>  <SCORE.INTRA.SOLV>
-0.887033

>  <SCORE.INTRA.SOLV.lig_0>
-48.6963

>  <SCORE.INTRA.VDW>
-0.0761351

>  <SCORE.INTRA.VDW.0>
-0.836976

>  <SCORE.INTRA.norm>
-0.0444379

>  <SCORE.RESTR>
0

>  <SCORE.RESTR.CAVITY>
0

>  <SCORE.RESTR.norm>
0

>  <SCORE.SYSTEM>
0

>  <SCORE.SYSTEM.CONST>
0

>  <SCORE.SYSTEM.DIHEDRAL>
0

>  <SCORE.SYSTEM.SOLV>
0

>  <SCORE.SYSTEM.norm>
0

>  <SCORE.heavy>
31

>  <SCORE.norm>
-1.00862

>  <RMSD>
1.962

$$$$
ligand
 OpenBabel11021811473D
libRbt.so/2013.1/901 2013/11/27
 31 33  0  0  0  0  0  0  0  0999 V2000
   27.8080   41.3294   16.9997 P   0  0  1  0  0  0  0  0  0  0  0  0
   26.6810   41.1916   15.9985 O   0  0  0  0  0  0  0  0  0  0  0  0
   28.5661   42.5878   16.6730 O   0  5  0  0  0  0  0  0  0  0  0  0
   27.2546   41.4231   18.3950 O   0  0  0  0  0  0  0  0  0  0  0  0
   29.8528   39.9240   17.7906 C   0  0  0  0  0  0  0  0  0  0  0  0
   28.7297   40.0215   16.9490 O   0  0  0  0  0  0  0  0  0  0  0  0
   30.5473   38.5931   17.5424 C   0  0  1  0  0  0  0  0  0  0  0  0
   31.6722   38.5062   18.3913 O   0  0  0  0  0  0  0  0  0  0  0  0
   29.5863   37.4349   17.8101 C   0  0  1  0  0  0  0  0  0  0  0  0
   30.0883   36.2558   17.2183 O   0  0  0  0  0  0  0  0  0  0  0  0
   29.2756   37.2206   19.2980 C   0  0  1  0  0  0  0  0  0  0  0  0
   29.6802   38.3494   20.0403 O   0  0  0  0  0  0  0  0  0  0  0  0
   27.8002   36.9581   19.5545 C   0  0  0  0  0  0  0  0  0  0  0  0
   27.9835   34.1852   19.0434 N   0  0  0  0  0  0  0  0  0  0  0  0
   28.1322   32.8449   18.7505 C   0  0  0  0  0  0  0  0  0  0  0  0
   28.2822   32.4791   17.5813 O   0  0  0  0  0  0  0  0  0  0  0  0
   28.1024   31.9163   19.7713 N   0  0  0  0  0  0  0  0  0  0  0  0
   27.9250   32.3227   21.0804 C   0  0  0  0  0  0  0  0  0  0  0  0
   27.7779   33.6616   21.3774 C   0  0  1  0  0  0  0  0  0  0  0  0
   27.9055   31.5067   22.0004 O   0  0  0  0  0  0  0  0  0  0  0  0
   27.4629   35.3889   22.9936 C   0  0  2  0  0  0  0  0  0  0  0  0
   27.6063   34.0501   22.6919 N   0  0  0  0  0  0  0  0  0  0  0  0
   27.2877   35.7829   24.3179 C   0  0  0  0  0  0  0  0  0  0  0  0
   27.1345   37.1296   24.6319 C   0  0  1  0  0  0  0  0  0  0  0  0
   26.9571   37.5387   26.0681 C   0  0  0  0  0  0  0  0  0  0  0  0
   27.1609   38.0861   23.6105 C   0  0  1  0  0  0  0  0  0  0  0  0
   27.0136   39.5475   23.9188 C   0  0  0  0  0  0  0  0  0  0  0  0
   27.3368   37.6884   22.2885 C   0  0  0  0  0  0  0  0  0  0  0  0
   27.4875   36.3408   21.9698 C   0  0  2  0  0  0  0  0  0  0  0  0
   27.8091   34.6012   20.3533 C   0  0  2  0  0  0  0  0  0  0  0  0
   27.6535   35.9419   20.6489 N   0  0  0  0  0  0  0  0  0  0  0  0
  1  2  1  6  0  0  0
  1  3  1  0  0  0  0
  1  4  2  0  0  0  0
  1  6  1  0  0  0  0
  5  6  1  0  0  0  0
  7  5  1  1  0  0  0
  7  8  1  0  0  0  0
  7  9  1  0  0  0  0
  9 10  1  1  0  0  0
  9 11  1  0  0  0  0
 11 12  1  1  0  0  0
 11 13  1  0  0  0  0
 13 31  1  0  0  0  0
 14 15  1  0  0  0  0
 15 16  2  0  0  0  0
 15 17  1  0  0  0  0
 17 18  1  0  0  0  0
 18 20  2  0  0  0  0
 19 18  1  1  0  0  0
 19 22  1  0  0  0  0
 19 30  1  0  0  0  0
 21 23  1  6  0  0  0
 21 29  1  0  0  0  0
 21 22  1  0  0  0  0
 23 24  1  0  0  0  0
 24 25  1  1  0  0  0
 24 26  1  0  0  0  0
 26 27  1  1  0  0  0
 26 28  1  0  0  0  0
 29 28  1  6  0  0  0
 29 31  1  0  0  0  0
 30 14  1  6  0  0  0
 30 31  1  0  0  0  0
M  CHG  1   3  -1
M  END
>  <CHROM.1>
-179.96150367,179.59251820,179.98204900,163.00400526,14.89528932,142.76432412
93.94466048,28.23170864,37.08600708,19.93131408,1.16987072,1.29661819,-0.23262701

>  <Name>
ligand

>  <RI>
0

>  <Rbt.Current_Directory>
/home/itssahil/PROJECTS/Mol_Feturizer/New_Systems/rnas/3F2Q

>  <Rbt.Executable>
rbdock ($Id: //depot/dev/client3/rdock/2013.1/src/exe/rbdock.cxx#4 $)

>  <Rbt.Library>
libRbt.so (2013.1, Build901 2013/11/27)

>  <Rbt.Parameter_File>
/export/apps/rDock/src/rDock_2013.1_src/data/scripts/dock_solv.prm

>  <Rbt.Receptor>
prm/blind_docking_80.prm

>  <SCORE>
-30.4478

>  <SCORE.INTER>
-30.0882

>  <SCORE.INTER.CONST>
1

>  <SCORE.INTER.POLAR>
0

>  <SCORE.INTER.ROT>
7

>  <SCORE.INTER.SOLV>
15.818

>  <SCORE.INTER.VDW>
-33.5982

>  <SCORE.INTER.norm>
-0.970588

>  <SCORE.INTRA>
-0.359572

>  <SCORE.INTRA.DIHEDRAL>
0.234107

>  <SCORE.INTRA.DIHEDRAL.0>
10.0718

>  <SCORE.INTRA.POLAR>
0

>  <SCORE.INTRA.POLAR.0>
0

>  <SCORE.INTRA.REPUL>
0

>  <SCORE.INTRA.REPUL.0>
0

>  <SCORE.INTRA.SOLV>
-0.340231

>  <SCORE.INTRA.SOLV.lig_0>
-48.6963

>  <SCORE.INTRA.VDW>
-0.30651

>  <SCORE.INTRA.VDW.0>
-0.836976

>  <SCORE.INTRA.norm>
-0.0115991

>  <SCORE.RESTR>
0

>  <SCORE.RESTR.CAVITY>
0

>  <SCORE.RESTR.norm>
0

>  <SCORE.SYSTEM>
0

>  <SCORE.SYSTEM.CONST>
0

>  <SCORE.SYSTEM.DIHEDRAL>
0

>  <SCORE.SYSTEM.SOLV>
0

>  <SCORE.SYSTEM.norm>
0

>  <SCORE.heavy>
31

>  <SCORE.norm>
-0.982187

>  <RMSD>
2.066

$$$$
ligand
 OpenBabel11021811473D
libRbt.so/2013.1/901 2013/11/27
 31 33  0  0  0  0  0  0  0  0999 V2000
   28.0175   41.2577   16.8880 P   0  0  1  0  0  0  0  0  0  0  0  0
   27.1458   40.0632   16.5641 O   0  0  0  0  0  0  0  0  0  0  0  0
   27.6003   42.3920   15.9912 O   0  5  0  0  0  0  0  0  0  0  0  0
   27.8348   41.6595   18.3257 O   0  0  0  0  0  0  0  0  0  0  0  0
   30.1415   39.9120   17.5659 C   0  0  0  0  0  0  0  0  0  0  0  0
   29.5573   40.8596   16.7056 O   0  0  0  0  0  0  0  0  0  0  0  0
   29.5797   38.5347   17.2450 C   0  0  1  0  0  0  0  0  0  0  0  0
   29.9259   38.2048   15.9166 O   0  0  0  0  0  0  0  0  0  0  0  0
   30.1381   37.4944   18.2158 C   0  0  1  0  0  0  0  0  0  0  0  0
   31.5351   37.6583   18.3345 O   0  0  0  0  0  0  0  0  0  0  0  0
   29.4587   37.5059   19.5923 C   0  0  1  0  0  0  0  0  0  0  0  0
   29.5036   38.8051   20.1390 O   0  0  0  0  0  0  0  0  0  0  0  0
   28.0128   37.0396   19.5336 C   0  0  0  0  0  0  0  0  0  0  0  0
   28.1438   34.2680   19.0000 N   0  0  0  0  0  0  0  0  0  0  0  0
   28.2699   32.9270   18.6998 C   0  0  0  0  0  0  0  0  0  0  0  0
   28.4785   32.5693   17.5372 O   0  0  0  0  0  0  0  0  0  0  0  0
   28.1515   31.9890   19.7054 N   0  0  0  0  0  0  0  0  0  0  0  0
   27.9083   32.3867   21.0066 C   0  0  0  0  0  0  0  0  0  0  0  0
   27.7836   33.7262   21.3109 C   0  0  1  0  0  0  0  0  0  0  0  0
   27.8096   31.5620   21.9136 O   0  0  0  0  0  0  0  0  0  0  0  0
   27.4239   35.4450   22.9268 C   0  0  2  0  0  0  0  0  0  0  0  0
   27.5453   34.1058   22.6176 N   0  0  0  0  0  0  0  0  0  0  0  0
   27.1816   35.8301   24.2432 C   0  0  0  0  0  0  0  0  0  0  0  0
   27.0501   37.1775   24.5642 C   0  0  1  0  0  0  0  0  0  0  0  0
   26.7993   37.5765   25.9922 C   0  0  0  0  0  0  0  0  0  0  0  0
   27.1659   38.1434   23.5581 C   0  0  1  0  0  0  0  0  0  0  0  0
   27.0438   39.6053   23.8752 C   0  0  0  0  0  0  0  0  0  0  0  0
   27.4086   37.7546   22.2440 C   0  0  0  0  0  0  0  0  0  0  0  0
   27.5380   36.4066   21.9182 C   0  0  2  0  0  0  0  0  0  0  0  0
   27.9038   34.6753   20.3022 C   0  0  2  0  0  0  0  0  0  0  0  0
   27.7708   36.0169   20.6047 N   0  0  0  0  0  0  0  0  0  0  0  0
  1  2  1  6  0  0  0
  1  3  1  0  0  0  0
  1  4  2  0  0  0  0
  1  6  1  0  0  0  0
  5  6  1  0  0  0  0
  7  5  1  1  0  0  0
  7  8  1  0  0  0  0
  7  9  1  0  0  0  0
  9 10  1  1  0  0  0
  9 11  1  0  0  0  0
 11 12  1  6  0  0  0
 11 13  1  0  0  0  0
 13 31  1  0  0  0  0
 14 15  1  0  0  0  0
 15 16  2  0  0  0  0
 15 17  1  0  0  0  0
 17 18  1  0  0  0  0
 18 20  2  0  0  0  0
 19 18  1  1  0  0  0
 19 22  1  0  0  0  0
 19 30  1  0  0  0  0
 21 23  1  6  0  0  0
 21 29  1  0  0  0  0
 21 22  1  0  0  0  0
 23 24  1  0  0  0  0
 24 25  1  1  0  0  0
 24 26  1  0  0  0  0
 26 27  1  1  0  0  0
 26 28  1  0  0  0  0
 29 28  1  6  0  0  0
 29 31  1  0  0  0  0
 30 14  1  6  0  0  0
 30 31  1  0  0  0  0
M  CHG  1   3  -1
M  END
>  <CHROM.1>
70.86067066,-66.41708119,61.97707169,-46.78427026,-53.97278337,131.60788662
80.47011297,28.28126091,37.17228108,19.83544968,1.07204609,1.28845637,-0.19367508

>  <Name>
ligand

>  <RI>
0

>  <Rbt.Current_Directory>
/home/itssahil/PROJECTS/Mol_Feturizer/New_Systems/rnas/3F2Q

>  <Rbt.Executable>
rbdock ($Id: //depot/dev/client3/rdock/2013.1/src/exe/rbdock.cxx#4 $)

>  <Rbt.Library>
libRbt.so (2013.1, Build901 2013/11/27)

>  <Rbt.Parameter_File>
/export/apps/rDock/src/rDock_2013.1_src/data/scripts/dock_solv.prm

>  <Rbt.Receptor>
prm/blind_docking_80.prm

>  <SCORE>
-32.609

>  <SCORE.INTER>
-30.3819

>  <SCORE.INTER.CONST>
1

>  <SCORE.INTER.POLAR>
0

>  <SCORE.INTER.ROT>
7

>  <SCORE.INTER.SOLV>
17.2899

>  <SCORE.INTER.VDW>
-34.2846

>  <SCORE.INTER.norm>
-0.98006

>  <SCORE.INTRA>
-2.22712

>  <SCORE.INTRA.DIHEDRAL>
-2.7355

>  <SCORE.INTRA.DIHEDRAL.0>
10.0718

>  <SCORE.INTRA.POLAR>
0

>  <SCORE.INTRA.POLAR.0>
0

>  <SCORE.INTRA.REPUL>
0

>  <SCORE.INTRA.REPUL.0>
0

>  <SCORE.INTRA.SOLV>
0.26313

>  <SCORE.INTRA.SOLV.lig_0>
-48.6963

>  <SCORE.INTRA.VDW>
-0.990932

>  <SCORE.INTRA.VDW.0>
-0.836976

>  <SCORE.INTRA.norm>
-0.0718425

>  <SCORE.RESTR>
0

>  <SCORE.RESTR.CAVITY>
0

>  <SCORE.RESTR.norm>
0

>  <SCORE.SYSTEM>
0

>  <SCORE.SYSTEM.CONST>
0

>  <SCORE.SYSTEM.DIHEDRAL>
0

>  <SCORE.SYSTEM.SOLV>
0

>  <SCORE.SYSTEM.norm>
0

>  <SCORE.heavy>
31

>  <SCORE.norm>
-1.0519

>  <RMSD>
2.179

$$$$
ligand
 OpenBabel11021811473D
libRbt.so/2013.1/901 2013/11/27
 31 33  0  0  0  0  0  0  0  0999 V2000
   28.6105   41.2410   17.3608 P   0  0  1  0  0  0  0  0  0  0  0  0
   28.4829   42.6581   16.8440 O   0  0  0  0  0  0  0  0  0  0  0  0
   28.2260   41.2426   18.8159 O   0  5  0  0  0  0  0  0  0  0  0  0
   27.6923   40.3256   16.5987 O   0  0  0  0  0  0  0  0  0  0  0  0
   30.5848   39.6132   17.8444 C   0  0  0  0  0  0  0  0  0  0  0  0
   30.1029   40.7163   17.1162 O   0  0  0  0  0  0  0  0  0  0  0  0
   30.0876   38.3309   17.1934 C   0  0  1  0  0  0  0  0  0  0  0  0
   30.9890   37.2892   17.5027 O   0  0  0  0  0  0  0  0  0  0  0  0
   28.6850   37.9895   17.6964 C   0  0  1  0  0  0  0  0  0  0  0  0
   27.9953   37.2495   16.7120 O   0  0  0  0  0  0  0  0  0  0  0  0
   28.6731   37.2619   19.0480 C   0  0  1  0  0  0  0  0  0  0  0  0
   29.3556   38.0308   20.0132 O   0  0  0  0  0  0  0  0  0  0  0  0
   27.2649   36.9750   19.5441 C   0  0  0  0  0  0  0  0  0  0  0  0
   27.5226   34.2188   18.9779 N   0  0  0  0  0  0  0  0  0  0  0  0
   27.7006   32.8900   18.6508 C   0  0  0  0  0  0  0  0  0  0  0  0
   27.7140   32.5397   17.4675 O   0  0  0  0  0  0  0  0  0  0  0  0
   27.8537   31.9551   19.6547 N   0  0  0  0  0  0  0  0  0  0  0  0
   27.8294   32.3439   20.9809 C   0  0  0  0  0  0  0  0  0  0  0  0
   27.6536   33.6713   21.3118 C   0  0  1  0  0  0  0  0  0  0  0  0
   27.9736   31.5226   21.8849 O   0  0  0  0  0  0  0  0  0  0  0  0
   27.4652   35.3699   22.9773 C   0  0  2  0  0  0  0  0  0  0  0  0
   27.6368   34.0423   22.6423 N   0  0  0  0  0  0  0  0  0  0  0  0
   27.4459   35.7461   24.3182 C   0  0  0  0  0  0  0  0  0  0  0  0
   27.2658   37.0810   24.6668 C   0  0  1  0  0  0  0  0  0  0  0  0
   27.2582   37.4716   26.1190 C   0  0  0  0  0  0  0  0  0  0  0  0
   27.1079   38.0435   23.6631 C   0  0  1  0  0  0  0  0  0  0  0  0
   26.9269   39.4933   24.0069 C   0  0  0  0  0  0  0  0  0  0  0  0
   27.1285   37.6635   22.3245 C   0  0  0  0  0  0  0  0  0  0  0  0
   27.3054   36.3278   21.9715 C   0  0  2  0  0  0  0  0  0  0  0  0
   27.5009   34.6173   20.3046 C   0  0  2  0  0  0  0  0  0  0  0  0
   27.3164   35.9461   20.6352 N   0  0  0  0  0  0  0  0  0  0  0  0
  1  2  1  6  0  0  0
  1  3  1  0  0  0  0
  1  4  2  0  0  0  0
  1  6  1  0  0  0  0
  5  6  1  0  0  0  0
  7  5  1  1  0  0  0
  7  8  1  0  0  0  0
  7  9  1  0  0  0  0
  9 10  1  6  0  0  0
  9 11  1  0  0  0  0
 11 12  1  1  0  0  0
 11 13  1  0  0  0  0
 13 31  1  0  0  0  0
 14 15  1  0  0  0  0
 15 16  2  0  0  0  0
 15 17  1  0  0  0  0
 17 18  1  0  0  0  0
 18 20  2  0  0  0  0
 19 18  1  6  0  0  0
 19 22  1  0  0  0  0
 19 30  1  0  0  0  0
 21 23  1  1  0  0  0
 21 29  1  0  0  0  0
 21 22  1  0  0  0  0
 23 24  1  0  0  0  0
 24 25  1  6  0  0  0
 24 26  1  0  0  0  0
 26 27  1  6  0  0  0
 26 28  1  0  0  0  0
 29 28  1  1  0  0  0
 29 31  1  0  0  0  0
 30 14  1  1  0  0  0
 30 31  1  0  0  0  0
M  CHG  1   3  -1
M  END
>  <CHROM.1>
81.17303559,161.08786599,154.17910736,152.46344039,56.28712168,164.00996830
96.97119482,28.17022976,37.04933214,19.91800132,0.67624141,1.33517575,0.25126412

>  <Name>
ligand

>  <RI>
0

>  <Rbt.Current_Directory>
/home/itssahil/PROJECTS/Mol_Feturizer/New_Systems/rnas/3F2Q

>  <Rbt.Executable>
rbdock ($Id: //depot/dev/client3/rdock/2013.1/src/exe/rbdock.cxx#4 $)

>  <Rbt.Library>
libRbt.so (2013.1, Build901 2013/11/27)

>  <Rbt.Parameter_File>
/export/apps/rDock/src/rDock_2013.1_src/data/scripts/dock_solv.prm

>  <Rbt.Receptor>
prm/pocket_docking_4.prm

>  <SCORE>
-28.109

>  <SCORE.INTER>
-28.0772

>  <SCORE.INTER.CONST>
1

>  <SCORE.INTER.POLAR>
0

>  <SCORE.INTER.ROT>
7

>  <SCORE.INTER.SOLV>
14.0628

>  <SCORE.INTER.VDW>
-31.6724

>  <SCORE.INTER.norm>
-0.905715

>  <SCORE.INTRA>
-0.0714582

>  <SCORE.INTRA.DIHEDRAL>
-1.06209

>  <SCORE.INTRA.DIHEDRAL.0>
10.0718

>  <SCORE.INTRA.POLAR>
0

>  <SCORE.INTRA.POLAR.0>
0

>  <SCORE.INTRA.REPUL>
0

>  <SCORE.INTRA.REPUL.0>
0

>  <SCORE.INTRA.SOLV>
4.79469

>  <SCORE.INTRA.SOLV.lig_0>
-48.6963

>  <SCORE.INTRA.VDW>
-1.93776

>  <SCORE.INTRA.VDW.0>
-0.836976

>  <SCORE.INTRA.norm>
-0.0023051

>  <SCORE.RESTR>
0.0396731

>  <SCORE.RESTR.CAVITY>
0.0396731

>  <SCORE.RESTR.norm>
0.00127978

>  <SCORE.SYSTEM>
0

>  <SCORE.SYSTEM.CONST>
0

>  <SCORE.SYSTEM.DIHEDRAL>
0

>  <SCORE.SYSTEM.SOLV>
0

>  <SCORE.SYSTEM.norm>
0

>  <SCORE.heavy>
31

>  <SCORE.norm>
-0.906741

>  <RMSD>
2.255

$$$$
ligand
 OpenBabel11021811473D
libRbt.so/2013.1/901 2013/11/27
 31 33  0  0  0  0  0  0  0  0999 V2000
   27.6486   41.4665   20.8700 P   0  0  1  0  0  0  0  0  0  0  0  0
   26.2524   40.8830   20.9112 O   0  0  0  0  0  0  0  0  0  0  0  0
   27.5684   42.8928   21.3437 O   0  5  0  0  0  0  0  0  0  0  0  0
   28.5642   40.6870   21.7733 O   0  0  0  0  0  0  0  0  0  0  0  0
   28.2770   40.0833   18.7549 C   0  0  0  0  0  0  0  0  0  0  0  0
   28.2362   41.3399   19.3863 O   0  0  0  0  0  0  0  0  0  0  0  0
   26.8893   39.7438   18.2310 C   0  0  1  0  0  0  0  0  0  0  0  0
   26.5967   40.5960   17.1441 O   0  0  0  0  0  0  0  0  0  0  0  0
   26.8310   38.2806   17.7923 C   0  0  1  0  0  0  0  0  0  0  0  0
   27.9815   37.9657   17.0375 O   0  0  0  0  0  0  0  0  0  0  0  0
   26.6414   37.2943   18.9532 C   0  0  1  0  0  0  0  0  0  0  0  0
   26.1510   36.0658   18.4641 O   0  0  0  0  0  0  0  0  0  0  0  0
   27.9279   37.0459   19.7243 C   0  0  0  0  0  0  0  0  0  0  0  0
   28.1013   34.2796   19.1760 N   0  0  0  0  0  0  0  0  0  0  0  0
   28.2484   32.9421   18.8695 C   0  0  0  0  0  0  0  0  0  0  0  0
   28.4761   32.5942   17.7075 O   0  0  0  0  0  0  0  0  0  0  0  0
   28.1296   31.9965   19.8680 N   0  0  0  0  0  0  0  0  0  0  0  0
   27.8651   32.3832   21.1684 C   0  0  0  0  0  0  0  0  0  0  0  0
   27.7194   33.7191   21.4790 C   0  0  1  0  0  0  0  0  0  0  0  0
   27.7659   31.5517   22.0691 O   0  0  0  0  0  0  0  0  0  0  0  0
   27.3175   35.4233   23.1004 C   0  0  2  0  0  0  0  0  0  0  0  0
   27.4600   34.0876   22.7848 N   0  0  0  0  0  0  0  0  0  0  0  0
   27.0539   35.7972   24.4159 C   0  0  0  0  0  0  0  0  0  0  0  0
   26.9010   37.1408   24.7432 C   0  0  1  0  0  0  0  0  0  0  0  0
   26.6274   37.5279   26.1704 C   0  0  0  0  0  0  0  0  0  0  0  0
   27.0168   38.1143   23.7444 C   0  0  1  0  0  0  0  0  0  0  0  0
   26.8720   39.5725   24.0686 C   0  0  0  0  0  0  0  0  0  0  0  0
   27.2809   37.7366   22.4312 C   0  0  0  0  0  0  0  0  0  0  0  0
   27.4317   36.3924   22.0990 C   0  0  2  0  0  0  0  0  0  0  0  0
   27.8399   34.6757   20.4775 C   0  0  2  0  0  0  0  0  0  0  0  0
   27.6858   36.0137   20.7862 N   0  0  0  0  0  0  0  0  0  0  0  0
  1  2  1  1  0  0  0
  1  3  1  0  0  0  0
  1  4  2  0  0  0  0
  1  6  1  0  0  0  0
  5  6  1  0  0  0  0
  7  5  1  6  0  0  0
  7  8  1  0  0  0  0
  7  9  1  0  0  0  0
  9 10  1  1  0  0  0
  9 11  1  0  0  0  0
 11 12  1  6  0  0  0
 11 13  1  0  0  0  0
 13 31  1  0  0  0  0
 14 15  1  0  0  0  0
 15 16  2  0  0  0  0
 15 17  1  0  0  0  0
 17 18  1  0  0  0  0
 18 20  2  0  0  0  0
 19 18  1  1  0  0  0
 19 22  1  0  0  0  0
 19 30  1  0  0  0  0
 21 23  1  6  0  0  0
 21 29  1  0  0  0  0
 21 22  1  0  0  0  0
 23 24  1  0  0  0  0
 24 25  1  1  0  0  0
 24 26  1  0  0  0  0
 26 27  1  1  0  0  0
 26 28  1  0  0  0  0
 29 28  1  6  0  0  0
 29 31  1  0  0  0  0
 30 14  1  6  0  0  0
 30 31  1  0  0  0  0
M  CHG  1   3  -1
M  END
>  <CHROM.1>
78.69125177,-54.84372255,70.13711896,-44.86991416,160.14502064,-176.59862762
-97.72868828,27.47313655,37.26594882,20.74675302,2.18295839,1.48454957,-0.65429614

>  <Name>
ligand

>  <RI>
0

>  <Rbt.Current_Directory>
/home/itssahil/PROJECTS/Mol_Feturizer/New_Systems/rnas/3F2Q

>  <Rbt.Executable>
rbdock ($Id: //depot/dev/client3/rdock/2013.1/src/exe/rbdock.cxx#4 $)

>  <Rbt.Library>
libRbt.so (2013.1, Build901 2013/11/27)

>  <Rbt.Parameter_File>
/export/apps/rDock/src/rDock_2013.1_src/data/scripts/dock_solv.prm

>  <Rbt.Receptor>
prm/pocket_docking_5.prm

>  <SCORE>
-32.8319

>  <SCORE.INTER>
-29.6714

>  <SCORE.INTER.CONST>
1

>  <SCORE.INTER.POLAR>
0

>  <SCORE.INTER.ROT>
7

>  <SCORE.INTER.SOLV>
16.5928

>  <SCORE.INTER.VDW>
-33.5785

>  <SCORE.INTER.norm>
-0.957142

>  <SCORE.INTRA>
-3.16052

>  <SCORE.INTRA.DIHEDRAL>
-4.37997

>  <SCORE.INTRA.DIHEDRAL.0>
10.0718

>  <SCORE.INTRA.POLAR>
0

>  <SCORE.INTRA.POLAR.0>
0

>  <SCORE.INTRA.REPUL>
0

>  <SCORE.INTRA.REPUL.0>
0

>  <SCORE.INTRA.SOLV>
1.5911

>  <SCORE.INTRA.SOLV.lig_0>
-48.6963

>  <SCORE.INTRA.VDW>
-1.76608

>  <SCORE.INTRA.VDW.0>
-0.836976

>  <SCORE.INTRA.norm>
-0.101952

>  <SCORE.RESTR>
0

>  <SCORE.RESTR.CAVITY>
0

>  <SCORE.RESTR.norm>
0

>  <SCORE.SYSTEM>
0

>  <SCORE.SYSTEM.CONST>
0

>  <SCORE.SYSTEM.DIHEDRAL>
0

>  <SCORE.SYSTEM.SOLV>
0

>  <SCORE.SYSTEM.norm>
0

>  <SCORE.heavy>
31

>  <SCORE.norm>
-1.05909

>  <RMSD>
2.280

$$$$
ligand
 OpenBabel11021811473D
libRbt.so/2013.1/901 2013/11/27
 31 33  0  0  0  0  0  0  0  0999 V2000
   29.4447   39.8635   16.8228 P   0  0  1  0  0  0  0  0  0  0  0  0
   29.4484   41.1377   17.6402 O   0  0  0  0  0  0  0  0  0  0  0  0
   29.6541   40.2383   15.3803 O   0  5  0  0  0  0  0  0  0  0  0  0
   30.5550   38.9544   17.2729 O   0  0  0  0  0  0  0  0  0  0  0  0
   26.8665   39.7966   17.1838 C   0  0  0  0  0  0  0  0  0  0  0  0
   28.0705   39.0787   17.0645 O   0  0  0  0  0  0  0  0  0  0  0  0
   26.8534   40.5292   18.5174 C   0  0  1  0  0  0  0  0  0  0  0  0
   25.5390   40.5049   19.0324 O   0  0  0  0  0  0  0  0  0  0  0  0
   27.8223   39.8665   19.4965 C   0  0  1  0  0  0  0  0  0  0  0  0
   28.1329   40.7665   20.5386 O   0  0  0  0  0  0  0  0  0  0  0  0
   27.3201   38.5263   20.0515 C   0  0  1  0  0  0  0  0  0  0  0  0
   26.6331   37.8169   19.0447 O   0  0  0  0  0  0  0  0  0  0  0  0
   28.4462   37.6595   20.5920 C   0  0  0  0  0  0  0  0  0  0  0  0
   28.4778   34.9546   19.7759 N   0  0  0  0  0  0  0  0  0  0  0  0
   28.5638   33.6432   19.3548 C   0  0  0  0  0  0  0  0  0  0  0  0
   29.0150   33.3799   18.2366 O   0  0  0  0  0  0  0  0  0  0  0  0
   28.1333   32.6299   20.1873 N   0  0  0  0  0  0  0  0  0  0  0  0
   27.6187   32.9231   21.4362 C   0  0  0  0  0  0  0  0  0  0  0  0
   27.5330   34.2324   21.8615 C   0  0  1  0  0  0  0  0  0  0  0  0
   27.2401   32.0294   22.1915 O   0  0  0  0  0  0  0  0  0  0  0  0
   26.9367   35.8147   23.5453 C   0  0  2  0  0  0  0  0  0  0  0  0
   27.0204   34.5065   23.1146 N   0  0  0  0  0  0  0  0  0  0  0  0
   26.4183   36.0937   24.8076 C   0  0  0  0  0  0  0  0  0  0  0  0
   26.3226   37.4099   25.2483 C   0  0  1  0  0  0  0  0  0  0  0  0
   25.7705   37.6928   26.6182 C   0  0  0  0  0  0  0  0  0  0  0  0
   26.7529   38.4512   24.4181 C   0  0  1  0  0  0  0  0  0  0  0  0
   26.6764   39.8801   24.8709 C   0  0  0  0  0  0  0  0  0  0  0  0
   27.2708   38.1682   23.1577 C   0  0  0  0  0  0  0  0  0  0  0  0
   27.3655   36.8520   22.7117 C   0  0  2  0  0  0  0  0  0  0  0  0
   27.9668   35.2567   21.0277 C   0  0  2  0  0  0  0  0  0  0  0  0
   27.8736   36.5691   21.4495 N   0  0  0  0  0  0  0  0  0  0  0  0
  1  2  1  1  0  0  0
  1  3  1  0  0  0  0
  1  4  2  0  0  0  0
  1  6  1  0  0  0  0
  5  6  1  0  0  0  0
  7  5  1  6  0  0  0
  7  8  1  0  0  0  0
  7  9  1  0  0  0  0
  9 10  1  1  0  0  0
  9 11  1  0  0  0  0
 11 12  1  6  0  0  0
 11 13  1  0  0  0  0
 13 31  1  0  0  0  0
 14 15  1  0  0  0  0
 15 16  2  0  0  0  0
 15 17  1  0  0  0  0
 17 18  1  0  0  0  0
 18 20  2  0  0  0  0
 19 18  1  1  0  0  0
 19 22  1  0  0  0  0
 19 30  1  0  0  0  0
 21 23  1  6  0  0  0
 21 29  1  0  0  0  0
 21 22  1  0  0  0  0
 23 24  1  0  0  0  0
 24 25  1  1  0  0  0
 24 26  1  0  0  0  0
 26 27  1  1  0  0  0
 26 28  1  0  0  0  0
 29 28  1  6  0  0  0
 29 31  1  0  0  0  0
 30 14  1  6  0  0  0
 30 31  1  0  0  0  0
M  CHG  1   3  -1
M  END
>  <CHROM.1>
-71.57391012,38.64044244,-142.91131058,161.06287590,37.25376246,164.21037298
-73.15193244,27.77287146,37.45445776,20.43479216,-0.89312886,-1.22599860
2.86624601

>  <Name>
ligand

>  <RI>
0

>  <Rbt.Current_Directory>
/home/itssahil/PROJECTS/Mol_Feturizer/New_Systems/rnas/3F2Q

>  <Rbt.Executable>
rbdock ($Id: //depot/dev/client3/rdock/2013.1/src/exe/rbdock.cxx#4 $)

>  <Rbt.Library>
libRbt.so (2013.1, Build901 2013/11/27)

>  <Rbt.Parameter_File>
/export/apps/rDock/src/rDock_2013.1_src/data/scripts/dock_solv.prm

>  <Rbt.Receptor>
prm/pocket_docking_3.prm

>  <SCORE>
-25.844

>  <SCORE.INTER>
-28.0672

>  <SCORE.INTER.CONST>
1

>  <SCORE.INTER.POLAR>
0

>  <SCORE.INTER.ROT>
7

>  <SCORE.INTER.SOLV>
18.2423

>  <SCORE.INTER.VDW>
-33.0589

>  <SCORE.INTER.norm>
-0.905394

>  <SCORE.INTRA>
1.89628

>  <SCORE.INTRA.DIHEDRAL>
0.0256287

>  <SCORE.INTRA.DIHEDRAL.0>
10.0718

>  <SCORE.INTRA.POLAR>
0

>  <SCORE.INTRA.POLAR.0>
0

>  <SCORE.INTRA.REPUL>
0

>  <SCORE.INTRA.REPUL.0>
0

>  <SCORE.INTRA.SOLV>
1.85828

>  <SCORE.INTRA.SOLV.lig_0>
-48.6963

>  <SCORE.INTRA.VDW>
0.954323

>  <SCORE.INTRA.VDW.0>
-0.836976

>  <SCORE.INTRA.norm>
0.0611702

>  <SCORE.RESTR>
0.32694

>  <SCORE.RESTR.CAVITY>
0.32694

>  <SCORE.RESTR.norm>
0.0105465

>  <SCORE.SYSTEM>
0

>  <SCORE.SYSTEM.CONST>
0

>  <SCORE.SYSTEM.DIHEDRAL>
0

>  <SCORE.SYSTEM.SOLV>
0

>  <SCORE.SYSTEM.norm>
0

>  <SCORE.heavy>
31

>  <SCORE.norm>
-0.833677

>  <RMSD>
2.356

$$$$
ligand
 OpenBabel11021811473D
libRbt.so/2013.1/901 2013/11/27
 31 33  0  0  0  0  0  0  0  0999 V2000
   28.9444   41.0892   16.9348 P   0  0  1  0  0  0  0  0  0  0  0  0
   28.7938   41.9322   18.1830 O   0  0  0  0  0  0  0  0  0  0  0  0
   27.8910   40.0149   16.9718 O   0  5  0  0  0  0  0  0  0  0  0  0
   28.7542   41.9385   15.7083 O   0  0  0  0  0  0  0  0  0  0  0  0
   30.8807   39.6226   17.8737 C   0  0  0  0  0  0  0  0  0  0  0  0
   30.4299   40.4964   16.8674 O   0  0  0  0  0  0  0  0  0  0  0  0
   30.7076   38.1867   17.4008 C   0  0  1  0  0  0  0  0  0  0  0  0
   31.6614   37.3780   18.0563 O   0  0  0  0  0  0  0  0  0  0  0  0
   29.2925   37.6949   17.7044 C   0  0  1  0  0  0  0  0  0  0  0  0
   28.9471   36.6612   16.8074 O   0  0  0  0  0  0  0  0  0  0  0  0
   29.0896   37.2566   19.1615 C   0  0  1  0  0  0  0  0  0  0  0  0
   29.5763   38.2516   20.0344 O   0  0  0  0  0  0  0  0  0  0  0  0
   27.6317   36.9759   19.4891 C   0  0  0  0  0  0  0  0  0  0  0  0
   27.8045   34.1980   19.0023 N   0  0  0  0  0  0  0  0  0  0  0  0
   27.9455   32.8550   18.7179 C   0  0  0  0  0  0  0  0  0  0  0  0
   28.0341   32.4757   17.5468 O   0  0  0  0  0  0  0  0  0  0  0  0
   27.9770   31.9389   19.7499 N   0  0  0  0  0  0  0  0  0  0  0  0
   27.8683   32.3605   21.0617 C   0  0  0  0  0  0  0  0  0  0  0  0
   27.7291   33.7021   21.3501 C   0  0  1  0  0  0  0  0  0  0  0  0
   27.9039   31.5558   21.9911 O   0  0  0  0  0  0  0  0  0  0  0  0
   27.4914   35.4475   22.9601 C   0  0  2  0  0  0  0  0  0  0  0  0
   27.6267   34.1058   22.6672 N   0  0  0  0  0  0  0  0  0  0  0  0
   27.3858   35.8568   24.2872 C   0  0  0  0  0  0  0  0  0  0  0  0
   27.2414   37.2064   24.5928 C   0  0  1  0  0  0  0  0  0  0  0  0
   27.1396   37.6322   26.0315 C   0  0  0  0  0  0  0  0  0  0  0  0
   27.2064   38.1503   23.5600 C   0  0  1  0  0  0  0  0  0  0  0  0
   27.0667   39.6146   23.8583 C   0  0  0  0  0  0  0  0  0  0  0  0
   27.3128   37.7373   22.2353 C   0  0  0  0  0  0  0  0  0  0  0  0
   27.4544   36.3868   21.9251 C   0  0  2  0  0  0  0  0  0  0  0  0
   27.6988   34.6292   20.3146 C   0  0  2  0  0  0  0  0  0  0  0  0
   27.5510   35.9725   20.6021 N   0  0  0  0  0  0  0  0  0  0  0  0
  1  2  1  1  0  0  0
  1  3  1  0  0  0  0
  1  4  2  0  0  0  0
  1  6  1  0  0  0  0
  5  6  1  0  0  0  0
  7  5  1  1  0  0  0
  7  8  1  0  0  0  0
  7  9  1  0  0  0  0
  9 10  1  6  0  0  0
  9 11  1  0  0  0  0
 11 12  1  1  0  0  0
 11 13  1  0  0  0  0
 13 31  1  0  0  0  0
 14 15  1  0  0  0  0
 15 16  2  0  0  0  0
 15 17  1  0  0  0  0
 17 18  1  0  0  0  0
 18 20  2  0  0  0  0
 19 18  1  1  0  0  0
 19 22  1  0  0  0  0
 19 30  1  0  0  0  0
 21 23  1  6  0  0  0
 21 29  1  0  0  0  0
 21 22  1  0  0  0  0
 23 24  1  0  0  0  0
 24 25  1  1  0  0  0
 24 26  1  0  0  0  0
 26 27  1  1  0  0  0
 26 28  1  0  0  0  0
 29 28  1  6  0  0  0
 29 31  1  0  0  0  0
 30 14  1  6  0  0  0
 30 31  1  0  0  0  0
M  CHG  1   3  -1
M  END
>  <CHROM.1>
96.59591897,62.49652611,153.26812635,154.87685282,49.35158326,152.74760671
93.24329110,28.43060171,37.02179158,19.86032486,0.65560696,1.28143431,0.21186871

>  <Name>
ligand

>  <RI>
0

>  <Rbt.Current_Directory>
/home/itssahil/PROJECTS/Mol_Feturizer/New_Systems/rnas/3F2Q

>  <Rbt.Executable>
rbdock ($Id: //depot/dev/client3/rdock/2013.1/src/exe/rbdock.cxx#4 $)

>  <Rbt.Library>
libRbt.so (2013.1, Build901 2013/11/27)

>  <Rbt.Parameter_File>
/export/apps/rDock/src/rDock_2013.1_src/data/scripts/dock_solv.prm

>  <Rbt.Receptor>
prm/blind_docking_60.prm

>  <SCORE>
-28.5934

>  <SCORE.INTER>
-29.1862

>  <SCORE.INTER.CONST>
1

>  <SCORE.INTER.POLAR>
0

>  <SCORE.INTER.ROT>
7

>  <SCORE.INTER.SOLV>
18.1381

>  <SCORE.INTER.VDW>
-33.7702

>  <SCORE.INTER.norm>
-0.941492

>  <SCORE.INTRA>
0.592867

>  <SCORE.INTRA.DIHEDRAL>
2.75249

>  <SCORE.INTRA.DIHEDRAL.0>
10.0718

>  <SCORE.INTRA.POLAR>
0

>  <SCORE.INTRA.POLAR.0>
0

>  <SCORE.INTRA.REPUL>
0

>  <SCORE.INTRA.REPUL.0>
0

>  <SCORE.INTRA.SOLV>
2.58012

>  <SCORE.INTRA.SOLV.lig_0>
-48.6963

>  <SCORE.INTRA.VDW>
-2.07344

>  <SCORE.INTRA.VDW.0>
-0.836976

>  <SCORE.INTRA.norm>
0.0191247

>  <SCORE.RESTR>
0

>  <SCORE.RESTR.CAVITY>
0

>  <SCORE.RESTR.norm>
0

>  <SCORE.SYSTEM>
0

>  <SCORE.SYSTEM.CONST>
0

>  <SCORE.SYSTEM.DIHEDRAL>
0

>  <SCORE.SYSTEM.SOLV>
0

>  <SCORE.SYSTEM.norm>
0

>  <SCORE.heavy>
31

>  <SCORE.norm>
-0.922367

>  <RMSD>
2.393

$$$$
ligand
 OpenBabel11021811473D
libRbt.so/2013.1/901 2013/11/27
 31 33  0  0  0  0  0  0  0  0999 V2000
   27.8861   42.4186   21.6974 P   0  0  1  0  0  0  0  0  0  0  0  0
   28.8902   43.5513   21.6782 O   0  0  0  0  0  0  0  0  0  0  0  0
   28.6302   41.1454   21.9977 O   0  5  0  0  0  0  0  0  0  0  0  0
   26.8514   42.6598   22.7619 O   0  0  0  0  0  0  0  0  0  0  0  0
   27.5361   41.4729   19.2964 C   0  0  0  0  0  0  0  0  0  0  0  0
   27.1129   42.3672   20.2966 O   0  0  0  0  0  0  0  0  0  0  0  0
   27.2787   40.0472   19.7615 C   0  0  1  0  0  0  0  0  0  0  0  0
   25.9215   39.9323   20.1335 O   0  0  0  0  0  0  0  0  0  0  0  0
   27.6117   39.0567   18.6459 C   0  0  1  0  0  0  0  0  0  0  0  0
   28.9076   39.3180   18.1510 O   0  0  0  0  0  0  0  0  0  0  0  0
   27.4614   37.5861   19.0596 C   0  0  1  0  0  0  0  0  0  0  0  0
   27.4553   36.7634   17.9142 O   0  0  0  0  0  0  0  0  0  0  0  0
   28.5672   37.1274   19.9969 C   0  0  0  0  0  0  0  0  0  0  0  0
   28.5015   34.3881   19.3077 N   0  0  0  0  0  0  0  0  0  0  0  0
   28.5386   33.0574   18.9439 C   0  0  0  0  0  0  0  0  0  0  0  0
   28.9153   32.7343   17.8139 O   0  0  0  0  0  0  0  0  0  0  0  0
   28.1429   32.0920   19.8476 N   0  0  0  0  0  0  0  0  0  0  0  0
   27.7116   32.4521   21.1104 C   0  0  0  0  0  0  0  0  0  0  0  0
   27.6749   33.7809   21.4784 C   0  0  1  0  0  0  0  0  0  0  0  0
   27.3649   31.6016   21.9283 O   0  0  0  0  0  0  0  0  0  0  0  0
   27.2112   35.4501   23.1196 C   0  0  2  0  0  0  0  0  0  0  0  0
   27.2455   34.1222   22.7462 N   0  0  0  0  0  0  0  0  0  0  0  0
   26.7767   35.7968   24.3967 C   0  0  0  0  0  0  0  0  0  0  0  0
   26.7311   37.1334   24.7804 C   0  0  1  0  0  0  0  0  0  0  0  0
   26.2696   37.4895   26.1666 C   0  0  0  0  0  0  0  0  0  0  0  0
   27.1273   38.1268   23.8777 C   0  0  1  0  0  0  0  0  0  0  0  0
   27.1037   39.5761   24.2670 C   0  0  0  0  0  0  0  0  0  0  0  0
   27.5614   37.7762   22.6027 C   0  0  0  0  0  0  0  0  0  0  0  0
   27.6057   36.4394   22.2138 C   0  0  2  0  0  0  0  0  0  0  0  0
   28.0741   34.7571   20.5727 C   0  0  2  0  0  0  0  0  0  0  0  0
   28.0299   36.0891   20.9376 N   0  0  0  0  0  0  0  0  0  0  0  0
  1  2  1  6  0  0  0
  1  3  1  0  0  0  0
  1  4  2  0  0  0  0
  1  6  1  0  0  0  0
  5  6  1  0  0  0  0
  7  5  1  6  0  0  0
  7  8  1  0  0  0  0
  7  9  1  0  0  0  0
  9 10  1  1  0  0  0
  9 11  1  0  0  0  0
 11 12  1  6  0  0  0
 11 13  1  0  0  0  0
 13 31  1  0  0  0  0
 14 15  1  0  0  0  0
 15 16  2  0  0  0  0
 15 17  1  0  0  0  0
 17 18  1  0  0  0  0
 18 20  2  0  0  0  0
 19 18  1  1  0  0  0
 19 22  1  0  0  0  0
 19 30  1  0  0  0  0
 21 23  1  6  0  0  0
 21 29  1  0  0  0  0
 21 22  1  0  0  0  0
 23 24  1  0  0  0  0
 24 25  1  1  0  0  0
 24 26  1  0  0  0  0
 26 27  1  1  0  0  0
 26 28  1  0  0  0  0
 29 28  1  6  0  0  0
 29 31  1  0  0  0  0
 30 14  1  6  0  0  0
 30 31  1  0  0  0  0
M  CHG  1   3  -1
M  END
>  <CHROM.1>
67.13963489,97.11351961,53.76165181,51.27481243,165.37071463,148.06236544
-96.88546715,27.65364623,37.63436559,21.17453708,-1.73268987,-1.36548721
3.08677299

>  <Name>
ligand

>  <RI>
0

>  <Rbt.Current_Directory>
/home/itssahil/PROJECTS/Mol_Feturizer/New_Systems/rnas/3F2Q

>  <Rbt.Executable>
rbdock ($Id: //depot/dev/client3/rdock/2013.1/src/exe/rbdock.cxx#4 $)

>  <Rbt.Library>
libRbt.so (2013.1, Build901 2013/11/27)

>  <Rbt.Parameter_File>
/export/apps/rDock/src/rDock_2013.1_src/data/scripts/dock_solv.prm

>  <Rbt.Receptor>
prm/blind_docking_60.prm

>  <SCORE>
-35.8987

>  <SCORE.INTER>
-34.5147

>  <SCORE.INTER.CONST>
1

>  <SCORE.INTER.POLAR>
0

>  <SCORE.INTER.ROT>
7

>  <SCORE.INTER.SOLV>
15.7131

>  <SCORE.INTER.VDW>
-36.5142

>  <SCORE.INTER.norm>
-1.11338

>  <SCORE.INTRA>
-1.38398

>  <SCORE.INTRA.DIHEDRAL>
-2.59163

>  <SCORE.INTRA.DIHEDRAL.0>
10.0718

>  <SCORE.INTRA.POLAR>
0

>  <SCORE.INTRA.POLAR.0>
0

>  <SCORE.INTRA.REPUL>
0

>  <SCORE.INTRA.REPUL.0>
0

>  <SCORE.INTRA.SOLV>
3.79343

>  <SCORE.INTRA.SOLV.lig_0>
-48.6963

>  <SCORE.INTRA.VDW>
-1.98488

>  <SCORE.INTRA.VDW.0>
-0.836976

>  <SCORE.INTRA.norm>
-0.0446445

>  <SCORE.RESTR>
0

>  <SCORE.RESTR.CAVITY>
0

>  <SCORE.RESTR.norm>
0

>  <SCORE.SYSTEM>
0

>  <SCORE.SYSTEM.CONST>
0

>  <SCORE.SYSTEM.DIHEDRAL>
0

>  <SCORE.SYSTEM.SOLV>
0

>  <SCORE.SYSTEM.norm>
0

>  <SCORE.heavy>
31

>  <SCORE.norm>
-1.15802

>  <RMSD>
2.435

$$$$
ligand
 OpenBabel11021811473D
libRbt.so/2013.1/901 2013/11/27
 31 33  0  0  0  0  0  0  0  0999 V2000
   28.6367   41.1706   16.5742 P   0  0  1  0  0  0  0  0  0  0  0  0
   29.4453   41.5040   15.3387 O   0  0  0  0  0  0  0  0  0  0  0  0
   29.2035   41.9580   17.7248 O   0  5  0  0  0  0  0  0  0  0  0  0
   27.1951   41.5468   16.3687 O   0  0  0  0  0  0  0  0  0  0  0  0
   29.9107   38.9160   16.8483 C   0  0  0  0  0  0  0  0  0  0  0  0
   28.6763   39.5904   16.8274 O   0  0  0  0  0  0  0  0  0  0  0  0
   29.6656   37.4360   17.1030 C   0  0  1  0  0  0  0  0  0  0  0  0
   30.3343   36.6903   16.1080 O   0  0  0  0  0  0  0  0  0  0  0  0
   30.1708   37.0457   18.4920 C   0  0  1  0  0  0  0  0  0  0  0  0
   31.5118   37.4597   18.6424 O   0  0  0  0  0  0  0  0  0  0  0  0
   29.2955   37.5711   19.6383 C   0  0  1  0  0  0  0  0  0  0  0  0
   29.2540   38.9804   19.6035 O   0  0  0  0  0  0  0  0  0  0  0  0
   27.8760   37.0292   19.5847 C   0  0  0  0  0  0  0  0  0  0  0  0
   28.0326   34.2597   19.0471 N   0  0  0  0  0  0  0  0  0  0  0  0
   28.1695   32.9207   18.7427 C   0  0  0  0  0  0  0  0  0  0  0  0
   28.3424   32.5656   17.5734 O   0  0  0  0  0  0  0  0  0  0  0  0
   28.1021   31.9815   19.7519 N   0  0  0  0  0  0  0  0  0  0  0  0
   27.8989   32.3761   21.0610 C   0  0  0  0  0  0  0  0  0  0  0  0
   27.7636   33.7137   21.3694 C   0  0  1  0  0  0  0  0  0  0  0  0
   27.8459   31.5505   21.9709 O   0  0  0  0  0  0  0  0  0  0  0  0
   27.4340   35.4275   22.9969 C   0  0  2  0  0  0  0  0  0  0  0  0
   27.5659   34.0902   22.6837 N   0  0  0  0  0  0  0  0  0  0  0  0
   27.2326   35.8095   24.3211 C   0  0  0  0  0  0  0  0  0  0  0  0
   27.0908   37.1548   24.6464 C   0  0  1  0  0  0  0  0  0  0  0  0
   26.8847   37.5507   26.0825 C   0  0  0  0  0  0  0  0  0  0  0  0
   27.1552   38.1219   23.6368 C   0  0  1  0  0  0  0  0  0  0  0  0
   27.0210   39.5818   23.9579 C   0  0  0  0  0  0  0  0  0  0  0  0
   27.3573   37.7361   22.3149 C   0  0  0  0  0  0  0  0  0  0  0  0
   27.4967   36.3901   21.9848 C   0  0  2  0  0  0  0  0  0  0  0  0
   27.8326   34.6639   20.3570 C   0  0  2  0  0  0  0  0  0  0  0  0
   27.6888   36.0034   20.6638 N   0  0  0  0  0  0  0  0  0  0  0  0
  1  2  1  6  0  0  0
  1  3  1  0  0  0  0
  1  4  2  0  0  0  0
  1  6  1  0  0  0  0
  5  6  1  0  0  0  0
  7  5  1  6  0  0  0
  7  8  1  0  0  0  0
  7  9  1  0  0  0  0
  9 10  1  1  0  0  0
  9 11  1  0  0  0  0
 11 12  1  6  0  0  0
 11 13  1  0  0  0  0
 13 31  1  0  0  0  0
 14 15  1  0  0  0  0
 15 16  2  0  0  0  0
 15 17  1  0  0  0  0
 17 18  1  0  0  0  0
 18 20  2  0  0  0  0
 19 18  1  1  0  0  0
 19 22  1  0  0  0  0
 19 30  1  0  0  0  0
 21 23  1  6  0  0  0
 21 29  1  0  0  0  0
 21 22  1  0  0  0  0
 23 24  1  0  0  0  0
 24 25  1  1  0  0  0
 24 26  1  0  0  0  0
 26 27  1  1  0  0  0
 26 28  1  0  0  0  0
 29 28  1  6  0  0  0
 29 31  1  0  0  0  0
 30 14  1  6  0  0  0
 30 31  1  0  0  0  0
M  CHG  1   3  -1
M  END
>  <CHROM.1>
-179.89505679,50.82072450,128.20599951,-52.54806910,-60.45386455,106.39787346
77.55751605,28.38728701,37.01562447,19.78307641,0.86446442,1.28106774,-0.07167105

>  <Name>
ligand

>  <RI>
0

>  <Rbt.Current_Directory>
/home/itssahil/PROJECTS/Mol_Feturizer/New_Systems/rnas/3F2Q

>  <Rbt.Executable>
rbdock ($Id: //depot/dev/client3/rdock/2013.1/src/exe/rbdock.cxx#4 $)

>  <Rbt.Library>
libRbt.so (2013.1, Build901 2013/11/27)

>  <Rbt.Parameter_File>
/export/apps/rDock/src/rDock_2013.1_src/data/scripts/dock_solv.prm

>  <Rbt.Receptor>
prm/pocket_docking_5.prm

>  <SCORE>
-31.2907

>  <SCORE.INTER>
-30.1724

>  <SCORE.INTER.CONST>
1

>  <SCORE.INTER.POLAR>
0

>  <SCORE.INTER.ROT>
7

>  <SCORE.INTER.SOLV>
19.1854

>  <SCORE.INTER.VDW>
-34.7767

>  <SCORE.INTER.norm>
-0.973304

>  <SCORE.INTRA>
-1.11824

>  <SCORE.INTRA.DIHEDRAL>
1.0931

>  <SCORE.INTRA.DIHEDRAL.0>
10.0718

>  <SCORE.INTRA.POLAR>
0

>  <SCORE.INTRA.POLAR.0>
0

>  <SCORE.INTRA.REPUL>
0

>  <SCORE.INTRA.REPUL.0>
0

>  <SCORE.INTRA.SOLV>
-0.840376

>  <SCORE.INTRA.SOLV.lig_0>
-48.6963

>  <SCORE.INTRA.VDW>
-1.2446

>  <SCORE.INTRA.VDW.0>
-0.836976

>  <SCORE.INTRA.norm>
-0.0360722

>  <SCORE.RESTR>
0

>  <SCORE.RESTR.CAVITY>
0

>  <SCORE.RESTR.norm>
0

>  <SCORE.SYSTEM>
0

>  <SCORE.SYSTEM.CONST>
0

>  <SCORE.SYSTEM.DIHEDRAL>
0

>  <SCORE.SYSTEM.SOLV>
0

>  <SCORE.SYSTEM.norm>
0

>  <SCORE.heavy>
31

>  <SCORE.norm>
-1.00938

>  <RMSD>
2.448

$$$$
ligand
 OpenBabel11021811473D
libRbt.so/2013.1/901 2013/11/27
 31 33  0  0  0  0  0  0  0  0999 V2000
   25.7126   41.8085   18.9678 P   0  0  1  0  0  0  0  0  0  0  0  0
   25.0414   42.9629   18.2548 O   0  0  0  0  0  0  0  0  0  0  0  0
   26.1942   42.3066   20.3038 O   0  5  0  0  0  0  0  0  0  0  0  0
   24.7340   40.6850   19.1726 O   0  0  0  0  0  0  0  0  0  0  0  0
   27.7183   40.2022   18.5454 C   0  0  0  0  0  0  0  0  0  0  0  0
   26.8983   41.2359   18.0573 O   0  0  0  0  0  0  0  0  0  0  0  0
   28.6643   39.7534   17.4413 C   0  0  1  0  0  0  0  0  0  0  0  0
   29.5938   40.7874   17.1958 O   0  0  0  0  0  0  0  0  0  0  0  0
   29.3887   38.4713   17.8516 C   0  0  1  0  0  0  0  0  0  0  0  0
   29.8157   38.5766   19.1929 O   0  0  0  0  0  0  0  0  0  0  0  0
   28.5626   37.1966   17.6302 C   0  0  1  0  0  0  0  0  0  0  0  0
   29.2085   36.0957   18.2299 O   0  0  0  0  0  0  0  0  0  0  0  0
   27.1524   37.3109   18.1868 C   0  0  0  0  0  0  0  0  0  0  0  0
   26.4382   34.8650   16.9655 N   0  0  0  0  0  0  0  0  0  0  0  0
   26.1448   33.6810   16.3202 C   0  0  0  0  0  0  0  0  0  0  0  0
   26.0470   33.6536   15.0902 O   0  0  0  0  0  0  0  0  0  0  0  0
   25.9521   32.5312   17.0590 N   0  0  0  0  0  0  0  0  0  0  0  0
   26.0518   32.5615   18.4373 C   0  0  0  0  0  0  0  0  0  0  0  0
   26.3467   33.7426   19.0858 C   0  0  1  0  0  0  0  0  0  0  0  0
   25.8914   31.5425   19.1069 O   0  0  0  0  0  0  0  0  0  0  0  0
   26.7459   34.9319   21.1158 C   0  0  2  0  0  0  0  0  0  0  0  0
   26.4471   33.7533   20.4635 N   0  0  0  0  0  0  0  0  0  0  0  0
   26.8456   34.9457   22.5049 C   0  0  0  0  0  0  0  0  0  0  0  0
   27.1391   36.1305   23.1727 C   0  0  1  0  0  0  0  0  0  0  0  0
   27.2536   36.1255   24.6721 C   0  0  0  0  0  0  0  0  0  0  0  0
   27.3368   37.3070   22.4410 C   0  0  1  0  0  0  0  0  0  0  0  0
   27.6694   38.5975   23.1314 C   0  0  0  0  0  0  0  0  0  0  0  0
   27.2369   37.2890   21.0530 C   0  0  0  0  0  0  0  0  0  0  0  0
   26.9404   36.1055   20.3810 C   0  0  2  0  0  0  0  0  0  0  0  0
   26.5436   34.9032   18.3463 C   0  0  2  0  0  0  0  0  0  0  0  0
   26.8309   36.0885   18.9957 N   0  0  0  0  0  0  0  0  0  0  0  0
  1  2  1  6  0  0  0
  1  3  1  0  0  0  0
  1  4  2  0  0  0  0
  1  6  1  0  0  0  0
  5  6  1  0  0  0  0
  7  5  1  1  0  0  0
  7  8  1  0  0  0  0
  7  9  1  0  0  0  0
  9 10  1  1  0  0  0
  9 11  1  0  0  0  0
 11 12  1  1  0  0  0
 11 13  1  0  0  0  0
 13 31  1  0  0  0  0
 14 15  1  0  0  0  0
 15 16  2  0  0  0  0
 15 17  1  0  0  0  0
 17 18  1  0  0  0  0
 18 20  2  0  0  0  0
 19 18  1  6  0  0  0
 19 22  1  0  0  0  0
 19 30  1  0  0  0  0
 21 23  1  1  0  0  0
 21 29  1  0  0  0  0
 21 22  1  0  0  0  0
 23 24  1  0  0  0  0
 24 25  1  6  0  0  0
 24 26  1  0  0  0  0
 26 27  1  6  0  0  0
 26 28  1  0  0  0  0
 29 28  1  1  0  0  0
 29 31  1  0  0  0  0
 30 14  1  1  0  0  0
 30 31  1  0  0  0  0
M  CHG  1   3  -1
M  END
>  <CHROM.1>
174.38288988,176.47163780,69.10671033,-43.56638125,-170.48023152,-132.28655067
98.64825601,27.00311787,37.29537979,19.20609779,0.10829799,-1.53083882,-1.43632825

>  <Name>
ligand

>  <RI>
0

>  <Rbt.Current_Directory>
/home/itssahil/PROJECTS/Mol_Feturizer/New_Systems/rnas/3F2Q

>  <Rbt.Executable>
rbdock ($Id: //depot/dev/client3/rdock/2013.1/src/exe/rbdock.cxx#4 $)

>  <Rbt.Library>
libRbt.so (2013.1, Build901 2013/11/27)

>  <Rbt.Parameter_File>
/export/apps/rDock/src/rDock_2013.1_src/data/scripts/dock_solv.prm

>  <Rbt.Receptor>
prm/blind_docking_100.prm

>  <SCORE>
-16.6698

>  <SCORE.INTER>
-15.6673

>  <SCORE.INTER.CONST>
1

>  <SCORE.INTER.POLAR>
0

>  <SCORE.INTER.ROT>
7

>  <SCORE.INTER.SOLV>
14.0252

>  <SCORE.INTER.VDW>
-23.3866

>  <SCORE.INTER.norm>
-0.505398

>  <SCORE.INTRA>
-1.00249

>  <SCORE.INTRA.DIHEDRAL>
-2.47251

>  <SCORE.INTRA.DIHEDRAL.0>
10.0718

>  <SCORE.INTRA.POLAR>
0

>  <SCORE.INTRA.POLAR.0>
0

>  <SCORE.INTRA.REPUL>
0

>  <SCORE.INTRA.REPUL.0>
0

>  <SCORE.INTRA.SOLV>
-0.548517

>  <SCORE.INTRA.SOLV.lig_0>
-48.6963

>  <SCORE.INTRA.VDW>
0.508024

>  <SCORE.INTRA.VDW.0>
-0.836976

>  <SCORE.INTRA.norm>
-0.0323384

>  <SCORE.RESTR>
0

>  <SCORE.RESTR.CAVITY>
0

>  <SCORE.RESTR.norm>
0

>  <SCORE.SYSTEM>
0

>  <SCORE.SYSTEM.CONST>
0

>  <SCORE.SYSTEM.DIHEDRAL>
0

>  <SCORE.SYSTEM.SOLV>
0

>  <SCORE.SYSTEM.norm>
0

>  <SCORE.heavy>
31

>  <SCORE.norm>
-0.537736

>  <RMSD>
2.509

$$$$
ligand
 OpenBabel11021811473D
libRbt.so/2013.1/901 2013/11/27
 31 33  0  0  0  0  0  0  0  0999 V2000
   24.4231   43.9288   15.3800 P   0  0  1  0  0  0  0  0  0  0  0  0
   25.5980   43.7888   14.4358 O   0  0  0  0  0  0  0  0  0  0  0  0
   24.4095   45.3428   15.8954 O   0  5  0  0  0  0  0  0  0  0  0  0
   23.1368   43.6453   14.6542 O   0  0  0  0  0  0  0  0  0  0  0  0
   24.4870   43.2571   17.8953 C   0  0  0  0  0  0  0  0  0  0  0  0
   24.5479   42.8450   16.5515 O   0  0  0  0  0  0  0  0  0  0  0  0
   24.4979   42.0293   18.7939 C   0  0  1  0  0  0  0  0  0  0  0  0
   23.5360   41.1126   18.3167 O   0  0  0  0  0  0  0  0  0  0  0  0
   25.8864   41.3898   18.8019 C   0  0  1  0  0  0  0  0  0  0  0  0
   26.8419   42.3365   19.2299 O   0  0  0  0  0  0  0  0  0  0  0  0
   25.9692   40.1022   19.6335 C   0  0  1  0  0  0  0  0  0  0  0  0
   25.2689   39.0649   18.9835 O   0  0  0  0  0  0  0  0  0  0  0  0
   27.4021   39.6578   19.8804 C   0  0  0  0  0  0  0  0  0  0  0  0
   27.5048   37.3899   18.1984 N   0  0  0  0  0  0  0  0  0  0  0  0
   27.6075   36.3168   17.3367 C   0  0  0  0  0  0  0  0  0  0  0  0
   27.5915   36.4987   16.1161 O   0  0  0  0  0  0  0  0  0  0  0  0
   27.7183   35.0396   17.8482 N   0  0  0  0  0  0  0  0  0  0  0  0
   27.7268   34.8327   19.2148 C   0  0  0  0  0  0  0  0  0  0  0  0
   27.6263   35.9028   20.0792 C   0  0  1  0  0  0  0  0  0  0  0  0
   27.8341   33.7009   19.6838 O   0  0  0  0  0  0  0  0  0  0  0  0
   27.5449   36.7459   22.3102 C   0  0  2  0  0  0  0  0  0  0  0  0
   27.6413   35.6777   21.4421 N   0  0  0  0  0  0  0  0  0  0  0  0
   27.5578   36.5213   23.6847 C   0  0  0  0  0  0  0  0  0  0  0  0
   27.4536   37.5909   24.5684 C   0  0  1  0  0  0  0  0  0  0  0  0
   27.4799   37.3317   26.0495 C   0  0  0  0  0  0  0  0  0  0  0  0
   27.3393   38.8932   24.0690 C   0  0  1  0  0  0  0  0  0  0  0  0
   27.2404   40.0689   24.9967 C   0  0  0  0  0  0  0  0  0  0  0  0
   27.3275   39.1135   22.6948 C   0  0  0  0  0  0  0  0  0  0  0  0
   27.4286   38.0451   21.8068 C   0  0  2  0  0  0  0  0  0  0  0  0
   27.5164   37.1914   19.5694 C   0  0  2  0  0  0  0  0  0  0  0  0
   27.4072   38.2633   20.4345 N   0  0  0  0  0  0  0  0  0  0  0  0
  1  2  1  6  0  0  0
  1  3  1  0  0  0  0
  1  4  2  0  0  0  0
  1  6  1  0  0  0  0
  5  6  1  0  0  0  0
  7  5  1  6  0  0  0
  7  8  1  0  0  0  0
  7  9  1  0  0  0  0
  9 10  1  1  0  0  0
  9 11  1  0  0  0  0
 11 12  1  6  0  0  0
 11 13  1  0  0  0  0
 13 31  1  0  0  0  0
 14 15  1  0  0  0  0
 15 16  2  0  0  0  0
 15 17  1  0  0  0  0
 17 18  1  0  0  0  0
 18 20  2  0  0  0  0
 19 18  1  1  0  0  0
 19 22  1  0  0  0  0
 19 30  1  0  0  0  0
 21 23  1  6  0  0  0
 21 29  1  0  0  0  0
 21 22  1  0  0  0  0
 23 24  1  0  0  0  0
 24 25  1  1  0  0  0
 24 26  1  0  0  0  0
 26 27  1  1  0  0  0
 26 28  1  0  0  0  0
 29 28  1  1  0  0  0
 29 31  1  0  0  0  0
 30 14  1  6  0  0  0
 30 31  1  0  0  0  0
M  CHG  1   3  -1
M  END
>  <CHROM.1>
174.70854618,126.86113022,-48.93953733,57.55784675,70.81684335,-168.04396953
-93.52409017,26.34542906,39.47651709,19.31443310,2.75375640,1.21593463,-1.88615395

>  <Name>
ligand

>  <RI>
0

>  <Rbt.Current_Directory>
/home/itssahil/PROJECTS/Mol_Feturizer/New_Systems/rnas/3F2Q

>  <Rbt.Executable>
rbdock ($Id: //depot/dev/client3/rdock/2013.1/src/exe/rbdock.cxx#4 $)

>  <Rbt.Library>
libRbt.so (2013.1, Build901 2013/11/27)

>  <Rbt.Parameter_File>
/export/apps/rDock/src/rDock_2013.1_src/data/scripts/dock_solv.prm

>  <Rbt.Receptor>
prm/pocket_docking_6.prm

>  <SCORE>
-21.7956

>  <SCORE.INTER>
-18.3453

>  <SCORE.INTER.CONST>
1

>  <SCORE.INTER.POLAR>
0

>  <SCORE.INTER.ROT>
7

>  <SCORE.INTER.SOLV>
22.5724

>  <SCORE.INTER.VDW>
-28.021

>  <SCORE.INTER.norm>
-0.591784

>  <SCORE.INTRA>
-3.45032

>  <SCORE.INTRA.DIHEDRAL>
-4.75579

>  <SCORE.INTRA.DIHEDRAL.0>
10.0718

>  <SCORE.INTRA.POLAR>
0

>  <SCORE.INTRA.POLAR.0>
0

>  <SCORE.INTRA.REPUL>
0

>  <SCORE.INTRA.REPUL.0>
0

>  <SCORE.INTRA.SOLV>
-0.660442

>  <SCORE.INTRA.SOLV.lig_0>
-48.6963

>  <SCORE.INTRA.VDW>
-0.742208

>  <SCORE.INTRA.VDW.0>
-0.836976

>  <SCORE.INTRA.norm>
-0.111301

>  <SCORE.RESTR>
0

>  <SCORE.RESTR.CAVITY>
0

>  <SCORE.RESTR.norm>
0

>  <SCORE.SYSTEM>
0

>  <SCORE.SYSTEM.CONST>
0

>  <SCORE.SYSTEM.DIHEDRAL>
0

>  <SCORE.SYSTEM.SOLV>
0

>  <SCORE.SYSTEM.norm>
0

>  <SCORE.heavy>
31

>  <SCORE.norm>
-0.703085

>  <RMSD>
2.560

$$$$
ligand
 OpenBabel11021811473D
libRbt.so/2013.1/901 2013/11/27
 31 33  0  0  0  0  0  0  0  0999 V2000
   28.3352   42.0602   22.3321 P   0  0  1  0  0  0  0  0  0  0  0  0
   29.6229   41.2674   22.4021 O   0  0  0  0  0  0  0  0  0  0  0  0
   27.8395   42.2630   23.7386 O   0  5  0  0  0  0  0  0  0  0  0  0
   28.5822   43.3965   21.6879 O   0  0  0  0  0  0  0  0  0  0  0  0
   27.4247   41.3070   20.0115 C   0  0  0  0  0  0  0  0  0  0  0  0
   27.2806   41.2846   21.4108 O   0  0  0  0  0  0  0  0  0  0  0  0
   27.9948   39.9746   19.5479 C   0  0  1  0  0  0  0  0  0  0  0  0
   29.1359   39.6776   20.3245 O   0  0  0  0  0  0  0  0  0  0  0  0
   26.9482   38.8700   19.6935 C   0  0  1  0  0  0  0  0  0  0  0  0
   25.7286   39.2944   19.1234 O   0  0  0  0  0  0  0  0  0  0  0  0
   27.3909   37.5187   19.1154 C   0  0  1  0  0  0  0  0  0  0  0  0
   27.7773   37.6763   17.7683 O   0  0  0  0  0  0  0  0  0  0  0  0
   28.5401   36.8988   19.8942 C   0  0  0  0  0  0  0  0  0  0  0  0
   28.5133   34.1470   19.2539 N   0  0  0  0  0  0  0  0  0  0  0  0
   28.5696   32.8105   18.9146 C   0  0  0  0  0  0  0  0  0  0  0  0
   28.9624   32.4717   17.7947 O   0  0  0  0  0  0  0  0  0  0  0  0
   28.1751   31.8569   19.8312 N   0  0  0  0  0  0  0  0  0  0  0  0
   27.7258   32.2346   21.0826 C   0  0  0  0  0  0  0  0  0  0  0  0
   27.6699   33.5693   21.4262 C   0  0  1  0  0  0  0  0  0  0  0  0
   27.3798   31.3949   21.9119 O   0  0  0  0  0  0  0  0  0  0  0  0
   27.1691   35.2621   23.0319 C   0  0  2  0  0  0  0  0  0  0  0  0
   27.2227   33.9281   22.6829 N   0  0  0  0  0  0  0  0  0  0  0  0
   26.7167   35.6265   24.2977 C   0  0  0  0  0  0  0  0  0  0  0  0
   26.6516   36.9691   24.6567 C   0  0  1  0  0  0  0  0  0  0  0  0
   26.1709   37.3446   26.0313 C   0  0  0  0  0  0  0  0  0  0  0  0
   27.0463   37.9507   23.7406 C   0  0  1  0  0  0  0  0  0  0  0  0
   27.0019   39.4064   24.1035 C   0  0  0  0  0  0  0  0  0  0  0  0
   27.4984   37.5824   22.4770 C   0  0  0  0  0  0  0  0  0  0  0  0
   27.5622   36.2395   22.1127 C   0  0  2  0  0  0  0  0  0  0  0  0
   28.0679   34.5337   20.5074 C   0  0  2  0  0  0  0  0  0  0  0  0
   28.0044   35.8713   20.8477 N   0  0  0  0  0  0  0  0  0  0  0  0
  1  2  1  1  0  0  0
  1  3  1  0  0  0  0
  1  4  2  0  0  0  0
  1  6  1  0  0  0  0
  5  6  1  0  0  0  0
  7  5  1  1  0  0  0
  7  8  1  0  0  0  0
  7  9  1  0  0  0  0
  9 10  1  6  0  0  0
  9 11  1  0  0  0  0
 11 12  1  6  0  0  0
 11 13  1  0  0  0  0
 13 31  1  0  0  0  0
 14 15  1  0  0  0  0
 15 16  2  0  0  0  0
 15 17  1  0  0  0  0
 17 18  1  0  0  0  0
 18 20  2  0  0  0  0
 19 18  1  1  0  0  0
 19 22  1  0  0  0  0
 19 30  1  0  0  0  0
 21 23  1  6  0  0  0
 21 29  1  0  0  0  0
 21 22  1  0  0  0  0
 23 24  1  0  0  0  0
 24 25  1  1  0  0  0
 24 26  1  0  0  0  0
 26 27  1  1  0  0  0
 26 28  1  0  0  0  0
 29 28  1  6  0  0  0
 29 31  1  0  0  0  0
 30 14  1  6  0  0  0
 30 31  1  0  0  0  0
M  CHG  1   3  -1
M  END
>  <CHROM.1>
103.39998209,-75.95572939,-50.27096189,48.91132619,-54.77551086,98.72318932
-86.24026213,27.74464613,37.44803181,21.34809675,1.54819829,1.37085546,0.20616990

>  <Name>
ligand

>  <RI>
0

>  <Rbt.Current_Directory>
/home/itssahil/PROJECTS/Mol_Feturizer/New_Systems/rnas/3F2Q

>  <Rbt.Executable>
rbdock ($Id: //depot/dev/client3/rdock/2013.1/src/exe/rbdock.cxx#4 $)

>  <Rbt.Library>
libRbt.so (2013.1, Build901 2013/11/27)

>  <Rbt.Parameter_File>
/export/apps/rDock/src/rDock_2013.1_src/data/scripts/dock_solv.prm

>  <Rbt.Receptor>
prm/pocket_docking_5.prm

>  <SCORE>
-33.4223

>  <SCORE.INTER>
-33.4487

>  <SCORE.INTER.CONST>
1

>  <SCORE.INTER.POLAR>
0

>  <SCORE.INTER.ROT>
7

>  <SCORE.INTER.SOLV>
18.5139

>  <SCORE.INTER.VDW>
-36.7371

>  <SCORE.INTER.norm>
-1.07899

>  <SCORE.INTRA>
0.026462

>  <SCORE.INTRA.DIHEDRAL>
2.38483

>  <SCORE.INTRA.DIHEDRAL.0>
10.0718

>  <SCORE.INTRA.POLAR>
0

>  <SCORE.INTRA.POLAR.0>
0

>  <SCORE.INTRA.REPUL>
0

>  <SCORE.INTRA.REPUL.0>
0

>  <SCORE.INTRA.SOLV>
1.55557

>  <SCORE.INTRA.SOLV.lig_0>
-48.6963

>  <SCORE.INTRA.VDW>
-1.94374

>  <SCORE.INTRA.VDW.0>
-0.836976

>  <SCORE.INTRA.norm>
0.000853613

>  <SCORE.RESTR>
0

>  <SCORE.RESTR.CAVITY>
0

>  <SCORE.RESTR.norm>
0

>  <SCORE.SYSTEM>
0

>  <SCORE.SYSTEM.CONST>
0

>  <SCORE.SYSTEM.DIHEDRAL>
0

>  <SCORE.SYSTEM.SOLV>
0

>  <SCORE.SYSTEM.norm>
0

>  <SCORE.heavy>
31

>  <SCORE.norm>
-1.07814

>  <RMSD>
2.775

$$$$
ligand
 OpenBabel11021811473D
libRbt.so/2013.1/901 2013/11/27
 31 33  0  0  0  0  0  0  0  0999 V2000
   25.1699   43.7042   16.6136 P   0  0  1  0  0  0  0  0  0  0  0  0
   25.3069   45.1712   16.2664 O   0  0  0  0  0  0  0  0  0  0  0  0
   24.4742   43.6065   17.9447 O   0  5  0  0  0  0  0  0  0  0  0  0
   24.3546   42.9965   15.5666 O   0  0  0  0  0  0  0  0  0  0  0  0
   26.7594   41.6885   17.0518 C   0  0  0  0  0  0  0  0  0  0  0  0
   26.6172   43.0201   16.6209 O   0  0  0  0  0  0  0  0  0  0  0  0
   28.2375   41.3276   17.0751 C   0  0  1  0  0  0  0  0  0  0  0  0
   28.8998   42.1968   17.9691 O   0  0  0  0  0  0  0  0  0  0  0  0
   28.4220   39.8737   17.5096 C   0  0  1  0  0  0  0  0  0  0  0  0
   29.7702   39.4940   17.3346 O   0  0  0  0  0  0  0  0  0  0  0  0
   27.9470   39.5914   18.9417 C   0  0  1  0  0  0  0  0  0  0  0  0
   26.5737   39.2706   18.9376 O   0  0  0  0  0  0  0  0  0  0  0  0
   28.7209   38.4611   19.6014 C   0  0  0  0  0  0  0  0  0  0  0  0
   28.0474   35.8562   20.4639 N   0  0  0  0  0  0  0  0  0  0  0  0
   27.7825   34.5596   20.8553 C   0  0  0  0  0  0  0  0  0  0  0  0
   27.9064   33.6320   20.0508 O   0  0  0  0  0  0  0  0  0  0  0  0
   27.3691   34.3085   22.1481 N   0  0  0  0  0  0  0  0  0  0  0  0
   27.2204   35.3469   23.0482 C   0  0  0  0  0  0  0  0  0  0  0  0
   27.4860   36.6439   22.6612 C   0  0  1  0  0  0  0  0  0  0  0  0
   26.8615   35.1361   24.2054 O   0  0  0  0  0  0  0  0  0  0  0  0
   27.6052   38.9671   23.1934 C   0  0  2  0  0  0  0  0  0  0  0  0
   27.3366   37.6686   23.5754 N   0  0  0  0  0  0  0  0  0  0  0  0
   27.4533   40.0022   24.1128 C   0  0  0  0  0  0  0  0  0  0  0  0
   27.7143   41.3158   23.7355 C   0  0  1  0  0  0  0  0  0  0  0  0
   27.5556   42.4203   24.7436 C   0  0  0  0  0  0  0  0  0  0  0  0
   28.1335   41.5906   22.4288 C   0  0  1  0  0  0  0  0  0  0  0  0
   28.4372   42.9952   21.9959 C   0  0  0  0  0  0  0  0  0  0  0  0
   28.2846   40.5533   21.5133 C   0  0  0  0  0  0  0  0  0  0  0  0
   28.0215   39.2374   21.8863 C   0  0  2  0  0  0  0  0  0  0  0  0
   27.9045   36.9022   21.3609 C   0  0  2  0  0  0  0  0  0  0  0  0
   28.1629   38.2020   20.9701 N   0  0  0  0  0  0  0  0  0  0  0  0
  1  2  1  6  0  0  0
  1  3  1  0  0  0  0
  1  4  2  0  0  0  0
  1  6  1  0  0  0  0
  5  6  1  0  0  0  0
  7  5  1  1  0  0  0
  7  8  1  0  0  0  0
  7  9  1  0  0  0  0
  9 10  1  1  0  0  0
  9 11  1  0  0  0  0
 11 12  1  6  0  0  0
 11 13  1  0  0  0  0
 13 31  1  0  0  0  0
 14 15  1  0  0  0  0
 15 16  2  0  0  0  0
 15 17  1  0  0  0  0
 17 18  1  0  0  0  0
 18 20  2  0  0  0  0
 19 18  1  1  0  0  0
 19 22  1  0  0  0  0
 19 30  1  0  0  0  0
 21 23  1  6  0  0  0
 21 29  1  0  0  0  0
 21 22  1  0  0  0  0
 23 24  1  0  0  0  0
 24 25  1  1  0  0  0
 24 26  1  0  0  0  0
 26 27  1  1  0  0  0
 26 28  1  0  0  0  0
 29 28  1  6  0  0  0
 29 31  1  0  0  0  0
 30 14  1  6  0  0  0
 30 31  1  0  0  0  0
M  CHG  1   3  -1
M  END
>  <CHROM.1>
-175.10960712,173.47058047,60.12882006,171.25646483,87.39502070,-177.48223951
-52.74334344,27.30654094,39.79168246,20.04824389,-3.13367558,-1.38776820
0.91849658

>  <Name>
ligand

>  <RI>
0

>  <Rbt.Current_Directory>
/home/itssahil/PROJECTS/Mol_Feturizer/New_Systems/rnas/3F2Q

>  <Rbt.Executable>
rbdock ($Id: //depot/dev/client3/rdock/2013.1/src/exe/rbdock.cxx#4 $)

>  <Rbt.Library>
libRbt.so (2013.1, Build901 2013/11/27)

>  <Rbt.Parameter_File>
/export/apps/rDock/src/rDock_2013.1_src/data/scripts/dock_solv.prm

>  <Rbt.Receptor>
prm/blind_docking_80.prm

>  <SCORE>
-28.7039

>  <SCORE.INTER>
-25.6695

>  <SCORE.INTER.CONST>
1

>  <SCORE.INTER.POLAR>
0

>  <SCORE.INTER.ROT>
7

>  <SCORE.INTER.SOLV>
16.7428

>  <SCORE.INTER.VDW>
-30.9606

>  <SCORE.INTER.norm>
-0.828048

>  <SCORE.INTRA>
-3.0344

>  <SCORE.INTRA.DIHEDRAL>
-6.10948

>  <SCORE.INTRA.DIHEDRAL.0>
10.0718

>  <SCORE.INTRA.POLAR>
0

>  <SCORE.INTRA.POLAR.0>
0

>  <SCORE.INTRA.REPUL>
0

>  <SCORE.INTRA.REPUL.0>
0

>  <SCORE.INTRA.SOLV>
-0.702697

>  <SCORE.INTRA.SOLV.lig_0>
-48.6963

>  <SCORE.INTRA.VDW>
0.371688

>  <SCORE.INTRA.VDW.0>
-0.836976

>  <SCORE.INTRA.norm>
-0.0978838

>  <SCORE.RESTR>
0

>  <SCORE.RESTR.CAVITY>
0

>  <SCORE.RESTR.norm>
0

>  <SCORE.SYSTEM>
0

>  <SCORE.SYSTEM.CONST>
0

>  <SCORE.SYSTEM.DIHEDRAL>
0

>  <SCORE.SYSTEM.SOLV>
0

>  <SCORE.SYSTEM.norm>
0

>  <SCORE.heavy>
31

>  <SCORE.norm>
-0.925932

>  <RMSD>
2.965

$$$$
ligand
 OpenBabel11021811473D
libRbt.so/2013.1/901 2013/11/27
 31 33  0  0  0  0  0  0  0  0999 V2000
   25.6805   43.2029   16.9791 P   0  0  1  0  0  0  0  0  0  0  0  0
   24.8507   43.3590   18.2355 O   0  0  0  0  0  0  0  0  0  0  0  0
   24.7387   42.9719   15.8281 O   0  5  0  0  0  0  0  0  0  0  0  0
   26.4842   44.4493   16.7293 O   0  0  0  0  0  0  0  0  0  0  0  0
   26.3126   40.8139   17.8004 C   0  0  0  0  0  0  0  0  0  0  0  0
   26.7240   42.0047   17.1742 O   0  0  0  0  0  0  0  0  0  0  0  0
   27.4991   39.8660   17.8964 C   0  0  1  0  0  0  0  0  0  0  0  0
   28.5366   40.5123   18.6029 O   0  0  0  0  0  0  0  0  0  0  0  0
   27.0917   38.5762   18.6086 C   0  0  1  0  0  0  0  0  0  0  0  0
   26.1292   37.8916   17.8357 O   0  0  0  0  0  0  0  0  0  0  0  0
   28.2749   37.6629   18.9583 C   0  0  1  0  0  0  0  0  0  0  0  0
   29.1517   37.5705   17.8576 O   0  0  0  0  0  0  0  0  0  0  0  0
   29.0491   38.1498   20.1729 C   0  0  0  0  0  0  0  0  0  0  0  0
   28.1142   35.6557   21.1157 N   0  0  0  0  0  0  0  0  0  0  0  0
   27.7260   34.4098   21.5645 C   0  0  0  0  0  0  0  0  0  0  0  0
   28.0003   33.4015   20.9078 O   0  0  0  0  0  0  0  0  0  0  0  0
   27.0212   34.2996   22.7462 N   0  0  0  0  0  0  0  0  0  0  0  0
   26.7045   35.4283   23.4785 C   0  0  0  0  0  0  0  0  0  0  0  0
   27.0925   36.6751   23.0342 C   0  0  1  0  0  0  0  0  0  0  0  0
   26.0850   35.3436   24.5375 O   0  0  0  0  0  0  0  0  0  0  0  0
   27.1612   39.0405   23.3424 C   0  0  2  0  0  0  0  0  0  0  0  0
   26.7714   37.7918   23.7814 N   0  0  0  0  0  0  0  0  0  0  0  0
   26.8369   40.1680   24.0930 C   0  0  0  0  0  0  0  0  0  0  0  0
   27.2187   41.4324   23.6552 C   0  0  1  0  0  0  0  0  0  0  0  0
   26.8697   42.6382   24.4832 C   0  0  0  0  0  0  0  0  0  0  0  0
   27.9330   41.5645   22.4590 C   0  0  1  0  0  0  0  0  0  0  0  0
   28.3719   42.9132   21.9681 C   0  0  0  0  0  0  0  0  0  0  0  0
   28.2556   40.4353   21.7122 C   0  0  0  0  0  0  0  0  0  0  0  0
   27.8726   39.1682   22.1456 C   0  0  2  0  0  0  0  0  0  0  0  0
   27.8042   36.7916   21.8457 C   0  0  2  0  0  0  0  0  0  0  0  0
   28.1860   38.0409   21.3956 N   0  0  0  0  0  0  0  0  0  0  0  0
  1  2  1  1  0  0  0
  1  3  1  0  0  0  0
  1  4  2  0  0  0  0
  1  6  1  0  0  0  0
  5  6  1  0  0  0  0
  7  5  1  1  0  0  0
  7  8  1  0  0  0  0
  7  9  1  0  0  0  0
  9 10  1  6  0  0  0
  9 11  1  0  0  0  0
 11 12  1  6  0  0  0
 11 13  1  0  0  0  0
 13 31  1  0  0  0  0
 14 15  1  0  0  0  0
 15 16  2  0  0  0  0
 15 17  1  0  0  0  0
 17 18  1  0  0  0  0
 18 20  2  0  0  0  0
 19 18  1  1  0  0  0
 19 22  1  0  0  0  0
 19 30  1  0  0  0  0
 21 23  1  6  0  0  0
 21 29  1  0  0  0  0
 21 22  1  0  0  0  0
 23 24  1  0  0  0  0
 24 25  1  1  0  0  0
 24 26  1  0  0  0  0
 26 27  1  1  0  0  0
 26 28  1  0  0  0  0
 29 28  1  6  0  0  0
 29 31  1  0  0  0  0
 30 14  1  6  0  0  0
 30 31  1  0  0  0  0
M  CHG  1   3  -1
M  END
>  <CHROM.1>
-178.25128547,41.97277863,57.26635491,64.46976881,-44.75937510,66.77943877
-119.99658411,27.15396694,39.32998102,20.38845669,-2.84763794,-1.41942176
1.23109436

>  <Name>
ligand

>  <RI>
0

>  <Rbt.Current_Directory>
/home/itssahil/PROJECTS/Mol_Feturizer/New_Systems/rnas/3F2Q

>  <Rbt.Executable>
rbdock ($Id: //depot/dev/client3/rdock/2013.1/src/exe/rbdock.cxx#4 $)

>  <Rbt.Library>
libRbt.so (2013.1, Build901 2013/11/27)

>  <Rbt.Parameter_File>
/export/apps/rDock/src/rDock_2013.1_src/data/scripts/dock_solv.prm

>  <Rbt.Receptor>
prm/pocket_docking_4.prm

>  <SCORE>
-30.589

>  <SCORE.INTER>
-24.763

>  <SCORE.INTER.CONST>
1

>  <SCORE.INTER.POLAR>
0

>  <SCORE.INTER.ROT>
7

>  <SCORE.INTER.SOLV>
18.2911

>  <SCORE.INTER.VDW>
-30.8723

>  <SCORE.INTER.norm>
-0.798805

>  <SCORE.INTRA>
-5.82602

>  <SCORE.INTRA.DIHEDRAL>
-7.15228

>  <SCORE.INTRA.DIHEDRAL.0>
10.0718

>  <SCORE.INTRA.POLAR>
0

>  <SCORE.INTRA.POLAR.0>
0

>  <SCORE.INTRA.REPUL>
0

>  <SCORE.INTRA.REPUL.0>
0

>  <SCORE.INTRA.SOLV>
-1.33839

>  <SCORE.INTRA.SOLV.lig_0>
-48.6963

>  <SCORE.INTRA.VDW>
-1.58068

>  <SCORE.INTRA.VDW.0>
-0.836976

>  <SCORE.INTRA.norm>
-0.187936

>  <SCORE.RESTR>
0

>  <SCORE.RESTR.CAVITY>
0

>  <SCORE.RESTR.norm>
0

>  <SCORE.SYSTEM>
0

>  <SCORE.SYSTEM.CONST>
0

>  <SCORE.SYSTEM.DIHEDRAL>
0

>  <SCORE.SYSTEM.SOLV>
0

>  <SCORE.SYSTEM.norm>
0

>  <SCORE.heavy>
31

>  <SCORE.norm>
-0.986741

>  <RMSD>
3.010

$$$$
ligand
 OpenBabel11021811473D
libRbt.so/2013.1/901 2013/11/27
 31 33  0  0  0  0  0  0  0  0999 V2000
   25.7556   43.1121   16.3710 P   0  0  1  0  0  0  0  0  0  0  0  0
   25.7824   44.0778   17.5364 O   0  0  0  0  0  0  0  0  0  0  0  0
   24.3192   42.9117   15.9689 O   0  5  0  0  0  0  0  0  0  0  0  0
   26.5288   43.6764   15.2110 O   0  0  0  0  0  0  0  0  0  0  0  0
   27.7591   41.7810   17.3688 C   0  0  0  0  0  0  0  0  0  0  0  0
   26.4758   41.7463   16.7931 O   0  0  0  0  0  0  0  0  0  0  0  0
   28.2855   40.3592   17.4985 C   0  0  1  0  0  0  0  0  0  0  0  0
   29.6606   40.4144   17.8138 O   0  0  0  0  0  0  0  0  0  0  0  0
   27.5187   39.6065   18.5858 C   0  0  1  0  0  0  0  0  0  0  0  0
   26.1463   39.5680   18.2578 O   0  0  0  0  0  0  0  0  0  0  0  0
   28.0629   38.1984   18.8639 C   0  0  1  0  0  0  0  0  0  0  0  0
   28.7553   37.7192   17.7326 O   0  0  0  0  0  0  0  0  0  0  0  0
   28.9888   38.1578   20.0691 C   0  0  0  0  0  0  0  0  0  0  0  0
   28.0795   35.6659   21.0421 N   0  0  0  0  0  0  0  0  0  0  0  0
   27.7031   34.4207   21.5028 C   0  0  0  0  0  0  0  0  0  0  0  0
   27.9460   33.4128   20.8332 O   0  0  0  0  0  0  0  0  0  0  0  0
   27.0453   34.3108   22.7113 N   0  0  0  0  0  0  0  0  0  0  0  0
   26.7637   35.4391   23.4585 C   0  0  0  0  0  0  0  0  0  0  0  0
   27.1400   36.6852   23.0022 C   0  0  1  0  0  0  0  0  0  0  0  0
   26.1862   35.3546   24.5410 O   0  0  0  0  0  0  0  0  0  0  0  0
   27.2329   39.0493   23.3134 C   0  0  2  0  0  0  0  0  0  0  0  0
   26.8545   37.8013   23.7644 N   0  0  0  0  0  0  0  0  0  0  0  0
   26.9444   40.1764   24.0791 C   0  0  0  0  0  0  0  0  0  0  0  0
   27.3149   41.4400   23.6298 C   0  0  1  0  0  0  0  0  0  0  0  0
   27.0052   42.6453   24.4740 C   0  0  0  0  0  0  0  0  0  0  0  0
   27.9817   41.5718   22.4064 C   0  0  1  0  0  0  0  0  0  0  0  0
   28.4076   42.9197   21.9019 C   0  0  0  0  0  0  0  0  0  0  0  0
   28.2687   40.4431   21.6446 C   0  0  0  0  0  0  0  0  0  0  0  0
   27.8969   39.1767   22.0896 C   0  0  2  0  0  0  0  0  0  0  0  0
   27.8045   36.8013   21.7867 C   0  0  2  0  0  0  0  0  0  0  0  0
   28.1745   38.0499   21.3249 N   0  0  0  0  0  0  0  0  0  0  0  0
  1  2  1  1  0  0  0
  1  3  1  0  0  0  0
  1  4  2  0  0  0  0
  1  6  1  0  0  0  0
  5  6  1  0  0  0  0
  7  5  1  1  0  0  0
  7  8  1  0  0  0  0
  7  9  1  0  0  0  0
  9 10  1  6  0  0  0
  9 11  1  0  0  0  0
 11 12  1  6  0  0  0
 11 13  1  0  0  0  0
 13 31  1  0  0  0  0
 14 15  1  0  0  0  0
 15 16  2  0  0  0  0
 15 17  1  0  0  0  0
 17 18  1  0  0  0  0
 18 20  2  0  0  0  0
 19 18  1  1  0  0  0
 19 22  1  0  0  0  0
 19 30  1  0  0  0  0
 21 23  1  6  0  0  0
 21 29  1  0  0  0  0
 21 22  1  0  0  0  0
 23 24  1  0  0  0  0
 24 25  1  1  0  0  0
 24 26  1  0  0  0  0
 26 27  1  1  0  0  0
 26 28  1  0  0  0  0
 29 28  1  6  0  0  0
 29 31  1  0  0  0  0
 30 14  1  6  0  0  0
 30 31  1  0  0  0  0
M  CHG  1   3  -1
M  END
>  <CHROM.1>
-172.39576855,-51.19397852,168.09879926,59.57904562,-23.93379762,83.17897692
-98.65856251,27.29046816,39.46725403,20.18708226,-2.54134320,-1.43706420
1.44549398

>  <Name>
ligand

>  <RI>
0

>  <Rbt.Current_Directory>
/home/itssahil/PROJECTS/Mol_Feturizer/New_Systems/rnas/3F2Q

>  <Rbt.Executable>
rbdock ($Id: //depot/dev/client3/rdock/2013.1/src/exe/rbdock.cxx#4 $)

>  <Rbt.Library>
libRbt.so (2013.1, Build901 2013/11/27)

>  <Rbt.Parameter_File>
/export/apps/rDock/src/rDock_2013.1_src/data/scripts/dock_solv.prm

>  <Rbt.Receptor>
prm/pocket_docking_4.prm

>  <SCORE>
-28.9577

>  <SCORE.INTER>
-25.6656

>  <SCORE.INTER.CONST>
1

>  <SCORE.INTER.POLAR>
0

>  <SCORE.INTER.ROT>
7

>  <SCORE.INTER.SOLV>
20.0641

>  <SCORE.INTER.VDW>
-32.0651

>  <SCORE.INTER.norm>
-0.827922

>  <SCORE.INTRA>
-3.29206

>  <SCORE.INTRA.DIHEDRAL>
-2.52536

>  <SCORE.INTRA.DIHEDRAL.0>
10.0718

>  <SCORE.INTRA.POLAR>
0

>  <SCORE.INTRA.POLAR.0>
0

>  <SCORE.INTRA.REPUL>
0

>  <SCORE.INTRA.REPUL.0>
0

>  <SCORE.INTRA.SOLV>
-1.01865

>  <SCORE.INTRA.SOLV.lig_0>
-48.6963

>  <SCORE.INTRA.VDW>
-1.52006

>  <SCORE.INTRA.VDW.0>
-0.836976

>  <SCORE.INTRA.norm>
-0.106196

>  <SCORE.RESTR>
0

>  <SCORE.RESTR.CAVITY>
0

>  <SCORE.RESTR.norm>
0

>  <SCORE.SYSTEM>
0

>  <SCORE.SYSTEM.CONST>
0

>  <SCORE.SYSTEM.DIHEDRAL>
0

>  <SCORE.SYSTEM.SOLV>
0

>  <SCORE.SYSTEM.norm>
0

>  <SCORE.heavy>
31

>  <SCORE.norm>
-0.934118

>  <RMSD>
3.038

$$$$
ligand
 OpenBabel11021811473D
libRbt.so/2013.1/901 2013/11/27
 31 33  0  0  0  0  0  0  0  0999 V2000
   25.6409   42.3822   23.2788 P   0  0  1  0  0  0  0  0  0  0  0  0
   24.4555   43.1301   22.7069 O   0  0  0  0  0  0  0  0  0  0  0  0
   26.3971   43.3277   24.1729 O   0  5  0  0  0  0  0  0  0  0  0  0
   25.1715   41.1992   24.0799 O   0  0  0  0  0  0  0  0  0  0  0  0
   26.0728   40.7291   21.3135 C   0  0  0  0  0  0  0  0  0  0  0  0
   26.5387   41.8109   22.0829 O   0  0  0  0  0  0  0  0  0  0  0  0
   27.1636   40.3021   20.3423 C   0  0  1  0  0  0  0  0  0  0  0  0
   28.3913   40.2501   21.0376 O   0  0  0  0  0  0  0  0  0  0  0  0
   26.8332   38.9365   19.7401 C   0  0  1  0  0  0  0  0  0  0  0  0
   25.7009   39.0481   18.9046 O   0  0  0  0  0  0  0  0  0  0  0  0
   28.0095   38.2874   18.9975 C   0  0  1  0  0  0  0  0  0  0  0  0
   28.6478   39.2435   18.1807 O   0  0  0  0  0  0  0  0  0  0  0  0
   29.0318   37.6775   19.9432 C   0  0  0  0  0  0  0  0  0  0  0  0
   28.8484   35.0608   18.8934 N   0  0  0  0  0  0  0  0  0  0  0  0
   28.8294   33.7893   18.3572 C   0  0  0  0  0  0  0  0  0  0  0  0
   29.2388   33.5948   17.2092 O   0  0  0  0  0  0  0  0  0  0  0  0
   28.3412   32.7395   19.1087 N   0  0  0  0  0  0  0  0  0  0  0  0
   27.8734   32.9565   20.3910 C   0  0  0  0  0  0  0  0  0  0  0  0
   27.8925   34.2256   20.9311 C   0  0  1  0  0  0  0  0  0  0  0  0
   27.4441   32.0287   21.0747 O   0  0  0  0  0  0  0  0  0  0  0  0
   27.4464   35.6905   22.7613 C   0  0  2  0  0  0  0  0  0  0  0  0
   27.4253   34.4232   22.2160 N   0  0  0  0  0  0  0  0  0  0  0  0
   26.9741   35.8926   24.0559 C   0  0  0  0  0  0  0  0  0  0  0  0
   26.9840   37.1678   24.6122 C   0  0  1  0  0  0  0  0  0  0  0  0
   26.4803   37.3666   26.0152 C   0  0  0  0  0  0  0  0  0  0  0  0
   27.4742   38.2452   23.8655 C   0  0  1  0  0  0  0  0  0  0  0  0
   27.5119   39.6299   24.4433 C   0  0  0  0  0  0  0  0  0  0  0  0
   27.9459   38.0390   22.5725 C   0  0  0  0  0  0  0  0  0  0  0  0
   27.9348   36.7644   22.0110 C   0  0  2  0  0  0  0  0  0  0  0  0
   28.3849   35.2862   20.1792 C   0  0  2  0  0  0  0  0  0  0  0  0
   28.3967   36.5592   20.7163 N   0  0  0  0  0  0  0  0  0  0  0  0
  1  2  1  6  0  0  0
  1  3  1  0  0  0  0
  1  4  2  0  0  0  0
  1  6  1  0  0  0  0
  5  6  1  0  0  0  0
  7  5  1  1  0  0  0
  7  8  1  0  0  0  0
  7  9  1  0  0  0  0
  9 10  1  6  0  0  0
  9 11  1  0  0  0  0
 11 12  1  1  0  0  0
 11 13  1  0  0  0  0
 13 31  1  0  0  0  0
 14 15  1  0  0  0  0
 15 16  2  0  0  0  0
 15 17  1  0  0  0  0
 17 18  1  0  0  0  0
 18 20  2  0  0  0  0
 19 18  1  1  0  0  0
 19 22  1  0  0  0  0
 19 30  1  0  0  0  0
 21 23  1  6  0  0  0
 21 29  1  0  0  0  0
 21 22  1  0  0  0  0
 23 24  1  0  0  0  0
 24 25  1  1  0  0  0
 24 26  1  0  0  0  0
 26 27  1  1  0  0  0
 26 28  1  0  0  0  0
 29 28  1  6  0  0  0
 29 31  1  0  0  0  0
 30 14  1  6  0  0  0
 30 31  1  0  0  0  0
M  CHG  1   3  -1
M  END
>  <CHROM.1>
-174.63472818,-72.06772247,44.96445971,67.63978510,-44.63969838,63.59257961
-98.93113396,27.29737071,37.92821020,21.48516640,-2.71357503,-1.27530202
2.43357112

>  <Name>
ligand

>  <RI>
0

>  <Rbt.Current_Directory>
/home/itssahil/PROJECTS/Mol_Feturizer/New_Systems/rnas/3F2Q

>  <Rbt.Executable>
rbdock ($Id: //depot/dev/client3/rdock/2013.1/src/exe/rbdock.cxx#4 $)

>  <Rbt.Library>
libRbt.so (2013.1, Build901 2013/11/27)

>  <Rbt.Parameter_File>
/export/apps/rDock/src/rDock_2013.1_src/data/scripts/dock_solv.prm

>  <Rbt.Receptor>
prm/pocket_docking_6.prm

>  <SCORE>
-30.3142

>  <SCORE.INTER>
-26.1056

>  <SCORE.INTER.CONST>
1

>  <SCORE.INTER.POLAR>
0

>  <SCORE.INTER.ROT>
7

>  <SCORE.INTER.SOLV>
16.3352

>  <SCORE.INTER.VDW>
-31.1155

>  <SCORE.INTER.norm>
-0.842116

>  <SCORE.INTRA>
-4.20861

>  <SCORE.INTRA.DIHEDRAL>
-6.35681

>  <SCORE.INTRA.DIHEDRAL.0>
10.0718

>  <SCORE.INTRA.POLAR>
0

>  <SCORE.INTRA.POLAR.0>
0

>  <SCORE.INTRA.REPUL>
0

>  <SCORE.INTRA.REPUL.0>
0

>  <SCORE.INTRA.SOLV>
1.51738

>  <SCORE.INTRA.SOLV.lig_0>
-48.6963

>  <SCORE.INTRA.VDW>
-1.7889

>  <SCORE.INTRA.VDW.0>
-0.836976

>  <SCORE.INTRA.norm>
-0.135762

>  <SCORE.RESTR>
0

>  <SCORE.RESTR.CAVITY>
0

>  <SCORE.RESTR.norm>
0

>  <SCORE.SYSTEM>
0

>  <SCORE.SYSTEM.CONST>
0

>  <SCORE.SYSTEM.DIHEDRAL>
0

>  <SCORE.SYSTEM.SOLV>
0

>  <SCORE.SYSTEM.norm>
0

>  <SCORE.heavy>
31

>  <SCORE.norm>
-0.977877

>  <RMSD>
3.049

$$$$
ligand
 OpenBabel11021811473D
libRbt.so/2013.1/901 2013/11/27
 31 33  0  0  0  0  0  0  0  0999 V2000
   25.9195   43.1226   16.3349 P   0  0  1  0  0  0  0  0  0  0  0  0
   26.3059   44.2601   17.2559 O   0  0  0  0  0  0  0  0  0  0  0  0
   24.6936   42.4614   16.9051 O   0  5  0  0  0  0  0  0  0  0  0  0
   25.6138   43.6488   14.9595 O   0  0  0  0  0  0  0  0  0  0  0  0
   27.3215   41.0720   17.1167 C   0  0  0  0  0  0  0  0  0  0  0  0
   27.1535   42.1138   16.1862 O   0  0  0  0  0  0  0  0  0  0  0  0
   28.7240   40.4991   16.9753 C   0  0  1  0  0  0  0  0  0  0  0  0
   29.6490   41.4431   17.4720 O   0  0  0  0  0  0  0  0  0  0  0  0
   28.8398   39.1831   17.7443 C   0  0  1  0  0  0  0  0  0  0  0  0
   30.1714   38.7179   17.6903 O   0  0  0  0  0  0  0  0  0  0  0  0
   28.3394   39.2676   19.1931 C   0  0  1  0  0  0  0  0  0  0  0  0
   26.9365   39.1274   19.2254 O   0  0  0  0  0  0  0  0  0  0  0  0
   28.9667   38.2122   20.0898 C   0  0  0  0  0  0  0  0  0  0  0  0
   28.0402   35.7143   21.0310 N   0  0  0  0  0  0  0  0  0  0  0  0
   27.6547   34.4657   21.4746 C   0  0  0  0  0  0  0  0  0  0  0  0
   27.8740   33.4675   20.7827 O   0  0  0  0  0  0  0  0  0  0  0  0
   27.0144   34.3418   22.6910 N   0  0  0  0  0  0  0  0  0  0  0  0
   26.7592   35.4594   23.4632 C   0  0  0  0  0  0  0  0  0  0  0  0
   27.1446   36.7089   23.0241 C   0  0  1  0  0  0  0  0  0  0  0  0
   26.1976   35.3621   24.5530 O   0  0  0  0  0  0  0  0  0  0  0  0
   27.2732   39.0654   23.3773 C   0  0  2  0  0  0  0  0  0  0  0  0
   26.8857   37.8142   23.8112 N   0  0  0  0  0  0  0  0  0  0  0  0
   27.0114   40.1817   24.1681 C   0  0  0  0  0  0  0  0  0  0  0  0
   27.3913   41.4486   23.7363 C   0  0  1  0  0  0  0  0  0  0  0  0
   27.1106   42.6418   24.6074 C   0  0  0  0  0  0  0  0  0  0  0  0
   28.0407   41.5946   22.5052 C   0  0  1  0  0  0  0  0  0  0  0  0
   28.4763   42.9461   22.0189 C   0  0  0  0  0  0  0  0  0  0  0  0
   28.3011   40.4767   21.7183 C   0  0  0  0  0  0  0  0  0  0  0  0
   27.9197   39.2071   22.1457 C   0  0  2  0  0  0  0  0  0  0  0  0
   27.7916   36.8391   21.8006 C   0  0  2  0  0  0  0  0  0  0  0  0
   28.1706   38.0913   21.3561 N   0  0  0  0  0  0  0  0  0  0  0  0
  1  2  1  1  0  0  0
  1  3  1  0  0  0  0
  1  4  2  0  0  0  0
  1  6  1  0  0  0  0
  5  6  1  0  0  0  0
  7  5  1  1  0  0  0
  7  8  1  0  0  0  0
  7  9  1  0  0  0  0
  9 10  1  1  0  0  0
  9 11  1  0  0  0  0
 11 12  1  6  0  0  0
 11 13  1  0  0  0  0
 13 31  1  0  0  0  0
 14 15  1  0  0  0  0
 15 16  2  0  0  0  0
 15 17  1  0  0  0  0
 17 18  1  0  0  0  0
 18 20  2  0  0  0  0
 19 18  1  1  0  0  0
 19 22  1  0  0  0  0
 19 30  1  0  0  0  0
 21 23  1  6  0  0  0
 21 29  1  0  0  0  0
 21 22  1  0  0  0  0
 23 24  1  0  0  0  0
 24 25  1  1  0  0  0
 24 26  1  0  0  0  0
 26 27  1  1  0  0  0
 26 28  1  0  0  0  0
 29 28  1  6  0  0  0
 29 31  1  0  0  0  0
 30 14  1  6  0  0  0
 30 31  1  0  0  0  0
M  CHG  1   3  -1
M  END
>  <CHROM.1>
-165.48930728,87.04155107,71.19096985,-175.47115127,82.30305144,-163.99438467
-54.74582040,27.45711537,39.54320565,20.18274842,-2.05800315,-1.42249764
1.89739972

>  <Name>
ligand

>  <RI>
0

>  <Rbt.Current_Directory>
/home/itssahil/PROJECTS/Mol_Feturizer/New_Systems/rnas/3F2Q

>  <Rbt.Executable>
rbdock ($Id: //depot/dev/client3/rdock/2013.1/src/exe/rbdock.cxx#4 $)

>  <Rbt.Library>
libRbt.so (2013.1, Build901 2013/11/27)

>  <Rbt.Parameter_File>
/export/apps/rDock/src/rDock_2013.1_src/data/scripts/dock_solv.prm

>  <Rbt.Receptor>
prm/pocket_docking_4.prm

>  <SCORE>
-29.1346

>  <SCORE.INTER>
-27.545

>  <SCORE.INTER.CONST>
1

>  <SCORE.INTER.POLAR>
0

>  <SCORE.INTER.ROT>
7

>  <SCORE.INTER.SOLV>
20.0986

>  <SCORE.INTER.VDW>
-33.3295

>  <SCORE.INTER.norm>
-0.888547

>  <SCORE.INTRA>
-1.58961

>  <SCORE.INTRA.DIHEDRAL>
-3.88202

>  <SCORE.INTRA.DIHEDRAL.0>
10.0718

>  <SCORE.INTRA.POLAR>
0

>  <SCORE.INTRA.POLAR.0>
0

>  <SCORE.INTRA.REPUL>
0

>  <SCORE.INTRA.REPUL.0>
0

>  <SCORE.INTRA.SOLV>
-1.11135

>  <SCORE.INTRA.SOLV.lig_0>
-48.6963

>  <SCORE.INTRA.VDW>
0.907078

>  <SCORE.INTRA.VDW.0>
-0.836976

>  <SCORE.INTRA.norm>
-0.0512776

>  <SCORE.RESTR>
0

>  <SCORE.RESTR.CAVITY>
0

>  <SCORE.RESTR.norm>
0

>  <SCORE.SYSTEM>
0

>  <SCORE.SYSTEM.CONST>
0

>  <SCORE.SYSTEM.DIHEDRAL>
0

>  <SCORE.SYSTEM.SOLV>
0

>  <SCORE.SYSTEM.norm>
0

>  <SCORE.heavy>
31

>  <SCORE.norm>
-0.939825

>  <RMSD>
3.120

$$$$
ligand
 OpenBabel11021811473D
libRbt.so/2013.1/901 2013/11/27
 31 33  0  0  0  0  0  0  0  0999 V2000
   25.8630   43.2183   16.4463 P   0  0  1  0  0  0  0  0  0  0  0  0
   24.5364   42.8495   15.8174 O   0  0  0  0  0  0  0  0  0  0  0  0
   26.8802   43.3395   15.3438 O   0  5  0  0  0  0  0  0  0  0  0  0
   25.7472   44.5312   17.1707 O   0  0  0  0  0  0  0  0  0  0  0  0
   26.6816   40.8397   17.1199 C   0  0  0  0  0  0  0  0  0  0  0  0
   26.2613   42.1160   17.5367 O   0  0  0  0  0  0  0  0  0  0  0  0
   26.9381   39.9749   18.3453 C   0  0  1  0  0  0  0  0  0  0  0  0
   25.7273   39.8310   19.0571 O   0  0  0  0  0  0  0  0  0  0  0  0
   27.4763   38.6069   17.9262 C   0  0  1  0  0  0  0  0  0  0  0  0
   28.7638   38.7550   17.3670 O   0  0  0  0  0  0  0  0  0  0  0  0
   27.4785   37.5701   19.0583 C   0  0  1  0  0  0  0  0  0  0  0  0
   27.7743   36.2928   18.5388 O   0  0  0  0  0  0  0  0  0  0  0  0
   28.4764   37.9055   20.1551 C   0  0  0  0  0  0  0  0  0  0  0  0
   27.5449   35.5590   21.4239 N   0  0  0  0  0  0  0  0  0  0  0  0
   27.1547   34.3802   22.0260 C   0  0  0  0  0  0  0  0  0  0  0  0
   27.2922   33.3065   21.4332 O   0  0  0  0  0  0  0  0  0  0  0  0
   26.6014   34.4107   23.2902 N   0  0  0  0  0  0  0  0  0  0  0  0
   26.4376   35.6130   23.9522 C   0  0  0  0  0  0  0  0  0  0  0  0
   26.8282   36.7931   23.3544 C   0  0  1  0  0  0  0  0  0  0  0  0
   25.9544   35.6535   25.0824 O   0  0  0  0  0  0  0  0  0  0  0  0
   27.0544   39.1671   23.4399 C   0  0  2  0  0  0  0  0  0  0  0  0
   26.6613   37.9848   24.0328 N   0  0  0  0  0  0  0  0  0  0  0  0
   26.8854   40.3702   24.1210 C   0  0  0  0  0  0  0  0  0  0  0  0
   27.2714   41.5686   23.5289 C   0  0  1  0  0  0  0  0  0  0  0  0
   27.0917   42.8575   24.2826 C   0  0  0  0  0  0  0  0  0  0  0  0
   27.8334   41.5582   22.2472 C   0  0  1  0  0  0  0  0  0  0  0  0
   28.2736   42.8327   21.5881 C   0  0  0  0  0  0  0  0  0  0  0  0
   28.0012   40.3539   21.5702 C   0  0  0  0  0  0  0  0  0  0  0  0
   27.6133   39.1524   22.1584 C   0  0  2  0  0  0  0  0  0  0  0  0
   27.3877   36.7678   22.0821 C   0  0  2  0  0  0  0  0  0  0  0  0
   27.7716   37.9503   21.4791 N   0  0  0  0  0  0  0  0  0  0  0  0
  1  2  1  6  0  0  0
  1  3  1  0  0  0  0
  1  4  2  0  0  0  0
  1  6  1  0  0  0  0
  5  6  1  0  0  0  0
  7  5  1  6  0  0  0
  7  8  1  0  0  0  0
  7  9  1  0  0  0  0
  9 10  1  1  0  0  0
  9 11  1  0  0  0  0
 11 12  1  6  0  0  0
 11 13  1  0  0  0  0
 13 31  1  0  0  0  0
 14 15  1  0  0  0  0
 15 16  2  0  0  0  0
 15 17  1  0  0  0  0
 17 18  1  0  0  0  0
 18 20  2  0  0  0  0
 19 18  1  1  0  0  0
 19 22  1  0  0  0  0
 19 30  1  0  0  0  0
 21 23  1  6  0  0  0
 21 29  1  0  0  0  0
 21 22  1  0  0  0  0
 23 24  1  0  0  0  0
 24 25  1  1  0  0  0
 24 26  1  0  0  0  0
 26 27  1  1  0  0  0
 26 28  1  0  0  0  0
 29 28  1  6  0  0  0
 29 31  1  0  0  0  0
 30 14  1  6  0  0  0
 30 31  1  0  0  0  0
M  CHG  1   3  -1
M  END
>  <CHROM.1>
-177.53987464,72.34767118,62.19378170,67.24938731,170.27528707,125.18162478
-111.55711366,26.96859112,39.32062432,20.36145861,-2.91466041,-1.48215428
1.06811434

>  <Name>
ligand

>  <RI>
0

>  <Rbt.Current_Directory>
/home/itssahil/PROJECTS/Mol_Feturizer/New_Systems/rnas/3F2Q

>  <Rbt.Executable>
rbdock ($Id: //depot/dev/client3/rdock/2013.1/src/exe/rbdock.cxx#4 $)

>  <Rbt.Library>
libRbt.so (2013.1, Build901 2013/11/27)

>  <Rbt.Parameter_File>
/export/apps/rDock/src/rDock_2013.1_src/data/scripts/dock_solv.prm

>  <Rbt.Receptor>
prm/blind_docking_60.prm

>  <SCORE>
-29.9062

>  <SCORE.INTER>
-25.7681

>  <SCORE.INTER.CONST>
1

>  <SCORE.INTER.POLAR>
0

>  <SCORE.INTER.ROT>
7

>  <SCORE.INTER.SOLV>
20.2908

>  <SCORE.INTER.VDW>
-32.209

>  <SCORE.INTER.norm>
-0.831229

>  <SCORE.INTRA>
-4.13813

>  <SCORE.INTRA.DIHEDRAL>
-2.63292

>  <SCORE.INTRA.DIHEDRAL.0>
10.0718

>  <SCORE.INTRA.POLAR>
0

>  <SCORE.INTRA.POLAR.0>
0

>  <SCORE.INTRA.REPUL>
0

>  <SCORE.INTRA.REPUL.0>
0

>  <SCORE.INTRA.SOLV>
-1.42346

>  <SCORE.INTRA.SOLV.lig_0>
-48.6963

>  <SCORE.INTRA.VDW>
-2.10994

>  <SCORE.INTRA.VDW.0>
-0.836976

>  <SCORE.INTRA.norm>
-0.133488

>  <SCORE.RESTR>
0

>  <SCORE.RESTR.CAVITY>
0

>  <SCORE.RESTR.norm>
0

>  <SCORE.SYSTEM>
0

>  <SCORE.SYSTEM.CONST>
0

>  <SCORE.SYSTEM.DIHEDRAL>
0

>  <SCORE.SYSTEM.SOLV>
0

>  <SCORE.SYSTEM.norm>
0

>  <SCORE.heavy>
31

>  <SCORE.norm>
-0.964717

>  <RMSD>
3.128

$$$$
ligand
 OpenBabel11021811473D
libRbt.so/2013.1/901 2013/11/27
 31 33  0  0  0  0  0  0  0  0999 V2000
   26.5866   42.0869   17.8548 P   0  0  1  0  0  0  0  0  0  0  0  0
   26.1749   40.8794   17.0399 O   0  0  0  0  0  0  0  0  0  0  0  0
   26.3525   43.3137   17.0150 O   0  5  0  0  0  0  0  0  0  0  0  0
   25.7629   42.1717   19.1102 O   0  0  0  0  0  0  0  0  0  0  0  0
   29.1181   41.7650   17.3356 C   0  0  0  0  0  0  0  0  0  0  0  0
   28.1141   41.9296   18.3073 O   0  0  0  0  0  0  0  0  0  0  0  0
   28.9851   40.3839   16.7109 C   0  0  1  0  0  0  0  0  0  0  0  0
   29.7188   40.3619   15.5048 O   0  0  0  0  0  0  0  0  0  0  0  0
   29.5055   39.3146   17.6714 C   0  0  1  0  0  0  0  0  0  0  0  0
   30.8227   39.6328   18.0665 O   0  0  0  0  0  0  0  0  0  0  0  0
   28.6004   39.0849   18.8898 C   0  0  1  0  0  0  0  0  0  0  0  0
   27.3457   38.5963   18.4705 O   0  0  0  0  0  0  0  0  0  0  0  0
   29.2046   38.1130   19.8908 C   0  0  0  0  0  0  0  0  0  0  0  0
   28.2179   35.6079   20.7478 N   0  0  0  0  0  0  0  0  0  0  0  0
   27.8045   34.3563   21.1566 C   0  0  0  0  0  0  0  0  0  0  0  0
   28.0953   33.3593   20.4898 O   0  0  0  0  0  0  0  0  0  0  0  0
   27.0563   34.2280   22.3093 N   0  0  0  0  0  0  0  0  0  0  0  0
   26.7213   35.3441   23.0526 C   0  0  0  0  0  0  0  0  0  0  0  0
   27.1342   36.5966   22.6483 C   0  0  1  0  0  0  0  0  0  0  0  0
   26.0629   35.2430   24.0864 O   0  0  0  0  0  0  0  0  0  0  0  0
   27.2088   38.9546   23.0072 C   0  0  2  0  0  0  0  0  0  0  0  0
   26.7942   37.7004   23.4060 N   0  0  0  0  0  0  0  0  0  0  0  0
   26.8655   40.0693   23.7684 C   0  0  0  0  0  0  0  0  0  0  0  0
   27.2721   41.3391   23.3708 C   0  0  1  0  0  0  0  0  0  0  0  0
   26.9019   42.5308   24.2100 C   0  0  0  0  0  0  0  0  0  0  0  0
   28.0305   41.4897   22.2043 C   0  0  1  0  0  0  0  0  0  0  0  0
   28.4968   42.8445   21.7574 C   0  0  0  0  0  0  0  0  0  0  0  0
   28.3720   40.3732   21.4468 C   0  0  0  0  0  0  0  0  0  0  0  0
   27.9643   39.1007   21.8399 C   0  0  2  0  0  0  0  0  0  0  0  0
   27.8896   36.7313   21.4891 C   0  0  2  0  0  0  0  0  0  0  0  0
   28.2967   37.9863   21.0788 N   0  0  0  0  0  0  0  0  0  0  0  0
  1  2  1  6  0  0  0
  1  3  1  0  0  0  0
  1  4  2  0  0  0  0
  1  6  1  0  0  0  0
  5  6  1  0  0  0  0
  7  5  1  1  0  0  0
  7  8  1  0  0  0  0
  7  9  1  0  0  0  0
  9 10  1  1  0  0  0
  9 11  1  0  0  0  0
 11 12  1  6  0  0  0
 11 13  1  0  0  0  0
 13 31  1  0  0  0  0
 14 15  1  0  0  0  0
 15 16  2  0  0  0  0
 15 17  1  0  0  0  0
 17 18  1  0  0  0  0
 18 20  2  0  0  0  0
 19 18  1  1  0  0  0
 19 22  1  0  0  0  0
 19 30  1  0  0  0  0
 21 23  1  6  0  0  0
 21 29  1  0  0  0  0
 21 22  1  0  0  0  0
 23 24  1  0  0  0  0
 24 25  1  1  0  0  0
 24 26  1  0  0  0  0
 26 27  1  1  0  0  0
 26 28  1  0  0  0  0
 29 28  1  6  0  0  0
 29 31  1  0  0  0  0
 30 14  1  6  0  0  0
 30 31  1  0  0  0  0
M  CHG  1   3  -1
M  END
>  <CHROM.1>
-70.54230074,57.72710255,163.40055856,-54.12182472,63.46900576,177.44932155
-58.94066677,27.73990069,39.25274105,20.22292736,1.33616355,1.28018844,-0.44093830

>  <Name>
ligand

>  <RI>
0

>  <Rbt.Current_Directory>
/home/itssahil/PROJECTS/Mol_Feturizer/New_Systems/rnas/3F2Q

>  <Rbt.Executable>
rbdock ($Id: //depot/dev/client3/rdock/2013.1/src/exe/rbdock.cxx#4 $)

>  <Rbt.Library>
libRbt.so (2013.1, Build901 2013/11/27)

>  <Rbt.Parameter_File>
/export/apps/rDock/src/rDock_2013.1_src/data/scripts/dock_solv.prm

>  <Rbt.Receptor>
prm/pocket_docking_5.prm

>  <SCORE>
-31.2145

>  <SCORE.INTER>
-26.2513

>  <SCORE.INTER.CONST>
1

>  <SCORE.INTER.POLAR>
0

>  <SCORE.INTER.ROT>
7

>  <SCORE.INTER.SOLV>
15.9801

>  <SCORE.INTER.VDW>
-31.0942

>  <SCORE.INTER.norm>
-0.846815

>  <SCORE.INTRA>
-4.96322

>  <SCORE.INTRA.DIHEDRAL>
-7.09798

>  <SCORE.INTRA.DIHEDRAL.0>
10.0718

>  <SCORE.INTRA.POLAR>
0

>  <SCORE.INTRA.POLAR.0>
0

>  <SCORE.INTRA.REPUL>
0

>  <SCORE.INTRA.REPUL.0>
0

>  <SCORE.INTRA.SOLV>
1.451

>  <SCORE.INTRA.SOLV.lig_0>
-48.6963

>  <SCORE.INTRA.VDW>
-2.13973

>  <SCORE.INTRA.VDW.0>
-0.836976

>  <SCORE.INTRA.norm>
-0.160104

>  <SCORE.RESTR>
0

>  <SCORE.RESTR.CAVITY>
0

>  <SCORE.RESTR.norm>
0

>  <SCORE.SYSTEM>
0

>  <SCORE.SYSTEM.CONST>
0

>  <SCORE.SYSTEM.DIHEDRAL>
0

>  <SCORE.SYSTEM.SOLV>
0

>  <SCORE.SYSTEM.norm>
0

>  <SCORE.heavy>
31

>  <SCORE.norm>
-1.00692

>  <RMSD>
3.141

$$$$
ligand
 OpenBabel11021811473D
libRbt.so/2013.1/901 2013/11/27
 31 33  0  0  0  0  0  0  0  0999 V2000
   25.7933   43.0900   16.4590 P   0  0  1  0  0  0  0  0  0  0  0  0
   24.4270   42.8295   15.8616 O   0  0  0  0  0  0  0  0  0  0  0  0
   26.7964   43.0918   15.3370 O   0  5  0  0  0  0  0  0  0  0  0  0
   25.8112   44.4245   17.1523 O   0  0  0  0  0  0  0  0  0  0  0  0
   27.2683   42.0946   18.3604 C   0  0  0  0  0  0  0  0  0  0  0  0
   26.1101   41.9816   17.5698 O   0  0  0  0  0  0  0  0  0  0  0  0
   27.3616   40.8879   19.2827 C   0  0  1  0  0  0  0  0  0  0  0  0
   26.0968   40.6717   19.8717 O   0  0  0  0  0  0  0  0  0  0  0  0
   27.8025   39.6527   18.4976 C   0  0  1  0  0  0  0  0  0  0  0  0
   29.0782   39.8777   17.9368 O   0  0  0  0  0  0  0  0  0  0  0  0
   27.7781   38.3565   19.3195 C   0  0  1  0  0  0  0  0  0  0  0  0
   28.0920   37.2578   18.4929 O   0  0  0  0  0  0  0  0  0  0  0  0
   28.7454   38.3904   20.4920 C   0  0  0  0  0  0  0  0  0  0  0  0
   27.7288   35.9494   21.4876 N   0  0  0  0  0  0  0  0  0  0  0  0
   27.2975   34.7252   21.9565 C   0  0  0  0  0  0  0  0  0  0  0  0
   27.4526   33.7100   21.2720 O   0  0  0  0  0  0  0  0  0  0  0  0
   26.6834   34.6452   23.1900 N   0  0  0  0  0  0  0  0  0  0  0  0
   26.5000   35.7823   23.9541 C   0  0  0  0  0  0  0  0  0  0  0  0
   26.9314   37.0073   23.4898 C   0  0  1  0  0  0  0  0  0  0  0  0
   25.9626   35.7238   25.0588 O   0  0  0  0  0  0  0  0  0  0  0  0
   27.1778   39.3593   23.8098 C   0  0  2  0  0  0  0  0  0  0  0  0
   26.7441   38.1325   24.2690 N   0  0  0  0  0  0  0  0  0  0  0  0
   26.9882   40.4955   24.5927 C   0  0  0  0  0  0  0  0  0  0  0  0
   27.4151   41.7383   24.1355 C   0  0  1  0  0  0  0  0  0  0  0  0
   27.2122   42.9532   24.9982 C   0  0  0  0  0  0  0  0  0  0  0  0
   28.0389   41.8398   22.8868 C   0  0  1  0  0  0  0  0  0  0  0  0
   28.5239   43.1639   22.3727 C   0  0  0  0  0  0  0  0  0  0  0  0
   28.2271   40.7020   22.1078 C   0  0  0  0  0  0  0  0  0  0  0  0
   27.7984   39.4565   22.5607 C   0  0  2  0  0  0  0  0  0  0  0  0
   27.5522   37.0933   22.2489 C   0  0  2  0  0  0  0  0  0  0  0  0
   27.9773   38.3212   21.7793 N   0  0  0  0  0  0  0  0  0  0  0  0
  1  2  1  6  0  0  0
  1  3  1  0  0  0  0
  1  4  2  0  0  0  0
  1  6  1  0  0  0  0
  5  6  1  0  0  0  0
  7  5  1  6  0  0  0
  7  8  1  0  0  0  0
  7  9  1  0  0  0  0
  9 10  1  1  0  0  0
  9 11  1  0  0  0  0
 11 12  1  6  0  0  0
 11 13  1  0  0  0  0
 13 31  1  0  0  0  0
 14 15  1  0  0  0  0
 15 16  2  0  0  0  0
 15 17  1  0  0  0  0
 17 18  1  0  0  0  0
 18 20  2  0  0  0  0
 19 18  1  1  0  0  0
 19 22  1  0  0  0  0
 19 30  1  0  0  0  0
 21 23  1  6  0  0  0
 21 29  1  0  0  0  0
 21 22  1  0  0  0  0
 23 24  1  0  0  0  0
 24 25  1  1  0  0  0
 24 26  1  0  0  0  0
 26 27  1  1  0  0  0
 26 28  1  0  0  0  0
 29 28  1  6  0  0  0
 29 31  1  0  0  0  0
 30 14  1  6  0  0  0
 30 31  1  0  0  0  0
M  CHG  1   3  -1
M  END
>  <CHROM.1>
-177.41815051,-173.60874410,-46.18557664,60.98229905,175.23720844,115.73958466
-104.22264851,27.12165042,39.66555406,20.65945868,2.97590241,-1.47508021
0.62504538

>  <Name>
ligand

>  <RI>
0

>  <Rbt.Current_Directory>
/home/itssahil/PROJECTS/Mol_Feturizer/New_Systems/rnas/3F2Q

>  <Rbt.Executable>
rbdock ($Id: //depot/dev/client3/rdock/2013.1/src/exe/rbdock.cxx#4 $)

>  <Rbt.Library>
libRbt.so (2013.1, Build901 2013/11/27)

>  <Rbt.Parameter_File>
/export/apps/rDock/src/rDock_2013.1_src/data/scripts/dock_solv.prm

>  <Rbt.Receptor>
prm/pocket_docking_8.prm

>  <SCORE>
-29.6259

>  <SCORE.INTER>
-25.9982

>  <SCORE.INTER.CONST>
1

>  <SCORE.INTER.POLAR>
0

>  <SCORE.INTER.ROT>
7

>  <SCORE.INTER.SOLV>
18.9821

>  <SCORE.INTER.VDW>
-31.9261

>  <SCORE.INTER.norm>
-0.838651

>  <SCORE.INTRA>
-3.62776

>  <SCORE.INTRA.DIHEDRAL>
-2.54243

>  <SCORE.INTRA.DIHEDRAL.0>
10.0718

>  <SCORE.INTRA.POLAR>
0

>  <SCORE.INTRA.POLAR.0>
0

>  <SCORE.INTRA.REPUL>
0

>  <SCORE.INTRA.REPUL.0>
0

>  <SCORE.INTRA.SOLV>
-0.61458

>  <SCORE.INTRA.SOLV.lig_0>
-48.6963

>  <SCORE.INTRA.VDW>
-2.04925

>  <SCORE.INTRA.VDW.0>
-0.836976

>  <SCORE.INTRA.norm>
-0.117024

>  <SCORE.RESTR>
0

>  <SCORE.RESTR.CAVITY>
0

>  <SCORE.RESTR.norm>
0

>  <SCORE.SYSTEM>
0

>  <SCORE.SYSTEM.CONST>
0

>  <SCORE.SYSTEM.DIHEDRAL>
0

>  <SCORE.SYSTEM.SOLV>
0

>  <SCORE.SYSTEM.norm>
0

>  <SCORE.heavy>
31

>  <SCORE.norm>
-0.955675

>  <RMSD>
3.190

$$$$
ligand
 OpenBabel11021811473D
libRbt.so/2013.1/901 2013/11/27
 31 33  0  0  0  0  0  0  0  0999 V2000
   26.2630   42.4626   16.9260 P   0  0  1  0  0  0  0  0  0  0  0  0
   26.8059   43.7942   17.3989 O   0  0  0  0  0  0  0  0  0  0  0  0
   24.7635   42.5045   17.0480 O   0  5  0  0  0  0  0  0  0  0  0  0
   26.6447   42.2263   15.4906 O   0  0  0  0  0  0  0  0  0  0  0  0
   28.3201   41.1970   17.8997 C   0  0  0  0  0  0  0  0  0  0  0  0
   26.9205   41.2828   17.7853 O   0  0  0  0  0  0  0  0  0  0  0  0
   28.8267   40.0848   16.9932 C   0  0  1  0  0  0  0  0  0  0  0  0
   30.2363   40.0508   17.0656 O   0  0  0  0  0  0  0  0  0  0  0  0
   28.2381   38.7409   17.4222 C   0  0  1  0  0  0  0  0  0  0  0  0
   28.7985   37.7069   16.6416 O   0  0  0  0  0  0  0  0  0  0  0  0
   28.3905   38.4496   18.9216 C   0  0  1  0  0  0  0  0  0  0  0  0
   29.6108   38.9776   19.3916 O   0  0  0  0  0  0  0  0  0  0  0  0
   27.2490   39.0222   19.7466 C   0  0  0  0  0  0  0  0  0  0  0  0
   26.8908   36.3504   20.5929 N   0  0  0  0  0  0  0  0  0  0  0  0
   26.7550   35.0234   20.9466 C   0  0  0  0  0  0  0  0  0  0  0  0
   26.3985   34.1918   20.1072 O   0  0  0  0  0  0  0  0  0  0  0  0
   27.0105   34.6343   22.2460 N   0  0  0  0  0  0  0  0  0  0  0  0
   27.4006   35.5654   23.1902 C   0  0  0  0  0  0  0  0  0  0  0  0
   27.5393   36.8924   22.8400 C   0  0  1  0  0  0  0  0  0  0  0  0
   27.6402   35.2309   24.3491 O   0  0  0  0  0  0  0  0  0  0  0  0
   28.0784   39.1360   23.4483 C   0  0  2  0  0  0  0  0  0  0  0  0
   27.9346   37.8083   23.7955 N   0  0  0  0  0  0  0  0  0  0  0  0
   28.4749   40.0618   24.4104 C   0  0  0  0  0  0  0  0  0  0  0  0
   28.6154   41.4041   24.0724 C   0  0  1  0  0  0  0  0  0  0  0  0
   29.0547   42.3887   25.1208 C   0  0  0  0  0  0  0  0  0  0  0  0
   28.3598   41.8181   22.7602 C   0  0  1  0  0  0  0  0  0  0  0  0
   28.5172   43.2564   22.3611 C   0  0  0  0  0  0  0  0  0  0  0  0
   27.9645   40.8899   21.8016 C   0  0  0  0  0  0  0  0  0  0  0  0
   27.8197   39.5457   22.1368 C   0  0  2  0  0  0  0  0  0  0  0  0
   27.2850   37.2893   21.5322 C   0  0  2  0  0  0  0  0  0  0  0  0
   27.4156   38.6196   21.1825 N   0  0  0  0  0  0  0  0  0  0  0  0
  1  2  1  1  0  0  0
  1  3  1  0  0  0  0
  1  4  2  0  0  0  0
  1  6  1  0  0  0  0
  5  6  1  0  0  0  0
  7  5  1  1  0  0  0
  7  8  1  0  0  0  0
  7  9  1  0  0  0  0
  9 10  1  6  0  0  0
  9 11  1  0  0  0  0
 11 12  1  1  0  0  0
 11 13  1  0  0  0  0
 13 31  1  0  0  0  0
 14 15  1  0  0  0  0
 15 16  2  0  0  0  0
 15 17  1  0  0  0  0
 17 18  1  0  0  0  0
 18 20  2  0  0  0  0
 19 18  1  6  0  0  0
 19 22  1  0  0  0  0
 19 30  1  0  0  0  0
 21 23  1  1  0  0  0
 21 29  1  0  0  0  0
 21 22  1  0  0  0  0
 23 24  1  0  0  0  0
 24 25  1  6  0  0  0
 24 26  1  0  0  0  0
 26 27  1  6  0  0  0
 26 28  1  0  0  0  0
 29 28  1  1  0  0  0
 29 31  1  0  0  0  0
 30 14  1  1  0  0  0
 30 31  1  0  0  0  0
M  CHG  1   3  -1
M  END
>  <CHROM.1>
-103.60916062,-52.82902481,177.15154423,-175.35978040,-34.88995452,176.15037177
106.81033496,27.68063842,39.41839129,20.21729881,-2.01066057,1.42836428,2.71932035

>  <Name>
ligand

>  <RI>
0

>  <Rbt.Current_Directory>
/home/itssahil/PROJECTS/Mol_Feturizer/New_Systems/rnas/3F2Q

>  <Rbt.Executable>
rbdock ($Id: //depot/dev/client3/rdock/2013.1/src/exe/rbdock.cxx#4 $)

>  <Rbt.Library>
libRbt.so (2013.1, Build901 2013/11/27)

>  <Rbt.Parameter_File>
/export/apps/rDock/src/rDock_2013.1_src/data/scripts/dock_solv.prm

>  <Rbt.Receptor>
prm/blind_docking_60.prm

>  <SCORE>
-19.527

>  <SCORE.INTER>
-19.0397

>  <SCORE.INTER.CONST>
1

>  <SCORE.INTER.POLAR>
0

>  <SCORE.INTER.ROT>
7

>  <SCORE.INTER.SOLV>
17.6862

>  <SCORE.INTER.VDW>
-26.8552

>  <SCORE.INTER.norm>
-0.614184

>  <SCORE.INTRA>
-0.48728

>  <SCORE.INTRA.DIHEDRAL>
-0.695993

>  <SCORE.INTRA.DIHEDRAL.0>
10.0718

>  <SCORE.INTRA.POLAR>
0

>  <SCORE.INTRA.POLAR.0>
0

>  <SCORE.INTRA.REPUL>
0

>  <SCORE.INTRA.REPUL.0>
0

>  <SCORE.INTRA.SOLV>
9.84602e-05

>  <SCORE.INTRA.SOLV.lig_0>
-48.6963

>  <SCORE.INTRA.VDW>
-0.139333

>  <SCORE.INTRA.VDW.0>
-0.836976

>  <SCORE.INTRA.norm>
-0.0157187

>  <SCORE.RESTR>
0

>  <SCORE.RESTR.CAVITY>
0

>  <SCORE.RESTR.norm>
0

>  <SCORE.SYSTEM>
0

>  <SCORE.SYSTEM.CONST>
0

>  <SCORE.SYSTEM.DIHEDRAL>
0

>  <SCORE.SYSTEM.SOLV>
0

>  <SCORE.SYSTEM.norm>
0

>  <SCORE.heavy>
31

>  <SCORE.norm>
-0.629903

>  <RMSD>
3.199

$$$$
ligand
 OpenBabel11021811473D
libRbt.so/2013.1/901 2013/11/27
 31 33  0  0  0  0  0  0  0  0999 V2000
   28.4177   42.4328   22.9002 P   0  0  1  0  0  0  0  0  0  0  0  0
   28.8575   41.1609   23.5933 O   0  0  0  0  0  0  0  0  0  0  0  0
   27.0156   42.7442   23.3500 O   0  5  0  0  0  0  0  0  0  0  0  0
   29.3297   43.5693   23.2725 O   0  0  0  0  0  0  0  0  0  0  0  0
   27.3827   41.9277   20.5645 C   0  0  0  0  0  0  0  0  0  0  0  0
   28.5304   42.2428   21.3147 O   0  0  0  0  0  0  0  0  0  0  0  0
   26.7259   40.6888   21.1555 C   0  0  1  0  0  0  0  0  0  0  0  0
   25.4599   41.0496   21.6660 O   0  0  0  0  0  0  0  0  0  0  0  0
   26.5813   39.6044   20.0879 C   0  0  1  0  0  0  0  0  0  0  0  0
   25.8234   40.1021   19.0061 O   0  0  0  0  0  0  0  0  0  0  0  0
   27.9201   39.0264   19.6085 C   0  0  1  0  0  0  0  0  0  0  0  0
   28.6450   40.0121   18.9072 O   0  0  0  0  0  0  0  0  0  0  0  0
   28.7722   38.5007   20.7527 C   0  0  0  0  0  0  0  0  0  0  0  0
   28.8908   35.9758   19.4901 N   0  0  0  0  0  0  0  0  0  0  0  0
   29.0212   34.7549   18.8599 C   0  0  0  0  0  0  0  0  0  0  0  0
   29.5818   34.6807   17.7630 O   0  0  0  0  0  0  0  0  0  0  0  0
   28.5124   33.6204   19.4592 N   0  0  0  0  0  0  0  0  0  0  0  0
   27.8756   33.7026   20.6832 C   0  0  0  0  0  0  0  0  0  0  0  0
   27.7450   34.9207   21.3170 C   0  0  1  0  0  0  0  0  0  0  0  0
   27.4257   32.6983   21.2324 O   0  0  0  0  0  0  0  0  0  0  0  0
   26.9808   36.1994   23.1813 C   0  0  2  0  0  0  0  0  0  0  0  0
   27.1099   34.9833   22.5421 N   0  0  0  0  0  0  0  0  0  0  0  0
   26.3390   36.2654   24.4157 C   0  0  0  0  0  0  0  0  0  0  0  0
   26.1970   37.4877   25.0649 C   0  0  1  0  0  0  0  0  0  0  0  0
   25.5108   37.5396   26.4020 C   0  0  0  0  0  0  0  0  0  0  0  0
   26.7053   38.6494   24.4727 C   0  0  1  0  0  0  0  0  0  0  0  0
   26.5811   39.9804   25.1551 C   0  0  0  0  0  0  0  0  0  0  0  0
   27.3466   38.5791   23.2395 C   0  0  0  0  0  0  0  0  0  0  0  0
   27.4881   37.3578   22.5851 C   0  0  2  0  0  0  0  0  0  0  0  0
   28.2573   36.0662   20.7188 C   0  0  2  0  0  0  0  0  0  0  0  0
   28.1197   37.2881   21.3491 N   0  0  0  0  0  0  0  0  0  0  0  0
  1  2  1  1  0  0  0
  1  3  1  0  0  0  0
  1  4  2  0  0  0  0
  1  6  1  0  0  0  0
  5  6  1  0  0  0  0
  7  5  1  6  0  0  0
  7  8  1  0  0  0  0
  7  9  1  0  0  0  0
  9 10  1  6  0  0  0
  9 11  1  0  0  0  0
 11 12  1  1  0  0  0
 11 13  1  0  0  0  0
 13 31  1  0  0  0  0
 14 15  1  0  0  0  0
 15 16  2  0  0  0  0
 15 17  1  0  0  0  0
 17 18  1  0  0  0  0
 18 20  2  0  0  0  0
 19 18  1  1  0  0  0
 19 22  1  0  0  0  0
 19 30  1  0  0  0  0
 21 23  1  6  0  0  0
 21 29  1  0  0  0  0
 21 22  1  0  0  0  0
 23 24  1  0  0  0  0
 24 25  1  1  0  0  0
 24 26  1  0  0  0  0
 26 27  1  1  0  0  0
 26 28  1  0  0  0  0
 29 28  1  6  0  0  0
 29 31  1  0  0  0  0
 30 14  1  6  0  0  0
 30 31  1  0  0  0  0
M  CHG  1   3  -1
M  END
>  <CHROM.1>
-54.05929056,98.94720735,114.89400414,-57.88381439,-67.14514277,67.87926475
-106.21862864,27.63244936,38.48491833,21.76079769,-1.74600102,-1.24788678
-3.00067572

>  <Name>
ligand

>  <RI>
0

>  <Rbt.Current_Directory>
/home/itssahil/PROJECTS/Mol_Feturizer/New_Systems/rnas/3F2Q

>  <Rbt.Executable>
rbdock ($Id: //depot/dev/client3/rdock/2013.1/src/exe/rbdock.cxx#4 $)

>  <Rbt.Library>
libRbt.so (2013.1, Build901 2013/11/27)

>  <Rbt.Parameter_File>
/export/apps/rDock/src/rDock_2013.1_src/data/scripts/dock_solv.prm

>  <Rbt.Receptor>
prm/blind_docking_80.prm

>  <SCORE>
-29.415

>  <SCORE.INTER>
-28.094

>  <SCORE.INTER.CONST>
1

>  <SCORE.INTER.POLAR>
0

>  <SCORE.INTER.ROT>
7

>  <SCORE.INTER.SOLV>
18.0059

>  <SCORE.INTER.VDW>
-32.998

>  <SCORE.INTER.norm>
-0.906259

>  <SCORE.INTRA>
-1.32101

>  <SCORE.INTRA.DIHEDRAL>
-1.07534

>  <SCORE.INTRA.DIHEDRAL.0>
10.0718

>  <SCORE.INTRA.POLAR>
0

>  <SCORE.INTRA.POLAR.0>
0

>  <SCORE.INTRA.REPUL>
0

>  <SCORE.INTRA.REPUL.0>
0

>  <SCORE.INTRA.SOLV>
2.54537

>  <SCORE.INTRA.SOLV.lig_0>
-48.6963

>  <SCORE.INTRA.VDW>
-2.05602

>  <SCORE.INTRA.VDW.0>
-0.836976

>  <SCORE.INTRA.norm>
-0.0426131

>  <SCORE.RESTR>
0

>  <SCORE.RESTR.CAVITY>
0

>  <SCORE.RESTR.norm>
0

>  <SCORE.SYSTEM>
0

>  <SCORE.SYSTEM.CONST>
0

>  <SCORE.SYSTEM.DIHEDRAL>
0

>  <SCORE.SYSTEM.SOLV>
0

>  <SCORE.SYSTEM.norm>
0

>  <SCORE.heavy>
31

>  <SCORE.norm>
-0.948872

>  <RMSD>
3.212

$$$$
ligand
 OpenBabel11021811473D
libRbt.so/2013.1/901 2013/11/27
 31 33  0  0  0  0  0  0  0  0999 V2000
   25.8466   43.0847   17.0935 P   0  0  1  0  0  0  0  0  0  0  0  0
   25.0277   42.8548   18.3458 O   0  0  0  0  0  0  0  0  0  0  0  0
   24.9268   42.9571   15.9091 O   0  5  0  0  0  0  0  0  0  0  0  0
   26.4522   44.4612   17.1144 O   0  0  0  0  0  0  0  0  0  0  0  0
   26.7938   40.6649   16.9246 C   0  0  0  0  0  0  0  0  0  0  0  0
   27.0594   42.0408   17.0499 O   0  0  0  0  0  0  0  0  0  0  0  0
   28.1080   39.8987   16.9597 C   0  0  1  0  0  0  0  0  0  0  0  0
   29.0196   40.5263   16.0830 O   0  0  0  0  0  0  0  0  0  0  0  0
   28.6684   39.8710   18.3816 C   0  0  1  0  0  0  0  0  0  0  0  0
   28.5717   41.1575   18.9544 O   0  0  0  0  0  0  0  0  0  0  0  0
   28.0175   38.8119   19.2821 C   0  0  1  0  0  0  0  0  0  0  0  0
   27.6796   37.6750   18.5191 O   0  0  0  0  0  0  0  0  0  0  0  0
   28.9179   38.3905   20.4324 C   0  0  0  0  0  0  0  0  0  0  0  0
   27.9217   35.9099   21.3479 N   0  0  0  0  0  0  0  0  0  0  0  0
   27.5016   34.6682   21.7793 C   0  0  0  0  0  0  0  0  0  0  0  0
   27.7027   33.6696   21.0826 O   0  0  0  0  0  0  0  0  0  0  0  0
   26.8473   34.5520   22.9891 N   0  0  0  0  0  0  0  0  0  0  0  0
   26.6126   35.6704   23.7666 C   0  0  0  0  0  0  0  0  0  0  0  0
   27.0326   36.9129   23.3397 C   0  0  1  0  0  0  0  0  0  0  0  0
   26.0388   35.5797   24.8506 O   0  0  0  0  0  0  0  0  0  0  0  0
   27.2158   39.2631   23.7104 C   0  0  2  0  0  0  0  0  0  0  0  0
   26.7937   38.0190   24.1320 N   0  0  0  0  0  0  0  0  0  0  0  0
   26.9742   40.3801   24.5065 C   0  0  0  0  0  0  0  0  0  0  0  0
   27.3891   41.6402   24.0869 C   0  0  1  0  0  0  0  0  0  0  0  0
   27.1298   42.8341   24.9636 C   0  0  0  0  0  0  0  0  0  0  0  0
   28.0532   41.7785   22.8628 C   0  0  1  0  0  0  0  0  0  0  0  0
   28.5263   43.1220   22.3898 C   0  0  0  0  0  0  0  0  0  0  0  0
   28.2932   40.6597   22.0705 C   0  0  0  0  0  0  0  0  0  0  0  0
   27.8768   39.3971   22.4856 C   0  0  2  0  0  0  0  0  0  0  0  0
   27.6938   37.0353   22.1230 C   0  0  2  0  0  0  0  0  0  0  0  0
   28.1075   38.2807   21.6906 N   0  0  0  0  0  0  0  0  0  0  0  0
  1  2  1  1  0  0  0
  1  3  1  0  0  0  0
  1  4  2  0  0  0  0
  1  6  1  0  0  0  0
  5  6  1  0  0  0  0
  7  5  1  1  0  0  0
  7  8  1  0  0  0  0
  7  9  1  0  0  0  0
  9 10  1  1  0  0  0
  9 11  1  0  0  0  0
 11 12  1  6  0  0  0
 11 13  1  0  0  0  0
 13 31  1  0  0  0  0
 14 15  1  0  0  0  0
 15 16  2  0  0  0  0
 15 17  1  0  0  0  0
 17 18  1  0  0  0  0
 18 20  2  0  0  0  0
 19 18  1  1  0  0  0
 19 22  1  0  0  0  0
 19 30  1  0  0  0  0
 21 23  1  6  0  0  0
 21 29  1  0  0  0  0
 21 22  1  0  0  0  0
 23 24  1  0  0  0  0
 24 25  1  1  0  0  0
 24 26  1  0  0  0  0
 26 27  1  1  0  0  0
 26 28  1  0  0  0  0
 29 28  1  6  0  0  0
 29 31  1  0  0  0  0
 30 14  1  6  0  0  0
 30 31  1  0  0  0  0
M  CHG  1   3  -1
M  END
>  <CHROM.1>
-177.94732299,65.23434831,-47.41940441,-44.93215492,33.98174316,137.62520496
-85.81782679,27.29755899,39.62396594,20.51623528,2.38872207,1.47733140,-1.58909171

>  <Name>
ligand

>  <RI>
0

>  <Rbt.Current_Directory>
/home/itssahil/PROJECTS/Mol_Feturizer/New_Systems/rnas/3F2Q

>  <Rbt.Executable>
rbdock ($Id: //depot/dev/client3/rdock/2013.1/src/exe/rbdock.cxx#4 $)

>  <Rbt.Library>
libRbt.so (2013.1, Build901 2013/11/27)

>  <Rbt.Parameter_File>
/export/apps/rDock/src/rDock_2013.1_src/data/scripts/dock_solv.prm

>  <Rbt.Receptor>
prm/blind_docking_60.prm

>  <SCORE>
-26.4528

>  <SCORE.INTER>
-24.7294

>  <SCORE.INTER.CONST>
1

>  <SCORE.INTER.POLAR>
0

>  <SCORE.INTER.ROT>
7

>  <SCORE.INTER.SOLV>
18.8187

>  <SCORE.INTER.VDW>
-31.0258

>  <SCORE.INTER.norm>
-0.797723

>  <SCORE.INTRA>
-1.72335

>  <SCORE.INTRA.DIHEDRAL>
-0.789902

>  <SCORE.INTRA.DIHEDRAL.0>
10.0718

>  <SCORE.INTRA.POLAR>
0

>  <SCORE.INTRA.POLAR.0>
0

>  <SCORE.INTRA.REPUL>
0

>  <SCORE.INTRA.REPUL.0>
0

>  <SCORE.INTRA.SOLV>
-0.68303

>  <SCORE.INTRA.SOLV.lig_0>
-48.6963

>  <SCORE.INTRA.VDW>
-0.986889

>  <SCORE.INTRA.VDW.0>
-0.836976

>  <SCORE.INTRA.norm>
-0.0555921

>  <SCORE.RESTR>
0

>  <SCORE.RESTR.CAVITY>
0

>  <SCORE.RESTR.norm>
0

>  <SCORE.SYSTEM>
0

>  <SCORE.SYSTEM.CONST>
0

>  <SCORE.SYSTEM.DIHEDRAL>
0

>  <SCORE.SYSTEM.SOLV>
0

>  <SCORE.SYSTEM.norm>
0

>  <SCORE.heavy>
31

>  <SCORE.norm>
-0.853315

>  <RMSD>
3.293

$$$$
ligand
 OpenBabel11021811473D
libRbt.so/2013.1/901 2013/11/27
 31 33  0  0  0  0  0  0  0  0999 V2000
   25.7044   43.0525   16.3632 P   0  0  1  0  0  0  0  0  0  0  0  0
   26.7188   42.4163   15.4371 O   0  0  0  0  0  0  0  0  0  0  0  0
   25.9873   44.5298   16.4148 O   0  5  0  0  0  0  0  0  0  0  0  0
   24.3117   42.8248   15.8431 O   0  0  0  0  0  0  0  0  0  0  0  0
   26.1043   40.9900   17.9019 C   0  0  0  0  0  0  0  0  0  0  0  0
   25.7858   42.3568   17.8026 O   0  0  0  0  0  0  0  0  0  0  0  0
   25.9906   40.5564   19.3561 C   0  0  1  0  0  0  0  0  0  0  0  0
   24.6240   40.5126   19.7081 O   0  0  0  0  0  0  0  0  0  0  0  0
   26.6364   39.1850   19.5530 C   0  0  1  0  0  0  0  0  0  0  0  0
   25.9805   38.2316   18.7447 O   0  0  0  0  0  0  0  0  0  0  0  0
   28.1515   39.1740   19.3063 C   0  0  1  0  0  0  0  0  0  0  0  0
   28.6518   40.4922   19.3328 O   0  0  0  0  0  0  0  0  0  0  0  0
   28.9031   38.3349   20.3273 C   0  0  0  0  0  0  0  0  0  0  0  0
   27.9062   35.8688   21.2802 N   0  0  0  0  0  0  0  0  0  0  0  0
   27.4855   34.6338   21.7300 C   0  0  0  0  0  0  0  0  0  0  0  0
   27.6800   33.6258   21.0449 O   0  0  0  0  0  0  0  0  0  0  0  0
   26.8381   34.5347   22.9449 N   0  0  0  0  0  0  0  0  0  0  0  0
   26.6107   35.6636   23.7095 C   0  0  0  0  0  0  0  0  0  0  0  0
   27.0313   36.8994   23.2642 C   0  0  1  0  0  0  0  0  0  0  0  0
   26.0431   35.5882   24.7979 O   0  0  0  0  0  0  0  0  0  0  0  0
   27.2225   39.2538   23.6037 C   0  0  2  0  0  0  0  0  0  0  0  0
   26.7997   38.0162   24.0437 N   0  0  0  0  0  0  0  0  0  0  0  0
   26.9884   40.3815   24.3868 C   0  0  0  0  0  0  0  0  0  0  0  0
   27.4039   41.6350   23.9487 C   0  0  1  0  0  0  0  0  0  0  0  0
   27.1527   42.8407   24.8116 C   0  0  0  0  0  0  0  0  0  0  0  0
   28.0612   41.7559   22.7190 C   0  0  1  0  0  0  0  0  0  0  0  0
   28.5348   43.0921   22.2261 C   0  0  0  0  0  0  0  0  0  0  0  0
   28.2937   40.6265   21.9398 C   0  0  0  0  0  0  0  0  0  0  0  0
   27.8766   39.3703   22.3735 C   0  0  2  0  0  0  0  0  0  0  0  0
   27.6856   37.0046   22.0422 C   0  0  2  0  0  0  0  0  0  0  0  0
   28.0999   38.2433   21.5915 N   0  0  0  0  0  0  0  0  0  0  0  0
  1  2  1  6  0  0  0
  1  3  1  0  0  0  0
  1  4  2  0  0  0  0
  1  6  1  0  0  0  0
  5  6  1  0  0  0  0
  7  5  1  6  0  0  0
  7  8  1  0  0  0  0
  7  9  1  0  0  0  0
  9 10  1  6  0  0  0
  9 11  1  0  0  0  0
 11 12  1  1  0  0  0
 11 13  1  0  0  0  0
 13 31  1  0  0  0  0
 14 15  1  0  0  0  0
 15 16  2  0  0  0  0
 15 17  1  0  0  0  0
 17 18  1  0  0  0  0
 18 20  2  0  0  0  0
 19 18  1  1  0  0  0
 19 22  1  0  0  0  0
 19 30  1  0  0  0  0
 21 23  1  6  0  0  0
 21 29  1  0  0  0  0
 21 22  1  0  0  0  0
 23 24  1  0  0  0  0
 24 25  1  1  0  0  0
 24 26  1  0  0  0  0
 26 27  1  1  0  0  0
 26 28  1  0  0  0  0
 29 28  1  6  0  0  0
 29 31  1  0  0  0  0
 30 14  1  6  0  0  0
 30 31  1  0  0  0  0
M  CHG  1   3  -1
M  END
>  <CHROM.1>
-174.88318566,-33.44202738,72.04970685,-60.37406499,16.91600584,-24.48079381
-66.73575955,26.91078414,39.61888645,20.59371305,2.39911084,-1.36894501,0.05539522

>  <Name>
ligand

>  <RI>
0

>  <Rbt.Current_Directory>
/home/itssahil/PROJECTS/Mol_Feturizer/New_Systems/rnas/3F2Q

>  <Rbt.Executable>
rbdock ($Id: //depot/dev/client3/rdock/2013.1/src/exe/rbdock.cxx#4 $)

>  <Rbt.Library>
libRbt.so (2013.1, Build901 2013/11/27)

>  <Rbt.Parameter_File>
/export/apps/rDock/src/rDock_2013.1_src/data/scripts/dock_solv.prm

>  <Rbt.Receptor>
prm/blind_docking_80.prm

>  <SCORE>
-26.722

>  <SCORE.INTER>
-26.3469

>  <SCORE.INTER.CONST>
1

>  <SCORE.INTER.POLAR>
0

>  <SCORE.INTER.ROT>
7

>  <SCORE.INTER.SOLV>
19.7528

>  <SCORE.INTER.VDW>
-32.4155

>  <SCORE.INTER.norm>
-0.8499

>  <SCORE.INTRA>
-0.375122

>  <SCORE.INTRA.DIHEDRAL>
0.631703

>  <SCORE.INTRA.DIHEDRAL.0>
10.0718

>  <SCORE.INTRA.POLAR>
0

>  <SCORE.INTRA.POLAR.0>
0

>  <SCORE.INTRA.REPUL>
0

>  <SCORE.INTRA.REPUL.0>
0

>  <SCORE.INTRA.SOLV>
-1.29641

>  <SCORE.INTRA.SOLV.lig_0>
-48.6963

>  <SCORE.INTRA.VDW>
-0.0427701

>  <SCORE.INTRA.VDW.0>
-0.836976

>  <SCORE.INTRA.norm>
-0.0121007

>  <SCORE.RESTR>
0

>  <SCORE.RESTR.CAVITY>
0

>  <SCORE.RESTR.norm>
0

>  <SCORE.SYSTEM>
0

>  <SCORE.SYSTEM.CONST>
0

>  <SCORE.SYSTEM.DIHEDRAL>
0

>  <SCORE.SYSTEM.SOLV>
0

>  <SCORE.SYSTEM.norm>
0

>  <SCORE.heavy>
31

>  <SCORE.norm>
-0.862001

>  <RMSD>
3.318

$$$$
ligand
 OpenBabel11021811473D
libRbt.so/2013.1/901 2013/11/27
 31 33  0  0  0  0  0  0  0  0999 V2000
   25.7033   43.0924   16.4302 P   0  0  1  0  0  0  0  0  0  0  0  0
   26.1368   44.2531   17.2999 O   0  0  0  0  0  0  0  0  0  0  0  0
   24.2357   42.8586   16.6681 O   0  5  0  0  0  0  0  0  0  0  0  0
   25.9326   43.4162   14.9795 O   0  0  0  0  0  0  0  0  0  0  0  0
   26.2713   41.0021   17.8757 C   0  0  0  0  0  0  0  0  0  0  0  0
   26.5969   41.8083   16.7697 O   0  0  0  0  0  0  0  0  0  0  0  0
   27.3343   39.9253   18.0373 C   0  0  1  0  0  0  0  0  0  0  0  0
   28.5247   40.5316   18.4940 O   0  0  0  0  0  0  0  0  0  0  0  0
   26.8642   38.8600   19.0277 C   0  0  1  0  0  0  0  0  0  0  0  0
   25.6718   38.2686   18.5575 O   0  0  0  0  0  0  0  0  0  0  0  0
   27.9255   37.7961   19.3413 C   0  0  1  0  0  0  0  0  0  0  0  0
   28.7220   37.5621   18.2013 O   0  0  0  0  0  0  0  0  0  0  0  0
   28.8225   38.1912   20.5035 C   0  0  0  0  0  0  0  0  0  0  0  0
   27.7780   35.8117   21.6127 N   0  0  0  0  0  0  0  0  0  0  0  0
   27.3334   34.6165   22.1403 C   0  0  0  0  0  0  0  0  0  0  0  0
   27.5019   33.5639   21.5185 O   0  0  0  0  0  0  0  0  0  0  0  0
   26.6911   34.6074   23.3620 N   0  0  0  0  0  0  0  0  0  0  0  0
   26.4927   35.7863   24.0559 C   0  0  0  0  0  0  0  0  0  0  0  0
   26.9374   36.9826   23.5326 C   0  0  1  0  0  0  0  0  0  0  0  0
   25.9301   35.7912   25.1494 O   0  0  0  0  0  0  0  0  0  0  0  0
   27.1816   39.3487   23.7240 C   0  0  2  0  0  0  0  0  0  0  0  0
   26.7347   38.1504   24.2421 N   0  0  0  0  0  0  0  0  0  0  0  0
   26.9766   40.5277   24.4364 C   0  0  0  0  0  0  0  0  0  0  0  0
   27.4166   41.7421   23.9193 C   0  0  1  0  0  0  0  0  0  0  0  0
   27.1967   43.0044   24.7065 C   0  0  0  0  0  0  0  0  0  0  0  0
   28.0690   41.7719   22.6815 C   0  0  1  0  0  0  0  0  0  0  0  0
   28.5686   43.0641   22.1042 C   0  0  0  0  0  0  0  0  0  0  0  0
   28.2725   40.5915   21.9729 C   0  0  0  0  0  0  0  0  0  0  0  0
   27.8308   39.3741   22.4859 C   0  0  2  0  0  0  0  0  0  0  0  0
   27.5865   36.9972   22.3034 C   0  0  2  0  0  0  0  0  0  0  0  0
   28.0249   38.1961   21.7746 N   0  0  0  0  0  0  0  0  0  0  0  0
  1  2  1  1  0  0  0
  1  3  1  0  0  0  0
  1  4  2  0  0  0  0
  1  6  1  0  0  0  0
  5  6  1  0  0  0  0
  7  5  1  1  0  0  0
  7  8  1  0  0  0  0
  7  9  1  0  0  0  0
  9 10  1  6  0  0  0
  9 11  1  0  0  0  0
 11 12  1  6  0  0  0
 11 13  1  0  0  0  0
 13 31  1  0  0  0  0
 14 15  1  0  0  0  0
 15 16  2  0  0  0  0
 15 17  1  0  0  0  0
 17 18  1  0  0  0  0
 18 20  2  0  0  0  0
 19 18  1  1  0  0  0
 19 22  1  0  0  0  0
 19 30  1  0  0  0  0
 21 23  1  6  0  0  0
 21 29  1  0  0  0  0
 21 22  1  0  0  0  0
 23 24  1  0  0  0  0
 24 25  1  1  0  0  0
 24 26  1  0  0  0  0
 26 27  1  1  0  0  0
 26 28  1  0  0  0  0
 29 28  1  6  0  0  0
 29 31  1  0  0  0  0
 30 14  1  6  0  0  0
 30 31  1  0  0  0  0
M  CHG  1   3  -1
M  END
>  <CHROM.1>
-175.52528418,82.15046411,71.00267989,59.70573542,-33.36423211,68.05049366
-116.23636590,27.05088798,39.48116770,20.56623378,2.74613346,-1.44674399
0.38213771

>  <Name>
ligand

>  <RI>
0

>  <Rbt.Current_Directory>
/home/itssahil/PROJECTS/Mol_Feturizer/New_Systems/rnas/3F2Q

>  <Rbt.Executable>
rbdock ($Id: //depot/dev/client3/rdock/2013.1/src/exe/rbdock.cxx#4 $)

>  <Rbt.Library>
libRbt.so (2013.1, Build901 2013/11/27)

>  <Rbt.Parameter_File>
/export/apps/rDock/src/rDock_2013.1_src/data/scripts/dock_solv.prm

>  <Rbt.Receptor>
prm/blind_docking_80.prm

>  <SCORE>
-30.6345

>  <SCORE.INTER>
-25.8132

>  <SCORE.INTER.CONST>
1

>  <SCORE.INTER.POLAR>
0

>  <SCORE.INTER.ROT>
7

>  <SCORE.INTER.SOLV>
19.8023

>  <SCORE.INTER.VDW>
-32.0763

>  <SCORE.INTER.norm>
-0.832685

>  <SCORE.INTRA>
-4.82121

>  <SCORE.INTRA.DIHEDRAL>
-5.07763

>  <SCORE.INTRA.DIHEDRAL.0>
10.0718

>  <SCORE.INTRA.POLAR>
0

>  <SCORE.INTRA.POLAR.0>
0

>  <SCORE.INTRA.REPUL>
0

>  <SCORE.INTRA.REPUL.0>
0

>  <SCORE.INTRA.SOLV>
-1.21864

>  <SCORE.INTRA.SOLV.lig_0>
-48.6963

>  <SCORE.INTRA.VDW>
-1.67308

>  <SCORE.INTRA.VDW.0>
-0.836976

>  <SCORE.INTRA.norm>
-0.155523

>  <SCORE.RESTR>
0

>  <SCORE.RESTR.CAVITY>
0

>  <SCORE.RESTR.norm>
0

>  <SCORE.SYSTEM>
0

>  <SCORE.SYSTEM.CONST>
0

>  <SCORE.SYSTEM.DIHEDRAL>
0

>  <SCORE.SYSTEM.SOLV>
0

>  <SCORE.SYSTEM.norm>
0

>  <SCORE.heavy>
31

>  <SCORE.norm>
-0.988208

>  <RMSD>
3.368

$$$$
ligand
 OpenBabel11021811473D
libRbt.so/2013.1/901 2013/11/27
 31 33  0  0  0  0  0  0  0  0999 V2000
   27.0319   42.4633   16.4614 P   0  0  1  0  0  0  0  0  0  0  0  0
   27.9348   43.5662   16.9713 O   0  0  0  0  0  0  0  0  0  0  0  0
   26.0140   42.1673   17.5298 O   0  5  0  0  0  0  0  0  0  0  0  0
   26.3305   42.9047   15.2065 O   0  0  0  0  0  0  0  0  0  0  0  0
   29.1302   40.9477   16.7476 C   0  0  0  0  0  0  0  0  0  0  0  0
   27.9156   41.1847   16.0783 O   0  0  0  0  0  0  0  0  0  0  0  0
   28.8366   40.3542   18.1176 C   0  0  1  0  0  0  0  0  0  0  0  0
   28.1251   41.3070   18.8787 O   0  0  0  0  0  0  0  0  0  0  0  0
   28.0217   39.0687   17.9755 C   0  0  1  0  0  0  0  0  0  0  0  0
   28.8222   38.0618   17.3943 O   0  0  0  0  0  0  0  0  0  0  0  0
   27.3918   38.5876   19.2900 C   0  0  1  0  0  0  0  0  0  0  0  0
   26.5786   37.4610   19.0486 O   0  0  0  0  0  0  0  0  0  0  0  0
   28.4320   38.2354   20.3413 C   0  0  0  0  0  0  0  0  0  0  0  0
   27.4285   35.8811   21.5387 N   0  0  0  0  0  0  0  0  0  0  0  0
   27.0001   34.6959   22.1010 C   0  0  0  0  0  0  0  0  0  0  0  0
   27.0451   33.6489   21.4491 O   0  0  0  0  0  0  0  0  0  0  0  0
   26.5125   34.6907   23.3923 N   0  0  0  0  0  0  0  0  0  0  0  0
   26.4522   35.8636   24.1210 C   0  0  0  0  0  0  0  0  0  0  0  0
   26.8812   37.0499   23.5631 C   0  0  1  0  0  0  0  0  0  0  0  0
   26.0285   35.8715   25.2755 O   0  0  0  0  0  0  0  0  0  0  0  0
   27.2500   39.3998   23.7546 C   0  0  2  0  0  0  0  0  0  0  0  0
   26.8181   38.2117   24.3077 N   0  0  0  0  0  0  0  0  0  0  0  0
   27.1855   40.5729   24.5026 C   0  0  0  0  0  0  0  0  0  0  0  0
   27.6113   41.7773   23.9515 C   0  0  1  0  0  0  0  0  0  0  0  0
   27.5448   43.0327   24.7768 C   0  0  0  0  0  0  0  0  0  0  0  0
   28.1079   41.8030   22.6433 C   0  0  1  0  0  0  0  0  0  0  0  0
   28.5889   43.0839   22.0263 C   0  0  0  0  0  0  0  0  0  0  0  0
   28.1713   40.6286   21.8994 C   0  0  0  0  0  0  0  0  0  0  0  0
   27.7432   39.4213   22.4465 C   0  0  2  0  0  0  0  0  0  0  0  0
   27.3750   37.0604   22.2636 C   0  0  2  0  0  0  0  0  0  0  0  0
   27.7972   38.2497   21.7009 N   0  0  0  0  0  0  0  0  0  0  0  0
  1  2  1  1  0  0  0
  1  3  1  0  0  0  0
  1  4  2  0  0  0  0
  1  6  1  0  0  0  0
  5  6  1  0  0  0  0
  7  5  1  6  0  0  0
  7  8  1  0  0  0  0
  7  9  1  0  0  0  0
  9 10  1  1  0  0  0
  9 11  1  0  0  0  0
 11 12  1  6  0  0  0
 11 13  1  0  0  0  0
 13 31  1  0  0  0  0
 14 15  1  0  0  0  0
 15 16  2  0  0  0  0
 15 17  1  0  0  0  0
 17 18  1  0  0  0  0
 18 20  2  0  0  0  0
 19 18  1  1  0  0  0
 19 22  1  0  0  0  0
 19 30  1  0  0  0  0
 21 23  1  6  0  0  0
 21 29  1  0  0  0  0
 21 22  1  0  0  0  0
 23 24  1  0  0  0  0
 24 25  1  1  0  0  0
 24 26  1  0  0  0  0
 26 27  1  1  0  0  0
 26 28  1  0  0  0  0
 29 28  1  6  0  0  0
 29 31  1  0  0  0  0
 30 14  1  6  0  0  0
 30 31  1  0  0  0  0
M  CHG  1   3  -1
M  END
>  <CHROM.1>
77.79836196,28.59986192,-63.69285617,68.86281892,175.51086101,160.07501099
-88.45221530,27.46225378,39.43605590,20.50321036,0.44415384,-1.48833133,-2.00341597

>  <Name>
ligand

>  <RI>
0

>  <Rbt.Current_Directory>
/home/itssahil/PROJECTS/Mol_Feturizer/New_Systems/rnas/3F2Q

>  <Rbt.Executable>
rbdock ($Id: //depot/dev/client3/rdock/2013.1/src/exe/rbdock.cxx#4 $)

>  <Rbt.Library>
libRbt.so (2013.1, Build901 2013/11/27)

>  <Rbt.Parameter_File>
/export/apps/rDock/src/rDock_2013.1_src/data/scripts/dock_solv.prm

>  <Rbt.Receptor>
prm/pocket_docking_6.prm

>  <SCORE>
-29.9821

>  <SCORE.INTER>
-27.2286

>  <SCORE.INTER.CONST>
1

>  <SCORE.INTER.POLAR>
0

>  <SCORE.INTER.ROT>
7

>  <SCORE.INTER.SOLV>
18.1204

>  <SCORE.INTER.VDW>
-32.4592

>  <SCORE.INTER.norm>
-0.878343

>  <SCORE.INTRA>
-2.75342

>  <SCORE.INTRA.DIHEDRAL>
-4.05779

>  <SCORE.INTRA.DIHEDRAL.0>
10.0718

>  <SCORE.INTRA.POLAR>
0

>  <SCORE.INTRA.POLAR.0>
0

>  <SCORE.INTRA.REPUL>
0

>  <SCORE.INTRA.REPUL.0>
0

>  <SCORE.INTRA.SOLV>
2.048

>  <SCORE.INTRA.SOLV.lig_0>
-48.6963

>  <SCORE.INTRA.VDW>
-1.74853

>  <SCORE.INTRA.VDW.0>
-0.836976

>  <SCORE.INTRA.norm>
-0.08882

>  <SCORE.RESTR>
0

>  <SCORE.RESTR.CAVITY>
0

>  <SCORE.RESTR.norm>
0

>  <SCORE.SYSTEM>
0

>  <SCORE.SYSTEM.CONST>
0

>  <SCORE.SYSTEM.DIHEDRAL>
0

>  <SCORE.SYSTEM.SOLV>
0

>  <SCORE.SYSTEM.norm>
0

>  <SCORE.heavy>
31

>  <SCORE.norm>
-0.967163

>  <RMSD>
3.396

$$$$
ligand
 OpenBabel11021811473D
libRbt.so/2013.1/901 2013/11/27
 31 33  0  0  0  0  0  0  0  0999 V2000
   26.0258   43.4054   16.4450 P   0  0  1  0  0  0  0  0  0  0  0  0
   27.3284   44.0306   16.8965 O   0  0  0  0  0  0  0  0  0  0  0  0
   25.0050   44.5038   16.3172 O   0  5  0  0  0  0  0  0  0  0  0  0
   26.2078   42.7301   15.1135 O   0  0  0  0  0  0  0  0  0  0  0  0
   26.5705   41.5467   18.1858 C   0  0  0  0  0  0  0  0  0  0  0  0
   25.5879   42.2726   17.4880 O   0  0  0  0  0  0  0  0  0  0  0  0
   27.0619   40.4039   17.3095 C   0  0  1  0  0  0  0  0  0  0  0  0
   27.7882   40.9459   16.2269 O   0  0  0  0  0  0  0  0  0  0  0  0
   27.9430   39.4541   18.1208 C   0  0  1  0  0  0  0  0  0  0  0  0
   29.1571   40.0959   18.4471 O   0  0  0  0  0  0  0  0  0  0  0  0
   27.2569   38.8935   19.3744 C   0  0  1  0  0  0  0  0  0  0  0  0
   26.2769   37.9496   19.0038 O   0  0  0  0  0  0  0  0  0  0  0  0
   28.2387   38.2416   20.3350 C   0  0  0  0  0  0  0  0  0  0  0  0
   27.2570   35.8738   21.5238 N   0  0  0  0  0  0  0  0  0  0  0  0
   26.8380   34.6818   22.0789 C   0  0  0  0  0  0  0  0  0  0  0  0
   26.8456   33.6480   21.4048 O   0  0  0  0  0  0  0  0  0  0  0  0
   26.4017   34.6552   23.3881 N   0  0  0  0  0  0  0  0  0  0  0  0
   26.3833   35.8136   24.1420 C   0  0  0  0  0  0  0  0  0  0  0  0
   26.8031   37.0065   23.5914 C   0  0  1  0  0  0  0  0  0  0  0  0
   26.0056   35.8023   25.3123 O   0  0  0  0  0  0  0  0  0  0  0  0
   27.2052   39.3481   23.8151 C   0  0  2  0  0  0  0  0  0  0  0  0
   26.7823   38.1535   24.3610 N   0  0  0  0  0  0  0  0  0  0  0  0
   27.1833   40.5062   24.5885 C   0  0  0  0  0  0  0  0  0  0  0  0
   27.6005   41.7173   24.0452 C   0  0  1  0  0  0  0  0  0  0  0  0
   27.5805   42.9561   24.8974 C   0  0  0  0  0  0  0  0  0  0  0  0
   28.0453   41.7646   22.7191 C   0  0  1  0  0  0  0  0  0  0  0  0
   28.5157   43.0528   22.1093 C   0  0  0  0  0  0  0  0  0  0  0  0
   28.0663   40.6050   21.9498 C   0  0  0  0  0  0  0  0  0  0  0  0
   27.6466   39.3913   22.4892 C   0  0  2  0  0  0  0  0  0  0  0  0
   27.2453   37.0386   22.2738 C   0  0  2  0  0  0  0  0  0  0  0  0
   27.6581   38.2347   21.7188 N   0  0  0  0  0  0  0  0  0  0  0  0
  1  2  1  1  0  0  0
  1  3  1  0  0  0  0
  1  4  2  0  0  0  0
  1  6  1  0  0  0  0
  5  6  1  0  0  0  0
  7  5  1  1  0  0  0
  7  8  1  0  0  0  0
  7  9  1  0  0  0  0
  9 10  1  1  0  0  0
  9 11  1  0  0  0  0
 11 12  1  6  0  0  0
 11 13  1  0  0  0  0
 13 31  1  0  0  0  0
 14 15  1  0  0  0  0
 15 16  2  0  0  0  0
 15 17  1  0  0  0  0
 17 18  1  0  0  0  0
 18 20  2  0  0  0  0
 19 18  1  1  0  0  0
 19 22  1  0  0  0  0
 19 30  1  0  0  0  0
 21 23  1  6  0  0  0
 21 29  1  0  0  0  0
 21 22  1  0  0  0  0
 23 24  1  0  0  0  0
 24 25  1  1  0  0  0
 24 26  1  0  0  0  0
 26 27  1  1  0  0  0
 26 28  1  0  0  0  0
 29 28  1  6  0  0  0
 29 31  1  0  0  0  0
 30 14  1  6  0  0  0
 30 31  1  0  0  0  0
M  CHG  1   3  -1
M  END
>  <CHROM.1>
-83.35247265,-30.95126412,68.80311059,-69.21486082,72.32882007,156.69490873
-76.95954509,27.04903500,39.73087045,20.49260828,1.93206751,-1.45934792,-0.45606656

>  <Name>
ligand

>  <RI>
0

>  <Rbt.Current_Directory>
/home/itssahil/PROJECTS/Mol_Feturizer/New_Systems/rnas/3F2Q

>  <Rbt.Executable>
rbdock ($Id: //depot/dev/client3/rdock/2013.1/src/exe/rbdock.cxx#4 $)

>  <Rbt.Library>
libRbt.so (2013.1, Build901 2013/11/27)

>  <Rbt.Parameter_File>
/export/apps/rDock/src/rDock_2013.1_src/data/scripts/dock_solv.prm

>  <Rbt.Receptor>
prm/pocket_docking_8.prm

>  <SCORE>
-28.0069

>  <SCORE.INTER>
-26.2049

>  <SCORE.INTER.CONST>
1

>  <SCORE.INTER.POLAR>
0

>  <SCORE.INTER.ROT>
7

>  <SCORE.INTER.SOLV>
19.7947

>  <SCORE.INTER.VDW>
-32.3348

>  <SCORE.INTER.norm>
-0.845318

>  <SCORE.INTRA>
-1.80205

>  <SCORE.INTRA.DIHEDRAL>
-2.30156

>  <SCORE.INTRA.DIHEDRAL.0>
10.0718

>  <SCORE.INTRA.POLAR>
0

>  <SCORE.INTRA.POLAR.0>
0

>  <SCORE.INTRA.REPUL>
0

>  <SCORE.INTRA.REPUL.0>
0

>  <SCORE.INTRA.SOLV>
0.718017

>  <SCORE.INTRA.SOLV.lig_0>
-48.6963

>  <SCORE.INTRA.VDW>
-1.01028

>  <SCORE.INTRA.VDW.0>
-0.836976

>  <SCORE.INTRA.norm>
-0.0581308

>  <SCORE.RESTR>
0

>  <SCORE.RESTR.CAVITY>
0

>  <SCORE.RESTR.norm>
0

>  <SCORE.SYSTEM>
0

>  <SCORE.SYSTEM.CONST>
0

>  <SCORE.SYSTEM.DIHEDRAL>
0

>  <SCORE.SYSTEM.SOLV>
0

>  <SCORE.SYSTEM.norm>
0

>  <SCORE.heavy>
31

>  <SCORE.norm>
-0.903449

>  <RMSD>
3.420

$$$$
ligand
 OpenBabel11021811473D
libRbt.so/2013.1/901 2013/11/27
 31 33  0  0  0  0  0  0  0  0999 V2000
   24.8292   43.2555   17.0960 P   0  0  1  0  0  0  0  0  0  0  0  0
   25.8082   44.3985   17.2585 O   0  0  0  0  0  0  0  0  0  0  0  0
   24.0384   43.1384   18.3712 O   0  5  0  0  0  0  0  0  0  0  0  0
   23.8962   43.5297   15.9488 O   0  0  0  0  0  0  0  0  0  0  0  0
   26.4464   41.3088   17.7098 C   0  0  0  0  0  0  0  0  0  0  0  0
   25.6284   41.9152   16.7390 O   0  0  0  0  0  0  0  0  0  0  0  0
   27.2561   40.1987   17.0560 C   0  0  1  0  0  0  0  0  0  0  0  0
   28.0321   40.7581   16.0176 O   0  0  0  0  0  0  0  0  0  0  0  0
   28.1563   39.5198   18.0883 C   0  0  1  0  0  0  0  0  0  0  0  0
   29.1322   40.4339   18.5405 O   0  0  0  0  0  0  0  0  0  0  0  0
   27.3894   38.8993   19.2644 C   0  0  1  0  0  0  0  0  0  0  0  0
   26.4216   37.9939   18.7822 O   0  0  0  0  0  0  0  0  0  0  0  0
   28.3035   38.1780   20.2419 C   0  0  0  0  0  0  0  0  0  0  0  0
   27.3268   35.8150   21.4442 N   0  0  0  0  0  0  0  0  0  0  0  0
   26.9115   34.6259   22.0083 C   0  0  0  0  0  0  0  0  0  0  0  0
   26.9553   33.5808   21.3532 O   0  0  0  0  0  0  0  0  0  0  0  0
   26.4383   34.6147   23.3048 N   0  0  0  0  0  0  0  0  0  0  0  0
   26.3794   35.7855   24.0371 C   0  0  0  0  0  0  0  0  0  0  0  0
   26.7953   36.9756   23.4775 C   0  0  1  0  0  0  0  0  0  0  0  0
   25.9684   35.7881   25.1963 O   0  0  0  0  0  0  0  0  0  0  0  0
   27.1527   39.3271   23.6709 C   0  0  2  0  0  0  0  0  0  0  0  0
   26.7338   38.1352   24.2257 N   0  0  0  0  0  0  0  0  0  0  0  0
   27.0897   40.4979   24.4226 C   0  0  0  0  0  0  0  0  0  0  0  0
   27.5025   41.7062   23.8699 C   0  0  1  0  0  0  0  0  0  0  0  0
   27.4379   42.9591   24.6990 C   0  0  0  0  0  0  0  0  0  0  0  0
   27.9845   41.7380   22.5564 C   0  0  1  0  0  0  0  0  0  0  0  0
   28.4512   43.0231   21.9373 C   0  0  0  0  0  0  0  0  0  0  0  0
   28.0464   40.5658   21.8088 C   0  0  0  0  0  0  0  0  0  0  0  0
   27.6312   39.3547   22.3575 C   0  0  2  0  0  0  0  0  0  0  0  0
   27.2746   36.9922   22.1727 C   0  0  2  0  0  0  0  0  0  0  0  0
   27.6837   38.1852   21.6084 N   0  0  0  0  0  0  0  0  0  0  0  0
  1  2  1  1  0  0  0
  1  3  1  0  0  0  0
  1  4  2  0  0  0  0
  1  6  1  0  0  0  0
  5  6  1  0  0  0  0
  7  5  1  1  0  0  0
  7  8  1  0  0  0  0
  7  9  1  0  0  0  0
  9 10  1  1  0  0  0
  9 11  1  0  0  0  0
 11 12  1  6  0  0  0
 11 13  1  0  0  0  0
 13 31  1  0  0  0  0
 14 15  1  0  0  0  0
 15 16  2  0  0  0  0
 15 17  1  0  0  0  0
 17 18  1  0  0  0  0
 18 20  2  0  0  0  0
 19 18  1  1  0  0  0
 19 22  1  0  0  0  0
 19 30  1  0  0  0  0
 21 23  1  6  0  0  0
 21 29  1  0  0  0  0
 21 22  1  0  0  0  0
 23 24  1  0  0  0  0
 24 25  1  1  0  0  0
 24 26  1  0  0  0  0
 26 27  1  1  0  0  0
 26 28  1  0  0  0  0
 29 28  1  6  0  0  0
 29 31  1  0  0  0  0
 30 14  1  6  0  0  0
 30 31  1  0  0  0  0
M  CHG  1   3  -1
M  END
>  <CHROM.1>
-170.91999743,69.20889325,58.84160272,-66.03635985,55.53994223,152.76243328
-72.29944020,26.81493439,39.67714843,20.51924610,2.73205828,-1.42200236,0.39247481

>  <Name>
ligand

>  <RI>
0

>  <Rbt.Current_Directory>
/home/itssahil/PROJECTS/Mol_Feturizer/New_Systems/rnas/3F2Q

>  <Rbt.Executable>
rbdock ($Id: //depot/dev/client3/rdock/2013.1/src/exe/rbdock.cxx#4 $)

>  <Rbt.Library>
libRbt.so (2013.1, Build901 2013/11/27)

>  <Rbt.Parameter_File>
/export/apps/rDock/src/rDock_2013.1_src/data/scripts/dock_solv.prm

>  <Rbt.Receptor>
prm/pocket_docking_7.prm

>  <SCORE>
-29.3903

>  <SCORE.INTER>
-24.5984

>  <SCORE.INTER.CONST>
1

>  <SCORE.INTER.POLAR>
0

>  <SCORE.INTER.ROT>
7

>  <SCORE.INTER.SOLV>
17.9609

>  <SCORE.INTER.VDW>
-30.6526

>  <SCORE.INTER.norm>
-0.793498

>  <SCORE.INTRA>
-4.79182

>  <SCORE.INTRA.DIHEDRAL>
-5.63856

>  <SCORE.INTRA.DIHEDRAL.0>
10.0718

>  <SCORE.INTRA.POLAR>
0

>  <SCORE.INTRA.POLAR.0>
0

>  <SCORE.INTRA.REPUL>
0

>  <SCORE.INTRA.REPUL.0>
0

>  <SCORE.INTRA.SOLV>
-1.48824

>  <SCORE.INTRA.SOLV.lig_0>
-48.6963

>  <SCORE.INTRA.VDW>
-1.22842

>  <SCORE.INTRA.VDW.0>
-0.836976

>  <SCORE.INTRA.norm>
-0.154575

>  <SCORE.RESTR>
0

>  <SCORE.RESTR.CAVITY>
0

>  <SCORE.RESTR.norm>
0

>  <SCORE.SYSTEM>
0

>  <SCORE.SYSTEM.CONST>
0

>  <SCORE.SYSTEM.DIHEDRAL>
0

>  <SCORE.SYSTEM.SOLV>
0

>  <SCORE.SYSTEM.norm>
0

>  <SCORE.heavy>
31

>  <SCORE.norm>
-0.948073

>  <RMSD>
3.449

$$$$
ligand
 OpenBabel11021811473D
libRbt.so/2013.1/901 2013/11/27
 31 33  0  0  0  0  0  0  0  0999 V2000
   26.2770   43.3635   16.3812 P   0  0  1  0  0  0  0  0  0  0  0  0
   26.3100   42.6521   15.0454 O   0  0  0  0  0  0  0  0  0  0  0  0
   27.6638   43.8725   16.6689 O   0  5  0  0  0  0  0  0  0  0  0  0
   25.3170   44.5201   16.3301 O   0  0  0  0  0  0  0  0  0  0  0  0
   26.2318   41.0426   17.5614 C   0  0  0  0  0  0  0  0  0  0  0  0
   25.7408   42.3599   17.5071 O   0  0  0  0  0  0  0  0  0  0  0  0
   27.7137   41.0772   17.9052 C   0  0  1  0  0  0  0  0  0  0  0  0
   27.9207   42.0453   18.9118 O   0  0  0  0  0  0  0  0  0  0  0  0
   28.1798   39.7022   18.3836 C   0  0  1  0  0  0  0  0  0  0  0  0
   29.5664   39.7362   18.6457 O   0  0  0  0  0  0  0  0  0  0  0  0
   27.3988   39.1713   19.5938 C   0  0  1  0  0  0  0  0  0  0  0  0
   26.3086   38.3907   19.1568 O   0  0  0  0  0  0  0  0  0  0  0  0
   28.2639   38.3405   20.5281 C   0  0  0  0  0  0  0  0  0  0  0  0
   27.2368   35.9786   21.6900 N   0  0  0  0  0  0  0  0  0  0  0  0
   26.7957   34.7890   22.2329 C   0  0  0  0  0  0  0  0  0  0  0  0
   26.8050   33.7576   21.5552 O   0  0  0  0  0  0  0  0  0  0  0  0
   26.3355   34.7622   23.5339 N   0  0  0  0  0  0  0  0  0  0  0  0
   26.3152   35.9180   24.2917 C   0  0  0  0  0  0  0  0  0  0  0  0
   26.7570   37.1085   23.7533 C   0  0  1  0  0  0  0  0  0  0  0  0
   25.9162   35.9063   25.4549 O   0  0  0  0  0  0  0  0  0  0  0  0
   27.1788   39.4450   23.9931 C   0  0  2  0  0  0  0  0  0  0  0  0
   26.7339   38.2528   24.5267 N   0  0  0  0  0  0  0  0  0  0  0  0
   27.1546   40.6005   24.7704 C   0  0  0  0  0  0  0  0  0  0  0  0
   27.5939   41.8092   24.2393 C   0  0  1  0  0  0  0  0  0  0  0  0
   27.5711   43.0451   25.0956 C   0  0  0  0  0  0  0  0  0  0  0  0
   28.0631   41.8567   22.9216 C   0  0  1  0  0  0  0  0  0  0  0  0
   28.5577   43.1422   22.3252 C   0  0  0  0  0  0  0  0  0  0  0  0
   28.0863   40.6997   22.1485 C   0  0  0  0  0  0  0  0  0  0  0  0
   27.6446   39.4884   22.6756 C   0  0  2  0  0  0  0  0  0  0  0  0
   27.2233   37.1407   22.4440 C   0  0  2  0  0  0  0  0  0  0  0  0
   27.6583   38.3345   21.9011 N   0  0  0  0  0  0  0  0  0  0  0  0
  1  2  1  6  0  0  0
  1  3  1  0  0  0  0
  1  4  2  0  0  0  0
  1  6  1  0  0  0  0
  5  6  1  0  0  0  0
  7  5  1  1  0  0  0
  7  8  1  0  0  0  0
  7  9  1  0  0  0  0
  9 10  1  1  0  0  0
  9 11  1  0  0  0  0
 11 12  1  6  0  0  0
 11 13  1  0  0  0  0
 13 31  1  0  0  0  0
 14 15  1  0  0  0  0
 15 16  2  0  0  0  0
 15 17  1  0  0  0  0
 17 18  1  0  0  0  0
 18 20  2  0  0  0  0
 19 18  1  1  0  0  0
 19 22  1  0  0  0  0
 19 30  1  0  0  0  0
 21 23  1  6  0  0  0
 21 29  1  0  0  0  0
 21 22  1  0  0  0  0
 23 24  1  0  0  0  0
 24 25  1  1  0  0  0
 24 26  1  0  0  0  0
 26 27  1  1  0  0  0
 26 28  1  0  0  0  0
 29 28  1  6  0  0  0
 29 31  1  0  0  0  0
 30 14  1  6  0  0  0
 30 31  1  0  0  0  0
M  CHG  1   3  -1
M  END
>  <CHROM.1>
65.16345458,44.91157354,41.75691469,177.59812728,91.87213195,156.76124474
-69.19398647,27.12595745,39.84032068,20.69756034,1.68900545,-1.44299554,-0.70289788

>  <Name>
ligand

>  <RI>
0

>  <Rbt.Current_Directory>
/home/itssahil/PROJECTS/Mol_Feturizer/New_Systems/rnas/3F2Q

>  <Rbt.Executable>
rbdock ($Id: //depot/dev/client3/rdock/2013.1/src/exe/rbdock.cxx#4 $)

>  <Rbt.Library>
libRbt.so (2013.1, Build901 2013/11/27)

>  <Rbt.Parameter_File>
/export/apps/rDock/src/rDock_2013.1_src/data/scripts/dock_solv.prm

>  <Rbt.Receptor>
prm/pocket_docking_6.prm

>  <SCORE>
-26.715

>  <SCORE.INTER>
-25.6304

>  <SCORE.INTER.CONST>
1

>  <SCORE.INTER.POLAR>
0

>  <SCORE.INTER.ROT>
7

>  <SCORE.INTER.SOLV>
20.4459

>  <SCORE.INTER.VDW>
-32.1689

>  <SCORE.INTER.norm>
-0.826788

>  <SCORE.INTRA>
-1.0846

>  <SCORE.INTRA.DIHEDRAL>
-2.44552

>  <SCORE.INTRA.DIHEDRAL.0>
10.0718

>  <SCORE.INTRA.POLAR>
0

>  <SCORE.INTRA.POLAR.0>
0

>  <SCORE.INTRA.REPUL>
0

>  <SCORE.INTRA.REPUL.0>
0

>  <SCORE.INTRA.SOLV>
1.16925

>  <SCORE.INTRA.SOLV.lig_0>
-48.6963

>  <SCORE.INTRA.VDW>
-0.446462

>  <SCORE.INTRA.VDW.0>
-0.836976

>  <SCORE.INTRA.norm>
-0.0349871

>  <SCORE.RESTR>
0

>  <SCORE.RESTR.CAVITY>
0

>  <SCORE.RESTR.norm>
0

>  <SCORE.SYSTEM>
0

>  <SCORE.SYSTEM.CONST>
0

>  <SCORE.SYSTEM.DIHEDRAL>
0

>  <SCORE.SYSTEM.SOLV>
0

>  <SCORE.SYSTEM.norm>
0

>  <SCORE.heavy>
31

>  <SCORE.norm>
-0.861775

>  <RMSD>
3.475

$$$$
ligand
 OpenBabel11021811473D
libRbt.so/2013.1/901 2013/11/27
 31 33  0  0  0  0  0  0  0  0999 V2000
   27.1263   42.5287   16.8506 P   0  0  1  0  0  0  0  0  0  0  0  0
   27.5718   43.9740   16.7851 O   0  0  0  0  0  0  0  0  0  0  0  0
   26.1333   42.2998   15.7431 O   0  5  0  0  0  0  0  0  0  0  0  0
   28.3050   41.6130   16.6670 O   0  0  0  0  0  0  0  0  0  0  0  0
   26.0375   40.9352   18.5990 C   0  0  0  0  0  0  0  0  0  0  0  0
   26.5178   42.2232   18.2994 O   0  0  0  0  0  0  0  0  0  0  0  0
   27.2089   39.9653   18.6469 C   0  0  1  0  0  0  0  0  0  0  0  0
   28.2430   40.5447   19.4139 O   0  0  0  0  0  0  0  0  0  0  0  0
   26.7717   38.6348   19.2595 C   0  0  1  0  0  0  0  0  0  0  0  0
   25.8257   38.0128   18.4164 O   0  0  0  0  0  0  0  0  0  0  0  0
   27.9374   37.6886   19.5793 C   0  0  1  0  0  0  0  0  0  0  0  0
   28.7635   37.5444   18.4454 O   0  0  0  0  0  0  0  0  0  0  0  0
   28.7779   38.1728   20.7500 C   0  0  0  0  0  0  0  0  0  0  0  0
   27.6742   35.8205   21.8602 N   0  0  0  0  0  0  0  0  0  0  0  0
   27.2008   34.6380   22.3911 C   0  0  0  0  0  0  0  0  0  0  0  0
   27.3809   33.5740   21.7922 O   0  0  0  0  0  0  0  0  0  0  0  0
   26.5168   34.6541   23.5899 N   0  0  0  0  0  0  0  0  0  0  0  0
   26.3056   35.8458   24.2576 C   0  0  0  0  0  0  0  0  0  0  0  0
   26.7789   37.0295   23.7311 C   0  0  1  0  0  0  0  0  0  0  0  0
   25.7057   35.8732   25.3309 O   0  0  0  0  0  0  0  0  0  0  0  0
   27.0380   39.3962   23.8932 C   0  0  2  0  0  0  0  0  0  0  0  0
   26.5626   38.2104   24.4145 N   0  0  0  0  0  0  0  0  0  0  0  0
   26.8194   40.5884   24.5794 C   0  0  0  0  0  0  0  0  0  0  0  0
   27.2880   41.7904   24.0585 C   0  0  1  0  0  0  0  0  0  0  0  0
   27.0528   43.0671   24.8175 C   0  0  0  0  0  0  0  0  0  0  0  0
   27.9828   41.7946   22.8436 C   0  0  1  0  0  0  0  0  0  0  0  0
   28.5137   43.0729   22.2634 C   0  0  0  0  0  0  0  0  0  0  0  0
   28.1997   40.6011   22.1613 C   0  0  0  0  0  0  0  0  0  0  0  0
   27.7296   39.3961   22.6780 C   0  0  2  0  0  0  0  0  0  0  0  0
   27.4700   37.0187   22.5250 C   0  0  2  0  0  0  0  0  0  0  0  0
   27.9372   38.2050   21.9926 N   0  0  0  0  0  0  0  0  0  0  0  0
  1  2  1  6  0  0  0
  1  3  1  0  0  0  0
  1  4  2  0  0  0  0
  1  6  1  0  0  0  0
  5  6  1  0  0  0  0
  7  5  1  1  0  0  0
  7  8  1  0  0  0  0
  7  9  1  0  0  0  0
  9 10  1  6  0  0  0
  9 11  1  0  0  0  0
 11 12  1  6  0  0  0
 11 13  1  0  0  0  0
 13 31  1  0  0  0  0
 14 15  1  0  0  0  0
 15 16  2  0  0  0  0
 15 17  1  0  0  0  0
 17 18  1  0  0  0  0
 18 20  2  0  0  0  0
 19 18  1  1  0  0  0
 19 22  1  0  0  0  0
 19 30  1  0  0  0  0
 21 23  1  6  0  0  0
 21 29  1  0  0  0  0
 21 22  1  0  0  0  0
 23 24  1  0  0  0  0
 24 25  1  1  0  0  0
 24 26  1  0  0  0  0
 26 27  1  1  0  0  0
 26 28  1  0  0  0  0
 29 28  1  6  0  0  0
 29 31  1  0  0  0  0
 30 14  1  6  0  0  0
 30 31  1  0  0  0  0
M  CHG  1   3  -1
M  END
>  <CHROM.1>
68.13773376,-179.86692998,46.65277477,65.20366621,-51.32533303,63.01905077
-119.51174355,27.26201914,39.36152739,20.85929711,0.34201272,-1.53063030
-2.02884778

>  <Name>
ligand

>  <RI>
0

>  <Rbt.Current_Directory>
/home/itssahil/PROJECTS/Mol_Feturizer/New_Systems/rnas/3F2Q

>  <Rbt.Executable>
rbdock ($Id: //depot/dev/client3/rdock/2013.1/src/exe/rbdock.cxx#4 $)

>  <Rbt.Library>
libRbt.so (2013.1, Build901 2013/11/27)

>  <Rbt.Parameter_File>
/export/apps/rDock/src/rDock_2013.1_src/data/scripts/dock_solv.prm

>  <Rbt.Receptor>
prm/pocket_docking_4.prm

>  <SCORE>
-30.2636

>  <SCORE.INTER>
-26.6157

>  <SCORE.INTER.CONST>
1

>  <SCORE.INTER.POLAR>
0

>  <SCORE.INTER.ROT>
7

>  <SCORE.INTER.SOLV>
18.0214

>  <SCORE.INTER.VDW>
-32.0176

>  <SCORE.INTER.norm>
-0.858571

>  <SCORE.INTRA>
-3.64789

>  <SCORE.INTRA.DIHEDRAL>
-7.37418

>  <SCORE.INTRA.DIHEDRAL.0>
10.0718

>  <SCORE.INTRA.POLAR>
0

>  <SCORE.INTRA.POLAR.0>
0

>  <SCORE.INTRA.REPUL>
0

>  <SCORE.INTRA.REPUL.0>
0

>  <SCORE.INTRA.SOLV>
2.28664

>  <SCORE.INTRA.SOLV.lig_0>
-48.6963

>  <SCORE.INTRA.VDW>
-1.10412

>  <SCORE.INTRA.VDW.0>
-0.836976

>  <SCORE.INTRA.norm>
-0.117674

>  <SCORE.RESTR>
0

>  <SCORE.RESTR.CAVITY>
0

>  <SCORE.RESTR.norm>
0

>  <SCORE.SYSTEM>
0

>  <SCORE.SYSTEM.CONST>
0

>  <SCORE.SYSTEM.DIHEDRAL>
0

>  <SCORE.SYSTEM.SOLV>
0

>  <SCORE.SYSTEM.norm>
0

>  <SCORE.heavy>
31

>  <SCORE.norm>
-0.976244

>  <RMSD>
3.482

$$$$
ligand
 OpenBabel11021811473D
libRbt.so/2013.1/901 2013/11/27
 31 33  0  0  0  0  0  0  0  0999 V2000
   25.2434   41.4657   19.5375 P   0  0  1  0  0  0  0  0  0  0  0  0
   25.0779   42.7436   18.7430 O   0  0  0  0  0  0  0  0  0  0  0  0
   25.2780   41.8295   20.9975 O   0  5  0  0  0  0  0  0  0  0  0  0
   24.0879   40.5390   19.2771 O   0  0  0  0  0  0  0  0  0  0  0  0
   26.8476   40.5865   17.6841 C   0  0  0  0  0  0  0  0  0  0  0  0
   26.5689   40.7071   19.0578 O   0  0  0  0  0  0  0  0  0  0  0  0
   28.1161   39.7659   17.5033 C   0  0  1  0  0  0  0  0  0  0  0  0
   29.0842   40.2235   18.4235 O   0  0  0  0  0  0  0  0  0  0  0  0
   27.8251   38.2822   17.7287 C   0  0  1  0  0  0  0  0  0  0  0  0
   28.9876   37.5258   17.4661 O   0  0  0  0  0  0  0  0  0  0  0  0
   27.2607   37.9676   19.1211 C   0  0  1  0  0  0  0  0  0  0  0  0
   26.5874   36.7286   19.0975 O   0  0  0  0  0  0  0  0  0  0  0  0
   28.3384   37.9288   20.1928 C   0  0  0  0  0  0  0  0  0  0  0  0
   27.3807   35.5906   21.4575 N   0  0  0  0  0  0  0  0  0  0  0  0
   26.9755   34.4139   22.0539 C   0  0  0  0  0  0  0  0  0  0  0  0
   27.0444   33.3492   21.4336 O   0  0  0  0  0  0  0  0  0  0  0  0
   26.4842   34.4370   23.3435 N   0  0  0  0  0  0  0  0  0  0  0  0
   26.3972   35.6296   24.0368 C   0  0  0  0  0  0  0  0  0  0  0  0
   26.8030   36.8075   23.4447 C   0  0  1  0  0  0  0  0  0  0  0  0
   25.9699   35.6630   25.1895 O   0  0  0  0  0  0  0  0  0  0  0  0
   27.1219   39.1693   23.5669 C   0  0  2  0  0  0  0  0  0  0  0  0
   26.7133   37.9894   24.1542 N   0  0  0  0  0  0  0  0  0  0  0  0
   27.0306   40.3625   24.2795 C   0  0  0  0  0  0  0  0  0  0  0  0
   27.4328   41.5587   23.6937 C   0  0  1  0  0  0  0  0  0  0  0  0
   27.3375   42.8364   24.4810 C   0  0  0  0  0  0  0  0  0  0  0  0
   27.9327   41.5558   22.3865 C   0  0  1  0  0  0  0  0  0  0  0  0
   28.3887   42.8275   21.7327 C   0  0  0  0  0  0  0  0  0  0  0  0
   28.0230   40.3613   21.6781 C   0  0  0  0  0  0  0  0  0  0  0  0
   27.6185   39.1622   22.2600 C   0  0  2  0  0  0  0  0  0  0  0  0
   27.3003   36.7897   22.1467 C   0  0  2  0  0  0  0  0  0  0  0  0
   27.6993   37.9702   21.5499 N   0  0  0  0  0  0  0  0  0  0  0  0
  1  2  1  6  0  0  0
  1  3  1  0  0  0  0
  1  4  2  0  0  0  0
  1  6  1  0  0  0  0
  5  6  1  0  0  0  0
  7  5  1  1  0  0  0
  7  8  1  0  0  0  0
  7  9  1  0  0  0  0
  9 10  1  1  0  0  0
  9 11  1  0  0  0  0
 11 12  1  6  0  0  0
 11 13  1  0  0  0  0
 13 31  1  0  0  0  0
 14 15  1  0  0  0  0
 15 16  2  0  0  0  0
 15 17  1  0  0  0  0
 17 18  1  0  0  0  0
 18 20  2  0  0  0  0
 19 18  1  1  0  0  0
 19 22  1  0  0  0  0
 19 30  1  0  0  0  0
 21 23  1  6  0  0  0
 21 29  1  0  0  0  0
 21 22  1  0  0  0  0
 23 24  1  0  0  0  0
 24 25  1  1  0  0  0
 24 26  1  0  0  0  0
 26 27  1  1  0  0  0
 26 28  1  0  0  0  0
 29 28  1  6  0  0  0
 29 31  1  0  0  0  0
 30 14  1  6  0  0  0
 30 31  1  0  0  0  0
M  CHG  1   3  -1
M  END
>  <CHROM.1>
-177.03904033,-44.42889069,-45.01737494,175.91212271,159.09086171,165.59102683
-98.95777146,26.96290712,38.92949350,21.05466418,1.97996503,1.45839439,-0.89784547

>  <Name>
ligand

>  <RI>
0

>  <Rbt.Current_Directory>
/home/itssahil/PROJECTS/Mol_Feturizer/New_Systems/rnas/3F2Q

>  <Rbt.Executable>
rbdock ($Id: //depot/dev/client3/rdock/2013.1/src/exe/rbdock.cxx#4 $)

>  <Rbt.Library>
libRbt.so (2013.1, Build901 2013/11/27)

>  <Rbt.Parameter_File>
/export/apps/rDock/src/rDock_2013.1_src/data/scripts/dock_solv.prm

>  <Rbt.Receptor>
prm/pocket_docking_4.prm

>  <SCORE>
-29.0562

>  <SCORE.INTER>
-24.2739

>  <SCORE.INTER.CONST>
1

>  <SCORE.INTER.POLAR>
0

>  <SCORE.INTER.ROT>
7

>  <SCORE.INTER.SOLV>
16.6912

>  <SCORE.INTER.VDW>
-30.013

>  <SCORE.INTER.norm>
-0.78303

>  <SCORE.INTRA>
-4.85737

>  <SCORE.INTRA.DIHEDRAL>
-5.12063

>  <SCORE.INTRA.DIHEDRAL.0>
10.0718

>  <SCORE.INTRA.POLAR>
0

>  <SCORE.INTRA.POLAR.0>
0

>  <SCORE.INTRA.REPUL>
0

>  <SCORE.INTRA.REPUL.0>
0

>  <SCORE.INTRA.SOLV>
2.2569

>  <SCORE.INTRA.SOLV.lig_0>
-48.6963

>  <SCORE.INTRA.VDW>
-3.4255

>  <SCORE.INTRA.VDW.0>
-0.836976

>  <SCORE.INTRA.norm>
-0.156689

>  <SCORE.RESTR>
0.0750909

>  <SCORE.RESTR.CAVITY>
0.0750909

>  <SCORE.RESTR.norm>
0.00242229

>  <SCORE.SYSTEM>
0

>  <SCORE.SYSTEM.CONST>
0

>  <SCORE.SYSTEM.DIHEDRAL>
0

>  <SCORE.SYSTEM.SOLV>
0

>  <SCORE.SYSTEM.norm>
0

>  <SCORE.heavy>
31

>  <SCORE.norm>
-0.937297

>  <RMSD>
3.548

$$$$
ligand
 OpenBabel11021811473D
libRbt.so/2013.1/901 2013/11/27
 31 33  0  0  0  0  0  0  0  0999 V2000
   25.9240   42.6402   16.6870 P   0  0  1  0  0  0  0  0  0  0  0  0
   26.8584   43.6295   17.3502 O   0  0  0  0  0  0  0  0  0  0  0  0
   25.0127   42.0821   17.7469 O   0  5  0  0  0  0  0  0  0  0  0  0
   25.1045   43.3280   15.6300 O   0  0  0  0  0  0  0  0  0  0  0  0
   27.7864   40.8203   16.6563 C   0  0  0  0  0  0  0  0  0  0  0  0
   26.7820   41.5073   15.9502 O   0  0  0  0  0  0  0  0  0  0  0  0
   27.1352   39.8554   17.6363 C   0  0  1  0  0  0  0  0  0  0  0  0
   26.7213   38.7055   16.9293 O   0  0  0  0  0  0  0  0  0  0  0  0
   28.1207   39.4760   18.7416 C   0  0  1  0  0  0  0  0  0  0  0  0
   28.4667   40.6260   19.4835 O   0  0  0  0  0  0  0  0  0  0  0  0
   27.6176   38.3535   19.6598 C   0  0  1  0  0  0  0  0  0  0  0  0
   27.4856   37.1562   18.9263 O   0  0  0  0  0  0  0  0  0  0  0  0
   28.5382   38.1126   20.8456 C   0  0  0  0  0  0  0  0  0  0  0  0
   27.3872   35.8202   22.0304 N   0  0  0  0  0  0  0  0  0  0  0  0
   26.8888   34.6641   22.5957 C   0  0  0  0  0  0  0  0  0  0  0  0
   27.0035   33.5864   22.0053 O   0  0  0  0  0  0  0  0  0  0  0  0
   26.2535   34.7224   23.8197 N   0  0  0  0  0  0  0  0  0  0  0  0
   26.1155   35.9298   24.4783 C   0  0  0  0  0  0  0  0  0  0  0  0
   26.6140   37.0871   23.9174 C   0  0  1  0  0  0  0  0  0  0  0  0
   25.5597   35.9945   25.5735 O   0  0  0  0  0  0  0  0  0  0  0  0
   26.9720   39.4435   24.0361 C   0  0  2  0  0  0  0  0  0  0  0  0
   26.4712   38.2841   24.5920 N   0  0  0  0  0  0  0  0  0  0  0  0
   26.8275   40.6519   24.7134 C   0  0  0  0  0  0  0  0  0  0  0  0
   27.3222   41.8277   24.1580 C   0  0  1  0  0  0  0  0  0  0  0  0
   27.1672   43.1221   24.9076 C   0  0  0  0  0  0  0  0  0  0  0  0
   27.9686   41.7890   22.9173 C   0  0  1  0  0  0  0  0  0  0  0  0
   28.5262   43.0379   22.2992 C   0  0  0  0  0  0  0  0  0  0  0  0
   28.1115   40.5794   22.2440 C   0  0  0  0  0  0  0  0  0  0  0  0
   27.6150   39.4006   22.7953 C   0  0  2  0  0  0  0  0  0  0  0  0
   27.2564   37.0337   22.6857 C   0  0  2  0  0  0  0  0  0  0  0  0
   27.7487   38.1938   22.1192 N   0  0  0  0  0  0  0  0  0  0  0  0
  1  2  1  1  0  0  0
  1  3  1  0  0  0  0
  1  4  2  0  0  0  0
  1  6  1  0  0  0  0
  5  6  1  0  0  0  0
  7  5  1  6  0  0  0
  7  8  1  0  0  0  0
  7  9  1  0  0  0  0
  9 10  1  1  0  0  0
  9 11  1  0  0  0  0
 11 12  1  6  0  0  0
 11 13  1  0  0  0  0
 13 31  1  0  0  0  0
 14 15  1  0  0  0  0
 15 16  2  0  0  0  0
 15 17  1  0  0  0  0
 17 18  1  0  0  0  0
 18 20  2  0  0  0  0
 19 18  1  1  0  0  0
 19 22  1  0  0  0  0
 19 30  1  0  0  0  0
 21 23  1  6  0  0  0
 21 29  1  0  0  0  0
 21 22  1  0  0  0  0
 23 24  1  0  0  0  0
 24 25  1  1  0  0  0
 24 26  1  0  0  0  0
 26 27  1  1  0  0  0
 26 28  1  0  0  0  0
 29 28  1  6  0  0  0
 29 31  1  0  0  0  0
 30 14  1  6  0  0  0
 30 31  1  0  0  0  0
M  CHG  1   3  -1
M  END
>  <CHROM.1>
72.99198292,51.68553197,79.21929109,63.10094707,65.06298054,126.04242304
-90.89545101,27.00759813,39.45143224,20.76614301,2.12144439,-1.50595510,-0.34625653

>  <Name>
ligand

>  <RI>
0

>  <Rbt.Current_Directory>
/home/itssahil/PROJECTS/Mol_Feturizer/New_Systems/rnas/3F2Q

>  <Rbt.Executable>
rbdock ($Id: //depot/dev/client3/rdock/2013.1/src/exe/rbdock.cxx#4 $)

>  <Rbt.Library>
libRbt.so (2013.1, Build901 2013/11/27)

>  <Rbt.Parameter_File>
/export/apps/rDock/src/rDock_2013.1_src/data/scripts/dock_solv.prm

>  <Rbt.Receptor>
prm/blind_docking_60.prm

>  <SCORE>
-29.1942

>  <SCORE.INTER>
-27.4617

>  <SCORE.INTER.CONST>
1

>  <SCORE.INTER.POLAR>
0

>  <SCORE.INTER.ROT>
7

>  <SCORE.INTER.SOLV>
17.933

>  <SCORE.INTER.VDW>
-32.5521

>  <SCORE.INTER.norm>
-0.88586

>  <SCORE.INTRA>
-1.73259

>  <SCORE.INTRA.DIHEDRAL>
-1.1613

>  <SCORE.INTRA.DIHEDRAL.0>
10.0718

>  <SCORE.INTRA.POLAR>
0

>  <SCORE.INTRA.POLAR.0>
0

>  <SCORE.INTRA.REPUL>
0

>  <SCORE.INTRA.REPUL.0>
0

>  <SCORE.INTRA.SOLV>
0.982981

>  <SCORE.INTRA.SOLV.lig_0>
-48.6963

>  <SCORE.INTRA.VDW>
-1.64343

>  <SCORE.INTRA.VDW.0>
-0.836976

>  <SCORE.INTRA.norm>
-0.0558901

>  <SCORE.RESTR>
0

>  <SCORE.RESTR.CAVITY>
0

>  <SCORE.RESTR.norm>
0

>  <SCORE.SYSTEM>
0

>  <SCORE.SYSTEM.CONST>
0

>  <SCORE.SYSTEM.DIHEDRAL>
0

>  <SCORE.SYSTEM.SOLV>
0

>  <SCORE.SYSTEM.norm>
0

>  <SCORE.heavy>
31

>  <SCORE.norm>
-0.94175

>  <RMSD>
3.627

$$$$
ligand
 OpenBabel11021811473D
libRbt.so/2013.1/901 2013/11/27
 31 33  0  0  0  0  0  0  0  0999 V2000
   26.1839   42.8796   16.5374 P   0  0  1  0  0  0  0  0  0  0  0  0
   27.1674   42.9410   15.3882 O   0  0  0  0  0  0  0  0  0  0  0  0
   26.3371   44.1399   17.3455 O   0  5  0  0  0  0  0  0  0  0  0  0
   24.7775   42.7858   16.0130 O   0  0  0  0  0  0  0  0  0  0  0  0
   26.9299   40.3950   16.7655 C   0  0  0  0  0  0  0  0  0  0  0  0
   26.4513   41.5568   17.3984 O   0  0  0  0  0  0  0  0  0  0  0  0
   26.7745   39.2127   17.7107 C   0  0  1  0  0  0  0  0  0  0  0  0
   26.9817   38.0218   16.9813 O   0  0  0  0  0  0  0  0  0  0  0  0
   27.7778   39.3162   18.8594 C   0  0  1  0  0  0  0  0  0  0  0  0
   27.5164   40.4803   19.6138 O   0  0  0  0  0  0  0  0  0  0  0  0
   27.8210   38.0713   19.7565 C   0  0  1  0  0  0  0  0  0  0  0  0
   28.2783   36.9616   19.0159 O   0  0  0  0  0  0  0  0  0  0  0  0
   28.7121   38.2596   20.9738 C   0  0  0  0  0  0  0  0  0  0  0  0
   27.5170   35.9246   22.0242 N   0  0  0  0  0  0  0  0  0  0  0  0
   26.9978   34.7483   22.5254 C   0  0  0  0  0  0  0  0  0  0  0  0
   27.1408   33.6928   21.9021 O   0  0  0  0  0  0  0  0  0  0  0  0
   26.3098   34.7618   23.7219 N   0  0  0  0  0  0  0  0  0  0  0  0
   26.1400   35.9444   24.4169 C   0  0  0  0  0  0  0  0  0  0  0  0
   26.6592   37.1218   23.9202 C   0  0  1  0  0  0  0  0  0  0  0  0
   25.5370   35.9689   25.4885 O   0  0  0  0  0  0  0  0  0  0  0  0
   27.0053   39.4727   24.1390 C   0  0  2  0  0  0  0  0  0  0  0  0
   26.4840   38.2935   24.6306 N   0  0  0  0  0  0  0  0  0  0  0  0
   26.8283   40.6558   24.8525 C   0  0  0  0  0  0  0  0  0  0  0  0
   27.3434   41.8514   24.3617 C   0  0  1  0  0  0  0  0  0  0  0  0
   27.1525   43.1178   25.1500 C   0  0  0  0  0  0  0  0  0  0  0  0
   28.0431   41.8583   23.1497 C   0  0  1  0  0  0  0  0  0  0  0  0
   28.6236   43.1293   22.6018 C   0  0  0  0  0  0  0  0  0  0  0  0
   28.2184   40.6739   22.4402 C   0  0  0  0  0  0  0  0  0  0  0  0
   27.7016   39.4754   22.9266 C   0  0  2  0  0  0  0  0  0  0  0  0
   27.3546   37.1136   22.7165 C   0  0  2  0  0  0  0  0  0  0  0  0
   27.8679   38.2939   22.2140 N   0  0  0  0  0  0  0  0  0  0  0  0
  1  2  1  6  0  0  0
  1  3  1  0  0  0  0
  1  4  2  0  0  0  0
  1  6  1  0  0  0  0
  5  6  1  0  0  0  0
  7  5  1  6  0  0  0
  7  8  1  0  0  0  0
  7  9  1  0  0  0  0
  9 10  1  1  0  0  0
  9 11  1  0  0  0  0
 11 12  1  6  0  0  0
 11 13  1  0  0  0  0
 13 31  1  0  0  0  0
 14 15  1  0  0  0  0
 15 16  2  0  0  0  0
 15 17  1  0  0  0  0
 17 18  1  0  0  0  0
 18 20  2  0  0  0  0
 19 18  1  1  0  0  0
 19 22  1  0  0  0  0
 19 30  1  0  0  0  0
 21 23  1  6  0  0  0
 21 29  1  0  0  0  0
 21 22  1  0  0  0  0
 23 24  1  0  0  0  0
 24 25  1  1  0  0  0
 24 26  1  0  0  0  0
 26 27  1  1  0  0  0
 26 28  1  0  0  0  0
 29 28  1  6  0  0  0
 29 31  1  0  0  0  0
 30 14  1  6  0  0  0
 30 31  1  0  0  0  0
M  CHG  1   3  -1
M  END
>  <CHROM.1>
-166.24418887,-31.86353675,167.55047900,62.60271953,64.38422464,111.57831096
-109.82839925,27.06105021,39.44985170,20.79912730,-2.37217424,1.51527343
3.04040190

>  <Name>
ligand

>  <RI>
0

>  <Rbt.Current_Directory>
/home/itssahil/PROJECTS/Mol_Feturizer/New_Systems/rnas/3F2Q

>  <Rbt.Executable>
rbdock ($Id: //depot/dev/client3/rdock/2013.1/src/exe/rbdock.cxx#4 $)

>  <Rbt.Library>
libRbt.so (2013.1, Build901 2013/11/27)

>  <Rbt.Parameter_File>
/export/apps/rDock/src/rDock_2013.1_src/data/scripts/dock_solv.prm

>  <Rbt.Receptor>
prm/pocket_docking_5.prm

>  <SCORE>
-28.513

>  <SCORE.INTER>
-26.3079

>  <SCORE.INTER.CONST>
1

>  <SCORE.INTER.POLAR>
0

>  <SCORE.INTER.ROT>
7

>  <SCORE.INTER.SOLV>
19.8175

>  <SCORE.INTER.VDW>
-32.4111

>  <SCORE.INTER.norm>
-0.848642

>  <SCORE.INTRA>
-2.20512

>  <SCORE.INTRA.DIHEDRAL>
-1.02387

>  <SCORE.INTRA.DIHEDRAL.0>
10.0718

>  <SCORE.INTRA.POLAR>
0

>  <SCORE.INTRA.POLAR.0>
0

>  <SCORE.INTRA.REPUL>
0

>  <SCORE.INTRA.REPUL.0>
0

>  <SCORE.INTRA.SOLV>
-1.02679

>  <SCORE.INTRA.SOLV.lig_0>
-48.6963

>  <SCORE.INTRA.VDW>
-1.17979

>  <SCORE.INTRA.VDW.0>
-0.836976

>  <SCORE.INTRA.norm>
-0.0711328

>  <SCORE.RESTR>
0

>  <SCORE.RESTR.CAVITY>
0

>  <SCORE.RESTR.norm>
0

>  <SCORE.SYSTEM>
0

>  <SCORE.SYSTEM.CONST>
0

>  <SCORE.SYSTEM.DIHEDRAL>
0

>  <SCORE.SYSTEM.SOLV>
0

>  <SCORE.SYSTEM.norm>
0

>  <SCORE.heavy>
31

>  <SCORE.norm>
-0.919775

>  <RMSD>
3.638

$$$$
ligand
 OpenBabel11021811473D
libRbt.so/2013.1/901 2013/11/27
 31 33  0  0  0  0  0  0  0  0999 V2000
   29.1340   43.0846   24.2250 P   0  0  1  0  0  0  0  0  0  0  0  0
   27.8277   43.7453   24.6106 O   0  0  0  0  0  0  0  0  0  0  0  0
   30.2319   44.1017   24.3843 O   0  5  0  0  0  0  0  0  0  0  0  0
   29.4049   41.9073   25.1207 O   0  0  0  0  0  0  0  0  0  0  0  0
   27.8956   41.7779   22.3434 C   0  0  0  0  0  0  0  0  0  0  0  0
   29.0260   42.5205   22.7308 O   0  0  0  0  0  0  0  0  0  0  0  0
   28.2807   40.8397   21.2090 C   0  0  1  0  0  0  0  0  0  0  0  0
   29.4478   40.1376   21.5810 O   0  0  0  0  0  0  0  0  0  0  0  0
   27.1410   39.8635   20.9177 C   0  0  1  0  0  0  0  0  0  0  0  0
   26.0132   40.5756   20.4557 O   0  0  0  0  0  0  0  0  0  0  0  0
   27.5238   38.7386   19.9457 C   0  0  1  0  0  0  0  0  0  0  0  0
   27.9356   39.2880   18.7139 O   0  0  0  0  0  0  0  0  0  0  0  0
   28.6301   37.8487   20.4893 C   0  0  0  0  0  0  0  0  0  0  0  0
   28.6080   35.1876   19.5399 N   0  0  0  0  0  0  0  0  0  0  0  0
   28.6681   33.8972   19.0545 C   0  0  0  0  0  0  0  0  0  0  0  0
   29.1208   33.6797   17.9272 O   0  0  0  0  0  0  0  0  0  0  0  0
   28.2102   32.8536   19.8333 N   0  0  0  0  0  0  0  0  0  0  0  0
   27.6939   33.0958   21.0924 C   0  0  0  0  0  0  0  0  0  0  0  0
   27.6340   34.3840   21.5817 C   0  0  1  0  0  0  0  0  0  0  0  0
   27.2908   32.1744   21.8002 O   0  0  0  0  0  0  0  0  0  0  0  0
   27.0613   35.8937   23.3389 C   0  0  2  0  0  0  0  0  0  0  0  0
   27.1193   34.6069   22.8441 N   0  0  0  0  0  0  0  0  0  0  0  0
   26.5409   36.1212   24.6106 C   0  0  0  0  0  0  0  0  0  0  0  0
   26.4710   37.4157   25.1157 C   0  0  1  0  0  0  0  0  0  0  0  0
   25.9162   37.6425   26.4949 C   0  0  0  0  0  0  0  0  0  0  0  0
   26.9294   38.4871   24.3407 C   0  0  1  0  0  0  0  0  0  0  0  0
   26.8813   39.8931   24.8636 C   0  0  0  0  0  0  0  0  0  0  0  0
   27.4493   38.2555   23.0706 C   0  0  0  0  0  0  0  0  0  0  0  0
   27.5182   36.9613   22.5603 C   0  0  2  0  0  0  0  0  0  0  0  0
   28.0956   35.4385   20.8023 C   0  0  2  0  0  0  0  0  0  0  0  0
   28.0283   36.7302   21.2883 N   0  0  0  0  0  0  0  0  0  0  0  0
  1  2  1  1  0  0  0
  1  3  1  0  0  0  0
  1  4  2  0  0  0  0
  1  6  1  0  0  0  0
  5  6  1  0  0  0  0
  7  5  1  1  0  0  0
  7  8  1  0  0  0  0
  7  9  1  0  0  0  0
  9 10  1  6  0  0  0
  9 11  1  0  0  0  0
 11 12  1  6  0  0  0
 11 13  1  0  0  0  0
 13 31  1  0  0  0  0
 14 15  1  0  0  0  0
 15 16  2  0  0  0  0
 15 17  1  0  0  0  0
 17 18  1  0  0  0  0
 18 20  2  0  0  0  0
 19 18  1  1  0  0  0
 19 22  1  0  0  0  0
 19 30  1  0  0  0  0
 21 23  1  6  0  0  0
 21 29  1  0  0  0  0
 21 22  1  0  0  0  0
 23 24  1  0  0  0  0
 24 25  1  1  0  0  0
 24 26  1  0  0  0  0
 26 27  1  1  0  0  0
 26 28  1  0  0  0  0
 29 28  1  6  0  0  0
 29 31  1  0  0  0  0
 30 14  1  6  0  0  0
 30 31  1  0  0  0  0
M  CHG  1   3  -1
M  END
>  <CHROM.1>
-153.43868810,-46.93360123,49.72680766,64.09177834,-59.48136698,88.71779457
-75.11489145,27.95002619,38.31846079,22.23457090,-1.32592386,-1.25177880
-2.53467752

>  <Name>
ligand

>  <RI>
0

>  <Rbt.Current_Directory>
/home/itssahil/PROJECTS/Mol_Feturizer/New_Systems/rnas/3F2Q

>  <Rbt.Executable>
rbdock ($Id: //depot/dev/client3/rdock/2013.1/src/exe/rbdock.cxx#4 $)

>  <Rbt.Library>
libRbt.so (2013.1, Build901 2013/11/27)

>  <Rbt.Parameter_File>
/export/apps/rDock/src/rDock_2013.1_src/data/scripts/dock_solv.prm

>  <Rbt.Receptor>
prm/pocket_docking_8.prm

>  <SCORE>
-34.8731

>  <SCORE.INTER>
-33.9329

>  <SCORE.INTER.CONST>
1

>  <SCORE.INTER.POLAR>
0

>  <SCORE.INTER.ROT>
7

>  <SCORE.INTER.SOLV>
17.9539

>  <SCORE.INTER.VDW>
-36.8732

>  <SCORE.INTER.norm>
-1.09461

>  <SCORE.INTRA>
-0.940205

>  <SCORE.INTRA.DIHEDRAL>
-2.52948

>  <SCORE.INTRA.DIHEDRAL.0>
10.0718

>  <SCORE.INTRA.POLAR>
0

>  <SCORE.INTRA.POLAR.0>
0

>  <SCORE.INTRA.REPUL>
0

>  <SCORE.INTRA.REPUL.0>
0

>  <SCORE.INTRA.SOLV>
0.479143

>  <SCORE.INTRA.SOLV.lig_0>
-48.6963

>  <SCORE.INTRA.VDW>
0.0849619

>  <SCORE.INTRA.VDW.0>
-0.836976

>  <SCORE.INTRA.norm>
-0.0303292

>  <SCORE.RESTR>
0

>  <SCORE.RESTR.CAVITY>
0

>  <SCORE.RESTR.norm>
0

>  <SCORE.SYSTEM>
0

>  <SCORE.SYSTEM.CONST>
0

>  <SCORE.SYSTEM.DIHEDRAL>
0

>  <SCORE.SYSTEM.SOLV>
0

>  <SCORE.SYSTEM.norm>
0

>  <SCORE.heavy>
31

>  <SCORE.norm>
-1.12494

>  <RMSD>
3.740

$$$$
ligand
 OpenBabel11021811473D
libRbt.so/2013.1/901 2013/11/27
 31 33  0  0  0  0  0  0  0  0999 V2000
   27.1833   35.5910   15.1799 P   0  0  1  0  0  0  0  0  0  0  0  0
   26.5361   36.3993   14.0756 O   0  0  0  0  0  0  0  0  0  0  0  0
   26.1057   35.1860   16.1494 O   0  5  0  0  0  0  0  0  0  0  0  0
   27.8354   34.3616   14.6099 O   0  0  0  0  0  0  0  0  0  0  0  0
   29.1908   35.8615   16.8164 C   0  0  0  0  0  0  0  0  0  0  0  0
   28.3400   36.4578   15.8678 O   0  0  0  0  0  0  0  0  0  0  0  0
   30.2888   36.8466   17.1897 C   0  0  1  0  0  0  0  0  0  0  0  0
   30.8200   37.4003   16.0045 O   0  0  0  0  0  0  0  0  0  0  0  0
   29.7296   37.9487   18.0894 C   0  0  1  0  0  0  0  0  0  0  0  0
   28.6827   38.6201   17.4219 O   0  0  0  0  0  0  0  0  0  0  0  0
   29.2788   37.4506   19.4696 C   0  0  1  0  0  0  0  0  0  0  0  0
   29.3707   38.4966   20.4111 O   0  0  0  0  0  0  0  0  0  0  0  0
   27.8570   36.9121   19.4602 C   0  0  0  0  0  0  0  0  0  0  0  0
   28.0024   34.1329   18.9722 N   0  0  0  0  0  0  0  0  0  0  0  0
   28.1329   32.7882   18.6906 C   0  0  0  0  0  0  0  0  0  0  0  0
   28.2808   32.4109   17.5249 O   0  0  0  0  0  0  0  0  0  0  0  0
   28.0872   31.8685   19.7188 N   0  0  0  0  0  0  0  0  0  0  0  0
   27.9120   32.2881   21.0241 C   0  0  0  0  0  0  0  0  0  0  0  0
   27.7831   33.6313   21.3098 C   0  0  1  0  0  0  0  0  0  0  0  0
   27.8785   31.4800   21.9506 O   0  0  0  0  0  0  0  0  0  0  0  0
   27.4882   35.3760   22.9109 C   0  0  2  0  0  0  0  0  0  0  0  0
   27.6135   34.0329   22.6206 N   0  0  0  0  0  0  0  0  0  0  0  0
   27.3151   35.7832   24.2316 C   0  0  0  0  0  0  0  0  0  0  0  0
   27.1802   37.1346   24.5341 C   0  0  1  0  0  0  0  0  0  0  0  0
   27.0047   37.5578   25.9664 C   0  0  0  0  0  0  0  0  0  0  0  0
   27.2229   38.0821   23.5051 C   0  0  1  0  0  0  0  0  0  0  0  0
   27.0953   39.5480   23.8011 C   0  0  0  0  0  0  0  0  0  0  0  0
   27.3966   37.6712   22.1868 C   0  0  0  0  0  0  0  0  0  0  0  0
   27.5291   36.3191   21.8796 C   0  0  2  0  0  0  0  0  0  0  0  0
   27.8303   34.5620   20.2781 C   0  0  2  0  0  0  0  0  0  0  0  0
   27.6930   35.9071   20.5624 N   0  0  0  0  0  0  0  0  0  0  0  0
  1  2  1  6  0  0  0
  1  3  1  0  0  0  0
  1  4  2  0  0  0  0
  1  6  1  0  0  0  0
  5  6  1  0  0  0  0
  7  5  1  6  0  0  0
  7  8  1  0  0  0  0
  7  9  1  0  0  0  0
  9 10  1  6  0  0  0
  9 11  1  0  0  0  0
 11 12  1  1  0  0  0
 11 13  1  0  0  0  0
 13 31  1  0  0  0  0
 14 15  1  0  0  0  0
 15 16  2  0  0  0  0
 15 17  1  0  0  0  0
 17 18  1  0  0  0  0
 18 20  2  0  0  0  0
 19 18  1  1  0  0  0
 19 22  1  0  0  0  0
 19 30  1  0  0  0  0
 21 23  1  6  0  0  0
 21 29  1  0  0  0  0
 21 22  1  0  0  0  0
 23 24  1  0  0  0  0
 24 25  1  1  0  0  0
 24 26  1  0  0  0  0
 26 27  1  1  0  0  0
 26 28  1  0  0  0  0
 29 28  1  6  0  0  0
 29 31  1  0  0  0  0
 30 14  1  6  0  0  0
 30 31  1  0  0  0  0
M  CHG  1   3  -1
M  END
>  <CHROM.1>
173.53921799,-172.48244138,-47.12175651,-58.62776026,152.97620325,153.89471779
77.77735540,28.00084149,35.75443472,19.40728740,-1.02964090,1.41623750,0.93378962

>  <Name>
ligand

>  <RI>
0

>  <Rbt.Current_Directory>
/home/itssahil/PROJECTS/Mol_Feturizer/New_Systems/rnas/3F2Q

>  <Rbt.Executable>
rbdock ($Id: //depot/dev/client3/rdock/2013.1/src/exe/rbdock.cxx#4 $)

>  <Rbt.Library>
libRbt.so (2013.1, Build901 2013/11/27)

>  <Rbt.Parameter_File>
/export/apps/rDock/src/rDock_2013.1_src/data/scripts/dock_solv.prm

>  <Rbt.Receptor>
prm/blind_docking_60.prm

>  <SCORE>
-32.284

>  <SCORE.INTER>
-29.7004

>  <SCORE.INTER.CONST>
1

>  <SCORE.INTER.POLAR>
0

>  <SCORE.INTER.ROT>
7

>  <SCORE.INTER.SOLV>
12.2709

>  <SCORE.INTER.VDW>
-32.1572

>  <SCORE.INTER.norm>
-0.958078

>  <SCORE.INTRA>
-2.5836

>  <SCORE.INTRA.DIHEDRAL>
-3.63271

>  <SCORE.INTRA.DIHEDRAL.0>
10.0718

>  <SCORE.INTRA.POLAR>
0

>  <SCORE.INTRA.POLAR.0>
0

>  <SCORE.INTRA.REPUL>
0

>  <SCORE.INTRA.REPUL.0>
0

>  <SCORE.INTRA.SOLV>
1.45166

>  <SCORE.INTRA.SOLV.lig_0>
-48.6963

>  <SCORE.INTRA.VDW>
-1.49307

>  <SCORE.INTRA.VDW.0>
-0.836976

>  <SCORE.INTRA.norm>
-0.0833419

>  <SCORE.RESTR>
0

>  <SCORE.RESTR.CAVITY>
0

>  <SCORE.RESTR.norm>
0

>  <SCORE.SYSTEM>
0

>  <SCORE.SYSTEM.CONST>
0

>  <SCORE.SYSTEM.DIHEDRAL>
0

>  <SCORE.SYSTEM.SOLV>
0

>  <SCORE.SYSTEM.norm>
0

>  <SCORE.heavy>
31

>  <SCORE.norm>
-1.04142

>  <RMSD>
3.756

$$$$
ligand
 OpenBabel11021811473D
libRbt.so/2013.1/901 2013/11/27
 31 33  0  0  0  0  0  0  0  0999 V2000
   28.4763   42.8164   24.2479 P   0  0  1  0  0  0  0  0  0  0  0  0
   27.8811   43.3627   25.5281 O   0  0  0  0  0  0  0  0  0  0  0  0
   29.4746   43.8200   23.7366 O   0  5  0  0  0  0  0  0  0  0  0  0
   29.1689   41.5082   24.5139 O   0  0  0  0  0  0  0  0  0  0  0  0
   27.5303   42.7162   21.8237 C   0  0  0  0  0  0  0  0  0  0  0  0
   27.3043   42.5204   23.1984 O   0  0  0  0  0  0  0  0  0  0  0  0
   27.9858   41.4043   21.2019 C   0  0  1  0  0  0  0  0  0  0  0  0
   29.0726   40.9034   21.9511 O   0  0  0  0  0  0  0  0  0  0  0  0
   26.8370   40.3959   21.1892 C   0  0  1  0  0  0  0  0  0  0  0  0
   25.6538   41.0306   20.7535 O   0  0  0  0  0  0  0  0  0  0  0  0
   27.1288   39.1367   20.3612 C   0  0  1  0  0  0  0  0  0  0  0  0
   27.4361   39.4962   19.0326 O   0  0  0  0  0  0  0  0  0  0  0  0
   28.2731   38.3146   20.9325 C   0  0  0  0  0  0  0  0  0  0  0  0
   28.4114   35.6521   19.9970 N   0  0  0  0  0  0  0  0  0  0  0  0
   28.5496   34.3647   19.5195 C   0  0  0  0  0  0  0  0  0  0  0  0
   29.0317   34.1672   18.4007 O   0  0  0  0  0  0  0  0  0  0  0  0
   28.1366   33.3012   20.2964 N   0  0  0  0  0  0  0  0  0  0  0  0
   27.5876   33.5204   21.5458 C   0  0  0  0  0  0  0  0  0  0  0  0
   27.4496   34.8056   22.0273 C   0  0  1  0  0  0  0  0  0  0  0  0
   27.2239   32.5815   22.2520 O   0  0  0  0  0  0  0  0  0  0  0  0
   26.7672   36.2896   23.7670 C   0  0  2  0  0  0  0  0  0  0  0  0
   26.9032   35.0057   23.2801 N   0  0  0  0  0  0  0  0  0  0  0  0
   26.2146   36.4940   25.0291 C   0  0  0  0  0  0  0  0  0  0  0  0
   26.0661   37.7850   25.5261 C   0  0  1  0  0  0  0  0  0  0  0  0
   25.4775   37.9873   26.8951 C   0  0  0  0  0  0  0  0  0  0  0  0
   26.4780   38.8763   24.7528 C   0  0  1  0  0  0  0  0  0  0  0  0
   26.3448   40.2799   25.2673 C   0  0  0  0  0  0  0  0  0  0  0  0
   27.0302   38.6678   23.4924 C   0  0  0  0  0  0  0  0  0  0  0  0
   27.1778   37.3770   22.9901 C   0  0  2  0  0  0  0  0  0  0  0  0
   27.8657   35.8802   21.2497 C   0  0  2  0  0  0  0  0  0  0  0  0
   27.7202   37.1684   21.7277 N   0  0  0  0  0  0  0  0  0  0  0  0
  1  2  1  1  0  0  0
  1  3  1  0  0  0  0
  1  4  2  0  0  0  0
  1  6  1  0  0  0  0
  5  6  1  0  0  0  0
  7  5  1  1  0  0  0
  7  8  1  0  0  0  0
  7  9  1  0  0  0  0
  9 10  1  6  0  0  0
  9 11  1  0  0  0  0
 11 12  1  6  0  0  0
 11 13  1  0  0  0  0
 13 31  1  0  0  0  0
 14 15  1  0  0  0  0
 15 16  2  0  0  0  0
 15 17  1  0  0  0  0
 17 18  1  0  0  0  0
 18 20  2  0  0  0  0
 19 18  1  1  0  0  0
 19 22  1  0  0  0  0
 19 30  1  0  0  0  0
 21 23  1  6  0  0  0
 21 29  1  0  0  0  0
 21 22  1  0  0  0  0
 23 24  1  0  0  0  0
 24 25  1  1  0  0  0
 24 26  1  0  0  0  0
 26 27  1  1  0  0  0
 26 28  1  0  0  0  0
 29 28  1  6  0  0  0
 29 31  1  0  0  0  0
 30 14  1  6  0  0  0
 30 31  1  0  0  0  0
M  CHG  1   3  -1
M  END
>  <CHROM.1>
93.17623821,145.43114708,-52.19971667,44.58843799,-57.59882848,99.40268143
-75.37613215,27.57394287,38.62158115,22.52553567,-1.50190855,-1.27201103
-2.73967066

>  <Name>
ligand

>  <RI>
0

>  <Rbt.Current_Directory>
/home/itssahil/PROJECTS/Mol_Feturizer/New_Systems/rnas/3F2Q

>  <Rbt.Executable>
rbdock ($Id: //depot/dev/client3/rdock/2013.1/src/exe/rbdock.cxx#4 $)

>  <Rbt.Library>
libRbt.so (2013.1, Build901 2013/11/27)

>  <Rbt.Parameter_File>
/export/apps/rDock/src/rDock_2013.1_src/data/scripts/dock_solv.prm

>  <Rbt.Receptor>
prm/blind_docking_80.prm

>  <SCORE>
-31.6438

>  <SCORE.INTER>
-32.9403

>  <SCORE.INTER.CONST>
1

>  <SCORE.INTER.POLAR>
0

>  <SCORE.INTER.ROT>
7

>  <SCORE.INTER.SOLV>
17.7142

>  <SCORE.INTER.VDW>
-36.1316

>  <SCORE.INTER.norm>
-1.06259

>  <SCORE.INTRA>
1.22794

>  <SCORE.INTRA.DIHEDRAL>
1.9592

>  <SCORE.INTRA.DIHEDRAL.0>
10.0718

>  <SCORE.INTRA.POLAR>
0

>  <SCORE.INTRA.POLAR.0>
0

>  <SCORE.INTRA.REPUL>
0

>  <SCORE.INTRA.REPUL.0>
0

>  <SCORE.INTRA.SOLV>
4.02508

>  <SCORE.INTRA.SOLV.lig_0>
-48.6963

>  <SCORE.INTRA.VDW>
-1.7642

>  <SCORE.INTRA.VDW.0>
-0.836976

>  <SCORE.INTRA.norm>
0.039611

>  <SCORE.RESTR>
0.068571

>  <SCORE.RESTR.CAVITY>
0.068571

>  <SCORE.RESTR.norm>
0.00221197

>  <SCORE.SYSTEM>
0

>  <SCORE.SYSTEM.CONST>
0

>  <SCORE.SYSTEM.DIHEDRAL>
0

>  <SCORE.SYSTEM.SOLV>
0

>  <SCORE.SYSTEM.norm>
0

>  <SCORE.heavy>
31

>  <SCORE.norm>
-1.02077

>  <RMSD>
3.843

$$$$
ligand
 OpenBabel11021811473D
libRbt.so/2013.1/901 2013/11/27
 31 33  0  0  0  0  0  0  0  0999 V2000
   26.5340   41.5018   17.3052 P   0  0  1  0  0  0  0  0  0  0  0  0
   27.8677   41.9846   17.8342 O   0  0  0  0  0  0  0  0  0  0  0  0
   25.5734   41.4364   18.4620 O   0  5  0  0  0  0  0  0  0  0  0  0
   26.0096   42.4574   16.2690 O   0  0  0  0  0  0  0  0  0  0  0  0
   27.4179   39.0531   17.2401 C   0  0  0  0  0  0  0  0  0  0  0  0
   26.7276   40.0871   16.5816 O   0  0  0  0  0  0  0  0  0  0  0  0
   26.5392   38.4956   18.3502 C   0  0  1  0  0  0  0  0  0  0  0  0
   25.7851   37.4206   17.8315 O   0  0  0  0  0  0  0  0  0  0  0  0
   27.3997   38.0265   19.5233 C   0  0  1  0  0  0  0  0  0  0  0  0
   28.1521   36.8963   19.1372 O   0  0  0  0  0  0  0  0  0  0  0  0
   28.3032   39.1229   20.1045 C   0  0  1  0  0  0  0  0  0  0  0  0
   27.5377   40.2705   20.3975 O   0  0  0  0  0  0  0  0  0  0  0  0
   29.0304   38.6744   21.3621 C   0  0  0  0  0  0  0  0  0  0  0  0
   27.8135   36.2756   22.2273 N   0  0  0  0  0  0  0  0  0  0  0  0
   27.2855   35.0704   22.6434 C   0  0  0  0  0  0  0  0  0  0  0  0
   27.5207   34.0387   22.0083 O   0  0  0  0  0  0  0  0  0  0  0  0
   26.4855   35.0280   23.7674 N   0  0  0  0  0  0  0  0  0  0  0  0
   26.2129   36.1838   24.4748 C   0  0  0  0  0  0  0  0  0  0  0  0
   26.7403   37.3900   24.0632 C   0  0  1  0  0  0  0  0  0  0  0  0
   25.5092   36.1587   25.4831 O   0  0  0  0  0  0  0  0  0  0  0  0
   26.9901   39.7421   24.3788 C   0  0  2  0  0  0  0  0  0  0  0  0
   26.4611   38.5342   24.7850 N   0  0  0  0  0  0  0  0  0  0  0  0
   26.7084   40.8975   25.1038 C   0  0  0  0  0  0  0  0  0  0  0  0
   27.2307   42.1216   24.6983 C   0  0  1  0  0  0  0  0  0  0  0  0
   26.9253   43.3576   25.4986 C   0  0  0  0  0  0  0  0  0  0  0  0
   28.0431   42.1851   23.5605 C   0  0  1  0  0  0  0  0  0  0  0  0
   28.6335   43.4881   23.1064 C   0  0  0  0  0  0  0  0  0  0  0  0
   28.3228   41.0282   22.8391 C   0  0  0  0  0  0  0  0  0  0  0  0
   27.7994   39.8013   23.2402 C   0  0  2  0  0  0  0  0  0  0  0  0
   27.5482   37.4380   22.9328 C   0  0  2  0  0  0  0  0  0  0  0  0
   28.0702   38.6471   22.5150 N   0  0  0  0  0  0  0  0  0  0  0  0
  1  2  1  1  0  0  0
  1  3  1  0  0  0  0
  1  4  2  0  0  0  0
  1  6  1  0  0  0  0
  5  6  1  0  0  0  0
  7  5  1  6  0  0  0
  7  8  1  0  0  0  0
  7  9  1  0  0  0  0
  9 10  1  6  0  0  0
  9 11  1  0  0  0  0
 11 12  1  1  0  0  0
 11 13  1  0  0  0  0
 13 31  1  0  0  0  0
 14 15  1  0  0  0  0
 15 16  2  0  0  0  0
 15 17  1  0  0  0  0
 17 18  1  0  0  0  0
 18 20  2  0  0  0  0
 19 18  1  1  0  0  0
 19 22  1  0  0  0  0
 19 30  1  0  0  0  0
 21 23  1  6  0  0  0
 21 29  1  0  0  0  0
 21 22  1  0  0  0  0
 23 24  1  0  0  0  0
 24 25  1  1  0  0  0
 24 26  1  0  0  0  0
 26 27  1  1  0  0  0
 26 28  1  0  0  0  0
 29 28  1  6  0  0  0
 29 31  1  0  0  0  0
 30 14  1  6  0  0  0
 30 31  1  0  0  0  0
M  CHG  1   3  -1
M  END
>  <CHROM.1>
73.08107479,49.86840837,91.34028428,-68.02292870,51.73963265,-74.85746462
-84.51081022,27.15321512,39.22770687,21.21772957,-1.92014294,1.50455574,2.36853162

>  <Name>
ligand

>  <RI>
0

>  <Rbt.Current_Directory>
/home/itssahil/PROJECTS/Mol_Feturizer/New_Systems/rnas/3F2Q

>  <Rbt.Executable>
rbdock ($Id: //depot/dev/client3/rdock/2013.1/src/exe/rbdock.cxx#4 $)

>  <Rbt.Library>
libRbt.so (2013.1, Build901 2013/11/27)

>  <Rbt.Parameter_File>
/export/apps/rDock/src/rDock_2013.1_src/data/scripts/dock_solv.prm

>  <Rbt.Receptor>
prm/blind_docking_80.prm

>  <SCORE>
-26.3713

>  <SCORE.INTER>
-23.765

>  <SCORE.INTER.CONST>
1

>  <SCORE.INTER.POLAR>
0

>  <SCORE.INTER.ROT>
7

>  <SCORE.INTER.SOLV>
15.5404

>  <SCORE.INTER.VDW>
-29.2902

>  <SCORE.INTER.norm>
-0.766614

>  <SCORE.INTRA>
-2.60628

>  <SCORE.INTRA.DIHEDRAL>
-3.51192

>  <SCORE.INTRA.DIHEDRAL.0>
10.0718

>  <SCORE.INTRA.POLAR>
0

>  <SCORE.INTRA.POLAR.0>
0

>  <SCORE.INTRA.REPUL>
0

>  <SCORE.INTRA.REPUL.0>
0

>  <SCORE.INTRA.SOLV>
2.35108

>  <SCORE.INTRA.SOLV.lig_0>
-48.6963

>  <SCORE.INTRA.VDW>
-2.02586

>  <SCORE.INTRA.VDW.0>
-0.836976

>  <SCORE.INTRA.norm>
-0.0840736

>  <SCORE.RESTR>
0

>  <SCORE.RESTR.CAVITY>
0

>  <SCORE.RESTR.norm>
0

>  <SCORE.SYSTEM>
0

>  <SCORE.SYSTEM.CONST>
0

>  <SCORE.SYSTEM.DIHEDRAL>
0

>  <SCORE.SYSTEM.SOLV>
0

>  <SCORE.SYSTEM.norm>
0

>  <SCORE.heavy>
31

>  <SCORE.norm>
-0.850687

>  <RMSD>
3.988

$$$$
ligand
 OpenBabel11021811473D
libRbt.so/2013.1/901 2013/11/27
 31 33  0  0  0  0  0  0  0  0999 V2000
   27.6961   35.3828   13.9460 P   0  0  1  0  0  0  0  0  0  0  0  0
   26.4743   36.1898   13.5619 O   0  0  0  0  0  0  0  0  0  0  0  0
   27.3583   33.9253   13.7825 O   0  5  0  0  0  0  0  0  0  0  0  0
   28.8531   35.7347   13.0520 O   0  0  0  0  0  0  0  0  0  0  0  0
   29.4496   35.5083   15.8672 C   0  0  0  0  0  0  0  0  0  0  0  0
   28.1311   35.7526   15.4415 O   0  0  0  0  0  0  0  0  0  0  0  0
   29.5065   35.5920   17.3855 C   0  0  1  0  0  0  0  0  0  0  0  0
   30.7064   34.9919   17.8256 O   0  0  0  0  0  0  0  0  0  0  0  0
   29.4417   37.0503   17.8394 C   0  0  1  0  0  0  0  0  0  0  0  0
   28.4473   37.7317   17.1049 O   0  0  0  0  0  0  0  0  0  0  0  0
   29.2292   37.2186   19.3503 C   0  0  1  0  0  0  0  0  0  0  0  0
   29.7426   38.4627   19.7716 O   0  0  0  0  0  0  0  0  0  0  0  0
   27.7649   37.1230   19.7481 C   0  0  0  0  0  0  0  0  0  0  0  0
   27.8361   34.3540   19.1905 N   0  0  0  0  0  0  0  0  0  0  0  0
   27.9295   33.0141   18.8737 C   0  0  0  0  0  0  0  0  0  0  0  0
   28.0415   32.6622   17.6961 O   0  0  0  0  0  0  0  0  0  0  0  0
   27.8872   32.0708   19.8804 N   0  0  0  0  0  0  0  0  0  0  0  0
   27.7522   32.4621   21.1992 C   0  0  0  0  0  0  0  0  0  0  0  0
   27.6604   33.8004   21.5200 C   0  0  1  0  0  0  0  0  0  0  0  0
   27.7222   31.6325   22.1066 O   0  0  0  0  0  0  0  0  0  0  0  0
   27.4425   35.5115   23.1690 C   0  0  2  0  0  0  0  0  0  0  0  0
   27.5306   34.1735   22.8437 N   0  0  0  0  0  0  0  0  0  0  0  0
   27.3096   35.8900   24.5028 C   0  0  0  0  0  0  0  0  0  0  0  0
   27.2124   37.2362   24.8407 C   0  0  1  0  0  0  0  0  0  0  0  0
   27.0801   37.6280   26.2866 C   0  0  0  0  0  0  0  0  0  0  0  0
   27.2523   38.2075   23.8340 C   0  0  1  0  0  0  0  0  0  0  0  0
   27.1649   39.6681   24.1679 C   0  0  0  0  0  0  0  0  0  0  0  0
   27.3858   37.8252   22.5025 C   0  0  0  0  0  0  0  0  0  0  0  0
   27.4805   36.4784   22.1598 C   0  0  2  0  0  0  0  0  0  0  0  0
   27.7044   34.7548   20.5101 C   0  0  2  0  0  0  0  0  0  0  0  0
   27.6042   36.0953   20.8296 N   0  0  0  0  0  0  0  0  0  0  0  0
  1  2  1  6  0  0  0
  1  3  1  0  0  0  0
  1  4  2  0  0  0  0
  1  6  1  0  0  0  0
  5  6  1  0  0  0  0
  7  5  1  6  0  0  0
  7  8  1  0  0  0  0
  7  9  1  0  0  0  0
  9 10  1  6  0  0  0
  9 11  1  0  0  0  0
 11 12  1  6  0  0  0
 11 13  1  0  0  0  0
 13 31  1  0  0  0  0
 14 15  1  0  0  0  0
 15 16  2  0  0  0  0
 15 17  1  0  0  0  0
 17 18  1  0  0  0  0
 18 20  2  0  0  0  0
 19 18  1  1  0  0  0
 19 22  1  0  0  0  0
 19 30  1  0  0  0  0
 21 23  1  6  0  0  0
 21 29  1  0  0  0  0
 21 22  1  0  0  0  0
 23 24  1  0  0  0  0
 24 25  1  1  0  0  0
 24 26  1  0  0  0  0
 26 27  1  1  0  0  0
 26 28  1  0  0  0  0
 29 28  1  6  0  0  0
 29 31  1  0  0  0  0
 30 14  1  6  0  0  0
 30 31  1  0  0  0  0
M  CHG  1   3  -1
M  END
>  <CHROM.1>
-165.10109901,-158.30225822,163.83268327,43.98341715,154.64134137,126.74907328
100.51835716,28.03737775,35.60448489,19.28407346,-0.77131171,1.45901119,0.63320107

>  <Name>
ligand

>  <RI>
0

>  <Rbt.Current_Directory>
/home/itssahil/PROJECTS/Mol_Feturizer/New_Systems/rnas/3F2Q

>  <Rbt.Executable>
rbdock ($Id: //depot/dev/client3/rdock/2013.1/src/exe/rbdock.cxx#4 $)

>  <Rbt.Library>
libRbt.so (2013.1, Build901 2013/11/27)

>  <Rbt.Parameter_File>
/export/apps/rDock/src/rDock_2013.1_src/data/scripts/dock_solv.prm

>  <Rbt.Receptor>
prm/pocket_docking_6.prm

>  <SCORE>
-29.1036

>  <SCORE.INTER>
-28.7693

>  <SCORE.INTER.CONST>
1

>  <SCORE.INTER.POLAR>
0

>  <SCORE.INTER.ROT>
7

>  <SCORE.INTER.SOLV>
15.1719

>  <SCORE.INTER.VDW>
-32.5035

>  <SCORE.INTER.norm>
-0.928041

>  <SCORE.INTRA>
-0.334309

>  <SCORE.INTRA.DIHEDRAL>
1.75748

>  <SCORE.INTRA.DIHEDRAL.0>
10.0718

>  <SCORE.INTRA.POLAR>
0

>  <SCORE.INTRA.POLAR.0>
0

>  <SCORE.INTRA.REPUL>
0

>  <SCORE.INTRA.REPUL.0>
0

>  <SCORE.INTRA.SOLV>
-0.0649076

>  <SCORE.INTRA.SOLV.lig_0>
-48.6963

>  <SCORE.INTRA.VDW>
-1.1806

>  <SCORE.INTRA.VDW.0>
-0.836976

>  <SCORE.INTRA.norm>
-0.0107842

>  <SCORE.RESTR>
0

>  <SCORE.RESTR.CAVITY>
0

>  <SCORE.RESTR.norm>
0

>  <SCORE.SYSTEM>
0

>  <SCORE.SYSTEM.CONST>
0

>  <SCORE.SYSTEM.DIHEDRAL>
0

>  <SCORE.SYSTEM.SOLV>
0

>  <SCORE.SYSTEM.norm>
0

>  <SCORE.heavy>
31

>  <SCORE.norm>
-0.938825

>  <RMSD>
4.029

$$$$
ligand
 OpenBabel11021811473D
libRbt.so/2013.1/901 2013/11/27
 31 33  0  0  0  0  0  0  0  0999 V2000
   26.8040   34.1405   15.7010 P   0  0  1  0  0  0  0  0  0  0  0  0
   26.0651   34.7951   14.5534 O   0  0  0  0  0  0  0  0  0  0  0  0
   25.8019   33.3685   16.5164 O   0  5  0  0  0  0  0  0  0  0  0  0
   27.8545   33.2019   15.1745 O   0  0  0  0  0  0  0  0  0  0  0  0
   28.2772   36.2791   15.8957 C   0  0  0  0  0  0  0  0  0  0  0  0
   27.5637   35.2614   16.5549 O   0  0  0  0  0  0  0  0  0  0  0  0
   28.9346   37.1783   16.9324 C   0  0  1  0  0  0  0  0  0  0  0  0
   29.8580   38.0217   16.2771 O   0  0  0  0  0  0  0  0  0  0  0  0
   27.8780   38.0085   17.6613 C   0  0  1  0  0  0  0  0  0  0  0  0
   26.8095   38.2922   16.7836 O   0  0  0  0  0  0  0  0  0  0  0  0
   27.3737   37.3644   18.9602 C   0  0  1  0  0  0  0  0  0  0  0  0
   26.5812   36.2369   18.6608 O   0  0  0  0  0  0  0  0  0  0  0  0
   28.5073   36.9459   19.8828 C   0  0  0  0  0  0  0  0  0  0  0  0
   28.4971   34.1793   19.3091 N   0  0  0  0  0  0  0  0  0  0  0  0
   28.5609   32.8357   19.0006 C   0  0  0  0  0  0  0  0  0  0  0  0
   28.9333   32.4741   17.8810 O   0  0  0  0  0  0  0  0  0  0  0  0
   28.1965   31.9004   19.9481 N   0  0  0  0  0  0  0  0  0  0  0  0
   27.7699   32.3034   21.1996 C   0  0  0  0  0  0  0  0  0  0  0  0
   27.7067   33.6453   21.5123 C   0  0  1  0  0  0  0  0  0  0  0  0
   27.4510   31.4804   22.0560 O   0  0  0  0  0  0  0  0  0  0  0  0
   27.2218   35.3710   23.0876 C   0  0  2  0  0  0  0  0  0  0  0  0
   27.2826   34.0297   22.7695 N   0  0  0  0  0  0  0  0  0  0  0  0
   26.7926   35.7611   24.3538 C   0  0  0  0  0  0  0  0  0  0  0  0
   26.7204   37.1112   24.6820 C   0  0  1  0  0  0  0  0  0  0  0  0
   26.2651   37.5148   26.0573 C   0  0  0  0  0  0  0  0  0  0  0  0
   27.0847   38.0746   23.7344 C   0  0  1  0  0  0  0  0  0  0  0  0
   27.0320   39.5380   24.0633 C   0  0  0  0  0  0  0  0  0  0  0  0
   27.5137   37.6807   22.4704 C   0  0  0  0  0  0  0  0  0  0  0  0
   27.5844   36.3301   22.1371 C   0  0  2  0  0  0  0  0  0  0  0  0
   28.0744   34.5914   20.5623 C   0  0  2  0  0  0  0  0  0  0  0  0
   28.0035   35.9361   20.8719 N   0  0  0  0  0  0  0  0  0  0  0  0
  1  2  1  6  0  0  0
  1  3  1  0  0  0  0
  1  4  2  0  0  0  0
  1  6  1  0  0  0  0
  5  6  1  0  0  0  0
  7  5  1  6  0  0  0
  7  8  1  0  0  0  0
  7  9  1  0  0  0  0
  9 10  1  6  0  0  0
  9 11  1  0  0  0  0
 11 12  1  6  0  0  0
 11 13  1  0  0  0  0
 13 31  1  0  0  0  0
 14 15  1  0  0  0  0
 15 16  2  0  0  0  0
 15 17  1  0  0  0  0
 17 18  1  0  0  0  0
 18 20  2  0  0  0  0
 19 18  1  1  0  0  0
 19 22  1  0  0  0  0
 19 30  1  0  0  0  0
 21 23  1  6  0  0  0
 21 29  1  0  0  0  0
 21 22  1  0  0  0  0
 23 24  1  0  0  0  0
 24 25  1  1  0  0  0
 24 26  1  0  0  0  0
 26 27  1  1  0  0  0
 26 28  1  0  0  0  0
 29 28  1  6  0  0  0
 29 31  1  0  0  0  0
 30 14  1  6  0  0  0
 30 31  1  0  0  0  0
M  CHG  1   3  -1
M  END
>  <CHROM.1>
-178.24202536,-44.22032932,168.26639007,-32.08211297,-70.72776068,-160.83515882
-95.57025021,27.54148960,35.40639899,19.51130918,0.04619956,-1.51914151,2.96178075

>  <Name>
ligand

>  <RI>
0

>  <Rbt.Current_Directory>
/home/itssahil/PROJECTS/Mol_Feturizer/New_Systems/rnas/3F2Q

>  <Rbt.Executable>
rbdock ($Id: //depot/dev/client3/rdock/2013.1/src/exe/rbdock.cxx#4 $)

>  <Rbt.Library>
libRbt.so (2013.1, Build901 2013/11/27)

>  <Rbt.Parameter_File>
/export/apps/rDock/src/rDock_2013.1_src/data/scripts/dock_solv.prm

>  <Rbt.Receptor>
prm/pocket_docking_5.prm

>  <SCORE>
-31.7373

>  <SCORE.INTER>
-29.3713

>  <SCORE.INTER.CONST>
1

>  <SCORE.INTER.POLAR>
0

>  <SCORE.INTER.ROT>
7

>  <SCORE.INTER.SOLV>
10.5441

>  <SCORE.INTER.VDW>
-31.3623

>  <SCORE.INTER.norm>
-0.947462

>  <SCORE.INTRA>
-2.36602

>  <SCORE.INTRA.DIHEDRAL>
-3.67651

>  <SCORE.INTRA.DIHEDRAL.0>
10.0718

>  <SCORE.INTRA.POLAR>
0

>  <SCORE.INTRA.POLAR.0>
0

>  <SCORE.INTRA.REPUL>
0

>  <SCORE.INTRA.REPUL.0>
0

>  <SCORE.INTRA.SOLV>
2.15332

>  <SCORE.INTRA.SOLV.lig_0>
-48.6963

>  <SCORE.INTRA.VDW>
-1.60443

>  <SCORE.INTRA.VDW.0>
-0.836976

>  <SCORE.INTRA.norm>
-0.0763232

>  <SCORE.RESTR>
0

>  <SCORE.RESTR.CAVITY>
0

>  <SCORE.RESTR.norm>
0

>  <SCORE.SYSTEM>
0

>  <SCORE.SYSTEM.CONST>
0

>  <SCORE.SYSTEM.DIHEDRAL>
0

>  <SCORE.SYSTEM.SOLV>
0

>  <SCORE.SYSTEM.norm>
0

>  <SCORE.heavy>
31

>  <SCORE.norm>
-1.02379

>  <RMSD>
4.031

$$$$
ligand
 OpenBabel11021811473D
libRbt.so/2013.1/901 2013/11/27
 31 33  0  0  0  0  0  0  0  0999 V2000
   31.8688   35.8027   16.9009 P   0  0  1  0  0  0  0  0  0  0  0  0
   30.9352   34.8394   17.6024 O   0  0  0  0  0  0  0  0  0  0  0  0
   33.2705   35.5083   17.3632 O   0  5  0  0  0  0  0  0  0  0  0  0
   31.7812   35.6186   15.4108 O   0  0  0  0  0  0  0  0  0  0  0  0
   31.7057   37.8768   18.4671 C   0  0  0  0  0  0  0  0  0  0  0  0
   31.4175   37.3064   17.2138 O   0  0  0  0  0  0  0  0  0  0  0  0
   30.8898   39.1502   18.6344 C   0  0  1  0  0  0  0  0  0  0  0  0
   31.1080   39.9765   17.5106 O   0  0  0  0  0  0  0  0  0  0  0  0
   29.4045   38.8149   18.7696 C   0  0  1  0  0  0  0  0  0  0  0  0
   28.9484   38.1964   17.5856 O   0  0  0  0  0  0  0  0  0  0  0  0
   29.0726   37.9644   20.0037 C   0  0  1  0  0  0  0  0  0  0  0  0
   29.3060   38.7103   21.1776 O   0  0  0  0  0  0  0  0  0  0  0  0
   27.6342   37.4720   20.0037 C   0  0  0  0  0  0  0  0  0  0  0  0
   27.8525   34.7188   19.4077 N   0  0  0  0  0  0  0  0  0  0  0  0
   28.0195   33.3898   19.0755 C   0  0  0  0  0  0  0  0  0  0  0  0
   28.2059   33.0637   17.8999 O   0  0  0  0  0  0  0  0  0  0  0  0
   27.9670   32.4279   20.0641 N   0  0  0  0  0  0  0  0  0  0  0  0
   27.7489   32.7899   21.3801 C   0  0  0  0  0  0  0  0  0  0  0  0
   27.5834   34.1173   21.7163 C   0  0  1  0  0  0  0  0  0  0  0  0
   27.7088   31.9439   22.2718 O   0  0  0  0  0  0  0  0  0  0  0  0
   27.2091   35.7884   23.3783 C   0  0  2  0  0  0  0  0  0  0  0  0
   27.3711   34.4611   23.0372 N   0  0  0  0  0  0  0  0  0  0  0  0
   26.9929   36.1374   24.7092 C   0  0  0  0  0  0  0  0  0  0  0  0
   26.8208   37.4720   25.0624 C   0  0  1  0  0  0  0  0  0  0  0  0
   26.5989   37.8324   26.5055 C   0  0  0  0  0  0  0  0  0  0  0  0
   26.8697   38.4617   24.0741 C   0  0  1  0  0  0  0  0  0  0  0  0
   26.7027   39.9113   24.4257 C   0  0  0  0  0  0  0  0  0  0  0  0
   27.0866   38.1089   22.7455 C   0  0  0  0  0  0  0  0  0  0  0  0
   27.2563   36.7736   22.3874 C   0  0  2  0  0  0  0  0  0  0  0  0
   27.6373   35.0903   20.7248 C   0  0  2  0  0  0  0  0  0  0  0  0
   27.4634   36.4195   21.0595 N   0  0  0  0  0  0  0  0  0  0  0  0
  1  2  1  1  0  0  0
  1  3  1  0  0  0  0
  1  4  2  0  0  0  0
  1  6  1  0  0  0  0
  5  6  1  0  0  0  0
  7  5  1  6  0  0  0
  7  8  1  0  0  0  0
  7  9  1  0  0  0  0
  9 10  1  6  0  0  0
  9 11  1  0  0  0  0
 11 12  1  1  0  0  0
 11 13  1  0  0  0  0
 13 31  1  0  0  0  0
 14 15  1  0  0  0  0
 15 16  2  0  0  0  0
 15 17  1  0  0  0  0
 17 18  1  0  0  0  0
 18 20  2  0  0  0  0
 19 18  1  1  0  0  0
 19 22  1  0  0  0  0
 19 30  1  0  0  0  0
 21 23  1  6  0  0  0
 21 29  1  0  0  0  0
 21 22  1  0  0  0  0
 23 24  1  0  0  0  0
 24 25  1  1  0  0  0
 24 26  1  0  0  0  0
 26 27  1  1  0  0  0
 26 28  1  0  0  0  0
 29 28  1  6  0  0  0
 29 31  1  0  0  0  0
 30 14  1  6  0  0  0
 30 31  1  0  0  0  0
M  CHG  1   3  -1
M  END
>  <CHROM.1>
-166.14730982,76.26373055,-52.53008913,-62.91431299,66.71303454,167.76999416
82.01939555,28.95172774,36.31885340,20.24769400,0.29180656,-0.96976932,-2.83334423

>  <Name>
ligand

>  <RI>
0

>  <Rbt.Current_Directory>
/home/itssahil/PROJECTS/Mol_Feturizer/New_Systems/rnas/3F2Q

>  <Rbt.Executable>
rbdock ($Id: //depot/dev/client3/rdock/2013.1/src/exe/rbdock.cxx#4 $)

>  <Rbt.Library>
libRbt.so (2013.1, Build901 2013/11/27)

>  <Rbt.Parameter_File>
/export/apps/rDock/src/rDock_2013.1_src/data/scripts/dock_solv.prm

>  <Rbt.Receptor>
prm/blind_docking_60.prm

>  <SCORE>
-33.8909

>  <SCORE.INTER>
-28.7217

>  <SCORE.INTER.CONST>
1

>  <SCORE.INTER.POLAR>
0

>  <SCORE.INTER.ROT>
7

>  <SCORE.INTER.SOLV>
15.3675

>  <SCORE.INTER.VDW>
-32.537

>  <SCORE.INTER.norm>
-0.926506

>  <SCORE.INTRA>
-5.18005

>  <SCORE.INTRA.DIHEDRAL>
-6.70951

>  <SCORE.INTRA.DIHEDRAL.0>
10.0718

>  <SCORE.INTRA.POLAR>
0

>  <SCORE.INTRA.POLAR.0>
0

>  <SCORE.INTRA.REPUL>
0

>  <SCORE.INTRA.REPUL.0>
0

>  <SCORE.INTRA.SOLV>
-0.649946

>  <SCORE.INTRA.SOLV.lig_0>
-48.6963

>  <SCORE.INTRA.VDW>
-1.50032

>  <SCORE.INTRA.VDW.0>
-0.836976

>  <SCORE.INTRA.norm>
-0.167098

>  <SCORE.RESTR>
0.0108377

>  <SCORE.RESTR.CAVITY>
0.0108377

>  <SCORE.RESTR.norm>
0.000349602

>  <SCORE.SYSTEM>
0

>  <SCORE.SYSTEM.CONST>
0

>  <SCORE.SYSTEM.DIHEDRAL>
0

>  <SCORE.SYSTEM.SOLV>
0

>  <SCORE.SYSTEM.norm>
0

>  <SCORE.heavy>
31

>  <SCORE.norm>
-1.09326

>  <RMSD>
4.205

$$$$
ligand
 OpenBabel11021811473D
libRbt.so/2013.1/901 2013/11/27
 31 33  0  0  0  0  0  0  0  0999 V2000
   32.3615   35.8506   17.1035 P   0  0  1  0  0  0  0  0  0  0  0  0
   33.6044   35.7150   17.9570 O   0  0  0  0  0  0  0  0  0  0  0  0
   32.7972   35.9829   15.6690 O   0  5  0  0  0  0  0  0  0  0  0  0
   31.4919   34.6329   17.2550 O   0  0  0  0  0  0  0  0  0  0  0  0
   31.9165   37.8251   18.7421 C   0  0  0  0  0  0  0  0  0  0  0  0
   31.5028   37.1043   17.6070 O   0  0  0  0  0  0  0  0  0  0  0  0
   30.8691   38.8782   19.0725 C   0  0  1  0  0  0  0  0  0  0  0  0
   30.4433   39.4836   17.8702 O   0  0  0  0  0  0  0  0  0  0  0  0
   29.6843   38.2393   19.7969 C   0  0  1  0  0  0  0  0  0  0  0  0
   28.8143   39.2480   20.2641 O   0  0  0  0  0  0  0  0  0  0  0  0
   28.9298   37.2025   18.9530 C   0  0  1  0  0  0  0  0  0  0  0  0
   29.6081   35.9666   18.9918 O   0  0  0  0  0  0  0  0  0  0  0  0
   27.4974   36.9998   19.4206 C   0  0  0  0  0  0  0  0  0  0  0  0
   27.6577   34.2297   18.8873 N   0  0  0  0  0  0  0  0  0  0  0  0
   27.7905   32.8914   18.5780 C   0  0  0  0  0  0  0  0  0  0  0  0
   27.8298   32.5290   17.3989 O   0  0  0  0  0  0  0  0  0  0  0  0
   27.8691   31.9610   19.5946 N   0  0  0  0  0  0  0  0  0  0  0  0
   27.8156   32.3637   20.9157 C   0  0  0  0  0  0  0  0  0  0  0  0
   27.6848   33.7006   21.2289 C   0  0  1  0  0  0  0  0  0  0  0  0
   27.8937   31.5461   21.8312 O   0  0  0  0  0  0  0  0  0  0  0  0
   27.5111   35.4222   22.8723 C   0  0  2  0  0  0  0  0  0  0  0  0
   27.6379   34.0853   22.5548 N   0  0  0  0  0  0  0  0  0  0  0  0
   27.4615   35.8123   24.2084 C   0  0  0  0  0  0  0  0  0  0  0  0
   27.3262   37.1570   24.5391 C   0  0  1  0  0  0  0  0  0  0  0  0
   27.2850   37.5621   25.9867 C   0  0  0  0  0  0  0  0  0  0  0  0
   27.2438   38.1152   23.5224 C   0  0  1  0  0  0  0  0  0  0  0  0
   27.1126   39.5746   23.8472 C   0  0  0  0  0  0  0  0  0  0  0  0
   27.2944   37.7213   22.1885 C   0  0  0  0  0  0  0  0  0  0  0  0
   27.4268   36.3758   21.8534 C   0  0  2  0  0  0  0  0  0  0  0  0
   27.6071   34.6420   20.2089 C   0  0  2  0  0  0  0  0  0  0  0  0
   27.4678   35.9806   20.5216 N   0  0  0  0  0  0  0  0  0  0  0  0
  1  2  1  1  0  0  0
  1  3  1  0  0  0  0
  1  4  2  0  0  0  0
  1  6  1  0  0  0  0
  5  6  1  0  0  0  0
  7  5  1  6  0  0  0
  7  8  1  0  0  0  0
  7  9  1  0  0  0  0
  9 10  1  6  0  0  0
  9 11  1  0  0  0  0
 11 12  1  1  0  0  0
 11 13  1  0  0  0  0
 13 31  1  0  0  0  0
 14 15  1  0  0  0  0
 15 16  2  0  0  0  0
 15 17  1  0  0  0  0
 17 18  1  0  0  0  0
 18 20  2  0  0  0  0
 19 18  1  1  0  0  0
 19 22  1  0  0  0  0
 19 30  1  0  0  0  0
 21 23  1  6  0  0  0
 21 29  1  0  0  0  0
 21 22  1  0  0  0  0
 23 24  1  0  0  0  0
 24 25  1  1  0  0  0
 24 26  1  0  0  0  0
 26 27  1  1  0  0  0
 26 28  1  0  0  0  0
 29 28  1  6  0  0  0
 29 31  1  0  0  0  0
 30 14  1  6  0  0  0
 30 31  1  0  0  0  0
M  CHG  1   3  -1
M  END
>  <CHROM.1>
-175.08960088,-3.82854418,-42.44853505,171.69809748,81.27514734,-85.81916211
98.06291840,29.12599441,35.97264464,20.05567736,-0.37235627,0.87740983,0.43549085

>  <Name>
ligand

>  <RI>
0

>  <Rbt.Current_Directory>
/home/itssahil/PROJECTS/Mol_Feturizer/New_Systems/rnas/3F2Q

>  <Rbt.Executable>
rbdock ($Id: //depot/dev/client3/rdock/2013.1/src/exe/rbdock.cxx#4 $)

>  <Rbt.Library>
libRbt.so (2013.1, Build901 2013/11/27)

>  <Rbt.Parameter_File>
/export/apps/rDock/src/rDock_2013.1_src/data/scripts/dock_solv.prm

>  <Rbt.Receptor>
prm/pocket_docking_6.prm

>  <SCORE>
-30.4812

>  <SCORE.INTER>
-29.823

>  <SCORE.INTER.CONST>
1

>  <SCORE.INTER.POLAR>
0

>  <SCORE.INTER.ROT>
7

>  <SCORE.INTER.SOLV>
16.944

>  <SCORE.INTER.VDW>
-33.7967

>  <SCORE.INTER.norm>
-0.962032

>  <SCORE.INTRA>
-0.659177

>  <SCORE.INTRA.DIHEDRAL>
-1.62018

>  <SCORE.INTRA.DIHEDRAL.0>
10.0718

>  <SCORE.INTRA.POLAR>
0

>  <SCORE.INTRA.POLAR.0>
0

>  <SCORE.INTRA.REPUL>
0

>  <SCORE.INTRA.REPUL.0>
0

>  <SCORE.INTRA.SOLV>
1.32077

>  <SCORE.INTRA.SOLV.lig_0>
-48.6963

>  <SCORE.INTRA.VDW>
-0.509471

>  <SCORE.INTRA.VDW.0>
-0.836976

>  <SCORE.INTRA.norm>
-0.0212638

>  <SCORE.RESTR>
0.00101372

>  <SCORE.RESTR.CAVITY>
0.00101372

>  <SCORE.RESTR.norm>
3.27005e-05

>  <SCORE.SYSTEM>
0

>  <SCORE.SYSTEM.CONST>
0

>  <SCORE.SYSTEM.DIHEDRAL>
0

>  <SCORE.SYSTEM.SOLV>
0

>  <SCORE.SYSTEM.norm>
0

>  <SCORE.heavy>
31

>  <SCORE.norm>
-0.983263

>  <RMSD>
4.293

$$$$
ligand
 OpenBabel11021811473D
libRbt.so/2013.1/901 2013/11/27
 31 33  0  0  0  0  0  0  0  0999 V2000
   29.4998   34.5146   13.8031 P   0  0  1  0  0  0  0  0  0  0  0  0
   28.1555   33.9728   14.2400 O   0  0  0  0  0  0  0  0  0  0  0  0
   30.4648   33.3614   13.7385 O   0  5  0  0  0  0  0  0  0  0  0  0
   29.3865   35.1526   12.4459 O   0  0  0  0  0  0  0  0  0  0  0  0
   29.0351   36.2491   15.6891 C   0  0  0  0  0  0  0  0  0  0  0  0
   29.9701   35.6581   14.8198 O   0  0  0  0  0  0  0  0  0  0  0  0
   29.7137   37.3693   16.4638 C   0  0  1  0  0  0  0  0  0  0  0  0
   30.0695   38.3925   15.5583 O   0  0  0  0  0  0  0  0  0  0  0  0
   28.7760   37.9130   17.5415 C   0  0  1  0  0  0  0  0  0  0  0  0
   27.4732   38.0442   17.0142 O   0  0  0  0  0  0  0  0  0  0  0  0
   28.7713   37.0832   18.8330 C   0  0  1  0  0  0  0  0  0  0  0  0
   29.8392   37.4817   19.6635 O   0  0  0  0  0  0  0  0  0  0  0  0
   27.4667   37.2095   19.6034 C   0  0  0  0  0  0  0  0  0  0  0  0
   27.6130   34.4457   19.0348 N   0  0  0  0  0  0  0  0  0  0  0  0
   27.7395   33.1107   18.7088 C   0  0  0  0  0  0  0  0  0  0  0  0
   27.7845   32.7635   17.5253 O   0  0  0  0  0  0  0  0  0  0  0  0
   27.8054   32.1666   19.7135 N   0  0  0  0  0  0  0  0  0  0  0  0
   27.7456   32.5522   21.0395 C   0  0  0  0  0  0  0  0  0  0  0  0
   27.6211   33.8858   21.3694 C   0  0  1  0  0  0  0  0  0  0  0  0
   27.8123   31.7223   21.9446 O   0  0  0  0  0  0  0  0  0  0  0  0
   27.4472   35.5867   23.0340 C   0  0  2  0  0  0  0  0  0  0  0  0
   27.5676   34.2534   22.6999 N   0  0  0  0  0  0  0  0  0  0  0  0
   27.3910   35.9596   24.3748 C   0  0  0  0  0  0  0  0  0  0  0  0
   27.2620   37.3007   24.7222 C   0  0  1  0  0  0  0  0  0  0  0  0
   27.2136   37.6870   26.1748 C   0  0  0  0  0  0  0  0  0  0  0  0
   27.1925   38.2727   23.7176 C   0  0  1  0  0  0  0  0  0  0  0  0
   27.0684   39.7285   24.0607 C   0  0  0  0  0  0  0  0  0  0  0  0
   27.2497   37.8959   22.3791 C   0  0  0  0  0  0  0  0  0  0  0  0
   27.3758   36.5542   22.0272 C   0  0  2  0  0  0  0  0  0  0  0  0
   27.5562   34.8409   20.3614 C   0  0  2  0  0  0  0  0  0  0  0  0
   27.4232   36.1762   20.6906 N   0  0  0  0  0  0  0  0  0  0  0  0
  1  2  1  1  0  0  0
  1  3  1  0  0  0  0
  1  4  2  0  0  0  0
  1  6  1  0  0  0  0
  5  6  1  0  0  0  0
  7  5  1  6  0  0  0
  7  8  1  0  0  0  0
  7  9  1  0  0  0  0
  9 10  1  6  0  0  0
  9 11  1  0  0  0  0
 11 12  1  1  0  0  0
 11 13  1  0  0  0  0
 13 31  1  0  0  0  0
 14 15  1  0  0  0  0
 15 16  2  0  0  0  0
 15 17  1  0  0  0  0
 17 18  1  0  0  0  0
 18 20  2  0  0  0  0
 19 18  1  1  0  0  0
 19 22  1  0  0  0  0
 19 30  1  0  0  0  0
 21 23  1  6  0  0  0
 21 29  1  0  0  0  0
 21 22  1  0  0  0  0
 23 24  1  0  0  0  0
 24 25  1  1  0  0  0
 24 26  1  0  0  0  0
 26 27  1  1  0  0  0
 26 28  1  0  0  0  0
 29 28  1  6  0  0  0
 29 31  1  0  0  0  0
 30 14  1  6  0  0  0
 30 31  1  0  0  0  0
M  CHG  1   3  -1
M  END
>  <CHROM.1>
-175.66495651,-16.59182910,66.01750405,-42.62350504,84.27320698,168.75008397
117.03353197,28.28112921,35.65981587,19.02939608,0.50850092,-1.32349583,-2.79080374

>  <Name>
ligand

>  <RI>
0

>  <Rbt.Current_Directory>
/home/itssahil/PROJECTS/Mol_Feturizer/New_Systems/rnas/3F2Q

>  <Rbt.Executable>
rbdock ($Id: //depot/dev/client3/rdock/2013.1/src/exe/rbdock.cxx#4 $)

>  <Rbt.Library>
libRbt.so (2013.1, Build901 2013/11/27)

>  <Rbt.Parameter_File>
/export/apps/rDock/src/rDock_2013.1_src/data/scripts/dock_solv.prm

>  <Rbt.Receptor>
prm/pocket_docking_8.prm

>  <SCORE>
-25.8318

>  <SCORE.INTER>
-23.4078

>  <SCORE.INTER.CONST>
1

>  <SCORE.INTER.POLAR>
0

>  <SCORE.INTER.ROT>
7

>  <SCORE.INTER.SOLV>
12.1768

>  <SCORE.INTER.VDW>
-27.9308

>  <SCORE.INTER.norm>
-0.755089

>  <SCORE.INTRA>
-2.42406

>  <SCORE.INTRA.DIHEDRAL>
-3.25003

>  <SCORE.INTRA.DIHEDRAL.0>
10.0718

>  <SCORE.INTRA.POLAR>
0

>  <SCORE.INTRA.POLAR.0>
0

>  <SCORE.INTRA.REPUL>
0

>  <SCORE.INTRA.REPUL.0>
0

>  <SCORE.INTRA.SOLV>
-1.75816

>  <SCORE.INTRA.SOLV.lig_0>
-48.6963

>  <SCORE.INTRA.VDW>
0.0800333

>  <SCORE.INTRA.VDW.0>
-0.836976

>  <SCORE.INTRA.norm>
-0.0781956

>  <SCORE.RESTR>
0

>  <SCORE.RESTR.CAVITY>
0

>  <SCORE.RESTR.norm>
0

>  <SCORE.SYSTEM>
0

>  <SCORE.SYSTEM.CONST>
0

>  <SCORE.SYSTEM.DIHEDRAL>
0

>  <SCORE.SYSTEM.SOLV>
0

>  <SCORE.SYSTEM.norm>
0

>  <SCORE.heavy>
31

>  <SCORE.norm>
-0.833285

>  <RMSD>
4.331

$$$$
ligand
 OpenBabel11021811473D
libRbt.so/2013.1/901 2013/11/27
 31 33  0  0  0  0  0  0  0  0999 V2000
   24.3377   33.9357   18.7279 P   0  0  1  0  0  0  0  0  0  0  0  0
   25.0653   34.3376   19.9930 O   0  0  0  0  0  0  0  0  0  0  0  0
   25.2113   32.9646   17.9801 O   0  5  0  0  0  0  0  0  0  0  0  0
   23.0294   33.2766   19.0682 O   0  0  0  0  0  0  0  0  0  0  0  0
   24.6092   36.4687   18.1880 C   0  0  0  0  0  0  0  0  0  0  0  0
   23.9938   35.2438   17.8716 O   0  0  0  0  0  0  0  0  0  0  0  0
   26.1200   36.2916   18.1504 C   0  0  1  0  0  0  0  0  0  0  0  0
   26.4654   35.6160   16.9598 O   0  0  0  0  0  0  0  0  0  0  0  0
   26.8155   37.6513   18.2133 C   0  0  1  0  0  0  0  0  0  0  0  0
   26.3857   38.3511   19.3613 O   0  0  0  0  0  0  0  0  0  0  0  0
   28.3471   37.5655   18.1563 C   0  0  1  0  0  0  0  0  0  0  0  0
   28.8659   38.6879   17.4781 O   0  0  0  0  0  0  0  0  0  0  0  0
   28.9789   37.4813   19.5366 C   0  0  0  0  0  0  0  0  0  0  0  0
   28.9224   34.8513   18.5054 N   0  0  0  0  0  0  0  0  0  0  0  0
   28.9658   33.5758   17.9803 C   0  0  0  0  0  0  0  0  0  0  0  0
   29.4139   33.3877   16.8459 O   0  0  0  0  0  0  0  0  0  0  0  0
   28.4963   32.5144   18.7274 N   0  0  0  0  0  0  0  0  0  0  0  0
   27.9851   32.7238   19.9944 C   0  0  0  0  0  0  0  0  0  0  0  0
   27.9419   33.9969   20.5235 C   0  0  1  0  0  0  0  0  0  0  0  0
   27.5719   31.7859   20.6742 O   0  0  0  0  0  0  0  0  0  0  0  0
   27.3907   35.4585   22.3276 C   0  0  2  0  0  0  0  0  0  0  0  0
   27.4321   34.1870   21.7932 N   0  0  0  0  0  0  0  0  0  0  0  0
   26.8753   35.6529   23.6068 C   0  0  0  0  0  0  0  0  0  0  0  0
   26.8222   36.9319   24.1518 C   0  0  1  0  0  0  0  0  0  0  0  0
   26.2725   37.1227   25.5384 C   0  0  0  0  0  0  0  0  0  0  0  0
   27.2925   38.0210   23.4093 C   0  0  1  0  0  0  0  0  0  0  0  0
   27.2625   39.4107   23.9754 C   0  0  0  0  0  0  0  0  0  0  0  0
   27.8074   37.8225   22.1316 C   0  0  0  0  0  0  0  0  0  0  0  0
   27.8595   36.5440   21.5814 C   0  0  2  0  0  0  0  0  0  0  0  0
   28.4152   35.0693   19.7760 C   0  0  2  0  0  0  0  0  0  0  0  0
   28.3646   36.3460   20.3019 N   0  0  0  0  0  0  0  0  0  0  0  0
  1  2  1  1  0  0  0
  1  3  1  0  0  0  0
  1  4  2  0  0  0  0
  1  6  1  0  0  0  0
  5  6  1  0  0  0  0
  7  5  1  6  0  0  0
  7  8  1  0  0  0  0
  7  9  1  0  0  0  0
  9 10  1  1  0  0  0
  9 11  1  0  0  0  0
 11 12  1  1  0  0  0
 11 13  1  0  0  0  0
 13 31  1  0  0  0  0
 14 15  1  0  0  0  0
 15 16  2  0  0  0  0
 15 17  1  0  0  0  0
 17 18  1  0  0  0  0
 18 20  2  0  0  0  0
 19 18  1  1  0  0  0
 19 22  1  0  0  0  0
 19 30  1  0  0  0  0
 21 23  1  6  0  0  0
 21 29  1  0  0  0  0
 21 22  1  0  0  0  0
 23 24  1  0  0  0  0
 24 25  1  1  0  0  0
 24 26  1  0  0  0  0
 26 27  1  1  0  0  0
 26 28  1  0  0  0  0
 29 28  1  6  0  0  0
 29 31  1  0  0  0  0
 30 14  1  6  0  0  0
 30 31  1  0  0  0  0
M  CHG  1   3  -1
M  END
>  <CHROM.1>
56.02916634,13.58994216,47.59903933,55.78089811,146.59554780,53.81760125
-128.64752448,26.90606600,35.49970761,19.90327574,1.85761614,-0.99584457
-1.95379265

>  <Name>
ligand

>  <RI>
0

>  <Rbt.Current_Directory>
/home/itssahil/PROJECTS/Mol_Feturizer/New_Systems/rnas/3F2Q

>  <Rbt.Executable>
rbdock ($Id: //depot/dev/client3/rdock/2013.1/src/exe/rbdock.cxx#4 $)

>  <Rbt.Library>
libRbt.so (2013.1, Build901 2013/11/27)

>  <Rbt.Parameter_File>
/export/apps/rDock/src/rDock_2013.1_src/data/scripts/dock_solv.prm

>  <Rbt.Receptor>
prm/pocket_docking_7.prm

>  <SCORE>
-31.0678

>  <SCORE.INTER>
-27.4728

>  <SCORE.INTER.CONST>
1

>  <SCORE.INTER.POLAR>
0

>  <SCORE.INTER.ROT>
7

>  <SCORE.INTER.SOLV>
13.7953

>  <SCORE.INTER.VDW>
-31.1803

>  <SCORE.INTER.norm>
-0.886218

>  <SCORE.INTRA>
-3.59501

>  <SCORE.INTRA.DIHEDRAL>
-2.68178

>  <SCORE.INTRA.DIHEDRAL.0>
10.0718

>  <SCORE.INTRA.POLAR>
0

>  <SCORE.INTRA.POLAR.0>
0

>  <SCORE.INTRA.REPUL>
0

>  <SCORE.INTRA.REPUL.0>
0

>  <SCORE.INTRA.SOLV>
1.91792

>  <SCORE.INTRA.SOLV.lig_0>
-48.6963

>  <SCORE.INTRA.VDW>
-3.21308

>  <SCORE.INTRA.VDW.0>
-0.836976

>  <SCORE.INTRA.norm>
-0.115968

>  <SCORE.RESTR>
0

>  <SCORE.RESTR.CAVITY>
0

>  <SCORE.RESTR.norm>
0

>  <SCORE.SYSTEM>
0

>  <SCORE.SYSTEM.CONST>
0

>  <SCORE.SYSTEM.DIHEDRAL>
0

>  <SCORE.SYSTEM.SOLV>
0

>  <SCORE.SYSTEM.norm>
0

>  <SCORE.heavy>
31

>  <SCORE.norm>
-1.00219

>  <RMSD>
4.344

$$$$
ligand
 OpenBabel11021811473D
libRbt.so/2013.1/901 2013/11/27
 31 33  0  0  0  0  0  0  0  0999 V2000
   29.6854   34.6724   13.2809 P   0  0  1  0  0  0  0  0  0  0  0  0
   29.1723   35.2827   11.9941 O   0  0  0  0  0  0  0  0  0  0  0  0
   28.9826   33.3568   13.4818 O   0  5  0  0  0  0  0  0  0  0  0  0
   31.1689   34.4420   13.1913 O   0  0  0  0  0  0  0  0  0  0  0  0
   29.8077   35.3282   15.7982 C   0  0  0  0  0  0  0  0  0  0  0  0
   29.4428   35.6937   14.4896 O   0  0  0  0  0  0  0  0  0  0  0  0
   29.4165   36.4450   16.7548 C   0  0  1  0  0  0  0  0  0  0  0  0
   28.0149   36.6085   16.7082 O   0  0  0  0  0  0  0  0  0  0  0  0
   29.8674   36.1086   18.1762 C   0  0  1  0  0  0  0  0  0  0  0  0
   31.2711   35.9634   18.2065 O   0  0  0  0  0  0  0  0  0  0  0  0
   29.3905   37.1168   19.2309 C   0  0  1  0  0  0  0  0  0  0  0  0
   29.6484   38.4313   18.7897 O   0  0  0  0  0  0  0  0  0  0  0  0
   27.9092   36.9777   19.5438 C   0  0  0  0  0  0  0  0  0  0  0  0
   28.0554   34.2137   18.9762 N   0  0  0  0  0  0  0  0  0  0  0  0
   28.1874   32.8775   18.6575 C   0  0  0  0  0  0  0  0  0  0  0  0
   28.3604   32.5345   17.4846 O   0  0  0  0  0  0  0  0  0  0  0  0
   28.1149   31.9277   19.6564 N   0  0  0  0  0  0  0  0  0  0  0  0
   27.9116   32.3088   20.9694 C   0  0  0  0  0  0  0  0  0  0  0  0
   27.7812   33.6435   21.2921 C   0  0  1  0  0  0  0  0  0  0  0  0
   27.8540   31.4736   21.8702 O   0  0  0  0  0  0  0  0  0  0  0  0
   27.4563   35.3408   22.9378 C   0  0  2  0  0  0  0  0  0  0  0  0
   27.5833   34.0064   22.6102 N   0  0  0  0  0  0  0  0  0  0  0  0
   27.2547   35.7092   24.2658 C   0  0  0  0  0  0  0  0  0  0  0  0
   27.1178   37.0514   24.6056 C   0  0  1  0  0  0  0  0  0  0  0  0
   26.9114   37.4324   26.0456 C   0  0  0  0  0  0  0  0  0  0  0  0
   27.1874   38.0291   23.6066 C   0  0  1  0  0  0  0  0  0  0  0  0
   27.0586   39.4860   23.9435 C   0  0  0  0  0  0  0  0  0  0  0  0
   27.3897   37.6570   22.2809 C   0  0  0  0  0  0  0  0  0  0  0  0
   27.5241   36.3141   21.9363 C   0  0  2  0  0  0  0  0  0  0  0  0
   27.8553   34.6043   20.2902 C   0  0  2  0  0  0  0  0  0  0  0  0
   27.7165   35.9410   20.6115 N   0  0  0  0  0  0  0  0  0  0  0  0
  1  2  1  6  0  0  0
  1  3  1  0  0  0  0
  1  4  2  0  0  0  0
  1  6  1  0  0  0  0
  5  6  1  0  0  0  0
  7  5  1  6  0  0  0
  7  8  1  0  0  0  0
  7  9  1  0  0  0  0
  9 10  1  6  0  0  0
  9 11  1  0  0  0  0
 11 12  1  6  0  0  0
 11 13  1  0  0  0  0
 13 31  1  0  0  0  0
 14 15  1  0  0  0  0
 15 16  2  0  0  0  0
 15 17  1  0  0  0  0
 17 18  1  0  0  0  0
 18 20  2  0  0  0  0
 19 18  1  1  0  0  0
 19 22  1  0  0  0  0
 19 30  1  0  0  0  0
 21 23  1  6  0  0  0
 21 29  1  0  0  0  0
 21 22  1  0  0  0  0
 23 24  1  0  0  0  0
 24 25  1  1  0  0  0
 24 26  1  0  0  0  0
 26 27  1  1  0  0  0
 26 28  1  0  0  0  0
 29 28  1  6  0  0  0
 29 31  1  0  0  0  0
 30 14  1  6  0  0  0
 30 31  1  0  0  0  0
M  CHG  1   3  -1
M  END
>  <CHROM.1>
-177.54778805,178.27171894,61.82065864,60.55235740,-47.70501851,86.47037696
99.63099991,28.53041562,35.34639675,18.96604991,-0.51403364,1.29834869,0.35882798

>  <Name>
ligand

>  <RI>
0

>  <Rbt.Current_Directory>
/home/itssahil/PROJECTS/Mol_Feturizer/New_Systems/rnas/3F2Q

>  <Rbt.Executable>
rbdock ($Id: //depot/dev/client3/rdock/2013.1/src/exe/rbdock.cxx#4 $)

>  <Rbt.Library>
libRbt.so (2013.1, Build901 2013/11/27)

>  <Rbt.Parameter_File>
/export/apps/rDock/src/rDock_2013.1_src/data/scripts/dock_solv.prm

>  <Rbt.Receptor>
prm/blind_docking_60.prm

>  <SCORE>
-31.9226

>  <SCORE.INTER>
-27.1746

>  <SCORE.INTER.CONST>
1

>  <SCORE.INTER.POLAR>
0

>  <SCORE.INTER.ROT>
7

>  <SCORE.INTER.SOLV>
11.015

>  <SCORE.INTER.VDW>
-30.0548

>  <SCORE.INTER.norm>
-0.876601

>  <SCORE.INTRA>
-4.74795

>  <SCORE.INTRA.DIHEDRAL>
-6.19987

>  <SCORE.INTRA.DIHEDRAL.0>
10.0718

>  <SCORE.INTRA.POLAR>
0

>  <SCORE.INTRA.POLAR.0>
0

>  <SCORE.INTRA.REPUL>
0

>  <SCORE.INTRA.REPUL.0>
0

>  <SCORE.INTRA.SOLV>
-0.244608

>  <SCORE.INTRA.SOLV.lig_0>
-48.6963

>  <SCORE.INTRA.VDW>
-1.52571

>  <SCORE.INTRA.VDW.0>
-0.836976

>  <SCORE.INTRA.norm>
-0.15316

>  <SCORE.RESTR>
0

>  <SCORE.RESTR.CAVITY>
0

>  <SCORE.RESTR.norm>
0

>  <SCORE.SYSTEM>
0

>  <SCORE.SYSTEM.CONST>
0

>  <SCORE.SYSTEM.DIHEDRAL>
0

>  <SCORE.SYSTEM.SOLV>
0

>  <SCORE.SYSTEM.norm>
0

>  <SCORE.heavy>
31

>  <SCORE.norm>
-1.02976

>  <RMSD>
4.519

$$$$
ligand
 OpenBabel11021811473D
libRbt.so/2013.1/901 2013/11/27
 31 33  0  0  0  0  0  0  0  0999 V2000
   27.6273   35.3697   14.9706 P   0  0  1  0  0  0  0  0  0  0  0  0
   27.5715   34.9559   13.5155 O   0  0  0  0  0  0  0  0  0  0  0  0
   26.5707   36.4178   15.1946 O   0  5  0  0  0  0  0  0  0  0  0  0
   27.3578   34.1858   15.8580 O   0  0  0  0  0  0  0  0  0  0  0  0
   29.2798   36.8470   16.3375 C   0  0  0  0  0  0  0  0  0  0  0  0
   29.0996   35.8913   15.3208 O   0  0  0  0  0  0  0  0  0  0  0  0
   30.7688   37.0262   16.5944 C   0  0  1  0  0  0  0  0  0  0  0  0
   31.4133   37.2684   15.3618 O   0  0  0  0  0  0  0  0  0  0  0  0
   31.0049   38.1897   17.5574 C   0  0  1  0  0  0  0  0  0  0  0  0
   30.4924   39.3799   16.9976 O   0  0  0  0  0  0  0  0  0  0  0  0
   30.4419   37.9509   18.9653 C   0  0  1  0  0  0  0  0  0  0  0  0
   31.1677   38.7089   19.9075 O   0  0  0  0  0  0  0  0  0  0  0  0
   28.9669   38.3035   19.0718 C   0  0  0  0  0  0  0  0  0  0  0  0
   28.3955   35.6203   19.7479 N   0  0  0  0  0  0  0  0  0  0  0  0
   28.1803   34.2898   20.0448 C   0  0  0  0  0  0  0  0  0  0  0  0
   28.3085   33.4308   19.1680 O   0  0  0  0  0  0  0  0  0  0  0  0
   27.8117   33.9277   21.3247 N   0  0  0  0  0  0  0  0  0  0  0  0
   27.6582   34.8890   22.3059 C   0  0  0  0  0  0  0  0  0  0  0  0
   27.8742   36.2196   22.0135 C   0  0  1  0  0  0  0  0  0  0  0  0
   27.3389   34.5792   23.4524 O   0  0  0  0  0  0  0  0  0  0  0  0
   27.9399   38.4979   22.7202 C   0  0  2  0  0  0  0  0  0  0  0  0
   27.7208   37.1662   23.0077 N   0  0  0  0  0  0  0  0  0  0  0  0
   27.7839   39.4545   23.7205 C   0  0  0  0  0  0  0  0  0  0  0  0
   27.9951   40.8006   23.4391 C   0  0  1  0  0  0  0  0  0  0  0  0
   27.8327   41.8192   24.5334 C   0  0  0  0  0  0  0  0  0  0  0  0
   28.3684   41.1876   22.1470 C   0  0  1  0  0  0  0  0  0  0  0  0
   28.6180   42.6301   21.8161 C   0  0  0  0  0  0  0  0  0  0  0  0
   28.5239   40.2286   21.1505 C   0  0  0  0  0  0  0  0  0  0  0  0
   28.3105   38.8803   21.4275 C   0  0  2  0  0  0  0  0  0  0  0  0
   28.2475   36.5896   20.7265 C   0  0  2  0  0  0  0  0  0  0  0  0
   28.4561   37.9230   20.4306 N   0  0  0  0  0  0  0  0  0  0  0  0
  1  2  1  6  0  0  0
  1  3  1  0  0  0  0
  1  4  2  0  0  0  0
  1  6  1  0  0  0  0
  5  6  1  0  0  0  0
  7  5  1  6  0  0  0
  7  8  1  0  0  0  0
  7  9  1  0  0  0  0
  9 10  1  6  0  0  0
  9 11  1  0  0  0  0
 11 12  1  1  0  0  0
 11 13  1  0  0  0  0
 13 31  1  0  0  0  0
 14 15  1  0  0  0  0
 15 16  2  0  0  0  0
 15 17  1  0  0  0  0
 17 18  1  0  0  0  0
 18 20  2  0  0  0  0
 19 18  1  1  0  0  0
 19 22  1  0  0  0  0
 19 30  1  0  0  0  0
 21 23  1  6  0  0  0
 21 29  1  0  0  0  0
 21 22  1  0  0  0  0
 23 24  1  0  0  0  0
 24 25  1  1  0  0  0
 24 26  1  0  0  0  0
 26 27  1  1  0  0  0
 26 28  1  0  0  0  0
 29 28  1  6  0  0  0
 29 31  1  0  0  0  0
 30 14  1  6  0  0  0
 30 31  1  0  0  0  0
M  CHG  1   3  -1
M  END
>  <CHROM.1>
172.39874064,151.55910021,51.24201031,-60.15840054,153.81126624,174.62240933
100.00402096,28.59514806,37.23536183,19.29028826,1.46782921,-1.18996503,-2.15112651

>  <Name>
ligand

>  <RI>
0

>  <Rbt.Current_Directory>
/home/itssahil/PROJECTS/Mol_Feturizer/New_Systems/rnas/3F2Q

>  <Rbt.Executable>
rbdock ($Id: //depot/dev/client3/rdock/2013.1/src/exe/rbdock.cxx#4 $)

>  <Rbt.Library>
libRbt.so (2013.1, Build901 2013/11/27)

>  <Rbt.Parameter_File>
/export/apps/rDock/src/rDock_2013.1_src/data/scripts/dock_solv.prm

>  <Rbt.Receptor>
prm/pocket_docking_7.prm

>  <SCORE>
-25.0136

>  <SCORE.INTER>
-21.5707

>  <SCORE.INTER.CONST>
1

>  <SCORE.INTER.POLAR>
0

>  <SCORE.INTER.ROT>
7

>  <SCORE.INTER.SOLV>
14.5333

>  <SCORE.INTER.VDW>
-27.4916

>  <SCORE.INTER.norm>
-0.69583

>  <SCORE.INTRA>
-3.45599

>  <SCORE.INTRA.DIHEDRAL>
-4.92528

>  <SCORE.INTRA.DIHEDRAL.0>
10.0718

>  <SCORE.INTRA.POLAR>
0

>  <SCORE.INTRA.POLAR.0>
0

>  <SCORE.INTRA.REPUL>
0

>  <SCORE.INTRA.REPUL.0>
0

>  <SCORE.INTRA.SOLV>
-0.586142

>  <SCORE.INTRA.SOLV.lig_0>
-48.6963

>  <SCORE.INTRA.VDW>
-0.700281

>  <SCORE.INTRA.VDW.0>
-0.836976

>  <SCORE.INTRA.norm>
-0.111484

>  <SCORE.RESTR>
0.0131449

>  <SCORE.RESTR.CAVITY>
0.0131449

>  <SCORE.RESTR.norm>
0.00042403

>  <SCORE.SYSTEM>
0

>  <SCORE.SYSTEM.CONST>
0

>  <SCORE.SYSTEM.DIHEDRAL>
0

>  <SCORE.SYSTEM.SOLV>
0

>  <SCORE.SYSTEM.norm>
0

>  <SCORE.heavy>
31

>  <SCORE.norm>
-0.806889

>  <RMSD>
4.540

$$$$
ligand
 OpenBabel11021811473D
libRbt.so/2013.1/901 2013/11/27
 31 33  0  0  0  0  0  0  0  0999 V2000
   32.3613   35.1699   16.4318 P   0  0  1  0  0  0  0  0  0  0  0  0
   32.7297   36.0622   15.2658 O   0  0  0  0  0  0  0  0  0  0  0  0
   31.4177   34.1124   15.9255 O   0  5  0  0  0  0  0  0  0  0  0  0
   33.5932   34.5169   16.9956 O   0  0  0  0  0  0  0  0  0  0  0  0
   31.9776   37.4404   17.6480 C   0  0  0  0  0  0  0  0  0  0  0  0
   31.7249   36.0572   17.6024 O   0  0  0  0  0  0  0  0  0  0  0  0
   31.3435   38.0216   18.9032 C   0  0  1  0  0  0  0  0  0  0  0  0
   31.7071   39.3821   19.0037 O   0  0  0  0  0  0  0  0  0  0  0  0
   29.8227   37.8787   18.8446 C   0  0  1  0  0  0  0  0  0  0  0  0
   29.4853   36.5912   18.3744 O   0  0  0  0  0  0  0  0  0  0  0  0
   29.1212   38.1856   20.1750 C   0  0  1  0  0  0  0  0  0  0  0  0
   29.2055   39.5652   20.4552 O   0  0  0  0  0  0  0  0  0  0  0  0
   27.6601   37.7653   20.1751 C   0  0  0  0  0  0  0  0  0  0  0  0
   27.8177   35.0243   19.5077 N   0  0  0  0  0  0  0  0  0  0  0  0
   27.9560   33.7008   19.1420 C   0  0  0  0  0  0  0  0  0  0  0  0
   28.1518   33.4017   17.9607 O   0  0  0  0  0  0  0  0  0  0  0  0
   27.8642   32.7144   20.1031 N   0  0  0  0  0  0  0  0  0  0  0  0
   27.6354   33.0465   21.4252 C   0  0  0  0  0  0  0  0  0  0  0  0
   27.4985   34.3682   21.7950 C   0  0  1  0  0  0  0  0  0  0  0  0
   27.5604   32.1782   22.2930 O   0  0  0  0  0  0  0  0  0  0  0  0
   27.1415   36.0032   23.4962 C   0  0  2  0  0  0  0  0  0  0  0  0
   27.2750   34.6819   23.1216 N   0  0  0  0  0  0  0  0  0  0  0  0
   26.9140   36.3218   24.8328 C   0  0  0  0  0  0  0  0  0  0  0  0
   26.7705   37.6506   25.2197 C   0  0  1  0  0  0  0  0  0  0  0  0
   26.5360   37.9777   26.6687 C   0  0  0  0  0  0  0  0  0  0  0  0
   26.8593   38.6648   24.2595 C   0  0  1  0  0  0  0  0  0  0  0  0
   26.7238   40.1082   24.6479 C   0  0  0  0  0  0  0  0  0  0  0  0
   27.0874   38.3423   22.9250 C   0  0  0  0  0  0  0  0  0  0  0  0
   27.2287   37.0131   22.5332 C   0  0  2  0  0  0  0  0  0  0  0  0
   27.5920   35.3657   20.8312 C   0  0  2  0  0  0  0  0  0  0  0  0
   27.4468   36.6896   21.1994 N   0  0  0  0  0  0  0  0  0  0  0  0
  1  2  1  6  0  0  0
  1  3  1  0  0  0  0
  1  4  2  0  0  0  0
  1  6  1  0  0  0  0
  5  6  1  0  0  0  0
  7  5  1  6  0  0  0
  7  8  1  0  0  0  0
  7  9  1  0  0  0  0
  9 10  1  1  0  0  0
  9 11  1  0  0  0  0
 11 12  1  6  0  0  0
 11 13  1  0  0  0  0
 13 31  1  0  0  0  0
 14 15  1  0  0  0  0
 15 16  2  0  0  0  0
 15 17  1  0  0  0  0
 17 18  1  0  0  0  0
 18 20  2  0  0  0  0
 19 18  1  1  0  0  0
 19 22  1  0  0  0  0
 19 30  1  0  0  0  0
 21 23  1  6  0  0  0
 21 29  1  0  0  0  0
 21 22  1  0  0  0  0
 23 24  1  0  0  0  0
 24 25  1  1  0  0  0
 24 26  1  0  0  0  0
 26 27  1  1  0  0  0
 26 28  1  0  0  0  0
 29 28  1  6  0  0  0
 29 31  1  0  0  0  0
 30 14  1  6  0  0  0
 30 31  1  0  0  0  0
M  CHG  1   3  -1
M  END
>  <CHROM.1>
-175.98337056,-20.92945003,174.62405859,43.55899653,69.91260686,116.24190815
84.01903978,29.10136562,36.20767985,20.26087764,-0.49901843,0.88257860,0.39531113

>  <Name>
ligand

>  <RI>
0

>  <Rbt.Current_Directory>
/home/itssahil/PROJECTS/Mol_Feturizer/New_Systems/rnas/3F2Q

>  <Rbt.Executable>
rbdock ($Id: //depot/dev/client3/rdock/2013.1/src/exe/rbdock.cxx#4 $)

>  <Rbt.Library>
libRbt.so (2013.1, Build901 2013/11/27)

>  <Rbt.Parameter_File>
/export/apps/rDock/src/rDock_2013.1_src/data/scripts/dock_solv.prm

>  <Rbt.Receptor>
prm/pocket_docking_6.prm

>  <SCORE>
-29.7374

>  <SCORE.INTER>
-29.2833

>  <SCORE.INTER.CONST>
1

>  <SCORE.INTER.POLAR>
0

>  <SCORE.INTER.ROT>
7

>  <SCORE.INTER.SOLV>
14.9517

>  <SCORE.INTER.VDW>
-32.7728

>  <SCORE.INTER.norm>
-0.944624

>  <SCORE.INTRA>
-0.454023

>  <SCORE.INTRA.DIHEDRAL>
-0.568097

>  <SCORE.INTRA.DIHEDRAL.0>
10.0718

>  <SCORE.INTRA.POLAR>
0

>  <SCORE.INTRA.POLAR.0>
0

>  <SCORE.INTRA.REPUL>
0

>  <SCORE.INTRA.REPUL.0>
0

>  <SCORE.INTRA.SOLV>
-0.299777

>  <SCORE.INTRA.SOLV.lig_0>
-48.6963

>  <SCORE.INTRA.VDW>
-0.0200861

>  <SCORE.INTRA.VDW.0>
-0.836976

>  <SCORE.INTRA.norm>
-0.0146459

>  <SCORE.RESTR>
0

>  <SCORE.RESTR.CAVITY>
0

>  <SCORE.RESTR.norm>
0

>  <SCORE.SYSTEM>
0

>  <SCORE.SYSTEM.CONST>
0

>  <SCORE.SYSTEM.DIHEDRAL>
0

>  <SCORE.SYSTEM.SOLV>
0

>  <SCORE.SYSTEM.norm>
0

>  <SCORE.heavy>
31

>  <SCORE.norm>
-0.95927

>  <RMSD>
4.565

$$$$
ligand
 OpenBabel11021811473D
libRbt.so/2013.1/901 2013/11/27
 31 33  0  0  0  0  0  0  0  0999 V2000
   25.5529   43.9711   16.4882 P   0  0  1  0  0  0  0  0  0  0  0  0
   25.5692   45.3422   17.1297 O   0  0  0  0  0  0  0  0  0  0  0  0
   24.1430   43.6831   16.0475 O   0  5  0  0  0  0  0  0  0  0  0  0
   26.4684   43.9449   15.2953 O   0  0  0  0  0  0  0  0  0  0  0  0
   26.2812   41.5527   17.1227 C   0  0  0  0  0  0  0  0  0  0  0  0
   26.1088   42.8887   17.5284 O   0  0  0  0  0  0  0  0  0  0  0  0
   26.6368   40.7056   18.3357 C   0  0  1  0  0  0  0  0  0  0  0  0
   25.6366   40.8804   19.3167 O   0  0  0  0  0  0  0  0  0  0  0  0
   26.7453   39.2328   17.9410 C   0  0  1  0  0  0  0  0  0  0  0  0
   27.9315   39.0255   17.2044 O   0  0  0  0  0  0  0  0  0  0  0  0
   26.6537   38.2659   19.1298 C   0  0  1  0  0  0  0  0  0  0  0  0
   26.0349   37.0650   18.7252 O   0  0  0  0  0  0  0  0  0  0  0  0
   28.0140   37.9481   19.7300 C   0  0  0  0  0  0  0  0  0  0  0  0
   27.2539   36.6205   22.1055 N   0  0  0  0  0  0  0  0  0  0  0  0
   26.8205   36.0133   23.2665 C   0  0  0  0  0  0  0  0  0  0  0  0
   26.4118   36.6981   24.2085 O   0  0  0  0  0  0  0  0  0  0  0  0
   26.8562   34.6375   23.3710 N   0  0  0  0  0  0  0  0  0  0  0  0
   27.3225   33.8690   22.3210 C   0  0  0  0  0  0  0  0  0  0  0  0
   27.7548   34.4721   21.1582 C   0  0  1  0  0  0  0  0  0  0  0  0
   27.3513   32.6419   22.3974 O   0  0  0  0  0  0  0  0  0  0  0  0
   28.6427   34.2874   18.9509 C   0  0  2  0  0  0  0  0  0  0  0  0
   28.2132   33.6881   20.1173 N   0  0  0  0  0  0  0  0  0  0  0  0
   29.1072   33.4992   17.9008 C   0  0  0  0  0  0  0  0  0  0  0  0
   29.5497   34.0940   16.7234 C   0  0  1  0  0  0  0  0  0  0  0  0
   30.0380   33.2276   15.5953 C   0  0  0  0  0  0  0  0  0  0  0  0
   29.5222   35.4876   16.5988 C   0  0  1  0  0  0  0  0  0  0  0  0
   29.9786   36.1580   15.3359 C   0  0  0  0  0  0  0  0  0  0  0  0
   29.0567   36.2717   17.6503 C   0  0  0  0  0  0  0  0  0  0  0  0
   28.6157   35.6801   18.8317 C   0  0  2  0  0  0  0  0  0  0  0  0
   27.7192   35.8573   21.0470 C   0  0  2  0  0  0  0  0  0  0  0  0
   28.1598   36.4628   19.8858 N   0  0  0  0  0  0  0  0  0  0  0  0
  1  2  1  1  0  0  0
  1  3  1  0  0  0  0
  1  4  2  0  0  0  0
  1  6  1  0  0  0  0
  5  6  1  0  0  0  0
  7  5  1  6  0  0  0
  7  8  1  0  0  0  0
  7  9  1  0  0  0  0
  9 10  1  1  0  0  0
  9 11  1  0  0  0  0
 11 12  1  6  0  0  0
 11 13  1  0  0  0  0
 13 31  1  0  0  0  0
 14 15  1  0  0  0  0
 15 16  2  0  0  0  0
 15 17  1  0  0  0  0
 17 18  1  0  0  0  0
 18 20  2  0  0  0  0
 19 18  1  6  0  0  0
 19 22  1  0  0  0  0
 19 30  1  0  0  0  0
 21 23  1  1  0  0  0
 21 29  1  0  0  0  0
 21 22  1  0  0  0  0
 23 24  1  0  0  0  0
 24 25  1  6  0  0  0
 24 26  1  0  0  0  0
 26 27  1  6  0  0  0
 26 28  1  0  0  0  0
 29 28  1  1  0  0  0
 29 31  1  0  0  0  0
 30 14  1  1  0  0  0
 30 31  1  0  0  0  0
M  CHG  1   3  -1
M  END
>  <CHROM.1>
-172.48748377,-175.30828069,55.32997832,73.25666867,147.55166553,-130.88815172
85.81442371,27.27655815,37.99498832,18.81026977,2.07733236,1.06365325,-0.84450483

>  <Name>
ligand

>  <RI>
0

>  <Rbt.Current_Directory>
/home/itssahil/PROJECTS/Mol_Feturizer/New_Systems/rnas/3F2Q

>  <Rbt.Executable>
rbdock ($Id: //depot/dev/client3/rdock/2013.1/src/exe/rbdock.cxx#4 $)

>  <Rbt.Library>
libRbt.so (2013.1, Build901 2013/11/27)

>  <Rbt.Parameter_File>
/export/apps/rDock/src/rDock_2013.1_src/data/scripts/dock_solv.prm

>  <Rbt.Receptor>
prm/blind_docking_60.prm

>  <SCORE>
-21.4421

>  <SCORE.INTER>
-20.306

>  <SCORE.INTER.CONST>
1

>  <SCORE.INTER.POLAR>
0

>  <SCORE.INTER.ROT>
7

>  <SCORE.INTER.SOLV>
18.3693

>  <SCORE.INTER.VDW>
-27.9271

>  <SCORE.INTER.norm>
-0.655031

>  <SCORE.INTRA>
-1.13614

>  <SCORE.INTRA.DIHEDRAL>
-0.0477353

>  <SCORE.INTRA.DIHEDRAL.0>
10.0718

>  <SCORE.INTRA.POLAR>
0

>  <SCORE.INTRA.POLAR.0>
0

>  <SCORE.INTRA.REPUL>
0

>  <SCORE.INTRA.REPUL.0>
0

>  <SCORE.INTRA.SOLV>
-0.539357

>  <SCORE.INTRA.SOLV.lig_0>
-48.6963

>  <SCORE.INTRA.VDW>
-0.842591

>  <SCORE.INTRA.VDW.0>
-0.836976

>  <SCORE.INTRA.norm>
-0.0366496

>  <SCORE.RESTR>
0

>  <SCORE.RESTR.CAVITY>
0

>  <SCORE.RESTR.norm>
0

>  <SCORE.SYSTEM>
0

>  <SCORE.SYSTEM.CONST>
0

>  <SCORE.SYSTEM.DIHEDRAL>
0

>  <SCORE.SYSTEM.SOLV>
0

>  <SCORE.SYSTEM.norm>
0

>  <SCORE.heavy>
31

>  <SCORE.norm>
-0.691681

>  <RMSD>
4.585

$$$$
ligand
 OpenBabel11021811473D
libRbt.so/2013.1/901 2013/11/27
 31 33  0  0  0  0  0  0  0  0999 V2000
   32.3060   34.7739   16.5934 P   0  0  1  0  0  0  0  0  0  0  0  0
   31.5677   33.5305   17.0410 O   0  0  0  0  0  0  0  0  0  0  0  0
   33.4624   34.9889   17.5324 O   0  5  0  0  0  0  0  0  0  0  0  0
   32.8221   34.5954   15.1921 O   0  0  0  0  0  0  0  0  0  0  0  0
   30.9967   36.7018   17.7555 C   0  0  0  0  0  0  0  0  0  0  0  0
   31.2941   36.0140   16.5648 O   0  0  0  0  0  0  0  0  0  0  0  0
   30.0171   37.8255   17.4503 C   0  0  1  0  0  0  0  0  0  0  0  0
   28.7785   37.2565   17.0825 O   0  0  0  0  0  0  0  0  0  0  0  0
   29.8476   38.7282   18.6723 C   0  0  1  0  0  0  0  0  0  0  0  0
   28.9860   39.8001   18.3540 O   0  0  0  0  0  0  0  0  0  0  0  0
   29.3697   37.9857   19.9279 C   0  0  1  0  0  0  0  0  0  0  0  0
   29.4474   38.8383   21.0486 O   0  0  0  0  0  0  0  0  0  0  0  0
   27.9468   37.4674   19.7936 C   0  0  0  0  0  0  0  0  0  0  0  0
   28.1241   34.7214   19.1522 N   0  0  0  0  0  0  0  0  0  0  0  0
   28.2732   33.3952   18.8009 C   0  0  0  0  0  0  0  0  0  0  0  0
   28.5048   33.0871   17.6285 O   0  0  0  0  0  0  0  0  0  0  0  0
   28.1520   32.4162   19.7663 N   0  0  0  0  0  0  0  0  0  0  0  0
   27.8831   32.7582   21.0783 C   0  0  0  0  0  0  0  0  0  0  0  0
   27.7353   34.0828   21.4336 C   0  0  1  0  0  0  0  0  0  0  0  0
   27.7815   31.8966   21.9499 O   0  0  0  0  0  0  0  0  0  0  0  0
   27.3269   35.7306   23.1107 C   0  0  2  0  0  0  0  0  0  0  0  0
   27.4715   34.4065   22.7504 N   0  0  0  0  0  0  0  0  0  0  0  0
   27.0589   36.0595   24.4373 C   0  0  0  0  0  0  0  0  0  0  0  0
   26.9038   37.3911   24.8095 C   0  0  1  0  0  0  0  0  0  0  0  0
   26.6254   37.7293   26.2481 C   0  0  0  0  0  0  0  0  0  0  0  0
   27.0221   38.3980   23.8447 C   0  0  1  0  0  0  0  0  0  0  0  0
   26.8751   39.8443   24.2178 C   0  0  0  0  0  0  0  0  0  0  0  0
   27.2906   38.0653   22.5203 C   0  0  0  0  0  0  0  0  0  0  0  0
   27.4435   36.7332   22.1432 C   0  0  2  0  0  0  0  0  0  0  0  0
   27.8582   35.0729   20.4656 C   0  0  2  0  0  0  0  0  0  0  0  0
   27.7021   36.3995   20.8191 N   0  0  0  0  0  0  0  0  0  0  0  0
  1  2  1  1  0  0  0
  1  3  1  0  0  0  0
  1  4  2  0  0  0  0
  1  6  1  0  0  0  0
  5  6  1  0  0  0  0
  7  5  1  1  0  0  0
  7  8  1  0  0  0  0
  7  9  1  0  0  0  0
  9 10  1  6  0  0  0
  9 11  1  0  0  0  0
 11 12  1  1  0  0  0
 11 13  1  0  0  0  0
 13 31  1  0  0  0  0
 14 15  1  0  0  0  0
 15 16  2  0  0  0  0
 15 17  1  0  0  0  0
 17 18  1  0  0  0  0
 18 20  2  0  0  0  0
 19 18  1  1  0  0  0
 19 22  1  0  0  0  0
 19 30  1  0  0  0  0
 21 23  1  6  0  0  0
 21 29  1  0  0  0  0
 21 22  1  0  0  0  0
 23 24  1  0  0  0  0
 24 25  1  1  0  0  0
 24 26  1  0  0  0  0
 26 27  1  1  0  0  0
 26 28  1  0  0  0  0
 29 28  1  6  0  0  0
 29 31  1  0  0  0  0
 30 14  1  6  0  0  0
 30 31  1  0  0  0  0
M  CHG  1   3  -1
M  END
>  <CHROM.1>
-179.95368942,81.74383666,67.91174804,177.25666237,170.57063820,161.56779415
78.40718360,29.03798812,35.96628859,19.98030406,-0.35428838,0.98571297,0.12052215

>  <Name>
ligand

>  <RI>
0

>  <Rbt.Current_Directory>
/home/itssahil/PROJECTS/Mol_Feturizer/New_Systems/rnas/3F2Q

>  <Rbt.Executable>
rbdock ($Id: //depot/dev/client3/rdock/2013.1/src/exe/rbdock.cxx#4 $)

>  <Rbt.Library>
libRbt.so (2013.1, Build901 2013/11/27)

>  <Rbt.Parameter_File>
/export/apps/rDock/src/rDock_2013.1_src/data/scripts/dock_solv.prm

>  <Rbt.Receptor>
prm/pocket_docking_8.prm

>  <SCORE>
-32.6786

>  <SCORE.INTER>
-27.5881

>  <SCORE.INTER.CONST>
1

>  <SCORE.INTER.POLAR>
0

>  <SCORE.INTER.ROT>
7

>  <SCORE.INTER.SOLV>
14.4528

>  <SCORE.INTER.VDW>
-31.4763

>  <SCORE.INTER.norm>
-0.889937

>  <SCORE.INTRA>
-5.09051

>  <SCORE.INTRA.DIHEDRAL>
-6.48966

>  <SCORE.INTRA.DIHEDRAL.0>
10.0718

>  <SCORE.INTRA.POLAR>
0

>  <SCORE.INTRA.POLAR.0>
0

>  <SCORE.INTRA.REPUL>
0

>  <SCORE.INTRA.REPUL.0>
0

>  <SCORE.INTRA.SOLV>
-0.837247

>  <SCORE.INTRA.SOLV.lig_0>
-48.6963

>  <SCORE.INTRA.VDW>
-1.42706

>  <SCORE.INTRA.VDW.0>
-0.836976

>  <SCORE.INTRA.norm>
-0.16421

>  <SCORE.RESTR>
0

>  <SCORE.RESTR.CAVITY>
0

>  <SCORE.RESTR.norm>
0

>  <SCORE.SYSTEM>
0

>  <SCORE.SYSTEM.CONST>
0

>  <SCORE.SYSTEM.DIHEDRAL>
0

>  <SCORE.SYSTEM.SOLV>
0

>  <SCORE.SYSTEM.norm>
0

>  <SCORE.heavy>
31

>  <SCORE.norm>
-1.05415

>  <RMSD>
4.607

$$$$
ligand
 OpenBabel11021811473D
libRbt.so/2013.1/901 2013/11/27
 31 33  0  0  0  0  0  0  0  0999 V2000
   31.9174   34.8738   15.0618 P   0  0  1  0  0  0  0  0  0  0  0  0
   31.5298   33.7504   15.9996 O   0  0  0  0  0  0  0  0  0  0  0  0
   33.4171   34.9985   15.0839 O   0  5  0  0  0  0  0  0  0  0  0  0
   31.4587   34.5646   13.6633 O   0  0  0  0  0  0  0  0  0  0  0  0
   29.7728   36.2842   15.5015 C   0  0  0  0  0  0  0  0  0  0  0  0
   31.1783   36.2214   15.5094 O   0  0  0  0  0  0  0  0  0  0  0  0
   29.2583   36.1062   16.9224 C   0  0  1  0  0  0  0  0  0  0  0  0
   29.8304   34.9355   17.4660 O   0  0  0  0  0  0  0  0  0  0  0  0
   29.6212   37.3224   17.7745 C   0  0  1  0  0  0  0  0  0  0  0  0
   28.9830   38.4706   17.2580 O   0  0  0  0  0  0  0  0  0  0  0  0
   29.3178   37.1432   19.2685 C   0  0  1  0  0  0  0  0  0  0  0  0
   29.7562   38.2751   19.9865 O   0  0  0  0  0  0  0  0  0  0  0  0
   27.8386   36.9220   19.5415 C   0  0  0  0  0  0  0  0  0  0  0  0
   27.9560   34.1432   19.0440 N   0  0  0  0  0  0  0  0  0  0  0  0
   28.0725   32.7983   18.7573 C   0  0  0  0  0  0  0  0  0  0  0  0
   28.2069   32.4232   17.5892 O   0  0  0  0  0  0  0  0  0  0  0  0
   28.0281   31.8759   19.7831 N   0  0  0  0  0  0  0  0  0  0  0  0
   27.8681   32.2930   21.0912 C   0  0  0  0  0  0  0  0  0  0  0  0
   27.7532   33.6364   21.3819 C   0  0  1  0  0  0  0  0  0  0  0  0
   27.8360   31.4824   22.0155 O   0  0  0  0  0  0  0  0  0  0  0  0
   27.4874   35.3787   22.9908 C   0  0  2  0  0  0  0  0  0  0  0  0
   27.5987   34.0354   22.6954 N   0  0  0  0  0  0  0  0  0  0  0  0
   27.3294   35.7833   24.3141 C   0  0  0  0  0  0  0  0  0  0  0  0
   27.2087   37.1348   24.6219 C   0  0  1  0  0  0  0  0  0  0  0  0
   27.0496   37.5552   26.0570 C   0  0  0  0  0  0  0  0  0  0  0  0
   27.2503   38.0851   23.5953 C   0  0  1  0  0  0  0  0  0  0  0  0
   27.1379   39.5511   23.8968 C   0  0  0  0  0  0  0  0  0  0  0  0
   27.4089   37.6767   22.2744 C   0  0  0  0  0  0  0  0  0  0  0  0
   27.5271   36.3245   21.9619 C   0  0  2  0  0  0  0  0  0  0  0  0
   27.7992   34.5698   20.3527 C   0  0  2  0  0  0  0  0  0  0  0  0
   27.6758   35.9152   20.6422 N   0  0  0  0  0  0  0  0  0  0  0  0
  1  2  1  1  0  0  0
  1  3  1  0  0  0  0
  1  4  2  0  0  0  0
  1  6  1  0  0  0  0
  5  6  1  0  0  0  0
  7  5  1  6  0  0  0
  7  8  1  0  0  0  0
  7  9  1  0  0  0  0
  9 10  1  6  0  0  0
  9 11  1  0  0  0  0
 11 12  1  1  0  0  0
 11 13  1  0  0  0  0
 13 31  1  0  0  0  0
 14 15  1  0  0  0  0
 15 16  2  0  0  0  0
 15 17  1  0  0  0  0
 17 18  1  0  0  0  0
 18 20  2  0  0  0  0
 19 18  1  1  0  0  0
 19 22  1  0  0  0  0
 19 30  1  0  0  0  0
 21 23  1  6  0  0  0
 21 29  1  0  0  0  0
 21 22  1  0  0  0  0
 23 24  1  0  0  0  0
 24 25  1  1  0  0  0
 24 26  1  0  0  0  0
 26 27  1  1  0  0  0
 26 28  1  0  0  0  0
 29 28  1  6  0  0  0
 29 31  1  0  0  0  0
 30 14  1  6  0  0  0
 30 31  1  0  0  0  0
M  CHG  1   3  -1
M  END
>  <CHROM.1>
100.96653877,-61.92614850,-52.22360195,63.03503029,176.46710959,141.94590987
94.30311628,28.96477653,35.46878119,19.39414733,-0.36573113,1.09285676,0.23270000

>  <Name>
ligand

>  <RI>
0

>  <Rbt.Current_Directory>
/home/itssahil/PROJECTS/Mol_Feturizer/New_Systems/rnas/3F2Q

>  <Rbt.Executable>
rbdock ($Id: //depot/dev/client3/rdock/2013.1/src/exe/rbdock.cxx#4 $)

>  <Rbt.Library>
libRbt.so (2013.1, Build901 2013/11/27)

>  <Rbt.Parameter_File>
/export/apps/rDock/src/rDock_2013.1_src/data/scripts/dock_solv.prm

>  <Rbt.Receptor>
prm/pocket_docking_6.prm

>  <SCORE>
-27.4798

>  <SCORE.INTER>
-26.3753

>  <SCORE.INTER.CONST>
1

>  <SCORE.INTER.POLAR>
0

>  <SCORE.INTER.ROT>
7

>  <SCORE.INTER.SOLV>
13.7438

>  <SCORE.INTER.VDW>
-30.4315

>  <SCORE.INTER.norm>
-0.850816

>  <SCORE.INTRA>
-1.10447

>  <SCORE.INTRA.DIHEDRAL>
0.674415

>  <SCORE.INTRA.DIHEDRAL.0>
10.0718

>  <SCORE.INTRA.POLAR>
0

>  <SCORE.INTRA.POLAR.0>
0

>  <SCORE.INTRA.REPUL>
0

>  <SCORE.INTRA.REPUL.0>
0

>  <SCORE.INTRA.SOLV>
0.461486

>  <SCORE.INTRA.SOLV.lig_0>
-48.6963

>  <SCORE.INTRA.VDW>
-1.67242

>  <SCORE.INTRA.VDW.0>
-0.836976

>  <SCORE.INTRA.norm>
-0.0356281

>  <SCORE.RESTR>
0

>  <SCORE.RESTR.CAVITY>
0

>  <SCORE.RESTR.norm>
0

>  <SCORE.SYSTEM>
0

>  <SCORE.SYSTEM.CONST>
0

>  <SCORE.SYSTEM.DIHEDRAL>
0

>  <SCORE.SYSTEM.SOLV>
0

>  <SCORE.SYSTEM.norm>
0

>  <SCORE.heavy>
31

>  <SCORE.norm>
-0.886444

>  <RMSD>
4.652

$$$$
ligand
 OpenBabel11021811473D
libRbt.so/2013.1/901 2013/11/27
 31 33  0  0  0  0  0  0  0  0999 V2000
   25.6530   43.6812   16.4796 P   0  0  1  0  0  0  0  0  0  0  0  0
   25.8776   45.0523   17.0804 O   0  0  0  0  0  0  0  0  0  0  0  0
   24.2041   43.5805   16.0850 O   0  5  0  0  0  0  0  0  0  0  0  0
   26.5195   43.4984   15.2640 O   0  0  0  0  0  0  0  0  0  0  0  0
   27.4389   42.4200   17.8943 C   0  0  0  0  0  0  0  0  0  0  0  0
   26.0856   42.5585   17.5355 O   0  0  0  0  0  0  0  0  0  0  0  0
   27.5557   41.3922   19.0102 C   0  0  1  0  0  0  0  0  0  0  0  0
   26.7510   41.8086   20.0930 O   0  0  0  0  0  0  0  0  0  0  0  0
   27.1114   40.0165   18.5134 C   0  0  1  0  0  0  0  0  0  0  0  0
   28.0529   39.5204   17.5862 O   0  0  0  0  0  0  0  0  0  0  0  0
   26.8553   39.0055   19.6398 C   0  0  1  0  0  0  0  0  0  0  0  0
   26.3243   37.8140   19.1039 O   0  0  0  0  0  0  0  0  0  0  0  0
   28.1134   38.6798   20.4290 C   0  0  0  0  0  0  0  0  0  0  0  0
   27.2665   39.2583   23.0617 N   0  0  0  0  0  0  0  0  0  0  0  0
   26.8067   39.5923   24.3193 C   0  0  0  0  0  0  0  0  0  0  0  0
   26.7380   40.7767   24.6595 O   0  0  0  0  0  0  0  0  0  0  0  0
   26.4339   38.5940   25.1966 N   0  0  0  0  0  0  0  0  0  0  0  0
   26.5191   37.2665   24.8212 C   0  0  0  0  0  0  0  0  0  0  0  0
   26.9763   36.9288   23.5644 C   0  0  1  0  0  0  0  0  0  0  0  0
   26.1817   36.3676   25.5897 O   0  0  0  0  0  0  0  0  0  0  0  0
   27.5034   35.2553   21.9469 C   0  0  2  0  0  0  0  0  0  0  0  0
   27.0503   35.5971   23.2047 N   0  0  0  0  0  0  0  0  0  0  0  0
   27.5809   33.9132   21.5826 C   0  0  0  0  0  0  0  0  0  0  0  0
   28.0435   33.5577   20.3195 C   0  0  1  0  0  0  0  0  0  0  0  0
   28.1107   32.1045   19.9385 C   0  0  0  0  0  0  0  0  0  0  0  0
   28.4272   34.5556   19.4164 C   0  0  1  0  0  0  0  0  0  0  0  0
   28.9161   34.2046   18.0415 C   0  0  0  0  0  0  0  0  0  0  0  0
   28.3477   35.8955   19.7841 C   0  0  0  0  0  0  0  0  0  0  0  0
   27.8879   36.2554   21.0487 C   0  0  2  0  0  0  0  0  0  0  0  0
   27.3513   37.9304   22.6763 C   0  0  2  0  0  0  0  0  0  0  0  0
   27.8173   37.5927   21.4202 N   0  0  0  0  0  0  0  0  0  0  0  0
  1  2  1  1  0  0  0
  1  3  1  0  0  0  0
  1  4  2  0  0  0  0
  1  6  1  0  0  0  0
  5  6  1  0  0  0  0
  7  5  1  6  0  0  0
  7  8  1  0  0  0  0
  7  9  1  0  0  0  0
  9 10  1  6  0  0  0
  9 11  1  0  0  0  0
 11 12  1  6  0  0  0
 11 13  1  0  0  0  0
 13 31  1  0  0  0  0
 14 15  1  0  0  0  0
 15 16  2  0  0  0  0
 15 17  1  0  0  0  0
 17 18  1  0  0  0  0
 18 20  2  0  0  0  0
 19 18  1  6  0  0  0
 19 22  1  0  0  0  0
 19 30  1  0  0  0  0
 21 23  1  1  0  0  0
 21 29  1  0  0  0  0
 21 22  1  0  0  0  0
 23 24  1  0  0  0  0
 24 25  1  6  0  0  0
 24 26  1  0  0  0  0
 26 27  1  6  0  0  0
 26 28  1  0  0  0  0
 29 28  1  1  0  0  0
 29 31  1  0  0  0  0
 30 14  1  1  0  0  0
 30 31  1  0  0  0  0
M  CHG  1   3  -1
M  END
>  <CHROM.1>
174.08562557,-66.93170820,-57.09945805,69.47286311,174.16280494,-174.55691836
85.64830625,27.01217602,38.91262042,20.22867975,-2.20067652,-1.31357745,1.91567449

>  <Name>
ligand

>  <RI>
0

>  <Rbt.Current_Directory>
/home/itssahil/PROJECTS/Mol_Feturizer/New_Systems/rnas/3F2Q

>  <Rbt.Executable>
rbdock ($Id: //depot/dev/client3/rdock/2013.1/src/exe/rbdock.cxx#4 $)

>  <Rbt.Library>
libRbt.so (2013.1, Build901 2013/11/27)

>  <Rbt.Parameter_File>
/export/apps/rDock/src/rDock_2013.1_src/data/scripts/dock_solv.prm

>  <Rbt.Receptor>
prm/pocket_docking_2.prm

>  <SCORE>
-31.8788

>  <SCORE.INTER>
-26.2044

>  <SCORE.INTER.CONST>
1

>  <SCORE.INTER.POLAR>
0

>  <SCORE.INTER.ROT>
7

>  <SCORE.INTER.SOLV>
19.1133

>  <SCORE.INTER.VDW>
-32.1074

>  <SCORE.INTER.norm>
-0.845303

>  <SCORE.INTRA>
-5.85112

>  <SCORE.INTRA.DIHEDRAL>
-8.07237

>  <SCORE.INTRA.DIHEDRAL.0>
10.0718

>  <SCORE.INTRA.POLAR>
0

>  <SCORE.INTRA.POLAR.0>
0

>  <SCORE.INTRA.REPUL>
0

>  <SCORE.INTRA.REPUL.0>
0

>  <SCORE.INTRA.SOLV>
-1.08046

>  <SCORE.INTRA.SOLV.lig_0>
-48.6963

>  <SCORE.INTRA.VDW>
-1.27471

>  <SCORE.INTRA.VDW.0>
-0.836976

>  <SCORE.INTRA.norm>
-0.188746

>  <SCORE.RESTR>
0.176715

>  <SCORE.RESTR.CAVITY>
0.176715

>  <SCORE.RESTR.norm>
0.0057005

>  <SCORE.SYSTEM>
0

>  <SCORE.SYSTEM.CONST>
0

>  <SCORE.SYSTEM.DIHEDRAL>
0

>  <SCORE.SYSTEM.SOLV>
0

>  <SCORE.SYSTEM.norm>
0

>  <SCORE.heavy>
31

>  <SCORE.norm>
-1.02835

>  <RMSD>
4.684

$$$$
ligand
 OpenBabel11021811473D
libRbt.so/2013.1/901 2013/11/27
 31 33  0  0  0  0  0  0  0  0999 V2000
   32.2240   34.4511   16.5876 P   0  0  1  0  0  0  0  0  0  0  0  0
   33.2418   34.6664   17.6873 O   0  0  0  0  0  0  0  0  0  0  0  0
   32.9725   34.1676   15.3131 O   0  5  0  0  0  0  0  0  0  0  0  0
   31.3380   33.2826   16.9214 O   0  0  0  0  0  0  0  0  0  0  0  0
   30.9511   36.4679   17.6335 C   0  0  0  0  0  0  0  0  0  0  0  0
   31.2786   35.7381   16.4762 O   0  0  0  0  0  0  0  0  0  0  0  0
   29.9914   37.5884   17.2610 C   0  0  1  0  0  0  0  0  0  0  0  0
   28.7500   37.0187   16.9036 O   0  0  0  0  0  0  0  0  0  0  0  0
   29.8181   38.5512   18.4356 C   0  0  1  0  0  0  0  0  0  0  0  0
   28.9280   39.5853   18.0737 O   0  0  0  0  0  0  0  0  0  0  0  0
   29.3744   37.8665   19.7359 C   0  0  1  0  0  0  0  0  0  0  0  0
   29.5644   38.7394   20.8272 O   0  0  0  0  0  0  0  0  0  0  0  0
   27.9197   37.4264   19.6971 C   0  0  0  0  0  0  0  0  0  0  0  0
   28.1264   34.6861   19.0405 N   0  0  0  0  0  0  0  0  0  0  0  0
   28.2894   33.3636   18.6816 C   0  0  0  0  0  0  0  0  0  0  0  0
   28.5189   33.0643   17.5064 O   0  0  0  0  0  0  0  0  0  0  0  0
   28.1846   32.3782   19.6424 N   0  0  0  0  0  0  0  0  0  0  0  0
   27.9182   32.7103   20.9574 C   0  0  0  0  0  0  0  0  0  0  0  0
   27.7564   34.0311   21.3204 C   0  0  1  0  0  0  0  0  0  0  0  0
   27.8312   31.8430   21.8251 O   0  0  0  0  0  0  0  0  0  0  0  0
   27.3369   35.6653   23.0080 C   0  0  2  0  0  0  0  0  0  0  0  0
   27.4954   34.3449   22.6401 N   0  0  0  0  0  0  0  0  0  0  0  0
   27.0715   35.9841   24.3376 C   0  0  0  0  0  0  0  0  0  0  0  0
   26.9026   37.3118   24.7175 C   0  0  1  0  0  0  0  0  0  0  0  0
   26.6273   37.6392   26.1592 C   0  0  0  0  0  0  0  0  0  0  0  0
   27.0041   38.3250   23.7575 C   0  0  1  0  0  0  0  0  0  0  0  0
   26.8418   39.7676   24.1388 C   0  0  0  0  0  0  0  0  0  0  0  0
   27.2700   38.0024   22.4300 C   0  0  0  0  0  0  0  0  0  0  0  0
   27.4368   36.6742   22.0452 C   0  0  2  0  0  0  0  0  0  0  0  0
   27.8629   35.0276   20.3570 C   0  0  2  0  0  0  0  0  0  0  0  0
   27.6928   36.3504   20.7181 N   0  0  0  0  0  0  0  0  0  0  0  0
  1  2  1  1  0  0  0
  1  3  1  0  0  0  0
  1  4  2  0  0  0  0
  1  6  1  0  0  0  0
  5  6  1  0  0  0  0
  7  5  1  1  0  0  0
  7  8  1  0  0  0  0
  7  9  1  0  0  0  0
  9 10  1  6  0  0  0
  9 11  1  0  0  0  0
 11 12  1  1  0  0  0
 11 13  1  0  0  0  0
 13 31  1  0  0  0  0
 14 15  1  0  0  0  0
 15 16  2  0  0  0  0
 15 17  1  0  0  0  0
 17 18  1  0  0  0  0
 18 20  2  0  0  0  0
 19 18  1  1  0  0  0
 19 22  1  0  0  0  0
 19 30  1  0  0  0  0
 21 23  1  6  0  0  0
 21 29  1  0  0  0  0
 21 22  1  0  0  0  0
 23 24  1  0  0  0  0
 24 25  1  1  0  0  0
 24 26  1  0  0  0  0
 26 27  1  1  0  0  0
 26 28  1  0  0  0  0
 29 28  1  6  0  0  0
 29 31  1  0  0  0  0
 30 14  1  6  0  0  0
 30 31  1  0  0  0  0
M  CHG  1   3  -1
M  END
>  <CHROM.1>
-177.12789504,-33.69471636,69.23309661,179.88184040,165.18731068,158.83166783
83.86929823,29.02260515,35.82483367,19.87719455,0.35203088,-0.99791415,-3.06603703

>  <Name>
ligand

>  <RI>
0

>  <Rbt.Current_Directory>
/home/itssahil/PROJECTS/Mol_Feturizer/New_Systems/rnas/3F2Q

>  <Rbt.Executable>
rbdock ($Id: //depot/dev/client3/rdock/2013.1/src/exe/rbdock.cxx#4 $)

>  <Rbt.Library>
libRbt.so (2013.1, Build901 2013/11/27)

>  <Rbt.Parameter_File>
/export/apps/rDock/src/rDock_2013.1_src/data/scripts/dock_solv.prm

>  <Rbt.Receptor>
prm/blind_docking_100.prm

>  <SCORE>
-31.7306

>  <SCORE.INTER>
-27.2612

>  <SCORE.INTER.CONST>
1

>  <SCORE.INTER.POLAR>
0

>  <SCORE.INTER.ROT>
7

>  <SCORE.INTER.SOLV>
13.1501

>  <SCORE.INTER.VDW>
-30.8242

>  <SCORE.INTER.norm>
-0.879393

>  <SCORE.INTRA>
-4.4694

>  <SCORE.INTRA.DIHEDRAL>
-5.36363

>  <SCORE.INTRA.DIHEDRAL.0>
10.0718

>  <SCORE.INTRA.POLAR>
0

>  <SCORE.INTRA.POLAR.0>
0

>  <SCORE.INTRA.REPUL>
0

>  <SCORE.INTRA.REPUL.0>
0

>  <SCORE.INTRA.SOLV>
0.0584042

>  <SCORE.INTRA.SOLV.lig_0>
-48.6963

>  <SCORE.INTRA.VDW>
-1.81678

>  <SCORE.INTRA.VDW.0>
-0.836976

>  <SCORE.INTRA.norm>
-0.144174

>  <SCORE.RESTR>
0

>  <SCORE.RESTR.CAVITY>
0

>  <SCORE.RESTR.norm>
0

>  <SCORE.SYSTEM>
0

>  <SCORE.SYSTEM.CONST>
0

>  <SCORE.SYSTEM.DIHEDRAL>
0

>  <SCORE.SYSTEM.SOLV>
0

>  <SCORE.SYSTEM.norm>
0

>  <SCORE.heavy>
31

>  <SCORE.norm>
-1.02357

>  <RMSD>
4.696

$$$$
ligand
 OpenBabel11021811473D
libRbt.so/2013.1/901 2013/11/27
 31 33  0  0  0  0  0  0  0  0999 V2000
   26.2985   42.9506   17.2411 P   0  0  1  0  0  0  0  0  0  0  0  0
   27.3948   43.6195   16.4397 O   0  0  0  0  0  0  0  0  0  0  0  0
   25.0467   43.7721   17.0886 O   0  5  0  0  0  0  0  0  0  0  0  0
   26.0534   41.5593   16.7256 O   0  0  0  0  0  0  0  0  0  0  0  0
   27.9686   42.1515   19.0725 C   0  0  0  0  0  0  0  0  0  0  0  0
   26.7632   42.8092   18.7665 O   0  0  0  0  0  0  0  0  0  0  0  0
   28.0585   41.9512   20.5782 C   0  0  1  0  0  0  0  0  0  0  0  0
   27.9536   43.2105   21.2078 O   0  0  0  0  0  0  0  0  0  0  0  0
   26.9442   41.0208   21.0572 C   0  0  1  0  0  0  0  0  0  0  0  0
   25.6891   41.5691   20.7155 O   0  0  0  0  0  0  0  0  0  0  0  0
   27.0788   39.5801   20.5449 C   0  0  1  0  0  0  0  0  0  0  0  0
   27.1064   39.5725   19.1349 O   0  0  0  0  0  0  0  0  0  0  0  0
   28.3254   38.8872   21.0716 C   0  0  0  0  0  0  0  0  0  0  0  0
   27.0818   38.1498   23.4991 N   0  0  0  0  0  0  0  0  0  0  0  0
   26.4276   37.8472   24.6760 C   0  0  0  0  0  0  0  0  0  0  0  0
   26.1986   38.7340   25.5033 O   0  0  0  0  0  0  0  0  0  0  0  0
   26.0402   36.5462   24.9258 N   0  0  0  0  0  0  0  0  0  0  0  0
   26.3041   35.5496   24.0051 C   0  0  0  0  0  0  0  0  0  0  0  0
   26.9560   35.8485   22.8268 C   0  0  1  0  0  0  0  0  0  0  0  0
   25.9565   34.3881   24.2111 O   0  0  0  0  0  0  0  0  0  0  0  0
   27.8555   35.1364   20.7344 C   0  0  2  0  0  0  0  0  0  0  0  0
   27.2072   34.8408   21.9160 N   0  0  0  0  0  0  0  0  0  0  0  0
   28.1117   34.1217   19.8154 C   0  0  0  0  0  0  0  0  0  0  0  0
   28.7715   34.4079   18.6243 C   0  0  1  0  0  0  0  0  0  0  0  0
   29.0306   33.3024   17.6383 C   0  0  0  0  0  0  0  0  0  0  0  0
   29.1731   35.7209   18.3535 C   0  0  1  0  0  0  0  0  0  0  0  0
   29.8733   36.0639   17.0710 C   0  0  0  0  0  0  0  0  0  0  0  0
   28.9147   36.7321   19.2741 C   0  0  0  0  0  0  0  0  0  0  0  0
   28.2570   36.4491   20.4689 C   0  0  2  0  0  0  0  0  0  0  0  0
   27.3467   37.1576   22.5693 C   0  0  2  0  0  0  0  0  0  0  0  0
   28.0071   37.4564   21.3931 N   0  0  0  0  0  0  0  0  0  0  0  0
  1  2  1  6  0  0  0
  1  3  1  0  0  0  0
  1  4  2  0  0  0  0
  1  6  1  0  0  0  0
  5  6  1  0  0  0  0
  7  5  1  6  0  0  0
  7  8  1  0  0  0  0
  7  9  1  0  0  0  0
  9 10  1  6  0  0  0
  9 11  1  0  0  0  0
 11 12  1  6  0  0  0
 11 13  1  0  0  0  0
 13 31  1  0  0  0  0
 14 15  1  0  0  0  0
 15 16  2  0  0  0  0
 15 17  1  0  0  0  0
 17 18  1  0  0  0  0
 18 20  2  0  0  0  0
 19 18  1  6  0  0  0
 19 22  1  0  0  0  0
 19 30  1  0  0  0  0
 21 23  1  1  0  0  0
 21 29  1  0  0  0  0
 21 22  1  0  0  0  0
 23 24  1  0  0  0  0
 24 25  1  6  0  0  0
 24 26  1  0  0  0  0
 26 27  1  6  0  0  0
 26 28  1  0  0  0  0
 29 28  1  1  0  0  0
 29 31  1  0  0  0  0
 30 14  1  1  0  0  0
 30 31  1  0  0  0  0
M  CHG  1   3  -1
M  END
>  <CHROM.1>
-170.63643644,-55.39507246,-56.95901891,-58.63214329,-57.57762521,141.00959428
95.41461595,27.27453932,38.77775036,20.36304590,-1.83115462,-1.22626519,2.39163430

>  <Name>
ligand

>  <RI>
0

>  <Rbt.Current_Directory>
/home/itssahil/PROJECTS/Mol_Feturizer/New_Systems/rnas/3F2Q

>  <Rbt.Executable>
rbdock ($Id: //depot/dev/client3/rdock/2013.1/src/exe/rbdock.cxx#4 $)

>  <Rbt.Library>
libRbt.so (2013.1, Build901 2013/11/27)

>  <Rbt.Parameter_File>
/export/apps/rDock/src/rDock_2013.1_src/data/scripts/dock_solv.prm

>  <Rbt.Receptor>
prm/pocket_docking_5.prm

>  <SCORE>
-26.8501

>  <SCORE.INTER>
-24.6391

>  <SCORE.INTER.CONST>
1

>  <SCORE.INTER.POLAR>
0

>  <SCORE.INTER.ROT>
7

>  <SCORE.INTER.SOLV>
17.7502

>  <SCORE.INTER.VDW>
-30.6094

>  <SCORE.INTER.norm>
-0.794808

>  <SCORE.INTRA>
-2.211

>  <SCORE.INTRA.DIHEDRAL>
-4.56001

>  <SCORE.INTRA.DIHEDRAL.0>
10.0718

>  <SCORE.INTRA.POLAR>
0

>  <SCORE.INTRA.POLAR.0>
0

>  <SCORE.INTRA.REPUL>
0

>  <SCORE.INTRA.REPUL.0>
0

>  <SCORE.INTRA.SOLV>
0.796807

>  <SCORE.INTRA.SOLV.lig_0>
-48.6963

>  <SCORE.INTRA.VDW>
-0.329394

>  <SCORE.INTRA.VDW.0>
-0.836976

>  <SCORE.INTRA.norm>
-0.0713225

>  <SCORE.RESTR>
0

>  <SCORE.RESTR.CAVITY>
0

>  <SCORE.RESTR.norm>
0

>  <SCORE.SYSTEM>
0

>  <SCORE.SYSTEM.CONST>
0

>  <SCORE.SYSTEM.DIHEDRAL>
0

>  <SCORE.SYSTEM.SOLV>
0

>  <SCORE.SYSTEM.norm>
0

>  <SCORE.heavy>
31

>  <SCORE.norm>
-0.866131

>  <RMSD>
4.712

$$$$
ligand
 OpenBabel11021811473D
libRbt.so/2013.1/901 2013/11/27
 31 33  0  0  0  0  0  0  0  0999 V2000
   27.4840   41.9954   16.5459 P   0  0  1  0  0  0  0  0  0  0  0  0
   26.3292   42.0410   15.5682 O   0  0  0  0  0  0  0  0  0  0  0  0
   28.5169   41.0475   15.9983 O   0  5  0  0  0  0  0  0  0  0  0  0
   28.0883   43.3639   16.7001 O   0  0  0  0  0  0  0  0  0  0  0  0
   26.4566   42.5305   18.8782 C   0  0  0  0  0  0  0  0  0  0  0  0
   26.9451   41.5568   17.9880 O   0  0  0  0  0  0  0  0  0  0  0  0
   26.1596   41.8755   20.2191 C   0  0  1  0  0  0  0  0  0  0  0  0
   25.0795   40.9812   20.0549 O   0  0  0  0  0  0  0  0  0  0  0  0
   27.3936   41.1331   20.7320 C   0  0  1  0  0  0  0  0  0  0  0  0
   27.6346   41.4867   22.0771 O   0  0  0  0  0  0  0  0  0  0  0  0
   27.3124   39.6094   20.5643 C   0  0  1  0  0  0  0  0  0  0  0  0
   27.2985   39.2773   19.1938 O   0  0  0  0  0  0  0  0  0  0  0  0
   28.4655   38.8854   21.2409 C   0  0  0  0  0  0  0  0  0  0  0  0
   27.1888   38.0855   23.6312 N   0  0  0  0  0  0  0  0  0  0  0  0
   26.5212   37.7547   24.7929 C   0  0  0  0  0  0  0  0  0  0  0  0
   26.3318   38.6090   25.6633 O   0  0  0  0  0  0  0  0  0  0  0  0
   26.0757   36.4616   24.9789 N   0  0  0  0  0  0  0  0  0  0  0  0
   26.2951   35.5010   24.0096 C   0  0  0  0  0  0  0  0  0  0  0  0
   26.9603   35.8281   22.8464 C   0  0  1  0  0  0  0  0  0  0  0  0
   25.8956   34.3474   24.1586 O   0  0  0  0  0  0  0  0  0  0  0  0
   27.8280   35.1806   20.7198 C   0  0  2  0  0  0  0  0  0  0  0  0
   27.1665   34.8564   21.8865 N   0  0  0  0  0  0  0  0  0  0  0  0
   28.0389   34.2020   19.7514 C   0  0  0  0  0  0  0  0  0  0  0  0
   28.7115   34.5168   18.5748 C   0  0  1  0  0  0  0  0  0  0  0  0
   28.9212   33.4509   17.5350 C   0  0  0  0  0  0  0  0  0  0  0  0
   29.1717   35.8223   18.3684 C   0  0  1  0  0  0  0  0  0  0  0  0
   29.8872   36.1965   17.1032 C   0  0  0  0  0  0  0  0  0  0  0  0
   28.9584   36.7974   19.3382 C   0  0  0  0  0  0  0  0  0  0  0  0
   28.2881   36.4855   20.5187 C   0  0  2  0  0  0  0  0  0  0  0  0
   27.4094   37.1295   22.6532 C   0  0  2  0  0  0  0  0  0  0  0  0
   28.0832   37.4562   21.4919 N   0  0  0  0  0  0  0  0  0  0  0  0
  1  2  1  6  0  0  0
  1  3  1  0  0  0  0
  1  4  2  0  0  0  0
  1  6  1  0  0  0  0
  5  6  1  0  0  0  0
  7  5  1  6  0  0  0
  7  8  1  0  0  0  0
  7  9  1  0  0  0  0
  9 10  1  1  0  0  0
  9 11  1  0  0  0  0
 11 12  1  6  0  0  0
 11 13  1  0  0  0  0
 13 31  1  0  0  0  0
 14 15  1  0  0  0  0
 15 16  2  0  0  0  0
 15 17  1  0  0  0  0
 17 18  1  0  0  0  0
 18 20  2  0  0  0  0
 19 18  1  6  0  0  0
 19 22  1  0  0  0  0
 19 30  1  0  0  0  0
 21 23  1  1  0  0  0
 21 29  1  0  0  0  0
 21 22  1  0  0  0  0
 23 24  1  0  0  0  0
 24 25  1  6  0  0  0
 24 26  1  0  0  0  0
 26 27  1  6  0  0  0
 26 28  1  0  0  0  0
 29 28  1  1  0  0  0
 29 31  1  0  0  0  0
 30 14  1  1  0  0  0
 30 31  1  0  0  0  0
M  CHG  1   3  -1
M  END
>  <CHROM.1>
-173.64775399,-87.00017071,-66.92199804,131.21656633,65.51338601,158.95613213
87.30316358,27.42353831,38.50450888,20.22120707,-1.48132701,-1.21473923,2.47390436

>  <Name>
ligand

>  <RI>
0

>  <Rbt.Current_Directory>
/home/itssahil/PROJECTS/Mol_Feturizer/New_Systems/rnas/3F2Q

>  <Rbt.Executable>
rbdock ($Id: //depot/dev/client3/rdock/2013.1/src/exe/rbdock.cxx#4 $)

>  <Rbt.Library>
libRbt.so (2013.1, Build901 2013/11/27)

>  <Rbt.Parameter_File>
/export/apps/rDock/src/rDock_2013.1_src/data/scripts/dock_solv.prm

>  <Rbt.Receptor>
prm/pocket_docking_5.prm

>  <SCORE>
-24.7576

>  <SCORE.INTER>
-23.3366

>  <SCORE.INTER.CONST>
1

>  <SCORE.INTER.POLAR>
0

>  <SCORE.INTER.ROT>
7

>  <SCORE.INTER.SOLV>
19.7517

>  <SCORE.INTER.VDW>
-30.4083

>  <SCORE.INTER.norm>
-0.752792

>  <SCORE.INTRA>
-1.43535

>  <SCORE.INTRA.DIHEDRAL>
-1.16753

>  <SCORE.INTRA.DIHEDRAL.0>
10.0718

>  <SCORE.INTRA.POLAR>
0

>  <SCORE.INTRA.POLAR.0>
0

>  <SCORE.INTRA.REPUL>
0

>  <SCORE.INTRA.REPUL.0>
0

>  <SCORE.INTRA.SOLV>
0.0988077

>  <SCORE.INTRA.SOLV.lig_0>
-48.6963

>  <SCORE.INTRA.VDW>
-0.900986

>  <SCORE.INTRA.VDW.0>
-0.836976

>  <SCORE.INTRA.norm>
-0.0463015

>  <SCORE.RESTR>
0.0142923

>  <SCORE.RESTR.CAVITY>
0.0142923

>  <SCORE.RESTR.norm>
0.000461042

>  <SCORE.SYSTEM>
0

>  <SCORE.SYSTEM.CONST>
0

>  <SCORE.SYSTEM.DIHEDRAL>
0

>  <SCORE.SYSTEM.SOLV>
0

>  <SCORE.SYSTEM.norm>
0

>  <SCORE.heavy>
31

>  <SCORE.norm>
-0.798633

>  <RMSD>
4.722

$$$$
ligand
 OpenBabel11021811473D
libRbt.so/2013.1/901 2013/11/27
 31 33  0  0  0  0  0  0  0  0999 V2000
   25.9957   43.2846   16.8568 P   0  0  1  0  0  0  0  0  0  0  0  0
   26.0608   42.0690   15.9570 O   0  0  0  0  0  0  0  0  0  0  0  0
   27.2834   44.0475   16.6981 O   0  5  0  0  0  0  0  0  0  0  0  0
   24.8394   44.1616   16.4622 O   0  0  0  0  0  0  0  0  0  0  0  0
   26.7356   42.1166   19.0636 C   0  0  0  0  0  0  0  0  0  0  0  0
   25.7355   42.8182   18.3658 O   0  0  0  0  0  0  0  0  0  0  0  0
   26.3978   40.6329   19.0604 C   0  0  1  0  0  0  0  0  0  0  0  0
   26.2224   40.2132   17.7238 O   0  0  0  0  0  0  0  0  0  0  0  0
   27.5157   39.8327   19.7285 C   0  0  1  0  0  0  0  0  0  0  0  0
   28.7075   39.9708   18.9847 O   0  0  0  0  0  0  0  0  0  0  0  0
   27.7372   40.1932   21.2041 C   0  0  1  0  0  0  0  0  0  0  0  0
   26.5256   40.0702   21.9154 O   0  0  0  0  0  0  0  0  0  0  0  0
   28.7940   39.3229   21.8654 C   0  0  0  0  0  0  0  0  0  0  0  0
   27.3548   38.4095   24.1189 N   0  0  0  0  0  0  0  0  0  0  0  0
   26.6128   38.0270   25.2178 C   0  0  0  0  0  0  0  0  0  0  0  0
   26.4504   38.8092   26.1585 O   0  0  0  0  0  0  0  0  0  0  0  0
   26.0623   36.7620   25.2622 N   0  0  0  0  0  0  0  0  0  0  0  0
   26.2508   35.8809   24.2140 C   0  0  0  0  0  0  0  0  0  0  0  0
   26.9902   36.2602   23.1132 C   0  0  1  0  0  0  0  0  0  0  0  0
   25.7584   34.7542   24.2367 O   0  0  0  0  0  0  0  0  0  0  0  0
   27.9000   35.7453   20.9680 C   0  0  2  0  0  0  0  0  0  0  0  0
   27.1644   35.3683   22.0728 N   0  0  0  0  0  0  0  0  0  0  0  0
   28.0787   34.8471   19.9187 C   0  0  0  0  0  0  0  0  0  0  0  0
   28.8251   35.2148   18.8036 C   0  0  1  0  0  0  0  0  0  0  0  0
   28.9992   34.2365   17.6748 C   0  0  0  0  0  0  0  0  0  0  0  0
   29.3921   36.4927   18.7406 C   0  0  1  0  0  0  0  0  0  0  0  0
   30.1898   36.9241   17.5446 C   0  0  0  0  0  0  0  0  0  0  0  0
   29.2107   37.3876   19.7909 C   0  0  0  0  0  0  0  0  0  0  0  0
   28.4667   37.0222   20.9102 C   0  0  2  0  0  0  0  0  0  0  0  0
   27.5453   37.5338   23.0625 C   0  0  2  0  0  0  0  0  0  0  0  0
   28.2931   37.9117   21.9638 N   0  0  0  0  0  0  0  0  0  0  0  0
  1  2  1  6  0  0  0
  1  3  1  0  0  0  0
  1  4  2  0  0  0  0
  1  6  1  0  0  0  0
  5  6  1  0  0  0  0
  7  5  1  6  0  0  0
  7  8  1  0  0  0  0
  7  9  1  0  0  0  0
  9 10  1  6  0  0  0
  9 11  1  0  0  0  0
 11 12  1  1  0  0  0
 11 13  1  0  0  0  0
 13 31  1  0  0  0  0
 14 15  1  0  0  0  0
 15 16  2  0  0  0  0
 15 17  1  0  0  0  0
 17 18  1  0  0  0  0
 18 20  2  0  0  0  0
 19 18  1  6  0  0  0
 19 22  1  0  0  0  0
 19 30  1  0  0  0  0
 21 23  1  1  0  0  0
 21 29  1  0  0  0  0
 21 22  1  0  0  0  0
 23 24  1  0  0  0  0
 24 25  1  6  0  0  0
 24 26  1  0  0  0  0
 26 27  1  6  0  0  0
 26 28  1  0  0  0  0
 29 28  1  1  0  0  0
 29 31  1  0  0  0  0
 30 14  1  1  0  0  0
 30 31  1  0  0  0  0
M  CHG  1   3  -1
M  END
>  <CHROM.1>
-100.93077644,68.33595994,54.95892962,-63.19236003,54.54044099,-67.38744842
86.63948242,27.25384276,38.92708089,20.34066385,1.81425143,1.12193837,-0.97641728

>  <Name>
ligand

>  <RI>
0

>  <Rbt.Current_Directory>
/home/itssahil/PROJECTS/Mol_Feturizer/New_Systems/rnas/3F2Q

>  <Rbt.Executable>
rbdock ($Id: //depot/dev/client3/rdock/2013.1/src/exe/rbdock.cxx#4 $)

>  <Rbt.Library>
libRbt.so (2013.1, Build901 2013/11/27)

>  <Rbt.Parameter_File>
/export/apps/rDock/src/rDock_2013.1_src/data/scripts/dock_solv.prm

>  <Rbt.Receptor>
prm/blind_docking_80.prm

>  <SCORE>
-26.4575

>  <SCORE.INTER>
-23.491

>  <SCORE.INTER.CONST>
1

>  <SCORE.INTER.POLAR>
0

>  <SCORE.INTER.ROT>
7

>  <SCORE.INTER.SOLV>
18.1949

>  <SCORE.INTER.VDW>
-29.9923

>  <SCORE.INTER.norm>
-0.757775

>  <SCORE.INTRA>
-2.9665

>  <SCORE.INTRA.DIHEDRAL>
-2.81556

>  <SCORE.INTRA.DIHEDRAL.0>
10.0718

>  <SCORE.INTRA.POLAR>
0

>  <SCORE.INTRA.POLAR.0>
0

>  <SCORE.INTRA.REPUL>
0

>  <SCORE.INTRA.REPUL.0>
0

>  <SCORE.INTRA.SOLV>
0.147132

>  <SCORE.INTRA.SOLV.lig_0>
-48.6963

>  <SCORE.INTRA.VDW>
-1.63229

>  <SCORE.INTRA.VDW.0>
-0.836976

>  <SCORE.INTRA.norm>
-0.0956937

>  <SCORE.RESTR>
0

>  <SCORE.RESTR.CAVITY>
0

>  <SCORE.RESTR.norm>
0

>  <SCORE.SYSTEM>
0

>  <SCORE.SYSTEM.CONST>
0

>  <SCORE.SYSTEM.DIHEDRAL>
0

>  <SCORE.SYSTEM.SOLV>
0

>  <SCORE.SYSTEM.norm>
0

>  <SCORE.heavy>
31

>  <SCORE.norm>
-0.853469

>  <RMSD>
4.727

$$$$
ligand
 OpenBabel11021811473D
libRbt.so/2013.1/901 2013/11/27
 31 33  0  0  0  0  0  0  0  0999 V2000
   32.6525   34.9915   15.6227 P   0  0  1  0  0  0  0  0  0  0  0  0
   32.7577   34.6002   17.0813 O   0  0  0  0  0  0  0  0  0  0  0  0
   33.9129   34.5454   14.9317 O   0  5  0  0  0  0  0  0  0  0  0  0
   31.4660   34.3190   14.9888 O   0  0  0  0  0  0  0  0  0  0  0  0
   31.1721   37.1171   15.8908 C   0  0  0  0  0  0  0  0  0  0  0  0
   32.4110   36.5700   15.5099 O   0  0  0  0  0  0  0  0  0  0  0  0
   31.0003   36.9619   17.3947 C   0  0  1  0  0  0  0  0  0  0  0  0
   31.9135   37.8209   18.0440 O   0  0  0  0  0  0  0  0  0  0  0  0
   29.5667   37.3008   17.8028 C   0  0  1  0  0  0  0  0  0  0  0  0
   28.6637   36.4970   17.0741 O   0  0  0  0  0  0  0  0  0  0  0  0
   29.3119   37.1931   19.3127 C   0  0  1  0  0  0  0  0  0  0  0  0
   29.8635   38.3102   19.9735 O   0  0  0  0  0  0  0  0  0  0  0  0
   27.8326   37.0951   19.6497 C   0  0  0  0  0  0  0  0  0  0  0  0
   27.9497   34.3251   19.1049 N   0  0  0  0  0  0  0  0  0  0  0  0
   28.0676   32.9850   18.7972 C   0  0  0  0  0  0  0  0  0  0  0  0
   28.2367   32.6305   17.6272 O   0  0  0  0  0  0  0  0  0  0  0  0
   27.9854   32.0443   19.8039 N   0  0  0  0  0  0  0  0  0  0  0  0
   27.7865   32.4384   21.1137 C   0  0  0  0  0  0  0  0  0  0  0  0
   27.6701   33.7770   21.4255 C   0  0  1  0  0  0  0  0  0  0  0  0
   27.7205   31.6112   22.0215 O   0  0  0  0  0  0  0  0  0  0  0  0
   27.3635   35.4911   23.0571 C   0  0  2  0  0  0  0  0  0  0  0  0
   27.4764   34.1528   22.7406 N   0  0  0  0  0  0  0  0  0  0  0  0
   27.1661   35.8725   24.3820 C   0  0  0  0  0  0  0  0  0  0  0  0
   27.0434   37.2189   24.7107 C   0  0  1  0  0  0  0  0  0  0  0  0
   26.8413   37.6139   26.1476 C   0  0  0  0  0  0  0  0  0  0  0  0
   27.1229   38.1875   23.7037 C   0  0  1  0  0  0  0  0  0  0  0  0
   27.0094   39.6484   24.0285 C   0  0  0  0  0  0  0  0  0  0  0  0
   27.3209   37.8024   22.3811 C   0  0  0  0  0  0  0  0  0  0  0  0
   27.4412   36.4554   22.0476 C   0  0  2  0  0  0  0  0  0  0  0  0
   27.7540   34.7286   20.4156 C   0  0  2  0  0  0  0  0  0  0  0  0
   27.6293   36.0693   20.7259 N   0  0  0  0  0  0  0  0  0  0  0  0
  1  2  1  1  0  0  0
  1  3  1  0  0  0  0
  1  4  2  0  0  0  0
  1  6  1  0  0  0  0
  5  6  1  0  0  0  0
  7  5  1  6  0  0  0
  7  8  1  0  0  0  0
  7  9  1  0  0  0  0
  9 10  1  6  0  0  0
  9 11  1  0  0  0  0
 11 12  1  1  0  0  0
 11 13  1  0  0  0  0
 13 31  1  0  0  0  0
 14 15  1  0  0  0  0
 15 16  2  0  0  0  0
 15 17  1  0  0  0  0
 17 18  1  0  0  0  0
 18 20  2  0  0  0  0
 19 18  1  1  0  0  0
 19 22  1  0  0  0  0
 19 30  1  0  0  0  0
 21 23  1  6  0  0  0
 21 29  1  0  0  0  0
 21 22  1  0  0  0  0
 23 24  1  0  0  0  0
 24 25  1  1  0  0  0
 24 26  1  0  0  0  0
 26 27  1  1  0  0  0
 26 28  1  0  0  0  0
 29 28  1  6  0  0  0
 29 31  1  0  0  0  0
 30 14  1  6  0  0  0
 30 31  1  0  0  0  0
M  CHG  1   3  -1
M  END
>  <CHROM.1>
67.32606679,-71.10760687,69.53978559,55.79417355,76.34001558,138.07267175
100.92628926,29.23344744,35.65653786,19.59256469,-0.41862733,0.94254071,0.36454947

>  <Name>
ligand

>  <RI>
0

>  <Rbt.Current_Directory>
/home/itssahil/PROJECTS/Mol_Feturizer/New_Systems/rnas/3F2Q

>  <Rbt.Executable>
rbdock ($Id: //depot/dev/client3/rdock/2013.1/src/exe/rbdock.cxx#4 $)

>  <Rbt.Library>
libRbt.so (2013.1, Build901 2013/11/27)

>  <Rbt.Parameter_File>
/export/apps/rDock/src/rDock_2013.1_src/data/scripts/dock_solv.prm

>  <Rbt.Receptor>
prm/blind_docking_100.prm

>  <SCORE>
-32.767

>  <SCORE.INTER>
-30.1291

>  <SCORE.INTER.CONST>
1

>  <SCORE.INTER.POLAR>
0

>  <SCORE.INTER.ROT>
7

>  <SCORE.INTER.SOLV>
14.4505

>  <SCORE.INTER.VDW>
-33.1696

>  <SCORE.INTER.norm>
-0.971908

>  <SCORE.INTRA>
-2.63789

>  <SCORE.INTRA.DIHEDRAL>
-2.97578

>  <SCORE.INTRA.DIHEDRAL.0>
10.0718

>  <SCORE.INTRA.POLAR>
0

>  <SCORE.INTRA.POLAR.0>
0

>  <SCORE.INTRA.REPUL>
0

>  <SCORE.INTRA.REPUL.0>
0

>  <SCORE.INTRA.SOLV>
0.198745

>  <SCORE.INTRA.SOLV.lig_0>
-48.6963

>  <SCORE.INTRA.VDW>
-1.24937

>  <SCORE.INTRA.VDW.0>
-0.836976

>  <SCORE.INTRA.norm>
-0.0850932

>  <SCORE.RESTR>
0

>  <SCORE.RESTR.CAVITY>
0

>  <SCORE.RESTR.norm>
0

>  <SCORE.SYSTEM>
0

>  <SCORE.SYSTEM.CONST>
0

>  <SCORE.SYSTEM.DIHEDRAL>
0

>  <SCORE.SYSTEM.SOLV>
0

>  <SCORE.SYSTEM.norm>
0

>  <SCORE.heavy>
31

>  <SCORE.norm>
-1.057

>  <RMSD>
4.730

$$$$
ligand
 OpenBabel11021811473D
libRbt.so/2013.1/901 2013/11/27
 31 33  0  0  0  0  0  0  0  0999 V2000
   26.0595   43.4567   16.9258 P   0  0  1  0  0  0  0  0  0  0  0  0
   27.4944   43.9053   16.7485 O   0  0  0  0  0  0  0  0  0  0  0  0
   25.2129   44.6839   17.1316 O   0  5  0  0  0  0  0  0  0  0  0  0
   25.5901   42.7212   15.7008 O   0  0  0  0  0  0  0  0  0  0  0  0
   26.8551   41.3398   18.2170 C   0  0  0  0  0  0  0  0  0  0  0  0
   25.9689   42.4304   18.1510 O   0  0  0  0  0  0  0  0  0  0  0  0
   27.9424   41.6425   19.2376 C   0  0  1  0  0  0  0  0  0  0  0  0
   28.4287   42.9474   19.0049 O   0  0  0  0  0  0  0  0  0  0  0  0
   27.3858   41.5257   20.6565 C   0  0  1  0  0  0  0  0  0  0  0  0
   26.2154   42.3062   20.7724 O   0  0  0  0  0  0  0  0  0  0  0  0
   27.1355   40.0793   21.1053 C   0  0  1  0  0  0  0  0  0  0  0  0
   26.4430   39.3769   20.0973 O   0  0  0  0  0  0  0  0  0  0  0  0
   28.4221   39.3391   21.4344 C   0  0  0  0  0  0  0  0  0  0  0  0
   27.1492   38.2884   23.7276 N   0  0  0  0  0  0  0  0  0  0  0  0
   26.4793   37.8322   24.8446 C   0  0  0  0  0  0  0  0  0  0  0  0
   26.2096   38.6085   25.7653 O   0  0  0  0  0  0  0  0  0  0  0  0
   26.1221   36.5017   24.9296 N   0  0  0  0  0  0  0  0  0  0  0  0
   26.4316   35.6284   23.9039 C   0  0  0  0  0  0  0  0  0  0  0  0
   27.0993   36.0809   22.7850 C   0  0  1  0  0  0  0  0  0  0  0  0
   26.1113   34.4424   23.9628 O   0  0  0  0  0  0  0  0  0  0  0  0
   28.0605   35.6446   20.6448 C   0  0  2  0  0  0  0  0  0  0  0  0
   27.3962   35.1950   21.7676 N   0  0  0  0  0  0  0  0  0  0  0  0
   28.3628   34.7529   19.6185 C   0  0  0  0  0  0  0  0  0  0  0  0
   29.0390   35.1946   18.4856 C   0  0  1  0  0  0  0  0  0  0  0  0
   29.3480   34.2208   17.3821 C   0  0  0  0  0  0  0  0  0  0  0  0
   29.4105   36.5399   18.3815 C   0  0  1  0  0  0  0  0  0  0  0  0
   30.1275   37.0498   17.1656 C   0  0  0  0  0  0  0  0  0  0  0  0
   29.1061   37.4279   19.4090 C   0  0  0  0  0  0  0  0  0  0  0  0
   28.4319   36.9890   20.5460 C   0  0  2  0  0  0  0  0  0  0  0  0
   27.4598   37.4204   22.6935 C   0  0  2  0  0  0  0  0  0  0  0  0
   28.1360   37.8730   21.5767 N   0  0  0  0  0  0  0  0  0  0  0  0
  1  2  1  6  0  0  0
  1  3  1  0  0  0  0
  1  4  2  0  0  0  0
  1  6  1  0  0  0  0
  5  6  1  0  0  0  0
  7  5  1  6  0  0  0
  7  8  1  0  0  0  0
  7  9  1  0  0  0  0
  9 10  1  6  0  0  0
  9 11  1  0  0  0  0
 11 12  1  6  0  0  0
 11 13  1  0  0  0  0
 13 31  1  0  0  0  0
 14 15  1  0  0  0  0
 15 16  2  0  0  0  0
 15 17  1  0  0  0  0
 17 18  1  0  0  0  0
 18 20  2  0  0  0  0
 19 18  1  6  0  0  0
 19 22  1  0  0  0  0
 19 30  1  0  0  0  0
 21 23  1  1  0  0  0
 21 29  1  0  0  0  0
 21 22  1  0  0  0  0
 23 24  1  0  0  0  0
 24 25  1  6  0  0  0
 24 26  1  0  0  0  0
 26 27  1  6  0  0  0
 26 28  1  0  0  0  0
 29 28  1  1  0  0  0
 29 31  1  0  0  0  0
 30 14  1  1  0  0  0
 30 31  1  0  0  0  0
M  CHG  1   3  -1
M  END
>  <CHROM.1>
102.86479640,-49.83684309,-46.89398127,-51.97780439,-47.29686379,-167.97384389
101.27108816,27.30088751,39.11227060,20.20579161,1.80605369,1.13572619,-0.83455203

>  <Name>
ligand

>  <RI>
0

>  <Rbt.Current_Directory>
/home/itssahil/PROJECTS/Mol_Feturizer/New_Systems/rnas/3F2Q

>  <Rbt.Executable>
rbdock ($Id: //depot/dev/client3/rdock/2013.1/src/exe/rbdock.cxx#4 $)

>  <Rbt.Library>
libRbt.so (2013.1, Build901 2013/11/27)

>  <Rbt.Parameter_File>
/export/apps/rDock/src/rDock_2013.1_src/data/scripts/dock_solv.prm

>  <Rbt.Receptor>
prm/pocket_docking_6.prm

>  <SCORE>
-25.2478

>  <SCORE.INTER>
-24.4713

>  <SCORE.INTER.CONST>
1

>  <SCORE.INTER.POLAR>
0

>  <SCORE.INTER.ROT>
7

>  <SCORE.INTER.SOLV>
20.0476

>  <SCORE.INTER.VDW>
-31.2634

>  <SCORE.INTER.norm>
-0.789396

>  <SCORE.INTRA>
-0.776526

>  <SCORE.INTRA.DIHEDRAL>
-1.00818

>  <SCORE.INTRA.DIHEDRAL.0>
10.0718

>  <SCORE.INTRA.POLAR>
0

>  <SCORE.INTRA.POLAR.0>
0

>  <SCORE.INTRA.REPUL>
0

>  <SCORE.INTRA.REPUL.0>
0

>  <SCORE.INTRA.SOLV>
0.385707

>  <SCORE.INTRA.SOLV.lig_0>
-48.6963

>  <SCORE.INTRA.VDW>
-0.465291

>  <SCORE.INTRA.VDW.0>
-0.836976

>  <SCORE.INTRA.norm>
-0.0250492

>  <SCORE.RESTR>
0

>  <SCORE.RESTR.CAVITY>
0

>  <SCORE.RESTR.norm>
0

>  <SCORE.SYSTEM>
0

>  <SCORE.SYSTEM.CONST>
0

>  <SCORE.SYSTEM.DIHEDRAL>
0

>  <SCORE.SYSTEM.SOLV>
0

>  <SCORE.SYSTEM.norm>
0

>  <SCORE.heavy>
31

>  <SCORE.norm>
-0.814445

>  <RMSD>
4.731

$$$$
ligand
 OpenBabel11021811473D
libRbt.so/2013.1/901 2013/11/27
 31 33  0  0  0  0  0  0  0  0999 V2000
   25.8285   43.3504   16.4056 P   0  0  1  0  0  0  0  0  0  0  0  0
   24.4774   42.9090   15.8849 O   0  0  0  0  0  0  0  0  0  0  0  0
   26.7705   43.4355   15.2349 O   0  5  0  0  0  0  0  0  0  0  0  0
   25.7172   44.6995   17.0610 O   0  0  0  0  0  0  0  0  0  0  0  0
   25.4871   42.0065   18.6099 C   0  0  0  0  0  0  0  0  0  0  0  0
   26.3286   42.3248   17.5284 O   0  0  0  0  0  0  0  0  0  0  0  0
   26.1703   40.9639   19.4827 C   0  0  1  0  0  0  0  0  0  0  0  0
   25.3303   40.6738   20.5798 O   0  0  0  0  0  0  0  0  0  0  0  0
   26.4499   39.6966   18.6751 C   0  0  1  0  0  0  0  0  0  0  0  0
   27.5859   39.8942   17.8608 O   0  0  0  0  0  0  0  0  0  0  0  0
   26.5970   38.4345   19.5365 C   0  0  1  0  0  0  0  0  0  0  0  0
   26.6364   37.2918   18.7110 O   0  0  0  0  0  0  0  0  0  0  0  0
   27.8432   38.4638   20.4069 C   0  0  0  0  0  0  0  0  0  0  0  0
   27.2650   39.6160   22.9212 N   0  0  0  0  0  0  0  0  0  0  0  0
   26.9349   40.2249   24.1148 C   0  0  0  0  0  0  0  0  0  0  0  0
   26.9229   41.4561   24.1997 O   0  0  0  0  0  0  0  0  0  0  0  0
   26.6283   39.4489   25.2144 N   0  0  0  0  0  0  0  0  0  0  0  0
   26.6504   38.0698   25.1242 C   0  0  0  0  0  0  0  0  0  0  0  0
   26.9779   37.4576   23.9324 C   0  0  1  0  0  0  0  0  0  0  0  0
   26.3705   37.3667   26.0936 O   0  0  0  0  0  0  0  0  0  0  0  0
   27.3136   35.4618   22.6678 C   0  0  2  0  0  0  0  0  0  0  0  0
   26.9904   36.0782   23.8593 N   0  0  0  0  0  0  0  0  0  0  0  0
   27.3288   34.0712   22.5922 C   0  0  0  0  0  0  0  0  0  0  0  0
   27.6607   33.4400   21.3975 C   0  0  1  0  0  0  0  0  0  0  0  0
   27.6619   31.9377   21.3303 C   0  0  0  0  0  0  0  0  0  0  0  0
   27.9757   34.2097   20.2719 C   0  0  1  0  0  0  0  0  0  0  0  0
   28.3231   33.5584   18.9651 C   0  0  0  0  0  0  0  0  0  0  0  0
   27.9587   35.5991   20.3515 C   0  0  0  0  0  0  0  0  0  0  0  0
   27.6299   36.2347   21.5464 C   0  0  2  0  0  0  0  0  0  0  0  0
   27.2858   38.2344   22.8214 C   0  0  2  0  0  0  0  0  0  0  0  0
   27.6221   37.6220   21.6294 N   0  0  0  0  0  0  0  0  0  0  0  0
  1  2  1  6  0  0  0
  1  3  1  0  0  0  0
  1  4  2  0  0  0  0
  1  6  1  0  0  0  0
  5  6  1  0  0  0  0
  7  5  1  6  0  0  0
  7  8  1  0  0  0  0
  7  9  1  0  0  0  0
  9 10  1  1  0  0  0
  9 11  1  0  0  0  0
 11 12  1  6  0  0  0
 11 13  1  0  0  0  0
 13 31  1  0  0  0  0
 14 15  1  0  0  0  0
 15 16  2  0  0  0  0
 15 17  1  0  0  0  0
 17 18  1  0  0  0  0
 18 20  2  0  0  0  0
 19 18  1  6  0  0  0
 19 22  1  0  0  0  0
 19 30  1  0  0  0  0
 21 23  1  1  0  0  0
 21 29  1  0  0  0  0
 21 22  1  0  0  0  0
 23 24  1  0  0  0  0
 24 25  1  6  0  0  0
 24 26  1  0  0  0  0
 26 27  1  6  0  0  0
 26 28  1  0  0  0  0
 29 28  1  1  0  0  0
 29 31  1  0  0  0  0
 30 14  1  1  0  0  0
 30 31  1  0  0  0  0
M  CHG  1   3  -1
M  END
>  <CHROM.1>
177.08275163,-52.22157552,178.73592678,78.10053552,170.59571463,153.06052155
74.26648425,26.78342365,38.87491480,20.51019629,-2.44845776,-1.36679245,1.60825433

>  <Name>
ligand

>  <RI>
0

>  <Rbt.Current_Directory>
/home/itssahil/PROJECTS/Mol_Feturizer/New_Systems/rnas/3F2Q

>  <Rbt.Executable>
rbdock ($Id: //depot/dev/client3/rdock/2013.1/src/exe/rbdock.cxx#4 $)

>  <Rbt.Library>
libRbt.so (2013.1, Build901 2013/11/27)

>  <Rbt.Parameter_File>
/export/apps/rDock/src/rDock_2013.1_src/data/scripts/dock_solv.prm

>  <Rbt.Receptor>
prm/blind_docking_60.prm

>  <SCORE>
-30.0409

>  <SCORE.INTER>
-25.8214

>  <SCORE.INTER.CONST>
1

>  <SCORE.INTER.POLAR>
0

>  <SCORE.INTER.ROT>
7

>  <SCORE.INTER.SOLV>
20.23

>  <SCORE.INTER.VDW>
-32.2242

>  <SCORE.INTER.norm>
-0.832947

>  <SCORE.INTRA>
-4.21954

>  <SCORE.INTRA.DIHEDRAL>
-5.07303

>  <SCORE.INTRA.DIHEDRAL.0>
10.0718

>  <SCORE.INTRA.POLAR>
0

>  <SCORE.INTRA.POLAR.0>
0

>  <SCORE.INTRA.REPUL>
0

>  <SCORE.INTRA.REPUL.0>
0

>  <SCORE.INTRA.SOLV>
-0.91811

>  <SCORE.INTRA.SOLV.lig_0>
-48.6963

>  <SCORE.INTRA.VDW>
-1.22397

>  <SCORE.INTRA.VDW.0>
-0.836976

>  <SCORE.INTRA.norm>
-0.136114

>  <SCORE.RESTR>
0

>  <SCORE.RESTR.CAVITY>
0

>  <SCORE.RESTR.norm>
0

>  <SCORE.SYSTEM>
0

>  <SCORE.SYSTEM.CONST>
0

>  <SCORE.SYSTEM.DIHEDRAL>
0

>  <SCORE.SYSTEM.SOLV>
0

>  <SCORE.SYSTEM.norm>
0

>  <SCORE.heavy>
31

>  <SCORE.norm>
-0.969061

>  <RMSD>
4.733

$$$$
ligand
 OpenBabel11021811473D
libRbt.so/2013.1/901 2013/11/27
 31 33  0  0  0  0  0  0  0  0999 V2000
   25.9870   43.3570   16.9173 P   0  0  1  0  0  0  0  0  0  0  0  0
   25.1186   42.7294   15.8479 O   0  0  0  0  0  0  0  0  0  0  0  0
   27.4247   43.0858   16.5641 O   0  5  0  0  0  0  0  0  0  0  0  0
   25.7534   44.8417   16.9709 O   0  0  0  0  0  0  0  0  0  0  0  0
   25.5930   41.3769   18.5621 C   0  0  0  0  0  0  0  0  0  0  0  0
   25.5803   42.7674   18.3489 O   0  0  0  0  0  0  0  0  0  0  0  0
   27.0210   40.8666   18.4365 C   0  0  1  0  0  0  0  0  0  0  0  0
   27.7410   41.2532   19.5878 O   0  0  0  0  0  0  0  0  0  0  0  0
   27.0299   39.3453   18.2876 C   0  0  1  0  0  0  0  0  0  0  0  0
   28.2546   38.9315   17.7208 O   0  0  0  0  0  0  0  0  0  0  0  0
   26.7413   38.5945   19.5950 C   0  0  1  0  0  0  0  0  0  0  0  0
   26.2605   37.2999   19.3091 O   0  0  0  0  0  0  0  0  0  0  0  0
   27.9668   38.4851   20.4881 C   0  0  0  0  0  0  0  0  0  0  0  0
   27.2431   39.6053   22.9790 N   0  0  0  0  0  0  0  0  0  0  0  0
   26.8453   40.2001   24.1591 C   0  0  0  0  0  0  0  0  0  0  0  0
   26.8519   41.4296   24.2660 O   0  0  0  0  0  0  0  0  0  0  0  0
   26.4499   39.4117   25.2208 N   0  0  0  0  0  0  0  0  0  0  0  0
   26.4509   38.0343   25.1065 C   0  0  0  0  0  0  0  0  0  0  0  0
   26.8460   37.4361   23.9281 C   0  0  1  0  0  0  0  0  0  0  0  0
   26.0924   37.3204   26.0415 O   0  0  0  0  0  0  0  0  0  0  0  0
   27.2268   35.4561   22.6517 C   0  0  2  0  0  0  0  0  0  0  0  0
   26.8361   36.0582   23.8301 N   0  0  0  0  0  0  0  0  0  0  0  0
   27.2196   34.0669   22.5512 C   0  0  0  0  0  0  0  0  0  0  0  0
   27.6189   33.4498   21.3698 C   0  0  1  0  0  0  0  0  0  0  0  0
   27.5950   31.9492   21.2747 C   0  0  0  0  0  0  0  0  0  0  0  0
   28.0242   34.2322   20.2826 C   0  0  1  0  0  0  0  0  0  0  0  0
   28.4461   33.5965   18.9901 C   0  0  0  0  0  0  0  0  0  0  0  0
   28.0293   35.6200   20.3868 C   0  0  0  0  0  0  0  0  0  0  0  0
   27.6332   36.2415   21.5687 C   0  0  2  0  0  0  0  0  0  0  0  0
   27.2433   38.2255   22.8550 C   0  0  2  0  0  0  0  0  0  0  0  0
   27.6471   37.6270   21.6769 N   0  0  0  0  0  0  0  0  0  0  0  0
  1  2  1  6  0  0  0
  1  3  1  0  0  0  0
  1  4  2  0  0  0  0
  1  6  1  0  0  0  0
  5  6  1  0  0  0  0
  7  5  1  1  0  0  0
  7  8  1  0  0  0  0
  7  9  1  0  0  0  0
  9 10  1  1  0  0  0
  9 11  1  0  0  0  0
 11 12  1  6  0  0  0
 11 13  1  0  0  0  0
 13 31  1  0  0  0  0
 14 15  1  0  0  0  0
 15 16  2  0  0  0  0
 15 17  1  0  0  0  0
 17 18  1  0  0  0  0
 18 20  2  0  0  0  0
 19 18  1  6  0  0  0
 19 22  1  0  0  0  0
 19 30  1  0  0  0  0
 21 23  1  1  0  0  0
 21 29  1  0  0  0  0
 21 22  1  0  0  0  0
 23 24  1  0  0  0  0
 24 25  1  6  0  0  0
 24 26  1  0  0  0  0
 26 27  1  6  0  0  0
 26 28  1  0  0  0  0
 29 28  1  1  0  0  0
 29 31  1  0  0  0  0
 30 14  1  1  0  0  0
 30 31  1  0  0  0  0
M  CHG  1   3  -1
M  END
>  <CHROM.1>
64.60235523,55.50338898,73.98517731,159.82580408,157.34805995,-174.42355739
79.11296342,26.92822862,38.83256722,20.56289659,-2.22033043,-1.37397024,1.87517249

>  <Name>
ligand

>  <RI>
0

>  <Rbt.Current_Directory>
/home/itssahil/PROJECTS/Mol_Feturizer/New_Systems/rnas/3F2Q

>  <Rbt.Executable>
rbdock ($Id: //depot/dev/client3/rdock/2013.1/src/exe/rbdock.cxx#4 $)

>  <Rbt.Library>
libRbt.so (2013.1, Build901 2013/11/27)

>  <Rbt.Parameter_File>
/export/apps/rDock/src/rDock_2013.1_src/data/scripts/dock_solv.prm

>  <Rbt.Receptor>
prm/blind_docking_80.prm

>  <SCORE>
-28.2537

>  <SCORE.INTER>
-25.7494

>  <SCORE.INTER.CONST>
1

>  <SCORE.INTER.POLAR>
0

>  <SCORE.INTER.ROT>
7

>  <SCORE.INTER.SOLV>
18.0372

>  <SCORE.INTER.VDW>
-31.4453

>  <SCORE.INTER.norm>
-0.830625

>  <SCORE.INTRA>
-2.50435

>  <SCORE.INTRA.DIHEDRAL>
-4.96435

>  <SCORE.INTRA.DIHEDRAL.0>
10.0718

>  <SCORE.INTRA.POLAR>
0

>  <SCORE.INTRA.POLAR.0>
0

>  <SCORE.INTRA.REPUL>
0

>  <SCORE.INTRA.REPUL.0>
0

>  <SCORE.INTRA.SOLV>
1.11376

>  <SCORE.INTRA.SOLV.lig_0>
-48.6963

>  <SCORE.INTRA.VDW>
-0.579051

>  <SCORE.INTRA.VDW.0>
-0.836976

>  <SCORE.INTRA.norm>
-0.0807854

>  <SCORE.RESTR>
0

>  <SCORE.RESTR.CAVITY>
0

>  <SCORE.RESTR.norm>
0

>  <SCORE.SYSTEM>
0

>  <SCORE.SYSTEM.CONST>
0

>  <SCORE.SYSTEM.DIHEDRAL>
0

>  <SCORE.SYSTEM.SOLV>
0

>  <SCORE.SYSTEM.norm>
0

>  <SCORE.heavy>
31

>  <SCORE.norm>
-0.91141

>  <RMSD>
4.735

$$$$
ligand
 OpenBabel11021811473D
libRbt.so/2013.1/901 2013/11/27
 31 33  0  0  0  0  0  0  0  0999 V2000
   27.2092   42.6622   17.2491 P   0  0  1  0  0  0  0  0  0  0  0  0
   27.7231   42.3605   15.8575 O   0  0  0  0  0  0  0  0  0  0  0  0
   28.3786   43.0986   18.0899 O   0  5  0  0  0  0  0  0  0  0  0  0
   26.1872   43.7644   17.1977 O   0  0  0  0  0  0  0  0  0  0  0  0
   25.5763   41.5030   18.9139 C   0  0  0  0  0  0  0  0  0  0  0  0
   26.4728   41.3686   17.8380 O   0  0  0  0  0  0  0  0  0  0  0  0
   26.3212   42.0654   20.1157 C   0  0  1  0  0  0  0  0  0  0  0  0
   25.4424   42.0887   21.2205 O   0  0  0  0  0  0  0  0  0  0  0  0
   27.5481   41.2087   20.4280 C   0  0  1  0  0  0  0  0  0  0  0  0
   28.3269   41.8403   21.4216 O   0  0  0  0  0  0  0  0  0  0  0  0
   27.2095   39.7644   20.8226 C   0  0  1  0  0  0  0  0  0  0  0  0
   26.6809   39.0747   19.7119 O   0  0  0  0  0  0  0  0  0  0  0  0
   28.4158   39.0058   21.3525 C   0  0  0  0  0  0  0  0  0  0  0  0
   27.1251   38.1477   23.7149 N   0  0  0  0  0  0  0  0  0  0  0  0
   26.4498   37.7882   24.8635 C   0  0  0  0  0  0  0  0  0  0  0  0
   26.2420   38.6241   25.7473 O   0  0  0  0  0  0  0  0  0  0  0  0
   26.0177   36.4868   25.0214 N   0  0  0  0  0  0  0  0  0  0  0  0
   26.2578   35.5466   24.0371 C   0  0  0  0  0  0  0  0  0  0  0  0
   26.9306   35.9027   22.8869 C   0  0  1  0  0  0  0  0  0  0  0  0
   25.8703   34.3861   24.1611 O   0  0  0  0  0  0  0  0  0  0  0  0
   27.8267   35.3041   20.7577 C   0  0  2  0  0  0  0  0  0  0  0  0
   27.1575   34.9510   21.9116 N   0  0  0  0  0  0  0  0  0  0  0  0
   28.0585   34.3459   19.7738 C   0  0  0  0  0  0  0  0  0  0  0  0
   28.7390   34.6899   18.6100 C   0  0  1  0  0  0  0  0  0  0  0  0
   28.9714   33.6457   17.5531 C   0  0  0  0  0  0  0  0  0  0  0  0
   29.1860   36.0041   18.4320 C   0  0  1  0  0  0  0  0  0  0  0  0
   29.9096   36.4096   17.1811 C   0  0  0  0  0  0  0  0  0  0  0  0
   28.9518   36.9588   19.4172 C   0  0  0  0  0  0  0  0  0  0  0  0
   28.2736   36.6176   20.5850 C   0  0  2  0  0  0  0  0  0  0  0  0
   27.3664   37.2124   22.7218 C   0  0  2  0  0  0  0  0  0  0  0  0
   28.0478   37.5680   21.5736 N   0  0  0  0  0  0  0  0  0  0  0  0
  1  2  1  6  0  0  0
  1  3  1  0  0  0  0
  1  4  2  0  0  0  0
  1  6  1  0  0  0  0
  5  6  1  0  0  0  0
  7  5  1  6  0  0  0
  7  8  1  0  0  0  0
  7  9  1  0  0  0  0
  9 10  1  1  0  0  0
  9 11  1  0  0  0  0
 11 12  1  6  0  0  0
 11 13  1  0  0  0  0
 13 31  1  0  0  0  0
 14 15  1  0  0  0  0
 15 16  2  0  0  0  0
 15 17  1  0  0  0  0
 17 18  1  0  0  0  0
 18 20  2  0  0  0  0
 19 18  1  6  0  0  0
 19 22  1  0  0  0  0
 19 30  1  0  0  0  0
 21 23  1  1  0  0  0
 21 29  1  0  0  0  0
 21 22  1  0  0  0  0
 23 24  1  0  0  0  0
 24 25  1  6  0  0  0
 24 26  1  0  0  0  0
 26 27  1  6  0  0  0
 26 28  1  0  0  0  0
 29 28  1  1  0  0  0
 29 31  1  0  0  0  0
 30 14  1  1  0  0  0
 30 31  1  0  0  0  0
M  CHG  1   3  -1
M  END
>  <CHROM.1>
-61.11263358,-160.83024092,-175.03928158,172.00601221,67.83118774,-173.80420410
93.62905002,27.34668120,38.72716362,20.43144892,-1.60006728,-1.19536561,2.50673136

>  <Name>
ligand

>  <RI>
0

>  <Rbt.Current_Directory>
/home/itssahil/PROJECTS/Mol_Feturizer/New_Systems/rnas/3F2Q

>  <Rbt.Executable>
rbdock ($Id: //depot/dev/client3/rdock/2013.1/src/exe/rbdock.cxx#4 $)

>  <Rbt.Library>
libRbt.so (2013.1, Build901 2013/11/27)

>  <Rbt.Parameter_File>
/export/apps/rDock/src/rDock_2013.1_src/data/scripts/dock_solv.prm

>  <Rbt.Receptor>
prm/blind_docking_100.prm

>  <SCORE>
-28.4437

>  <SCORE.INTER>
-25.5625

>  <SCORE.INTER.CONST>
1

>  <SCORE.INTER.POLAR>
0

>  <SCORE.INTER.ROT>
7

>  <SCORE.INTER.SOLV>
18.769

>  <SCORE.INTER.VDW>
-31.5647

>  <SCORE.INTER.norm>
-0.824596

>  <SCORE.INTRA>
-2.88125

>  <SCORE.INTRA.DIHEDRAL>
-7.71912

>  <SCORE.INTRA.DIHEDRAL.0>
10.0718

>  <SCORE.INTRA.POLAR>
0

>  <SCORE.INTRA.POLAR.0>
0

>  <SCORE.INTRA.REPUL>
0

>  <SCORE.INTRA.REPUL.0>
0

>  <SCORE.INTRA.SOLV>
2.97535

>  <SCORE.INTRA.SOLV.lig_0>
-48.6963

>  <SCORE.INTRA.VDW>
-0.50937

>  <SCORE.INTRA.VDW.0>
-0.836976

>  <SCORE.INTRA.norm>
-0.0929437

>  <SCORE.RESTR>
0

>  <SCORE.RESTR.CAVITY>
0

>  <SCORE.RESTR.norm>
0

>  <SCORE.SYSTEM>
0

>  <SCORE.SYSTEM.CONST>
0

>  <SCORE.SYSTEM.DIHEDRAL>
0

>  <SCORE.SYSTEM.SOLV>
0

>  <SCORE.SYSTEM.norm>
0

>  <SCORE.heavy>
31

>  <SCORE.norm>
-0.91754

>  <RMSD>
4.738

$$$$
ligand
 OpenBabel11021811473D
libRbt.so/2013.1/901 2013/11/27
 31 33  0  0  0  0  0  0  0  0999 V2000
   27.2847   42.6101   17.3431 P   0  0  1  0  0  0  0  0  0  0  0  0
   26.3417   43.7942   17.3397 O   0  0  0  0  0  0  0  0  0  0  0  0
   27.6219   42.2828   15.9133 O   0  5  0  0  0  0  0  0  0  0  0  0
   28.5437   42.9508   18.0918 O   0  0  0  0  0  0  0  0  0  0  0  0
   25.7871   41.6299   19.2347 C   0  0  0  0  0  0  0  0  0  0  0  0
   26.5998   41.3848   18.1128 O   0  0  0  0  0  0  0  0  0  0  0  0
   26.6469   42.1836   20.3614 C   0  0  1  0  0  0  0  0  0  0  0  0
   25.8475   42.3107   21.5182 O   0  0  0  0  0  0  0  0  0  0  0  0
   27.8311   41.2552   20.6307 C   0  0  1  0  0  0  0  0  0  0  0  0
   28.6677   41.8267   21.6136 O   0  0  0  0  0  0  0  0  0  0  0  0
   27.4216   39.8260   21.0128 C   0  0  1  0  0  0  0  0  0  0  0  0
   26.8239   39.1861   19.9073 O   0  0  0  0  0  0  0  0  0  0  0  0
   28.5970   38.9915   21.4962 C   0  0  0  0  0  0  0  0  0  0  0  0
   27.2547   38.1124   23.8219 N   0  0  0  0  0  0  0  0  0  0  0  0
   26.5571   37.7447   24.9544 C   0  0  0  0  0  0  0  0  0  0  0  0
   26.3811   38.5587   25.8652 O   0  0  0  0  0  0  0  0  0  0  0  0
   26.0664   36.4594   25.0659 N   0  0  0  0  0  0  0  0  0  0  0  0
   26.2706   35.5433   24.0512 C   0  0  0  0  0  0  0  0  0  0  0  0
   26.9657   35.9076   22.9169 C   0  0  1  0  0  0  0  0  0  0  0  0
   25.8311   34.3976   24.1337 O   0  0  0  0  0  0  0  0  0  0  0  0
   27.8475   35.3420   20.7728 C   0  0  2  0  0  0  0  0  0  0  0  0
   27.1561   34.9803   21.9108 N   0  0  0  0  0  0  0  0  0  0  0  0
   28.0425   34.4083   19.7579 C   0  0  0  0  0  0  0  0  0  0  0  0
   28.7448   34.7607   18.6097 C   0  0  1  0  0  0  0  0  0  0  0  0
   28.9370   33.7435   17.5189 C   0  0  0  0  0  0  0  0  0  0  0  0
   29.2509   36.0589   18.4787 C   0  0  1  0  0  0  0  0  0  0  0  0
   29.9996   36.4737   17.2458 C   0  0  0  0  0  0  0  0  0  0  0  0
   29.0533   36.9892   19.4948 C   0  0  0  0  0  0  0  0  0  0  0  0
   28.3534   36.6394   20.6471 C   0  0  2  0  0  0  0  0  0  0  0  0
   27.4603   37.2014   22.7987 C   0  0  2  0  0  0  0  0  0  0  0  0
   28.1639   37.5648   21.6664 N   0  0  0  0  0  0  0  0  0  0  0  0
  1  2  1  1  0  0  0
  1  3  1  0  0  0  0
  1  4  2  0  0  0  0
  1  6  1  0  0  0  0
  5  6  1  0  0  0  0
  7  5  1  6  0  0  0
  7  8  1  0  0  0  0
  7  9  1  0  0  0  0
  9 10  1  1  0  0  0
  9 11  1  0  0  0  0
 11 12  1  6  0  0  0
 11 13  1  0  0  0  0
 13 31  1  0  0  0  0
 14 15  1  0  0  0  0
 15 16  2  0  0  0  0
 15 17  1  0  0  0  0
 17 18  1  0  0  0  0
 18 20  2  0  0  0  0
 19 18  1  6  0  0  0
 19 22  1  0  0  0  0
 19 30  1  0  0  0  0
 21 23  1  1  0  0  0
 21 29  1  0  0  0  0
 21 22  1  0  0  0  0
 23 24  1  0  0  0  0
 24 25  1  6  0  0  0
 24 26  1  0  0  0  0
 26 27  1  6  0  0  0
 26 28  1  0  0  0  0
 29 28  1  1  0  0  0
 29 31  1  0  0  0  0
 30 14  1  1  0  0  0
 30 31  1  0  0  0  0
M  CHG  1   3  -1
M  END
>  <CHROM.1>
-66.49043499,-36.19996452,-174.70929676,176.02817848,67.60290467,-172.12243273
94.72531264,27.46018967,38.74706455,20.53491479,-1.55603042,-1.22342645,2.55141486

>  <Name>
ligand

>  <RI>
0

>  <Rbt.Current_Directory>
/home/itssahil/PROJECTS/Mol_Feturizer/New_Systems/rnas/3F2Q

>  <Rbt.Executable>
rbdock ($Id: //depot/dev/client3/rdock/2013.1/src/exe/rbdock.cxx#4 $)

>  <Rbt.Library>
libRbt.so (2013.1, Build901 2013/11/27)

>  <Rbt.Parameter_File>
/export/apps/rDock/src/rDock_2013.1_src/data/scripts/dock_solv.prm

>  <Rbt.Receptor>
prm/blind_docking_60.prm

>  <SCORE>
-28.5343

>  <SCORE.INTER>
-25.2986

>  <SCORE.INTER.CONST>
1

>  <SCORE.INTER.POLAR>
0

>  <SCORE.INTER.ROT>
7

>  <SCORE.INTER.SOLV>
20.4897

>  <SCORE.INTER.VDW>
-31.9623

>  <SCORE.INTER.norm>
-0.816084

>  <SCORE.INTRA>
-3.23573

>  <SCORE.INTRA.DIHEDRAL>
-7.34016

>  <SCORE.INTRA.DIHEDRAL.0>
10.0718

>  <SCORE.INTRA.POLAR>
0

>  <SCORE.INTRA.POLAR.0>
0

>  <SCORE.INTRA.REPUL>
0

>  <SCORE.INTRA.REPUL.0>
0

>  <SCORE.INTRA.SOLV>
1.54209

>  <SCORE.INTRA.SOLV.lig_0>
-48.6963

>  <SCORE.INTRA.VDW>
-0.336691

>  <SCORE.INTRA.VDW.0>
-0.836976

>  <SCORE.INTRA.norm>
-0.104378

>  <SCORE.RESTR>
0

>  <SCORE.RESTR.CAVITY>
0

>  <SCORE.RESTR.norm>
0

>  <SCORE.SYSTEM>
0

>  <SCORE.SYSTEM.CONST>
0

>  <SCORE.SYSTEM.DIHEDRAL>
0

>  <SCORE.SYSTEM.SOLV>
0

>  <SCORE.SYSTEM.norm>
0

>  <SCORE.heavy>
31

>  <SCORE.norm>
-0.920462

>  <RMSD>
4.738

$$$$
ligand
 OpenBabel11021811473D
libRbt.so/2013.1/901 2013/11/27
 31 33  0  0  0  0  0  0  0  0999 V2000
   25.5554   43.8915   16.2542 P   0  0  1  0  0  0  0  0  0  0  0  0
   26.5909   43.8451   15.1510 O   0  0  0  0  0  0  0  0  0  0  0  0
   25.4402   45.3175   16.7214 O   0  5  0  0  0  0  0  0  0  0  0  0
   24.2235   43.4225   15.7365 O   0  0  0  0  0  0  0  0  0  0  0  0
   26.2477   41.5396   17.1322 C   0  0  0  0  0  0  0  0  0  0  0  0
   25.9805   42.8889   17.4276 O   0  0  0  0  0  0  0  0  0  0  0  0
   26.5209   40.7906   18.4283 C   0  0  1  0  0  0  0  0  0  0  0  0
   25.4603   41.0410   19.3260 O   0  0  0  0  0  0  0  0  0  0  0  0
   26.6484   39.2914   18.1582 C   0  0  1  0  0  0  0  0  0  0  0  0
   27.8553   39.0342   17.4728 O   0  0  0  0  0  0  0  0  0  0  0  0
   26.5300   38.4238   19.4189 C   0  0  1  0  0  0  0  0  0  0  0  0
   26.1751   37.1061   19.0633 O   0  0  0  0  0  0  0  0  0  0  0  0
   27.8163   38.3922   20.2288 C   0  0  0  0  0  0  0  0  0  0  0  0
   27.2479   39.6212   22.7087 N   0  0  0  0  0  0  0  0  0  0  0  0
   26.9224   40.2664   23.8844 C   0  0  0  0  0  0  0  0  0  0  0  0
   26.9074   41.4996   23.9307 O   0  0  0  0  0  0  0  0  0  0  0  0
   26.6236   39.5244   25.0093 N   0  0  0  0  0  0  0  0  0  0  0  0
   26.6490   38.1433   24.9623 C   0  0  0  0  0  0  0  0  0  0  0  0
   26.9721   37.4948   23.7886 C   0  0  1  0  0  0  0  0  0  0  0  0
   26.3761   37.4701   25.9547 O   0  0  0  0  0  0  0  0  0  0  0  0
   27.3067   35.4613   22.5854 C   0  0  2  0  0  0  0  0  0  0  0  0
   26.9880   36.1138   23.7587 N   0  0  0  0  0  0  0  0  0  0  0  0
   27.3254   34.0690   22.5533 C   0  0  0  0  0  0  0  0  0  0  0  0
   27.6529   33.4015   21.3773 C   0  0  1  0  0  0  0  0  0  0  0  0
   27.6578   31.8978   21.3572 C   0  0  0  0  0  0  0  0  0  0  0  0
   27.9599   34.1364   20.2265 C   0  0  1  0  0  0  0  0  0  0  0  0
   28.3023   33.4453   18.9389 C   0  0  0  0  0  0  0  0  0  0  0  0
   27.9395   35.5275   20.2625 C   0  0  0  0  0  0  0  0  0  0  0  0
   27.6150   36.1994   21.4387 C   0  0  2  0  0  0  0  0  0  0  0  0
   27.2720   38.2372   22.6521 C   0  0  2  0  0  0  0  0  0  0  0  0
   27.6038   37.5886   21.4781 N   0  0  0  0  0  0  0  0  0  0  0  0
  1  2  1  6  0  0  0
  1  3  1  0  0  0  0
  1  4  2  0  0  0  0
  1  6  1  0  0  0  0
  5  6  1  0  0  0  0
  7  5  1  6  0  0  0
  7  8  1  0  0  0  0
  7  9  1  0  0  0  0
  9 10  1  1  0  0  0
  9 11  1  0  0  0  0
 11 12  1  6  0  0  0
 11 13  1  0  0  0  0
 13 31  1  0  0  0  0
 14 15  1  0  0  0  0
 15 16  2  0  0  0  0
 15 17  1  0  0  0  0
 17 18  1  0  0  0  0
 18 20  2  0  0  0  0
 19 18  1  6  0  0  0
 19 22  1  0  0  0  0
 19 30  1  0  0  0  0
 21 23  1  1  0  0  0
 21 29  1  0  0  0  0
 21 22  1  0  0  0  0
 23 24  1  0  0  0  0
 24 25  1  6  0  0  0
 24 26  1  0  0  0  0
 26 27  1  6  0  0  0
 26 28  1  0  0  0  0
 29 28  1  1  0  0  0
 29 31  1  0  0  0  0
 30 14  1  1  0  0  0
 30 31  1  0  0  0  0
M  CHG  1   3  -1
M  END
>  <CHROM.1>
-175.67728703,-54.24616515,52.03925162,71.04243216,158.87932060,177.00019033
78.72185091,26.75628503,38.93019654,20.26421073,-2.52180058,-1.36673654,1.55167524

>  <Name>
ligand

>  <RI>
0

>  <Rbt.Current_Directory>
/home/itssahil/PROJECTS/Mol_Feturizer/New_Systems/rnas/3F2Q

>  <Rbt.Executable>
rbdock ($Id: //depot/dev/client3/rdock/2013.1/src/exe/rbdock.cxx#4 $)

>  <Rbt.Library>
libRbt.so (2013.1, Build901 2013/11/27)

>  <Rbt.Parameter_File>
/export/apps/rDock/src/rDock_2013.1_src/data/scripts/dock_solv.prm

>  <Rbt.Receptor>
prm/pocket_docking_3.prm

>  <SCORE>
-31.7226

>  <SCORE.INTER>
-27.0865

>  <SCORE.INTER.CONST>
1

>  <SCORE.INTER.POLAR>
0

>  <SCORE.INTER.ROT>
7

>  <SCORE.INTER.SOLV>
18.8464

>  <SCORE.INTER.VDW>
-32.6064

>  <SCORE.INTER.norm>
-0.873757

>  <SCORE.INTRA>
-4.63616

>  <SCORE.INTRA.DIHEDRAL>
-6.55756

>  <SCORE.INTRA.DIHEDRAL.0>
10.0718

>  <SCORE.INTRA.POLAR>
0

>  <SCORE.INTRA.POLAR.0>
0

>  <SCORE.INTRA.REPUL>
0

>  <SCORE.INTRA.REPUL.0>
0

>  <SCORE.INTRA.SOLV>
-1.28164

>  <SCORE.INTRA.SOLV.lig_0>
-48.6963

>  <SCORE.INTRA.VDW>
-0.716562

>  <SCORE.INTRA.VDW.0>
-0.836976

>  <SCORE.INTRA.norm>
-0.149554

>  <SCORE.RESTR>
0

>  <SCORE.RESTR.CAVITY>
0

>  <SCORE.RESTR.norm>
0

>  <SCORE.SYSTEM>
0

>  <SCORE.SYSTEM.CONST>
0

>  <SCORE.SYSTEM.DIHEDRAL>
0

>  <SCORE.SYSTEM.SOLV>
0

>  <SCORE.SYSTEM.norm>
0

>  <SCORE.heavy>
31

>  <SCORE.norm>
-1.02331

>  <RMSD>
4.757

$$$$
ligand
 OpenBabel11021811473D
libRbt.so/2013.1/901 2013/11/27
 31 33  0  0  0  0  0  0  0  0999 V2000
   26.2053   42.5555   16.6228 P   0  0  1  0  0  0  0  0  0  0  0  0
   24.7082   42.6631   16.4258 O   0  0  0  0  0  0  0  0  0  0  0  0
   26.6270   41.1689   16.2169 O   0  5  0  0  0  0  0  0  0  0  0  0
   26.9159   43.5682   15.7677 O   0  0  0  0  0  0  0  0  0  0  0  0
   27.8514   42.5939   18.6403 C   0  0  0  0  0  0  0  0  0  0  0  0
   26.5686   42.8914   18.1453 O   0  0  0  0  0  0  0  0  0  0  0  0
   27.7394   41.4931   19.6849 C   0  0  1  0  0  0  0  0  0  0  0  0
   26.8307   41.9087   20.6823 O   0  0  0  0  0  0  0  0  0  0  0  0
   27.2626   40.1933   19.0370 C   0  0  1  0  0  0  0  0  0  0  0  0
   28.2086   39.7654   18.0806 O   0  0  0  0  0  0  0  0  0  0  0  0
   26.9491   39.0788   20.0450 C   0  0  1  0  0  0  0  0  0  0  0  0
   26.4367   37.9514   19.3703 O   0  0  0  0  0  0  0  0  0  0  0  0
   28.1674   38.6641   20.8545 C   0  0  0  0  0  0  0  0  0  0  0  0
   27.3378   39.4069   23.4513 N   0  0  0  0  0  0  0  0  0  0  0  0
   26.8914   39.8237   24.6889 C   0  0  0  0  0  0  0  0  0  0  0  0
   26.9193   41.0211   24.9865 O   0  0  0  0  0  0  0  0  0  0  0  0
   26.4233   38.8928   25.5941 N   0  0  0  0  0  0  0  0  0  0  0  0
   26.4001   37.5502   25.2666 C   0  0  0  0  0  0  0  0  0  0  0  0
   26.8436   37.1299   24.0300 C   0  0  1  0  0  0  0  0  0  0  0  0
   25.9771   36.7114   26.0603 O   0  0  0  0  0  0  0  0  0  0  0  0
   27.2477   35.3605   22.4805 C   0  0  2  0  0  0  0  0  0  0  0  0
   26.8087   35.7846   23.7180 N   0  0  0  0  0  0  0  0  0  0  0  0
   27.2154   34.0045   22.1644 C   0  0  0  0  0  0  0  0  0  0  0  0
   27.6629   33.5657   20.9222 C   0  0  1  0  0  0  0  0  0  0  0  0
   27.6110   32.0993   20.5931 C   0  0  0  0  0  0  0  0  0  0  0  0
   28.1421   34.4944   19.9913 C   0  0  1  0  0  0  0  0  0  0  0  0
   28.6177   34.0539   18.6376 C   0  0  0  0  0  0  0  0  0  0  0  0
   28.1722   35.8486   20.3108 C   0  0  0  0  0  0  0  0  0  0  0  0
   27.7279   36.2914   21.5544 C   0  0  2  0  0  0  0  0  0  0  0  0
   27.3143   38.0635   23.1138 C   0  0  2  0  0  0  0  0  0  0  0  0
   27.7666   37.6425   21.8779 N   0  0  0  0  0  0  0  0  0  0  0  0
  1  2  1  6  0  0  0
  1  3  1  0  0  0  0
  1  4  2  0  0  0  0
  1  6  1  0  0  0  0
  5  6  1  0  0  0  0
  7  5  1  6  0  0  0
  7  8  1  0  0  0  0
  7  9  1  0  0  0  0
  9 10  1  6  0  0  0
  9 11  1  0  0  0  0
 11 12  1  6  0  0  0
 11 13  1  0  0  0  0
 13 31  1  0  0  0  0
 14 15  1  0  0  0  0
 15 16  2  0  0  0  0
 15 17  1  0  0  0  0
 17 18  1  0  0  0  0
 18 20  2  0  0  0  0
 19 18  1  6  0  0  0
 19 22  1  0  0  0  0
 19 30  1  0  0  0  0
 21 23  1  1  0  0  0
 21 29  1  0  0  0  0
 21 22  1  0  0  0  0
 23 24  1  0  0  0  0
 24 25  1  6  0  0  0
 24 26  1  0  0  0  0
 26 27  1  6  0  0  0
 26 28  1  0  0  0  0
 29 28  1  1  0  0  0
 29 31  1  0  0  0  0
 30 14  1  1  0  0  0
 30 31  1  0  0  0  0
M  CHG  1   3  -1
M  END
>  <CHROM.1>
-113.09326104,166.94923412,-55.66240061,62.21614197,176.23586651,176.18656611
86.32010939,27.08215785,38.77370368,20.65154267,-2.01007225,-1.40527920,1.98446735

>  <Name>
ligand

>  <RI>
0

>  <Rbt.Current_Directory>
/home/itssahil/PROJECTS/Mol_Feturizer/New_Systems/rnas/3F2Q

>  <Rbt.Executable>
rbdock ($Id: //depot/dev/client3/rdock/2013.1/src/exe/rbdock.cxx#4 $)

>  <Rbt.Library>
libRbt.so (2013.1, Build901 2013/11/27)

>  <Rbt.Parameter_File>
/export/apps/rDock/src/rDock_2013.1_src/data/scripts/dock_solv.prm

>  <Rbt.Receptor>
prm/pocket_docking_3.prm

>  <SCORE>
-28.8138

>  <SCORE.INTER>
-27.2587

>  <SCORE.INTER.CONST>
1

>  <SCORE.INTER.POLAR>
0

>  <SCORE.INTER.ROT>
7

>  <SCORE.INTER.SOLV>
20.475

>  <SCORE.INTER.VDW>
-33.2641

>  <SCORE.INTER.norm>
-0.879312

>  <SCORE.INTRA>
-1.55513

>  <SCORE.INTRA.DIHEDRAL>
-1.47241

>  <SCORE.INTRA.DIHEDRAL.0>
10.0718

>  <SCORE.INTRA.POLAR>
0

>  <SCORE.INTRA.POLAR.0>
0

>  <SCORE.INTRA.REPUL>
0

>  <SCORE.INTRA.REPUL.0>
0

>  <SCORE.INTRA.SOLV>
2.32377

>  <SCORE.INTRA.SOLV.lig_0>
-48.6963

>  <SCORE.INTRA.VDW>
-1.98081

>  <SCORE.INTRA.VDW.0>
-0.836976

>  <SCORE.INTRA.norm>
-0.0501655

>  <SCORE.RESTR>
0

>  <SCORE.RESTR.CAVITY>
0

>  <SCORE.RESTR.norm>
0

>  <SCORE.SYSTEM>
0

>  <SCORE.SYSTEM.CONST>
0

>  <SCORE.SYSTEM.DIHEDRAL>
0

>  <SCORE.SYSTEM.SOLV>
0

>  <SCORE.SYSTEM.norm>
0

>  <SCORE.heavy>
31

>  <SCORE.norm>
-0.929478

>  <RMSD>
4.761

$$$$
ligand
 OpenBabel11021811473D
libRbt.so/2013.1/901 2013/11/27
 31 33  0  0  0  0  0  0  0  0999 V2000
   25.7927   43.3952   16.4452 P   0  0  1  0  0  0  0  0  0  0  0  0
   24.3949   42.8784   16.7108 O   0  0  0  0  0  0  0  0  0  0  0  0
   26.2410   42.8543   15.1141 O   0  5  0  0  0  0  0  0  0  0  0  0
   25.7913   44.8985   16.4029 O   0  0  0  0  0  0  0  0  0  0  0  0
   26.6610   41.6685   18.1906 C   0  0  0  0  0  0  0  0  0  0  0  0
   26.7589   42.9619   17.6457 O   0  0  0  0  0  0  0  0  0  0  0  0
   27.6436   41.5386   19.3451 C   0  0  1  0  0  0  0  0  0  0  0  0
   27.7163   42.7782   20.0171 O   0  0  0  0  0  0  0  0  0  0  0  0
   27.1925   40.4374   20.3045 C   0  0  1  0  0  0  0  0  0  0  0  0
   25.7935   40.5050   20.4798 O   0  0  0  0  0  0  0  0  0  0  0  0
   27.6315   39.0292   19.8795 C   0  0  1  0  0  0  0  0  0  0  0  0
   28.1104   39.0554   18.5533 O   0  0  0  0  0  0  0  0  0  0  0  0
   28.7076   38.4544   20.7868 C   0  0  0  0  0  0  0  0  0  0  0  0
   27.7497   39.1130   23.3621 N   0  0  0  0  0  0  0  0  0  0  0  0
   27.2501   39.4955   24.5904 C   0  0  0  0  0  0  0  0  0  0  0  0
   27.3927   40.6569   24.9828 O   0  0  0  0  0  0  0  0  0  0  0  0
   26.5994   38.5694   25.3803 N   0  0  0  0  0  0  0  0  0  0  0  0
   26.4469   37.2657   24.9470 C   0  0  0  0  0  0  0  0  0  0  0  0
   26.9432   36.8801   23.7192 C   0  0  1  0  0  0  0  0  0  0  0  0
   25.8613   36.4329   25.6369 O   0  0  0  0  0  0  0  0  0  0  0  0
   27.2690   35.1856   22.0709 C   0  0  2  0  0  0  0  0  0  0  0  0
   26.7775   35.5743   23.3002 N   0  0  0  0  0  0  0  0  0  0  0  0
   27.1049   33.8690   21.6471 C   0  0  0  0  0  0  0  0  0  0  0  0
   27.6035   33.4650   20.4126 C   0  0  1  0  0  0  0  0  0  0  0  0
   27.4083   32.0425   19.9658 C   0  0  0  0  0  0  0  0  0  0  0  0
   28.2672   34.3893   19.5978 C   0  0  1  0  0  0  0  0  0  0  0  0
   28.8029   33.9878   18.2545 C   0  0  0  0  0  0  0  0  0  0  0  0
   28.4285   35.7041   20.0246 C   0  0  0  0  0  0  0  0  0  0  0  0
   27.9335   36.1116   21.2611 C   0  0  2  0  0  0  0  0  0  0  0  0
   27.5978   37.8094   22.9188 C   0  0  2  0  0  0  0  0  0  0  0  0
   28.1025   37.4220   21.6923 N   0  0  0  0  0  0  0  0  0  0  0  0
  1  2  1  1  0  0  0
  1  3  1  0  0  0  0
  1  4  2  0  0  0  0
  1  6  1  0  0  0  0
  5  6  1  0  0  0  0
  7  5  1  6  0  0  0
  7  8  1  0  0  0  0
  7  9  1  0  0  0  0
  9 10  1  6  0  0  0
  9 11  1  0  0  0  0
 11 12  1  6  0  0  0
 11 13  1  0  0  0  0
 13 31  1  0  0  0  0
 14 15  1  0  0  0  0
 15 16  2  0  0  0  0
 15 17  1  0  0  0  0
 17 18  1  0  0  0  0
 18 20  2  0  0  0  0
 19 18  1  6  0  0  0
 19 22  1  0  0  0  0
 19 30  1  0  0  0  0
 21 23  1  1  0  0  0
 21 29  1  0  0  0  0
 21 22  1  0  0  0  0
 23 24  1  0  0  0  0
 24 25  1  6  0  0  0
 24 26  1  0  0  0  0
 26 27  1  6  0  0  0
 26 28  1  0  0  0  0
 29 28  1  1  0  0  0
 29 31  1  0  0  0  0
 30 14  1  1  0  0  0
 30 31  1  0  0  0  0
M  CHG  1   3  -1
M  END
>  <CHROM.1>
-177.66799980,41.58217212,35.27604526,-41.01384271,-12.28883055,104.66254797
83.92597103,27.06809103,38.90559573,20.48684337,-2.39022676,-1.39295210,1.70741395

>  <Name>
ligand

>  <RI>
0

>  <Rbt.Current_Directory>
/home/itssahil/PROJECTS/Mol_Feturizer/New_Systems/rnas/3F2Q

>  <Rbt.Executable>
rbdock ($Id: //depot/dev/client3/rdock/2013.1/src/exe/rbdock.cxx#4 $)

>  <Rbt.Library>
libRbt.so (2013.1, Build901 2013/11/27)

>  <Rbt.Parameter_File>
/export/apps/rDock/src/rDock_2013.1_src/data/scripts/dock_solv.prm

>  <Rbt.Receptor>
prm/pocket_docking_2.prm

>  <SCORE>
-22.8119

>  <SCORE.INTER>
-24.4093

>  <SCORE.INTER.CONST>
1

>  <SCORE.INTER.POLAR>
0

>  <SCORE.INTER.ROT>
7

>  <SCORE.INTER.SOLV>
21.6062

>  <SCORE.INTER.VDW>
-31.7416

>  <SCORE.INTER.norm>
-0.787398

>  <SCORE.INTRA>
1.21127

>  <SCORE.INTRA.DIHEDRAL>
3.95105

>  <SCORE.INTRA.DIHEDRAL.0>
10.0718

>  <SCORE.INTRA.POLAR>
0

>  <SCORE.INTRA.POLAR.0>
0

>  <SCORE.INTRA.REPUL>
0

>  <SCORE.INTRA.REPUL.0>
0

>  <SCORE.INTRA.SOLV>
-1.55198

>  <SCORE.INTRA.SOLV.lig_0>
-48.6963

>  <SCORE.INTRA.VDW>
0.0117343

>  <SCORE.INTRA.VDW.0>
-0.836976

>  <SCORE.INTRA.norm>
0.0390732

>  <SCORE.RESTR>
0.386207

>  <SCORE.RESTR.CAVITY>
0.386207

>  <SCORE.RESTR.norm>
0.0124583

>  <SCORE.SYSTEM>
0

>  <SCORE.SYSTEM.CONST>
0

>  <SCORE.SYSTEM.DIHEDRAL>
0

>  <SCORE.SYSTEM.SOLV>
0

>  <SCORE.SYSTEM.norm>
0

>  <SCORE.heavy>
31

>  <SCORE.norm>
-0.735866

>  <RMSD>
4.784

$$$$
ligand
 OpenBabel11021811473D
libRbt.so/2013.1/901 2013/11/27
 31 33  0  0  0  0  0  0  0  0999 V2000
   26.0601   42.2355   16.9419 P   0  0  1  0  0  0  0  0  0  0  0  0
   26.9332   41.2907   16.1440 O   0  0  0  0  0  0  0  0  0  0  0  0
   25.2910   43.0881   15.9689 O   0  5  0  0  0  0  0  0  0  0  0  0
   25.0991   41.4570   17.7977 O   0  0  0  0  0  0  0  0  0  0  0  0
   28.1651   42.5500   18.4423 C   0  0  0  0  0  0  0  0  0  0  0  0
   26.9745   43.0990   17.9322 O   0  0  0  0  0  0  0  0  0  0  0  0
   27.8246   41.5654   19.5514 C   0  0  1  0  0  0  0  0  0  0  0  0
   26.7725   42.1030   20.3243 O   0  0  0  0  0  0  0  0  0  0  0  0
   27.4154   40.2177   18.9573 C   0  0  1  0  0  0  0  0  0  0  0  0
   28.4377   39.7445   18.1066 O   0  0  0  0  0  0  0  0  0  0  0  0
   27.0388   39.1665   20.0107 C   0  0  1  0  0  0  0  0  0  0  0  0
   26.5122   38.0210   19.3789 O   0  0  0  0  0  0  0  0  0  0  0  0
   28.2197   38.7593   20.8773 C   0  0  0  0  0  0  0  0  0  0  0  0
   27.3295   39.3871   23.4844 N   0  0  0  0  0  0  0  0  0  0  0  0
   26.8545   39.7494   24.7284 C   0  0  0  0  0  0  0  0  0  0  0  0
   26.8793   40.9319   25.0808 O   0  0  0  0  0  0  0  0  0  0  0  0
   26.3611   38.7805   25.5787 N   0  0  0  0  0  0  0  0  0  0  0  0
   26.3412   37.4542   25.1899 C   0  0  0  0  0  0  0  0  0  0  0  0
   26.8133   37.0885   23.9466 C   0  0  1  0  0  0  0  0  0  0  0  0
   25.8960   36.5822   25.9341 O   0  0  0  0  0  0  0  0  0  0  0  0
   27.2490   35.3895   22.3285 C   0  0  2  0  0  0  0  0  0  0  0  0
   26.7813   35.7590   23.5730 N   0  0  0  0  0  0  0  0  0  0  0  0
   27.2197   34.0494   21.9503 C   0  0  0  0  0  0  0  0  0  0  0  0
   27.6958   33.6654   20.7006 C   0  0  1  0  0  0  0  0  0  0  0  0
   27.6469   32.2157   20.3040 C   0  0  0  0  0  0  0  0  0  0  0  0
   28.2010   34.6332   19.8248 C   0  0  1  0  0  0  0  0  0  0  0  0
   28.7079   34.2524   18.4644 C   0  0  0  0  0  0  0  0  0  0  0  0
   28.2280   35.9713   20.2063 C   0  0  0  0  0  0  0  0  0  0  0  0
   27.7550   36.3593   21.4576 C   0  0  2  0  0  0  0  0  0  0  0  0
   27.3096   38.0606   23.0856 C   0  0  2  0  0  0  0  0  0  0  0  0
   27.7904   37.6940   21.8432 N   0  0  0  0  0  0  0  0  0  0  0  0
  1  2  1  6  0  0  0
  1  3  1  0  0  0  0
  1  4  2  0  0  0  0
  1  6  1  0  0  0  0
  5  6  1  0  0  0  0
  7  5  1  6  0  0  0
  7  8  1  0  0  0  0
  7  9  1  0  0  0  0
  9 10  1  1  0  0  0
  9 11  1  0  0  0  0
 11 12  1  6  0  0  0
 11 13  1  0  0  0  0
 13 31  1  0  0  0  0
 14 15  1  0  0  0  0
 15 16  2  0  0  0  0
 15 17  1  0  0  0  0
 17 18  1  0  0  0  0
 18 20  2  0  0  0  0
 19 18  1  6  0  0  0
 19 22  1  0  0  0  0
 19 30  1  0  0  0  0
 21 23  1  1  0  0  0
 21 29  1  0  0  0  0
 21 22  1  0  0  0  0
 23 24  1  0  0  0  0
 24 25  1  6  0  0  0
 24 26  1  0  0  0  0
 26 27  1  6  0  0  0
 26 28  1  0  0  0  0
 29 28  1  1  0  0  0
 29 31  1  0  0  0  0
 30 14  1  1  0  0  0
 30 31  1  0  0  0  0
M  CHG  1   3  -1
M  END
>  <CHROM.1>
-76.68345055,-30.29959995,-40.06046283,55.44266149,172.42619082,-177.76416880
83.50747422,27.08216940,38.72597197,20.64402317,-1.98192239,-1.38873444,2.01571471

>  <Name>
ligand

>  <RI>
0

>  <Rbt.Current_Directory>
/home/itssahil/PROJECTS/Mol_Feturizer/New_Systems/rnas/3F2Q

>  <Rbt.Executable>
rbdock ($Id: //depot/dev/client3/rdock/2013.1/src/exe/rbdock.cxx#4 $)

>  <Rbt.Library>
libRbt.so (2013.1, Build901 2013/11/27)

>  <Rbt.Parameter_File>
/export/apps/rDock/src/rDock_2013.1_src/data/scripts/dock_solv.prm

>  <Rbt.Receptor>
prm/pocket_docking_3.prm

>  <SCORE>
-30.5

>  <SCORE.INTER>
-28.3682

>  <SCORE.INTER.CONST>
1

>  <SCORE.INTER.POLAR>
0

>  <SCORE.INTER.ROT>
7

>  <SCORE.INTER.SOLV>
16.4994

>  <SCORE.INTER.VDW>
-32.6786

>  <SCORE.INTER.norm>
-0.915102

>  <SCORE.INTRA>
-2.13874

>  <SCORE.INTRA.DIHEDRAL>
-4.84557

>  <SCORE.INTRA.DIHEDRAL.0>
10.0718

>  <SCORE.INTRA.POLAR>
0

>  <SCORE.INTRA.POLAR.0>
0

>  <SCORE.INTRA.REPUL>
0

>  <SCORE.INTRA.REPUL.0>
0

>  <SCORE.INTRA.SOLV>
3.35939

>  <SCORE.INTRA.SOLV.lig_0>
-48.6963

>  <SCORE.INTRA.VDW>
-1.39565

>  <SCORE.INTRA.VDW.0>
-0.836976

>  <SCORE.INTRA.norm>
-0.0689917

>  <SCORE.RESTR>
0.00694045

>  <SCORE.RESTR.CAVITY>
0.00694045

>  <SCORE.RESTR.norm>
0.000223886

>  <SCORE.SYSTEM>
0

>  <SCORE.SYSTEM.CONST>
0

>  <SCORE.SYSTEM.DIHEDRAL>
0

>  <SCORE.SYSTEM.SOLV>
0

>  <SCORE.SYSTEM.norm>
0

>  <SCORE.heavy>
31

>  <SCORE.norm>
-0.98387

>  <RMSD>
4.785

$$$$
ligand
 OpenBabel11021811473D
libRbt.so/2013.1/901 2013/11/27
 31 33  0  0  0  0  0  0  0  0999 V2000
   27.6399   35.2374   14.6222 P   0  0  1  0  0  0  0  0  0  0  0  0
   28.7591   36.2452   14.7752 O   0  0  0  0  0  0  0  0  0  0  0  0
   27.3323   35.1065   13.1548 O   0  5  0  0  0  0  0  0  0  0  0  0
   28.0650   33.9022   15.1684 O   0  0  0  0  0  0  0  0  0  0  0  0
   26.4827   35.8394   16.8761 C   0  0  0  0  0  0  0  0  0  0  0  0
   26.3738   35.7119   15.4793 O   0  0  0  0  0  0  0  0  0  0  0  0
   27.2823   37.0926   17.2011 C   0  0  1  0  0  0  0  0  0  0  0  0
   26.4630   38.2207   16.9786 O   0  0  0  0  0  0  0  0  0  0  0  0
   27.7579   37.0569   18.6534 C   0  0  1  0  0  0  0  0  0  0  0  0
   28.7525   36.0664   18.8024 O   0  0  0  0  0  0  0  0  0  0  0  0
   28.2439   38.4151   19.1784 C   0  0  1  0  0  0  0  0  0  0  0  0
   27.1393   39.2518   19.4401 O   0  0  0  0  0  0  0  0  0  0  0  0
   29.0824   38.2872   20.4402 C   0  0  0  0  0  0  0  0  0  0  0  0
   28.0902   35.7951   21.3279 N   0  0  0  0  0  0  0  0  0  0  0  0
   27.6739   34.5494   21.7516 C   0  0  0  0  0  0  0  0  0  0  0  0
   27.9575   33.5445   21.0937 O   0  0  0  0  0  0  0  0  0  0  0  0
   26.9309   34.4359   22.9093 N   0  0  0  0  0  0  0  0  0  0  0  0
   26.6040   35.5610   23.6426 C   0  0  0  0  0  0  0  0  0  0  0  0
   27.0198   36.8075   23.2234 C   0  0  1  0  0  0  0  0  0  0  0  0
   25.9504   35.4732   24.6807 O   0  0  0  0  0  0  0  0  0  0  0  0
   27.1054   39.1688   23.5575 C   0  0  2  0  0  0  0  0  0  0  0  0
   26.6879   37.9205   23.9714 N   0  0  0  0  0  0  0  0  0  0  0  0
   26.7703   40.2927   24.3089 C   0  0  0  0  0  0  0  0  0  0  0  0
   27.1799   41.5567   23.8962 C   0  0  1  0  0  0  0  0  0  0  0  0
   26.8186   42.7584   24.7249 C   0  0  0  0  0  0  0  0  0  0  0  0
   27.9331   41.6922   22.7245 C   0  0  1  0  0  0  0  0  0  0  0  0
   28.4025   43.0405   22.2613 C   0  0  0  0  0  0  0  0  0  0  0  0
   28.2665   40.5667   21.9768 C   0  0  0  0  0  0  0  0  0  0  0  0
   27.8557   39.2999   22.3851 C   0  0  2  0  0  0  0  0  0  0  0  0
   27.7700   36.9273   22.0591 C   0  0  2  0  0  0  0  0  0  0  0  0
   28.1799   38.1764   21.6340 N   0  0  0  0  0  0  0  0  0  0  0  0
  1  2  1  1  0  0  0
  1  3  1  0  0  0  0
  1  4  2  0  0  0  0
  1  6  1  0  0  0  0
  5  6  1  0  0  0  0
  7  5  1  1  0  0  0
  7  8  1  0  0  0  0
  7  9  1  0  0  0  0
  9 10  1  6  0  0  0
  9 11  1  0  0  0  0
 11 12  1  1  0  0  0
 11 13  1  0  0  0  0
 13 31  1  0  0  0  0
 14 15  1  0  0  0  0
 15 16  2  0  0  0  0
 15 17  1  0  0  0  0
 17 18  1  0  0  0  0
 18 20  2  0  0  0  0
 19 18  1  1  0  0  0
 19 22  1  0  0  0  0
 19 30  1  0  0  0  0
 21 23  1  6  0  0  0
 21 29  1  0  0  0  0
 21 22  1  0  0  0  0
 23 24  1  0  0  0  0
 24 25  1  1  0  0  0
 24 26  1  0  0  0  0
 26 27  1  1  0  0  0
 26 28  1  0  0  0  0
 29 28  1  6  0  0  0
 29 31  1  0  0  0  0
 30 14  1  6  0  0  0
 30 31  1  0  0  0  0
M  CHG  1   3  -1
M  END
>  <CHROM.1>
74.43825666,-62.02983822,74.88047600,70.02233060,75.30326866,-82.58524550
-95.73596759,27.50682337,37.37282163,20.00407075,-1.26895074,1.47197239,0.78747968

>  <Name>
ligand

>  <RI>
0

>  <Rbt.Current_Directory>
/home/itssahil/PROJECTS/Mol_Feturizer/New_Systems/rnas/3F2Q

>  <Rbt.Executable>
rbdock ($Id: //depot/dev/client3/rdock/2013.1/src/exe/rbdock.cxx#4 $)

>  <Rbt.Library>
libRbt.so (2013.1, Build901 2013/11/27)

>  <Rbt.Parameter_File>
/export/apps/rDock/src/rDock_2013.1_src/data/scripts/dock_solv.prm

>  <Rbt.Receptor>
prm/pocket_docking_7.prm

>  <SCORE>
-28.7046

>  <SCORE.INTER>
-25.267

>  <SCORE.INTER.CONST>
1

>  <SCORE.INTER.POLAR>
0

>  <SCORE.INTER.ROT>
7

>  <SCORE.INTER.SOLV>
13.7802

>  <SCORE.INTER.VDW>
-29.7047

>  <SCORE.INTER.norm>
-0.815064

>  <SCORE.INTRA>
-3.43767

>  <SCORE.INTRA.DIHEDRAL>
-4.0232

>  <SCORE.INTRA.DIHEDRAL.0>
10.0718

>  <SCORE.INTRA.POLAR>
0

>  <SCORE.INTRA.POLAR.0>
0

>  <SCORE.INTRA.REPUL>
0

>  <SCORE.INTRA.REPUL.0>
0

>  <SCORE.INTRA.SOLV>
0.369325

>  <SCORE.INTRA.SOLV.lig_0>
-48.6963

>  <SCORE.INTRA.VDW>
-1.61073

>  <SCORE.INTRA.VDW.0>
-0.836976

>  <SCORE.INTRA.norm>
-0.110893

>  <SCORE.RESTR>
0

>  <SCORE.RESTR.CAVITY>
0

>  <SCORE.RESTR.norm>
0

>  <SCORE.SYSTEM>
0

>  <SCORE.SYSTEM.CONST>
0

>  <SCORE.SYSTEM.DIHEDRAL>
0

>  <SCORE.SYSTEM.SOLV>
0

>  <SCORE.SYSTEM.norm>
0

>  <SCORE.heavy>
31

>  <SCORE.norm>
-0.925956

>  <RMSD>
4.785

$$$$
ligand
 OpenBabel11021811473D
libRbt.so/2013.1/901 2013/11/27
 31 33  0  0  0  0  0  0  0  0999 V2000
   25.8635   43.3033   16.3383 P   0  0  1  0  0  0  0  0  0  0  0  0
   24.4906   42.9783   15.7897 O   0  0  0  0  0  0  0  0  0  0  0  0
   26.8674   43.0697   15.2417 O   0  5  0  0  0  0  0  0  0  0  0  0
   25.9211   44.7411   16.7755 O   0  0  0  0  0  0  0  0  0  0  0  0
   27.3931   42.4851   18.2807 C   0  0  0  0  0  0  0  0  0  0  0  0
   26.1452   42.4084   17.6354 O   0  0  0  0  0  0  0  0  0  0  0  0
   27.4253   41.4815   19.4239 C   0  0  1  0  0  0  0  0  0  0  0  0
   26.4349   41.8380   20.3650 O   0  0  0  0  0  0  0  0  0  0  0  0
   27.1762   40.0684   18.8968 C   0  0  1  0  0  0  0  0  0  0  0  0
   28.2630   39.6642   18.0918 O   0  0  0  0  0  0  0  0  0  0  0  0
   26.8886   39.0393   19.9989 C   0  0  1  0  0  0  0  0  0  0  0  0
   26.4491   37.8293   19.4229 O   0  0  0  0  0  0  0  0  0  0  0  0
   28.1026   38.7638   20.8717 C   0  0  0  0  0  0  0  0  0  0  0  0
   27.3264   39.6369   23.4444 N   0  0  0  0  0  0  0  0  0  0  0  0
   26.9050   40.1155   24.6682 C   0  0  0  0  0  0  0  0  0  0  0  0
   26.9310   41.3271   24.9020 O   0  0  0  0  0  0  0  0  0  0  0  0
   26.4641   39.2307   25.6314 N   0  0  0  0  0  0  0  0  0  0  0  0
   26.4432   37.8726   25.3753 C   0  0  0  0  0  0  0  0  0  0  0  0
   26.8617   37.3905   24.1526 C   0  0  1  0  0  0  0  0  0  0  0  0
   26.0442   37.0740   26.2213 O   0  0  0  0  0  0  0  0  0  0  0  0
   27.2436   35.5447   22.6891 C   0  0  2  0  0  0  0  0  0  0  0  0
   26.8295   36.0306   23.9124 N   0  0  0  0  0  0  0  0  0  0  0  0
   27.2139   34.1738   22.4453 C   0  0  0  0  0  0  0  0  0  0  0  0
   27.6365   33.6731   21.2178 C   0  0  1  0  0  0  0  0  0  0  0  0
   27.5878   32.1911   20.9673 C   0  0  0  0  0  0  0  0  0  0  0  0
   28.0879   34.5544   20.2289 C   0  0  1  0  0  0  0  0  0  0  0  0
   28.5360   34.0463   18.8896 C   0  0  0  0  0  0  0  0  0  0  0  0
   28.1154   35.9237   20.4762 C   0  0  0  0  0  0  0  0  0  0  0  0
   27.6961   36.4286   21.7048 C   0  0  2  0  0  0  0  0  0  0  0  0
   27.3050   38.2775   23.1782 C   0  0  2  0  0  0  0  0  0  0  0  0
   27.7323   37.7949   21.9561 N   0  0  0  0  0  0  0  0  0  0  0  0
  1  2  1  6  0  0  0
  1  3  1  0  0  0  0
  1  4  2  0  0  0  0
  1  6  1  0  0  0  0
  5  6  1  0  0  0  0
  7  5  1  6  0  0  0
  7  8  1  0  0  0  0
  7  9  1  0  0  0  0
  9 10  1  1  0  0  0
  9 11  1  0  0  0  0
 11 12  1  6  0  0  0
 11 13  1  0  0  0  0
 13 31  1  0  0  0  0
 14 15  1  0  0  0  0
 15 16  2  0  0  0  0
 15 17  1  0  0  0  0
 17 18  1  0  0  0  0
 18 20  2  0  0  0  0
 19 18  1  6  0  0  0
 19 22  1  0  0  0  0
 19 30  1  0  0  0  0
 21 23  1  1  0  0  0
 21 29  1  0  0  0  0
 21 22  1  0  0  0  0
 23 24  1  0  0  0  0
 24 25  1  6  0  0  0
 24 26  1  0  0  0  0
 26 27  1  6  0  0  0
 26 28  1  0  0  0  0
 29 28  1  1  0  0  0
 29 31  1  0  0  0  0
 30 14  1  1  0  0  0
 30 31  1  0  0  0  0
M  CHG  1   3  -1
M  END
>  <CHROM.1>
-176.68933920,176.66889460,-62.94798376,67.36407058,170.01764985,177.71439294
81.66583223,26.96409786,39.01888777,20.63583027,-2.18785977,-1.37995022,1.81055935

>  <Name>
ligand

>  <RI>
0

>  <Rbt.Current_Directory>
/home/itssahil/PROJECTS/Mol_Feturizer/New_Systems/rnas/3F2Q

>  <Rbt.Executable>
rbdock ($Id: //depot/dev/client3/rdock/2013.1/src/exe/rbdock.cxx#4 $)

>  <Rbt.Library>
libRbt.so (2013.1, Build901 2013/11/27)

>  <Rbt.Parameter_File>
/export/apps/rDock/src/rDock_2013.1_src/data/scripts/dock_solv.prm

>  <Rbt.Receptor>
prm/pocket_docking_8.prm

>  <SCORE>
-32.662

>  <SCORE.INTER>
-27.0709

>  <SCORE.INTER.CONST>
1

>  <SCORE.INTER.POLAR>
0

>  <SCORE.INTER.ROT>
7

>  <SCORE.INTER.SOLV>
21.136

>  <SCORE.INTER.VDW>
-33.3593

>  <SCORE.INTER.norm>
-0.873255

>  <SCORE.INTRA>
-5.59107

>  <SCORE.INTRA.DIHEDRAL>
-8.20833

>  <SCORE.INTRA.DIHEDRAL.0>
10.0718

>  <SCORE.INTRA.POLAR>
0

>  <SCORE.INTRA.POLAR.0>
0

>  <SCORE.INTRA.REPUL>
0

>  <SCORE.INTRA.REPUL.0>
0

>  <SCORE.INTRA.SOLV>
-0.623936

>  <SCORE.INTRA.SOLV.lig_0>
-48.6963

>  <SCORE.INTRA.VDW>
-1.17494

>  <SCORE.INTRA.VDW.0>
-0.836976

>  <SCORE.INTRA.norm>
-0.180357

>  <SCORE.RESTR>
0

>  <SCORE.RESTR.CAVITY>
0

>  <SCORE.RESTR.norm>
0

>  <SCORE.SYSTEM>
0

>  <SCORE.SYSTEM.CONST>
0

>  <SCORE.SYSTEM.DIHEDRAL>
0

>  <SCORE.SYSTEM.SOLV>
0

>  <SCORE.SYSTEM.norm>
0

>  <SCORE.heavy>
31

>  <SCORE.norm>
-1.05361

>  <RMSD>
4.787

$$$$
ligand
 OpenBabel11021811473D
libRbt.so/2013.1/901 2013/11/27
 31 33  0  0  0  0  0  0  0  0999 V2000
   27.6998   35.5974   14.5778 P   0  0  1  0  0  0  0  0  0  0  0  0
   29.0399   35.9132   13.9485 O   0  0  0  0  0  0  0  0  0  0  0  0
   26.6241   36.0926   13.6489 O   0  5  0  0  0  0  0  0  0  0  0  0
   27.5536   34.1131   14.7713 O   0  0  0  0  0  0  0  0  0  0  0  0
   26.3669   36.5554   16.5995 C   0  0  0  0  0  0  0  0  0  0  0  0
   27.6205   36.2683   16.0291 O   0  0  0  0  0  0  0  0  0  0  0  0
   26.5719   37.0932   18.0081 C   0  0  1  0  0  0  0  0  0  0  0  0
   27.1869   36.0903   18.7887 O   0  0  0  0  0  0  0  0  0  0  0  0
   27.4403   38.3508   17.9748 C   0  0  1  0  0  0  0  0  0  0  0  0
   26.9143   39.2655   17.0372 O   0  0  0  0  0  0  0  0  0  0  0  0
   27.6270   39.0096   19.3487 C   0  0  1  0  0  0  0  0  0  0  0  0
   26.3694   39.3032   19.9153 O   0  0  0  0  0  0  0  0  0  0  0  0
   28.4163   38.1374   20.3119 C   0  0  0  0  0  0  0  0  0  0  0  0
   27.3943   35.8085   21.5428 N   0  0  0  0  0  0  0  0  0  0  0  0
   26.9569   34.6350   22.1224 C   0  0  0  0  0  0  0  0  0  0  0  0
   27.0001   33.5771   21.4882 O   0  0  0  0  0  0  0  0  0  0  0  0
   26.4622   34.6537   23.4108 N   0  0  0  0  0  0  0  0  0  0  0  0
   26.4039   35.8390   24.1195 C   0  0  0  0  0  0  0  0  0  0  0  0
   26.8419   37.0136   23.5443 C   0  0  1  0  0  0  0  0  0  0  0  0
   25.9739   35.8683   25.2714 O   0  0  0  0  0  0  0  0  0  0  0  0
   27.2215   39.3646   23.6987 C   0  0  2  0  0  0  0  0  0  0  0  0
   26.7806   38.1880   24.2691 N   0  0  0  0  0  0  0  0  0  0  0  0
   27.1588   40.5503   24.4267 C   0  0  0  0  0  0  0  0  0  0  0  0
   27.5937   41.7432   23.8580 C   0  0  1  0  0  0  0  0  0  0  0  0
   27.5290   43.0125   24.6618 C   0  0  0  0  0  0  0  0  0  0  0  0
   28.0976   41.7446   22.5523 C   0  0  1  0  0  0  0  0  0  0  0  0
   28.5884   43.0126   21.9167 C   0  0  0  0  0  0  0  0  0  0  0  0
   28.1592   40.5576   21.8284 C   0  0  0  0  0  0  0  0  0  0  0  0
   27.7219   39.3618   22.3932 C   0  0  2  0  0  0  0  0  0  0  0  0
   27.3428   37.0000   22.2476 C   0  0  2  0  0  0  0  0  0  0  0  0
   27.7741   38.1776   21.6676 N   0  0  0  0  0  0  0  0  0  0  0  0
  1  2  1  6  0  0  0
  1  3  1  0  0  0  0
  1  4  2  0  0  0  0
  1  6  1  0  0  0  0
  5  6  1  0  0  0  0
  7  5  1  6  0  0  0
  7  8  1  0  0  0  0
  7  9  1  0  0  0  0
  9 10  1  6  0  0  0
  9 11  1  0  0  0  0
 11 12  1  1  0  0  0
 11 13  1  0  0  0  0
 13 31  1  0  0  0  0
 14 15  1  0  0  0  0
 15 16  2  0  0  0  0
 15 17  1  0  0  0  0
 17 18  1  0  0  0  0
 18 20  2  0  0  0  0
 19 18  1  1  0  0  0
 19 22  1  0  0  0  0
 19 30  1  0  0  0  0
 21 23  1  6  0  0  0
 21 29  1  0  0  0  0
 21 22  1  0  0  0  0
 23 24  1  0  0  0  0
 24 25  1  1  0  0  0
 24 26  1  0  0  0  0
 26 27  1  1  0  0  0
 26 28  1  0  0  0  0
 29 28  1  6  0  0  0
 29 31  1  0  0  0  0
 30 14  1  6  0  0  0
 30 31  1  0  0  0  0
M  CHG  1   3  -1
M  END
>  <CHROM.1>
176.08901538,156.30812174,-62.49551004,51.26436461,-56.00732067,-137.29738234
-64.53164509,27.31478812,37.63661973,20.09727365,-1.44513556,1.39613071,1.03649880

>  <Name>
ligand

>  <RI>
0

>  <Rbt.Current_Directory>
/home/itssahil/PROJECTS/Mol_Feturizer/New_Systems/rnas/3F2Q

>  <Rbt.Executable>
rbdock ($Id: //depot/dev/client3/rdock/2013.1/src/exe/rbdock.cxx#4 $)

>  <Rbt.Library>
libRbt.so (2013.1, Build901 2013/11/27)

>  <Rbt.Parameter_File>
/export/apps/rDock/src/rDock_2013.1_src/data/scripts/dock_solv.prm

>  <Rbt.Receptor>
prm/blind_docking_100.prm

>  <SCORE>
-26.9308

>  <SCORE.INTER>
-25.0394

>  <SCORE.INTER.CONST>
1

>  <SCORE.INTER.POLAR>
0

>  <SCORE.INTER.ROT>
7

>  <SCORE.INTER.SOLV>
17.1821

>  <SCORE.INTER.VDW>
-30.687

>  <SCORE.INTER.norm>
-0.807723

>  <SCORE.INTRA>
-1.8914

>  <SCORE.INTRA.DIHEDRAL>
-3.24602

>  <SCORE.INTRA.DIHEDRAL.0>
10.0718

>  <SCORE.INTRA.POLAR>
0

>  <SCORE.INTRA.POLAR.0>
0

>  <SCORE.INTRA.REPUL>
0

>  <SCORE.INTRA.REPUL.0>
0

>  <SCORE.INTRA.SOLV>
0.0285541

>  <SCORE.INTRA.SOLV.lig_0>
-48.6963

>  <SCORE.INTRA.VDW>
-0.282671

>  <SCORE.INTRA.VDW.0>
-0.836976

>  <SCORE.INTRA.norm>
-0.061013

>  <SCORE.RESTR>
0

>  <SCORE.RESTR.CAVITY>
0

>  <SCORE.RESTR.norm>
0

>  <SCORE.SYSTEM>
0

>  <SCORE.SYSTEM.CONST>
0

>  <SCORE.SYSTEM.DIHEDRAL>
0

>  <SCORE.SYSTEM.SOLV>
0

>  <SCORE.SYSTEM.norm>
0

>  <SCORE.heavy>
31

>  <SCORE.norm>
-0.868736

>  <RMSD>
4.788

$$$$
ligand
 OpenBabel11021811473D
libRbt.so/2013.1/901 2013/11/27
 31 33  0  0  0  0  0  0  0  0999 V2000
   25.8207   43.4000   16.4488 P   0  0  1  0  0  0  0  0  0  0  0  0
   24.4645   43.0430   15.8788 O   0  0  0  0  0  0  0  0  0  0  0  0
   26.8419   43.2263   15.3571 O   0  5  0  0  0  0  0  0  0  0  0  0
   25.8263   44.8280   16.9206 O   0  0  0  0  0  0  0  0  0  0  0  0
   27.3828   42.5370   18.3453 C   0  0  0  0  0  0  0  0  0  0  0  0
   26.1202   42.4840   17.7270 O   0  0  0  0  0  0  0  0  0  0  0  0
   27.4367   41.5001   19.4576 C   0  0  1  0  0  0  0  0  0  0  0  0
   26.4799   41.8406   20.4385 O   0  0  0  0  0  0  0  0  0  0  0  0
   27.1538   40.1061   18.8978 C   0  0  1  0  0  0  0  0  0  0  0  0
   28.2168   39.7072   18.0592 O   0  0  0  0  0  0  0  0  0  0  0  0
   26.8725   39.0517   19.9774 C   0  0  1  0  0  0  0  0  0  0  0  0
   26.4778   37.8399   19.3737 O   0  0  0  0  0  0  0  0  0  0  0  0
   28.0761   38.7948   20.8702 C   0  0  0  0  0  0  0  0  0  0  0  0
   27.2607   39.6458   23.4382 N   0  0  0  0  0  0  0  0  0  0  0  0
   26.8199   40.1132   24.6595 C   0  0  0  0  0  0  0  0  0  0  0  0
   26.8295   41.3237   24.8997 O   0  0  0  0  0  0  0  0  0  0  0  0
   26.3780   39.2184   25.6131 N   0  0  0  0  0  0  0  0  0  0  0  0
   26.3753   37.8615   25.3498 C   0  0  0  0  0  0  0  0  0  0  0  0
   26.8133   37.3906   24.1296 C   0  0  1  0  0  0  0  0  0  0  0  0
   25.9758   37.0542   26.1871 O   0  0  0  0  0  0  0  0  0  0  0  0
   27.2327   35.5569   22.6613 C   0  0  2  0  0  0  0  0  0  0  0  0
   26.7992   36.0317   23.8821 N   0  0  0  0  0  0  0  0  0  0  0  0
   27.2214   34.1870   22.4101 C   0  0  0  0  0  0  0  0  0  0  0  0
   27.6636   33.6974   21.1851 C   0  0  1  0  0  0  0  0  0  0  0  0
   27.6345   32.2163   20.9265 C   0  0  0  0  0  0  0  0  0  0  0  0
   28.1164   34.5889   20.2059 C   0  0  1  0  0  0  0  0  0  0  0  0
   28.5855   34.0928   18.8693 C   0  0  0  0  0  0  0  0  0  0  0  0
   28.1256   35.9571   20.4605 C   0  0  0  0  0  0  0  0  0  0  0  0
   27.6865   36.4509   21.6867 C   0  0  2  0  0  0  0  0  0  0  0  0
   27.2577   38.2876   23.1650 C   0  0  2  0  0  0  0  0  0  0  0  0
   27.7044   37.8162   21.9454 N   0  0  0  0  0  0  0  0  0  0  0  0
  1  2  1  6  0  0  0
  1  3  1  0  0  0  0
  1  4  2  0  0  0  0
  1  6  1  0  0  0  0
  5  6  1  0  0  0  0
  7  5  1  6  0  0  0
  7  8  1  0  0  0  0
  7  9  1  0  0  0  0
  9 10  1  1  0  0  0
  9 11  1  0  0  0  0
 11 12  1  6  0  0  0
 11 13  1  0  0  0  0
 13 31  1  0  0  0  0
 14 15  1  0  0  0  0
 15 16  2  0  0  0  0
 15 17  1  0  0  0  0
 17 18  1  0  0  0  0
 18 20  2  0  0  0  0
 19 18  1  6  0  0  0
 19 22  1  0  0  0  0
 19 30  1  0  0  0  0
 21 23  1  1  0  0  0
 21 29  1  0  0  0  0
 21 22  1  0  0  0  0
 23 24  1  0  0  0  0
 24 25  1  6  0  0  0
 24 26  1  0  0  0  0
 26 27  1  6  0  0  0
 26 28  1  0  0  0  0
 29 28  1  1  0  0  0
 29 31  1  0  0  0  0
 30 14  1  1  0  0  0
 30 31  1  0  0  0  0
M  CHG  1   3  -1
M  END
>  <CHROM.1>
-175.68416039,173.44827655,-63.58550547,67.94635750,173.49145970,176.77154574
81.16381202,26.93941039,39.05170342,20.64991155,-2.15577208,-1.36603008,1.86378593

>  <Name>
ligand

>  <RI>
0

>  <Rbt.Current_Directory>
/home/itssahil/PROJECTS/Mol_Feturizer/New_Systems/rnas/3F2Q

>  <Rbt.Executable>
rbdock ($Id: //depot/dev/client3/rdock/2013.1/src/exe/rbdock.cxx#4 $)

>  <Rbt.Library>
libRbt.so (2013.1, Build901 2013/11/27)

>  <Rbt.Parameter_File>
/export/apps/rDock/src/rDock_2013.1_src/data/scripts/dock_solv.prm

>  <Rbt.Receptor>
prm/pocket_docking_6.prm

>  <SCORE>
-32.7103

>  <SCORE.INTER>
-27.1124

>  <SCORE.INTER.CONST>
1

>  <SCORE.INTER.POLAR>
0

>  <SCORE.INTER.ROT>
7

>  <SCORE.INTER.SOLV>
21.144

>  <SCORE.INTER.VDW>
-33.3896

>  <SCORE.INTER.norm>
-0.874594

>  <SCORE.INTRA>
-5.59784

>  <SCORE.INTRA.DIHEDRAL>
-8.25829

>  <SCORE.INTRA.DIHEDRAL.0>
10.0718

>  <SCORE.INTRA.POLAR>
0

>  <SCORE.INTRA.POLAR.0>
0

>  <SCORE.INTRA.REPUL>
0

>  <SCORE.INTRA.REPUL.0>
0

>  <SCORE.INTRA.SOLV>
-0.607155

>  <SCORE.INTRA.SOLV.lig_0>
-48.6963

>  <SCORE.INTRA.VDW>
-1.16512

>  <SCORE.INTRA.VDW.0>
-0.836976

>  <SCORE.INTRA.norm>
-0.180576

>  <SCORE.RESTR>
0

>  <SCORE.RESTR.CAVITY>
0

>  <SCORE.RESTR.norm>
0

>  <SCORE.SYSTEM>
0

>  <SCORE.SYSTEM.CONST>
0

>  <SCORE.SYSTEM.DIHEDRAL>
0

>  <SCORE.SYSTEM.SOLV>
0

>  <SCORE.SYSTEM.norm>
0

>  <SCORE.heavy>
31

>  <SCORE.norm>
-1.05517

>  <RMSD>
4.788

$$$$
ligand
 OpenBabel11021811473D
libRbt.so/2013.1/901 2013/11/27
 31 33  0  0  0  0  0  0  0  0999 V2000
   26.0736   42.9901   16.6570 P   0  0  1  0  0  0  0  0  0  0  0  0
   26.3303   41.6178   16.0716 O   0  0  0  0  0  0  0  0  0  0  0  0
   27.1985   43.8937   16.2288 O   0  5  0  0  0  0  0  0  0  0  0  0
   24.7680   43.5360   16.1479 O   0  0  0  0  0  0  0  0  0  0  0  0
   26.9598   42.2441   18.9893 C   0  0  0  0  0  0  0  0  0  0  0  0
   25.9442   42.8756   18.2484 O   0  0  0  0  0  0  0  0  0  0  0  0
   26.6127   42.3123   20.4693 C   0  0  1  0  0  0  0  0  0  0  0  0
   25.3128   41.7925   20.6520 O   0  0  0  0  0  0  0  0  0  0  0  0
   27.6265   41.5147   21.2895 C   0  0  1  0  0  0  0  0  0  0  0  0
   27.4874   41.8355   22.6570 O   0  0  0  0  0  0  0  0  0  0  0  0
   27.5478   39.9983   21.0641 C   0  0  1  0  0  0  0  0  0  0  0  0
   27.7931   39.7012   19.7075 O   0  0  0  0  0  0  0  0  0  0  0  0
   28.5325   39.2277   21.9290 C   0  0  0  0  0  0  0  0  0  0  0  0
   27.1292   38.1665   24.1400 N   0  0  0  0  0  0  0  0  0  0  0  0
   26.4005   37.7091   25.2190 C   0  0  0  0  0  0  0  0  0  0  0  0
   26.1736   38.4561   26.1748 O   0  0  0  0  0  0  0  0  0  0  0  0
   25.9361   36.4093   25.2265 N   0  0  0  0  0  0  0  0  0  0  0  0
   26.1972   35.5680   24.1614 C   0  0  0  0  0  0  0  0  0  0  0  0
   26.9235   36.0221   23.0803 C   0  0  1  0  0  0  0  0  0  0  0  0
   25.7817   34.4105   24.1513 O   0  0  0  0  0  0  0  0  0  0  0  0
   27.8937   35.6204   20.9374 C   0  0  2  0  0  0  0  0  0  0  0  0
   27.1709   35.1688   22.0226 N   0  0  0  0  0  0  0  0  0  0  0  0
   28.1462   34.7614   19.8706 C   0  0  0  0  0  0  0  0  0  0  0  0
   28.8804   35.2047   18.7751 C   0  0  1  0  0  0  0  0  0  0  0  0
   29.1347   34.2674   17.6270 C   0  0  0  0  0  0  0  0  0  0  0  0
   29.3607   36.5190   18.7495 C   0  0  1  0  0  0  0  0  0  0  0  0
   30.1428   37.0312   17.5754 C   0  0  0  0  0  0  0  0  0  0  0  0
   29.1057   37.3745   19.8172 C   0  0  0  0  0  0  0  0  0  0  0  0
   28.3736   36.9335   20.9170 C   0  0  2  0  0  0  0  0  0  0  0  0
   27.3920   37.3309   23.0667 C   0  0  2  0  0  0  0  0  0  0  0  0
   28.1268   37.7842   21.9880 N   0  0  0  0  0  0  0  0  0  0  0  0
  1  2  1  6  0  0  0
  1  3  1  0  0  0  0
  1  4  2  0  0  0  0
  1  6  1  0  0  0  0
  5  6  1  0  0  0  0
  7  5  1  6  0  0  0
  7  8  1  0  0  0  0
  7  9  1  0  0  0  0
  9 10  1  1  0  0  0
  9 11  1  0  0  0  0
 11 12  1  6  0  0  0
 11 13  1  0  0  0  0
 13 31  1  0  0  0  0
 14 15  1  0  0  0  0
 15 16  2  0  0  0  0
 15 17  1  0  0  0  0
 17 18  1  0  0  0  0
 18 20  2  0  0  0  0
 19 18  1  6  0  0  0
 19 22  1  0  0  0  0
 19 30  1  0  0  0  0
 21 23  1  1  0  0  0
 21 29  1  0  0  0  0
 21 22  1  0  0  0  0
 23 24  1  0  0  0  0
 24 25  1  6  0  0  0
 24 26  1  0  0  0  0
 26 27  1  6  0  0  0
 26 28  1  0  0  0  0
 29 28  1  1  0  0  0
 29 31  1  0  0  0  0
 30 14  1  1  0  0  0
 30 31  1  0  0  0  0
M  CHG  1   3  -1
M  END
>  <CHROM.1>
178.15377332,53.07541308,53.24619259,166.34103601,60.18086785,162.50115088
76.87064688,27.20461570,38.98185121,20.52921616,-1.80684979,-1.17273599,2.20872431

>  <Name>
ligand

>  <RI>
0

>  <Rbt.Current_Directory>
/home/itssahil/PROJECTS/Mol_Feturizer/New_Systems/rnas/3F2Q

>  <Rbt.Executable>
rbdock ($Id: //depot/dev/client3/rdock/2013.1/src/exe/rbdock.cxx#4 $)

>  <Rbt.Library>
libRbt.so (2013.1, Build901 2013/11/27)

>  <Rbt.Parameter_File>
/export/apps/rDock/src/rDock_2013.1_src/data/scripts/dock_solv.prm

>  <Rbt.Receptor>
prm/pocket_docking_6.prm

>  <SCORE>
-30.1933

>  <SCORE.INTER>
-25.8013

>  <SCORE.INTER.CONST>
1

>  <SCORE.INTER.POLAR>
0

>  <SCORE.INTER.ROT>
7

>  <SCORE.INTER.SOLV>
18.5229

>  <SCORE.INTER.VDW>
-31.6418

>  <SCORE.INTER.norm>
-0.832299

>  <SCORE.INTRA>
-4.39205

>  <SCORE.INTRA.DIHEDRAL>
-6.9555

>  <SCORE.INTRA.DIHEDRAL.0>
10.0718

>  <SCORE.INTRA.POLAR>
0

>  <SCORE.INTRA.POLAR.0>
0

>  <SCORE.INTRA.REPUL>
0

>  <SCORE.INTRA.REPUL.0>
0

>  <SCORE.INTRA.SOLV>
-1.12537

>  <SCORE.INTRA.SOLV.lig_0>
-48.6963

>  <SCORE.INTRA.VDW>
-0.351617

>  <SCORE.INTRA.VDW.0>
-0.836976

>  <SCORE.INTRA.norm>
-0.141679

>  <SCORE.RESTR>
0

>  <SCORE.RESTR.CAVITY>
0

>  <SCORE.RESTR.norm>
0

>  <SCORE.SYSTEM>
0

>  <SCORE.SYSTEM.CONST>
0

>  <SCORE.SYSTEM.DIHEDRAL>
0

>  <SCORE.SYSTEM.SOLV>
0

>  <SCORE.SYSTEM.norm>
0

>  <SCORE.heavy>
31

>  <SCORE.norm>
-0.973978

>  <RMSD>
4.796

$$$$
ligand
 OpenBabel11021811473D
libRbt.so/2013.1/901 2013/11/27
 31 33  0  0  0  0  0  0  0  0999 V2000
   25.0893   43.7328   16.7808 P   0  0  1  0  0  0  0  0  0  0  0  0
   24.6220   42.9655   15.5624 O   0  0  0  0  0  0  0  0  0  0  0  0
   25.6294   45.0579   16.3142 O   0  5  0  0  0  0  0  0  0  0  0  0
   23.9396   43.9616   17.7230 O   0  0  0  0  0  0  0  0  0  0  0  0
   26.2674   41.4802   17.3458 C   0  0  0  0  0  0  0  0  0  0  0  0
   26.1774   42.8658   17.5724 O   0  0  0  0  0  0  0  0  0  0  0  0
   27.2417   40.8742   18.3453 C   0  0  1  0  0  0  0  0  0  0  0  0
   26.9495   41.3872   19.6278 O   0  0  0  0  0  0  0  0  0  0  0  0
   27.1264   39.3499   18.3414 C   0  0  1  0  0  0  0  0  0  0  0  0
   28.3179   38.7856   17.8372 O   0  0  0  0  0  0  0  0  0  0  0  0
   26.7651   38.7538   19.7091 C   0  0  1  0  0  0  0  0  0  0  0  0
   26.2582   37.4481   19.5449 O   0  0  0  0  0  0  0  0  0  0  0  0
   27.9510   38.7123   20.6596 C   0  0  0  0  0  0  0  0  0  0  0  0
   27.2277   39.6019   23.2420 N   0  0  0  0  0  0  0  0  0  0  0  0
   26.8286   40.0858   24.4713 C   0  0  0  0  0  0  0  0  0  0  0  0
   26.8050   41.3019   24.6805 O   0  0  0  0  0  0  0  0  0  0  0  0
   26.4657   39.2016   25.4671 N   0  0  0  0  0  0  0  0  0  0  0  0
   26.5005   37.8389   25.2382 C   0  0  0  0  0  0  0  0  0  0  0  0
   26.8970   37.3515   24.0103 C   0  0  1  0  0  0  0  0  0  0  0  0
   26.1711   37.0405   26.1137 O   0  0  0  0  0  0  0  0  0  0  0  0
   27.3134   35.4953   22.5695 C   0  0  2  0  0  0  0  0  0  0  0  0
   26.9211   35.9868   23.7977 N   0  0  0  0  0  0  0  0  0  0  0  0
   27.3404   34.1197   22.3534 C   0  0  0  0  0  0  0  0  0  0  0  0
   27.7417   33.6137   21.1210 C   0  0  1  0  0  0  0  0  0  0  0  0
   27.7548   32.1261   20.9011 C   0  0  0  0  0  0  0  0  0  0  0  0
   28.1143   34.4943   20.0991 C   0  0  1  0  0  0  0  0  0  0  0  0
   28.5373   33.9798   18.7541 C   0  0  0  0  0  0  0  0  0  0  0  0
   28.0853   35.8683   20.3188 C   0  0  0  0  0  0  0  0  0  0  0  0
   27.6871   36.3786   21.5521 C   0  0  2  0  0  0  0  0  0  0  0  0
   27.2617   38.2377   23.0032 C   0  0  2  0  0  0  0  0  0  0  0  0
   27.6670   37.7502   21.7755 N   0  0  0  0  0  0  0  0  0  0  0  0
  1  2  1  6  0  0  0
  1  3  1  0  0  0  0
  1  4  2  0  0  0  0
  1  6  1  0  0  0  0
  5  6  1  0  0  0  0
  7  5  1  6  0  0  0
  7  8  1  0  0  0  0
  7  9  1  0  0  0  0
  9 10  1  1  0  0  0
  9 11  1  0  0  0  0
 11 12  1  6  0  0  0
 11 13  1  0  0  0  0
 13 31  1  0  0  0  0
 14 15  1  0  0  0  0
 15 16  2  0  0  0  0
 15 17  1  0  0  0  0
 17 18  1  0  0  0  0
 18 20  2  0  0  0  0
 19 18  1  6  0  0  0
 19 22  1  0  0  0  0
 19 30  1  0  0  0  0
 21 23  1  1  0  0  0
 21 29  1  0  0  0  0
 21 22  1  0  0  0  0
 23 24  1  0  0  0  0
 24 25  1  6  0  0  0
 24 26  1  0  0  0  0
 26 27  1  6  0  0  0
 26 28  1  0  0  0  0
 29 28  1  1  0  0  0
 29 31  1  0  0  0  0
 30 14  1  1  0  0  0
 30 31  1  0  0  0  0
M  CHG  1   3  -1
M  END
>  <CHROM.1>
-172.60882368,-18.69098985,46.00257526,113.23307646,160.96017135,-162.01800501
73.27037181,26.77520174,38.94278408,20.52864874,2.41572093,1.30779649,-1.47762593

>  <Name>
ligand

>  <RI>
0

>  <Rbt.Current_Directory>
/home/itssahil/PROJECTS/Mol_Feturizer/New_Systems/rnas/3F2Q

>  <Rbt.Executable>
rbdock ($Id: //depot/dev/client3/rdock/2013.1/src/exe/rbdock.cxx#4 $)

>  <Rbt.Library>
libRbt.so (2013.1, Build901 2013/11/27)

>  <Rbt.Parameter_File>
/export/apps/rDock/src/rDock_2013.1_src/data/scripts/dock_solv.prm

>  <Rbt.Receptor>
prm/pocket_docking_4.prm

>  <SCORE>
-24.2549

>  <SCORE.INTER>
-25.5018

>  <SCORE.INTER.CONST>
1

>  <SCORE.INTER.POLAR>
0

>  <SCORE.INTER.ROT>
7

>  <SCORE.INTER.SOLV>
17.909

>  <SCORE.INTER.VDW>
-31.2375

>  <SCORE.INTER.norm>
-0.822638

>  <SCORE.INTRA>
1.24693

>  <SCORE.INTRA.DIHEDRAL>
1.34912

>  <SCORE.INTRA.DIHEDRAL.0>
10.0718

>  <SCORE.INTRA.POLAR>
0

>  <SCORE.INTRA.POLAR.0>
0

>  <SCORE.INTRA.REPUL>
0

>  <SCORE.INTRA.REPUL.0>
0

>  <SCORE.INTRA.SOLV>
-1.20237

>  <SCORE.INTRA.SOLV.lig_0>
-48.6963

>  <SCORE.INTRA.VDW>
1.17355

>  <SCORE.INTRA.VDW.0>
-0.836976

>  <SCORE.INTRA.norm>
0.0402236

>  <SCORE.RESTR>
0

>  <SCORE.RESTR.CAVITY>
0

>  <SCORE.RESTR.norm>
0

>  <SCORE.SYSTEM>
0

>  <SCORE.SYSTEM.CONST>
0

>  <SCORE.SYSTEM.DIHEDRAL>
0

>  <SCORE.SYSTEM.SOLV>
0

>  <SCORE.SYSTEM.norm>
0

>  <SCORE.heavy>
31

>  <SCORE.norm>
-0.782415

>  <RMSD>
4.801

$$$$
ligand
 OpenBabel11021811473D
libRbt.so/2013.1/901 2013/11/27
 31 33  0  0  0  0  0  0  0  0999 V2000
   25.5933   43.5642   16.3742 P   0  0  1  0  0  0  0  0  0  0  0  0
   26.4621   44.5981   17.0580 O   0  0  0  0  0  0  0  0  0  0  0  0
   24.1566   43.9754   16.5532 O   0  5  0  0  0  0  0  0  0  0  0  0
   25.9193   43.4999   14.9074 O   0  0  0  0  0  0  0  0  0  0  0  0
   27.2147   41.6099   16.9516 C   0  0  0  0  0  0  0  0  0  0  0  0
   25.9032   42.1178   16.9861 O   0  0  0  0  0  0  0  0  0  0  0  0
   27.2672   40.3116   17.7434 C   0  0  1  0  0  0  0  0  0  0  0  0
   28.4204   39.5943   17.3575 O   0  0  0  0  0  0  0  0  0  0  0  0
   27.2990   40.6057   19.2432 C   0  0  1  0  0  0  0  0  0  0  0  0
   26.4007   41.6533   19.5401 O   0  0  0  0  0  0  0  0  0  0  0  0
   27.0268   39.3756   20.1202 C   0  0  1  0  0  0  0  0  0  0  0  0
   26.2307   38.4497   19.4147 O   0  0  0  0  0  0  0  0  0  0  0  0
   28.3046   38.6890   20.5757 C   0  0  0  0  0  0  0  0  0  0  0  0
   27.4954   39.2185   23.2305 N   0  0  0  0  0  0  0  0  0  0  0  0
   27.0561   39.5314   24.5008 C   0  0  0  0  0  0  0  0  0  0  0  0
   27.0392   40.7061   24.8787 O   0  0  0  0  0  0  0  0  0  0  0  0
   26.6455   38.5222   25.3482 N   0  0  0  0  0  0  0  0  0  0  0  0
   26.6726   37.2049   24.9304 C   0  0  0  0  0  0  0  0  0  0  0  0
   27.1092   36.8884   23.6609 C   0  0  1  0  0  0  0  0  0  0  0  0
   26.3010   36.2969   25.6721 O   0  0  0  0  0  0  0  0  0  0  0  0
   27.5573   35.2466   21.9881 C   0  0  2  0  0  0  0  0  0  0  0  0
   27.1250   35.5670   23.2587 N   0  0  0  0  0  0  0  0  0  0  0  0
   27.5761   33.9148   21.5809 C   0  0  0  0  0  0  0  0  0  0  0  0
   28.0174   33.5806   20.3044 C   0  0  1  0  0  0  0  0  0  0  0  0
   28.0211   32.1387   19.8772 C   0  0  0  0  0  0  0  0  0  0  0  0
   28.4387   34.5897   19.4311 C   0  0  1  0  0  0  0  0  0  0  0  0
   28.9058   34.2624   18.0428 C   0  0  0  0  0  0  0  0  0  0  0  0
   28.4178   35.9194   19.8415 C   0  0  0  0  0  0  0  0  0  0  0  0
   27.9796   36.2578   21.1196 C   0  0  2  0  0  0  0  0  0  0  0  0
   27.5221   37.9012   22.8027 C   0  0  2  0  0  0  0  0  0  0  0  0
   27.9674   37.5844   21.5337 N   0  0  0  0  0  0  0  0  0  0  0  0
  1  2  1  1  0  0  0
  1  3  1  0  0  0  0
  1  4  2  0  0  0  0
  1  6  1  0  0  0  0
  5  6  1  0  0  0  0
  7  5  1  6  0  0  0
  7  8  1  0  0  0  0
  7  9  1  0  0  0  0
  9 10  1  6  0  0  0
  9 11  1  0  0  0  0
 11 12  1  6  0  0  0
 11 13  1  0  0  0  0
 13 31  1  0  0  0  0
 14 15  1  0  0  0  0
 15 16  2  0  0  0  0
 15 17  1  0  0  0  0
 17 18  1  0  0  0  0
 18 20  2  0  0  0  0
 19 18  1  6  0  0  0
 19 22  1  0  0  0  0
 19 30  1  0  0  0  0
 21 23  1  1  0  0  0
 21 29  1  0  0  0  0
 21 22  1  0  0  0  0
 23 24  1  0  0  0  0
 24 25  1  6  0  0  0
 24 26  1  0  0  0  0
 26 27  1  6  0  0  0
 26 28  1  0  0  0  0
 29 28  1  1  0  0  0
 29 31  1  0  0  0  0
 30 14  1  1  0  0  0
 30 31  1  0  0  0  0
M  CHG  1   3  -1
M  END
>  <CHROM.1>
173.03728278,-57.19674069,161.07619556,41.42202975,-27.13990117,174.42846434
102.70381872,27.05422046,38.86820157,20.20386685,2.23876807,1.30813932,-1.32743620

>  <Name>
ligand

>  <RI>
0

>  <Rbt.Current_Directory>
/home/itssahil/PROJECTS/Mol_Feturizer/New_Systems/rnas/3F2Q

>  <Rbt.Executable>
rbdock ($Id: //depot/dev/client3/rdock/2013.1/src/exe/rbdock.cxx#4 $)

>  <Rbt.Library>
libRbt.so (2013.1, Build901 2013/11/27)

>  <Rbt.Parameter_File>
/export/apps/rDock/src/rDock_2013.1_src/data/scripts/dock_solv.prm

>  <Rbt.Receptor>
prm/pocket_docking_2.prm

>  <SCORE>
-28.5565

>  <SCORE.INTER>
-26.0071

>  <SCORE.INTER.CONST>
1

>  <SCORE.INTER.POLAR>
0

>  <SCORE.INTER.ROT>
7

>  <SCORE.INTER.SOLV>
18.6743

>  <SCORE.INTER.VDW>
-31.8295

>  <SCORE.INTER.norm>
-0.838939

>  <SCORE.INTRA>
-2.67844

>  <SCORE.INTRA.DIHEDRAL>
-3.16606

>  <SCORE.INTRA.DIHEDRAL.0>
10.0718

>  <SCORE.INTRA.POLAR>
0

>  <SCORE.INTRA.POLAR.0>
0

>  <SCORE.INTRA.REPUL>
0

>  <SCORE.INTRA.REPUL.0>
0

>  <SCORE.INTRA.SOLV>
-0.734382

>  <SCORE.INTRA.SOLV.lig_0>
-48.6963

>  <SCORE.INTRA.VDW>
-0.728219

>  <SCORE.INTRA.VDW.0>
-0.836976

>  <SCORE.INTRA.norm>
-0.0864012

>  <SCORE.RESTR>
0.128997

>  <SCORE.RESTR.CAVITY>
0.128997

>  <SCORE.RESTR.norm>
0.00416119

>  <SCORE.SYSTEM>
0

>  <SCORE.SYSTEM.CONST>
0

>  <SCORE.SYSTEM.DIHEDRAL>
0

>  <SCORE.SYSTEM.SOLV>
0

>  <SCORE.SYSTEM.norm>
0

>  <SCORE.heavy>
31

>  <SCORE.norm>
-0.921179

>  <RMSD>
4.802

$$$$
ligand
 OpenBabel11021811473D
libRbt.so/2013.1/901 2013/11/27
 31 33  0  0  0  0  0  0  0  0999 V2000
   25.7728   42.8358   16.9885 P   0  0  1  0  0  0  0  0  0  0  0  0
   24.5729   41.9398   17.2100 O   0  0  0  0  0  0  0  0  0  0  0  0
   26.2136   42.6742   15.5586 O   0  5  0  0  0  0  0  0  0  0  0  0
   25.4028   44.2714   17.2418 O   0  0  0  0  0  0  0  0  0  0  0  0
   26.5853   42.1765   19.3732 C   0  0  0  0  0  0  0  0  0  0  0  0
   26.9222   42.4571   18.0364 O   0  0  0  0  0  0  0  0  0  0  0  0
   27.8620   41.9965   20.1814 C   0  0  1  0  0  0  0  0  0  0  0  0
   28.5874   43.2074   20.1541 O   0  0  0  0  0  0  0  0  0  0  0  0
   27.5280   41.6070   21.6213 C   0  0  1  0  0  0  0  0  0  0  0  0
   26.4819   42.4232   22.1028 O   0  0  0  0  0  0  0  0  0  0  0  0
   27.1974   40.1185   21.7983 C   0  0  1  0  0  0  0  0  0  0  0  0
   26.4798   39.6497   20.6784 O   0  0  0  0  0  0  0  0  0  0  0  0
   28.4399   39.2630   21.9879 C   0  0  0  0  0  0  0  0  0  0  0  0
   27.0613   38.1521   24.1899 N   0  0  0  0  0  0  0  0  0  0  0  0
   26.3440   37.6698   25.2657 C   0  0  0  0  0  0  0  0  0  0  0  0
   26.1138   38.3995   26.2341 O   0  0  0  0  0  0  0  0  0  0  0  0
   25.8946   36.3648   25.2559 N   0  0  0  0  0  0  0  0  0  0  0  0
   26.1594   35.5429   24.1767 C   0  0  0  0  0  0  0  0  0  0  0  0
   26.8744   36.0218   23.0987 C   0  0  1  0  0  0  0  0  0  0  0  0
   25.7572   34.3810   24.1511 O   0  0  0  0  0  0  0  0  0  0  0  0
   27.8371   35.6641   20.9447 C   0  0  2  0  0  0  0  0  0  0  0  0
   27.1256   35.1876   22.0267 N   0  0  0  0  0  0  0  0  0  0  0  0
   28.0934   34.8244   19.8635 C   0  0  0  0  0  0  0  0  0  0  0  0
   28.8164   35.2928   18.7709 C   0  0  1  0  0  0  0  0  0  0  0  0
   29.0750   34.3761   17.6072 C   0  0  0  0  0  0  0  0  0  0  0  0
   29.2813   36.6128   18.7628 C   0  0  1  0  0  0  0  0  0  0  0  0
   30.0510   37.1519   17.5925 C   0  0  0  0  0  0  0  0  0  0  0  0
   29.0226   37.4489   19.8448 C   0  0  0  0  0  0  0  0  0  0  0  0
   28.3017   36.9828   20.9417 C   0  0  2  0  0  0  0  0  0  0  0  0
   27.3277   37.3360   23.1026 C   0  0  2  0  0  0  0  0  0  0  0  0
   28.0511   37.8141   22.0269 N   0  0  0  0  0  0  0  0  0  0  0  0
  1  2  1  1  0  0  0
  1  3  1  0  0  0  0
  1  4  2  0  0  0  0
  1  6  1  0  0  0  0
  5  6  1  0  0  0  0
  7  5  1  6  0  0  0
  7  8  1  0  0  0  0
  7  9  1  0  0  0  0
  9 10  1  6  0  0  0
  9 11  1  0  0  0  0
 11 12  1  6  0  0  0
 11 13  1  0  0  0  0
 13 31  1  0  0  0  0
 14 15  1  0  0  0  0
 15 16  2  0  0  0  0
 15 17  1  0  0  0  0
 17 18  1  0  0  0  0
 18 20  2  0  0  0  0
 19 18  1  6  0  0  0
 19 22  1  0  0  0  0
 19 30  1  0  0  0  0
 21 23  1  1  0  0  0
 21 29  1  0  0  0  0
 21 22  1  0  0  0  0
 23 24  1  0  0  0  0
 24 25  1  6  0  0  0
 24 26  1  0  0  0  0
 26 27  1  6  0  0  0
 26 28  1  0  0  0  0
 29 28  1  1  0  0  0
 29 31  1  0  0  0  0
 30 14  1  1  0  0  0
 30 31  1  0  0  0  0
M  CHG  1   3  -1
M  END
>  <CHROM.1>
-173.97920208,-41.50253490,62.23988621,-44.90329473,-36.78876166,-174.81687625
105.43319080,27.15447666,39.02984883,20.64446887,-1.82333587,-1.21215622
2.22983397

>  <Name>
ligand

>  <RI>
0

>  <Rbt.Current_Directory>
/home/itssahil/PROJECTS/Mol_Feturizer/New_Systems/rnas/3F2Q

>  <Rbt.Executable>
rbdock ($Id: //depot/dev/client3/rdock/2013.1/src/exe/rbdock.cxx#4 $)

>  <Rbt.Library>
libRbt.so (2013.1, Build901 2013/11/27)

>  <Rbt.Parameter_File>
/export/apps/rDock/src/rDock_2013.1_src/data/scripts/dock_solv.prm

>  <Rbt.Receptor>
prm/pocket_docking_4.prm

>  <SCORE>
-28.5184

>  <SCORE.INTER>
-24.7895

>  <SCORE.INTER.CONST>
1

>  <SCORE.INTER.POLAR>
0

>  <SCORE.INTER.ROT>
7

>  <SCORE.INTER.SOLV>
21.072

>  <SCORE.INTER.VDW>
-31.817

>  <SCORE.INTER.norm>
-0.799661

>  <SCORE.INTRA>
-3.72949

>  <SCORE.INTRA.DIHEDRAL>
-5.57158

>  <SCORE.INTRA.DIHEDRAL.0>
10.0718

>  <SCORE.INTRA.POLAR>
0

>  <SCORE.INTRA.POLAR.0>
0

>  <SCORE.INTRA.REPUL>
0

>  <SCORE.INTRA.REPUL.0>
0

>  <SCORE.INTRA.SOLV>
-1.34248

>  <SCORE.INTRA.SOLV.lig_0>
-48.6963

>  <SCORE.INTRA.VDW>
-0.272456

>  <SCORE.INTRA.VDW.0>
-0.836976

>  <SCORE.INTRA.norm>
-0.120306

>  <SCORE.RESTR>
0.00054419

>  <SCORE.RESTR.CAVITY>
0.00054419

>  <SCORE.RESTR.norm>
1.75545e-05

>  <SCORE.SYSTEM>
0

>  <SCORE.SYSTEM.CONST>
0

>  <SCORE.SYSTEM.DIHEDRAL>
0

>  <SCORE.SYSTEM.SOLV>
0

>  <SCORE.SYSTEM.norm>
0

>  <SCORE.heavy>
31

>  <SCORE.norm>
-0.91995

>  <RMSD>
4.803

$$$$
ligand
 OpenBabel11021811473D
libRbt.so/2013.1/901 2013/11/27
 31 33  0  0  0  0  0  0  0  0999 V2000
   25.6069   42.8094   16.7664 P   0  0  1  0  0  0  0  0  0  0  0  0
   26.7264   42.0850   16.0498 O   0  0  0  0  0  0  0  0  0  0  0  0
   26.1199   44.1635   17.1768 O   0  5  0  0  0  0  0  0  0  0  0  0
   24.4256   42.9751   15.8506 O   0  0  0  0  0  0  0  0  0  0  0  0
   25.8149   41.9907   19.2298 C   0  0  0  0  0  0  0  0  0  0  0  0
   25.1143   41.9316   18.0112 O   0  0  0  0  0  0  0  0  0  0  0  0
   27.2304   41.4748   19.0163 C   0  0  1  0  0  0  0  0  0  0  0  0
   27.9698   41.6829   20.2009 O   0  0  0  0  0  0  0  0  0  0  0  0
   27.2052   39.9892   18.6572 C   0  0  1  0  0  0  0  0  0  0  0  0
   28.4333   39.6237   18.0648 O   0  0  0  0  0  0  0  0  0  0  0  0
   26.8652   39.0728   19.8408 C   0  0  1  0  0  0  0  0  0  0  0  0
   26.3514   37.8477   19.3673 O   0  0  0  0  0  0  0  0  0  0  0  0
   28.0669   38.7985   20.7308 C   0  0  0  0  0  0  0  0  0  0  0  0
   27.2306   39.5932   23.3101 N   0  0  0  0  0  0  0  0  0  0  0  0
   26.7795   40.0336   24.5377 C   0  0  0  0  0  0  0  0  0  0  0  0
   26.7808   41.2391   24.8022 O   0  0  0  0  0  0  0  0  0  0  0  0
   26.3367   39.1174   25.4703 N   0  0  0  0  0  0  0  0  0  0  0  0
   26.3434   37.7661   25.1799 C   0  0  0  0  0  0  0  0  0  0  0  0
   26.7916   37.3222   23.9533 C   0  0  1  0  0  0  0  0  0  0  0  0
   25.9431   36.9399   25.9983 O   0  0  0  0  0  0  0  0  0  0  0  0
   27.2306   35.5206   22.4512 C   0  0  2  0  0  0  0  0  0  0  0  0
   26.7867   35.9684   23.6786 N   0  0  0  0  0  0  0  0  0  0  0  0
   27.2285   34.1560   22.1726 C   0  0  0  0  0  0  0  0  0  0  0  0
   27.6812   33.6936   20.9409 C   0  0  1  0  0  0  0  0  0  0  0  0
   27.6621   32.2178   20.6525 C   0  0  0  0  0  0  0  0  0  0  0  0
   28.1351   34.6071   19.9826 C   0  0  1  0  0  0  0  0  0  0  0  0
   28.6154   34.1405   18.6394 C   0  0  0  0  0  0  0  0  0  0  0  0
   28.1350   35.9699   20.2647 C   0  0  0  0  0  0  0  0  0  0  0  0
   27.6854   36.4365   21.4977 C   0  0  2  0  0  0  0  0  0  0  0  0
   27.2370   38.2408   23.0097 C   0  0  2  0  0  0  0  0  0  0  0  0
   27.6940   37.7965   21.7838 N   0  0  0  0  0  0  0  0  0  0  0  0
  1  2  1  6  0  0  0
  1  3  1  0  0  0  0
  1  4  2  0  0  0  0
  1  6  1  0  0  0  0
  5  6  1  0  0  0  0
  7  5  1  1  0  0  0
  7  8  1  0  0  0  0
  7  9  1  0  0  0  0
  9 10  1  1  0  0  0
  9 11  1  0  0  0  0
 11 12  1  6  0  0  0
 11 13  1  0  0  0  0
 13 31  1  0  0  0  0
 14 15  1  0  0  0  0
 15 16  2  0  0  0  0
 15 17  1  0  0  0  0
 17 18  1  0  0  0  0
 18 20  2  0  0  0  0
 19 18  1  6  0  0  0
 19 22  1  0  0  0  0
 19 30  1  0  0  0  0
 21 23  1  1  0  0  0
 21 29  1  0  0  0  0
 21 22  1  0  0  0  0
 23 24  1  0  0  0  0
 24 25  1  6  0  0  0
 24 26  1  0  0  0  0
 26 27  1  6  0  0  0
 26 28  1  0  0  0  0
 29 28  1  1  0  0  0
 29 31  1  0  0  0  0
 30 14  1  1  0  0  0
 30 31  1  0  0  0  0
M  CHG  1   3  -1
M  END
>  <CHROM.1>
-62.99460092,82.71092176,173.24736375,161.84725341,156.95715835,-174.58401031
81.49762498,26.89038326,38.87339919,20.60734960,-2.25470173,-1.34847842,1.77435572

>  <Name>
ligand

>  <RI>
0

>  <Rbt.Current_Directory>
/home/itssahil/PROJECTS/Mol_Feturizer/New_Systems/rnas/3F2Q

>  <Rbt.Executable>
rbdock ($Id: //depot/dev/client3/rdock/2013.1/src/exe/rbdock.cxx#4 $)

>  <Rbt.Library>
libRbt.so (2013.1, Build901 2013/11/27)

>  <Rbt.Parameter_File>
/export/apps/rDock/src/rDock_2013.1_src/data/scripts/dock_solv.prm

>  <Rbt.Receptor>
prm/blind_docking_100.prm

>  <SCORE>
-29.8371

>  <SCORE.INTER>
-26.3939

>  <SCORE.INTER.CONST>
1

>  <SCORE.INTER.POLAR>
0

>  <SCORE.INTER.ROT>
7

>  <SCORE.INTER.SOLV>
17.7027

>  <SCORE.INTER.VDW>
-31.7635

>  <SCORE.INTER.norm>
-0.851415

>  <SCORE.INTRA>
-3.44321

>  <SCORE.INTRA.DIHEDRAL>
-5.02363

>  <SCORE.INTRA.DIHEDRAL.0>
10.0718

>  <SCORE.INTRA.POLAR>
0

>  <SCORE.INTRA.POLAR.0>
0

>  <SCORE.INTRA.REPUL>
0

>  <SCORE.INTRA.REPUL.0>
0

>  <SCORE.INTRA.SOLV>
0.287895

>  <SCORE.INTRA.SOLV.lig_0>
-48.6963

>  <SCORE.INTRA.VDW>
-1.07534

>  <SCORE.INTRA.VDW.0>
-0.836976

>  <SCORE.INTRA.norm>
-0.111071

>  <SCORE.RESTR>
0

>  <SCORE.RESTR.CAVITY>
0

>  <SCORE.RESTR.norm>
0

>  <SCORE.SYSTEM>
0

>  <SCORE.SYSTEM.CONST>
0

>  <SCORE.SYSTEM.DIHEDRAL>
0

>  <SCORE.SYSTEM.SOLV>
0

>  <SCORE.SYSTEM.norm>
0

>  <SCORE.heavy>
31

>  <SCORE.norm>
-0.962486

>  <RMSD>
4.804

$$$$
ligand
 OpenBabel11021811473D
libRbt.so/2013.1/901 2013/11/27
 31 33  0  0  0  0  0  0  0  0999 V2000
   25.7218   43.5578   16.4245 P   0  0  1  0  0  0  0  0  0  0  0  0
   26.7004   43.3201   15.2942 O   0  0  0  0  0  0  0  0  0  0  0  0
   25.8385   44.9989   16.8424 O   0  5  0  0  0  0  0  0  0  0  0  0
   24.3177   43.2797   15.9630 O   0  0  0  0  0  0  0  0  0  0  0  0
   27.3161   42.5022   18.1924 C   0  0  0  0  0  0  0  0  0  0  0  0
   26.0312   42.5401   17.6209 O   0  0  0  0  0  0  0  0  0  0  0  0
   27.3355   41.4659   19.3065 C   0  0  1  0  0  0  0  0  0  0  0  0
   26.4046   41.8501   20.2960 O   0  0  0  0  0  0  0  0  0  0  0  0
   26.9858   40.0847   18.7526 C   0  0  1  0  0  0  0  0  0  0  0  0
   27.9770   39.6774   17.8338 O   0  0  0  0  0  0  0  0  0  0  0  0
   26.7638   39.0217   19.8375 C   0  0  1  0  0  0  0  0  0  0  0  0
   26.3183   37.8203   19.2484 O   0  0  0  0  0  0  0  0  0  0  0  0
   28.0196   38.7436   20.6480 C   0  0  0  0  0  0  0  0  0  0  0  0
   27.2831   39.6976   23.2036 N   0  0  0  0  0  0  0  0  0  0  0  0
   26.8793   40.2137   24.4182 C   0  0  0  0  0  0  0  0  0  0  0  0
   26.8860   41.4334   24.6061 O   0  0  0  0  0  0  0  0  0  0  0  0
   26.4778   39.3573   25.4234 N   0  0  0  0  0  0  0  0  0  0  0  0
   26.4786   37.9903   25.2184 C   0  0  0  0  0  0  0  0  0  0  0  0
   26.8796   37.4709   24.0052 C   0  0  1  0  0  0  0  0  0  0  0  0
   26.1146   37.2166   26.1024 O   0  0  0  0  0  0  0  0  0  0  0  0
   27.2662   35.5791   22.6029 C   0  0  2  0  0  0  0  0  0  0  0  0
   26.8695   36.1025   23.8165 N   0  0  0  0  0  0  0  0  0  0  0  0
   27.2588   34.1996   22.4109 C   0  0  0  0  0  0  0  0  0  0  0  0
   27.6641   33.6614   21.1936 C   0  0  1  0  0  0  0  0  0  0  0  0
   27.6398   32.1704   20.9994 C   0  0  0  0  0  0  0  0  0  0  0  0
   28.0757   34.5135   20.1625 C   0  0  1  0  0  0  0  0  0  0  0  0
   28.5042   33.9642   18.8331 C   0  0  0  0  0  0  0  0  0  0  0  0
   28.0810   35.8914   20.3582 C   0  0  0  0  0  0  0  0  0  0  0  0
   27.6789   36.4339   21.5764 C   0  0  2  0  0  0  0  0  0  0  0  0
   27.2832   38.3291   22.9887 C   0  0  2  0  0  0  0  0  0  0  0  0
   27.6931   37.8092   21.7759 N   0  0  0  0  0  0  0  0  0  0  0  0
  1  2  1  6  0  0  0
  1  3  1  0  0  0  0
  1  4  2  0  0  0  0
  1  6  1  0  0  0  0
  5  6  1  0  0  0  0
  7  5  1  6  0  0  0
  7  8  1  0  0  0  0
  7  9  1  0  0  0  0
  9 10  1  6  0  0  0
  9 11  1  0  0  0  0
 11 12  1  6  0  0  0
 11 13  1  0  0  0  0
 13 31  1  0  0  0  0
 14 15  1  0  0  0  0
 15 16  2  0  0  0  0
 15 17  1  0  0  0  0
 17 18  1  0  0  0  0
 18 20  2  0  0  0  0
 19 18  1  6  0  0  0
 19 22  1  0  0  0  0
 19 30  1  0  0  0  0
 21 23  1  1  0  0  0
 21 29  1  0  0  0  0
 21 22  1  0  0  0  0
 23 24  1  0  0  0  0
 24 25  1  6  0  0  0
 24 26  1  0  0  0  0
 26 27  1  6  0  0  0
 26 28  1  0  0  0  0
 29 28  1  1  0  0  0
 29 31  1  0  0  0  0
 30 14  1  1  0  0  0
 30 31  1  0  0  0  0
M  CHG  1   3  -1
M  END
>  <CHROM.1>
179.52256560,56.03368355,-61.34499355,63.96530303,174.19941642,174.02842183
84.69302167,26.90410751,39.09285864,20.54130517,-2.28359655,-1.37178157,1.76161697

>  <Name>
ligand

>  <RI>
0

>  <Rbt.Current_Directory>
/home/itssahil/PROJECTS/Mol_Feturizer/New_Systems/rnas/3F2Q

>  <Rbt.Executable>
rbdock ($Id: //depot/dev/client3/rdock/2013.1/src/exe/rbdock.cxx#4 $)

>  <Rbt.Library>
libRbt.so (2013.1, Build901 2013/11/27)

>  <Rbt.Parameter_File>
/export/apps/rDock/src/rDock_2013.1_src/data/scripts/dock_solv.prm

>  <Rbt.Receptor>
prm/pocket_docking_3.prm

>  <SCORE>
-33.7301

>  <SCORE.INTER>
-27.4524

>  <SCORE.INTER.CONST>
1

>  <SCORE.INTER.POLAR>
0

>  <SCORE.INTER.ROT>
7

>  <SCORE.INTER.SOLV>
18.9074

>  <SCORE.INTER.VDW>
-32.8707

>  <SCORE.INTER.norm>
-0.885561

>  <SCORE.INTRA>
-6.27775

>  <SCORE.INTRA.DIHEDRAL>
-8.55424

>  <SCORE.INTRA.DIHEDRAL.0>
10.0718

>  <SCORE.INTRA.POLAR>
0

>  <SCORE.INTRA.POLAR.0>
0

>  <SCORE.INTRA.REPUL>
0

>  <SCORE.INTRA.REPUL.0>
0

>  <SCORE.INTRA.SOLV>
-1.23555

>  <SCORE.INTRA.SOLV.lig_0>
-48.6963

>  <SCORE.INTRA.VDW>
-1.38285

>  <SCORE.INTRA.VDW.0>
-0.836976

>  <SCORE.INTRA.norm>
-0.202508

>  <SCORE.RESTR>
0

>  <SCORE.RESTR.CAVITY>
0

>  <SCORE.RESTR.norm>
0

>  <SCORE.SYSTEM>
0

>  <SCORE.SYSTEM.CONST>
0

>  <SCORE.SYSTEM.DIHEDRAL>
0

>  <SCORE.SYSTEM.SOLV>
0

>  <SCORE.SYSTEM.norm>
0

>  <SCORE.heavy>
31

>  <SCORE.norm>
-1.08807

>  <RMSD>
4.805

$$$$
ligand
 OpenBabel11021811473D
libRbt.so/2013.1/901 2013/11/27
 31 33  0  0  0  0  0  0  0  0999 V2000
   25.2842   43.6999   15.8778 P   0  0  1  0  0  0  0  0  0  0  0  0
   23.9596   43.5648   15.1576 O   0  0  0  0  0  0  0  0  0  0  0  0
   26.3731   43.2831   14.9261 O   0  5  0  0  0  0  0  0  0  0  0  0
   25.5031   45.1269   16.2993 O   0  0  0  0  0  0  0  0  0  0  0  0
   26.4640   42.3436   17.7621 C   0  0  0  0  0  0  0  0  0  0  0  0
   25.2583   42.8166   17.2127 O   0  0  0  0  0  0  0  0  0  0  0  0
   26.1523   41.4587   18.9601 C   0  0  1  0  0  0  0  0  0  0  0  0
   25.0948   40.5891   18.6154 O   0  0  0  0  0  0  0  0  0  0  0  0
   27.3902   40.6588   19.3654 C   0  0  1  0  0  0  0  0  0  0  0  0
   28.2710   41.4856   20.0954 O   0  0  0  0  0  0  0  0  0  0  0  0
   27.0689   39.3714   20.1374 C   0  0  1  0  0  0  0  0  0  0  0  0
   26.4576   38.4358   19.2773 O   0  0  0  0  0  0  0  0  0  0  0  0
   28.3037   38.7417   20.7620 C   0  0  0  0  0  0  0  0  0  0  0  0
   27.3893   39.2821   23.3803 N   0  0  0  0  0  0  0  0  0  0  0  0
   26.9016   39.6017   24.6311 C   0  0  0  0  0  0  0  0  0  0  0  0
   26.9029   40.7745   25.0155 O   0  0  0  0  0  0  0  0  0  0  0  0
   26.4220   38.6012   25.4521 N   0  0  0  0  0  0  0  0  0  0  0  0
   26.4283   37.2859   25.0275 C   0  0  0  0  0  0  0  0  0  0  0  0
   26.9133   36.9627   23.7773 C   0  0  1  0  0  0  0  0  0  0  0  0
   25.9956   36.3860   25.7454 O   0  0  0  0  0  0  0  0  0  0  0  0
   27.3881   35.3166   22.1161 C   0  0  2  0  0  0  0  0  0  0  0  0
   26.9075   35.6435   23.3676 N   0  0  0  0  0  0  0  0  0  0  0  0
   27.3852   33.9869   21.7016 C   0  0  0  0  0  0  0  0  0  0  0  0
   27.8746   33.6459   20.4446 C   0  0  1  0  0  0  0  0  0  0  0  0
   27.8543   32.2068   20.0086 C   0  0  0  0  0  0  0  0  0  0  0  0
   28.3661   34.6461   19.5981 C   0  0  1  0  0  0  0  0  0  0  0  0
   28.8866   34.3118   18.2307 C   0  0  0  0  0  0  0  0  0  0  0  0
   28.3666   35.9737   20.0158 C   0  0  0  0  0  0  0  0  0  0  0  0
   27.8804   36.3188   21.2746 C   0  0  2  0  0  0  0  0  0  0  0  0
   27.3958   37.9668   22.9456 C   0  0  2  0  0  0  0  0  0  0  0  0
   27.8894   37.6430   21.6963 N   0  0  0  0  0  0  0  0  0  0  0  0
  1  2  1  6  0  0  0
  1  3  1  0  0  0  0
  1  4  2  0  0  0  0
  1  6  1  0  0  0  0
  5  6  1  0  0  0  0
  7  5  1  6  0  0  0
  7  8  1  0  0  0  0
  7  9  1  0  0  0  0
  9 10  1  1  0  0  0
  9 11  1  0  0  0  0
 11 12  1  6  0  0  0
 11 13  1  0  0  0  0
 13 31  1  0  0  0  0
 14 15  1  0  0  0  0
 15 16  2  0  0  0  0
 15 17  1  0  0  0  0
 17 18  1  0  0  0  0
 18 20  2  0  0  0  0
 19 18  1  6  0  0  0
 19 22  1  0  0  0  0
 19 30  1  0  0  0  0
 21 23  1  1  0  0  0
 21 29  1  0  0  0  0
 21 22  1  0  0  0  0
 23 24  1  0  0  0  0
 24 25  1  6  0  0  0
 24 26  1  0  0  0  0
 26 27  1  6  0  0  0
 26 28  1  0  0  0  0
 29 28  1  1  0  0  0
 29 31  1  0  0  0  0
 30 14  1  1  0  0  0
 30 31  1  0  0  0  0
M  CHG  1   3  -1
M  END
>  <CHROM.1>
-176.08648231,154.77191426,44.85293640,78.38124872,69.41336596,169.82899549
96.64587209,26.80861467,39.02356264,20.30318303,-2.41765747,-1.32168174,1.61230604

>  <Name>
ligand

>  <RI>
0

>  <Rbt.Current_Directory>
/home/itssahil/PROJECTS/Mol_Feturizer/New_Systems/rnas/3F2Q

>  <Rbt.Executable>
rbdock ($Id: //depot/dev/client3/rdock/2013.1/src/exe/rbdock.cxx#4 $)

>  <Rbt.Library>
libRbt.so (2013.1, Build901 2013/11/27)

>  <Rbt.Parameter_File>
/export/apps/rDock/src/rDock_2013.1_src/data/scripts/dock_solv.prm

>  <Rbt.Receptor>
prm/pocket_docking_2.prm

>  <SCORE>
-29.1393

>  <SCORE.INTER>
-25.8431

>  <SCORE.INTER.CONST>
1

>  <SCORE.INTER.POLAR>
0

>  <SCORE.INTER.ROT>
7

>  <SCORE.INTER.SOLV>
22.4094

>  <SCORE.INTER.VDW>
-32.9652

>  <SCORE.INTER.norm>
-0.83365

>  <SCORE.INTRA>
-3.82538

>  <SCORE.INTRA.DIHEDRAL>
-5.30974

>  <SCORE.INTRA.DIHEDRAL.0>
10.0718

>  <SCORE.INTRA.POLAR>
0

>  <SCORE.INTRA.POLAR.0>
0

>  <SCORE.INTRA.REPUL>
0

>  <SCORE.INTRA.REPUL.0>
0

>  <SCORE.INTRA.SOLV>
-0.735776

>  <SCORE.INTRA.SOLV.lig_0>
-48.6963

>  <SCORE.INTRA.VDW>
-0.802624

>  <SCORE.INTRA.VDW.0>
-0.836976

>  <SCORE.INTRA.norm>
-0.123399

>  <SCORE.RESTR>
0.529258

>  <SCORE.RESTR.CAVITY>
0.529258

>  <SCORE.RESTR.norm>
0.0170728

>  <SCORE.SYSTEM>
0

>  <SCORE.SYSTEM.CONST>
0

>  <SCORE.SYSTEM.DIHEDRAL>
0

>  <SCORE.SYSTEM.SOLV>
0

>  <SCORE.SYSTEM.norm>
0

>  <SCORE.heavy>
31

>  <SCORE.norm>
-0.939976

>  <RMSD>
4.806

$$$$
ligand
 OpenBabel11021811473D
libRbt.so/2013.1/901 2013/11/27
 31 33  0  0  0  0  0  0  0  0999 V2000
   25.7563   43.2352   16.9612 P   0  0  1  0  0  0  0  0  0  0  0  0
   26.3377   44.6278   17.0804 O   0  0  0  0  0  0  0  0  0  0  0  0
   24.9058   42.9831   18.1770 O   0  5  0  0  0  0  0  0  0  0  0  0
   24.9086   43.1303   15.7234 O   0  0  0  0  0  0  0  0  0  0  0  0
   28.0607   42.2429   17.6589 C   0  0  0  0  0  0  0  0  0  0  0  0
   26.9438   42.1728   16.8064 O   0  0  0  0  0  0  0  0  0  0  0  0
   27.7772   41.4379   18.9186 C   0  0  1  0  0  0  0  0  0  0  0  0
   26.7651   42.0925   19.6538 O   0  0  0  0  0  0  0  0  0  0  0  0
   27.3395   40.0192   18.5547 C   0  0  1  0  0  0  0  0  0  0  0  0
   28.3272   39.4098   17.7511 O   0  0  0  0  0  0  0  0  0  0  0  0
   26.9968   39.1470   19.7704 C   0  0  1  0  0  0  0  0  0  0  0  0
   26.3963   37.9442   19.3443 O   0  0  0  0  0  0  0  0  0  0  0  0
   28.2162   38.8222   20.6183 C   0  0  0  0  0  0  0  0  0  0  0  0
   27.4181   39.7183   23.1763 N   0  0  0  0  0  0  0  0  0  0  0  0
   26.9865   40.2081   24.3922 C   0  0  0  0  0  0  0  0  0  0  0  0
   27.0155   41.4213   24.6169 O   0  0  0  0  0  0  0  0  0  0  0  0
   26.5320   39.3326   25.3576 N   0  0  0  0  0  0  0  0  0  0  0  0
   26.5076   37.9727   25.1116 C   0  0  0  0  0  0  0  0  0  0  0  0
   26.9363   37.4795   23.8969 C   0  0  1  0  0  0  0  0  0  0  0  0
   26.0966   37.1824   25.9596 O   0  0  0  0  0  0  0  0  0  0  0  0
   27.3246   35.6209   22.4514 C   0  0  2  0  0  0  0  0  0  0  0  0
   26.9004   36.1179   23.6667 N   0  0  0  0  0  0  0  0  0  0  0  0
   27.2913   34.2482   22.2177 C   0  0  0  0  0  0  0  0  0  0  0  0
   27.7239   33.7363   20.9985 C   0  0  1  0  0  0  0  0  0  0  0  0
   27.6712   32.2526   20.7588 C   0  0  0  0  0  0  0  0  0  0  0  0
   28.1893   34.6080   20.0074 C   0  0  1  0  0  0  0  0  0  0  0  0
   28.6485   34.0877   18.6767 C   0  0  0  0  0  0  0  0  0  0  0  0
   28.2204   35.9790   20.2446 C   0  0  0  0  0  0  0  0  0  0  0  0
   27.7909   36.4952   21.4650 C   0  0  2  0  0  0  0  0  0  0  0  0
   27.3933   38.3571   22.9203 C   0  0  2  0  0  0  0  0  0  0  0  0
   27.8307   37.8632   21.7063 N   0  0  0  0  0  0  0  0  0  0  0  0
  1  2  1  1  0  0  0
  1  3  1  0  0  0  0
  1  4  2  0  0  0  0
  1  6  1  0  0  0  0
  5  6  1  0  0  0  0
  7  5  1  6  0  0  0
  7  8  1  0  0  0  0
  7  9  1  0  0  0  0
  9 10  1  1  0  0  0
  9 11  1  0  0  0  0
 11 12  1  6  0  0  0
 11 13  1  0  0  0  0
 13 31  1  0  0  0  0
 14 15  1  0  0  0  0
 15 16  2  0  0  0  0
 15 17  1  0  0  0  0
 17 18  1  0  0  0  0
 18 20  2  0  0  0  0
 19 18  1  6  0  0  0
 19 22  1  0  0  0  0
 19 30  1  0  0  0  0
 21 23  1  1  0  0  0
 21 29  1  0  0  0  0
 21 22  1  0  0  0  0
 23 24  1  0  0  0  0
 24 25  1  6  0  0  0
 24 26  1  0  0  0  0
 26 27  1  6  0  0  0
 26 28  1  0  0  0  0
 29 28  1  1  0  0  0
 29 31  1  0  0  0  0
 30 14  1  1  0  0  0
 30 31  1  0  0  0  0
M  CHG  1   3  -1
M  END
>  <CHROM.1>
87.90247533,46.39812208,-68.02036261,56.31808561,170.28256266,-174.55803432
84.30421686,27.04437863,39.04423426,20.53238964,-2.19718284,-1.35939576,1.87489632

>  <Name>
ligand

>  <RI>
0

>  <Rbt.Current_Directory>
/home/itssahil/PROJECTS/Mol_Feturizer/New_Systems/rnas/3F2Q

>  <Rbt.Executable>
rbdock ($Id: //depot/dev/client3/rdock/2013.1/src/exe/rbdock.cxx#4 $)

>  <Rbt.Library>
libRbt.so (2013.1, Build901 2013/11/27)

>  <Rbt.Parameter_File>
/export/apps/rDock/src/rDock_2013.1_src/data/scripts/dock_solv.prm

>  <Rbt.Receptor>
prm/pocket_docking_3.prm

>  <SCORE>
-29.4867

>  <SCORE.INTER>
-26.8932

>  <SCORE.INTER.CONST>
1

>  <SCORE.INTER.POLAR>
0

>  <SCORE.INTER.ROT>
7

>  <SCORE.INTER.SOLV>
16.0503

>  <SCORE.INTER.VDW>
-31.5456

>  <SCORE.INTER.norm>
-0.867524

>  <SCORE.INTRA>
-2.59349

>  <SCORE.INTRA.DIHEDRAL>
-4.67236

>  <SCORE.INTRA.DIHEDRAL.0>
10.0718

>  <SCORE.INTRA.POLAR>
0

>  <SCORE.INTRA.POLAR.0>
0

>  <SCORE.INTRA.REPUL>
0

>  <SCORE.INTRA.REPUL.0>
0

>  <SCORE.INTRA.SOLV>
1.7064

>  <SCORE.INTRA.SOLV.lig_0>
-48.6963

>  <SCORE.INTRA.VDW>
-1.11051

>  <SCORE.INTRA.VDW.0>
-0.836976

>  <SCORE.INTRA.norm>
-0.0836608

>  <SCORE.RESTR>
0

>  <SCORE.RESTR.CAVITY>
0

>  <SCORE.RESTR.norm>
0

>  <SCORE.SYSTEM>
0

>  <SCORE.SYSTEM.CONST>
0

>  <SCORE.SYSTEM.DIHEDRAL>
0

>  <SCORE.SYSTEM.SOLV>
0

>  <SCORE.SYSTEM.norm>
0

>  <SCORE.heavy>
31

>  <SCORE.norm>
-0.951185

>  <RMSD>
4.807

$$$$
ligand
 OpenBabel11021811473D
libRbt.so/2013.1/901 2013/11/27
 31 33  0  0  0  0  0  0  0  0999 V2000
   26.0122   43.5110   16.4207 P   0  0  1  0  0  0  0  0  0  0  0  0
   26.8767   43.4630   15.1790 O   0  0  0  0  0  0  0  0  0  0  0  0
   25.9301   44.9443   16.8724 O   0  5  0  0  0  0  0  0  0  0  0  0
   24.6315   43.0007   16.1123 O   0  0  0  0  0  0  0  0  0  0  0  0
   25.9351   42.3374   18.7441 C   0  0  0  0  0  0  0  0  0  0  0  0
   26.6292   42.5450   17.5381 O   0  0  0  0  0  0  0  0  0  0  0  0
   26.6853   41.3112   19.5804 C   0  0  1  0  0  0  0  0  0  0  0  0
   26.0474   41.1985   20.8349 O   0  0  0  0  0  0  0  0  0  0  0  0
   26.7050   39.9585   18.8685 C   0  0  1  0  0  0  0  0  0  0  0  0
   27.8118   39.8988   17.9945 O   0  0  0  0  0  0  0  0  0  0  0  0
   26.6861   38.7570   19.8236 C   0  0  1  0  0  0  0  0  0  0  0  0
   26.5230   37.5634   19.0904 O   0  0  0  0  0  0  0  0  0  0  0  0
   27.9504   38.6579   20.6622 C   0  0  0  0  0  0  0  0  0  0  0  0
   27.3650   39.6562   23.2398 N   0  0  0  0  0  0  0  0  0  0  0  0
   27.0322   40.1925   24.4671 C   0  0  0  0  0  0  0  0  0  0  0  0
   27.0333   41.4160   24.6294 O   0  0  0  0  0  0  0  0  0  0  0  0
   26.7081   39.3525   25.5132 N   0  0  0  0  0  0  0  0  0  0  0  0
   26.7155   37.9816   25.3364 C   0  0  0  0  0  0  0  0  0  0  0  0
   27.0457   37.4419   24.1108 C   0  0  1  0  0  0  0  0  0  0  0  0
   26.4200   37.2221   26.2575 O   0  0  0  0  0  0  0  0  0  0  0  0
   27.3692   35.5260   22.7253 C   0  0  2  0  0  0  0  0  0  0  0  0
   27.0433   36.0698   23.9509 N   0  0  0  0  0  0  0  0  0  0  0  0
   27.3694   34.1428   22.5623 C   0  0  0  0  0  0  0  0  0  0  0  0
   27.7039   33.5842   21.3326 C   0  0  1  0  0  0  0  0  0  0  0  0
   27.6887   32.0892   21.1708 C   0  0  0  0  0  0  0  0  0  0  0  0
   28.0364   34.4196   20.2602 C   0  0  1  0  0  0  0  0  0  0  0  0
   28.3870   33.8478   18.9175 C   0  0  0  0  0  0  0  0  0  0  0  0
   28.0344   35.8012   20.4270 C   0  0  0  0  0  0  0  0  0  0  0  0
   27.7030   36.3642   21.6572 C   0  0  2  0  0  0  0  0  0  0  0  0
   27.3711   38.2835   23.0533 C   0  0  2  0  0  0  0  0  0  0  0  0
   27.7101   37.7434   21.8275 N   0  0  0  0  0  0  0  0  0  0  0  0
  1  2  1  6  0  0  0
  1  3  1  0  0  0  0
  1  4  2  0  0  0  0
  1  6  1  0  0  0  0
  5  6  1  0  0  0  0
  7  5  1  6  0  0  0
  7  8  1  0  0  0  0
  7  9  1  0  0  0  0
  9 10  1  1  0  0  0
  9 11  1  0  0  0  0
 11 12  1  6  0  0  0
 11 13  1  0  0  0  0
 13 31  1  0  0  0  0
 14 15  1  0  0  0  0
 15 16  2  0  0  0  0
 15 17  1  0  0  0  0
 17 18  1  0  0  0  0
 18 20  2  0  0  0  0
 19 18  1  6  0  0  0
 19 22  1  0  0  0  0
 19 30  1  0  0  0  0
 21 23  1  1  0  0  0
 21 29  1  0  0  0  0
 21 22  1  0  0  0  0
 23 24  1  0  0  0  0
 24 25  1  6  0  0  0
 24 26  1  0  0  0  0
 26 27  1  6  0  0  0
 26 28  1  0  0  0  0
 29 28  1  1  0  0  0
 29 31  1  0  0  0  0
 30 14  1  1  0  0  0
 30 31  1  0  0  0  0
M  CHG  1   3  -1
M  END
>  <CHROM.1>
176.08615790,-174.68902124,174.84819518,87.28952471,172.07373496,163.34944608
77.30547587,26.93224044,39.00858864,20.63973603,-2.37501677,-1.38635054,1.66077734

>  <Name>
ligand

>  <RI>
0

>  <Rbt.Current_Directory>
/home/itssahil/PROJECTS/Mol_Feturizer/New_Systems/rnas/3F2Q

>  <Rbt.Executable>
rbdock ($Id: //depot/dev/client3/rdock/2013.1/src/exe/rbdock.cxx#4 $)

>  <Rbt.Library>
libRbt.so (2013.1, Build901 2013/11/27)

>  <Rbt.Parameter_File>
/export/apps/rDock/src/rDock_2013.1_src/data/scripts/dock_solv.prm

>  <Rbt.Receptor>
prm/pocket_docking_5.prm

>  <SCORE>
-30.6208

>  <SCORE.INTER>
-26.7765

>  <SCORE.INTER.CONST>
1

>  <SCORE.INTER.POLAR>
0

>  <SCORE.INTER.ROT>
7

>  <SCORE.INTER.SOLV>
18.6633

>  <SCORE.INTER.VDW>
-32.3388

>  <SCORE.INTER.norm>
-0.863757

>  <SCORE.INTRA>
-3.84436

>  <SCORE.INTRA.DIHEDRAL>
-5.21876

>  <SCORE.INTRA.DIHEDRAL.0>
10.0718

>  <SCORE.INTRA.POLAR>
0

>  <SCORE.INTRA.POLAR.0>
0

>  <SCORE.INTRA.REPUL>
0

>  <SCORE.INTRA.REPUL.0>
0

>  <SCORE.INTRA.SOLV>
-0.377021

>  <SCORE.INTRA.SOLV.lig_0>
-48.6963

>  <SCORE.INTRA.VDW>
-1.04647

>  <SCORE.INTRA.VDW.0>
-0.836976

>  <SCORE.INTRA.norm>
-0.124012

>  <SCORE.RESTR>
0

>  <SCORE.RESTR.CAVITY>
0

>  <SCORE.RESTR.norm>
0

>  <SCORE.SYSTEM>
0

>  <SCORE.SYSTEM.CONST>
0

>  <SCORE.SYSTEM.DIHEDRAL>
0

>  <SCORE.SYSTEM.SOLV>
0

>  <SCORE.SYSTEM.norm>
0

>  <SCORE.heavy>
31

>  <SCORE.norm>
-0.987769

>  <RMSD>
4.809

$$$$
ligand
 OpenBabel11021811473D
libRbt.so/2013.1/901 2013/11/27
 31 33  0  0  0  0  0  0  0  0999 V2000
   27.0373   41.2192   18.1523 P   0  0  1  0  0  0  0  0  0  0  0  0
   26.9354   39.7652   17.7434 O   0  0  0  0  0  0  0  0  0  0  0  0
   28.1812   41.8347   17.3922 O   0  5  0  0  0  0  0  0  0  0  0  0
   25.7627   41.9436   17.8172 O   0  0  0  0  0  0  0  0  0  0  0  0
   27.6995   42.5079   20.3162 C   0  0  0  0  0  0  0  0  0  0  0  0
   27.2266   41.3152   19.7390 O   0  0  0  0  0  0  0  0  0  0  0  0
   27.6366   42.3870   21.8317 C   0  0  1  0  0  0  0  0  0  0  0  0
   26.3873   41.8347   22.1887 O   0  0  0  0  0  0  0  0  0  0  0  0
   28.7755   41.5038   22.3414 C   0  0  1  0  0  0  0  0  0  0  0  0
   28.6633   41.3453   23.7395 O   0  0  0  0  0  0  0  0  0  0  0  0
   28.8677   40.1446   21.6340 C   0  0  1  0  0  0  0  0  0  0  0  0
   29.9725   39.4204   22.1279 O   0  0  0  0  0  0  0  0  0  0  0  0
   27.6081   39.3106   21.8055 C   0  0  0  0  0  0  0  0  0  0  0  0
   26.7827   37.1690   23.4534 N   0  0  0  0  0  0  0  0  0  0  0  0
   26.3134   36.1569   24.2657 C   0  0  0  0  0  0  0  0  0  0  0  0
   25.7488   36.4275   25.3293 O   0  0  0  0  0  0  0  0  0  0  0  0
   26.4880   34.8414   23.8861 N   0  0  0  0  0  0  0  0  0  0  0  0
   27.1285   34.5357   22.7000 C   0  0  0  0  0  0  0  0  0  0  0  0
   27.5972   35.5445   21.8845 C   0  0  1  0  0  0  0  0  0  0  0  0
   27.2826   33.3681   22.3456 O   0  0  0  0  0  0  0  0  0  0  0  0
   28.6974   36.2269   19.8799 C   0  0  2  0  0  0  0  0  0  0  0  0
   28.2306   35.2205   20.7005 N   0  0  0  0  0  0  0  0  0  0  0  0
   29.3383   35.9028   18.6866 C   0  0  0  0  0  0  0  0  0  0  0  0
   29.8193   36.9099   17.8558 C   0  0  1  0  0  0  0  0  0  0  0  0
   30.4993   36.5426   16.5657 C   0  0  0  0  0  0  0  0  0  0  0  0
   29.6527   38.2498   18.2240 C   0  0  1  0  0  0  0  0  0  0  0  0
   30.1472   39.3589   17.3420 C   0  0  0  0  0  0  0  0  0  0  0  0
   29.0113   38.5695   19.4170 C   0  0  0  0  0  0  0  0  0  0  0  0
   28.5310   37.5641   20.2528 C   0  0  2  0  0  0  0  0  0  0  0  0
   27.4223   36.8712   22.2611 C   0  0  2  0  0  0  0  0  0  0  0  0
   27.8989   37.8823   21.4489 N   0  0  0  0  0  0  0  0  0  0  0  0
  1  2  1  6  0  0  0
  1  3  1  0  0  0  0
  1  4  2  0  0  0  0
  1  6  1  0  0  0  0
  5  6  1  0  0  0  0
  7  5  1  6  0  0  0
  7  8  1  0  0  0  0
  7  9  1  0  0  0  0
  9 10  1  1  0  0  0
  9 11  1  0  0  0  0
 11 12  1  1  0  0  0
 11 13  1  0  0  0  0
 13 31  1  0  0  0  0
 14 15  1  0  0  0  0
 15 16  2  0  0  0  0
 15 17  1  0  0  0  0
 17 18  1  0  0  0  0
 18 20  2  0  0  0  0
 19 18  1  6  0  0  0
 19 22  1  0  0  0  0
 19 30  1  0  0  0  0
 21 23  1  1  0  0  0
 21 29  1  0  0  0  0
 21 22  1  0  0  0  0
 23 24  1  0  0  0  0
 24 25  1  6  0  0  0
 24 26  1  0  0  0  0
 26 27  1  6  0  0  0
 26 28  1  0  0  0  0
 29 28  1  1  0  0  0
 29 31  1  0  0  0  0
 30 14  1  1  0  0  0
 30 31  1  0  0  0  0
M  CHG  1   3  -1
M  END
>  <CHROM.1>
173.63910831,162.92831563,-45.28941708,-176.99780766,177.71041231,-163.77491875
-50.14683906,27.90924535,38.66103573,20.64555683,-1.30711859,-1.22208672
2.75891181

>  <Name>
ligand

>  <RI>
0

>  <Rbt.Current_Directory>
/home/itssahil/PROJECTS/Mol_Feturizer/New_Systems/rnas/3F2Q

>  <Rbt.Executable>
rbdock ($Id: //depot/dev/client3/rdock/2013.1/src/exe/rbdock.cxx#4 $)

>  <Rbt.Library>
libRbt.so (2013.1, Build901 2013/11/27)

>  <Rbt.Parameter_File>
/export/apps/rDock/src/rDock_2013.1_src/data/scripts/dock_solv.prm

>  <Rbt.Receptor>
prm/pocket_docking_4.prm

>  <SCORE>
-29.8422

>  <SCORE.INTER>
-27.2184

>  <SCORE.INTER.CONST>
1

>  <SCORE.INTER.POLAR>
0

>  <SCORE.INTER.ROT>
7

>  <SCORE.INTER.SOLV>
14.8868

>  <SCORE.INTER.VDW>
-31.3746

>  <SCORE.INTER.norm>
-0.878014

>  <SCORE.INTRA>
-2.62378

>  <SCORE.INTRA.DIHEDRAL>
-6.51136

>  <SCORE.INTRA.DIHEDRAL.0>
10.0718

>  <SCORE.INTRA.POLAR>
0

>  <SCORE.INTRA.POLAR.0>
0

>  <SCORE.INTRA.REPUL>
0

>  <SCORE.INTRA.REPUL.0>
0

>  <SCORE.INTRA.SOLV>
1.53904

>  <SCORE.INTRA.SOLV.lig_0>
-48.6963

>  <SCORE.INTRA.VDW>
-0.137624

>  <SCORE.INTRA.VDW.0>
-0.836976

>  <SCORE.INTRA.norm>
-0.0846381

>  <SCORE.RESTR>
0

>  <SCORE.RESTR.CAVITY>
0

>  <SCORE.RESTR.norm>
0

>  <SCORE.SYSTEM>
0

>  <SCORE.SYSTEM.CONST>
0

>  <SCORE.SYSTEM.DIHEDRAL>
0

>  <SCORE.SYSTEM.SOLV>
0

>  <SCORE.SYSTEM.norm>
0

>  <SCORE.heavy>
31

>  <SCORE.norm>
-0.962653

>  <RMSD>
4.820

$$$$
ligand
 OpenBabel11021811473D
libRbt.so/2013.1/901 2013/11/27
 31 33  0  0  0  0  0  0  0  0999 V2000
   26.1418   42.7852   16.4667 P   0  0  1  0  0  0  0  0  0  0  0  0
   27.1445   42.8839   15.3369 O   0  0  0  0  0  0  0  0  0  0  0  0
   26.6249   43.6600   17.5921 O   0  5  0  0  0  0  0  0  0  0  0  0
   24.7911   43.2589   16.0054 O   0  0  0  0  0  0  0  0  0  0  0  0
   27.0659   40.5658   17.4678 C   0  0  0  0  0  0  0  0  0  0  0  0
   25.9769   41.2534   16.9015 O   0  0  0  0  0  0  0  0  0  0  0  0
   26.6189   39.1672   17.8668 C   0  0  1  0  0  0  0  0  0  0  0  0
   26.5248   38.3744   16.7023 O   0  0  0  0  0  0  0  0  0  0  0  0
   27.6136   38.5527   18.8515 C   0  0  1  0  0  0  0  0  0  0  0  0
   28.8502   38.3391   18.2050 O   0  0  0  0  0  0  0  0  0  0  0  0
   27.7938   39.3694   20.1387 C   0  0  1  0  0  0  0  0  0  0  0  0
   26.5526   39.5160   20.7919 O   0  0  0  0  0  0  0  0  0  0  0  0
   28.7897   38.7362   21.0972 C   0  0  0  0  0  0  0  0  0  0  0  0
   27.5808   39.0440   23.6324 N   0  0  0  0  0  0  0  0  0  0  0  0
   26.9593   39.2576   24.8459 C   0  0  0  0  0  0  0  0  0  0  0  0
   27.0260   40.3633   25.3900 O   0  0  0  0  0  0  0  0  0  0  0  0
   26.2717   38.2250   25.4510 N   0  0  0  0  0  0  0  0  0  0  0  0
   26.2036   36.9831   24.8481 C   0  0  0  0  0  0  0  0  0  0  0  0
   26.8219   36.7663   23.6343 C   0  0  1  0  0  0  0  0  0  0  0  0
   25.5867   36.0571   25.3720 O   0  0  0  0  0  0  0  0  0  0  0  0
   27.3532   35.3002   21.8279 C   0  0  2  0  0  0  0  0  0  0  0  0
   26.7395   35.5201   23.0441 N   0  0  0  0  0  0  0  0  0  0  0  0
   27.2733   34.0440   21.2318 C   0  0  0  0  0  0  0  0  0  0  0  0
   27.8950   33.8099   20.0093 C   0  0  1  0  0  0  0  0  0  0  0  0
   27.7897   32.4507   19.3744 C   0  0  0  0  0  0  0  0  0  0  0  0
   28.5978   34.8440   19.3806 C   0  0  1  0  0  0  0  0  0  0  0  0
   29.2663   34.6269   18.0545 C   0  0  0  0  0  0  0  0  0  0  0  0
   28.6748   36.0980   19.9793 C   0  0  0  0  0  0  0  0  0  0  0  0
   28.0563   36.3355   21.2045 C   0  0  2  0  0  0  0  0  0  0  0  0
   27.5142   37.8033   23.0196 C   0  0  2  0  0  0  0  0  0  0  0  0
   28.1408   37.5847   21.8077 N   0  0  0  0  0  0  0  0  0  0  0  0
  1  2  1  6  0  0  0
  1  3  1  0  0  0  0
  1  4  2  0  0  0  0
  1  6  1  0  0  0  0
  5  6  1  0  0  0  0
  7  5  1  6  0  0  0
  7  8  1  0  0  0  0
  7  9  1  0  0  0  0
  9 10  1  6  0  0  0
  9 11  1  0  0  0  0
 11 12  1  1  0  0  0
 11 13  1  0  0  0  0
 13 31  1  0  0  0  0
 14 15  1  0  0  0  0
 15 16  2  0  0  0  0
 15 17  1  0  0  0  0
 17 18  1  0  0  0  0
 18 20  2  0  0  0  0
 19 18  1  6  0  0  0
 19 22  1  0  0  0  0
 19 30  1  0  0  0  0
 21 23  1  1  0  0  0
 21 29  1  0  0  0  0
 21 22  1  0  0  0  0
 23 24  1  0  0  0  0
 24 25  1  6  0  0  0
 24 26  1  0  0  0  0
 26 27  1  6  0  0  0
 26 28  1  0  0  0  0
 29 28  1  1  0  0  0
 29 31  1  0  0  0  0
 30 14  1  1  0  0  0
 30 31  1  0  0  0  0
M  CHG  1   3  -1
M  END
>  <CHROM.1>
176.48509806,64.96760059,76.19081409,-66.30739333,58.21838507,-77.35133328
82.19427160,27.15729659,38.44574483,20.22930824,1.94160832,1.31586918,-1.18504565

>  <Name>
ligand

>  <RI>
0

>  <Rbt.Current_Directory>
/home/itssahil/PROJECTS/Mol_Feturizer/New_Systems/rnas/3F2Q

>  <Rbt.Executable>
rbdock ($Id: //depot/dev/client3/rdock/2013.1/src/exe/rbdock.cxx#4 $)

>  <Rbt.Library>
libRbt.so (2013.1, Build901 2013/11/27)

>  <Rbt.Parameter_File>
/export/apps/rDock/src/rDock_2013.1_src/data/scripts/dock_solv.prm

>  <Rbt.Receptor>
prm/pocket_docking_5.prm

>  <SCORE>
-29.0071

>  <SCORE.INTER>
-23.5591

>  <SCORE.INTER.CONST>
1

>  <SCORE.INTER.POLAR>
0

>  <SCORE.INTER.ROT>
7

>  <SCORE.INTER.SOLV>
19.0655

>  <SCORE.INTER.VDW>
-30.3279

>  <SCORE.INTER.norm>
-0.759969

>  <SCORE.INTRA>
-5.44803

>  <SCORE.INTRA.DIHEDRAL>
-6.75362

>  <SCORE.INTRA.DIHEDRAL.0>
10.0718

>  <SCORE.INTRA.POLAR>
0

>  <SCORE.INTRA.POLAR.0>
0

>  <SCORE.INTRA.REPUL>
0

>  <SCORE.INTRA.REPUL.0>
0

>  <SCORE.INTRA.SOLV>
-1.22253

>  <SCORE.INTRA.SOLV.lig_0>
-48.6963

>  <SCORE.INTRA.VDW>
-1.45995

>  <SCORE.INTRA.VDW.0>
-0.836976

>  <SCORE.INTRA.norm>
-0.175743

>  <SCORE.RESTR>
0

>  <SCORE.RESTR.CAVITY>
0

>  <SCORE.RESTR.norm>
0

>  <SCORE.SYSTEM>
0

>  <SCORE.SYSTEM.CONST>
0

>  <SCORE.SYSTEM.DIHEDRAL>
0

>  <SCORE.SYSTEM.SOLV>
0

>  <SCORE.SYSTEM.norm>
0

>  <SCORE.heavy>
31

>  <SCORE.norm>
-0.935712

>  <RMSD>
4.823

$$$$
ligand
 OpenBabel11021811473D
libRbt.so/2013.1/901 2013/11/27
 31 33  0  0  0  0  0  0  0  0999 V2000
   25.4056   43.8065   15.8683 P   0  0  1  0  0  0  0  0  0  0  0  0
   24.1470   43.6544   15.0411 O   0  0  0  0  0  0  0  0  0  0  0  0
   26.5807   43.4746   14.9885 O   0  5  0  0  0  0  0  0  0  0  0  0
   25.5326   45.2201   16.3656 O   0  0  0  0  0  0  0  0  0  0  0  0
   26.4900   42.4609   17.8165 C   0  0  0  0  0  0  0  0  0  0  0  0
   25.3134   42.8633   17.1585 O   0  0  0  0  0  0  0  0  0  0  0  0
   26.1281   41.5073   18.9456 C   0  0  1  0  0  0  0  0  0  0  0  0
   25.1217   40.6287   18.4888 O   0  0  0  0  0  0  0  0  0  0  0  0
   27.3607   40.7207   19.3915 C   0  0  1  0  0  0  0  0  0  0  0  0
   28.2375   41.5730   20.0968 O   0  0  0  0  0  0  0  0  0  0  0  0
   27.0299   39.4645   20.2094 C   0  0  1  0  0  0  0  0  0  0  0  0
   26.3552   38.5280   19.3991 O   0  0  0  0  0  0  0  0  0  0  0  0
   28.2681   38.8106   20.8016 C   0  0  0  0  0  0  0  0  0  0  0  0
   27.3327   39.3232   23.4180 N   0  0  0  0  0  0  0  0  0  0  0  0
   26.8343   39.6291   24.6680 C   0  0  0  0  0  0  0  0  0  0  0  0
   26.8230   40.7989   25.0612 O   0  0  0  0  0  0  0  0  0  0  0  0
   26.3584   38.6183   25.4785 N   0  0  0  0  0  0  0  0  0  0  0  0
   26.3789   37.3063   25.0441 C   0  0  0  0  0  0  0  0  0  0  0  0
   26.8745   36.9969   23.7946 C   0  0  1  0  0  0  0  0  0  0  0  0
   25.9496   36.3973   25.7524 O   0  0  0  0  0  0  0  0  0  0  0  0
   27.3741   35.3675   22.1241 C   0  0  2  0  0  0  0  0  0  0  0  0
   26.8829   35.6808   23.3750 N   0  0  0  0  0  0  0  0  0  0  0  0
   27.3855   34.0411   21.6996 C   0  0  0  0  0  0  0  0  0  0  0  0
   27.8856   33.7138   20.4432 C   0  0  1  0  0  0  0  0  0  0  0  0
   27.8807   32.2779   19.9963 C   0  0  0  0  0  0  0  0  0  0  0  0
   28.3737   34.7246   19.6074 C   0  0  1  0  0  0  0  0  0  0  0  0
   28.9057   34.4052   18.2408 C   0  0  0  0  0  0  0  0  0  0  0  0
   28.3599   36.0490   20.0351 C   0  0  0  0  0  0  0  0  0  0  0  0
   27.8628   36.3803   21.2933 C   0  0  2  0  0  0  0  0  0  0  0  0
   27.3534   38.0113   22.9735 C   0  0  2  0  0  0  0  0  0  0  0  0
   27.8576   37.7013   21.7250 N   0  0  0  0  0  0  0  0  0  0  0  0
  1  2  1  6  0  0  0
  1  3  1  0  0  0  0
  1  4  2  0  0  0  0
  1  6  1  0  0  0  0
  5  6  1  0  0  0  0
  7  5  1  6  0  0  0
  7  8  1  0  0  0  0
  7  9  1  0  0  0  0
  9 10  1  1  0  0  0
  9 11  1  0  0  0  0
 11 12  1  6  0  0  0
 11 13  1  0  0  0  0
 13 31  1  0  0  0  0
 14 15  1  0  0  0  0
 15 16  2  0  0  0  0
 15 17  1  0  0  0  0
 17 18  1  0  0  0  0
 18 20  2  0  0  0  0
 19 18  1  6  0  0  0
 19 22  1  0  0  0  0
 19 30  1  0  0  0  0
 21 23  1  1  0  0  0
 21 29  1  0  0  0  0
 21 22  1  0  0  0  0
 23 24  1  0  0  0  0
 24 25  1  6  0  0  0
 24 26  1  0  0  0  0
 26 27  1  6  0  0  0
 26 28  1  0  0  0  0
 29 28  1  1  0  0  0
 29 31  1  0  0  0  0
 30 14  1  1  0  0  0
 30 31  1  0  0  0  0
M  CHG  1   3  -1
M  END
>  <CHROM.1>
-176.45274873,157.63624634,41.15878233,72.06586747,66.09609983,172.81570336
98.51291299,26.81292583,39.09091293,20.31526285,-2.34444042,-1.32328611,1.68476288

>  <Name>
ligand

>  <RI>
0

>  <Rbt.Current_Directory>
/home/itssahil/PROJECTS/Mol_Feturizer/New_Systems/rnas/3F2Q

>  <Rbt.Executable>
rbdock ($Id: //depot/dev/client3/rdock/2013.1/src/exe/rbdock.cxx#4 $)

>  <Rbt.Library>
libRbt.so (2013.1, Build901 2013/11/27)

>  <Rbt.Parameter_File>
/export/apps/rDock/src/rDock_2013.1_src/data/scripts/dock_solv.prm

>  <Rbt.Receptor>
prm/pocket_docking_2.prm

>  <SCORE>
-29.3362

>  <SCORE.INTER>
-25.6945

>  <SCORE.INTER.CONST>
1

>  <SCORE.INTER.POLAR>
0

>  <SCORE.INTER.ROT>
7

>  <SCORE.INTER.SOLV>
23.1283

>  <SCORE.INTER.VDW>
-33.1058

>  <SCORE.INTER.norm>
-0.828856

>  <SCORE.INTRA>
-4.17783

>  <SCORE.INTRA.DIHEDRAL>
-6.06616

>  <SCORE.INTRA.DIHEDRAL.0>
10.0718

>  <SCORE.INTRA.POLAR>
0

>  <SCORE.INTRA.POLAR.0>
0

>  <SCORE.INTRA.REPUL>
0

>  <SCORE.INTRA.REPUL.0>
0

>  <SCORE.INTRA.SOLV>
-0.712079

>  <SCORE.INTRA.SOLV.lig_0>
-48.6963

>  <SCORE.INTRA.VDW>
-0.788712

>  <SCORE.INTRA.VDW.0>
-0.836976

>  <SCORE.INTRA.norm>
-0.134769

>  <SCORE.RESTR>
0.53617

>  <SCORE.RESTR.CAVITY>
0.53617

>  <SCORE.RESTR.norm>
0.0172958

>  <SCORE.SYSTEM>
0

>  <SCORE.SYSTEM.CONST>
0

>  <SCORE.SYSTEM.DIHEDRAL>
0

>  <SCORE.SYSTEM.SOLV>
0

>  <SCORE.SYSTEM.norm>
0

>  <SCORE.heavy>
31

>  <SCORE.norm>
-0.946328

>  <RMSD>
4.824

$$$$
ligand
 OpenBabel11021811473D
libRbt.so/2013.1/901 2013/11/27
 31 33  0  0  0  0  0  0  0  0999 V2000
   32.4121   34.5952   15.2186 P   0  0  1  0  0  0  0  0  0  0  0  0
   33.8921   34.7701   14.9534 O   0  0  0  0  0  0  0  0  0  0  0  0
   31.6635   35.0952   14.0125 O   0  5  0  0  0  0  0  0  0  0  0  0
   32.0926   33.1428   15.4428 O   0  0  0  0  0  0  0  0  0  0  0  0
   32.0810   36.7787   16.5986 C   0  0  0  0  0  0  0  0  0  0  0  0
   32.0146   35.3740   16.5596 O   0  0  0  0  0  0  0  0  0  0  0  0
   31.6060   37.2623   17.9609 C   0  0  1  0  0  0  0  0  0  0  0  0
   32.0458   38.5910   18.1463 O   0  0  0  0  0  0  0  0  0  0  0  0
   30.0817   37.1878   18.0486 C   0  0  1  0  0  0  0  0  0  0  0  0
   29.6345   35.9661   17.5010 O   0  0  0  0  0  0  0  0  0  0  0  0
   29.5333   37.3942   19.4674 C   0  0  1  0  0  0  0  0  0  0  0  0
   29.7854   38.7151   19.8921 O   0  0  0  0  0  0  0  0  0  0  0  0
   28.0417   37.1160   19.5629 C   0  0  0  0  0  0  0  0  0  0  0  0
   28.1675   34.3517   18.9918 N   0  0  0  0  0  0  0  0  0  0  0  0
   28.2913   33.0145   18.6737 C   0  0  0  0  0  0  0  0  0  0  0  0
   28.5055   32.6723   17.5075 O   0  0  0  0  0  0  0  0  0  0  0  0
   28.1643   32.0631   19.6656 N   0  0  0  0  0  0  0  0  0  0  0  0
   27.9149   32.4435   20.9708 C   0  0  0  0  0  0  0  0  0  0  0  0
   27.7924   33.7791   21.2929 C   0  0  1  0  0  0  0  0  0  0  0  0
   27.8085   31.6066   21.8656 O   0  0  0  0  0  0  0  0  0  0  0  0
   27.4286   35.4764   22.9303 C   0  0  2  0  0  0  0  0  0  0  0  0
   27.5478   34.1412   22.6033 N   0  0  0  0  0  0  0  0  0  0  0  0
   27.1800   35.8439   24.2505 C   0  0  0  0  0  0  0  0  0  0  0  0
   27.0506   37.1872   24.5894 C   0  0  1  0  0  0  0  0  0  0  0  0
   26.7929   37.5671   26.0214 C   0  0  0  0  0  0  0  0  0  0  0  0
   27.1751   38.1666   23.5975 C   0  0  1  0  0  0  0  0  0  0  0  0
   27.0555   39.6244   23.9342 C   0  0  0  0  0  0  0  0  0  0  0  0
   27.4242   37.7953   22.2796 C   0  0  0  0  0  0  0  0  0  0  0  0
   27.5514   36.4515   21.9358 C   0  0  2  0  0  0  0  0  0  0  0  0
   27.9213   34.7416   20.2981 C   0  0  2  0  0  0  0  0  0  0  0  0
   27.7905   36.0793   20.6184 N   0  0  0  0  0  0  0  0  0  0  0  0
  1  2  1  6  0  0  0
  1  3  1  0  0  0  0
  1  4  2  0  0  0  0
  1  6  1  0  0  0  0
  5  6  1  0  0  0  0
  7  5  1  6  0  0  0
  7  8  1  0  0  0  0
  7  9  1  0  0  0  0
  9 10  1  1  0  0  0
  9 11  1  0  0  0  0
 11 12  1  6  0  0  0
 11 13  1  0  0  0  0
 13 31  1  0  0  0  0
 14 15  1  0  0  0  0
 15 16  2  0  0  0  0
 15 17  1  0  0  0  0
 17 18  1  0  0  0  0
 18 20  2  0  0  0  0
 19 18  1  1  0  0  0
 19 22  1  0  0  0  0
 19 30  1  0  0  0  0
 21 23  1  6  0  0  0
 21 29  1  0  0  0  0
 21 22  1  0  0  0  0
 23 24  1  0  0  0  0
 24 25  1  1  0  0  0
 24 26  1  0  0  0  0
 26 27  1  1  0  0  0
 26 28  1  0  0  0  0
 29 28  1  6  0  0  0
 29 31  1  0  0  0  0
 30 14  1  6  0  0  0
 30 31  1  0  0  0  0
M  CHG  1   3  -1
M  END
>  <CHROM.1>
177.96260199,66.78930332,162.40153054,43.56218755,66.46152490,124.15127495
90.59751633,29.35473544,35.59329826,19.50772690,0.50716747,-0.93396094,-2.73894417

>  <Name>
ligand

>  <RI>
0

>  <Rbt.Current_Directory>
/home/itssahil/PROJECTS/Mol_Feturizer/New_Systems/rnas/3F2Q

>  <Rbt.Executable>
rbdock ($Id: //depot/dev/client3/rdock/2013.1/src/exe/rbdock.cxx#4 $)

>  <Rbt.Library>
libRbt.so (2013.1, Build901 2013/11/27)

>  <Rbt.Parameter_File>
/export/apps/rDock/src/rDock_2013.1_src/data/scripts/dock_solv.prm

>  <Rbt.Receptor>
prm/blind_docking_60.prm

>  <SCORE>
-32.2802

>  <SCORE.INTER>
-30.1399

>  <SCORE.INTER.CONST>
1

>  <SCORE.INTER.POLAR>
0

>  <SCORE.INTER.ROT>
7

>  <SCORE.INTER.SOLV>
12.9873

>  <SCORE.INTER.VDW>
-32.6891

>  <SCORE.INTER.norm>
-0.972256

>  <SCORE.INTRA>
-2.14028

>  <SCORE.INTRA.DIHEDRAL>
-1.5454

>  <SCORE.INTRA.DIHEDRAL.0>
10.0718

>  <SCORE.INTRA.POLAR>
0

>  <SCORE.INTRA.POLAR.0>
0

>  <SCORE.INTRA.REPUL>
0

>  <SCORE.INTRA.REPUL.0>
0

>  <SCORE.INTRA.SOLV>
-0.333383

>  <SCORE.INTRA.SOLV.lig_0>
-48.6963

>  <SCORE.INTRA.VDW>
-1.20089

>  <SCORE.INTRA.VDW.0>
-0.836976

>  <SCORE.INTRA.norm>
-0.0690412

>  <SCORE.RESTR>
0

>  <SCORE.RESTR.CAVITY>
0

>  <SCORE.RESTR.norm>
0

>  <SCORE.SYSTEM>
0

>  <SCORE.SYSTEM.CONST>
0

>  <SCORE.SYSTEM.DIHEDRAL>
0

>  <SCORE.SYSTEM.SOLV>
0

>  <SCORE.SYSTEM.norm>
0

>  <SCORE.heavy>
31

>  <SCORE.norm>
-1.0413

>  <RMSD>
4.827

$$$$
ligand
 OpenBabel11021811473D
libRbt.so/2013.1/901 2013/11/27
 31 33  0  0  0  0  0  0  0  0999 V2000
   25.3212   43.0906   16.4605 P   0  0  1  0  0  0  0  0  0  0  0  0
   26.1376   42.3450   15.4266 O   0  0  0  0  0  0  0  0  0  0  0  0
   24.6612   44.2571   15.7758 O   0  5  0  0  0  0  0  0  0  0  0  0
   24.2688   42.1870   17.0417 O   0  0  0  0  0  0  0  0  0  0  0  0
   27.3390   42.7126   18.0628 C   0  0  0  0  0  0  0  0  0  0  0  0
   26.2712   43.5394   17.6682 O   0  0  0  0  0  0  0  0  0  0  0  0
   26.7823   41.4717   18.7453 C   0  0  1  0  0  0  0  0  0  0  0  0
   26.3500   40.5663   17.7520 O   0  0  0  0  0  0  0  0  0  0  0  0
   27.8514   40.8261   19.6267 C   0  0  1  0  0  0  0  0  0  0  0  0
   28.2743   41.7463   20.6101 O   0  0  0  0  0  0  0  0  0  0  0  0
   27.4114   39.4992   20.2606 C   0  0  1  0  0  0  0  0  0  0  0  0
   26.9184   38.6313   19.2643 O   0  0  0  0  0  0  0  0  0  0  0  0
   28.5392   38.8079   21.0102 C   0  0  0  0  0  0  0  0  0  0  0  0
   27.3987   39.1597   23.5712 N   0  0  0  0  0  0  0  0  0  0  0  0
   26.8060   39.3916   24.7957 C   0  0  0  0  0  0  0  0  0  0  0  0
   26.8215   40.5236   25.2872 O   0  0  0  0  0  0  0  0  0  0  0  0
   26.2049   38.3485   25.4709 N   0  0  0  0  0  0  0  0  0  0  0  0
   26.1947   37.0779   24.9269 C   0  0  0  0  0  0  0  0  0  0  0  0
   26.7844   36.8426   23.7024 C   0  0  1  0  0  0  0  0  0  0  0  0
   25.6548   36.1415   25.5137 O   0  0  0  0  0  0  0  0  0  0  0  0
   27.3457   35.3287   21.9452 C   0  0  2  0  0  0  0  0  0  0  0  0
   26.7604   35.5674   23.1718 N   0  0  0  0  0  0  0  0  0  0  0  0
   27.3247   34.0434   21.4091 C   0  0  0  0  0  0  0  0  0  0  0  0
   27.9186   33.7907   20.1765 C   0  0  1  0  0  0  0  0  0  0  0  0
   27.8775   32.3994   19.6072 C   0  0  0  0  0  0  0  0  0  0  0  0
   28.5340   34.8352   19.4772 C   0  0  1  0  0  0  0  0  0  0  0  0
   29.1700   34.5974   18.1388 C   0  0  0  0  0  0  0  0  0  0  0  0
   28.5523   36.1182   20.0161 C   0  0  0  0  0  0  0  0  0  0  0  0
   27.9614   36.3746   21.2511 C   0  0  2  0  0  0  0  0  0  0  0  0
   27.3895   37.8900   23.0173 C   0  0  2  0  0  0  0  0  0  0  0  0
   27.9877   37.6535   21.7945 N   0  0  0  0  0  0  0  0  0  0  0  0
  1  2  1  6  0  0  0
  1  3  1  0  0  0  0
  1  4  2  0  0  0  0
  1  6  1  0  0  0  0
  5  6  1  0  0  0  0
  7  5  1  6  0  0  0
  7  8  1  0  0  0  0
  7  9  1  0  0  0  0
  9 10  1  1  0  0  0
  9 11  1  0  0  0  0
 11 12  1  6  0  0  0
 11 13  1  0  0  0  0
 13 31  1  0  0  0  0
 14 15  1  0  0  0  0
 15 16  2  0  0  0  0
 15 17  1  0  0  0  0
 17 18  1  0  0  0  0
 18 20  2  0  0  0  0
 19 18  1  6  0  0  0
 19 22  1  0  0  0  0
 19 30  1  0  0  0  0
 21 23  1  1  0  0  0
 21 29  1  0  0  0  0
 21 22  1  0  0  0  0
 23 24  1  0  0  0  0
 24 25  1  6  0  0  0
 24 26  1  0  0  0  0
 26 27  1  6  0  0  0
 26 28  1  0  0  0  0
 29 28  1  1  0  0  0
 29 31  1  0  0  0  0
 30 14  1  1  0  0  0
 30 31  1  0  0  0  0
M  CHG  1   3  -1
M  END
>  <CHROM.1>
-70.76123746,-34.64292156,79.87704438,59.72254739,52.06934996,170.30571189
92.87641228,26.94248059,38.91586155,20.40187425,-2.27057367,-1.31887547,1.76179371

>  <Name>
ligand

>  <RI>
0

>  <Rbt.Current_Directory>
/home/itssahil/PROJECTS/Mol_Feturizer/New_Systems/rnas/3F2Q

>  <Rbt.Executable>
rbdock ($Id: //depot/dev/client3/rdock/2013.1/src/exe/rbdock.cxx#4 $)

>  <Rbt.Library>
libRbt.so (2013.1, Build901 2013/11/27)

>  <Rbt.Parameter_File>
/export/apps/rDock/src/rDock_2013.1_src/data/scripts/dock_solv.prm

>  <Rbt.Receptor>
prm/pocket_docking_4.prm

>  <SCORE>
-29.9536

>  <SCORE.INTER>
-26.8392

>  <SCORE.INTER.CONST>
1

>  <SCORE.INTER.POLAR>
0

>  <SCORE.INTER.ROT>
7

>  <SCORE.INTER.SOLV>
18.6076

>  <SCORE.INTER.VDW>
-32.362

>  <SCORE.INTER.norm>
-0.865781

>  <SCORE.INTRA>
-3.11686

>  <SCORE.INTRA.DIHEDRAL>
-5.57727

>  <SCORE.INTRA.DIHEDRAL.0>
10.0718

>  <SCORE.INTRA.POLAR>
0

>  <SCORE.INTRA.POLAR.0>
0

>  <SCORE.INTRA.REPUL>
0

>  <SCORE.INTRA.REPUL.0>
0

>  <SCORE.INTRA.SOLV>
1.24539

>  <SCORE.INTRA.SOLV.lig_0>
-48.6963

>  <SCORE.INTRA.VDW>
-0.950921

>  <SCORE.INTRA.VDW.0>
-0.836976

>  <SCORE.INTRA.norm>
-0.100544

>  <SCORE.RESTR>
0.00249594

>  <SCORE.RESTR.CAVITY>
0.00249594

>  <SCORE.RESTR.norm>
8.05142e-05

>  <SCORE.SYSTEM>
0

>  <SCORE.SYSTEM.CONST>
0

>  <SCORE.SYSTEM.DIHEDRAL>
0

>  <SCORE.SYSTEM.SOLV>
0

>  <SCORE.SYSTEM.norm>
0

>  <SCORE.heavy>
31

>  <SCORE.norm>
-0.966244

>  <RMSD>
4.836

$$$$
ligand
 OpenBabel11021811473D
libRbt.so/2013.1/901 2013/11/27
 31 33  0  0  0  0  0  0  0  0999 V2000
   27.2351   41.8629   16.8837 P   0  0  1  0  0  0  0  0  0  0  0  0
   26.3411   41.8669   15.6621 O   0  0  0  0  0  0  0  0  0  0  0  0
   27.8704   43.2226   16.9967 O   0  5  0  0  0  0  0  0  0  0  0  0
   26.4251   41.5817   18.1193 O   0  0  0  0  0  0  0  0  0  0  0  0
   29.3698   40.5996   17.6766 C   0  0  0  0  0  0  0  0  0  0  0  0
   28.3123   40.6861   16.7527 O   0  0  0  0  0  0  0  0  0  0  0  0
   30.3154   39.4869   17.2488 C   0  0  1  0  0  0  0  0  0  0  0  0
   31.5162   39.6089   17.9814 O   0  0  0  0  0  0  0  0  0  0  0  0
   29.6751   38.1213   17.4977 C   0  0  1  0  0  0  0  0  0  0  0  0
   30.4378   37.1173   16.8633 O   0  0  0  0  0  0  0  0  0  0  0  0
   29.4611   37.8005   18.9836 C   0  0  1  0  0  0  0  0  0  0  0  0
   30.1159   38.7615   19.7814 O   0  0  0  0  0  0  0  0  0  0  0  0
   27.9900   37.7549   19.3650 C   0  0  0  0  0  0  0  0  0  0  0  0
   27.6983   39.4604   21.5987 N   0  0  0  0  0  0  0  0  0  0  0  0
   27.5072   40.3338   22.6499 C   0  0  0  0  0  0  0  0  0  0  0  0
   27.5552   41.5523   22.4596 O   0  0  0  0  0  0  0  0  0  0  0  0
   27.2721   39.8363   23.9158 N   0  0  0  0  0  0  0  0  0  0  0  0
   27.2274   38.4720   24.1330 C   0  0  0  0  0  0  0  0  0  0  0  0
   27.4160   37.5959   23.0845 C   0  0  1  0  0  0  0  0  0  0  0  0
   27.0098   38.0155   25.2541 O   0  0  0  0  0  0  0  0  0  0  0  0
   27.5475   35.3559   22.2723 C   0  0  2  0  0  0  0  0  0  0  0  0
   27.3633   36.2356   23.3193 N   0  0  0  0  0  0  0  0  0  0  0  0
   27.4968   33.9839   22.5068 C   0  0  0  0  0  0  0  0  0  0  0  0
   27.6887   33.0885   21.4594 C   0  0  1  0  0  0  0  0  0  0  0  0
   27.6201   31.6104   21.7281 C   0  0  0  0  0  0  0  0  0  0  0  0
   27.9295   33.5736   20.1689 C   0  0  1  0  0  0  0  0  0  0  0  0
   28.1255   32.6332   19.0158 C   0  0  0  0  0  0  0  0  0  0  0  0
   27.9787   34.9453   19.9386 C   0  0  0  0  0  0  0  0  0  0  0  0
   27.7900   35.8449   20.9851 C   0  0  2  0  0  0  0  0  0  0  0  0
   27.6513   38.0916   21.8072 C   0  0  2  0  0  0  0  0  0  0  0  0
   27.8487   37.2148   20.7578 N   0  0  0  0  0  0  0  0  0  0  0  0
  1  2  1  6  0  0  0
  1  3  1  0  0  0  0
  1  4  2  0  0  0  0
  1  6  1  0  0  0  0
  5  6  1  0  0  0  0
  7  5  1  1  0  0  0
  7  8  1  0  0  0  0
  7  9  1  0  0  0  0
  9 10  1  1  0  0  0
  9 11  1  0  0  0  0
 11 12  1  1  0  0  0
 11 13  1  0  0  0  0
 13 31  1  0  0  0  0
 14 15  1  0  0  0  0
 15 16  2  0  0  0  0
 15 17  1  0  0  0  0
 17 18  1  0  0  0  0
 18 20  2  0  0  0  0
 19 18  1  6  0  0  0
 19 22  1  0  0  0  0
 19 30  1  0  0  0  0
 21 23  1  1  0  0  0
 21 29  1  0  0  0  0
 21 22  1  0  0  0  0
 23 24  1  0  0  0  0
 24 25  1  6  0  0  0
 24 26  1  0  0  0  0
 26 27  1  6  0  0  0
 26 28  1  0  0  0  0
 29 28  1  1  0  0  0
 29 31  1  0  0  0  0
 30 14  1  1  0  0  0
 30 31  1  0  0  0  0
M  CHG  1   3  -1
M  END
>  <CHROM.1>
-174.49002163,171.15599671,166.35119653,168.54959025,-9.75542612,170.54854916
-85.78796294,28.10968785,38.23767749,19.98235670,-1.37420925,-1.27231993
2.69597866

>  <Name>
ligand

>  <RI>
0

>  <Rbt.Current_Directory>
/home/itssahil/PROJECTS/Mol_Feturizer/New_Systems/rnas/3F2Q

>  <Rbt.Executable>
rbdock ($Id: //depot/dev/client3/rdock/2013.1/src/exe/rbdock.cxx#4 $)

>  <Rbt.Library>
libRbt.so (2013.1, Build901 2013/11/27)

>  <Rbt.Parameter_File>
/export/apps/rDock/src/rDock_2013.1_src/data/scripts/dock_solv.prm

>  <Rbt.Receptor>
prm/blind_docking_80.prm

>  <SCORE>
-24.078

>  <SCORE.INTER>
-22.8641

>  <SCORE.INTER.CONST>
1

>  <SCORE.INTER.POLAR>
0

>  <SCORE.INTER.ROT>
7

>  <SCORE.INTER.SOLV>
14.8625

>  <SCORE.INTER.VDW>
-28.4635

>  <SCORE.INTER.norm>
-0.73755

>  <SCORE.INTRA>
-1.22333

>  <SCORE.INTRA.DIHEDRAL>
-1.91643

>  <SCORE.INTRA.DIHEDRAL.0>
10.0718

>  <SCORE.INTRA.POLAR>
0

>  <SCORE.INTRA.POLAR.0>
0

>  <SCORE.INTRA.REPUL>
0

>  <SCORE.INTRA.REPUL.0>
0

>  <SCORE.INTRA.SOLV>
-0.335836

>  <SCORE.INTRA.SOLV.lig_0>
-48.6963

>  <SCORE.INTRA.VDW>
-0.097201

>  <SCORE.INTRA.VDW.0>
-0.836976

>  <SCORE.INTRA.norm>
-0.0394624

>  <SCORE.RESTR>
0.00944121

>  <SCORE.RESTR.CAVITY>
0.00944121

>  <SCORE.RESTR.norm>
0.000304555

>  <SCORE.SYSTEM>
0

>  <SCORE.SYSTEM.CONST>
0

>  <SCORE.SYSTEM.DIHEDRAL>
0

>  <SCORE.SYSTEM.SOLV>
0

>  <SCORE.SYSTEM.norm>
0

>  <SCORE.heavy>
31

>  <SCORE.norm>
-0.776708

>  <RMSD>
4.841

$$$$
ligand
 OpenBabel11021811473D
libRbt.so/2013.1/901 2013/11/27
 31 33  0  0  0  0  0  0  0  0999 V2000
   25.6922   43.3912   16.1159 P   0  0  1  0  0  0  0  0  0  0  0  0
   25.9165   44.4330   17.1911 O   0  0  0  0  0  0  0  0  0  0  0  0
   24.2570   43.4852   15.6726 O   0  5  0  0  0  0  0  0  0  0  0  0
   26.5988   43.6504   14.9443 O   0  0  0  0  0  0  0  0  0  0  0  0
   27.3842   41.6808   17.1124 C   0  0  0  0  0  0  0  0  0  0  0  0
   26.0691   41.9444   16.6879 O   0  0  0  0  0  0  0  0  0  0  0  0
   27.4238   40.3225   17.7972 C   0  0  1  0  0  0  0  0  0  0  0  0
   28.7718   39.9251   17.9331 O   0  0  0  0  0  0  0  0  0  0  0  0
   26.7496   40.3990   19.1670 C   0  0  1  0  0  0  0  0  0  0  0  0
   25.4577   40.9507   19.0294 O   0  0  0  0  0  0  0  0  0  0  0  0
   26.7038   39.0561   19.9093 C   0  0  1  0  0  0  0  0  0  0  0  0
   26.4043   38.0171   19.0039 O   0  0  0  0  0  0  0  0  0  0  0  0
   28.0094   38.7370   20.6200 C   0  0  0  0  0  0  0  0  0  0  0  0
   27.3723   39.5400   23.2530 N   0  0  0  0  0  0  0  0  0  0  0  0
   27.0145   39.9828   24.5101 C   0  0  0  0  0  0  0  0  0  0  0  0
   27.0031   41.1911   24.7614 O   0  0  0  0  0  0  0  0  0  0  0  0
   26.6793   39.0663   25.4862 N   0  0  0  0  0  0  0  0  0  0  0  0
   26.7006   37.7121   25.2099 C   0  0  0  0  0  0  0  0  0  0  0  0
   27.0558   37.2658   23.9541 C   0  0  1  0  0  0  0  0  0  0  0  0
   26.3955   36.8853   26.0676 O   0  0  0  0  0  0  0  0  0  0  0  0
   27.4180   35.4586   22.4382 C   0  0  2  0  0  0  0  0  0  0  0  0
   27.0670   35.9091   23.6944 N   0  0  0  0  0  0  0  0  0  0  0  0
   27.4319   34.0911   22.1745 C   0  0  0  0  0  0  0  0  0  0  0  0
   27.7917   33.6263   20.9134 C   0  0  1  0  0  0  0  0  0  0  0  0
   27.7911   32.1471   20.6425 C   0  0  0  0  0  0  0  0  0  0  0  0
   28.1358   34.5402   19.9108 C   0  0  1  0  0  0  0  0  0  0  0  0
   28.5137   34.0706   18.5363 C   0  0  0  0  0  0  0  0  0  0  0  0
   28.1200   35.9059   20.1782 C   0  0  0  0  0  0  0  0  0  0  0  0
   27.7633   36.3750   21.4402 C   0  0  2  0  0  0  0  0  0  0  0  0
   27.3925   38.1847   22.9668 C   0  0  2  0  0  0  0  0  0  0  0  0
   27.7565   37.7381   21.7109 N   0  0  0  0  0  0  0  0  0  0  0  0
  1  2  1  1  0  0  0
  1  3  1  0  0  0  0
  1  4  2  0  0  0  0
  1  6  1  0  0  0  0
  5  6  1  0  0  0  0
  7  5  1  1  0  0  0
  7  8  1  0  0  0  0
  7  9  1  0  0  0  0
  9 10  1  6  0  0  0
  9 11  1  0  0  0  0
 11 12  1  6  0  0  0
 11 13  1  0  0  0  0
 13 31  1  0  0  0  0
 14 15  1  0  0  0  0
 15 16  2  0  0  0  0
 15 17  1  0  0  0  0
 17 18  1  0  0  0  0
 18 20  2  0  0  0  0
 19 18  1  6  0  0  0
 19 22  1  0  0  0  0
 19 30  1  0  0  0  0
 21 23  1  1  0  0  0
 21 29  1  0  0  0  0
 21 22  1  0  0  0  0
 23 24  1  0  0  0  0
 24 25  1  6  0  0  0
 24 26  1  0  0  0  0
 26 27  1  6  0  0  0
 26 28  1  0  0  0  0
 29 28  1  1  0  0  0
 29 31  1  0  0  0  0
 30 14  1  1  0  0  0
 30 31  1  0  0  0  0
M  CHG  1   3  -1
M  END
>  <CHROM.1>
171.56270801,-61.55571893,166.23644900,52.86831515,-40.38722202,158.64801673
86.32334303,26.96492035,38.92324442,20.30835707,2.26546780,1.34694922,-1.43267593

>  <Name>
ligand

>  <RI>
0

>  <Rbt.Current_Directory>
/home/itssahil/PROJECTS/Mol_Feturizer/New_Systems/rnas/3F2Q

>  <Rbt.Executable>
rbdock ($Id: //depot/dev/client3/rdock/2013.1/src/exe/rbdock.cxx#4 $)

>  <Rbt.Library>
libRbt.so (2013.1, Build901 2013/11/27)

>  <Rbt.Parameter_File>
/export/apps/rDock/src/rDock_2013.1_src/data/scripts/dock_solv.prm

>  <Rbt.Receptor>
prm/pocket_docking_3.prm

>  <SCORE>
-30.4547

>  <SCORE.INTER>
-26.5294

>  <SCORE.INTER.CONST>
1

>  <SCORE.INTER.POLAR>
0

>  <SCORE.INTER.ROT>
7

>  <SCORE.INTER.SOLV>
20.0014

>  <SCORE.INTER.VDW>
-32.62

>  <SCORE.INTER.norm>
-0.855786

>  <SCORE.INTRA>
-3.9253

>  <SCORE.INTRA.DIHEDRAL>
-5.0045

>  <SCORE.INTRA.DIHEDRAL.0>
10.0718

>  <SCORE.INTRA.POLAR>
0

>  <SCORE.INTRA.POLAR.0>
0

>  <SCORE.INTRA.REPUL>
0

>  <SCORE.INTRA.REPUL.0>
0

>  <SCORE.INTRA.SOLV>
-0.60807

>  <SCORE.INTRA.SOLV.lig_0>
-48.6963

>  <SCORE.INTRA.VDW>
-1.11902

>  <SCORE.INTRA.VDW.0>
-0.836976

>  <SCORE.INTRA.norm>
-0.126623

>  <SCORE.RESTR>
0

>  <SCORE.RESTR.CAVITY>
0

>  <SCORE.RESTR.norm>
0

>  <SCORE.SYSTEM>
0

>  <SCORE.SYSTEM.CONST>
0

>  <SCORE.SYSTEM.DIHEDRAL>
0

>  <SCORE.SYSTEM.SOLV>
0

>  <SCORE.SYSTEM.norm>
0

>  <SCORE.heavy>
31

>  <SCORE.norm>
-0.982409

>  <RMSD>
4.843

$$$$
ligand
 OpenBabel11021811473D
libRbt.so/2013.1/901 2013/11/27
 31 33  0  0  0  0  0  0  0  0999 V2000
   25.6590   43.5845   16.3362 P   0  0  1  0  0  0  0  0  0  0  0  0
   26.4278   43.0704   15.1378 O   0  0  0  0  0  0  0  0  0  0  0  0
   25.7160   45.0882   16.3124 O   0  5  0  0  0  0  0  0  0  0  0  0
   24.2258   43.1340   16.2662 O   0  0  0  0  0  0  0  0  0  0  0  0
   26.1270   41.5912   17.9455 C   0  0  0  0  0  0  0  0  0  0  0  0
   26.2797   42.9634   17.6747 O   0  0  0  0  0  0  0  0  0  0  0  0
   26.6026   41.3072   19.3627 C   0  0  1  0  0  0  0  0  0  0  0  0
   26.2623   42.4060   20.1813 O   0  0  0  0  0  0  0  0  0  0  0  0
   25.9568   40.0270   19.8926 C   0  0  1  0  0  0  0  0  0  0  0  0
   24.5882   40.0084   19.5475 O   0  0  0  0  0  0  0  0  0  0  0  0
   26.6626   38.7431   19.4344 C   0  0  1  0  0  0  0  0  0  0  0  0
   26.9071   38.7989   18.0466 O   0  0  0  0  0  0  0  0  0  0  0  0
   27.9760   38.5071   20.1629 C   0  0  0  0  0  0  0  0  0  0  0  0
   27.4012   39.7658   22.6264 N   0  0  0  0  0  0  0  0  0  0  0  0
   27.0744   40.4265   23.7930 C   0  0  0  0  0  0  0  0  0  0  0  0
   27.0917   41.6599   23.8322 O   0  0  0  0  0  0  0  0  0  0  0  0
   26.7379   39.6996   24.9171 N   0  0  0  0  0  0  0  0  0  0  0  0
   26.7271   38.3180   24.8783 C   0  0  0  0  0  0  0  0  0  0  0  0
   27.0513   37.6540   23.7136 C   0  0  1  0  0  0  0  0  0  0  0  0
   26.4204   37.6584   25.8699 O   0  0  0  0  0  0  0  0  0  0  0  0
   27.3505   35.6051   22.5273 C   0  0  2  0  0  0  0  0  0  0  0  0
   27.0307   36.2730   23.6917 N   0  0  0  0  0  0  0  0  0  0  0  0
   27.3324   34.2127   22.5034 C   0  0  0  0  0  0  0  0  0  0  0  0
   27.6606   33.5296   21.3365 C   0  0  1  0  0  0  0  0  0  0  0  0
   27.6256   32.0262   21.3249 C   0  0  0  0  0  0  0  0  0  0  0  0
   28.0055   34.2490   20.1867 C   0  0  1  0  0  0  0  0  0  0  0  0
   28.3499   33.5413   18.9088 C   0  0  0  0  0  0  0  0  0  0  0  0
   28.0218   35.6404   20.2146 C   0  0  0  0  0  0  0  0  0  0  0  0
   27.6968   36.3278   21.3816 C   0  0  2  0  0  0  0  0  0  0  0  0
   27.3892   38.3813   22.5780 C   0  0  2  0  0  0  0  0  0  0  0  0
   27.7222   37.7170   21.4131 N   0  0  0  0  0  0  0  0  0  0  0  0
  1  2  1  6  0  0  0
  1  3  1  0  0  0  0
  1  4  2  0  0  0  0
  1  6  1  0  0  0  0
  5  6  1  0  0  0  0
  7  5  1  6  0  0  0
  7  8  1  0  0  0  0
  7  9  1  0  0  0  0
  9 10  1  6  0  0  0
  9 11  1  0  0  0  0
 11 12  1  6  0  0  0
 11 13  1  0  0  0  0
 13 31  1  0  0  0  0
 14 15  1  0  0  0  0
 15 16  2  0  0  0  0
 15 17  1  0  0  0  0
 17 18  1  0  0  0  0
 18 20  2  0  0  0  0
 19 18  1  6  0  0  0
 19 22  1  0  0  0  0
 19 30  1  0  0  0  0
 21 23  1  1  0  0  0
 21 29  1  0  0  0  0
 21 22  1  0  0  0  0
 23 24  1  0  0  0  0
 24 25  1  6  0  0  0
 24 26  1  0  0  0  0
 26 27  1  6  0  0  0
 26 28  1  0  0  0  0
 29 28  1  1  0  0  0
 29 31  1  0  0  0  0
 30 14  1  1  0  0  0
 30 31  1  0  0  0  0
M  CHG  1   3  -1
M  END
>  <CHROM.1>
-170.94507553,-69.27436380,35.83388142,-43.10583117,-47.21510059,89.03504587
87.00002956,26.74441398,39.13692473,20.41739437,-2.68439609,-1.37007063,1.41078912

>  <Name>
ligand

>  <RI>
0

>  <Rbt.Current_Directory>
/home/itssahil/PROJECTS/Mol_Feturizer/New_Systems/rnas/3F2Q

>  <Rbt.Executable>
rbdock ($Id: //depot/dev/client3/rdock/2013.1/src/exe/rbdock.cxx#4 $)

>  <Rbt.Library>
libRbt.so (2013.1, Build901 2013/11/27)

>  <Rbt.Parameter_File>
/export/apps/rDock/src/rDock_2013.1_src/data/scripts/dock_solv.prm

>  <Rbt.Receptor>
prm/pocket_docking_4.prm

>  <SCORE>
-27.7776

>  <SCORE.INTER>
-25.3067

>  <SCORE.INTER.CONST>
1

>  <SCORE.INTER.POLAR>
0

>  <SCORE.INTER.ROT>
7

>  <SCORE.INTER.SOLV>
19.0679

>  <SCORE.INTER.VDW>
-31.4938

>  <SCORE.INTER.norm>
-0.816345

>  <SCORE.INTRA>
-2.47092

>  <SCORE.INTRA.DIHEDRAL>
-2.53026

>  <SCORE.INTRA.DIHEDRAL.0>
10.0718

>  <SCORE.INTRA.POLAR>
0

>  <SCORE.INTRA.POLAR.0>
0

>  <SCORE.INTRA.REPUL>
0

>  <SCORE.INTRA.REPUL.0>
0

>  <SCORE.INTRA.SOLV>
-1.07763

>  <SCORE.INTRA.SOLV.lig_0>
-48.6963

>  <SCORE.INTRA.VDW>
-0.666977

>  <SCORE.INTRA.VDW.0>
-0.836976

>  <SCORE.INTRA.norm>
-0.0797072

>  <SCORE.RESTR>
0

>  <SCORE.RESTR.CAVITY>
0

>  <SCORE.RESTR.norm>
0

>  <SCORE.SYSTEM>
0

>  <SCORE.SYSTEM.CONST>
0

>  <SCORE.SYSTEM.DIHEDRAL>
0

>  <SCORE.SYSTEM.SOLV>
0

>  <SCORE.SYSTEM.norm>
0

>  <SCORE.heavy>
31

>  <SCORE.norm>
-0.896053

>  <RMSD>
4.845

$$$$
ligand
 OpenBabel11021811473D
libRbt.so/2013.1/901 2013/11/27
 31 33  0  0  0  0  0  0  0  0999 V2000
   27.0240   42.6983   17.3091 P   0  0  1  0  0  0  0  0  0  0  0  0
   27.9042   43.7026   16.5965 O   0  0  0  0  0  0  0  0  0  0  0  0
   25.5897   43.0742   17.0507 O   0  5  0  0  0  0  0  0  0  0  0  0
   27.2841   41.3138   16.7825 O   0  0  0  0  0  0  0  0  0  0  0  0
   26.4322   42.2462   19.8045 C   0  0  0  0  0  0  0  0  0  0  0  0
   27.3874   42.6817   18.8680 O   0  0  0  0  0  0  0  0  0  0  0  0
   27.0144   42.3707   21.2048 C   0  0  1  0  0  0  0  0  0  0  0  0
   25.9870   42.1320   22.1433 O   0  0  0  0  0  0  0  0  0  0  0  0
   28.1547   41.3707   21.3963 C   0  0  1  0  0  0  0  0  0  0  0  0
   28.8706   41.6873   22.5709 O   0  0  0  0  0  0  0  0  0  0  0  0
   27.6974   39.9054   21.4026 C   0  0  1  0  0  0  0  0  0  0  0  0
   27.2134   39.5480   20.1271 O   0  0  0  0  0  0  0  0  0  0  0  0
   28.8100   38.9483   21.7997 C   0  0  0  0  0  0  0  0  0  0  0  0
   27.3994   38.0552   24.0792 N   0  0  0  0  0  0  0  0  0  0  0  0
   26.6735   37.6839   25.1926 C   0  0  0  0  0  0  0  0  0  0  0  0
   26.5628   38.4588   26.1468 O   0  0  0  0  0  0  0  0  0  0  0  0
   26.0810   36.4380   25.2361 N   0  0  0  0  0  0  0  0  0  0  0  0
   26.2116   35.5648   24.1726 C   0  0  0  0  0  0  0  0  0  0  0  0
   26.9347   35.9331   23.0572 C   0  0  1  0  0  0  0  0  0  0  0  0
   25.6813   34.4554   24.1946 O   0  0  0  0  0  0  0  0  0  0  0  0
   27.7699   35.4156   20.8825 C   0  0  2  0  0  0  0  0  0  0  0  0
   27.0507   35.0494   22.0018 N   0  0  0  0  0  0  0  0  0  0  0  0
   27.8900   34.5256   19.8179 C   0  0  0  0  0  0  0  0  0  0  0  0
   28.6193   34.8822   18.6880 C   0  0  1  0  0  0  0  0  0  0  0  0
   28.7300   33.9135   17.5431 C   0  0  0  0  0  0  0  0  0  0  0  0
   29.2283   36.1407   18.6257 C   0  0  1  0  0  0  0  0  0  0  0  0
   30.0090   36.5603   17.4144 C   0  0  0  0  0  0  0  0  0  0  0  0
   29.1054   37.0274   19.6913 C   0  0  0  0  0  0  0  0  0  0  0  0
   28.3786   36.6730   20.8254 C   0  0  2  0  0  0  0  0  0  0  0  0
   27.5319   37.1874   23.0075 C   0  0  2  0  0  0  0  0  0  0  0  0
   28.2634   37.5540   21.8941 N   0  0  0  0  0  0  0  0  0  0  0  0
  1  2  1  6  0  0  0
  1  3  1  0  0  0  0
  1  4  2  0  0  0  0
  1  6  1  0  0  0  0
  5  6  1  0  0  0  0
  7  5  1  6  0  0  0
  7  8  1  0  0  0  0
  7  9  1  0  0  0  0
  9 10  1  1  0  0  0
  9 11  1  0  0  0  0
 11 12  1  6  0  0  0
 11 13  1  0  0  0  0
 13 31  1  0  0  0  0
 14 15  1  0  0  0  0
 15 16  2  0  0  0  0
 15 17  1  0  0  0  0
 17 18  1  0  0  0  0
 18 20  2  0  0  0  0
 19 18  1  6  0  0  0
 19 22  1  0  0  0  0
 19 30  1  0  0  0  0
 21 23  1  1  0  0  0
 21 29  1  0  0  0  0
 21 22  1  0  0  0  0
 23 24  1  0  0  0  0
 24 25  1  6  0  0  0
 24 26  1  0  0  0  0
 26 27  1  6  0  0  0
 26 28  1  0  0  0  0
 29 28  1  1  0  0  0
 29 31  1  0  0  0  0
 30 14  1  1  0  0  0
 30 31  1  0  0  0  0
M  CHG  1   3  -1
M  END
>  <CHROM.1>
-178.25926236,156.10874029,170.99863882,167.27200161,66.68728622,175.35413621
96.23343445,27.48348755,38.81479136,20.75817152,-1.57232908,-1.29194626,2.50932032

>  <Name>
ligand

>  <RI>
0

>  <Rbt.Current_Directory>
/home/itssahil/PROJECTS/Mol_Feturizer/New_Systems/rnas/3F2Q

>  <Rbt.Executable>
rbdock ($Id: //depot/dev/client3/rdock/2013.1/src/exe/rbdock.cxx#4 $)

>  <Rbt.Library>
libRbt.so (2013.1, Build901 2013/11/27)

>  <Rbt.Parameter_File>
/export/apps/rDock/src/rDock_2013.1_src/data/scripts/dock_solv.prm

>  <Rbt.Receptor>
prm/blind_docking_80.prm

>  <SCORE>
-31.7291

>  <SCORE.INTER>
-27.0202

>  <SCORE.INTER.CONST>
1

>  <SCORE.INTER.POLAR>
0

>  <SCORE.INTER.ROT>
7

>  <SCORE.INTER.SOLV>
15.7659

>  <SCORE.INTER.VDW>
-31.5354

>  <SCORE.INTER.norm>
-0.871619

>  <SCORE.INTRA>
-4.70892

>  <SCORE.INTRA.DIHEDRAL>
-6.9779

>  <SCORE.INTRA.DIHEDRAL.0>
10.0718

>  <SCORE.INTRA.POLAR>
0

>  <SCORE.INTRA.POLAR.0>
0

>  <SCORE.INTRA.REPUL>
0

>  <SCORE.INTRA.REPUL.0>
0

>  <SCORE.INTRA.SOLV>
-0.264079

>  <SCORE.INTRA.SOLV.lig_0>
-48.6963

>  <SCORE.INTRA.VDW>
-1.08794

>  <SCORE.INTRA.VDW.0>
-0.836976

>  <SCORE.INTRA.norm>
-0.151901

>  <SCORE.RESTR>
0

>  <SCORE.RESTR.CAVITY>
0

>  <SCORE.RESTR.norm>
0

>  <SCORE.SYSTEM>
0

>  <SCORE.SYSTEM.CONST>
0

>  <SCORE.SYSTEM.DIHEDRAL>
0

>  <SCORE.SYSTEM.SOLV>
0

>  <SCORE.SYSTEM.norm>
0

>  <SCORE.heavy>
31

>  <SCORE.norm>
-1.02352

>  <RMSD>
4.846

$$$$
ligand
 OpenBabel11021811473D
libRbt.so/2013.1/901 2013/11/27
 31 33  0  0  0  0  0  0  0  0999 V2000
   25.7419   42.8568   16.5944 P   0  0  1  0  0  0  0  0  0  0  0  0
   24.2603   42.5505   16.6430 O   0  0  0  0  0  0  0  0  0  0  0  0
   26.1977   42.7132   15.1673 O   0  5  0  0  0  0  0  0  0  0  0  0
   25.9975   44.2620   17.0654 O   0  0  0  0  0  0  0  0  0  0  0  0
   27.9276   41.9067   17.6441 C   0  0  0  0  0  0  0  0  0  0  0  0
   26.5219   41.8793   17.5938 O   0  0  0  0  0  0  0  0  0  0  0  0
   28.4002   41.0724   18.8256 C   0  0  1  0  0  0  0  0  0  0  0  0
   27.6485   41.4363   19.9640 O   0  0  0  0  0  0  0  0  0  0  0  0
   28.2282   39.5833   18.5264 C   0  0  1  0  0  0  0  0  0  0  0  0
   29.1442   39.1917   17.5264 O   0  0  0  0  0  0  0  0  0  0  0  0
   28.3432   38.6862   19.7668 C   0  0  1  0  0  0  0  0  0  0  0  0
   29.5128   39.0087   20.4857 O   0  0  0  0  0  0  0  0  0  0  0  0
   27.1411   38.8090   20.6895 C   0  0  0  0  0  0  0  0  0  0  0  0
   27.1184   39.7248   23.3624 N   0  0  0  0  0  0  0  0  0  0  0  0
   27.0491   40.2155   24.6503 C   0  0  0  0  0  0  0  0  0  0  0  0
   26.9613   41.4309   24.8464 O   0  0  0  0  0  0  0  0  0  0  0  0
   27.0885   39.3401   25.7167 N   0  0  0  0  0  0  0  0  0  0  0  0
   27.1965   37.9793   25.4998 C   0  0  0  0  0  0  0  0  0  0  0  0
   27.2640   37.4848   24.2139 C   0  0  1  0  0  0  0  0  0  0  0  0
   27.2235   37.1876   26.4406 O   0  0  0  0  0  0  0  0  0  0  0  0
   27.4307   35.6227   22.7309 C   0  0  2  0  0  0  0  0  0  0  0  0
   27.3669   36.1216   24.0158 N   0  0  0  0  0  0  0  0  0  0  0  0
   27.5365   34.2488   22.5287 C   0  0  0  0  0  0  0  0  0  0  0  0
   27.6092   33.7361   21.2372 C   0  0  1  0  0  0  0  0  0  0  0  0
   27.7123   32.2494   21.0364 C   0  0  0  0  0  0  0  0  0  0  0  0
   27.5718   34.6080   20.1431 C   0  0  1  0  0  0  0  0  0  0  0  0
   27.6330   34.0845   18.7378 C   0  0  0  0  0  0  0  0  0  0  0  0
   27.4654   35.9802   20.3494 C   0  0  0  0  0  0  0  0  0  0  0  0
   27.3954   36.4975   21.6408 C   0  0  2  0  0  0  0  0  0  0  0  0
   27.2229   38.3620   23.1362 C   0  0  2  0  0  0  0  0  0  0  0  0
   27.2989   37.8683   21.8480 N   0  0  0  0  0  0  0  0  0  0  0  0
  1  2  1  1  0  0  0
  1  3  1  0  0  0  0
  1  4  2  0  0  0  0
  1  6  1  0  0  0  0
  5  6  1  0  0  0  0
  7  5  1  6  0  0  0
  7  8  1  0  0  0  0
  7  9  1  0  0  0  0
  9 10  1  6  0  0  0
  9 11  1  0  0  0  0
 11 12  1  1  0  0  0
 11 13  1  0  0  0  0
 13 31  1  0  0  0  0
 14 15  1  0  0  0  0
 15 16  2  0  0  0  0
 15 17  1  0  0  0  0
 17 18  1  0  0  0  0
 18 20  2  0  0  0  0
 19 18  1  6  0  0  0
 19 22  1  0  0  0  0
 19 30  1  0  0  0  0
 21 23  1  1  0  0  0
 21 29  1  0  0  0  0
 21 22  1  0  0  0  0
 23 24  1  0  0  0  0
 24 25  1  6  0  0  0
 24 26  1  0  0  0  0
 26 27  1  6  0  0  0
 26 28  1  0  0  0  0
 29 28  1  1  0  0  0
 29 31  1  0  0  0  0
 30 14  1  1  0  0  0
 30 31  1  0  0  0  0
M  CHG  1   3  -1
M  END
>  <CHROM.1>
170.30273089,175.11792376,-47.68610740,69.23868786,-50.02198362,177.83992214
-60.73984782,27.25117939,38.92525428,20.63600583,2.38750725,1.41127423,-1.59546253

>  <Name>
ligand

>  <RI>
0

>  <Rbt.Current_Directory>
/home/itssahil/PROJECTS/Mol_Feturizer/New_Systems/rnas/3F2Q

>  <Rbt.Executable>
rbdock ($Id: //depot/dev/client3/rdock/2013.1/src/exe/rbdock.cxx#4 $)

>  <Rbt.Library>
libRbt.so (2013.1, Build901 2013/11/27)

>  <Rbt.Parameter_File>
/export/apps/rDock/src/rDock_2013.1_src/data/scripts/dock_solv.prm

>  <Rbt.Receptor>
prm/pocket_docking_8.prm

>  <SCORE>
-26.6213

>  <SCORE.INTER>
-22.589

>  <SCORE.INTER.CONST>
1

>  <SCORE.INTER.POLAR>
0

>  <SCORE.INTER.ROT>
7

>  <SCORE.INTER.SOLV>
18.4752

>  <SCORE.INTER.VDW>
-29.4844

>  <SCORE.INTER.norm>
-0.728677

>  <SCORE.INTRA>
-4.03234

>  <SCORE.INTRA.DIHEDRAL>
-7.07586

>  <SCORE.INTRA.DIHEDRAL.0>
10.0718

>  <SCORE.INTRA.POLAR>
0

>  <SCORE.INTRA.POLAR.0>
0

>  <SCORE.INTRA.REPUL>
0

>  <SCORE.INTRA.REPUL.0>
0

>  <SCORE.INTRA.SOLV>
-0.376889

>  <SCORE.INTRA.SOLV.lig_0>
-48.6963

>  <SCORE.INTRA.VDW>
-0.305969

>  <SCORE.INTRA.VDW.0>
-0.836976

>  <SCORE.INTRA.norm>
-0.130076

>  <SCORE.RESTR>
0

>  <SCORE.RESTR.CAVITY>
0

>  <SCORE.RESTR.norm>
0

>  <SCORE.SYSTEM>
0

>  <SCORE.SYSTEM.CONST>
0

>  <SCORE.SYSTEM.DIHEDRAL>
0

>  <SCORE.SYSTEM.SOLV>
0

>  <SCORE.SYSTEM.norm>
0

>  <SCORE.heavy>
31

>  <SCORE.norm>
-0.858752

>  <RMSD>
4.846

$$$$
ligand
 OpenBabel11021811473D
libRbt.so/2013.1/901 2013/11/27
 31 33  0  0  0  0  0  0  0  0999 V2000
   26.6132   35.0722   17.5302 P   0  0  1  0  0  0  0  0  0  0  0  0
   27.8517   34.9717   18.3948 O   0  0  0  0  0  0  0  0  0  0  0  0
   26.4667   33.7763   16.7790 O   0  5  0  0  0  0  0  0  0  0  0  0
   25.3981   35.2970   18.3875 O   0  0  0  0  0  0  0  0  0  0  0  0
   26.9720   37.6158   17.1024 C   0  0  0  0  0  0  0  0  0  0  0  0
   26.7414   36.3386   16.5594 O   0  0  0  0  0  0  0  0  0  0  0  0
   28.4037   37.6893   17.6125 C   0  0  1  0  0  0  0  0  0  0  0  0
   29.2809   37.4867   16.5250 O   0  0  0  0  0  0  0  0  0  0  0  0
   28.6660   39.0471   18.2637 C   0  0  1  0  0  0  0  0  0  0  0  0
   28.2116   40.0771   17.4121 O   0  0  0  0  0  0  0  0  0  0  0  0
   28.0664   39.1844   19.6701 C   0  0  1  0  0  0  0  0  0  0  0  0
   26.6819   38.9191   19.6298 O   0  0  0  0  0  0  0  0  0  0  0  0
   28.7229   38.2546   20.6780 C   0  0  0  0  0  0  0  0  0  0  0  0
   27.6200   35.8905   21.7635 N   0  0  0  0  0  0  0  0  0  0  0  0
   27.1458   34.7012   22.2785 C   0  0  0  0  0  0  0  0  0  0  0  0
   27.2781   33.6532   21.6404 O   0  0  0  0  0  0  0  0  0  0  0  0
   26.5146   34.6931   23.5060 N   0  0  0  0  0  0  0  0  0  0  0  0
   26.3567   35.8672   24.2181 C   0  0  0  0  0  0  0  0  0  0  0  0
   26.8311   37.0575   23.7075 C   0  0  1  0  0  0  0  0  0  0  0  0
   25.8044   35.8727   25.3169 O   0  0  0  0  0  0  0  0  0  0  0  0
   27.1454   39.4126   23.9297 C   0  0  2  0  0  0  0  0  0  0  0  0
   26.6687   38.2205   24.4352 N   0  0  0  0  0  0  0  0  0  0  0  0
   26.9811   40.5868   24.6606 C   0  0  0  0  0  0  0  0  0  0  0  0
   27.4514   41.7953   24.1564 C   0  0  1  0  0  0  0  0  0  0  0  0
   27.2752   43.0520   24.9633 C   0  0  0  0  0  0  0  0  0  0  0  0
   28.0931   41.8240   22.9130 C   0  0  1  0  0  0  0  0  0  0  0  0
   28.6247   43.1094   22.3492 C   0  0  0  0  0  0  0  0  0  0  0  0
   28.2559   40.6484   22.1861 C   0  0  0  0  0  0  0  0  0  0  0  0
   27.7839   39.4371   22.6861 C   0  0  2  0  0  0  0  0  0  0  0  0
   27.4693   37.0710   22.4726 C   0  0  2  0  0  0  0  0  0  0  0  0
   27.9374   38.2642   21.9565 N   0  0  0  0  0  0  0  0  0  0  0  0
  1  2  1  1  0  0  0
  1  3  1  0  0  0  0
  1  4  2  0  0  0  0
  1  6  1  0  0  0  0
  5  6  1  0  0  0  0
  7  5  1  6  0  0  0
  7  8  1  0  0  0  0
  7  9  1  0  0  0  0
  9 10  1  6  0  0  0
  9 11  1  0  0  0  0
 11 12  1  6  0  0  0
 11 13  1  0  0  0  0
 13 31  1  0  0  0  0
 14 15  1  0  0  0  0
 15 16  2  0  0  0  0
 15 17  1  0  0  0  0
 17 18  1  0  0  0  0
 18 20  2  0  0  0  0
 19 18  1  1  0  0  0
 19 22  1  0  0  0  0
 19 30  1  0  0  0  0
 21 23  1  6  0  0  0
 21 29  1  0  0  0  0
 21 22  1  0  0  0  0
 23 24  1  0  0  0  0
 24 25  1  1  0  0  0
 24 26  1  0  0  0  0
 26 27  1  1  0  0  0
 26 28  1  0  0  0  0
 29 28  1  6  0  0  0
 29 31  1  0  0  0  0
 30 14  1  6  0  0  0
 30 31  1  0  0  0  0
M  CHG  1   3  -1
M  END
>  <CHROM.1>
72.05997654,-55.78578650,61.27580210,-48.39223983,-55.70942636,-170.10306300
-61.48466064,27.35293920,37.70418367,20.79602642,1.70904657,-1.30700823,-2.08296695

>  <Name>
ligand

>  <RI>
0

>  <Rbt.Current_Directory>
/home/itssahil/PROJECTS/Mol_Feturizer/New_Systems/rnas/3F2Q

>  <Rbt.Executable>
rbdock ($Id: //depot/dev/client3/rdock/2013.1/src/exe/rbdock.cxx#4 $)

>  <Rbt.Library>
libRbt.so (2013.1, Build901 2013/11/27)

>  <Rbt.Parameter_File>
/export/apps/rDock/src/rDock_2013.1_src/data/scripts/dock_solv.prm

>  <Rbt.Receptor>
prm/pocket_docking_7.prm

>  <SCORE>
-28.1631

>  <SCORE.INTER>
-23.8107

>  <SCORE.INTER.CONST>
1

>  <SCORE.INTER.POLAR>
0

>  <SCORE.INTER.ROT>
7

>  <SCORE.INTER.SOLV>
9.70743

>  <SCORE.INTER.VDW>
-27.3763

>  <SCORE.INTER.norm>
-0.768086

>  <SCORE.INTRA>
-4.35239

>  <SCORE.INTRA.DIHEDRAL>
-7.14862

>  <SCORE.INTRA.DIHEDRAL.0>
10.0718

>  <SCORE.INTRA.POLAR>
0

>  <SCORE.INTRA.POLAR.0>
0

>  <SCORE.INTRA.REPUL>
0

>  <SCORE.INTRA.REPUL.0>
0

>  <SCORE.INTRA.SOLV>
0.237589

>  <SCORE.INTRA.SOLV.lig_0>
-48.6963

>  <SCORE.INTRA.VDW>
-0.896873

>  <SCORE.INTRA.VDW.0>
-0.836976

>  <SCORE.INTRA.norm>
-0.1404

>  <SCORE.RESTR>
0

>  <SCORE.RESTR.CAVITY>
0

>  <SCORE.RESTR.norm>
0

>  <SCORE.SYSTEM>
0

>  <SCORE.SYSTEM.CONST>
0

>  <SCORE.SYSTEM.DIHEDRAL>
0

>  <SCORE.SYSTEM.SOLV>
0

>  <SCORE.SYSTEM.norm>
0

>  <SCORE.heavy>
31

>  <SCORE.norm>
-0.908486

>  <RMSD>
4.862

$$$$
ligand
 OpenBabel11021811473D
libRbt.so/2013.1/901 2013/11/27
 31 33  0  0  0  0  0  0  0  0999 V2000
   31.7479   36.1606   17.2655 P   0  0  1  0  0  0  0  0  0  0  0  0
   32.5265   35.4352   18.3421 O   0  0  0  0  0  0  0  0  0  0  0  0
   32.7047   36.5083   16.1570 O   0  5  0  0  0  0  0  0  0  0  0  0
   30.6561   35.2764   16.7290 O   0  0  0  0  0  0  0  0  0  0  0  0
   30.4280   38.3954   17.0532 C   0  0  0  0  0  0  0  0  0  0  0  0
   31.0384   37.4493   17.8967 O   0  0  0  0  0  0  0  0  0  0  0  0
   29.9802   39.5885   17.8847 C   0  0  1  0  0  0  0  0  0  0  0  0
   30.1991   40.7664   17.1376 O   0  0  0  0  0  0  0  0  0  0  0  0
   28.5018   39.4557   18.2503 C   0  0  1  0  0  0  0  0  0  0  0  0
   27.7324   39.3252   17.0741 O   0  0  0  0  0  0  0  0  0  0  0  0
   28.2086   38.3153   19.2351 C   0  0  1  0  0  0  0  0  0  0  0  0
   28.4081   37.0711   18.6019 O   0  0  0  0  0  0  0  0  0  0  0  0
   29.0746   38.3843   20.4828 C   0  0  0  0  0  0  0  0  0  0  0  0
   28.1029   35.8714   21.3340 N   0  0  0  0  0  0  0  0  0  0  0  0
   27.6961   34.6157   21.7369 C   0  0  0  0  0  0  0  0  0  0  0  0
   27.9543   33.6285   21.0428 O   0  0  0  0  0  0  0  0  0  0  0  0
   26.9910   34.4725   22.9148 N   0  0  0  0  0  0  0  0  0  0  0  0
   26.6924   35.5779   23.6890 C   0  0  0  0  0  0  0  0  0  0  0  0
   27.0988   36.8344   23.2906 C   0  0  1  0  0  0  0  0  0  0  0  0
   26.0727   35.4634   24.7451 O   0  0  0  0  0  0  0  0  0  0  0  0
   27.2040   39.1853   23.6863 C   0  0  2  0  0  0  0  0  0  0  0  0
   26.7957   37.9272   24.0793 N   0  0  0  0  0  0  0  0  0  0  0  0
   26.8977   40.2890   24.4787 C   0  0  0  0  0  0  0  0  0  0  0  0
   27.2982   41.5628   24.0875 C   0  0  1  0  0  0  0  0  0  0  0  0
   26.9686   42.7422   24.9603 C   0  0  0  0  0  0  0  0  0  0  0  0
   28.0132   41.7283   22.8959 C   0  0  1  0  0  0  0  0  0  0  0  0
   28.4721   43.0875   22.4546 C   0  0  0  0  0  0  0  0  0  0  0  0
   28.3178   40.6229   22.1072 C   0  0  0  0  0  0  0  0  0  0  0  0
   27.9160   39.3465   22.4938 C   0  0  2  0  0  0  0  0  0  0  0  0
   27.8109   36.9840   22.1061 C   0  0  2  0  0  0  0  0  0  0  0  0
   28.2113   38.2432   21.7020 N   0  0  0  0  0  0  0  0  0  0  0  0
  1  2  1  1  0  0  0
  1  3  1  0  0  0  0
  1  4  2  0  0  0  0
  1  6  1  0  0  0  0
  5  6  1  0  0  0  0
  7  5  1  6  0  0  0
  7  8  1  0  0  0  0
  7  9  1  0  0  0  0
  9 10  1  6  0  0  0
  9 11  1  0  0  0  0
 11 12  1  6  0  0  0
 11 13  1  0  0  0  0
 13 31  1  0  0  0  0
 14 15  1  0  0  0  0
 15 16  2  0  0  0  0
 15 17  1  0  0  0  0
 17 18  1  0  0  0  0
 18 20  2  0  0  0  0
 19 18  1  1  0  0  0
 19 22  1  0  0  0  0
 19 30  1  0  0  0  0
 21 23  1  6  0  0  0
 21 29  1  0  0  0  0
 21 22  1  0  0  0  0
 23 24  1  0  0  0  0
 24 25  1  1  0  0  0
 24 26  1  0  0  0  0
 26 27  1  1  0  0  0
 26 28  1  0  0  0  0
 29 28  1  6  0  0  0
 29 31  1  0  0  0  0
 30 14  1  6  0  0  0
 30 31  1  0  0  0  0
M  CHG  1   3  -1
M  END
>  <CHROM.1>
-173.38473090,170.22653988,142.08655243,-56.77360835,-69.26802992,131.14503532
-105.13601551,28.77895648,37.93858388,20.54262839,0.32535511,-1.03193561
-3.13153374

>  <Name>
ligand

>  <RI>
0

>  <Rbt.Current_Directory>
/home/itssahil/PROJECTS/Mol_Feturizer/New_Systems/rnas/3F2Q

>  <Rbt.Executable>
rbdock ($Id: //depot/dev/client3/rdock/2013.1/src/exe/rbdock.cxx#4 $)

>  <Rbt.Library>
libRbt.so (2013.1, Build901 2013/11/27)

>  <Rbt.Parameter_File>
/export/apps/rDock/src/rDock_2013.1_src/data/scripts/dock_solv.prm

>  <Rbt.Receptor>
prm/blind_docking_60.prm

>  <SCORE>
-26.49

>  <SCORE.INTER>
-25.7895

>  <SCORE.INTER.CONST>
1

>  <SCORE.INTER.POLAR>
0

>  <SCORE.INTER.ROT>
7

>  <SCORE.INTER.SOLV>
14.6662

>  <SCORE.INTER.VDW>
-30.3484

>  <SCORE.INTER.norm>
-0.831918

>  <SCORE.INTRA>
-0.700548

>  <SCORE.INTRA.DIHEDRAL>
0.693726

>  <SCORE.INTRA.DIHEDRAL.0>
10.0718

>  <SCORE.INTRA.POLAR>
0

>  <SCORE.INTRA.POLAR.0>
0

>  <SCORE.INTRA.REPUL>
0

>  <SCORE.INTRA.REPUL.0>
0

>  <SCORE.INTRA.SOLV>
0.167851

>  <SCORE.INTRA.SOLV.lig_0>
-48.6963

>  <SCORE.INTRA.VDW>
-1.13134

>  <SCORE.INTRA.VDW.0>
-0.836976

>  <SCORE.INTRA.norm>
-0.0225983

>  <SCORE.RESTR>
0

>  <SCORE.RESTR.CAVITY>
0

>  <SCORE.RESTR.norm>
0

>  <SCORE.SYSTEM>
0

>  <SCORE.SYSTEM.CONST>
0

>  <SCORE.SYSTEM.DIHEDRAL>
0

>  <SCORE.SYSTEM.SOLV>
0

>  <SCORE.SYSTEM.norm>
0

>  <SCORE.heavy>
31

>  <SCORE.norm>
-0.854517

>  <RMSD>
4.864

$$$$
ligand
 OpenBabel11021811473D
libRbt.so/2013.1/901 2013/11/27
 31 33  0  0  0  0  0  0  0  0999 V2000
   25.5768   43.6784   16.0641 P   0  0  1  0  0  0  0  0  0  0  0  0
   25.8491   43.8505   14.5850 O   0  0  0  0  0  0  0  0  0  0  0  0
   26.0881   44.9028   16.7744 O   0  5  0  0  0  0  0  0  0  0  0  0
   24.0996   43.5357   16.3072 O   0  0  0  0  0  0  0  0  0  0  0  0
   26.3123   42.0499   17.9585 C   0  0  0  0  0  0  0  0  0  0  0  0
   26.2683   42.3302   16.5806 O   0  0  0  0  0  0  0  0  0  0  0  0
   26.8731   40.6505   18.1647 C   0  0  1  0  0  0  0  0  0  0  0  0
   28.2809   40.7343   18.2324 O   0  0  0  0  0  0  0  0  0  0  0  0
   26.3128   40.0379   19.4482 C   0  0  1  0  0  0  0  0  0  0  0  0
   24.9022   40.0781   19.4162 O   0  0  0  0  0  0  0  0  0  0  0  0
   26.8217   38.6171   19.7285 C   0  0  1  0  0  0  0  0  0  0  0  0
   27.1432   37.9742   18.5151 O   0  0  0  0  0  0  0  0  0  0  0  0
   28.0396   38.6020   20.6384 C   0  0  0  0  0  0  0  0  0  0  0  0
   27.4780   39.5719   23.2321 N   0  0  0  0  0  0  0  0  0  0  0  0
   27.1573   40.0954   24.4681 C   0  0  0  0  0  0  0  0  0  0  0  0
   27.1741   41.3164   24.6471 O   0  0  0  0  0  0  0  0  0  0  0  0
   26.8276   39.2451   25.5042 N   0  0  0  0  0  0  0  0  0  0  0  0
   26.8174   37.8768   25.3086 C   0  0  0  0  0  0  0  0  0  0  0  0
   27.1354   37.3499   24.0742 C   0  0  1  0  0  0  0  0  0  0  0  0
   26.5167   37.1085   26.2206 O   0  0  0  0  0  0  0  0  0  0  0  0
   27.4291   35.4494   22.6613 C   0  0  2  0  0  0  0  0  0  0  0  0
   27.1155   35.9803   23.8957 N   0  0  0  0  0  0  0  0  0  0  0  0
   27.4117   34.0687   22.4794 C   0  0  0  0  0  0  0  0  0  0  0  0
   27.7337   33.5230   21.2407 C   0  0  1  0  0  0  0  0  0  0  0  0
   27.6995   32.0306   21.0586 C   0  0  0  0  0  0  0  0  0  0  0  0
   28.0717   34.3688   20.1782 C   0  0  1  0  0  0  0  0  0  0  0  0
   28.4093   33.8113   18.8262 C   0  0  0  0  0  0  0  0  0  0  0  0
   28.0874   35.7480   20.3639 C   0  0  0  0  0  0  0  0  0  0  0  0
   27.7685   36.2980   21.6032 C   0  0  2  0  0  0  0  0  0  0  0  0
   27.4664   38.2019   23.0268 C   0  0  2  0  0  0  0  0  0  0  0  0
   27.7932   37.6746   21.7922 N   0  0  0  0  0  0  0  0  0  0  0  0
  1  2  1  6  0  0  0
  1  3  1  0  0  0  0
  1  4  2  0  0  0  0
  1  6  1  0  0  0  0
  5  6  1  0  0  0  0
  7  5  1  1  0  0  0
  7  8  1  0  0  0  0
  7  9  1  0  0  0  0
  9 10  1  6  0  0  0
  9 11  1  0  0  0  0
 11 12  1  6  0  0  0
 11 13  1  0  0  0  0
 13 31  1  0  0  0  0
 14 15  1  0  0  0  0
 15 16  2  0  0  0  0
 15 17  1  0  0  0  0
 17 18  1  0  0  0  0
 18 20  2  0  0  0  0
 19 18  1  6  0  0  0
 19 22  1  0  0  0  0
 19 30  1  0  0  0  0
 21 23  1  1  0  0  0
 21 29  1  0  0  0  0
 21 22  1  0  0  0  0
 23 24  1  0  0  0  0
 24 25  1  6  0  0  0
 24 26  1  0  0  0  0
 26 27  1  6  0  0  0
 26 28  1  0  0  0  0
 29 28  1  1  0  0  0
 29 31  1  0  0  0  0
 30 14  1  1  0  0  0
 30 31  1  0  0  0  0
M  CHG  1   3  -1
M  END
>  <CHROM.1>
173.60301422,171.18271227,87.55222092,54.40026596,-27.92722681,127.48048061
71.52410440,26.89025029,38.97470290,20.42314524,-2.52323294,-1.36453486,1.47758961

>  <Name>
ligand

>  <RI>
0

>  <Rbt.Current_Directory>
/home/itssahil/PROJECTS/Mol_Feturizer/New_Systems/rnas/3F2Q

>  <Rbt.Executable>
rbdock ($Id: //depot/dev/client3/rdock/2013.1/src/exe/rbdock.cxx#4 $)

>  <Rbt.Library>
libRbt.so (2013.1, Build901 2013/11/27)

>  <Rbt.Parameter_File>
/export/apps/rDock/src/rDock_2013.1_src/data/scripts/dock_solv.prm

>  <Rbt.Receptor>
prm/pocket_docking_3.prm

>  <SCORE>
-28.1789

>  <SCORE.INTER>
-27.6059

>  <SCORE.INTER.CONST>
1

>  <SCORE.INTER.POLAR>
0

>  <SCORE.INTER.ROT>
7

>  <SCORE.INTER.SOLV>
18.357

>  <SCORE.INTER.VDW>
-32.7896

>  <SCORE.INTER.norm>
-0.890513

>  <SCORE.INTRA>
-0.573006

>  <SCORE.INTRA.DIHEDRAL>
1.82042

>  <SCORE.INTRA.DIHEDRAL.0>
10.0718

>  <SCORE.INTRA.POLAR>
0

>  <SCORE.INTRA.POLAR.0>
0

>  <SCORE.INTRA.REPUL>
0

>  <SCORE.INTRA.REPUL.0>
0

>  <SCORE.INTRA.SOLV>
-0.833222

>  <SCORE.INTRA.SOLV.lig_0>
-48.6963

>  <SCORE.INTRA.VDW>
-1.0666

>  <SCORE.INTRA.VDW.0>
-0.836976

>  <SCORE.INTRA.norm>
-0.0184841

>  <SCORE.RESTR>
0

>  <SCORE.RESTR.CAVITY>
0

>  <SCORE.RESTR.norm>
0

>  <SCORE.SYSTEM>
0

>  <SCORE.SYSTEM.CONST>
0

>  <SCORE.SYSTEM.DIHEDRAL>
0

>  <SCORE.SYSTEM.SOLV>
0

>  <SCORE.SYSTEM.norm>
0

>  <SCORE.heavy>
31

>  <SCORE.norm>
-0.908997

>  <RMSD>
4.864

$$$$
ligand
 OpenBabel11021811473D
libRbt.so/2013.1/901 2013/11/27
 31 33  0  0  0  0  0  0  0  0999 V2000
   27.1121   42.5748   17.2393 P   0  0  1  0  0  0  0  0  0  0  0  0
   27.8298   43.6857   16.5028 O   0  0  0  0  0  0  0  0  0  0  0  0
   25.6382   42.7183   16.9710 O   0  5  0  0  0  0  0  0  0  0  0  0
   27.5851   41.2348   16.7468 O   0  0  0  0  0  0  0  0  0  0  0  0
   26.5078   42.2700   19.7540 C   0  0  0  0  0  0  0  0  0  0  0  0
   27.4670   42.6520   18.7984 O   0  0  0  0  0  0  0  0  0  0  0  0
   27.0929   42.4507   21.1470 C   0  0  1  0  0  0  0  0  0  0  0  0
   26.0603   42.2830   22.0951 O   0  0  0  0  0  0  0  0  0  0  0  0
   28.2097   41.4354   21.3893 C   0  0  1  0  0  0  0  0  0  0  0  0
   28.9882   41.8415   22.4945 O   0  0  0  0  0  0  0  0  0  0  0  0
   27.7086   39.9948   21.5625 C   0  0  1  0  0  0  0  0  0  0  0  0
   26.9935   39.5940   20.4149 O   0  0  0  0  0  0  0  0  0  0  0  0
   28.8389   39.0098   21.8147 C   0  0  0  0  0  0  0  0  0  0  0  0
   27.4257   38.1042   24.0876 N   0  0  0  0  0  0  0  0  0  0  0  0
   26.6990   37.7270   25.1985 C   0  0  0  0  0  0  0  0  0  0  0  0
   26.5944   38.4936   26.1600 O   0  0  0  0  0  0  0  0  0  0  0  0
   26.0987   36.4845   25.2311 N   0  0  0  0  0  0  0  0  0  0  0  0
   26.2224   35.6206   24.1593 C   0  0  0  0  0  0  0  0  0  0  0  0
   26.9464   35.9947   23.0465 C   0  0  1  0  0  0  0  0  0  0  0  0
   25.6851   34.5144   24.1716 O   0  0  0  0  0  0  0  0  0  0  0  0
   27.7755   35.4924   20.8659 C   0  0  2  0  0  0  0  0  0  0  0  0
   27.0554   35.1203   21.9826 N   0  0  0  0  0  0  0  0  0  0  0  0
   27.8886   34.6117   19.7928 C   0  0  0  0  0  0  0  0  0  0  0  0
   28.6187   34.9743   18.6653 C   0  0  1  0  0  0  0  0  0  0  0  0
   28.7218   34.0157   17.5112 C   0  0  0  0  0  0  0  0  0  0  0  0
   29.2355   36.2295   18.6139 C   0  0  1  0  0  0  0  0  0  0  0  0
   30.0172   36.6555   17.4055 C   0  0  0  0  0  0  0  0  0  0  0  0
   29.1195   37.1069   19.6880 C   0  0  0  0  0  0  0  0  0  0  0  0
   28.3920   36.7464   20.8197 C   0  0  2  0  0  0  0  0  0  0  0  0
   27.5514   37.2457   23.0076 C   0  0  2  0  0  0  0  0  0  0  0  0
   28.2837   37.6181   21.8967 N   0  0  0  0  0  0  0  0  0  0  0  0
  1  2  1  6  0  0  0
  1  3  1  0  0  0  0
  1  4  2  0  0  0  0
  1  6  1  0  0  0  0
  5  6  1  0  0  0  0
  7  5  1  6  0  0  0
  7  8  1  0  0  0  0
  7  9  1  0  0  0  0
  9 10  1  1  0  0  0
  9 11  1  0  0  0  0
 11 12  1  6  0  0  0
 11 13  1  0  0  0  0
 13 31  1  0  0  0  0
 14 15  1  0  0  0  0
 15 16  2  0  0  0  0
 15 17  1  0  0  0  0
 17 18  1  0  0  0  0
 18 20  2  0  0  0  0
 19 18  1  6  0  0  0
 19 22  1  0  0  0  0
 19 30  1  0  0  0  0
 21 23  1  1  0  0  0
 21 29  1  0  0  0  0
 21 22  1  0  0  0  0
 23 24  1  0  0  0  0
 24 25  1  6  0  0  0
 24 26  1  0  0  0  0
 26 27  1  6  0  0  0
 26 28  1  0  0  0  0
 29 28  1  1  0  0  0
 29 31  1  0  0  0  0
 30 14  1  1  0  0  0
 30 31  1  0  0  0  0
M  CHG  1   3  -1
M  END
>  <CHROM.1>
-179.48204388,147.15635630,170.26832453,163.37249951,58.65428989,-176.85100534
101.73378703,27.51492685,38.84742685,20.74598362,-1.51619376,-1.30367717
2.53450396

>  <Name>
ligand

>  <RI>
0

>  <Rbt.Current_Directory>
/home/itssahil/PROJECTS/Mol_Feturizer/New_Systems/rnas/3F2Q

>  <Rbt.Executable>
rbdock ($Id: //depot/dev/client3/rdock/2013.1/src/exe/rbdock.cxx#4 $)

>  <Rbt.Library>
libRbt.so (2013.1, Build901 2013/11/27)

>  <Rbt.Parameter_File>
/export/apps/rDock/src/rDock_2013.1_src/data/scripts/dock_solv.prm

>  <Rbt.Receptor>
prm/pocket_docking_6.prm

>  <SCORE>
-31.7791

>  <SCORE.INTER>
-27.5044

>  <SCORE.INTER.CONST>
1

>  <SCORE.INTER.POLAR>
0

>  <SCORE.INTER.ROT>
7

>  <SCORE.INTER.SOLV>
15.9642

>  <SCORE.INTER.VDW>
-31.9243

>  <SCORE.INTER.norm>
-0.887239

>  <SCORE.INTRA>
-4.2747

>  <SCORE.INTRA.DIHEDRAL>
-6.16835

>  <SCORE.INTRA.DIHEDRAL.0>
10.0718

>  <SCORE.INTRA.POLAR>
0

>  <SCORE.INTRA.POLAR.0>
0

>  <SCORE.INTRA.REPUL>
0

>  <SCORE.INTRA.REPUL.0>
0

>  <SCORE.INTRA.SOLV>
-0.454295

>  <SCORE.INTRA.SOLV.lig_0>
-48.6963

>  <SCORE.INTRA.VDW>
-0.96338

>  <SCORE.INTRA.VDW.0>
-0.836976

>  <SCORE.INTRA.norm>
-0.137894

>  <SCORE.RESTR>
0

>  <SCORE.RESTR.CAVITY>
0

>  <SCORE.RESTR.norm>
0

>  <SCORE.SYSTEM>
0

>  <SCORE.SYSTEM.CONST>
0

>  <SCORE.SYSTEM.DIHEDRAL>
0

>  <SCORE.SYSTEM.SOLV>
0

>  <SCORE.SYSTEM.norm>
0

>  <SCORE.heavy>
31

>  <SCORE.norm>
-1.02513

>  <RMSD>
4.864

$$$$
ligand
 OpenBabel11021811473D
libRbt.so/2013.1/901 2013/11/27
 31 33  0  0  0  0  0  0  0  0999 V2000
   26.0428   35.0268   17.9142 P   0  0  1  0  0  0  0  0  0  0  0  0
   27.1997   34.9586   18.8880 O   0  0  0  0  0  0  0  0  0  0  0  0
   25.8280   33.6468   17.3532 O   0  5  0  0  0  0  0  0  0  0  0  0
   24.7956   35.4827   18.6204 O   0  0  0  0  0  0  0  0  0  0  0  0
   26.7198   37.4220   17.1487 C   0  0  0  0  0  0  0  0  0  0  0  0
   26.3621   36.1119   16.7814 O   0  0  0  0  0  0  0  0  0  0  0  0
   28.1639   37.4283   17.6282 C   0  0  1  0  0  0  0  0  0  0  0  0
   28.9999   37.0769   16.5461 O   0  0  0  0  0  0  0  0  0  0  0  0
   28.5388   38.8095   18.1653 C   0  0  1  0  0  0  0  0  0  0  0  0
   28.0963   39.8039   17.2664 O   0  0  0  0  0  0  0  0  0  0  0  0
   28.0277   39.0794   19.5874 C   0  0  1  0  0  0  0  0  0  0  0  0
   26.6438   38.8176   19.6579 O   0  0  0  0  0  0  0  0  0  0  0  0
   28.7470   38.2441   20.6345 C   0  0  0  0  0  0  0  0  0  0  0  0
   27.6668   35.8646   21.7089 N   0  0  0  0  0  0  0  0  0  0  0  0
   27.2042   34.6686   22.2189 C   0  0  0  0  0  0  0  0  0  0  0  0
   27.3541   33.6233   21.5801 O   0  0  0  0  0  0  0  0  0  0  0  0
   26.5649   34.6506   23.4421 N   0  0  0  0  0  0  0  0  0  0  0  0
   26.3873   35.8214   24.1549 C   0  0  0  0  0  0  0  0  0  0  0  0
   26.8500   37.0185   23.6493 C   0  0  1  0  0  0  0  0  0  0  0  0
   25.8275   35.8182   25.2499 O   0  0  0  0  0  0  0  0  0  0  0  0
   27.1330   39.3770   23.8772 C   0  0  2  0  0  0  0  0  0  0  0  0
   26.6681   38.1781   24.3776 N   0  0  0  0  0  0  0  0  0  0  0  0
   26.9490   40.5478   24.6087 C   0  0  0  0  0  0  0  0  0  0  0  0
   27.4073   41.7629   24.1096 C   0  0  1  0  0  0  0  0  0  0  0  0
   27.2098   43.0160   24.9172 C   0  0  0  0  0  0  0  0  0  0  0  0
   28.0571   41.8017   22.8706 C   0  0  1  0  0  0  0  0  0  0  0  0
   28.5761   43.0946   22.3124 C   0  0  0  0  0  0  0  0  0  0  0  0
   28.2396   40.6295   22.1430 C   0  0  0  0  0  0  0  0  0  0  0  0
   27.7795   39.4115   22.6380 C   0  0  2  0  0  0  0  0  0  0  0  0
   27.4963   37.0420   22.4187 C   0  0  2  0  0  0  0  0  0  0  0  0
   27.9528   38.2418   21.9077 N   0  0  0  0  0  0  0  0  0  0  0  0
  1  2  1  1  0  0  0
  1  3  1  0  0  0  0
  1  4  2  0  0  0  0
  1  6  1  0  0  0  0
  5  6  1  0  0  0  0
  7  5  1  6  0  0  0
  7  8  1  0  0  0  0
  7  9  1  0  0  0  0
  9 10  1  6  0  0  0
  9 11  1  0  0  0  0
 11 12  1  6  0  0  0
 11 13  1  0  0  0  0
 13 31  1  0  0  0  0
 14 15  1  0  0  0  0
 15 16  2  0  0  0  0
 15 17  1  0  0  0  0
 17 18  1  0  0  0  0
 18 20  2  0  0  0  0
 19 18  1  1  0  0  0
 19 22  1  0  0  0  0
 19 30  1  0  0  0  0
 21 23  1  6  0  0  0
 21 29  1  0  0  0  0
 21 22  1  0  0  0  0
 23 24  1  0  0  0  0
 24 25  1  1  0  0  0
 24 26  1  0  0  0  0
 26 27  1  1  0  0  0
 26 28  1  0  0  0  0
 29 28  1  6  0  0  0
 29 31  1  0  0  0  0
 30 14  1  6  0  0  0
 30 31  1  0  0  0  0
M  CHG  1   3  -1
M  END
>  <CHROM.1>
76.33512665,-53.54730034,64.47277386,-46.15655558,-52.16617919,-163.30856271
-65.93817515,27.20093554,37.62510937,20.84045646,1.93659803,-1.30318214,-1.92313564

>  <Name>
ligand

>  <RI>
0

>  <Rbt.Current_Directory>
/home/itssahil/PROJECTS/Mol_Feturizer/New_Systems/rnas/3F2Q

>  <Rbt.Executable>
rbdock ($Id: //depot/dev/client3/rdock/2013.1/src/exe/rbdock.cxx#4 $)

>  <Rbt.Library>
libRbt.so (2013.1, Build901 2013/11/27)

>  <Rbt.Parameter_File>
/export/apps/rDock/src/rDock_2013.1_src/data/scripts/dock_solv.prm

>  <Rbt.Receptor>
prm/pocket_docking_5.prm

>  <SCORE>
-28.2589

>  <SCORE.INTER>
-24.1603

>  <SCORE.INTER.CONST>
1

>  <SCORE.INTER.POLAR>
0

>  <SCORE.INTER.ROT>
7

>  <SCORE.INTER.SOLV>
10.7239

>  <SCORE.INTER.VDW>
-27.9482

>  <SCORE.INTER.norm>
-0.779364

>  <SCORE.INTRA>
-4.09863

>  <SCORE.INTRA.DIHEDRAL>
-5.53051

>  <SCORE.INTRA.DIHEDRAL.0>
10.0718

>  <SCORE.INTRA.POLAR>
0

>  <SCORE.INTRA.POLAR.0>
0

>  <SCORE.INTRA.REPUL>
0

>  <SCORE.INTRA.REPUL.0>
0

>  <SCORE.INTRA.SOLV>
0.22631

>  <SCORE.INTRA.SOLV.lig_0>
-48.6963

>  <SCORE.INTRA.VDW>
-1.44653

>  <SCORE.INTRA.VDW.0>
-0.836976

>  <SCORE.INTRA.norm>
-0.132214

>  <SCORE.RESTR>
0

>  <SCORE.RESTR.CAVITY>
0

>  <SCORE.RESTR.norm>
0

>  <SCORE.SYSTEM>
0

>  <SCORE.SYSTEM.CONST>
0

>  <SCORE.SYSTEM.DIHEDRAL>
0

>  <SCORE.SYSTEM.SOLV>
0

>  <SCORE.SYSTEM.norm>
0

>  <SCORE.heavy>
31

>  <SCORE.norm>
-0.911578

>  <RMSD>
4.865

$$$$
ligand
 OpenBabel11021811473D
libRbt.so/2013.1/901 2013/11/27
 31 33  0  0  0  0  0  0  0  0999 V2000
   25.6625   43.3491   16.0686 P   0  0  1  0  0  0  0  0  0  0  0  0
   24.3015   43.2274   15.4170 O   0  0  0  0  0  0  0  0  0  0  0  0
   26.6496   43.7533   15.0068 O   0  5  0  0  0  0  0  0  0  0  0  0
   25.6295   44.3946   17.1492 O   0  0  0  0  0  0  0  0  0  0  0  0
   27.3355   41.7756   17.2962 C   0  0  0  0  0  0  0  0  0  0  0  0
   26.0436   41.9621   16.7711 O   0  0  0  0  0  0  0  0  0  0  0  0
   27.4022   40.4207   17.9855 C   0  0  1  0  0  0  0  0  0  0  0  0
   28.7581   40.0881   18.1960 O   0  0  0  0  0  0  0  0  0  0  0  0
   26.6509   40.4645   19.3160 C   0  0  1  0  0  0  0  0  0  0  0  0
   25.3506   40.9735   19.1097 O   0  0  0  0  0  0  0  0  0  0  0  0
   26.6095   39.1155   20.0473 C   0  0  1  0  0  0  0  0  0  0  0  0
   26.3580   38.0776   19.1262 O   0  0  0  0  0  0  0  0  0  0  0  0
   27.8993   38.8168   20.7948 C   0  0  0  0  0  0  0  0  0  0  0  0
   27.2008   39.7060   23.3841 N   0  0  0  0  0  0  0  0  0  0  0  0
   26.8136   40.1899   24.6172 C   0  0  0  0  0  0  0  0  0  0  0  0
   26.7961   41.4058   24.8279 O   0  0  0  0  0  0  0  0  0  0  0  0
   26.4559   39.3059   25.6151 N   0  0  0  0  0  0  0  0  0  0  0  0
   26.4839   37.9434   25.3843 C   0  0  0  0  0  0  0  0  0  0  0  0
   26.8685   37.4560   24.1527 C   0  0  1  0  0  0  0  0  0  0  0  0
   26.1590   37.1451   26.2617 O   0  0  0  0  0  0  0  0  0  0  0  0
   27.2663   35.6000   22.7064 C   0  0  2  0  0  0  0  0  0  0  0  0
   26.8860   36.0914   23.9384 N   0  0  0  0  0  0  0  0  0  0  0  0
   27.2867   34.2245   22.4886 C   0  0  0  0  0  0  0  0  0  0  0  0
   27.6759   33.7185   21.2523 C   0  0  1  0  0  0  0  0  0  0  0  0
   27.6819   32.2311   21.0307 C   0  0  0  0  0  0  0  0  0  0  0  0
   28.0431   34.5989   20.2283 C   0  0  1  0  0  0  0  0  0  0  0  0
   28.4531   34.0844   18.8793 C   0  0  0  0  0  0  0  0  0  0  0  0
   28.0208   35.9727   20.4498 C   0  0  0  0  0  0  0  0  0  0  0  0
   27.6346   36.4830   21.6869 C   0  0  2  0  0  0  0  0  0  0  0  0
   27.2279   38.3420   23.1435 C   0  0  2  0  0  0  0  0  0  0  0  0
   27.6213   37.8544   21.9120 N   0  0  0  0  0  0  0  0  0  0  0  0
  1  2  1  6  0  0  0
  1  3  1  0  0  0  0
  1  4  2  0  0  0  0
  1  6  1  0  0  0  0
  5  6  1  0  0  0  0
  7  5  1  1  0  0  0
  7  8  1  0  0  0  0
  7  9  1  0  0  0  0
  9 10  1  6  0  0  0
  9 11  1  0  0  0  0
 11 12  1  6  0  0  0
 11 13  1  0  0  0  0
 13 31  1  0  0  0  0
 14 15  1  0  0  0  0
 15 16  2  0  0  0  0
 15 17  1  0  0  0  0
 17 18  1  0  0  0  0
 18 20  2  0  0  0  0
 19 18  1  6  0  0  0
 19 22  1  0  0  0  0
 19 30  1  0  0  0  0
 21 23  1  1  0  0  0
 21 29  1  0  0  0  0
 21 22  1  0  0  0  0
 23 24  1  0  0  0  0
 24 25  1  6  0  0  0
 24 26  1  0  0  0  0
 26 27  1  6  0  0  0
 26 28  1  0  0  0  0
 29 28  1  1  0  0  0
 29 31  1  0  0  0  0
 30 14  1  1  0  0  0
 30 31  1  0  0  0  0
M  CHG  1   3  -1
M  END
>  <CHROM.1>
176.17212468,171.86897152,164.81738887,51.95484997,-42.05887649,155.99116615
86.56327456,26.85394675,39.01417884,20.46184116,-2.18483647,-1.34407779,1.75950042

>  <Name>
ligand

>  <RI>
0

>  <Rbt.Current_Directory>
/home/itssahil/PROJECTS/Mol_Feturizer/New_Systems/rnas/3F2Q

>  <Rbt.Executable>
rbdock ($Id: //depot/dev/client3/rdock/2013.1/src/exe/rbdock.cxx#4 $)

>  <Rbt.Library>
libRbt.so (2013.1, Build901 2013/11/27)

>  <Rbt.Parameter_File>
/export/apps/rDock/src/rDock_2013.1_src/data/scripts/dock_solv.prm

>  <Rbt.Receptor>
prm/blind_docking_100.prm

>  <SCORE>
-30.1109

>  <SCORE.INTER>
-26.5199

>  <SCORE.INTER.CONST>
1

>  <SCORE.INTER.POLAR>
0

>  <SCORE.INTER.ROT>
7

>  <SCORE.INTER.SOLV>
20.7266

>  <SCORE.INTER.VDW>
-32.8555

>  <SCORE.INTER.norm>
-0.855481

>  <SCORE.INTRA>
-3.59095

>  <SCORE.INTRA.DIHEDRAL>
-4.83841

>  <SCORE.INTRA.DIHEDRAL.0>
10.0718

>  <SCORE.INTRA.POLAR>
0

>  <SCORE.INTRA.POLAR.0>
0

>  <SCORE.INTRA.REPUL>
0

>  <SCORE.INTRA.REPUL.0>
0

>  <SCORE.INTRA.SOLV>
0.0455647

>  <SCORE.INTRA.SOLV.lig_0>
-48.6963

>  <SCORE.INTRA.VDW>
-1.19452

>  <SCORE.INTRA.VDW.0>
-0.836976

>  <SCORE.INTRA.norm>
-0.115837

>  <SCORE.RESTR>
0

>  <SCORE.RESTR.CAVITY>
0

>  <SCORE.RESTR.norm>
0

>  <SCORE.SYSTEM>
0

>  <SCORE.SYSTEM.CONST>
0

>  <SCORE.SYSTEM.DIHEDRAL>
0

>  <SCORE.SYSTEM.SOLV>
0

>  <SCORE.SYSTEM.norm>
0

>  <SCORE.heavy>
31

>  <SCORE.norm>
-0.971318

>  <RMSD>
4.872

$$$$
ligand
 OpenBabel11021811473D
libRbt.so/2013.1/901 2013/11/27
 31 33  0  0  0  0  0  0  0  0999 V2000
   25.0278   43.1532   16.5384 P   0  0  1  0  0  0  0  0  0  0  0  0
   25.7266   44.2452   17.3199 O   0  0  0  0  0  0  0  0  0  0  0  0
   23.7603   43.7307   15.9683 O   0  5  0  0  0  0  0  0  0  0  0  0
   25.9087   42.6703   15.4191 O   0  0  0  0  0  0  0  0  0  0  0  0
   25.6117   41.6598   18.5903 C   0  0  0  0  0  0  0  0  0  0  0  0
   24.7596   41.8993   17.4967 O   0  0  0  0  0  0  0  0  0  0  0  0
   26.8673   40.9550   18.0984 C   0  0  1  0  0  0  0  0  0  0  0  0
   27.5151   41.7894   17.1616 O   0  0  0  0  0  0  0  0  0  0  0  0
   27.7976   40.6476   19.2718 C   0  0  1  0  0  0  0  0  0  0  0  0
   27.9870   41.8134   20.0447 O   0  0  0  0  0  0  0  0  0  0  0  0
   27.3271   39.4743   20.1426 C   0  0  1  0  0  0  0  0  0  0  0  0
   26.8738   38.4198   19.3233 O   0  0  0  0  0  0  0  0  0  0  0  0
   28.4202   38.9555   21.0633 C   0  0  0  0  0  0  0  0  0  0  0  0
   27.2747   39.2743   23.6264 N   0  0  0  0  0  0  0  0  0  0  0  0
   26.6777   39.4890   24.8519 C   0  0  0  0  0  0  0  0  0  0  0  0
   26.6621   40.6208   25.3437 O   0  0  0  0  0  0  0  0  0  0  0  0
   26.1075   38.4291   25.5278 N   0  0  0  0  0  0  0  0  0  0  0  0
   26.1322   37.1589   24.9834 C   0  0  0  0  0  0  0  0  0  0  0  0
   26.7263   36.9407   23.7579 C   0  0  1  0  0  0  0  0  0  0  0  0
   25.6200   36.2075   25.5708 O   0  0  0  0  0  0  0  0  0  0  0  0
   27.3272   35.4437   21.9993 C   0  0  2  0  0  0  0  0  0  0  0  0
   26.7375   35.6655   23.2269 N   0  0  0  0  0  0  0  0  0  0  0  0
   27.3416   34.1585   21.4627 C   0  0  0  0  0  0  0  0  0  0  0  0
   27.9403   33.9230   20.2291 C   0  0  1  0  0  0  0  0  0  0  0  0
   27.9375   32.5313   19.6594 C   0  0  0  0  0  0  0  0  0  0  0  0
   28.5247   34.9846   19.5291 C   0  0  1  0  0  0  0  0  0  0  0  0
   29.1650   34.7652   18.1895 C   0  0  0  0  0  0  0  0  0  0  0  0
   28.5077   36.2675   20.0684 C   0  0  0  0  0  0  0  0  0  0  0  0
   27.9119   36.5068   21.3044 C   0  0  2  0  0  0  0  0  0  0  0  0
   27.3003   38.0049   23.0720 C   0  0  2  0  0  0  0  0  0  0  0  0
   27.9029   37.7858   21.8481 N   0  0  0  0  0  0  0  0  0  0  0  0
  1  2  1  1  0  0  0
  1  3  1  0  0  0  0
  1  4  2  0  0  0  0
  1  6  1  0  0  0  0
  5  6  1  0  0  0  0
  7  5  1  1  0  0  0
  7  8  1  0  0  0  0
  7  9  1  0  0  0  0
  9 10  1  1  0  0  0
  9 11  1  0  0  0  0
 11 12  1  6  0  0  0
 11 13  1  0  0  0  0
 13 31  1  0  0  0  0
 14 15  1  0  0  0  0
 15 16  2  0  0  0  0
 15 17  1  0  0  0  0
 17 18  1  0  0  0  0
 18 20  2  0  0  0  0
 19 18  1  6  0  0  0
 19 22  1  0  0  0  0
 19 30  1  0  0  0  0
 21 23  1  1  0  0  0
 21 29  1  0  0  0  0
 21 22  1  0  0  0  0
 23 24  1  0  0  0  0
 24 25  1  6  0  0  0
 24 26  1  0  0  0  0
 26 27  1  6  0  0  0
 26 28  1  0  0  0  0
 29 28  1  1  0  0  0
 29 31  1  0  0  0  0
 30 14  1  1  0  0  0
 30 31  1  0  0  0  0
M  CHG  1   3  -1
M  END
>  <CHROM.1>
-80.74663867,-27.77152522,60.34244928,-50.20014081,43.11011229,-178.17638761
83.67856638,26.82372275,38.97810424,20.39306042,2.20838671,1.26040552,-1.32806443

>  <Name>
ligand

>  <RI>
0

>  <Rbt.Current_Directory>
/home/itssahil/PROJECTS/Mol_Feturizer/New_Systems/rnas/3F2Q

>  <Rbt.Executable>
rbdock ($Id: //depot/dev/client3/rdock/2013.1/src/exe/rbdock.cxx#4 $)

>  <Rbt.Library>
libRbt.so (2013.1, Build901 2013/11/27)

>  <Rbt.Parameter_File>
/export/apps/rDock/src/rDock_2013.1_src/data/scripts/dock_solv.prm

>  <Rbt.Receptor>
prm/blind_docking_80.prm

>  <SCORE>
-28.6423

>  <SCORE.INTER>
-26.6298

>  <SCORE.INTER.CONST>
1

>  <SCORE.INTER.POLAR>
0

>  <SCORE.INTER.ROT>
7

>  <SCORE.INTER.SOLV>
18.3678

>  <SCORE.INTER.VDW>
-32.1424

>  <SCORE.INTER.norm>
-0.859025

>  <SCORE.INTRA>
-2.01249

>  <SCORE.INTRA.DIHEDRAL>
-4.30452

>  <SCORE.INTRA.DIHEDRAL.0>
10.0718

>  <SCORE.INTRA.POLAR>
0

>  <SCORE.INTRA.POLAR.0>
0

>  <SCORE.INTRA.REPUL>
0

>  <SCORE.INTRA.REPUL.0>
0

>  <SCORE.INTRA.SOLV>
1.1222

>  <SCORE.INTRA.SOLV.lig_0>
-48.6963

>  <SCORE.INTRA.VDW>
-0.421326

>  <SCORE.INTRA.VDW.0>
-0.836976

>  <SCORE.INTRA.norm>
-0.064919

>  <SCORE.RESTR>
0

>  <SCORE.RESTR.CAVITY>
0

>  <SCORE.RESTR.norm>
0

>  <SCORE.SYSTEM>
0

>  <SCORE.SYSTEM.CONST>
0

>  <SCORE.SYSTEM.DIHEDRAL>
0

>  <SCORE.SYSTEM.SOLV>
0

>  <SCORE.SYSTEM.norm>
0

>  <SCORE.heavy>
31

>  <SCORE.norm>
-0.923944

>  <RMSD>
4.873

$$$$
ligand
 OpenBabel11021811473D
libRbt.so/2013.1/901 2013/11/27
 31 33  0  0  0  0  0  0  0  0999 V2000
   25.6497   43.5243   16.4563 P   0  0  1  0  0  0  0  0  0  0  0  0
   25.9024   43.3297   14.9765 O   0  0  0  0  0  0  0  0  0  0  0  0
   25.6820   45.0018   16.7411 O   0  5  0  0  0  0  0  0  0  0  0  0
   24.3032   42.9689   16.8307 O   0  0  0  0  0  0  0  0  0  0  0  0
   26.6874   41.3036   17.3358 C   0  0  0  0  0  0  0  0  0  0  0  0
   26.7419   42.7088   17.2959 O   0  0  0  0  0  0  0  0  0  0  0  0
   27.9137   40.7781   18.0675 C   0  0  1  0  0  0  0  0  0  0  0  0
   29.0585   41.4205   17.5481 O   0  0  0  0  0  0  0  0  0  0  0  0
   27.7893   41.0408   19.5683 C   0  0  1  0  0  0  0  0  0  0  0  0
   26.9302   42.1391   19.7878 O   0  0  0  0  0  0  0  0  0  0  0  0
   27.3404   39.8147   20.3754 C   0  0  1  0  0  0  0  0  0  0  0  0
   26.4976   39.0036   19.5876 O   0  0  0  0  0  0  0  0  0  0  0  0
   28.5115   38.9820   20.8722 C   0  0  0  0  0  0  0  0  0  0  0  0
   27.4553   39.4168   23.4565 N   0  0  0  0  0  0  0  0  0  0  0  0
   26.9021   39.6878   24.6914 C   0  0  0  0  0  0  0  0  0  0  0  0
   26.9205   40.8375   25.1398 O   0  0  0  0  0  0  0  0  0  0  0  0
   26.3376   38.6641   25.4253 N   0  0  0  0  0  0  0  0  0  0  0  0
   26.3244   37.3739   24.9294 C   0  0  0  0  0  0  0  0  0  0  0  0
   26.8746   37.0995   23.6947 C   0  0  1  0  0  0  0  0  0  0  0  0
   25.8166   36.4543   25.5688 O   0  0  0  0  0  0  0  0  0  0  0  0
   27.3940   35.5272   21.9763 C   0  0  2  0  0  0  0  0  0  0  0  0
   26.8483   35.8052   23.2128 N   0  0  0  0  0  0  0  0  0  0  0  0
   27.3705   34.2226   21.4892 C   0  0  0  0  0  0  0  0  0  0  0  0
   27.9249   33.9305   20.2470 C   0  0  1  0  0  0  0  0  0  0  0  0
   27.8815   32.5185   19.7313 C   0  0  0  0  0  0  0  0  0  0  0  0
   28.5029   34.9549   19.4885 C   0  0  1  0  0  0  0  0  0  0  0  0
   29.0955   34.6742   18.1385 C   0  0  0  0  0  0  0  0  0  0  0  0
   28.5238   36.2573   19.9785 C   0  0  0  0  0  0  0  0  0  0  0  0
   27.9725   36.5532   21.2230 C   0  0  2  0  0  0  0  0  0  0  0  0
   27.4428   38.1272   22.9506 C   0  0  2  0  0  0  0  0  0  0  0  0
   28.0016   37.8518   21.7173 N   0  0  0  0  0  0  0  0  0  0  0  0
  1  2  1  6  0  0  0
  1  3  1  0  0  0  0
  1  4  2  0  0  0  0
  1  6  1  0  0  0  0
  5  6  1  0  0  0  0
  7  5  1  6  0  0  0
  7  8  1  0  0  0  0
  7  9  1  0  0  0  0
  9 10  1  6  0  0  0
  9 11  1  0  0  0  0
 11 12  1  6  0  0  0
 11 13  1  0  0  0  0
 13 31  1  0  0  0  0
 14 15  1  0  0  0  0
 15 16  2  0  0  0  0
 15 17  1  0  0  0  0
 17 18  1  0  0  0  0
 18 20  2  0  0  0  0
 19 18  1  6  0  0  0
 19 22  1  0  0  0  0
 19 30  1  0  0  0  0
 21 23  1  1  0  0  0
 21 29  1  0  0  0  0
 21 22  1  0  0  0  0
 23 24  1  0  0  0  0
 24 25  1  6  0  0  0
 24 26  1  0  0  0  0
 26 27  1  6  0  0  0
 26 28  1  0  0  0  0
 29 28  1  1  0  0  0
 29 31  1  0  0  0  0
 30 14  1  1  0  0  0
 30 31  1  0  0  0  0
M  CHG  1   3  -1
M  END
>  <CHROM.1>
173.90703277,-71.47707103,-47.84032099,-24.92252798,-31.24919463,176.67116127
104.91051566,27.07997633,39.13535384,20.32237494,2.06445263,1.30449264,-1.17491566

>  <Name>
ligand

>  <RI>
0

>  <Rbt.Current_Directory>
/home/itssahil/PROJECTS/Mol_Feturizer/New_Systems/rnas/3F2Q

>  <Rbt.Executable>
rbdock ($Id: //depot/dev/client3/rdock/2013.1/src/exe/rbdock.cxx#4 $)

>  <Rbt.Library>
libRbt.so (2013.1, Build901 2013/11/27)

>  <Rbt.Parameter_File>
/export/apps/rDock/src/rDock_2013.1_src/data/scripts/dock_solv.prm

>  <Rbt.Receptor>
prm/pocket_docking_3.prm

>  <SCORE>
-27.7243

>  <SCORE.INTER>
-27.0744

>  <SCORE.INTER.CONST>
1

>  <SCORE.INTER.POLAR>
0

>  <SCORE.INTER.ROT>
7

>  <SCORE.INTER.SOLV>
19.4779

>  <SCORE.INTER.VDW>
-32.8089

>  <SCORE.INTER.norm>
-0.873368

>  <SCORE.INTRA>
-0.649905

>  <SCORE.INTRA.DIHEDRAL>
-2.12768

>  <SCORE.INTRA.DIHEDRAL.0>
10.0718

>  <SCORE.INTRA.POLAR>
0

>  <SCORE.INTRA.POLAR.0>
0

>  <SCORE.INTRA.REPUL>
0

>  <SCORE.INTRA.REPUL.0>
0

>  <SCORE.INTRA.SOLV>
-0.335386

>  <SCORE.INTRA.SOLV.lig_0>
-48.6963

>  <SCORE.INTRA.VDW>
0.581626

>  <SCORE.INTRA.VDW.0>
-0.836976

>  <SCORE.INTRA.norm>
-0.0209647

>  <SCORE.RESTR>
0

>  <SCORE.RESTR.CAVITY>
0

>  <SCORE.RESTR.norm>
0

>  <SCORE.SYSTEM>
0

>  <SCORE.SYSTEM.CONST>
0

>  <SCORE.SYSTEM.DIHEDRAL>
0

>  <SCORE.SYSTEM.SOLV>
0

>  <SCORE.SYSTEM.norm>
0

>  <SCORE.heavy>
31

>  <SCORE.norm>
-0.894332

>  <RMSD>
4.883

$$$$
ligand
 OpenBabel11021811473D
libRbt.so/2013.1/901 2013/11/27
 31 33  0  0  0  0  0  0  0  0999 V2000
   27.2442   35.4319   14.9493 P   0  0  1  0  0  0  0  0  0  0  0  0
   26.5591   36.3649   13.9737 O   0  0  0  0  0  0  0  0  0  0  0  0
   26.4961   34.1260   14.9440 O   0  5  0  0  0  0  0  0  0  0  0  0
   28.6693   35.1972   14.5300 O   0  0  0  0  0  0  0  0  0  0  0  0
   26.0976   36.5627   16.9958 C   0  0  0  0  0  0  0  0  0  0  0  0
   27.2887   36.1131   16.3973 O   0  0  0  0  0  0  0  0  0  0  0  0
   26.4160   37.1387   18.3677 C   0  0  1  0  0  0  0  0  0  0  0  0
   26.9228   36.1045   19.1845 O   0  0  0  0  0  0  0  0  0  0  0  0
   27.4366   38.2699   18.2445 C   0  0  1  0  0  0  0  0  0  0  0  0
   27.0472   39.1495   17.2115 O   0  0  0  0  0  0  0  0  0  0  0  0
   27.6806   39.0281   19.5568 C   0  0  1  0  0  0  0  0  0  0  0  0
   26.4487   39.4143   20.1243 O   0  0  0  0  0  0  0  0  0  0  0  0
   28.4601   38.2053   20.5702 C   0  0  0  0  0  0  0  0  0  0  0  0
   27.3587   35.9104   21.7965 N   0  0  0  0  0  0  0  0  0  0  0  0
   26.8825   34.7522   22.3763 C   0  0  0  0  0  0  0  0  0  0  0  0
   26.9260   33.6858   21.7565 O   0  0  0  0  0  0  0  0  0  0  0  0
   26.3489   34.7958   23.6485 N   0  0  0  0  0  0  0  0  0  0  0  0
   26.2903   35.9907   24.3409 C   0  0  0  0  0  0  0  0  0  0  0  0
   26.7670   37.1501   23.7655 C   0  0  1  0  0  0  0  0  0  0  0  0
   25.8258   36.0420   25.4784 O   0  0  0  0  0  0  0  0  0  0  0  0
   27.1843   39.4956   23.9035 C   0  0  2  0  0  0  0  0  0  0  0  0
   26.7048   38.3343   24.4740 N   0  0  0  0  0  0  0  0  0  0  0  0
   27.1208   40.6913   24.6150 C   0  0  0  0  0  0  0  0  0  0  0  0
   27.5946   41.8691   24.0458 C   0  0  1  0  0  0  0  0  0  0  0  0
   27.5282   43.1493   24.8320 C   0  0  0  0  0  0  0  0  0  0  0  0
   28.1382   41.8453   22.7564 C   0  0  1  0  0  0  0  0  0  0  0  0
   28.6712   43.0963   22.1212 C   0  0  0  0  0  0  0  0  0  0  0  0
   28.2004   40.6484   22.0490 C   0  0  0  0  0  0  0  0  0  0  0  0
   27.7244   39.4677   22.6142 C   0  0  2  0  0  0  0  0  0  0  0  0
   27.3072   37.1114   22.4851 C   0  0  2  0  0  0  0  0  0  0  0  0
   27.7774   38.2738   21.9047 N   0  0  0  0  0  0  0  0  0  0  0  0
  1  2  1  6  0  0  0
  1  3  1  0  0  0  0
  1  4  2  0  0  0  0
  1  6  1  0  0  0  0
  5  6  1  0  0  0  0
  7  5  1  6  0  0  0
  7  8  1  0  0  0  0
  7  9  1  0  0  0  0
  9 10  1  6  0  0  0
  9 11  1  0  0  0  0
 11 12  1  1  0  0  0
 11 13  1  0  0  0  0
 13 31  1  0  0  0  0
 14 15  1  0  0  0  0
 15 16  2  0  0  0  0
 15 17  1  0  0  0  0
 17 18  1  0  0  0  0
 18 20  2  0  0  0  0
 19 18  1  1  0  0  0
 19 22  1  0  0  0  0
 19 30  1  0  0  0  0
 21 23  1  6  0  0  0
 21 29  1  0  0  0  0
 21 22  1  0  0  0  0
 23 24  1  0  0  0  0
 24 25  1  1  0  0  0
 24 26  1  0  0  0  0
 26 27  1  1  0  0  0
 26 28  1  0  0  0  0
 29 28  1  6  0  0  0
 29 31  1  0  0  0  0
 30 14  1  6  0  0  0
 30 31  1  0  0  0  0
M  CHG  1   3  -1
M  END
>  <CHROM.1>
178.89290955,54.78697988,-63.71575107,47.36082855,-50.26456130,-131.97927902
-67.11394944,27.18636147,37.67162057,20.36377725,-1.67921409,1.37753374,1.22054125

>  <Name>
ligand

>  <RI>
0

>  <Rbt.Current_Directory>
/home/itssahil/PROJECTS/Mol_Feturizer/New_Systems/rnas/3F2Q

>  <Rbt.Executable>
rbdock ($Id: //depot/dev/client3/rdock/2013.1/src/exe/rbdock.cxx#4 $)

>  <Rbt.Library>
libRbt.so (2013.1, Build901 2013/11/27)

>  <Rbt.Parameter_File>
/export/apps/rDock/src/rDock_2013.1_src/data/scripts/dock_solv.prm

>  <Rbt.Receptor>
prm/blind_docking_60.prm

>  <SCORE>
-29.3662

>  <SCORE.INTER>
-27.2022

>  <SCORE.INTER.CONST>
1

>  <SCORE.INTER.POLAR>
0

>  <SCORE.INTER.ROT>
7

>  <SCORE.INTER.SOLV>
12.9559

>  <SCORE.INTER.VDW>
-30.7201

>  <SCORE.INTER.norm>
-0.877491

>  <SCORE.INTRA>
-2.16402

>  <SCORE.INTRA.DIHEDRAL>
-2.98231

>  <SCORE.INTRA.DIHEDRAL.0>
10.0718

>  <SCORE.INTRA.POLAR>
0

>  <SCORE.INTRA.POLAR.0>
0

>  <SCORE.INTRA.REPUL>
0

>  <SCORE.INTRA.REPUL.0>
0

>  <SCORE.INTRA.SOLV>
-0.369867

>  <SCORE.INTRA.SOLV.lig_0>
-48.6963

>  <SCORE.INTRA.VDW>
-0.487928

>  <SCORE.INTRA.VDW.0>
-0.836976

>  <SCORE.INTRA.norm>
-0.069807

>  <SCORE.RESTR>
0

>  <SCORE.RESTR.CAVITY>
0

>  <SCORE.RESTR.norm>
0

>  <SCORE.SYSTEM>
0

>  <SCORE.SYSTEM.CONST>
0

>  <SCORE.SYSTEM.DIHEDRAL>
0

>  <SCORE.SYSTEM.SOLV>
0

>  <SCORE.SYSTEM.norm>
0

>  <SCORE.heavy>
31

>  <SCORE.norm>
-0.947297

>  <RMSD>
4.885

$$$$
ligand
 OpenBabel11021811473D
libRbt.so/2013.1/901 2013/11/27
 31 33  0  0  0  0  0  0  0  0999 V2000
   27.7308   42.3887   17.1129 P   0  0  1  0  0  0  0  0  0  0  0  0
   27.3143   43.7434   16.5812 O   0  0  0  0  0  0  0  0  0  0  0  0
   26.7004   41.3828   16.6750 O   0  5  0  0  0  0  0  0  0  0  0  0
   29.0757   42.0047   16.5600 O   0  0  0  0  0  0  0  0  0  0  0  0
   26.7543   42.2886   19.5250 C   0  0  0  0  0  0  0  0  0  0  0  0
   27.8837   42.4642   18.7046 O   0  0  0  0  0  0  0  0  0  0  0  0
   27.1538   42.5093   20.9766 C   0  0  1  0  0  0  0  0  0  0  0  0
   26.0105   42.3461   21.7888 O   0  0  0  0  0  0  0  0  0  0  0  0
   28.2434   41.5175   21.3838 C   0  0  1  0  0  0  0  0  0  0  0  0
   28.7883   41.8969   22.6294 O   0  0  0  0  0  0  0  0  0  0  0  0
   27.7729   40.0565   21.4053 C   0  0  1  0  0  0  0  0  0  0  0  0
   27.4019   39.6525   20.1061 O   0  0  0  0  0  0  0  0  0  0  0  0
   28.8358   39.1087   21.9375 C   0  0  0  0  0  0  0  0  0  0  0  0
   27.4379   38.1207   24.1854 N   0  0  0  0  0  0  0  0  0  0  0  0
   26.7182   37.7030   25.2864 C   0  0  0  0  0  0  0  0  0  0  0  0
   26.6132   38.4371   26.2729 O   0  0  0  0  0  0  0  0  0  0  0  0
   26.1254   36.4565   25.2808 N   0  0  0  0  0  0  0  0  0  0  0  0
   26.2496   35.6287   24.1808 C   0  0  0  0  0  0  0  0  0  0  0  0
   26.9665   36.0434   23.0778 C   0  0  1  0  0  0  0  0  0  0  0  0
   25.7190   34.5195   24.1592 O   0  0  0  0  0  0  0  0  0  0  0  0
   27.7892   35.6177   20.8786 C   0  0  2  0  0  0  0  0  0  0  0  0
   27.0762   35.2050   21.9855 N   0  0  0  0  0  0  0  0  0  0  0  0
   27.9029   34.7733   19.7768 C   0  0  0  0  0  0  0  0  0  0  0  0
   28.6259   35.1770   18.6588 C   0  0  1  0  0  0  0  0  0  0  0  0
   28.7297   34.2572   17.4735 C   0  0  0  0  0  0  0  0  0  0  0  0
   29.2350   36.4369   18.6459 C   0  0  1  0  0  0  0  0  0  0  0  0
   30.0089   36.9069   17.4489 C   0  0  0  0  0  0  0  0  0  0  0  0
   29.1185   37.2780   19.7486 C   0  0  0  0  0  0  0  0  0  0  0  0
   28.3981   36.8763   20.8709 C   0  0  2  0  0  0  0  0  0  0  0  0
   27.5640   37.2987   23.0774 C   0  0  2  0  0  0  0  0  0  0  0  0
   28.2893   37.7117   21.9763 N   0  0  0  0  0  0  0  0  0  0  0  0
  1  2  1  6  0  0  0
  1  3  1  0  0  0  0
  1  4  2  0  0  0  0
  1  6  1  0  0  0  0
  5  6  1  0  0  0  0
  7  5  1  6  0  0  0
  7  8  1  0  0  0  0
  7  9  1  0  0  0  0
  9 10  1  1  0  0  0
  9 11  1  0  0  0  0
 11 12  1  6  0  0  0
 11 13  1  0  0  0  0
 13 31  1  0  0  0  0
 14 15  1  0  0  0  0
 15 16  2  0  0  0  0
 15 17  1  0  0  0  0
 17 18  1  0  0  0  0
 18 20  2  0  0  0  0
 19 18  1  6  0  0  0
 19 22  1  0  0  0  0
 19 30  1  0  0  0  0
 21 23  1  1  0  0  0
 21 29  1  0  0  0  0
 21 22  1  0  0  0  0
 23 24  1  0  0  0  0
 24 25  1  6  0  0  0
 24 26  1  0  0  0  0
 26 27  1  6  0  0  0
 26 28  1  0  0  0  0
 29 28  1  1  0  0  0
 29 31  1  0  0  0  0
 30 14  1  1  0  0  0
 30 31  1  0  0  0  0
M  CHG  1   3  -1
M  END
>  <CHROM.1>
-175.85223660,85.08245319,179.32660001,168.49135626,63.48973236,177.94081858
88.59163441,27.67025066,38.87454211,20.70952786,-1.23071794,-1.30204017,2.72835721

>  <Name>
ligand

>  <RI>
0

>  <Rbt.Current_Directory>
/home/itssahil/PROJECTS/Mol_Feturizer/New_Systems/rnas/3F2Q

>  <Rbt.Executable>
rbdock ($Id: //depot/dev/client3/rdock/2013.1/src/exe/rbdock.cxx#4 $)

>  <Rbt.Library>
libRbt.so (2013.1, Build901 2013/11/27)

>  <Rbt.Parameter_File>
/export/apps/rDock/src/rDock_2013.1_src/data/scripts/dock_solv.prm

>  <Rbt.Receptor>
prm/pocket_docking_6.prm

>  <SCORE>
-31.5099

>  <SCORE.INTER>
-26.7146

>  <SCORE.INTER.CONST>
1

>  <SCORE.INTER.POLAR>
0

>  <SCORE.INTER.ROT>
7

>  <SCORE.INTER.SOLV>
19.4627

>  <SCORE.INTER.VDW>
-32.5639

>  <SCORE.INTER.norm>
-0.86176

>  <SCORE.INTRA>
-4.79534

>  <SCORE.INTRA.DIHEDRAL>
-7.44593

>  <SCORE.INTRA.DIHEDRAL.0>
10.0718

>  <SCORE.INTRA.POLAR>
0

>  <SCORE.INTRA.POLAR.0>
0

>  <SCORE.INTRA.REPUL>
0

>  <SCORE.INTRA.REPUL.0>
0

>  <SCORE.INTRA.SOLV>
-0.505481

>  <SCORE.INTRA.SOLV.lig_0>
-48.6963

>  <SCORE.INTRA.VDW>
-0.819632

>  <SCORE.INTRA.VDW.0>
-0.836976

>  <SCORE.INTRA.norm>
-0.154688

>  <SCORE.RESTR>
0

>  <SCORE.RESTR.CAVITY>
0

>  <SCORE.RESTR.norm>
0

>  <SCORE.SYSTEM>
0

>  <SCORE.SYSTEM.CONST>
0

>  <SCORE.SYSTEM.DIHEDRAL>
0

>  <SCORE.SYSTEM.SOLV>
0

>  <SCORE.SYSTEM.norm>
0

>  <SCORE.heavy>
31

>  <SCORE.norm>
-1.01645

>  <RMSD>
4.887

$$$$
ligand
 OpenBabel11021811473D
libRbt.so/2013.1/901 2013/11/27
 31 33  0  0  0  0  0  0  0  0999 V2000
   26.3094   35.1951   17.3572 P   0  0  1  0  0  0  0  0  0  0  0  0
   25.7949   34.0971   16.4511 O   0  0  0  0  0  0  0  0  0  0  0  0
   25.3420   35.3430   18.5006 O   0  5  0  0  0  0  0  0  0  0  0  0
   27.6682   34.8339   17.8912 O   0  0  0  0  0  0  0  0  0  0  0  0
   26.7707   37.7518   17.1780 C   0  0  0  0  0  0  0  0  0  0  0  0
   26.4818   36.5453   16.5146 O   0  0  0  0  0  0  0  0  0  0  0  0
   28.2067   37.7130   17.6796 C   0  0  1  0  0  0  0  0  0  0  0  0
   29.0626   37.4861   16.5799 O   0  0  0  0  0  0  0  0  0  0  0  0
   28.5634   39.0292   18.3704 C   0  0  1  0  0  0  0  0  0  0  0  0
   28.1982   40.1131   17.5430 O   0  0  0  0  0  0  0  0  0  0  0  0
   27.9594   39.1742   19.7741 C   0  0  1  0  0  0  0  0  0  0  0  0
   26.5656   38.9660   19.7209 O   0  0  0  0  0  0  0  0  0  0  0  0
   28.5700   38.2064   20.7752 C   0  0  0  0  0  0  0  0  0  0  0  0
   27.3945   35.9127   21.9330 N   0  0  0  0  0  0  0  0  0  0  0  0
   26.8830   34.7549   22.4829 C   0  0  0  0  0  0  0  0  0  0  0  0
   26.9604   33.6890   21.8656 O   0  0  0  0  0  0  0  0  0  0  0  0
   26.2763   34.7985   23.7219 N   0  0  0  0  0  0  0  0  0  0  0  0
   26.1800   35.9929   24.4109 C   0  0  0  0  0  0  0  0  0  0  0  0
   26.6917   37.1518   23.8654 C   0  0  1  0  0  0  0  0  0  0  0  0
   25.6500   36.0441   25.5195 O   0  0  0  0  0  0  0  0  0  0  0  0
   27.1049   39.4964   24.0298 C   0  0  2  0  0  0  0  0  0  0  0  0
   26.5907   38.3356   24.5703 N   0  0  0  0  0  0  0  0  0  0  0  0
   27.0025   40.6915   24.7377 C   0  0  0  0  0  0  0  0  0  0  0  0
   27.5109   41.8689   24.1982 C   0  0  1  0  0  0  0  0  0  0  0  0
   27.4015   43.1485   24.9805 C   0  0  0  0  0  0  0  0  0  0  0  0
   28.1287   41.8451   22.9426 C   0  0  1  0  0  0  0  0  0  0  0  0
   28.7003   43.0955   22.3408 C   0  0  0  0  0  0  0  0  0  0  0  0
   28.2296   40.6487   22.2388 C   0  0  0  0  0  0  0  0  0  0  0  0
   27.7192   39.4685   22.7741 C   0  0  2  0  0  0  0  0  0  0  0  0
   27.3054   37.1132   22.6186 C   0  0  2  0  0  0  0  0  0  0  0  0
   27.8109   38.2751   22.0678 N   0  0  0  0  0  0  0  0  0  0  0  0
  1  2  1  6  0  0  0
  1  3  1  0  0  0  0
  1  4  2  0  0  0  0
  1  6  1  0  0  0  0
  5  6  1  0  0  0  0
  7  5  1  6  0  0  0
  7  8  1  0  0  0  0
  7  9  1  0  0  0  0
  9 10  1  6  0  0  0
  9 11  1  0  0  0  0
 11 12  1  6  0  0  0
 11 13  1  0  0  0  0
 13 31  1  0  0  0  0
 14 15  1  0  0  0  0
 15 16  2  0  0  0  0
 15 17  1  0  0  0  0
 17 18  1  0  0  0  0
 18 20  2  0  0  0  0
 19 18  1  1  0  0  0
 19 22  1  0  0  0  0
 19 30  1  0  0  0  0
 21 23  1  6  0  0  0
 21 29  1  0  0  0  0
 21 22  1  0  0  0  0
 23 24  1  0  0  0  0
 24 25  1  1  0  0  0
 24 26  1  0  0  0  0
 26 27  1  1  0  0  0
 26 28  1  0  0  0  0
 29 28  1  6  0  0  0
 29 31  1  0  0  0  0
 30 14  1  6  0  0  0
 30 31  1  0  0  0  0
M  CHG  1   3  -1
M  END
>  <CHROM.1>
71.78818944,171.21303208,57.18623746,-49.50776900,-53.50916732,-172.46029334
-59.65239886,27.20357802,37.76876808,20.84471245,1.79842386,-1.27936034,-1.95797763

>  <Name>
ligand

>  <RI>
0

>  <Rbt.Current_Directory>
/home/itssahil/PROJECTS/Mol_Feturizer/New_Systems/rnas/3F2Q

>  <Rbt.Executable>
rbdock ($Id: //depot/dev/client3/rdock/2013.1/src/exe/rbdock.cxx#4 $)

>  <Rbt.Library>
libRbt.so (2013.1, Build901 2013/11/27)

>  <Rbt.Parameter_File>
/export/apps/rDock/src/rDock_2013.1_src/data/scripts/dock_solv.prm

>  <Rbt.Receptor>
prm/pocket_docking_7.prm

>  <SCORE>
-27.052

>  <SCORE.INTER>
-24.062

>  <SCORE.INTER.CONST>
1

>  <SCORE.INTER.POLAR>
0

>  <SCORE.INTER.ROT>
7

>  <SCORE.INTER.SOLV>
10.5578

>  <SCORE.INTER.VDW>
-27.8272

>  <SCORE.INTER.norm>
-0.776193

>  <SCORE.INTRA>
-2.99003

>  <SCORE.INTRA.DIHEDRAL>
-7.21297

>  <SCORE.INTRA.DIHEDRAL.0>
10.0718

>  <SCORE.INTRA.POLAR>
0

>  <SCORE.INTRA.POLAR.0>
0

>  <SCORE.INTRA.REPUL>
0

>  <SCORE.INTRA.REPUL.0>
0

>  <SCORE.INTRA.SOLV>
2.40799

>  <SCORE.INTRA.SOLV.lig_0>
-48.6963

>  <SCORE.INTRA.VDW>
-0.587535

>  <SCORE.INTRA.VDW.0>
-0.836976

>  <SCORE.INTRA.norm>
-0.0964525

>  <SCORE.RESTR>
0

>  <SCORE.RESTR.CAVITY>
0

>  <SCORE.RESTR.norm>
0

>  <SCORE.SYSTEM>
0

>  <SCORE.SYSTEM.CONST>
0

>  <SCORE.SYSTEM.DIHEDRAL>
0

>  <SCORE.SYSTEM.SOLV>
0

>  <SCORE.SYSTEM.norm>
0

>  <SCORE.heavy>
31

>  <SCORE.norm>
-0.872645

>  <RMSD>
4.887

$$$$
ligand
 OpenBabel11021811473D
libRbt.so/2013.1/901 2013/11/27
 31 33  0  0  0  0  0  0  0  0999 V2000
   27.5311   35.4071   14.9951 P   0  0  1  0  0  0  0  0  0  0  0  0
   26.5844   36.5102   15.4177 O   0  0  0  0  0  0  0  0  0  0  0  0
   26.8355   34.0907   15.2149 O   0  5  0  0  0  0  0  0  0  0  0  0
   27.8829   35.5536   13.5402 O   0  0  0  0  0  0  0  0  0  0  0  0
   29.6773   36.6957   15.7126 C   0  0  0  0  0  0  0  0  0  0  0  0
   28.8966   35.5303   15.8213 O   0  0  0  0  0  0  0  0  0  0  0  0
   29.4428   37.5684   16.9368 C   0  0  1  0  0  0  0  0  0  0  0  0
   28.0977   37.9974   16.9338 O   0  0  0  0  0  0  0  0  0  0  0  0
   29.7503   36.7857   18.2133 C   0  0  1  0  0  0  0  0  0  0  0  0
   31.0844   36.3259   18.1778 O   0  0  0  0  0  0  0  0  0  0  0  0
   29.4673   37.5696   19.5024 C   0  0  1  0  0  0  0  0  0  0  0  0
   30.1566   38.7997   19.4774 O   0  0  0  0  0  0  0  0  0  0  0  0
   27.9847   37.8333   19.7118 C   0  0  0  0  0  0  0  0  0  0  0  0
   27.4007   35.5578   21.2817 N   0  0  0  0  0  0  0  0  0  0  0  0
   27.1715   34.4109   22.0142 C   0  0  0  0  0  0  0  0  0  0  0  0
   27.1030   33.3169   21.4470 O   0  0  0  0  0  0  0  0  0  0  0  0
   27.0099   34.4963   23.3823 N   0  0  0  0  0  0  0  0  0  0  0  0
   27.0767   35.7216   24.0184 C   0  0  0  0  0  0  0  0  0  0  0  0
   27.3075   36.8699   23.2900 C   0  0  1  0  0  0  0  0  0  0  0  0
   26.9434   35.8108   25.2377 O   0  0  0  0  0  0  0  0  0  0  0  0
   27.6105   39.2359   23.2184 C   0  0  2  0  0  0  0  0  0  0  0  0
   27.3758   38.0853   23.9430 N   0  0  0  0  0  0  0  0  0  0  0  0
   27.6778   40.4627   23.8743 C   0  0  0  0  0  0  0  0  0  0  0  0
   27.9064   41.6296   23.1519 C   0  0  1  0  0  0  0  0  0  0  0  0
   27.9868   42.9446   23.8771 C   0  0  0  0  0  0  0  0  0  0  0  0
   28.0718   41.5635   21.7637 C   0  0  1  0  0  0  0  0  0  0  0  0
   28.3348   42.8026   20.9587 C   0  0  0  0  0  0  0  0  0  0  0  0
   28.0045   40.3356   21.1122 C   0  0  0  0  0  0  0  0  0  0  0  0
   27.7728   39.1655   21.8315 C   0  0  2  0  0  0  0  0  0  0  0  0
   27.4729   36.7893   21.9120 C   0  0  2  0  0  0  0  0  0  0  0  0
   27.6958   37.9400   21.1805 N   0  0  0  0  0  0  0  0  0  0  0  0
  1  2  1  1  0  0  0
  1  3  1  0  0  0  0
  1  4  2  0  0  0  0
  1  6  1  0  0  0  0
  5  6  1  0  0  0  0
  7  5  1  6  0  0  0
  7  8  1  0  0  0  0
  7  9  1  0  0  0  0
  9 10  1  6  0  0  0
  9 11  1  0  0  0  0
 11 12  1  6  0  0  0
 11 13  1  0  0  0  0
 13 31  1  0  0  0  0
 14 15  1  0  0  0  0
 15 16  2  0  0  0  0
 15 17  1  0  0  0  0
 17 18  1  0  0  0  0
 18 20  2  0  0  0  0
 19 18  1  1  0  0  0
 19 22  1  0  0  0  0
 19 30  1  0  0  0  0
 21 23  1  6  0  0  0
 21 29  1  0  0  0  0
 21 22  1  0  0  0  0
 23 24  1  0  0  0  0
 24 25  1  1  0  0  0
 24 26  1  0  0  0  0
 26 27  1  1  0  0  0
 26 28  1  0  0  0  0
 29 28  1  6  0  0  0
 29 31  1  0  0  0  0
 30 14  1  6  0  0  0
 30 31  1  0  0  0  0
M  CHG  1   3  -1
M  END
>  <CHROM.1>
101.62011389,-60.66894356,-64.78793254,57.90244682,-54.46577467,151.57529979
89.46584472,28.03839199,37.37740732,19.85675667,-1.32937883,1.32726715,0.91236860

>  <Name>
ligand

>  <RI>
0

>  <Rbt.Current_Directory>
/home/itssahil/PROJECTS/Mol_Feturizer/New_Systems/rnas/3F2Q

>  <Rbt.Executable>
rbdock ($Id: //depot/dev/client3/rdock/2013.1/src/exe/rbdock.cxx#4 $)

>  <Rbt.Library>
libRbt.so (2013.1, Build901 2013/11/27)

>  <Rbt.Parameter_File>
/export/apps/rDock/src/rDock_2013.1_src/data/scripts/dock_solv.prm

>  <Rbt.Receptor>
prm/pocket_docking_8.prm

>  <SCORE>
-23.1254

>  <SCORE.INTER>
-21.8579

>  <SCORE.INTER.CONST>
1

>  <SCORE.INTER.POLAR>
0

>  <SCORE.INTER.ROT>
7

>  <SCORE.INTER.SOLV>
12.8346

>  <SCORE.INTER.VDW>
-27.1168

>  <SCORE.INTER.norm>
-0.705093

>  <SCORE.INTRA>
-1.26753

>  <SCORE.INTRA.DIHEDRAL>
-0.639028

>  <SCORE.INTRA.DIHEDRAL.0>
10.0718

>  <SCORE.INTRA.POLAR>
0

>  <SCORE.INTRA.POLAR.0>
0

>  <SCORE.INTRA.REPUL>
0

>  <SCORE.INTRA.REPUL.0>
0

>  <SCORE.INTRA.SOLV>
0.0909575

>  <SCORE.INTRA.SOLV.lig_0>
-48.6963

>  <SCORE.INTRA.VDW>
-0.9935

>  <SCORE.INTRA.VDW.0>
-0.836976

>  <SCORE.INTRA.norm>
-0.0408882

>  <SCORE.RESTR>
0

>  <SCORE.RESTR.CAVITY>
0

>  <SCORE.RESTR.norm>
0

>  <SCORE.SYSTEM>
0

>  <SCORE.SYSTEM.CONST>
0

>  <SCORE.SYSTEM.DIHEDRAL>
0

>  <SCORE.SYSTEM.SOLV>
0

>  <SCORE.SYSTEM.norm>
0

>  <SCORE.heavy>
31

>  <SCORE.norm>
-0.745981

>  <RMSD>
4.888

$$$$
ligand
 OpenBabel11021811473D
libRbt.so/2013.1/901 2013/11/27
 31 33  0  0  0  0  0  0  0  0999 V2000
   24.6786   42.9476   17.1355 P   0  0  1  0  0  0  0  0  0  0  0  0
   23.6739   42.6646   18.2319 O   0  0  0  0  0  0  0  0  0  0  0  0
   23.9151   43.3147   15.8916 O   0  5  0  0  0  0  0  0  0  0  0  0
   25.5728   44.0898   17.5326 O   0  0  0  0  0  0  0  0  0  0  0  0
   26.0556   40.9340   18.0469 C   0  0  0  0  0  0  0  0  0  0  0  0
   25.6180   41.6679   16.9293 O   0  0  0  0  0  0  0  0  0  0  0  0
   27.0549   39.8809   17.5911 C   0  0  1  0  0  0  0  0  0  0  0  0
   28.2305   40.5320   17.1583 O   0  0  0  0  0  0  0  0  0  0  0  0
   27.3694   38.9172   18.7353 C   0  0  1  0  0  0  0  0  0  0  0  0
   28.3269   37.9716   18.3092 O   0  0  0  0  0  0  0  0  0  0  0  0
   27.8158   39.6160   20.0271 C   0  0  1  0  0  0  0  0  0  0  0  0
   26.7069   39.8075   20.8772 O   0  0  0  0  0  0  0  0  0  0  0  0
   28.8867   38.8359   20.7728 C   0  0  0  0  0  0  0  0  0  0  0  0
   27.8899   39.5618   23.3151 N   0  0  0  0  0  0  0  0  0  0  0  0
   27.3734   39.9774   24.5255 C   0  0  0  0  0  0  0  0  0  0  0  0
   27.5359   41.1416   24.9015 O   0  0  0  0  0  0  0  0  0  0  0  0
   26.6833   39.0811   25.3163 N   0  0  0  0  0  0  0  0  0  0  0  0
   26.5083   37.7742   24.9016 C   0  0  0  0  0  0  0  0  0  0  0  0
   27.0213   37.3556   23.6916 C   0  0  1  0  0  0  0  0  0  0  0  0
   25.8877   36.9678   25.5923 O   0  0  0  0  0  0  0  0  0  0  0  0
   27.3410   35.6254   22.0795 C   0  0  2  0  0  0  0  0  0  0  0  0
   26.8328   36.0471   23.2911 N   0  0  0  0  0  0  0  0  0  0  0  0
   27.1539   34.3060   21.6744 C   0  0  0  0  0  0  0  0  0  0  0  0
   27.6689   33.8689   20.4580 C   0  0  1  0  0  0  0  0  0  0  0  0
   27.4486   32.4439   20.0309 C   0  0  0  0  0  0  0  0  0  0  0  0
   28.3725   34.7627   19.6427 C   0  0  1  0  0  0  0  0  0  0  0  0
   28.9271   34.3252   18.3184 C   0  0  0  0  0  0  0  0  0  0  0  0
   28.5568   36.0804   20.0508 C   0  0  0  0  0  0  0  0  0  0  0  0
   28.0453   36.5210   21.2692 C   0  0  2  0  0  0  0  0  0  0  0  0
   27.7156   38.2547   22.8904 C   0  0  2  0  0  0  0  0  0  0  0  0
   28.2371   37.8341   21.6820 N   0  0  0  0  0  0  0  0  0  0  0  0
  1  2  1  1  0  0  0
  1  3  1  0  0  0  0
  1  4  2  0  0  0  0
  1  6  1  0  0  0  0
  5  6  1  0  0  0  0
  7  5  1  1  0  0  0
  7  8  1  0  0  0  0
  7  9  1  0  0  0  0
  9 10  1  6  0  0  0
  9 11  1  0  0  0  0
 11 12  1  1  0  0  0
 11 13  1  0  0  0  0
 13 31  1  0  0  0  0
 14 15  1  0  0  0  0
 15 16  2  0  0  0  0
 15 17  1  0  0  0  0
 17 18  1  0  0  0  0
 18 20  2  0  0  0  0
 19 18  1  6  0  0  0
 19 22  1  0  0  0  0
 19 30  1  0  0  0  0
 21 23  1  1  0  0  0
 21 29  1  0  0  0  0
 21 22  1  0  0  0  0
 23 24  1  0  0  0  0
 24 25  1  6  0  0  0
 24 26  1  0  0  0  0
 26 27  1  6  0  0  0
 26 28  1  0  0  0  0
 29 28  1  1  0  0  0
 29 31  1  0  0  0  0
 30 14  1  1  0  0  0
 30 31  1  0  0  0  0
M  CHG  1   3  -1
M  END
>  <CHROM.1>
-173.44519864,-39.38857867,68.38918794,-178.25358949,94.44770753,-86.80255398
95.02944369,26.92154059,38.81379326,20.43320954,2.52892686,1.24690439,-1.61894086

>  <Name>
ligand

>  <RI>
0

>  <Rbt.Current_Directory>
/home/itssahil/PROJECTS/Mol_Feturizer/New_Systems/rnas/3F2Q

>  <Rbt.Executable>
rbdock ($Id: //depot/dev/client3/rdock/2013.1/src/exe/rbdock.cxx#4 $)

>  <Rbt.Library>
libRbt.so (2013.1, Build901 2013/11/27)

>  <Rbt.Parameter_File>
/export/apps/rDock/src/rDock_2013.1_src/data/scripts/dock_solv.prm

>  <Rbt.Receptor>
prm/pocket_docking_4.prm

>  <SCORE>
-24.5244

>  <SCORE.INTER>
-23.3737

>  <SCORE.INTER.CONST>
1

>  <SCORE.INTER.POLAR>
0

>  <SCORE.INTER.ROT>
7

>  <SCORE.INTER.SOLV>
17.0433

>  <SCORE.INTER.VDW>
-29.5303

>  <SCORE.INTER.norm>
-0.753991

>  <SCORE.INTRA>
-1.15069

>  <SCORE.INTRA.DIHEDRAL>
-2.3952

>  <SCORE.INTRA.DIHEDRAL.0>
10.0718

>  <SCORE.INTRA.POLAR>
0

>  <SCORE.INTRA.POLAR.0>
0

>  <SCORE.INTRA.REPUL>
0

>  <SCORE.INTRA.REPUL.0>
0

>  <SCORE.INTRA.SOLV>
-0.829701

>  <SCORE.INTRA.SOLV.lig_0>
-48.6963

>  <SCORE.INTRA.VDW>
0.46176

>  <SCORE.INTRA.VDW.0>
-0.836976

>  <SCORE.INTRA.norm>
-0.0371191

>  <SCORE.RESTR>
0

>  <SCORE.RESTR.CAVITY>
0

>  <SCORE.RESTR.norm>
0

>  <SCORE.SYSTEM>
0

>  <SCORE.SYSTEM.CONST>
0

>  <SCORE.SYSTEM.DIHEDRAL>
0

>  <SCORE.SYSTEM.SOLV>
0

>  <SCORE.SYSTEM.norm>
0

>  <SCORE.heavy>
31

>  <SCORE.norm>
-0.79111

>  <RMSD>
4.889

$$$$
ligand
 OpenBabel11021811473D
libRbt.so/2013.1/901 2013/11/27
 31 33  0  0  0  0  0  0  0  0999 V2000
   25.5083   43.8137   15.9389 P   0  0  1  0  0  0  0  0  0  0  0  0
   26.7522   43.9565   15.0882 O   0  0  0  0  0  0  0  0  0  0  0  0
   25.4589   44.9820   16.8865 O   0  5  0  0  0  0  0  0  0  0  0  0
   24.2810   43.8187   15.0696 O   0  0  0  0  0  0  0  0  0  0  0  0
   26.5695   42.1245   17.6129 C   0  0  0  0  0  0  0  0  0  0  0  0
   25.5390   42.4039   16.6967 O   0  0  0  0  0  0  0  0  0  0  0  0
   26.3752   40.7213   18.1684 C   0  0  1  0  0  0  0  0  0  0  0  0
   26.5609   39.7922   17.1216 O   0  0  0  0  0  0  0  0  0  0  0  0
   27.3687   40.4561   19.2995 C   0  0  1  0  0  0  0  0  0  0  0  0
   27.3618   41.5423   20.2010 O   0  0  0  0  0  0  0  0  0  0  0  0
   27.1332   39.1267   20.0301 C   0  0  1  0  0  0  0  0  0  0  0  0
   26.9590   38.0879   19.0923 O   0  0  0  0  0  0  0  0  0  0  0  0
   28.2743   38.7657   20.9676 C   0  0  0  0  0  0  0  0  0  0  0  0
   27.3476   39.3803   23.5650 N   0  0  0  0  0  0  0  0  0  0  0  0
   26.8555   39.7367   24.8041 C   0  0  0  0  0  0  0  0  0  0  0  0
   26.8820   40.9165   25.1654 O   0  0  0  0  0  0  0  0  0  0  0  0
   26.3432   38.7648   25.6397 N   0  0  0  0  0  0  0  0  0  0  0  0
   26.3214   37.4415   25.2411 C   0  0  0  0  0  0  0  0  0  0  0  0
   26.8106   37.0817   24.0026 C   0  0  1  0  0  0  0  0  0  0  0  0
   25.8595   36.5669   25.9720 O   0  0  0  0  0  0  0  0  0  0  0  0
   27.2611   35.3916   22.3792 C   0  0  2  0  0  0  0  0  0  0  0  0
   26.7764   35.7551   23.6190 N   0  0  0  0  0  0  0  0  0  0  0  0
   27.2296   34.0544   21.9910 C   0  0  0  0  0  0  0  0  0  0  0  0
   27.7228   33.6765   20.7461 C   0  0  1  0  0  0  0  0  0  0  0  0
   27.6713   32.2300   20.3383 C   0  0  0  0  0  0  0  0  0  0  0  0
   28.2472   34.6474   19.8852 C   0  0  1  0  0  0  0  0  0  0  0  0
   28.7729   34.2732   18.5301 C   0  0  0  0  0  0  0  0  0  0  0  0
   28.2763   35.9826   20.2767 C   0  0  0  0  0  0  0  0  0  0  0  0
   27.7863   36.3645   21.5233 C   0  0  2  0  0  0  0  0  0  0  0  0
   27.3259   38.0568   23.1564 C   0  0  2  0  0  0  0  0  0  0  0  0
   27.8238   37.6962   21.9190 N   0  0  0  0  0  0  0  0  0  0  0  0
  1  2  1  6  0  0  0
  1  3  1  0  0  0  0
  1  4  2  0  0  0  0
  1  6  1  0  0  0  0
  5  6  1  0  0  0  0
  7  5  1  6  0  0  0
  7  8  1  0  0  0  0
  7  9  1  0  0  0  0
  9 10  1  1  0  0  0
  9 11  1  0  0  0  0
 11 12  1  6  0  0  0
 11 13  1  0  0  0  0
 13 31  1  0  0  0  0
 14 15  1  0  0  0  0
 15 16  2  0  0  0  0
 15 17  1  0  0  0  0
 17 18  1  0  0  0  0
 18 20  2  0  0  0  0
 19 18  1  6  0  0  0
 19 22  1  0  0  0  0
 19 30  1  0  0  0  0
 21 23  1  1  0  0  0
 21 29  1  0  0  0  0
 21 22  1  0  0  0  0
 23 24  1  0  0  0  0
 24 25  1  6  0  0  0
 24 26  1  0  0  0  0
 26 27  1  6  0  0  0
 26 28  1  0  0  0  0
 29 28  1  1  0  0  0
 29 31  1  0  0  0  0
 30 14  1  1  0  0  0
 30 31  1  0  0  0  0
M  CHG  1   3  -1
M  END
>  <CHROM.1>
-179.09885411,62.09325214,66.26530491,47.87486068,47.48556956,164.01166833
80.10873819,26.85145206,39.00912669,20.35744579,2.27631276,1.34558957,-1.43095103

>  <Name>
ligand

>  <RI>
0

>  <Rbt.Current_Directory>
/home/itssahil/PROJECTS/Mol_Feturizer/New_Systems/rnas/3F2Q

>  <Rbt.Executable>
rbdock ($Id: //depot/dev/client3/rdock/2013.1/src/exe/rbdock.cxx#4 $)

>  <Rbt.Library>
libRbt.so (2013.1, Build901 2013/11/27)

>  <Rbt.Parameter_File>
/export/apps/rDock/src/rDock_2013.1_src/data/scripts/dock_solv.prm

>  <Rbt.Receptor>
prm/pocket_docking_3.prm

>  <SCORE>
-32.6437

>  <SCORE.INTER>
-27.9072

>  <SCORE.INTER.CONST>
1

>  <SCORE.INTER.POLAR>
0

>  <SCORE.INTER.ROT>
7

>  <SCORE.INTER.SOLV>
21.0675

>  <SCORE.INTER.VDW>
-33.8939

>  <SCORE.INTER.norm>
-0.900231

>  <SCORE.INTRA>
-4.74142

>  <SCORE.INTRA.DIHEDRAL>
-6.79995

>  <SCORE.INTRA.DIHEDRAL.0>
10.0718

>  <SCORE.INTRA.POLAR>
0

>  <SCORE.INTRA.POLAR.0>
0

>  <SCORE.INTRA.REPUL>
0

>  <SCORE.INTRA.REPUL.0>
0

>  <SCORE.INTRA.SOLV>
-1.25641

>  <SCORE.INTRA.SOLV.lig_0>
-48.6963

>  <SCORE.INTRA.VDW>
-0.713243

>  <SCORE.INTRA.VDW.0>
-0.836976

>  <SCORE.INTRA.norm>
-0.152949

>  <SCORE.RESTR>
0.00484329

>  <SCORE.RESTR.CAVITY>
0.00484329

>  <SCORE.RESTR.norm>
0.000156235

>  <SCORE.SYSTEM>
0

>  <SCORE.SYSTEM.CONST>
0

>  <SCORE.SYSTEM.DIHEDRAL>
0

>  <SCORE.SYSTEM.SOLV>
0

>  <SCORE.SYSTEM.norm>
0

>  <SCORE.heavy>
31

>  <SCORE.norm>
-1.05302

>  <RMSD>
4.890

$$$$
ligand
 OpenBabel11021811473D
libRbt.so/2013.1/901 2013/11/27
 31 33  0  0  0  0  0  0  0  0999 V2000
   25.9101   43.6688   16.4030 P   0  0  1  0  0  0  0  0  0  0  0  0
   26.4959   43.7384   15.0089 O   0  0  0  0  0  0  0  0  0  0  0  0
   25.9984   45.0426   17.0113 O   0  5  0  0  0  0  0  0  0  0  0  0
   24.4706   43.2377   16.3406 O   0  0  0  0  0  0  0  0  0  0  0  0
   26.7584   41.2374   16.7907 C   0  0  0  0  0  0  0  0  0  0  0  0
   26.6929   42.5634   17.2562 O   0  0  0  0  0  0  0  0  0  0  0  0
   27.3913   40.3635   17.8635 C   0  0  1  0  0  0  0  0  0  0  0  0
   28.7035   40.8251   18.1051 O   0  0  0  0  0  0  0  0  0  0  0  0
   26.5628   40.4153   19.1472 C   0  0  1  0  0  0  0  0  0  0  0  0
   25.2633   40.8820   18.8542 O   0  0  0  0  0  0  0  0  0  0  0  0
   26.5160   39.0822   19.9069 C   0  0  1  0  0  0  0  0  0  0  0  0
   26.1585   38.0402   19.0265 O   0  0  0  0  0  0  0  0  0  0  0  0
   27.8408   38.7416   20.5705 C   0  0  0  0  0  0  0  0  0  0  0  0
   27.2055   39.7675   23.1254 N   0  0  0  0  0  0  0  0  0  0  0  0
   26.8481   40.3161   24.3402 C   0  0  0  0  0  0  0  0  0  0  0  0
   26.8297   41.5416   24.4851 O   0  0  0  0  0  0  0  0  0  0  0  0
   26.5214   39.4862   25.3937 N   0  0  0  0  0  0  0  0  0  0  0  0
   26.5506   38.1133   25.2365 C   0  0  0  0  0  0  0  0  0  0  0  0
   26.9055   37.5612   24.0233 C   0  0  1  0  0  0  0  0  0  0  0  0
   26.2531   37.3627   26.1641 O   0  0  0  0  0  0  0  0  0  0  0  0
   27.2752   35.6309   22.6698 C   0  0  2  0  0  0  0  0  0  0  0  0
   26.9246   36.1871   23.8830 N   0  0  0  0  0  0  0  0  0  0  0  0
   27.2972   34.2457   22.5264 C   0  0  0  0  0  0  0  0  0  0  0  0
   27.6566   33.6748   21.3096 C   0  0  1  0  0  0  0  0  0  0  0  0
   27.6648   32.1776   21.1688 C   0  0  0  0  0  0  0  0  0  0  0  0
   27.9922   34.4997   20.2300 C   0  0  1  0  0  0  0  0  0  0  0  0
   28.3695   33.9143   18.9005 C   0  0  0  0  0  0  0  0  0  0  0  0
   27.9683   35.8834   20.3771 C   0  0  0  0  0  0  0  0  0  0  0  0
   27.6120   36.4587   21.5946 C   0  0  2  0  0  0  0  0  0  0  0  0
   27.2336   38.3925   22.9585 C   0  0  2  0  0  0  0  0  0  0  0  0
   27.5972   37.8402   21.7452 N   0  0  0  0  0  0  0  0  0  0  0  0
  1  2  1  6  0  0  0
  1  3  1  0  0  0  0
  1  4  2  0  0  0  0
  1  6  1  0  0  0  0
  5  6  1  0  0  0  0
  7  5  1  6  0  0  0
  7  8  1  0  0  0  0
  7  9  1  0  0  0  0
  9 10  1  6  0  0  0
  9 11  1  0  0  0  0
 11 12  1  6  0  0  0
 11 13  1  0  0  0  0
 13 31  1  0  0  0  0
 14 15  1  0  0  0  0
 15 16  2  0  0  0  0
 15 17  1  0  0  0  0
 17 18  1  0  0  0  0
 18 20  2  0  0  0  0
 19 18  1  6  0  0  0
 19 22  1  0  0  0  0
 19 30  1  0  0  0  0
 21 23  1  1  0  0  0
 21 29  1  0  0  0  0
 21 22  1  0  0  0  0
 23 24  1  0  0  0  0
 24 25  1  6  0  0  0
 24 26  1  0  0  0  0
 26 27  1  6  0  0  0
 26 28  1  0  0  0  0
 29 28  1  1  0  0  0
 29 31  1  0  0  0  0
 30 14  1  1  0  0  0
 30 31  1  0  0  0  0
M  CHG  1   3  -1
M  END
>  <CHROM.1>
-172.60546955,-57.03083464,-61.58385919,18.88326776,-50.36563548,154.52855796
90.97002359,26.87459136,39.10098851,20.42416084,-2.21787225,-1.37307347,1.78944583

>  <Name>
ligand

>  <RI>
0

>  <Rbt.Current_Directory>
/home/itssahil/PROJECTS/Mol_Feturizer/New_Systems/rnas/3F2Q

>  <Rbt.Executable>
rbdock ($Id: //depot/dev/client3/rdock/2013.1/src/exe/rbdock.cxx#4 $)

>  <Rbt.Library>
libRbt.so (2013.1, Build901 2013/11/27)

>  <Rbt.Parameter_File>
/export/apps/rDock/src/rDock_2013.1_src/data/scripts/dock_solv.prm

>  <Rbt.Receptor>
prm/blind_docking_100.prm

>  <SCORE>
-27.2674

>  <SCORE.INTER>
-26.4206

>  <SCORE.INTER.CONST>
1

>  <SCORE.INTER.POLAR>
0

>  <SCORE.INTER.ROT>
7

>  <SCORE.INTER.SOLV>
19.0809

>  <SCORE.INTER.VDW>
-32.2407

>  <SCORE.INTER.norm>
-0.852276

>  <SCORE.INTRA>
-0.846815

>  <SCORE.INTRA.DIHEDRAL>
-2.23763

>  <SCORE.INTRA.DIHEDRAL.0>
10.0718

>  <SCORE.INTRA.POLAR>
0

>  <SCORE.INTRA.POLAR.0>
0

>  <SCORE.INTRA.REPUL>
0

>  <SCORE.INTRA.REPUL.0>
0

>  <SCORE.INTRA.SOLV>
-0.0544505

>  <SCORE.INTRA.SOLV.lig_0>
-48.6963

>  <SCORE.INTRA.VDW>
0.299227

>  <SCORE.INTRA.VDW.0>
-0.836976

>  <SCORE.INTRA.norm>
-0.0273166

>  <SCORE.RESTR>
0

>  <SCORE.RESTR.CAVITY>
0

>  <SCORE.RESTR.norm>
0

>  <SCORE.SYSTEM>
0

>  <SCORE.SYSTEM.CONST>
0

>  <SCORE.SYSTEM.DIHEDRAL>
0

>  <SCORE.SYSTEM.SOLV>
0

>  <SCORE.SYSTEM.norm>
0

>  <SCORE.heavy>
31

>  <SCORE.norm>
-0.879593

>  <RMSD>
4.892

$$$$
ligand
 OpenBabel11021811473D
libRbt.so/2013.1/901 2013/11/27
 31 33  0  0  0  0  0  0  0  0999 V2000
   27.2125   34.8221   14.5330 P   0  0  1  0  0  0  0  0  0  0  0  0
   26.5960   35.8746   13.6365 O   0  0  0  0  0  0  0  0  0  0  0  0
   26.1270   33.8575   14.9285 O   0  5  0  0  0  0  0  0  0  0  0  0
   28.2977   34.0846   13.7979 O   0  0  0  0  0  0  0  0  0  0  0  0
   27.1201   36.3076   16.6698 C   0  0  0  0  0  0  0  0  0  0  0  0
   27.8995   35.5306   15.7934 O   0  0  0  0  0  0  0  0  0  0  0  0
   28.0324   36.9768   17.6874 C   0  0  1  0  0  0  0  0  0  0  0  0
   29.0311   37.6948   16.9943 O   0  0  0  0  0  0  0  0  0  0  0  0
   27.2270   37.9153   18.5858 C   0  0  1  0  0  0  0  0  0  0  0  0
   26.4910   37.1588   19.5231 O   0  0  0  0  0  0  0  0  0  0  0  0
   28.0784   38.9860   19.2823 C   0  0  1  0  0  0  0  0  0  0  0  0
   27.2438   39.9844   19.8259 O   0  0  0  0  0  0  0  0  0  0  0  0
   28.9514   38.4108   20.3862 C   0  0  0  0  0  0  0  0  0  0  0  0
   27.9584   35.9168   21.2681 N   0  0  0  0  0  0  0  0  0  0  0  0
   27.5398   34.6688   21.6824 C   0  0  0  0  0  0  0  0  0  0  0  0
   27.7366   33.6810   20.9691 O   0  0  0  0  0  0  0  0  0  0  0  0
   26.8917   34.5341   22.8936 N   0  0  0  0  0  0  0  0  0  0  0  0
   26.6617   35.6403   23.6896 C   0  0  0  0  0  0  0  0  0  0  0  0
   27.0803   36.8891   23.2799 C   0  0  1  0  0  0  0  0  0  0  0  0
   26.0935   35.5331   24.7751 O   0  0  0  0  0  0  0  0  0  0  0  0
   27.2669   39.2332   23.6861 C   0  0  2  0  0  0  0  0  0  0  0  0
   26.8462   37.9829   24.0906 N   0  0  0  0  0  0  0  0  0  0  0  0
   27.0302   40.3378   24.5008 C   0  0  0  0  0  0  0  0  0  0  0  0
   27.4436   41.6040   24.0987 C   0  0  1  0  0  0  0  0  0  0  0  0
   27.1896   42.7843   24.9953 C   0  0  0  0  0  0  0  0  0  0  0  0
   28.1014   41.7610   22.8735 C   0  0  1  0  0  0  0  0  0  0  0  0
   28.5729   43.1115   22.4190 C   0  0  0  0  0  0  0  0  0  0  0  0
   28.3366   40.6546   22.0626 C   0  0  0  0  0  0  0  0  0  0  0  0
   27.9216   39.3858   22.4602 C   0  0  2  0  0  0  0  0  0  0  0  0
   27.7352   37.0301   22.0618 C   0  0  2  0  0  0  0  0  0  0  0  0
   28.1475   38.2819   21.6468 N   0  0  0  0  0  0  0  0  0  0  0  0
  1  2  1  6  0  0  0
  1  3  1  0  0  0  0
  1  4  2  0  0  0  0
  1  6  1  0  0  0  0
  5  6  1  0  0  0  0
  7  5  1  6  0  0  0
  7  8  1  0  0  0  0
  7  9  1  0  0  0  0
  9 10  1  1  0  0  0
  9 11  1  0  0  0  0
 11 12  1  1  0  0  0
 11 13  1  0  0  0  0
 13 31  1  0  0  0  0
 14 15  1  0  0  0  0
 15 16  2  0  0  0  0
 15 17  1  0  0  0  0
 17 18  1  0  0  0  0
 18 20  2  0  0  0  0
 19 18  1  1  0  0  0
 19 22  1  0  0  0  0
 19 30  1  0  0  0  0
 21 23  1  6  0  0  0
 21 29  1  0  0  0  0
 21 22  1  0  0  0  0
 23 24  1  0  0  0  0
 24 25  1  1  0  0  0
 24 26  1  0  0  0  0
 26 27  1  1  0  0  0
 26 28  1  0  0  0  0
 29 28  1  6  0  0  0
 29 31  1  0  0  0  0
 30 14  1  6  0  0  0
 30 31  1  0  0  0  0
M  CHG  1   3  -1
M  END
>  <CHROM.1>
-174.23527370,60.20630572,54.39075720,75.52075902,166.22960558,-83.10460510
-80.06390297,27.49102363,37.43272871,20.06830598,-1.64092764,1.39872101,1.11896302

>  <Name>
ligand

>  <RI>
0

>  <Rbt.Current_Directory>
/home/itssahil/PROJECTS/Mol_Feturizer/New_Systems/rnas/3F2Q

>  <Rbt.Executable>
rbdock ($Id: //depot/dev/client3/rdock/2013.1/src/exe/rbdock.cxx#4 $)

>  <Rbt.Library>
libRbt.so (2013.1, Build901 2013/11/27)

>  <Rbt.Parameter_File>
/export/apps/rDock/src/rDock_2013.1_src/data/scripts/dock_solv.prm

>  <Rbt.Receptor>
prm/blind_docking_100.prm

>  <SCORE>
-29.4636

>  <SCORE.INTER>
-25.7553

>  <SCORE.INTER.CONST>
1

>  <SCORE.INTER.POLAR>
0

>  <SCORE.INTER.ROT>
7

>  <SCORE.INTER.SOLV>
10.171

>  <SCORE.INTER.VDW>
-28.8272

>  <SCORE.INTER.norm>
-0.830815

>  <SCORE.INTRA>
-3.70834

>  <SCORE.INTRA.DIHEDRAL>
-5.07275

>  <SCORE.INTRA.DIHEDRAL.0>
10.0718

>  <SCORE.INTRA.POLAR>
0

>  <SCORE.INTRA.POLAR.0>
0

>  <SCORE.INTRA.REPUL>
0

>  <SCORE.INTRA.REPUL.0>
0

>  <SCORE.INTRA.SOLV>
-0.790603

>  <SCORE.INTRA.SOLV.lig_0>
-48.6963

>  <SCORE.INTRA.VDW>
-0.776662

>  <SCORE.INTRA.VDW.0>
-0.836976

>  <SCORE.INTRA.norm>
-0.119624

>  <SCORE.RESTR>
0

>  <SCORE.RESTR.CAVITY>
0

>  <SCORE.RESTR.norm>
0

>  <SCORE.SYSTEM>
0

>  <SCORE.SYSTEM.CONST>
0

>  <SCORE.SYSTEM.DIHEDRAL>
0

>  <SCORE.SYSTEM.SOLV>
0

>  <SCORE.SYSTEM.norm>
0

>  <SCORE.heavy>
31

>  <SCORE.norm>
-0.950439

>  <RMSD>
4.892

$$$$
ligand
 OpenBabel11021811473D
libRbt.so/2013.1/901 2013/11/27
 31 33  0  0  0  0  0  0  0  0999 V2000
   31.2016   34.3477   13.5797 P   0  0  1  0  0  0  0  0  0  0  0  0
   32.6627   34.7399   13.6323 O   0  0  0  0  0  0  0  0  0  0  0  0
   30.7192   34.5475   12.1681 O   0  5  0  0  0  0  0  0  0  0  0  0
   31.0369   32.9041   13.9682 O   0  0  0  0  0  0  0  0  0  0  0  0
   30.6626   35.0943   16.0156 C   0  0  0  0  0  0  0  0  0  0  0  0
   30.3776   35.2152   14.6432 O   0  0  0  0  0  0  0  0  0  0  0  0
   29.8663   36.1390   16.7837 C   0  0  1  0  0  0  0  0  0  0  0  0
   28.4903   35.8885   16.5913 O   0  0  0  0  0  0  0  0  0  0  0  0
   30.2156   36.0847   18.2709 C   0  0  1  0  0  0  0  0  0  0  0  0
   31.6174   36.1271   18.4306 O   0  0  0  0  0  0  0  0  0  0  0  0
   29.5282   37.1729   19.1074 C   0  0  1  0  0  0  0  0  0  0  0  0
   29.7097   38.4323   18.4992 O   0  0  0  0  0  0  0  0  0  0  0  0
   28.0407   36.9170   19.2894 C   0  0  0  0  0  0  0  0  0  0  0  0
   28.1540   34.1323   18.8244 N   0  0  0  0  0  0  0  0  0  0  0  0
   28.2701   32.7838   18.5554 C   0  0  0  0  0  0  0  0  0  0  0  0
   28.4409   32.3956   17.3964 O   0  0  0  0  0  0  0  0  0  0  0  0
   28.1842   31.8724   19.5885 N   0  0  0  0  0  0  0  0  0  0  0  0
   27.9833   32.3042   20.8861 C   0  0  0  0  0  0  0  0  0  0  0  0
   27.8687   33.6514   21.1592 C   0  0  1  0  0  0  0  0  0  0  0  0
   27.9139   31.5035   21.8170 O   0  0  0  0  0  0  0  0  0  0  0  0
   27.5618   35.4121   22.7404 C   0  0  2  0  0  0  0  0  0  0  0  0
   27.6729   34.0651   22.4625 N   0  0  0  0  0  0  0  0  0  0  0  0
   27.3623   35.8316   24.0534 C   0  0  0  0  0  0  0  0  0  0  0  0
   27.2413   37.1870   24.3432 C   0  0  1  0  0  0  0  0  0  0  0  0
   27.0370   37.6234   25.7677 C   0  0  0  0  0  0  0  0  0  0  0  0
   27.3247   38.1263   23.3090 C   0  0  1  0  0  0  0  0  0  0  0  0
   27.2131   39.5961   23.5917 C   0  0  0  0  0  0  0  0  0  0  0  0
   27.5247   37.7031   21.9984 C   0  0  0  0  0  0  0  0  0  0  0  0
   27.6433   36.3469   21.7039 C   0  0  2  0  0  0  0  0  0  0  0  0
   27.9563   34.5736   20.1226 C   0  0  2  0  0  0  0  0  0  0  0  0
   27.8333   35.9228   20.3941 N   0  0  0  0  0  0  0  0  0  0  0  0
  1  2  1  1  0  0  0
  1  3  1  0  0  0  0
  1  4  2  0  0  0  0
  1  6  1  0  0  0  0
  5  6  1  0  0  0  0
  7  5  1  6  0  0  0
  7  8  1  0  0  0  0
  7  9  1  0  0  0  0
  9 10  1  6  0  0  0
  9 11  1  0  0  0  0
 11 12  1  6  0  0  0
 11 13  1  0  0  0  0
 13 31  1  0  0  0  0
 14 15  1  0  0  0  0
 15 16  2  0  0  0  0
 15 17  1  0  0  0  0
 17 18  1  0  0  0  0
 18 20  2  0  0  0  0
 19 18  1  1  0  0  0
 19 22  1  0  0  0  0
 19 30  1  0  0  0  0
 21 23  1  6  0  0  0
 21 29  1  0  0  0  0
 21 22  1  0  0  0  0
 23 24  1  0  0  0  0
 24 25  1  1  0  0  0
 24 26  1  0  0  0  0
 26 27  1  1  0  0  0
 26 28  1  0  0  0  0
 29 28  1  6  0  0  0
 29 31  1  0  0  0  0
 30 14  1  6  0  0  0
 30 31  1  0  0  0  0
M  CHG  1   3  -1
M  END
>  <CHROM.1>
173.17040176,-62.88060491,62.04686420,50.77347036,-49.49634510,81.06019586
91.71993943,28.99474001,35.25162896,18.92656534,-0.52696371,1.14717919,0.34242277

>  <Name>
ligand

>  <RI>
0

>  <Rbt.Current_Directory>
/home/itssahil/PROJECTS/Mol_Feturizer/New_Systems/rnas/3F2Q

>  <Rbt.Executable>
rbdock ($Id: //depot/dev/client3/rdock/2013.1/src/exe/rbdock.cxx#4 $)

>  <Rbt.Library>
libRbt.so (2013.1, Build901 2013/11/27)

>  <Rbt.Parameter_File>
/export/apps/rDock/src/rDock_2013.1_src/data/scripts/dock_solv.prm

>  <Rbt.Receptor>
prm/blind_docking_100.prm

>  <SCORE>
-31.6284

>  <SCORE.INTER>
-26.1727

>  <SCORE.INTER.CONST>
1

>  <SCORE.INTER.POLAR>
0

>  <SCORE.INTER.ROT>
7

>  <SCORE.INTER.SOLV>
10.9073

>  <SCORE.INTER.VDW>
-29.3509

>  <SCORE.INTER.norm>
-0.844282

>  <SCORE.INTRA>
-5.45565

>  <SCORE.INTRA.DIHEDRAL>
-6.56792

>  <SCORE.INTRA.DIHEDRAL.0>
10.0718

>  <SCORE.INTRA.POLAR>
0

>  <SCORE.INTRA.POLAR.0>
0

>  <SCORE.INTRA.REPUL>
0

>  <SCORE.INTRA.REPUL.0>
0

>  <SCORE.INTRA.SOLV>
-0.764754

>  <SCORE.INTRA.SOLV.lig_0>
-48.6963

>  <SCORE.INTRA.VDW>
-1.78931

>  <SCORE.INTRA.VDW.0>
-0.836976

>  <SCORE.INTRA.norm>
-0.175989

>  <SCORE.RESTR>
0

>  <SCORE.RESTR.CAVITY>
0

>  <SCORE.RESTR.norm>
0

>  <SCORE.SYSTEM>
0

>  <SCORE.SYSTEM.CONST>
0

>  <SCORE.SYSTEM.DIHEDRAL>
0

>  <SCORE.SYSTEM.SOLV>
0

>  <SCORE.SYSTEM.norm>
0

>  <SCORE.heavy>
31

>  <SCORE.norm>
-1.02027

>  <RMSD>
4.894

$$$$
ligand
 OpenBabel11021811473D
libRbt.so/2013.1/901 2013/11/27
 31 33  0  0  0  0  0  0  0  0999 V2000
   27.6120   35.4574   14.8832 P   0  0  1  0  0  0  0  0  0  0  0  0
   28.8907   36.2650   14.8179 O   0  0  0  0  0  0  0  0  0  0  0  0
   26.7347   35.8863   13.7379 O   0  5  0  0  0  0  0  0  0  0  0  0
   27.9177   33.9900   14.7609 O   0  0  0  0  0  0  0  0  0  0  0  0
   26.4298   36.9444   16.6645 C   0  0  0  0  0  0  0  0  0  0  0  0
   26.9169   35.6733   16.3090 O   0  0  0  0  0  0  0  0  0  0  0  0
   25.7523   36.8558   18.0241 C   0  0  1  0  0  0  0  0  0  0  0  0
   24.9013   35.7292   18.0314 O   0  0  0  0  0  0  0  0  0  0  0  0
   26.7990   36.7408   19.1322 C   0  0  1  0  0  0  0  0  0  0  0  0
   27.5649   35.5706   18.9413 O   0  0  0  0  0  0  0  0  0  0  0  0
   27.6983   37.9778   19.2638 C   0  0  1  0  0  0  0  0  0  0  0  0
   26.9050   39.1363   19.3955 O   0  0  0  0  0  0  0  0  0  0  0  0
   28.6473   37.8863   20.4481 C   0  0  0  0  0  0  0  0  0  0  0  0
   27.5685   35.5973   21.7052 N   0  0  0  0  0  0  0  0  0  0  0  0
   27.1063   34.4443   22.3063 C   0  0  0  0  0  0  0  0  0  0  0  0
   27.2451   33.3542   21.7445 O   0  0  0  0  0  0  0  0  0  0  0  0
   26.4798   34.5192   23.5339 N   0  0  0  0  0  0  0  0  0  0  0  0
   26.3147   35.7400   24.1607 C   0  0  0  0  0  0  0  0  0  0  0  0
   26.7770   36.8944   23.5640 C   0  0  1  0  0  0  0  0  0  0  0  0
   25.7664   35.8199   25.2586 O   0  0  0  0  0  0  0  0  0  0  0  0
   27.0723   39.2619   23.6152 C   0  0  2  0  0  0  0  0  0  0  0  0
   26.6076   38.1052   24.2070 N   0  0  0  0  0  0  0  0  0  0  0  0
   26.9008   40.4841   24.2607 C   0  0  0  0  0  0  0  0  0  0  0  0
   27.3589   41.6571   23.6690 C   0  0  1  0  0  0  0  0  0  0  0  0
   27.1752   42.9670   24.3845 C   0  0  0  0  0  0  0  0  0  0  0  0
   27.9958   41.6017   22.4240 C   0  0  1  0  0  0  0  0  0  0  0  0
   28.5143   42.8476   21.7671 C   0  0  0  0  0  0  0  0  0  0  0  0
   28.1657   40.3783   21.7826 C   0  0  0  0  0  0  0  0  0  0  0  0
   27.7058   39.2022   22.3703 C   0  0  2  0  0  0  0  0  0  0  0  0
   27.4104   36.8244   22.3284 C   0  0  2  0  0  0  0  0  0  0  0  0
   27.8665   37.9813   21.7261 N   0  0  0  0  0  0  0  0  0  0  0  0
  1  2  1  6  0  0  0
  1  3  1  0  0  0  0
  1  4  2  0  0  0  0
  1  6  1  0  0  0  0
  5  6  1  0  0  0  0
  7  5  1  6  0  0  0
  7  8  1  0  0  0  0
  7  9  1  0  0  0  0
  9 10  1  6  0  0  0
  9 11  1  0  0  0  0
 11 12  1  1  0  0  0
 11 13  1  0  0  0  0
 13 31  1  0  0  0  0
 14 15  1  0  0  0  0
 15 16  2  0  0  0  0
 15 17  1  0  0  0  0
 17 18  1  0  0  0  0
 18 20  2  0  0  0  0
 19 18  1  1  0  0  0
 19 22  1  0  0  0  0
 19 30  1  0  0  0  0
 21 23  1  6  0  0  0
 21 29  1  0  0  0  0
 21 22  1  0  0  0  0
 23 24  1  0  0  0  0
 24 25  1  1  0  0  0
 24 26  1  0  0  0  0
 26 27  1  1  0  0  0
 26 28  1  0  0  0  0
 29 28  1  6  0  0  0
 29 31  1  0  0  0  0
 30 14  1  6  0  0  0
 30 31  1  0  0  0  0
M  CHG  1   3  -1
M  END
>  <CHROM.1>
176.79249943,65.10552375,-46.57697049,-60.80853972,53.12979443,-69.17194388
-94.60899798,27.19679065,37.30483017,20.21736460,-1.51247087,1.38828727,1.05397174

>  <Name>
ligand

>  <RI>
0

>  <Rbt.Current_Directory>
/home/itssahil/PROJECTS/Mol_Feturizer/New_Systems/rnas/3F2Q

>  <Rbt.Executable>
rbdock ($Id: //depot/dev/client3/rdock/2013.1/src/exe/rbdock.cxx#4 $)

>  <Rbt.Library>
libRbt.so (2013.1, Build901 2013/11/27)

>  <Rbt.Parameter_File>
/export/apps/rDock/src/rDock_2013.1_src/data/scripts/dock_solv.prm

>  <Rbt.Receptor>
prm/pocket_docking_5.prm

>  <SCORE>
-31.8533

>  <SCORE.INTER>
-26.1893

>  <SCORE.INTER.CONST>
1

>  <SCORE.INTER.POLAR>
0

>  <SCORE.INTER.ROT>
7

>  <SCORE.INTER.SOLV>
15.9893

>  <SCORE.INTER.VDW>
-31.056

>  <SCORE.INTER.norm>
-0.844816

>  <SCORE.INTRA>
-5.66402

>  <SCORE.INTRA.DIHEDRAL>
-7.3434

>  <SCORE.INTRA.DIHEDRAL.0>
10.0718

>  <SCORE.INTRA.POLAR>
0

>  <SCORE.INTRA.POLAR.0>
0

>  <SCORE.INTRA.REPUL>
0

>  <SCORE.INTRA.REPUL.0>
0

>  <SCORE.INTRA.SOLV>
-0.468065

>  <SCORE.INTRA.SOLV.lig_0>
-48.6963

>  <SCORE.INTRA.VDW>
-1.75829

>  <SCORE.INTRA.VDW.0>
-0.836976

>  <SCORE.INTRA.norm>
-0.18271

>  <SCORE.RESTR>
0

>  <SCORE.RESTR.CAVITY>
0

>  <SCORE.RESTR.norm>
0

>  <SCORE.SYSTEM>
0

>  <SCORE.SYSTEM.CONST>
0

>  <SCORE.SYSTEM.DIHEDRAL>
0

>  <SCORE.SYSTEM.SOLV>
0

>  <SCORE.SYSTEM.norm>
0

>  <SCORE.heavy>
31

>  <SCORE.norm>
-1.02753

>  <RMSD>
4.894

$$$$
ligand
 OpenBabel11021811473D
libRbt.so/2013.1/901 2013/11/27
 31 33  0  0  0  0  0  0  0  0999 V2000
   25.7359   43.4296   16.0870 P   0  0  1  0  0  0  0  0  0  0  0  0
   26.7148   43.6996   14.9643 O   0  0  0  0  0  0  0  0  0  0  0  0
   25.7937   44.5921   17.0411 O   0  5  0  0  0  0  0  0  0  0  0  0
   24.3414   43.2967   15.5396 O   0  0  0  0  0  0  0  0  0  0  0  0
   27.3889   41.8299   17.3077 C   0  0  0  0  0  0  0  0  0  0  0  0
   26.0982   42.0365   16.7873 O   0  0  0  0  0  0  0  0  0  0  0  0
   27.4476   40.4586   17.9645 C   0  0  1  0  0  0  0  0  0  0  0  0
   28.7982   40.1417   18.2271 O   0  0  0  0  0  0  0  0  0  0  0  0
   26.6373   40.4559   19.2608 C   0  0  1  0  0  0  0  0  0  0  0  0
   25.3269   40.9122   19.0017 O   0  0  0  0  0  0  0  0  0  0  0  0
   26.6211   39.0982   19.9769 C   0  0  1  0  0  0  0  0  0  0  0  0
   26.4494   38.0614   19.0364 O   0  0  0  0  0  0  0  0  0  0  0  0
   27.8907   38.8432   20.7736 C   0  0  0  0  0  0  0  0  0  0  0  0
   27.1577   39.6825   23.3700 N   0  0  0  0  0  0  0  0  0  0  0  0
   26.7537   40.1423   24.6069 C   0  0  0  0  0  0  0  0  0  0  0  0
   26.7261   41.3542   24.8386 O   0  0  0  0  0  0  0  0  0  0  0  0
   26.3906   39.2388   25.5851 N   0  0  0  0  0  0  0  0  0  0  0  0
   26.4298   37.8807   25.3310 C   0  0  0  0  0  0  0  0  0  0  0  0
   26.8312   37.4173   24.0954 C   0  0  1  0  0  0  0  0  0  0  0  0
   26.1003   37.0652   26.1906 O   0  0  0  0  0  0  0  0  0  0  0  0
   27.2569   35.5894   22.6215 C   0  0  2  0  0  0  0  0  0  0  0  0
   26.8598   36.0569   23.8575 N   0  0  0  0  0  0  0  0  0  0  0  0
   27.2885   34.2181   22.3800 C   0  0  0  0  0  0  0  0  0  0  0  0
   27.6946   33.7363   21.1395 C   0  0  1  0  0  0  0  0  0  0  0  0
   27.7127   32.2531   20.8920 C   0  0  0  0  0  0  0  0  0  0  0  0
   28.0676   34.6368   20.1352 C   0  0  1  0  0  0  0  0  0  0  0  0
   28.4959   34.1485   18.7821 C   0  0  0  0  0  0  0  0  0  0  0  0
   28.0341   36.0063   20.3803 C   0  0  0  0  0  0  0  0  0  0  0  0
   27.6309   36.4925   21.6218 C   0  0  2  0  0  0  0  0  0  0  0  0
   27.1962   38.3231   23.1060 C   0  0  2  0  0  0  0  0  0  0  0  0
   27.6063   37.8596   21.8706 N   0  0  0  0  0  0  0  0  0  0  0  0
  1  2  1  6  0  0  0
  1  3  1  0  0  0  0
  1  4  2  0  0  0  0
  1  6  1  0  0  0  0
  5  6  1  0  0  0  0
  7  5  1  1  0  0  0
  7  8  1  0  0  0  0
  7  9  1  0  0  0  0
  9 10  1  6  0  0  0
  9 11  1  0  0  0  0
 11 12  1  6  0  0  0
 11 13  1  0  0  0  0
 13 31  1  0  0  0  0
 14 15  1  0  0  0  0
 15 16  2  0  0  0  0
 15 17  1  0  0  0  0
 17 18  1  0  0  0  0
 18 20  2  0  0  0  0
 19 18  1  6  0  0  0
 19 22  1  0  0  0  0
 19 30  1  0  0  0  0
 21 23  1  1  0  0  0
 21 29  1  0  0  0  0
 21 22  1  0  0  0  0
 23 24  1  0  0  0  0
 24 25  1  6  0  0  0
 24 26  1  0  0  0  0
 26 27  1  6  0  0  0
 26 28  1  0  0  0  0
 29 28  1  1  0  0  0
 29 31  1  0  0  0  0
 30 14  1  1  0  0  0
 30 31  1  0  0  0  0
M  CHG  1   3  -1
M  END
>  <CHROM.1>
177.61478126,55.91305147,167.66816992,53.69593478,-42.28459261,155.89967083
83.98016678,26.86659911,39.02416041,20.41834852,2.11942950,1.33843089,-1.30669891

>  <Name>
ligand

>  <RI>
0

>  <Rbt.Current_Directory>
/home/itssahil/PROJECTS/Mol_Feturizer/New_Systems/rnas/3F2Q

>  <Rbt.Executable>
rbdock ($Id: //depot/dev/client3/rdock/2013.1/src/exe/rbdock.cxx#4 $)

>  <Rbt.Library>
libRbt.so (2013.1, Build901 2013/11/27)

>  <Rbt.Parameter_File>
/export/apps/rDock/src/rDock_2013.1_src/data/scripts/dock_solv.prm

>  <Rbt.Receptor>
prm/pocket_docking_5.prm

>  <SCORE>
-31.7002

>  <SCORE.INTER>
-27.6436

>  <SCORE.INTER.CONST>
1

>  <SCORE.INTER.POLAR>
0

>  <SCORE.INTER.ROT>
7

>  <SCORE.INTER.SOLV>
18.9628

>  <SCORE.INTER.VDW>
-33.0167

>  <SCORE.INTER.norm>
-0.891729

>  <SCORE.INTRA>
-4.05662

>  <SCORE.INTRA.DIHEDRAL>
-5.3224

>  <SCORE.INTRA.DIHEDRAL.0>
10.0718

>  <SCORE.INTRA.POLAR>
0

>  <SCORE.INTRA.POLAR.0>
0

>  <SCORE.INTRA.REPUL>
0

>  <SCORE.INTRA.REPUL.0>
0

>  <SCORE.INTRA.SOLV>
-0.606579

>  <SCORE.INTRA.SOLV.lig_0>
-48.6963

>  <SCORE.INTRA.VDW>
-1.09214

>  <SCORE.INTRA.VDW.0>
-0.836976

>  <SCORE.INTRA.norm>
-0.130859

>  <SCORE.RESTR>
0

>  <SCORE.RESTR.CAVITY>
0

>  <SCORE.RESTR.norm>
0

>  <SCORE.SYSTEM>
0

>  <SCORE.SYSTEM.CONST>
0

>  <SCORE.SYSTEM.DIHEDRAL>
0

>  <SCORE.SYSTEM.SOLV>
0

>  <SCORE.SYSTEM.norm>
0

>  <SCORE.heavy>
31

>  <SCORE.norm>
-1.02259

>  <RMSD>
4.894

$$$$
ligand
 OpenBabel11021811473D
libRbt.so/2013.1/901 2013/11/27
 31 33  0  0  0  0  0  0  0  0999 V2000
   25.5900   43.6812   16.3363 P   0  0  1  0  0  0  0  0  0  0  0  0
   26.0628   44.8581   17.1626 O   0  0  0  0  0  0  0  0  0  0  0  0
   24.1084   43.8330   16.1198 O   0  5  0  0  0  0  0  0  0  0  0  0
   26.2936   43.6637   15.0072 O   0  0  0  0  0  0  0  0  0  0  0  0
   27.2934   42.0943   17.5033 C   0  0  0  0  0  0  0  0  0  0  0  0
   25.9691   42.3176   17.0842 O   0  0  0  0  0  0  0  0  0  0  0  0
   27.4092   40.6819   18.0573 C   0  0  1  0  0  0  0  0  0  0  0  0
   28.7743   40.3919   18.2715 O   0  0  0  0  0  0  0  0  0  0  0  0
   26.6262   40.5587   19.3644 C   0  0  1  0  0  0  0  0  0  0  0  0
   25.3017   41.0052   19.1676 O   0  0  0  0  0  0  0  0  0  0  0  0
   26.6526   39.1485   19.9703 C   0  0  1  0  0  0  0  0  0  0  0  0
   26.4865   38.1858   18.9532 O   0  0  0  0  0  0  0  0  0  0  0  0
   27.9415   38.8606   20.7234 C   0  0  0  0  0  0  0  0  0  0  0  0
   27.2594   39.7123   23.3296 N   0  0  0  0  0  0  0  0  0  0  0  0
   26.8800   40.1784   24.5719 C   0  0  0  0  0  0  0  0  0  0  0  0
   26.8642   41.3912   24.8004 O   0  0  0  0  0  0  0  0  0  0  0  0
   26.5282   39.2801   25.5591 N   0  0  0  0  0  0  0  0  0  0  0  0
   26.5544   37.9211   25.3085 C   0  0  0  0  0  0  0  0  0  0  0  0
   26.9311   37.4515   24.0675 C   0  0  1  0  0  0  0  0  0  0  0  0
   26.2347   37.1103   26.1762 O   0  0  0  0  0  0  0  0  0  0  0  0
   27.3193   35.6165   22.5921 C   0  0  2  0  0  0  0  0  0  0  0  0
   26.9468   36.0902   23.8334 N   0  0  0  0  0  0  0  0  0  0  0  0
   27.3379   34.2443   22.3543 C   0  0  0  0  0  0  0  0  0  0  0  0
   27.7192   33.7562   21.1084 C   0  0  1  0  0  0  0  0  0  0  0  0
   27.7234   32.2722   20.8652 C   0  0  0  0  0  0  0  0  0  0  0  0
   28.0804   34.6513   20.0950 C   0  0  1  0  0  0  0  0  0  0  0  0
   28.4818   34.1562   18.7361 C   0  0  0  0  0  0  0  0  0  0  0  0
   28.0599   36.0217   20.3364 C   0  0  0  0  0  0  0  0  0  0  0  0
   27.6816   36.5142   21.5832 C   0  0  2  0  0  0  0  0  0  0  0  0
   27.2846   38.3519   23.0691 C   0  0  2  0  0  0  0  0  0  0  0  0
   27.6701   37.8821   21.8282 N   0  0  0  0  0  0  0  0  0  0  0  0
  1  2  1  1  0  0  0
  1  3  1  0  0  0  0
  1  4  2  0  0  0  0
  1  6  1  0  0  0  0
  5  6  1  0  0  0  0
  7  5  1  1  0  0  0
  7  8  1  0  0  0  0
  7  9  1  0  0  0  0
  9 10  1  6  0  0  0
  9 11  1  0  0  0  0
 11 12  1  6  0  0  0
 11 13  1  0  0  0  0
 13 31  1  0  0  0  0
 14 15  1  0  0  0  0
 15 16  2  0  0  0  0
 15 17  1  0  0  0  0
 17 18  1  0  0  0  0
 18 20  2  0  0  0  0
 19 18  1  6  0  0  0
 19 22  1  0  0  0  0
 19 30  1  0  0  0  0
 21 23  1  1  0  0  0
 21 29  1  0  0  0  0
 21 22  1  0  0  0  0
 23 24  1  0  0  0  0
 24 25  1  6  0  0  0
 24 26  1  0  0  0  0
 26 27  1  6  0  0  0
 26 28  1  0  0  0  0
 29 28  1  1  0  0  0
 29 31  1  0  0  0  0
 30 14  1  1  0  0  0
 30 31  1  0  0  0  0
M  CHG  1   3  -1
M  END
>  <CHROM.1>
-174.53092139,-52.41521693,170.58481660,52.93175880,-42.11065706,150.59241003
85.40966263,26.87543270,39.13024656,20.47000735,-2.25566159,-1.34304033,1.75127540

>  <Name>
ligand

>  <RI>
0

>  <Rbt.Current_Directory>
/home/itssahil/PROJECTS/Mol_Feturizer/New_Systems/rnas/3F2Q

>  <Rbt.Executable>
rbdock ($Id: //depot/dev/client3/rdock/2013.1/src/exe/rbdock.cxx#4 $)

>  <Rbt.Library>
libRbt.so (2013.1, Build901 2013/11/27)

>  <Rbt.Parameter_File>
/export/apps/rDock/src/rDock_2013.1_src/data/scripts/dock_solv.prm

>  <Rbt.Receptor>
prm/pocket_docking_4.prm

>  <SCORE>
-30.6553

>  <SCORE.INTER>
-27.1188

>  <SCORE.INTER.CONST>
1

>  <SCORE.INTER.POLAR>
0

>  <SCORE.INTER.ROT>
7

>  <SCORE.INTER.SOLV>
18.5854

>  <SCORE.INTER.VDW>
-32.541

>  <SCORE.INTER.norm>
-0.874799

>  <SCORE.INTRA>
-3.53656

>  <SCORE.INTRA.DIHEDRAL>
-4.59367

>  <SCORE.INTRA.DIHEDRAL.0>
10.0718

>  <SCORE.INTRA.POLAR>
0

>  <SCORE.INTRA.POLAR.0>
0

>  <SCORE.INTRA.REPUL>
0

>  <SCORE.INTRA.REPUL.0>
0

>  <SCORE.INTRA.SOLV>
-0.721635

>  <SCORE.INTRA.SOLV.lig_0>
-48.6963

>  <SCORE.INTRA.VDW>
-0.878903

>  <SCORE.INTRA.VDW.0>
-0.836976

>  <SCORE.INTRA.norm>
-0.114083

>  <SCORE.RESTR>
0

>  <SCORE.RESTR.CAVITY>
0

>  <SCORE.RESTR.norm>
0

>  <SCORE.SYSTEM>
0

>  <SCORE.SYSTEM.CONST>
0

>  <SCORE.SYSTEM.DIHEDRAL>
0

>  <SCORE.SYSTEM.SOLV>
0

>  <SCORE.SYSTEM.norm>
0

>  <SCORE.heavy>
31

>  <SCORE.norm>
-0.988882

>  <RMSD>
4.898

$$$$
ligand
 OpenBabel11021811473D
libRbt.so/2013.1/901 2013/11/27
 31 33  0  0  0  0  0  0  0  0999 V2000
   25.7142   43.4399   16.0619 P   0  0  1  0  0  0  0  0  0  0  0  0
   26.6890   43.6507   14.9231 O   0  0  0  0  0  0  0  0  0  0  0  0
   25.7898   44.6419   16.9644 O   0  5  0  0  0  0  0  0  0  0  0  0
   24.3151   43.2982   15.5286 O   0  0  0  0  0  0  0  0  0  0  0  0
   27.3911   41.8166   17.2170 C   0  0  0  0  0  0  0  0  0  0  0  0
   26.0664   42.0746   16.8199 O   0  0  0  0  0  0  0  0  0  0  0  0
   27.4433   40.4773   17.9375 C   0  0  1  0  0  0  0  0  0  0  0  0
   28.7959   40.1165   18.1213 O   0  0  0  0  0  0  0  0  0  0  0  0
   26.7284   40.5715   19.2853 C   0  0  1  0  0  0  0  0  0  0  0  0
   25.4469   41.1349   19.1040 O   0  0  0  0  0  0  0  0  0  0  0  0
   26.6462   39.2352   20.0363 C   0  0  1  0  0  0  0  0  0  0  0  0
   26.2741   38.2065   19.1462 O   0  0  0  0  0  0  0  0  0  0  0  0
   27.9575   38.8620   20.7091 C   0  0  0  0  0  0  0  0  0  0  0  0
   27.2845   39.7340   23.3111 N   0  0  0  0  0  0  0  0  0  0  0  0
   26.9094   40.2096   24.5511 C   0  0  0  0  0  0  0  0  0  0  0  0
   26.8923   41.4241   24.7696 O   0  0  0  0  0  0  0  0  0  0  0  0
   26.5633   39.3188   25.5470 N   0  0  0  0  0  0  0  0  0  0  0  0
   26.5910   37.9578   25.3075 C   0  0  0  0  0  0  0  0  0  0  0  0
   26.9635   37.4786   24.0689 C   0  0  1  0  0  0  0  0  0  0  0  0
   26.2764   37.1536   26.1832 O   0  0  0  0  0  0  0  0  0  0  0  0
   27.3490   35.6323   22.6070 C   0  0  2  0  0  0  0  0  0  0  0  0
   26.9808   36.1155   23.8459 N   0  0  0  0  0  0  0  0  0  0  0  0
   27.3692   34.2582   22.3804 C   0  0  0  0  0  0  0  0  0  0  0  0
   27.7463   33.7606   21.1370 C   0  0  1  0  0  0  0  0  0  0  0  0
   27.7523   32.2746   20.9060 C   0  0  0  0  0  0  0  0  0  0  0  0
   28.1017   34.6479   20.1148 C   0  0  1  0  0  0  0  0  0  0  0  0
   28.4984   34.1425   18.7584 C   0  0  0  0  0  0  0  0  0  0  0  0
   28.0796   36.0203   20.3451 C   0  0  0  0  0  0  0  0  0  0  0  0
   27.7055   36.5223   21.5893 C   0  0  2  0  0  0  0  0  0  0  0  0
   27.3112   38.3715   23.0616 C   0  0  2  0  0  0  0  0  0  0  0  0
   27.6925   37.8922   21.8231 N   0  0  0  0  0  0  0  0  0  0  0  0
  1  2  1  6  0  0  0
  1  3  1  0  0  0  0
  1  4  2  0  0  0  0
  1  6  1  0  0  0  0
  5  6  1  0  0  0  0
  7  5  1  1  0  0  0
  7  8  1  0  0  0  0
  7  9  1  0  0  0  0
  9 10  1  6  0  0  0
  9 11  1  0  0  0  0
 11 12  1  6  0  0  0
 11 13  1  0  0  0  0
 13 31  1  0  0  0  0
 14 15  1  0  0  0  0
 15 16  2  0  0  0  0
 15 17  1  0  0  0  0
 17 18  1  0  0  0  0
 18 20  2  0  0  0  0
 19 18  1  6  0  0  0
 19 22  1  0  0  0  0
 19 30  1  0  0  0  0
 21 23  1  1  0  0  0
 21 29  1  0  0  0  0
 21 22  1  0  0  0  0
 23 24  1  0  0  0  0
 24 25  1  6  0  0  0
 24 26  1  0  0  0  0
 26 27  1  6  0  0  0
 26 28  1  0  0  0  0
 29 28  1  1  0  0  0
 29 31  1  0  0  0  0
 30 14  1  1  0  0  0
 30 31  1  0  0  0  0
M  CHG  1   3  -1
M  END
>  <CHROM.1>
178.73402715,49.22963252,169.75885335,50.66393524,-44.38138960,157.99539858
90.32922259,26.92003577,39.07088370,20.39901705,-2.21159051,-1.34667160,1.74357483

>  <Name>
ligand

>  <RI>
0

>  <Rbt.Current_Directory>
/home/itssahil/PROJECTS/Mol_Feturizer/New_Systems/rnas/3F2Q

>  <Rbt.Executable>
rbdock ($Id: //depot/dev/client3/rdock/2013.1/src/exe/rbdock.cxx#4 $)

>  <Rbt.Library>
libRbt.so (2013.1, Build901 2013/11/27)

>  <Rbt.Parameter_File>
/export/apps/rDock/src/rDock_2013.1_src/data/scripts/dock_solv.prm

>  <Rbt.Receptor>
prm/pocket_docking_7.prm

>  <SCORE>
-31.5109

>  <SCORE.INTER>
-27.4351

>  <SCORE.INTER.CONST>
1

>  <SCORE.INTER.POLAR>
0

>  <SCORE.INTER.ROT>
7

>  <SCORE.INTER.SOLV>
18.6192

>  <SCORE.INTER.VDW>
-32.7631

>  <SCORE.INTER.norm>
-0.885003

>  <SCORE.INTRA>
-4.07578

>  <SCORE.INTRA.DIHEDRAL>
-5.66579

>  <SCORE.INTRA.DIHEDRAL.0>
10.0718

>  <SCORE.INTRA.POLAR>
0

>  <SCORE.INTRA.POLAR.0>
0

>  <SCORE.INTRA.REPUL>
0

>  <SCORE.INTRA.REPUL.0>
0

>  <SCORE.INTRA.SOLV>
-0.648495

>  <SCORE.INTRA.SOLV.lig_0>
-48.6963

>  <SCORE.INTRA.VDW>
-0.918632

>  <SCORE.INTRA.VDW.0>
-0.836976

>  <SCORE.INTRA.norm>
-0.131477

>  <SCORE.RESTR>
0

>  <SCORE.RESTR.CAVITY>
0

>  <SCORE.RESTR.norm>
0

>  <SCORE.SYSTEM>
0

>  <SCORE.SYSTEM.CONST>
0

>  <SCORE.SYSTEM.DIHEDRAL>
0

>  <SCORE.SYSTEM.SOLV>
0

>  <SCORE.SYSTEM.norm>
0

>  <SCORE.heavy>
31

>  <SCORE.norm>
-1.01648

>  <RMSD>
4.901

$$$$
ligand
 OpenBabel11021811473D
libRbt.so/2013.1/901 2013/11/27
 31 33  0  0  0  0  0  0  0  0999 V2000
   25.4006   43.8418   15.9140 P   0  0  1  0  0  0  0  0  0  0  0  0
   26.6921   43.9458   15.1312 O   0  0  0  0  0  0  0  0  0  0  0  0
   25.2947   45.0568   16.7959 O   0  5  0  0  0  0  0  0  0  0  0  0
   24.2264   43.7974   14.9754 O   0  0  0  0  0  0  0  0  0  0  0  0
   26.3815   42.2318   17.7105 C   0  0  0  0  0  0  0  0  0  0  0  0
   25.3883   42.4728   16.7436 O   0  0  0  0  0  0  0  0  0  0  0  0
   26.2623   40.7960   18.1999 C   0  0  1  0  0  0  0  0  0  0  0  0
   26.4971   39.9277   17.1117 O   0  0  0  0  0  0  0  0  0  0  0  0
   27.2686   40.5318   19.3199 C   0  0  1  0  0  0  0  0  0  0  0  0
   27.1498   41.5314   20.3095 O   0  0  0  0  0  0  0  0  0  0  0  0
   27.1579   39.1285   19.9321 C   0  0  1  0  0  0  0  0  0  0  0  0
   27.1545   38.1575   18.9093 O   0  0  0  0  0  0  0  0  0  0  0  0
   28.2870   38.8247   20.9039 C   0  0  0  0  0  0  0  0  0  0  0  0
   27.3884   39.4690   23.5040 N   0  0  0  0  0  0  0  0  0  0  0  0
   26.9098   39.8395   24.7442 C   0  0  0  0  0  0  0  0  0  0  0  0
   26.9409   41.0233   25.0920 O   0  0  0  0  0  0  0  0  0  0  0  0
   26.4056   38.8774   25.5959 N   0  0  0  0  0  0  0  0  0  0  0  0
   26.3786   37.5498   25.2123 C   0  0  0  0  0  0  0  0  0  0  0  0
   26.8543   37.1759   23.9728 C   0  0  1  0  0  0  0  0  0  0  0  0
   25.9239   36.6838   25.9578 O   0  0  0  0  0  0  0  0  0  0  0  0
   27.2863   35.4675   22.3636 C   0  0  2  0  0  0  0  0  0  0  0  0
   26.8151   35.8451   23.6043 N   0  0  0  0  0  0  0  0  0  0  0  0
   27.2497   34.1261   21.9906 C   0  0  0  0  0  0  0  0  0  0  0  0
   27.7294   33.7339   20.7448 C   0  0  1  0  0  0  0  0  0  0  0  0
   27.6725   32.2830   20.3537 C   0  0  0  0  0  0  0  0  0  0  0  0
   28.2454   34.6947   19.8677 C   0  0  1  0  0  0  0  0  0  0  0  0
   28.7563   34.3051   18.5113 C   0  0  0  0  0  0  0  0  0  0  0  0
   28.2796   36.0341   20.2440 C   0  0  0  0  0  0  0  0  0  0  0  0
   27.8031   36.4303   21.4914 C   0  0  2  0  0  0  0  0  0  0  0  0
   27.3614   38.1411   23.1104 C   0  0  2  0  0  0  0  0  0  0  0  0
   27.8458   37.7663   21.8718 N   0  0  0  0  0  0  0  0  0  0  0  0
  1  2  1  6  0  0  0
  1  3  1  0  0  0  0
  1  4  2  0  0  0  0
  1  6  1  0  0  0  0
  5  6  1  0  0  0  0
  7  5  1  6  0  0  0
  7  8  1  0  0  0  0
  7  9  1  0  0  0  0
  9 10  1  1  0  0  0
  9 11  1  0  0  0  0
 11 12  1  6  0  0  0
 11 13  1  0  0  0  0
 13 31  1  0  0  0  0
 14 15  1  0  0  0  0
 15 16  2  0  0  0  0
 15 17  1  0  0  0  0
 17 18  1  0  0  0  0
 18 20  2  0  0  0  0
 19 18  1  6  0  0  0
 19 22  1  0  0  0  0
 19 30  1  0  0  0  0
 21 23  1  1  0  0  0
 21 29  1  0  0  0  0
 21 22  1  0  0  0  0
 23 24  1  0  0  0  0
 24 25  1  6  0  0  0
 24 26  1  0  0  0  0
 26 27  1  6  0  0  0
 26 28  1  0  0  0  0
 29 28  1  1  0  0  0
 29 31  1  0  0  0  0
 30 14  1  1  0  0  0
 30 31  1  0  0  0  0
M  CHG  1   3  -1
M  END
>  <CHROM.1>
-171.82805283,60.66159027,62.63545387,51.26123530,50.18588072,155.97386944
77.40667079,26.83085204,39.07407233,20.33353195,-2.34673756,-1.33883657,1.64214037

>  <Name>
ligand

>  <RI>
0

>  <Rbt.Current_Directory>
/home/itssahil/PROJECTS/Mol_Feturizer/New_Systems/rnas/3F2Q

>  <Rbt.Executable>
rbdock ($Id: //depot/dev/client3/rdock/2013.1/src/exe/rbdock.cxx#4 $)

>  <Rbt.Library>
libRbt.so (2013.1, Build901 2013/11/27)

>  <Rbt.Parameter_File>
/export/apps/rDock/src/rDock_2013.1_src/data/scripts/dock_solv.prm

>  <Rbt.Receptor>
prm/pocket_docking_3.prm

>  <SCORE>
-32.5268

>  <SCORE.INTER>
-28.0433

>  <SCORE.INTER.CONST>
1

>  <SCORE.INTER.POLAR>
0

>  <SCORE.INTER.ROT>
7

>  <SCORE.INTER.SOLV>
20.8423

>  <SCORE.INTER.VDW>
-33.9096

>  <SCORE.INTER.norm>
-0.904623

>  <SCORE.INTRA>
-4.4835

>  <SCORE.INTRA.DIHEDRAL>
-6.08588

>  <SCORE.INTRA.DIHEDRAL.0>
10.0718

>  <SCORE.INTRA.POLAR>
0

>  <SCORE.INTRA.POLAR.0>
0

>  <SCORE.INTRA.REPUL>
0

>  <SCORE.INTRA.REPUL.0>
0

>  <SCORE.INTRA.SOLV>
-1.2252

>  <SCORE.INTRA.SOLV.lig_0>
-48.6963

>  <SCORE.INTRA.VDW>
-0.827958

>  <SCORE.INTRA.VDW.0>
-0.836976

>  <SCORE.INTRA.norm>
-0.144629

>  <SCORE.RESTR>
0

>  <SCORE.RESTR.CAVITY>
0

>  <SCORE.RESTR.norm>
0

>  <SCORE.SYSTEM>
0

>  <SCORE.SYSTEM.CONST>
0

>  <SCORE.SYSTEM.DIHEDRAL>
0

>  <SCORE.SYSTEM.SOLV>
0

>  <SCORE.SYSTEM.norm>
0

>  <SCORE.heavy>
31

>  <SCORE.norm>
-1.04925

>  <RMSD>
4.904

$$$$
ligand
 OpenBabel11021811473D
libRbt.so/2013.1/901 2013/11/27
 31 33  0  0  0  0  0  0  0  0999 V2000
   25.4354   43.9488   16.1155 P   0  0  1  0  0  0  0  0  0  0  0  0
   25.5107   43.7712   14.6141 O   0  0  0  0  0  0  0  0  0  0  0  0
   25.0320   45.3718   16.3936 O   0  5  0  0  0  0  0  0  0  0  0  0
   24.4129   43.0127   16.6987 O   0  0  0  0  0  0  0  0  0  0  0  0
   27.2752   42.2272   16.7736 C   0  0  0  0  0  0  0  0  0  0  0  0
   26.8459   43.5670   16.7694 O   0  0  0  0  0  0  0  0  0  0  0  0
   28.6624   42.1506   17.3943 C   0  0  1  0  0  0  0  0  0  0  0  0
   28.5995   42.6719   18.7049 O   0  0  0  0  0  0  0  0  0  0  0  0
   29.1536   40.7033   17.4189 C   0  0  1  0  0  0  0  0  0  0  0  0
   30.5647   40.6810   17.3919 O   0  0  0  0  0  0  0  0  0  0  0  0
   28.6078   39.8852   18.5975 C   0  0  1  0  0  0  0  0  0  0  0  0
   27.3125   39.4154   18.2968 O   0  0  0  0  0  0  0  0  0  0  0  0
   29.4973   38.7035   18.9495 C   0  0  0  0  0  0  0  0  0  0  0  0
   29.0345   40.1465   21.3343 N   0  0  0  0  0  0  0  0  0  0  0  0
   28.7768   40.9050   22.4580 C   0  0  0  0  0  0  0  0  0  0  0  0
   29.0679   42.1042   22.4762 O   0  0  0  0  0  0  0  0  0  0  0  0
   28.2010   40.3122   23.5636 N   0  0  0  0  0  0  0  0  0  0  0  0
   27.8829   38.9672   23.5489 C   0  0  0  0  0  0  0  0  0  0  0  0
   28.1372   38.2062   22.4270 C   0  0  1  0  0  0  0  0  0  0  0  0
   27.3613   38.4286   24.5238 O   0  0  0  0  0  0  0  0  0  0  0  0
   28.0575   36.1007   21.3066 C   0  0  2  0  0  0  0  0  0  0  0  0
   27.8083   36.8645   22.4284 N   0  0  0  0  0  0  0  0  0  0  0  0
   27.7286   34.7473   21.3064 C   0  0  0  0  0  0  0  0  0  0  0  0
   27.9827   33.9667   20.1830 C   0  0  1  0  0  0  0  0  0  0  0  0
   27.6116   32.5094   20.1958 C   0  0  0  0  0  0  0  0  0  0  0  0
   28.5670   34.5494   19.0527 C   0  0  1  0  0  0  0  0  0  0  0  0
   28.8396   33.7372   17.8203 C   0  0  0  0  0  0  0  0  0  0  0  0
   28.8935   35.9023   19.0567 C   0  0  0  0  0  0  0  0  0  0  0  0
   28.6434   36.6864   20.1804 C   0  0  2  0  0  0  0  0  0  0  0  0
   28.7153   38.7986   21.3101 C   0  0  2  0  0  0  0  0  0  0  0  0
   28.9780   38.0353   20.1887 N   0  0  0  0  0  0  0  0  0  0  0  0
  1  2  1  6  0  0  0
  1  3  1  0  0  0  0
  1  4  2  0  0  0  0
  1  6  1  0  0  0  0
  5  6  1  0  0  0  0
  7  5  1  1  0  0  0
  7  8  1  0  0  0  0
  7  9  1  0  0  0  0
  9 10  1  1  0  0  0
  9 11  1  0  0  0  0
 11 12  1  6  0  0  0
 11 13  1  0  0  0  0
 13 31  1  0  0  0  0
 14 15  1  0  0  0  0
 15 16  2  0  0  0  0
 15 17  1  0  0  0  0
 17 18  1  0  0  0  0
 18 20  2  0  0  0  0
 19 18  1  6  0  0  0
 19 22  1  0  0  0  0
 19 30  1  0  0  0  0
 21 23  1  1  0  0  0
 21 29  1  0  0  0  0
 21 22  1  0  0  0  0
 23 24  1  0  0  0  0
 24 25  1  6  0  0  0
 24 26  1  0  0  0  0
 26 27  1  6  0  0  0
 26 28  1  0  0  0  0
 29 28  1  1  0  0  0
 29 31  1  0  0  0  0
 30 14  1  1  0  0  0
 30 31  1  0  0  0  0
M  CHG  1   3  -1
M  END
>  <CHROM.1>
177.53547362,-69.26300149,58.56554939,153.10001553,81.96630930,174.37958225
122.99178421,27.82608169,39.61905254,19.36051390,2.75992508,-1.33109407,0.65078798

>  <Name>
ligand

>  <RI>
0

>  <Rbt.Current_Directory>
/home/itssahil/PROJECTS/Mol_Feturizer/New_Systems/rnas/3F2Q

>  <Rbt.Executable>
rbdock ($Id: //depot/dev/client3/rdock/2013.1/src/exe/rbdock.cxx#4 $)

>  <Rbt.Library>
libRbt.so (2013.1, Build901 2013/11/27)

>  <Rbt.Parameter_File>
/export/apps/rDock/src/rDock_2013.1_src/data/scripts/dock_solv.prm

>  <Rbt.Receptor>
prm/pocket_docking_4.prm

>  <SCORE>
-26.8583

>  <SCORE.INTER>
-23.6428

>  <SCORE.INTER.CONST>
1

>  <SCORE.INTER.POLAR>
0

>  <SCORE.INTER.ROT>
7

>  <SCORE.INTER.SOLV>
20.6821

>  <SCORE.INTER.VDW>
-30.9225

>  <SCORE.INTER.norm>
-0.76267

>  <SCORE.INTRA>
-3.21551

>  <SCORE.INTRA.DIHEDRAL>
-4.66215

>  <SCORE.INTRA.DIHEDRAL.0>
10.0718

>  <SCORE.INTRA.POLAR>
0

>  <SCORE.INTRA.POLAR.0>
0

>  <SCORE.INTRA.REPUL>
0

>  <SCORE.INTRA.REPUL.0>
0

>  <SCORE.INTRA.SOLV>
-1.07505

>  <SCORE.INTRA.SOLV.lig_0>
-48.6963

>  <SCORE.INTRA.VDW>
-0.346909

>  <SCORE.INTRA.VDW.0>
-0.836976

>  <SCORE.INTRA.norm>
-0.103726

>  <SCORE.RESTR>
0

>  <SCORE.RESTR.CAVITY>
0

>  <SCORE.RESTR.norm>
0

>  <SCORE.SYSTEM>
0

>  <SCORE.SYSTEM.CONST>
0

>  <SCORE.SYSTEM.DIHEDRAL>
0

>  <SCORE.SYSTEM.SOLV>
0

>  <SCORE.SYSTEM.norm>
0

>  <SCORE.heavy>
31

>  <SCORE.norm>
-0.866396

>  <RMSD>
4.910

$$$$
ligand
 OpenBabel11021811473D
libRbt.so/2013.1/901 2013/11/27
 31 33  0  0  0  0  0  0  0  0999 V2000
   26.7288   42.7783   16.7225 P   0  0  1  0  0  0  0  0  0  0  0  0
   25.8344   43.4503   15.7027 O   0  0  0  0  0  0  0  0  0  0  0  0
   27.9049   43.6831   16.9743 O   0  5  0  0  0  0  0  0  0  0  0  0
   25.9784   42.5592   18.0073 O   0  0  0  0  0  0  0  0  0  0  0  0
   28.2607   40.6728   16.7622 C   0  0  0  0  0  0  0  0  0  0  0  0
   27.1633   41.3353   16.1826 O   0  0  0  0  0  0  0  0  0  0  0  0
   27.9155   40.2974   18.1959 C   0  0  1  0  0  0  0  0  0  0  0  0
   26.6122   39.7549   18.2187 O   0  0  0  0  0  0  0  0  0  0  0  0
   28.9244   39.2845   18.7369 C   0  0  1  0  0  0  0  0  0  0  0  0
   30.2360   39.7318   18.4680 O   0  0  0  0  0  0  0  0  0  0  0  0
   28.7413   38.9652   20.2272 C   0  0  1  0  0  0  0  0  0  0  0  0
   29.0533   40.1006   21.0033 O   0  0  0  0  0  0  0  0  0  0  0  0
   27.3292   38.5085   20.5571 C   0  0  0  0  0  0  0  0  0  0  0  0
   27.0623   39.5331   23.1768 N   0  0  0  0  0  0  0  0  0  0  0  0
   26.8764   40.0769   24.4314 C   0  0  0  0  0  0  0  0  0  0  0  0
   26.7894   41.3002   24.5698 O   0  0  0  0  0  0  0  0  0  0  0  0
   26.7984   39.2454   25.5304 N   0  0  0  0  0  0  0  0  0  0  0  0
   26.9051   37.8756   25.3790 C   0  0  0  0  0  0  0  0  0  0  0  0
   27.0890   37.3282   24.1263 C   0  0  1  0  0  0  0  0  0  0  0  0
   26.8283   37.1229   26.3485 O   0  0  0  0  0  0  0  0  0  0  0  0
   27.3689   35.4051   22.7414 C   0  0  2  0  0  0  0  0  0  0  0  0
   27.1889   35.9569   23.9933 N   0  0  0  0  0  0  0  0  0  0  0  0
   27.4719   34.0229   22.6049 C   0  0  0  0  0  0  0  0  0  0  0  0
   27.6611   33.4570   21.3480 C   0  0  1  0  0  0  0  0  0  0  0  0
   27.7595   31.9622   21.2171 C   0  0  0  0  0  0  0  0  0  0  0  0
   27.7438   34.2838   20.2218 C   0  0  1  0  0  0  0  0  0  0  0  0
   27.9325   33.7026   18.8509 C   0  0  0  0  0  0  0  0  0  0  0  0
   27.6398   35.6645   20.3623 C   0  0  0  0  0  0  0  0  0  0  0  0
   27.4533   36.2349   21.6193 C   0  0  2  0  0  0  0  0  0  0  0  0
   27.1665   38.1610   23.0159 C   0  0  2  0  0  0  0  0  0  0  0  0
   27.3590   37.6142   21.7617 N   0  0  0  0  0  0  0  0  0  0  0  0
  1  2  1  6  0  0  0
  1  3  1  0  0  0  0
  1  4  2  0  0  0  0
  1  6  1  0  0  0  0
  5  6  1  0  0  0  0
  7  5  1  6  0  0  0
  7  8  1  0  0  0  0
  7  9  1  0  0  0  0
  9 10  1  1  0  0  0
  9 11  1  0  0  0  0
 11 12  1  1  0  0  0
 11 13  1  0  0  0  0
 13 31  1  0  0  0  0
 14 15  1  0  0  0  0
 15 16  2  0  0  0  0
 15 17  1  0  0  0  0
 17 18  1  0  0  0  0
 18 20  2  0  0  0  0
 19 18  1  6  0  0  0
 19 22  1  0  0  0  0
 19 30  1  0  0  0  0
 21 23  1  1  0  0  0
 21 29  1  0  0  0  0
 21 22  1  0  0  0  0
 23 24  1  0  0  0  0
 24 25  1  6  0  0  0
 24 26  1  0  0  0  0
 26 27  1  6  0  0  0
 26 28  1  0  0  0  0
 29 28  1  1  0  0  0
 29 31  1  0  0  0  0
 30 14  1  1  0  0  0
 30 31  1  0  0  0  0
M  CHG  1   3  -1
M  END
>  <CHROM.1>
67.04037171,162.88401860,44.64611850,48.51773864,-67.46892666,152.59168308
-92.96402546,27.44535599,38.72245211,20.59244722,1.67069006,1.41584531,-0.86981189

>  <Name>
ligand

>  <RI>
0

>  <Rbt.Current_Directory>
/home/itssahil/PROJECTS/Mol_Feturizer/New_Systems/rnas/3F2Q

>  <Rbt.Executable>
rbdock ($Id: //depot/dev/client3/rdock/2013.1/src/exe/rbdock.cxx#4 $)

>  <Rbt.Library>
libRbt.so (2013.1, Build901 2013/11/27)

>  <Rbt.Parameter_File>
/export/apps/rDock/src/rDock_2013.1_src/data/scripts/dock_solv.prm

>  <Rbt.Receptor>
prm/pocket_docking_3.prm

>  <SCORE>
-26.8272

>  <SCORE.INTER>
-25.8462

>  <SCORE.INTER.CONST>
1

>  <SCORE.INTER.POLAR>
0

>  <SCORE.INTER.ROT>
7

>  <SCORE.INTER.SOLV>
17.9281

>  <SCORE.INTER.VDW>
-31.4735

>  <SCORE.INTER.norm>
-0.833749

>  <SCORE.INTRA>
-0.999595

>  <SCORE.INTRA.DIHEDRAL>
-4.07192

>  <SCORE.INTRA.DIHEDRAL.0>
10.0718

>  <SCORE.INTRA.POLAR>
0

>  <SCORE.INTRA.POLAR.0>
0

>  <SCORE.INTRA.REPUL>
0

>  <SCORE.INTRA.REPUL.0>
0

>  <SCORE.INTRA.SOLV>
2.17846

>  <SCORE.INTRA.SOLV.lig_0>
-48.6963

>  <SCORE.INTRA.VDW>
-0.0528611

>  <SCORE.INTRA.VDW.0>
-0.836976

>  <SCORE.INTRA.norm>
-0.032245

>  <SCORE.RESTR>
0.0185839

>  <SCORE.RESTR.CAVITY>
0.0185839

>  <SCORE.RESTR.norm>
0.000599479

>  <SCORE.SYSTEM>
0

>  <SCORE.SYSTEM.CONST>
0

>  <SCORE.SYSTEM.DIHEDRAL>
0

>  <SCORE.SYSTEM.SOLV>
0

>  <SCORE.SYSTEM.norm>
0

>  <SCORE.heavy>
31

>  <SCORE.norm>
-0.865395

>  <RMSD>
4.913

$$$$
ligand
 OpenBabel11021811473D
libRbt.so/2013.1/901 2013/11/27
 31 33  0  0  0  0  0  0  0  0999 V2000
   26.2066   42.7237   16.8855 P   0  0  1  0  0  0  0  0  0  0  0  0
   27.2483   43.3532   17.7855 O   0  0  0  0  0  0  0  0  0  0  0  0
   25.0419   43.6722   16.7916 O   0  5  0  0  0  0  0  0  0  0  0  0
   26.7777   42.4908   15.5138 O   0  0  0  0  0  0  0  0  0  0  0  0
   25.0369   41.2108   18.6531 C   0  0  0  0  0  0  0  0  0  0  0  0
   25.7924   41.2918   17.4691 O   0  0  0  0  0  0  0  0  0  0  0  0
   25.8798   41.7105   19.8171 C   0  0  1  0  0  0  0  0  0  0  0  0
   25.1211   41.6017   21.0028 O   0  0  0  0  0  0  0  0  0  0  0  0
   27.1664   40.8929   19.9302 C   0  0  1  0  0  0  0  0  0  0  0  0
   28.0482   41.5193   20.8372 O   0  0  0  0  0  0  0  0  0  0  0  0
   26.9338   39.4232   20.3073 C   0  0  1  0  0  0  0  0  0  0  0  0
   26.4945   38.7016   19.1780 O   0  0  0  0  0  0  0  0  0  0  0  0
   28.1815   38.7599   20.8683 C   0  0  0  0  0  0  0  0  0  0  0  0
   27.3582   39.4433   23.4833 N   0  0  0  0  0  0  0  0  0  0  0  0
   26.9146   39.8318   24.7311 C   0  0  0  0  0  0  0  0  0  0  0  0
   26.9395   41.0225   25.0545 O   0  0  0  0  0  0  0  0  0  0  0  0
   26.4525   38.8799   25.6174 N   0  0  0  0  0  0  0  0  0  0  0  0
   26.4326   37.5446   25.2609 C   0  0  0  0  0  0  0  0  0  0  0  0
   26.8734   37.1527   24.0140 C   0  0  1  0  0  0  0  0  0  0  0  0
   26.0151   36.6873   26.0376 O   0  0  0  0  0  0  0  0  0  0  0  0
   27.2782   35.4187   22.4253 C   0  0  2  0  0  0  0  0  0  0  0  0
   26.8419   35.8144   23.6731 N   0  0  0  0  0  0  0  0  0  0  0  0
   27.2493   34.0697   22.0799 C   0  0  0  0  0  0  0  0  0  0  0  0
   27.6940   33.6595   20.8270 C   0  0  1  0  0  0  0  0  0  0  0  0
   27.6459   32.2004   20.4664 C   0  0  0  0  0  0  0  0  0  0  0  0
   28.1671   34.6097   19.9149 C   0  0  1  0  0  0  0  0  0  0  0  0
   28.6396   34.2003   18.5504 C   0  0  0  0  0  0  0  0  0  0  0  0
   28.1938   35.9568   20.2636 C   0  0  0  0  0  0  0  0  0  0  0  0
   27.7522   36.3711   21.5180 C   0  0  2  0  0  0  0  0  0  0  0  0
   27.3380   38.1075   23.1168 C   0  0  2  0  0  0  0  0  0  0  0  0
   27.7875   37.7149   21.8706 N   0  0  0  0  0  0  0  0  0  0  0  0
  1  2  1  1  0  0  0
  1  3  1  0  0  0  0
  1  4  2  0  0  0  0
  1  6  1  0  0  0  0
  5  6  1  0  0  0  0
  7  5  1  6  0  0  0
  7  8  1  0  0  0  0
  7  9  1  0  0  0  0
  9 10  1  1  0  0  0
  9 11  1  0  0  0  0
 11 12  1  6  0  0  0
 11 13  1  0  0  0  0
 13 31  1  0  0  0  0
 14 15  1  0  0  0  0
 15 16  2  0  0  0  0
 15 17  1  0  0  0  0
 17 18  1  0  0  0  0
 18 20  2  0  0  0  0
 19 18  1  6  0  0  0
 19 22  1  0  0  0  0
 19 30  1  0  0  0  0
 21 23  1  1  0  0  0
 21 29  1  0  0  0  0
 21 22  1  0  0  0  0
 23 24  1  0  0  0  0
 24 25  1  6  0  0  0
 24 26  1  0  0  0  0
 26 27  1  6  0  0  0
 26 28  1  0  0  0  0
 29 28  1  1  0  0  0
 29 31  1  0  0  0  0
 30 14  1  1  0  0  0
 30 31  1  0  0  0  0
M  CHG  1   3  -1
M  END
>  <CHROM.1>
-66.94630009,70.53327317,-178.92669038,168.88207944,77.60363666,148.52337840
99.69645690,26.88876458,38.90574290,20.83131772,-2.24574105,-1.36524095,1.81217671

>  <Name>
ligand

>  <RI>
0

>  <Rbt.Current_Directory>
/home/itssahil/PROJECTS/Mol_Feturizer/New_Systems/rnas/3F2Q

>  <Rbt.Executable>
rbdock ($Id: //depot/dev/client3/rdock/2013.1/src/exe/rbdock.cxx#4 $)

>  <Rbt.Library>
libRbt.so (2013.1, Build901 2013/11/27)

>  <Rbt.Parameter_File>
/export/apps/rDock/src/rDock_2013.1_src/data/scripts/dock_solv.prm

>  <Rbt.Receptor>
prm/pocket_docking_3.prm

>  <SCORE>
-31.1355

>  <SCORE.INTER>
-27.6419

>  <SCORE.INTER.CONST>
1

>  <SCORE.INTER.POLAR>
0

>  <SCORE.INTER.ROT>
7

>  <SCORE.INTER.SOLV>
18.316

>  <SCORE.INTER.VDW>
-32.8

>  <SCORE.INTER.norm>
-0.891676

>  <SCORE.INTRA>
-3.4971

>  <SCORE.INTRA.DIHEDRAL>
-4.19163

>  <SCORE.INTRA.DIHEDRAL.0>
10.0718

>  <SCORE.INTRA.POLAR>
0

>  <SCORE.INTRA.POLAR.0>
0

>  <SCORE.INTRA.REPUL>
0

>  <SCORE.INTRA.REPUL.0>
0

>  <SCORE.INTRA.SOLV>
-0.134318

>  <SCORE.INTRA.SOLV.lig_0>
-48.6963

>  <SCORE.INTRA.VDW>
-1.33413

>  <SCORE.INTRA.VDW.0>
-0.836976

>  <SCORE.INTRA.norm>
-0.11281

>  <SCORE.RESTR>
0.00358283

>  <SCORE.RESTR.CAVITY>
0.00358283

>  <SCORE.RESTR.norm>
0.000115575

>  <SCORE.SYSTEM>
0

>  <SCORE.SYSTEM.CONST>
0

>  <SCORE.SYSTEM.DIHEDRAL>
0

>  <SCORE.SYSTEM.SOLV>
0

>  <SCORE.SYSTEM.norm>
0

>  <SCORE.heavy>
31

>  <SCORE.norm>
-1.00437

>  <RMSD>
4.922

$$$$
ligand
 OpenBabel11021811473D
libRbt.so/2013.1/901 2013/11/27
 31 33  0  0  0  0  0  0  0  0999 V2000
   25.0213   43.7375   16.0551 P   0  0  1  0  0  0  0  0  0  0  0  0
   23.9717   43.6270   14.9699 O   0  0  0  0  0  0  0  0  0  0  0  0
   26.3072   44.1823   15.4118 O   0  5  0  0  0  0  0  0  0  0  0  0
   24.5984   44.7478   17.0858 O   0  0  0  0  0  0  0  0  0  0  0  0
   26.2350   42.1135   17.6896 C   0  0  0  0  0  0  0  0  0  0  0  0
   25.1606   42.3315   16.8078 O   0  0  0  0  0  0  0  0  0  0  0  0
   26.1700   40.6853   18.2104 C   0  0  1  0  0  0  0  0  0  0  0  0
   26.4489   39.8032   17.1439 O   0  0  0  0  0  0  0  0  0  0  0  0
   27.1767   40.4873   19.3436 C   0  0  1  0  0  0  0  0  0  0  0  0
   27.0688   41.5513   20.2649 O   0  0  0  0  0  0  0  0  0  0  0  0
   27.0557   39.1286   20.0477 C   0  0  1  0  0  0  0  0  0  0  0  0
   27.0431   38.0919   19.0916 O   0  0  0  0  0  0  0  0  0  0  0  0
   28.1837   38.8810   21.0365 C   0  0  0  0  0  0  0  0  0  0  0  0
   27.2820   39.5675   23.6248 N   0  0  0  0  0  0  0  0  0  0  0  0
   26.8008   39.9573   24.8581 C   0  0  0  0  0  0  0  0  0  0  0  0
   26.8140   41.1487   25.1800 O   0  0  0  0  0  0  0  0  0  0  0  0
   26.3144   39.0061   25.7321 N   0  0  0  0  0  0  0  0  0  0  0  0
   26.3075   37.6702   25.3775 C   0  0  0  0  0  0  0  0  0  0  0  0
   26.7858   37.2769   24.1450 C   0  0  1  0  0  0  0  0  0  0  0  0
   25.8687   36.8135   26.1430 O   0  0  0  0  0  0  0  0  0  0  0  0
   27.2406   35.5409   22.5720 C   0  0  2  0  0  0  0  0  0  0  0  0
   26.7668   35.9380   23.8056 N   0  0  0  0  0  0  0  0  0  0  0  0
   27.2244   34.1913   22.2284 C   0  0  0  0  0  0  0  0  0  0  0  0
   27.7069   33.7797   20.9900 C   0  0  1  0  0  0  0  0  0  0  0  0
   27.6721   32.3199   20.6307 C   0  0  0  0  0  0  0  0  0  0  0  0
   28.2051   34.7292   20.0906 C   0  0  1  0  0  0  0  0  0  0  0  0
   28.7185   34.3183   18.7415 C   0  0  0  0  0  0  0  0  0  0  0  0
   28.2190   36.0770   20.4375 C   0  0  0  0  0  0  0  0  0  0  0  0
   27.7396   36.4926   21.6775 C   0  0  2  0  0  0  0  0  0  0  0  0
   27.2750   38.2310   23.2602 C   0  0  2  0  0  0  0  0  0  0  0  0
   27.7620   37.8371   22.0286 N   0  0  0  0  0  0  0  0  0  0  0  0
  1  2  1  6  0  0  0
  1  3  1  0  0  0  0
  1  4  2  0  0  0  0
  1  6  1  0  0  0  0
  5  6  1  0  0  0  0
  7  5  1  6  0  0  0
  7  8  1  0  0  0  0
  7  9  1  0  0  0  0
  9 10  1  1  0  0  0
  9 11  1  0  0  0  0
 11 12  1  6  0  0  0
 11 13  1  0  0  0  0
 13 31  1  0  0  0  0
 14 15  1  0  0  0  0
 15 16  2  0  0  0  0
 15 17  1  0  0  0  0
 17 18  1  0  0  0  0
 18 20  2  0  0  0  0
 19 18  1  6  0  0  0
 19 22  1  0  0  0  0
 19 30  1  0  0  0  0
 21 23  1  1  0  0  0
 21 29  1  0  0  0  0
 21 22  1  0  0  0  0
 23 24  1  0  0  0  0
 24 25  1  6  0  0  0
 24 26  1  0  0  0  0
 26 27  1  6  0  0  0
 26 28  1  0  0  0  0
 29 28  1  1  0  0  0
 29 31  1  0  0  0  0
 30 14  1  1  0  0  0
 30 31  1  0  0  0  0
M  CHG  1   3  -1
M  END
>  <CHROM.1>
-177.16776300,168.55992899,68.35104133,47.44068944,50.25253028,159.05652966
76.46290964,26.69014730,39.08381630,20.47639598,2.39916373,1.31048109,-1.56419258

>  <Name>
ligand

>  <RI>
0

>  <Rbt.Current_Directory>
/home/itssahil/PROJECTS/Mol_Feturizer/New_Systems/rnas/3F2Q

>  <Rbt.Executable>
rbdock ($Id: //depot/dev/client3/rdock/2013.1/src/exe/rbdock.cxx#4 $)

>  <Rbt.Library>
libRbt.so (2013.1, Build901 2013/11/27)

>  <Rbt.Parameter_File>
/export/apps/rDock/src/rDock_2013.1_src/data/scripts/dock_solv.prm

>  <Rbt.Receptor>
prm/pocket_docking_4.prm

>  <SCORE>
-31.8988

>  <SCORE.INTER>
-27.9103

>  <SCORE.INTER.CONST>
1

>  <SCORE.INTER.POLAR>
0

>  <SCORE.INTER.ROT>
7

>  <SCORE.INTER.SOLV>
20.1385

>  <SCORE.INTER.VDW>
-33.5863

>  <SCORE.INTER.norm>
-0.900331

>  <SCORE.INTRA>
-3.98853

>  <SCORE.INTRA.DIHEDRAL>
-6.05008

>  <SCORE.INTRA.DIHEDRAL.0>
10.0718

>  <SCORE.INTRA.POLAR>
0

>  <SCORE.INTRA.POLAR.0>
0

>  <SCORE.INTRA.REPUL>
0

>  <SCORE.INTRA.REPUL.0>
0

>  <SCORE.INTRA.SOLV>
-0.715108

>  <SCORE.INTRA.SOLV.lig_0>
-48.6963

>  <SCORE.INTRA.VDW>
-0.605937

>  <SCORE.INTRA.VDW.0>
-0.836976

>  <SCORE.INTRA.norm>
-0.128662

>  <SCORE.RESTR>
0

>  <SCORE.RESTR.CAVITY>
0

>  <SCORE.RESTR.norm>
0

>  <SCORE.SYSTEM>
0

>  <SCORE.SYSTEM.CONST>
0

>  <SCORE.SYSTEM.DIHEDRAL>
0

>  <SCORE.SYSTEM.SOLV>
0

>  <SCORE.SYSTEM.norm>
0

>  <SCORE.heavy>
31

>  <SCORE.norm>
-1.02899

>  <RMSD>
4.926

$$$$
ligand
 OpenBabel11021811473D
libRbt.so/2013.1/901 2013/11/27
 31 33  0  0  0  0  0  0  0  0999 V2000
   25.7045   43.1241   16.6612 P   0  0  1  0  0  0  0  0  0  0  0  0
   26.2510   42.3748   15.4648 O   0  0  0  0  0  0  0  0  0  0  0  0
   25.1166   44.4186   16.1677 O   0  5  0  0  0  0  0  0  0  0  0  0
   24.6354   42.3118   17.3387 O   0  0  0  0  0  0  0  0  0  0  0  0
   27.4816   42.2326   18.3432 C   0  0  0  0  0  0  0  0  0  0  0  0
   26.8737   43.3446   17.7323 O   0  0  0  0  0  0  0  0  0  0  0  0
   27.1123   42.2114   19.8192 C   0  0  1  0  0  0  0  0  0  0  0  0
   25.7612   41.8200   19.9405 O   0  0  0  0  0  0  0  0  0  0  0  0
   28.0185   41.2428   20.5791 C   0  0  1  0  0  0  0  0  0  0  0  0
   28.1662   41.6794   21.9133 O   0  0  0  0  0  0  0  0  0  0  0  0
   27.5489   39.7825   20.5215 C   0  0  1  0  0  0  0  0  0  0  0  0
   27.1118   39.4699   19.2176 O   0  0  0  0  0  0  0  0  0  0  0  0
   28.6370   38.8027   20.9307 C   0  0  0  0  0  0  0  0  0  0  0  0
   27.5910   39.3627   23.4950 N   0  0  0  0  0  0  0  0  0  0  0  0
   27.0471   39.6966   24.7186 C   0  0  0  0  0  0  0  0  0  0  0  0
   27.1384   40.8520   25.1427 O   0  0  0  0  0  0  0  0  0  0  0  0
   26.4095   38.7289   25.4684 N   0  0  0  0  0  0  0  0  0  0  0  0
   26.3143   37.4320   24.9997 C   0  0  0  0  0  0  0  0  0  0  0  0
   26.8551   37.0949   23.7764 C   0  0  1  0  0  0  0  0  0  0  0  0
   25.7411   36.5623   25.6535 O   0  0  0  0  0  0  0  0  0  0  0  0
   27.2826   35.4547   22.0967 C   0  0  2  0  0  0  0  0  0  0  0  0
   26.7464   35.7951   23.3217 N   0  0  0  0  0  0  0  0  0  0  0  0
   27.1761   34.1443   21.6370 C   0  0  0  0  0  0  0  0  0  0  0  0
   27.7199   33.7890   20.4066 C   0  0  1  0  0  0  0  0  0  0  0  0
   27.5866   32.3722   19.9204 C   0  0  0  0  0  0  0  0  0  0  0  0
   28.3711   34.7560   19.6323 C   0  0  1  0  0  0  0  0  0  0  0  0
   28.9548   34.4073   18.2942 C   0  0  0  0  0  0  0  0  0  0  0  0
   28.4749   36.0645   20.0949 C   0  0  0  0  0  0  0  0  0  0  0  0
   27.9344   36.4233   21.3275 C   0  0  2  0  0  0  0  0  0  0  0  0
   27.4967   38.0661   23.0164 C   0  0  2  0  0  0  0  0  0  0  0  0
   28.0459   37.7275   21.7946 N   0  0  0  0  0  0  0  0  0  0  0  0
  1  2  1  6  0  0  0
  1  3  1  0  0  0  0
  1  4  2  0  0  0  0
  1  6  1  0  0  0  0
  5  6  1  0  0  0  0
  7  5  1  6  0  0  0
  7  8  1  0  0  0  0
  7  9  1  0  0  0  0
  9 10  1  1  0  0  0
  9 11  1  0  0  0  0
 11 12  1  6  0  0  0
 11 13  1  0  0  0  0
 13 31  1  0  0  0  0
 14 15  1  0  0  0  0
 15 16  2  0  0  0  0
 15 17  1  0  0  0  0
 17 18  1  0  0  0  0
 18 20  2  0  0  0  0
 19 18  1  6  0  0  0
 19 22  1  0  0  0  0
 19 30  1  0  0  0  0
 21 23  1  1  0  0  0
 21 29  1  0  0  0  0
 21 22  1  0  0  0  0
 23 24  1  0  0  0  0
 24 25  1  6  0  0  0
 24 26  1  0  0  0  0
 26 27  1  6  0  0  0
 26 28  1  0  0  0  0
 29 28  1  1  0  0  0
 29 31  1  0  0  0  0
 30 14  1  1  0  0  0
 30 31  1  0  0  0  0
M  CHG  1   3  -1
M  END
>  <CHROM.1>
-111.99426366,-63.12994573,73.00537805,150.72796951,41.96151259,138.53607119
110.66023895,27.03929635,39.10143293,20.68391589,-2.42995710,-1.38539833
1.65186115

>  <Name>
ligand

>  <RI>
0

>  <Rbt.Current_Directory>
/home/itssahil/PROJECTS/Mol_Feturizer/New_Systems/rnas/3F2Q

>  <Rbt.Executable>
rbdock ($Id: //depot/dev/client3/rdock/2013.1/src/exe/rbdock.cxx#4 $)

>  <Rbt.Library>
libRbt.so (2013.1, Build901 2013/11/27)

>  <Rbt.Parameter_File>
/export/apps/rDock/src/rDock_2013.1_src/data/scripts/dock_solv.prm

>  <Rbt.Receptor>
prm/blind_docking_60.prm

>  <SCORE>
-26.6565

>  <SCORE.INTER>
-28.7849

>  <SCORE.INTER.CONST>
1

>  <SCORE.INTER.POLAR>
0

>  <SCORE.INTER.ROT>
7

>  <SCORE.INTER.SOLV>
16.7419

>  <SCORE.INTER.VDW>
-33.0372

>  <SCORE.INTER.norm>
-0.928545

>  <SCORE.INTRA>
2.1284

>  <SCORE.INTRA.DIHEDRAL>
6.46704

>  <SCORE.INTRA.DIHEDRAL.0>
10.0718

>  <SCORE.INTRA.POLAR>
0

>  <SCORE.INTRA.POLAR.0>
0

>  <SCORE.INTRA.REPUL>
0

>  <SCORE.INTRA.REPUL.0>
0

>  <SCORE.INTRA.SOLV>
0.989893

>  <SCORE.INTRA.SOLV.lig_0>
-48.6963

>  <SCORE.INTRA.VDW>
-1.60007

>  <SCORE.INTRA.VDW.0>
-0.836976

>  <SCORE.INTRA.norm>
0.0686581

>  <SCORE.RESTR>
0

>  <SCORE.RESTR.CAVITY>
0

>  <SCORE.RESTR.norm>
0

>  <SCORE.SYSTEM>
0

>  <SCORE.SYSTEM.CONST>
0

>  <SCORE.SYSTEM.DIHEDRAL>
0

>  <SCORE.SYSTEM.SOLV>
0

>  <SCORE.SYSTEM.norm>
0

>  <SCORE.heavy>
31

>  <SCORE.norm>
-0.859887

>  <RMSD>
4.928

$$$$
ligand
 OpenBabel11021811473D
libRbt.so/2013.1/901 2013/11/27
 31 33  0  0  0  0  0  0  0  0999 V2000
   32.1898   38.2319   18.6304 P   0  0  1  0  0  0  0  0  0  0  0  0
   31.9360   39.5346   17.9025 O   0  0  0  0  0  0  0  0  0  0  0  0
   33.6524   37.9037   18.4958 O   0  5  0  0  0  0  0  0  0  0  0  0
   31.8376   38.3729   20.0857 O   0  0  0  0  0  0  0  0  0  0  0  0
   30.9417   37.0843   16.6538 C   0  0  0  0  0  0  0  0  0  0  0  0
   31.2422   37.0908   18.0282 O   0  0  0  0  0  0  0  0  0  0  0  0
   29.7987   36.1128   16.3984 C   0  0  1  0  0  0  0  0  0  0  0  0
   30.0814   34.8993   17.0623 O   0  0  0  0  0  0  0  0  0  0  0  0
   28.4801   36.7009   16.9005 C   0  0  1  0  0  0  0  0  0  0  0  0
   27.4196   35.8241   16.5858 O   0  0  0  0  0  0  0  0  0  0  0  0
   28.4879   37.0489   18.3955 C   0  0  1  0  0  0  0  0  0  0  0  0
   29.1477   38.2786   18.5988 O   0  0  0  0  0  0  0  0  0  0  0  0
   27.0880   37.1314   18.9830 C   0  0  0  0  0  0  0  0  0  0  0  0
   27.1489   35.0459   20.8884 N   0  0  0  0  0  0  0  0  0  0  0  0
   27.2271   33.9914   21.7752 C   0  0  0  0  0  0  0  0  0  0  0  0
   27.1216   32.8309   21.3686 O   0  0  0  0  0  0  0  0  0  0  0  0
   27.4142   34.2431   23.1193 N   0  0  0  0  0  0  0  0  0  0  0  0
   27.5231   35.5423   23.5783 C   0  0  0  0  0  0  0  0  0  0  0  0
   27.4473   36.5989   22.6948 C   0  0  1  0  0  0  0  0  0  0  0  0
   27.6990   35.7803   24.7720 O   0  0  0  0  0  0  0  0  0  0  0  0
   27.4917   38.9501   22.2895 C   0  0  2  0  0  0  0  0  0  0  0  0
   27.5630   37.8906   23.1705 N   0  0  0  0  0  0  0  0  0  0  0  0
   27.6061   40.2535   22.7670 C   0  0  0  0  0  0  0  0  0  0  0  0
   27.5280   41.3291   21.8879 C   0  0  1  0  0  0  0  0  0  0  0  0
   27.6641   42.7295   22.4188 C   0  0  0  0  0  0  0  0  0  0  0  0
   27.3375   41.0942   20.5215 C   0  0  1  0  0  0  0  0  0  0  0  0
   27.2642   42.2327   19.5463 C   0  0  0  0  0  0  0  0  0  0  0  0
   27.2244   39.7903   20.0482 C   0  0  0  0  0  0  0  0  0  0  0  0
   27.2990   38.7109   20.9255 C   0  0  2  0  0  0  0  0  0  0  0  0
   27.2609   36.3509   21.3397 C   0  0  2  0  0  0  0  0  0  0  0  0
   27.1765   37.4090   20.4551 N   0  0  0  0  0  0  0  0  0  0  0  0
  1  2  1  6  0  0  0
  1  3  1  0  0  0  0
  1  4  2  0  0  0  0
  1  6  1  0  0  0  0
  5  6  1  0  0  0  0
  7  5  1  1  0  0  0
  7  8  1  0  0  0  0
  7  9  1  0  0  0  0
  9 10  1  1  0  0  0
  9 11  1  0  0  0  0
 11 12  1  6  0  0  0
 11 13  1  0  0  0  0
 13 31  1  0  0  0  0
 14 15  1  0  0  0  0
 15 16  2  0  0  0  0
 15 17  1  0  0  0  0
 17 18  1  0  0  0  0
 18 20  2  0  0  0  0
 19 18  1  6  0  0  0
 19 22  1  0  0  0  0
 19 30  1  0  0  0  0
 21 23  1  1  0  0  0
 21 29  1  0  0  0  0
 21 22  1  0  0  0  0
 23 24  1  0  0  0  0
 24 25  1  6  0  0  0
 24 26  1  0  0  0  0
 26 27  1  6  0  0  0
 26 28  1  0  0  0  0
 29 28  1  1  0  0  0
 29 31  1  0  0  0  0
 30 14  1  1  0  0  0
 30 31  1  0  0  0  0
M  CHG  1   3  -1
M  END
>  <CHROM.1>
-167.40763242,35.33357023,-47.68922809,176.55967326,79.42856105,177.30911112
85.00722606,28.79823455,37.56910990,20.05629576,-0.05645257,0.90646165,0.16969131

>  <Name>
ligand

>  <RI>
0

>  <Rbt.Current_Directory>
/home/itssahil/PROJECTS/Mol_Feturizer/New_Systems/rnas/3F2Q

>  <Rbt.Executable>
rbdock ($Id: //depot/dev/client3/rdock/2013.1/src/exe/rbdock.cxx#4 $)

>  <Rbt.Library>
libRbt.so (2013.1, Build901 2013/11/27)

>  <Rbt.Parameter_File>
/export/apps/rDock/src/rDock_2013.1_src/data/scripts/dock_solv.prm

>  <Rbt.Receptor>
prm/pocket_docking_6.prm

>  <SCORE>
-20.8187

>  <SCORE.INTER>
-18.6312

>  <SCORE.INTER.CONST>
1

>  <SCORE.INTER.POLAR>
0

>  <SCORE.INTER.ROT>
7

>  <SCORE.INTER.SOLV>
19.2482

>  <SCORE.INTER.VDW>
-27.1035

>  <SCORE.INTER.norm>
-0.601005

>  <SCORE.INTRA>
-2.26815

>  <SCORE.INTRA.DIHEDRAL>
-5.47225

>  <SCORE.INTRA.DIHEDRAL.0>
10.0718

>  <SCORE.INTRA.POLAR>
0

>  <SCORE.INTRA.POLAR.0>
0

>  <SCORE.INTRA.REPUL>
0

>  <SCORE.INTRA.REPUL.0>
0

>  <SCORE.INTRA.SOLV>
1.04855

>  <SCORE.INTRA.SOLV.lig_0>
-48.6963

>  <SCORE.INTRA.VDW>
-0.0563032

>  <SCORE.INTRA.VDW.0>
-0.836976

>  <SCORE.INTRA.norm>
-0.0731662

>  <SCORE.RESTR>
0.0806091

>  <SCORE.RESTR.CAVITY>
0.0806091

>  <SCORE.RESTR.norm>
0.00260029

>  <SCORE.SYSTEM>
0

>  <SCORE.SYSTEM.CONST>
0

>  <SCORE.SYSTEM.DIHEDRAL>
0

>  <SCORE.SYSTEM.SOLV>
0

>  <SCORE.SYSTEM.norm>
0

>  <SCORE.heavy>
31

>  <SCORE.norm>
-0.671571

>  <RMSD>
4.928

$$$$
ligand
 OpenBabel11021811473D
libRbt.so/2013.1/901 2013/11/27
 31 33  0  0  0  0  0  0  0  0999 V2000
   24.3059   41.9622   18.9945 P   0  0  1  0  0  0  0  0  0  0  0  0
   23.2681   40.8640   18.9032 O   0  0  0  0  0  0  0  0  0  0  0  0
   25.5031   41.5360   18.1882 O   0  5  0  0  0  0  0  0  0  0  0  0
   23.7545   43.2455   18.4368 O   0  0  0  0  0  0  0  0  0  0  0  0
   25.6376   41.4514   21.1733 C   0  0  0  0  0  0  0  0  0  0  0  0
   24.6608   42.2345   20.5315 O   0  0  0  0  0  0  0  0  0  0  0  0
   27.0053   41.7933   20.6008 C   0  0  1  0  0  0  0  0  0  0  0  0
   27.3600   43.0923   21.0252 O   0  0  0  0  0  0  0  0  0  0  0  0
   28.0460   40.7763   21.0693 C   0  0  1  0  0  0  0  0  0  0  0  0
   28.2662   40.9274   22.4553 O   0  0  0  0  0  0  0  0  0  0  0  0
   27.6932   39.3243   20.7181 C   0  0  1  0  0  0  0  0  0  0  0  0
   27.3590   39.2285   19.3513 O   0  0  0  0  0  0  0  0  0  0  0  0
   28.8267   38.3580   21.0229 C   0  0  0  0  0  0  0  0  0  0  0  0
   27.4110   37.8879   23.4226 N   0  0  0  0  0  0  0  0  0  0  0  0
   26.6835   37.7228   24.5836 C   0  0  0  0  0  0  0  0  0  0  0  0
   26.5869   38.6508   25.3914 O   0  0  0  0  0  0  0  0  0  0  0  0
   26.0736   36.5113   24.8398 N   0  0  0  0  0  0  0  0  0  0  0  0
   26.1885   35.4675   23.9411 C   0  0  0  0  0  0  0  0  0  0  0  0
   26.9132   35.6293   22.7786 C   0  0  1  0  0  0  0  0  0  0  0  0
   25.6427   34.3859   24.1527 O   0  0  0  0  0  0  0  0  0  0  0  0
   27.7340   34.7358   20.7237 C   0  0  2  0  0  0  0  0  0  0  0  0
   27.0133   34.5767   21.8896 N   0  0  0  0  0  0  0  0  0  0  0  0
   27.8382   33.6754   19.8268 C   0  0  0  0  0  0  0  0  0  0  0  0
   28.5688   33.8231   18.6520 C   0  0  1  0  0  0  0  0  0  0  0  0
   28.6622   32.6715   17.6894 C   0  0  0  0  0  0  0  0  0  0  0  0
   29.1953   35.0435   18.3750 C   0  0  1  0  0  0  0  0  0  0  0  0
   29.9779   35.2387   17.1093 C   0  0  0  0  0  0  0  0  0  0  0  0
   29.0883   36.1009   19.2736 C   0  0  0  0  0  0  0  0  0  0  0  0
   28.3602   35.9560   20.4522 C   0  0  2  0  0  0  0  0  0  0  0  0
   27.5279   36.8479   22.5148 C   0  0  2  0  0  0  0  0  0  0  0  0
   28.2609   37.0083   21.3546 N   0  0  0  0  0  0  0  0  0  0  0  0
  1  2  1  6  0  0  0
  1  3  1  0  0  0  0
  1  4  2  0  0  0  0
  1  6  1  0  0  0  0
  5  6  1  0  0  0  0
  7  5  1  1  0  0  0
  7  8  1  0  0  0  0
  7  9  1  0  0  0  0
  9 10  1  1  0  0  0
  9 11  1  0  0  0  0
 11 12  1  6  0  0  0
 11 13  1  0  0  0  0
 13 31  1  0  0  0  0
 14 15  1  0  0  0  0
 15 16  2  0  0  0  0
 15 17  1  0  0  0  0
 17 18  1  0  0  0  0
 18 20  2  0  0  0  0
 19 18  1  6  0  0  0
 19 22  1  0  0  0  0
 19 30  1  0  0  0  0
 21 23  1  1  0  0  0
 21 29  1  0  0  0  0
 21 22  1  0  0  0  0
 23 24  1  0  0  0  0
 24 25  1  6  0  0  0
 24 26  1  0  0  0  0
 26 27  1  6  0  0  0
 26 28  1  0  0  0  0
 29 28  1  1  0  0  0
 29 31  1  0  0  0  0
 30 14  1  1  0  0  0
 30 31  1  0  0  0  0
M  CHG  1   3  -1
M  END
>  <CHROM.1>
69.54205691,85.36517929,70.06947603,-68.63323007,50.25833105,150.64938195
106.73941228,26.89706507,38.28425753,20.85273134,-2.66700886,-1.17315242
1.95409946

>  <Name>
ligand

>  <RI>
0

>  <Rbt.Current_Directory>
/home/itssahil/PROJECTS/Mol_Feturizer/New_Systems/rnas/3F2Q

>  <Rbt.Executable>
rbdock ($Id: //depot/dev/client3/rdock/2013.1/src/exe/rbdock.cxx#4 $)

>  <Rbt.Library>
libRbt.so (2013.1, Build901 2013/11/27)

>  <Rbt.Parameter_File>
/export/apps/rDock/src/rDock_2013.1_src/data/scripts/dock_solv.prm

>  <Rbt.Receptor>
prm/pocket_docking_8.prm

>  <SCORE>
-27.8889

>  <SCORE.INTER>
-25.6419

>  <SCORE.INTER.CONST>
1

>  <SCORE.INTER.POLAR>
0

>  <SCORE.INTER.ROT>
7

>  <SCORE.INTER.SOLV>
17.5387

>  <SCORE.INTER.VDW>
-31.2075

>  <SCORE.INTER.norm>
-0.827159

>  <SCORE.INTRA>
-2.25112

>  <SCORE.INTRA.DIHEDRAL>
-3.96627

>  <SCORE.INTRA.DIHEDRAL.0>
10.0718

>  <SCORE.INTRA.POLAR>
0

>  <SCORE.INTRA.POLAR.0>
0

>  <SCORE.INTRA.REPUL>
0

>  <SCORE.INTRA.REPUL.0>
0

>  <SCORE.INTRA.SOLV>
2.16569

>  <SCORE.INTRA.SOLV.lig_0>
-48.6963

>  <SCORE.INTRA.VDW>
-1.35083

>  <SCORE.INTRA.VDW.0>
-0.836976

>  <SCORE.INTRA.norm>
-0.0726167

>  <SCORE.RESTR>
0.00412803

>  <SCORE.RESTR.CAVITY>
0.00412803

>  <SCORE.RESTR.norm>
0.000133162

>  <SCORE.SYSTEM>
0

>  <SCORE.SYSTEM.CONST>
0

>  <SCORE.SYSTEM.DIHEDRAL>
0

>  <SCORE.SYSTEM.SOLV>
0

>  <SCORE.SYSTEM.norm>
0

>  <SCORE.heavy>
31

>  <SCORE.norm>
-0.899642

>  <RMSD>
4.929

$$$$
ligand
 OpenBabel11021811473D
libRbt.so/2013.1/901 2013/11/27
 31 33  0  0  0  0  0  0  0  0999 V2000
   24.9324   43.7115   16.0667 P   0  0  1  0  0  0  0  0  0  0  0  0
   23.8273   43.6157   15.0365 O   0  0  0  0  0  0  0  0  0  0  0  0
   26.1814   44.1715   15.3642 O   0  5  0  0  0  0  0  0  0  0  0  0
   24.5619   44.7029   17.1352 O   0  0  0  0  0  0  0  0  0  0  0  0
   26.1478   42.1130   17.7248 C   0  0  0  0  0  0  0  0  0  0  0  0
   25.1147   42.2936   16.7870 O   0  0  0  0  0  0  0  0  0  0  0  0
   26.1433   40.6671   18.1987 C   0  0  1  0  0  0  0  0  0  0  0  0
   26.5012   39.8361   17.1149 O   0  0  0  0  0  0  0  0  0  0  0  0
   27.1241   40.4852   19.3570 C   0  0  1  0  0  0  0  0  0  0  0  0
   26.9444   41.5221   20.2977 O   0  0  0  0  0  0  0  0  0  0  0  0
   27.0404   39.1068   20.0273 C   0  0  1  0  0  0  0  0  0  0  0  0
   27.0583   38.0939   19.0461 O   0  0  0  0  0  0  0  0  0  0  0  0
   28.1735   38.8667   21.0121 C   0  0  0  0  0  0  0  0  0  0  0  0
   27.2860   39.5821   23.5974 N   0  0  0  0  0  0  0  0  0  0  0  0
   26.8117   39.9858   24.8289 C   0  0  0  0  0  0  0  0  0  0  0  0
   26.8284   41.1805   25.1380 O   0  0  0  0  0  0  0  0  0  0  0  0
   26.3282   39.0447   25.7154 N   0  0  0  0  0  0  0  0  0  0  0  0
   26.3174   37.7051   25.3751 C   0  0  0  0  0  0  0  0  0  0  0  0
   26.7888   37.2980   24.1444 C   0  0  1  0  0  0  0  0  0  0  0  0
   25.8810   36.8573   26.1519 O   0  0  0  0  0  0  0  0  0  0  0  0
   27.2329   35.5447   22.5877 C   0  0  2  0  0  0  0  0  0  0  0  0
   26.7659   35.9556   23.8194 N   0  0  0  0  0  0  0  0  0  0  0  0
   27.2127   34.1915   22.2586 C   0  0  0  0  0  0  0  0  0  0  0  0
   27.6883   33.7660   21.0222 C   0  0  1  0  0  0  0  0  0  0  0  0
   27.6494   32.3025   20.6787 C   0  0  0  0  0  0  0  0  0  0  0  0
   28.1835   34.7051   20.1103 C   0  0  1  0  0  0  0  0  0  0  0  0
   28.6895   34.2789   18.7630 C   0  0  0  0  0  0  0  0  0  0  0  0
   28.2013   36.0563   20.4428 C   0  0  0  0  0  0  0  0  0  0  0  0
   27.7289   36.4859   21.6807 C   0  0  2  0  0  0  0  0  0  0  0  0
   27.2751   38.2418   23.2471 C   0  0  2  0  0  0  0  0  0  0  0  0
   27.7552   37.8341   22.0173 N   0  0  0  0  0  0  0  0  0  0  0  0
  1  2  1  6  0  0  0
  1  3  1  0  0  0  0
  1  4  2  0  0  0  0
  1  6  1  0  0  0  0
  5  6  1  0  0  0  0
  7  5  1  6  0  0  0
  7  8  1  0  0  0  0
  7  9  1  0  0  0  0
  9 10  1  1  0  0  0
  9 11  1  0  0  0  0
 11 12  1  6  0  0  0
 11 13  1  0  0  0  0
 13 31  1  0  0  0  0
 14 15  1  0  0  0  0
 15 16  2  0  0  0  0
 15 17  1  0  0  0  0
 17 18  1  0  0  0  0
 18 20  2  0  0  0  0
 19 18  1  6  0  0  0
 19 22  1  0  0  0  0
 19 30  1  0  0  0  0
 21 23  1  1  0  0  0
 21 29  1  0  0  0  0
 21 22  1  0  0  0  0
 23 24  1  0  0  0  0
 24 25  1  6  0  0  0
 24 26  1  0  0  0  0
 26 27  1  6  0  0  0
 26 28  1  0  0  0  0
 29 28  1  1  0  0  0
 29 31  1  0  0  0  0
 30 14  1  1  0  0  0
 30 31  1  0  0  0  0
M  CHG  1   3  -1
M  END
>  <CHROM.1>
-177.04488504,175.79433700,66.67483874,46.61640328,48.46510145,156.36660757
76.52501821,26.66141940,39.08062835,20.47868317,2.43027799,1.30612264,-1.59374994

>  <Name>
ligand

>  <RI>
0

>  <Rbt.Current_Directory>
/home/itssahil/PROJECTS/Mol_Feturizer/New_Systems/rnas/3F2Q

>  <Rbt.Executable>
rbdock ($Id: //depot/dev/client3/rdock/2013.1/src/exe/rbdock.cxx#4 $)

>  <Rbt.Library>
libRbt.so (2013.1, Build901 2013/11/27)

>  <Rbt.Parameter_File>
/export/apps/rDock/src/rDock_2013.1_src/data/scripts/dock_solv.prm

>  <Rbt.Receptor>
prm/pocket_docking_4.prm

>  <SCORE>
-31.9832

>  <SCORE.INTER>
-28.0819

>  <SCORE.INTER.CONST>
1

>  <SCORE.INTER.POLAR>
0

>  <SCORE.INTER.ROT>
7

>  <SCORE.INTER.SOLV>
19.8382

>  <SCORE.INTER.VDW>
-33.6007

>  <SCORE.INTER.norm>
-0.905868

>  <SCORE.INTRA>
-3.90128

>  <SCORE.INTRA.DIHEDRAL>
-5.77362

>  <SCORE.INTRA.DIHEDRAL.0>
10.0718

>  <SCORE.INTRA.POLAR>
0

>  <SCORE.INTRA.POLAR.0>
0

>  <SCORE.INTRA.REPUL>
0

>  <SCORE.INTRA.REPUL.0>
0

>  <SCORE.INTRA.SOLV>
-0.699546

>  <SCORE.INTRA.SOLV.lig_0>
-48.6963

>  <SCORE.INTRA.VDW>
-0.664703

>  <SCORE.INTRA.VDW.0>
-0.836976

>  <SCORE.INTRA.norm>
-0.125848

>  <SCORE.RESTR>
0

>  <SCORE.RESTR.CAVITY>
0

>  <SCORE.RESTR.norm>
0

>  <SCORE.SYSTEM>
0

>  <SCORE.SYSTEM.CONST>
0

>  <SCORE.SYSTEM.DIHEDRAL>
0

>  <SCORE.SYSTEM.SOLV>
0

>  <SCORE.SYSTEM.norm>
0

>  <SCORE.heavy>
31

>  <SCORE.norm>
-1.03172

>  <RMSD>
4.930

$$$$
ligand
 OpenBabel11021811473D
libRbt.so/2013.1/901 2013/11/27
 31 33  0  0  0  0  0  0  0  0999 V2000
   26.6592   42.3536   16.8546 P   0  0  1  0  0  0  0  0  0  0  0  0
   25.7441   41.3568   17.5332 O   0  0  0  0  0  0  0  0  0  0  0  0
   26.2981   42.3938   15.3941 O   0  5  0  0  0  0  0  0  0  0  0  0
   26.4762   43.7199   17.4561 O   0  0  0  0  0  0  0  0  0  0  0  0
   28.6275   40.6535   16.7236 C   0  0  0  0  0  0  0  0  0  0  0  0
   28.1838   41.9335   17.1032 O   0  0  0  0  0  0  0  0  0  0  0  0
   28.1715   39.6398   17.7627 C   0  0  1  0  0  0  0  0  0  0  0  0
   28.5461   38.3496   17.3288 O   0  0  0  0  0  0  0  0  0  0  0  0
   28.8026   39.9504   19.1199 C   0  0  1  0  0  0  0  0  0  0  0  0
   28.2168   41.1157   19.6597 O   0  0  0  0  0  0  0  0  0  0  0  0
   28.7354   38.7831   20.1146 C   0  0  1  0  0  0  0  0  0  0  0  0
   29.4850   39.0920   21.2685 O   0  0  0  0  0  0  0  0  0  0  0  0
   27.3103   38.4446   20.5218 C   0  0  0  0  0  0  0  0  0  0  0  0
   27.0044   39.4918   23.1282 N   0  0  0  0  0  0  0  0  0  0  0  0
   26.7996   40.0460   24.3754 C   0  0  0  0  0  0  0  0  0  0  0  0
   26.7032   41.2700   24.5011 O   0  0  0  0  0  0  0  0  0  0  0  0
   26.7132   39.2243   25.4810 N   0  0  0  0  0  0  0  0  0  0  0  0
   26.8304   37.8539   25.3438 C   0  0  0  0  0  0  0  0  0  0  0  0
   27.0333   37.2961   24.0988 C   0  0  1  0  0  0  0  0  0  0  0  0
   26.7463   37.1098   26.3193 O   0  0  0  0  0  0  0  0  0  0  0  0
   27.3423   35.3620   22.7355 C   0  0  2  0  0  0  0  0  0  0  0  0
   27.1434   35.9243   23.9798 N   0  0  0  0  0  0  0  0  0  0  0  0
   27.4557   33.9792   22.6133 C   0  0  0  0  0  0  0  0  0  0  0  0
   27.6640   33.4029   21.3642 C   0  0  1  0  0  0  0  0  0  0  0  0
   27.7734   31.9075   21.2486 C   0  0  0  0  0  0  0  0  0  0  0  0
   27.7555   34.2196   20.2314 C   0  0  1  0  0  0  0  0  0  0  0  0
   27.9648   33.6269   18.8685 C   0  0  0  0  0  0  0  0  0  0  0  0
   27.6411   35.6009   20.3576 C   0  0  0  0  0  0  0  0  0  0  0  0
   27.4355   36.1818   21.6068 C   0  0  2  0  0  0  0  0  0  0  0  0
   27.1192   38.1190   22.9816 C   0  0  2  0  0  0  0  0  0  0  0  0
   27.3307   37.5617   21.7351 N   0  0  0  0  0  0  0  0  0  0  0  0
  1  2  1  1  0  0  0
  1  3  1  0  0  0  0
  1  4  2  0  0  0  0
  1  6  1  0  0  0  0
  5  6  1  0  0  0  0
  7  5  1  6  0  0  0
  7  8  1  0  0  0  0
  7  9  1  0  0  0  0
  9 10  1  1  0  0  0
  9 11  1  0  0  0  0
 11 12  1  1  0  0  0
 11 13  1  0  0  0  0
 13 31  1  0  0  0  0
 14 15  1  0  0  0  0
 15 16  2  0  0  0  0
 15 17  1  0  0  0  0
 17 18  1  0  0  0  0
 18 20  2  0  0  0  0
 19 18  1  6  0  0  0
 19 22  1  0  0  0  0
 19 30  1  0  0  0  0
 21 23  1  1  0  0  0
 21 29  1  0  0  0  0
 21 22  1  0  0  0  0
 23 24  1  0  0  0  0
 24 25  1  6  0  0  0
 24 26  1  0  0  0  0
 26 27  1  6  0  0  0
 26 28  1  0  0  0  0
 29 28  1  1  0  0  0
 29 31  1  0  0  0  0
 30 14  1  1  0  0  0
 30 31  1  0  0  0  0
M  CHG  1   3  -1
M  END
>  <CHROM.1>
-78.22079490,56.35067775,176.23695291,71.44576038,172.51690804,-165.43936073
-86.80195006,27.44190646,38.56819956,20.62693366,1.63919614,1.40872860,-0.85561278

>  <Name>
ligand

>  <RI>
0

>  <Rbt.Current_Directory>
/home/itssahil/PROJECTS/Mol_Feturizer/New_Systems/rnas/3F2Q

>  <Rbt.Executable>
rbdock ($Id: //depot/dev/client3/rdock/2013.1/src/exe/rbdock.cxx#4 $)

>  <Rbt.Library>
libRbt.so (2013.1, Build901 2013/11/27)

>  <Rbt.Parameter_File>
/export/apps/rDock/src/rDock_2013.1_src/data/scripts/dock_solv.prm

>  <Rbt.Receptor>
prm/pocket_docking_3.prm

>  <SCORE>
-28.7963

>  <SCORE.INTER>
-24.4143

>  <SCORE.INTER.CONST>
1

>  <SCORE.INTER.POLAR>
0

>  <SCORE.INTER.ROT>
7

>  <SCORE.INTER.SOLV>
19.0511

>  <SCORE.INTER.VDW>
-30.8932

>  <SCORE.INTER.norm>
-0.787558

>  <SCORE.INTRA>
-4.39096

>  <SCORE.INTRA.DIHEDRAL>
-5.55667

>  <SCORE.INTRA.DIHEDRAL.0>
10.0718

>  <SCORE.INTRA.POLAR>
0

>  <SCORE.INTRA.POLAR.0>
0

>  <SCORE.INTRA.REPUL>
0

>  <SCORE.INTRA.REPUL.0>
0

>  <SCORE.INTRA.SOLV>
0.271255

>  <SCORE.INTRA.SOLV.lig_0>
-48.6963

>  <SCORE.INTRA.VDW>
-1.74825

>  <SCORE.INTRA.VDW.0>
-0.836976

>  <SCORE.INTRA.norm>
-0.141644

>  <SCORE.RESTR>
0.00900302

>  <SCORE.RESTR.CAVITY>
0.00900302

>  <SCORE.RESTR.norm>
0.00029042

>  <SCORE.SYSTEM>
0

>  <SCORE.SYSTEM.CONST>
0

>  <SCORE.SYSTEM.DIHEDRAL>
0

>  <SCORE.SYSTEM.SOLV>
0

>  <SCORE.SYSTEM.norm>
0

>  <SCORE.heavy>
31

>  <SCORE.norm>
-0.928911

>  <RMSD>
4.939

$$$$
ligand
 OpenBabel11021811473D
libRbt.so/2013.1/901 2013/11/27
 31 33  0  0  0  0  0  0  0  0999 V2000
   28.0953   35.1118   14.5542 P   0  0  1  0  0  0  0  0  0  0  0  0
   27.0991   36.0374   13.8890 O   0  0  0  0  0  0  0  0  0  0  0  0
   27.4581   33.7534   14.6716 O   0  5  0  0  0  0  0  0  0  0  0  0
   29.3454   35.0112   13.7241 O   0  0  0  0  0  0  0  0  0  0  0  0
   29.2127   36.9436   16.0298 C   0  0  0  0  0  0  0  0  0  0  0  0
   28.5231   35.7187   15.9724 O   0  0  0  0  0  0  0  0  0  0  0  0
   29.2574   37.4230   17.4732 C   0  0  1  0  0  0  0  0  0  0  0  0
   30.0984   38.5546   17.5468 O   0  0  0  0  0  0  0  0  0  0  0  0
   27.8509   37.7710   17.9606 C   0  0  1  0  0  0  0  0  0  0  0  0
   27.0743   36.5953   18.0460 O   0  0  0  0  0  0  0  0  0  0  0  0
   27.8300   38.5477   19.2845 C   0  0  1  0  0  0  0  0  0  0  0  0
   26.4976   38.7675   19.6911 O   0  0  0  0  0  0  0  0  0  0  0  0
   28.5779   37.8281   20.3955 C   0  0  0  0  0  0  0  0  0  0  0  0
   27.4943   35.5708   21.7046 N   0  0  0  0  0  0  0  0  0  0  0  0
   27.0292   34.4325   22.3311 C   0  0  0  0  0  0  0  0  0  0  0  0
   27.1535   33.3314   21.7875 O   0  0  0  0  0  0  0  0  0  0  0  0
   26.4163   34.5344   23.5636 N   0  0  0  0  0  0  0  0  0  0  0  0
   26.2674   35.7675   24.1699 C   0  0  0  0  0  0  0  0  0  0  0  0
   26.7326   36.9073   23.5478 C   0  0  1  0  0  0  0  0  0  0  0  0
   25.7313   35.8714   25.2719 O   0  0  0  0  0  0  0  0  0  0  0  0
   27.0471   39.2728   23.5534 C   0  0  2  0  0  0  0  0  0  0  0  0
   26.5795   38.1307   24.1707 N   0  0  0  0  0  0  0  0  0  0  0  0
   26.8921   40.5078   24.1786 C   0  0  0  0  0  0  0  0  0  0  0  0
   27.3533   41.6662   23.5612 C   0  0  1  0  0  0  0  0  0  0  0  0
   27.1874   42.9901   24.2549 C   0  0  0  0  0  0  0  0  0  0  0  0
   27.9766   41.5834   22.3109 C   0  0  1  0  0  0  0  0  0  0  0  0
   28.4980   42.8131   21.6264 C   0  0  0  0  0  0  0  0  0  0  0  0
   28.1301   40.3474   21.6899 C   0  0  0  0  0  0  0  0  0  0  0  0
   27.6671   39.1858   22.3033 C   0  0  2  0  0  0  0  0  0  0  0  0
   27.3524   36.8101   22.3073 C   0  0  2  0  0  0  0  0  0  0  0  0
   27.8113   37.9522   21.6795 N   0  0  0  0  0  0  0  0  0  0  0  0
  1  2  1  6  0  0  0
  1  3  1  0  0  0  0
  1  4  2  0  0  0  0
  1  6  1  0  0  0  0
  5  6  1  0  0  0  0
  7  5  1  6  0  0  0
  7  8  1  0  0  0  0
  7  9  1  0  0  0  0
  9 10  1  1  0  0  0
  9 11  1  0  0  0  0
 11 12  1  1  0  0  0
 11 13  1  0  0  0  0
 13 31  1  0  0  0  0
 14 15  1  0  0  0  0
 15 16  2  0  0  0  0
 15 17  1  0  0  0  0
 17 18  1  0  0  0  0
 18 20  2  0  0  0  0
 19 18  1  1  0  0  0
 19 22  1  0  0  0  0
 19 30  1  0  0  0  0
 21 23  1  6  0  0  0
 21 29  1  0  0  0  0
 21 22  1  0  0  0  0
 23 24  1  0  0  0  0
 24 25  1  1  0  0  0
 24 26  1  0  0  0  0
 26 27  1  1  0  0  0
 26 28  1  0  0  0  0
 29 28  1  6  0  0  0
 29 31  1  0  0  0  0
 30 14  1  6  0  0  0
 30 31  1  0  0  0  0
M  CHG  1   3  -1
M  END
>  <CHROM.1>
169.05657884,-64.07638327,172.34471323,67.52023982,-177.10827761,-139.16230600
-67.19007343,27.65365215,37.42008474,20.01327657,1.09318329,-1.28685926,-2.44599384

>  <Name>
ligand

>  <RI>
0

>  <Rbt.Current_Directory>
/home/itssahil/PROJECTS/Mol_Feturizer/New_Systems/rnas/3F2Q

>  <Rbt.Executable>
rbdock ($Id: //depot/dev/client3/rdock/2013.1/src/exe/rbdock.cxx#4 $)

>  <Rbt.Library>
libRbt.so (2013.1, Build901 2013/11/27)

>  <Rbt.Parameter_File>
/export/apps/rDock/src/rDock_2013.1_src/data/scripts/dock_solv.prm

>  <Rbt.Receptor>
prm/blind_docking_100.prm

>  <SCORE>
-26.7046

>  <SCORE.INTER>
-24.0485

>  <SCORE.INTER.CONST>
1

>  <SCORE.INTER.POLAR>
0

>  <SCORE.INTER.ROT>
7

>  <SCORE.INTER.SOLV>
10.3841

>  <SCORE.INTER.VDW>
-27.7604

>  <SCORE.INTER.norm>
-0.77576

>  <SCORE.INTRA>
-2.6561

>  <SCORE.INTRA.DIHEDRAL>
-3.61752

>  <SCORE.INTRA.DIHEDRAL.0>
10.0718

>  <SCORE.INTRA.POLAR>
0

>  <SCORE.INTRA.POLAR.0>
0

>  <SCORE.INTRA.REPUL>
0

>  <SCORE.INTRA.REPUL.0>
0

>  <SCORE.INTRA.SOLV>
-0.832977

>  <SCORE.INTRA.SOLV.lig_0>
-48.6963

>  <SCORE.INTRA.VDW>
-0.43085

>  <SCORE.INTRA.VDW.0>
-0.836976

>  <SCORE.INTRA.norm>
-0.0856806

>  <SCORE.RESTR>
0

>  <SCORE.RESTR.CAVITY>
0

>  <SCORE.RESTR.norm>
0

>  <SCORE.SYSTEM>
0

>  <SCORE.SYSTEM.CONST>
0

>  <SCORE.SYSTEM.DIHEDRAL>
0

>  <SCORE.SYSTEM.SOLV>
0

>  <SCORE.SYSTEM.norm>
0

>  <SCORE.heavy>
31

>  <SCORE.norm>
-0.86144

>  <RMSD>
4.943

$$$$
ligand
 OpenBabel11021811473D
libRbt.so/2013.1/901 2013/11/27
 31 33  0  0  0  0  0  0  0  0999 V2000
   25.3943   43.9118   16.0253 P   0  0  1  0  0  0  0  0  0  0  0  0
   25.5459   45.0631   16.9963 O   0  0  0  0  0  0  0  0  0  0  0  0
   24.1193   44.1218   15.2537 O   0  5  0  0  0  0  0  0  0  0  0  0
   26.5586   43.8780   15.0738 O   0  0  0  0  0  0  0  0  0  0  0  0
   26.4908   42.2226   17.6764 C   0  0  0  0  0  0  0  0  0  0  0  0
   25.4085   42.5287   16.8312 O   0  0  0  0  0  0  0  0  0  0  0  0
   26.3075   40.8177   18.2315 C   0  0  1  0  0  0  0  0  0  0  0  0
   26.4982   39.8905   17.1840 O   0  0  0  0  0  0  0  0  0  0  0  0
   27.3046   40.5591   19.3609 C   0  0  1  0  0  0  0  0  0  0  0  0
   27.2888   41.6432   20.2648 O   0  0  0  0  0  0  0  0  0  0  0  0
   27.0822   39.2260   20.0888 C   0  0  1  0  0  0  0  0  0  0  0  0
   26.9401   38.1840   19.1492 O   0  0  0  0  0  0  0  0  0  0  0  0
   28.2158   38.8856   21.0430 C   0  0  0  0  0  0  0  0  0  0  0  0
   27.2657   39.5650   23.6157 N   0  0  0  0  0  0  0  0  0  0  0  0
   26.7625   39.9522   24.8410 C   0  0  0  0  0  0  0  0  0  0  0  0
   26.7860   41.1407   25.1729 O   0  0  0  0  0  0  0  0  0  0  0  0
   26.2423   39.0015   25.6958 N   0  0  0  0  0  0  0  0  0  0  0  0
   26.2236   37.6687   25.3302 C   0  0  0  0  0  0  0  0  0  0  0  0
   26.7239   37.2781   24.1056 C   0  0  1  0  0  0  0  0  0  0  0  0
   25.7548   36.8127   26.0785 O   0  0  0  0  0  0  0  0  0  0  0  0
   27.1887   35.5480   22.5291 C   0  0  2  0  0  0  0  0  0  0  0  0
   26.6928   35.9423   23.7549 N   0  0  0  0  0  0  0  0  0  0  0  0
   27.1603   34.2015   22.1740 C   0  0  0  0  0  0  0  0  0  0  0  0
   27.6646   33.7926   20.9435 C   0  0  1  0  0  0  0  0  0  0  0  0
   27.6164   32.3363   20.5715 C   0  0  0  0  0  0  0  0  0  0  0  0
   28.1972   34.7416   20.0635 C   0  0  1  0  0  0  0  0  0  0  0  0
   28.7351   34.3337   18.7230 C   0  0  0  0  0  0  0  0  0  0  0  0
   28.2232   36.0862   20.4218 C   0  0  0  0  0  0  0  0  0  0  0  0
   27.7220   36.4991   21.6540 C   0  0  2  0  0  0  0  0  0  0  0  0
   27.2473   38.2317   23.2400 C   0  0  2  0  0  0  0  0  0  0  0  0
   27.7563   37.8403   22.0166 N   0  0  0  0  0  0  0  0  0  0  0  0
  1  2  1  1  0  0  0
  1  3  1  0  0  0  0
  1  4  2  0  0  0  0
  1  6  1  0  0  0  0
  5  6  1  0  0  0  0
  7  5  1  6  0  0  0
  7  8  1  0  0  0  0
  7  9  1  0  0  0  0
  9 10  1  1  0  0  0
  9 11  1  0  0  0  0
 11 12  1  6  0  0  0
 11 13  1  0  0  0  0
 13 31  1  0  0  0  0
 14 15  1  0  0  0  0
 15 16  2  0  0  0  0
 15 17  1  0  0  0  0
 17 18  1  0  0  0  0
 18 20  2  0  0  0  0
 19 18  1  6  0  0  0
 19 22  1  0  0  0  0
 19 30  1  0  0  0  0
 21 23  1  1  0  0  0
 21 29  1  0  0  0  0
 21 22  1  0  0  0  0
 23 24  1  0  0  0  0
 24 25  1  6  0  0  0
 24 26  1  0  0  0  0
 26 27  1  6  0  0  0
 26 28  1  0  0  0  0
 29 28  1  1  0  0  0
 29 31  1  0  0  0  0
 30 14  1  1  0  0  0
 30 31  1  0  0  0  0
M  CHG  1   3  -1
M  END
>  <CHROM.1>
-175.69302734,-55.56027398,70.18992273,48.03019295,48.51776011,162.19817455
80.26324427,26.77413998,39.14515471,20.45813162,2.27106189,1.33760954,-1.42553389

>  <Name>
ligand

>  <RI>
0

>  <Rbt.Current_Directory>
/home/itssahil/PROJECTS/Mol_Feturizer/New_Systems/rnas/3F2Q

>  <Rbt.Executable>
rbdock ($Id: //depot/dev/client3/rdock/2013.1/src/exe/rbdock.cxx#4 $)

>  <Rbt.Library>
libRbt.so (2013.1, Build901 2013/11/27)

>  <Rbt.Parameter_File>
/export/apps/rDock/src/rDock_2013.1_src/data/scripts/dock_solv.prm

>  <Rbt.Receptor>
prm/pocket_docking_4.prm

>  <SCORE>
-32.8393

>  <SCORE.INTER>
-28.3152

>  <SCORE.INTER.CONST>
1

>  <SCORE.INTER.POLAR>
0

>  <SCORE.INTER.ROT>
7

>  <SCORE.INTER.SOLV>
21.5289

>  <SCORE.INTER.VDW>
-34.3198

>  <SCORE.INTER.norm>
-0.913393

>  <SCORE.INTRA>
-4.52413

>  <SCORE.INTRA.DIHEDRAL>
-6.37051

>  <SCORE.INTRA.DIHEDRAL.0>
10.0718

>  <SCORE.INTRA.POLAR>
0

>  <SCORE.INTRA.POLAR.0>
0

>  <SCORE.INTRA.REPUL>
0

>  <SCORE.INTRA.REPUL.0>
0

>  <SCORE.INTRA.SOLV>
-1.21916

>  <SCORE.INTRA.SOLV.lig_0>
-48.6963

>  <SCORE.INTRA.VDW>
-0.729296

>  <SCORE.INTRA.VDW.0>
-0.836976

>  <SCORE.INTRA.norm>
-0.14594

>  <SCORE.RESTR>
0

>  <SCORE.RESTR.CAVITY>
0

>  <SCORE.RESTR.norm>
0

>  <SCORE.SYSTEM>
0

>  <SCORE.SYSTEM.CONST>
0

>  <SCORE.SYSTEM.DIHEDRAL>
0

>  <SCORE.SYSTEM.SOLV>
0

>  <SCORE.SYSTEM.norm>
0

>  <SCORE.heavy>
31

>  <SCORE.norm>
-1.05933

>  <RMSD>
4.947

$$$$
ligand
 OpenBabel11021811473D
libRbt.so/2013.1/901 2013/11/27
 31 33  0  0  0  0  0  0  0  0999 V2000
   25.7630   41.8446   18.5013 P   0  0  1  0  0  0  0  0  0  0  0  0
   25.9381   42.0899   19.9848 O   0  0  0  0  0  0  0  0  0  0  0  0
   24.3336   41.4372   18.2650 O   0  5  0  0  0  0  0  0  0  0  0  0
   26.0631   43.0993   17.7283 O   0  0  0  0  0  0  0  0  0  0  0  0
   28.1683   40.8561   18.3637 C   0  0  0  0  0  0  0  0  0  0  0  0
   26.8103   40.7351   18.0168 O   0  0  0  0  0  0  0  0  0  0  0  0
   28.9771   39.8382   17.5730 C   0  0  1  0  0  0  0  0  0  0  0  0
   30.3490   40.0615   17.8209 O   0  0  0  0  0  0  0  0  0  0  0  0
   28.5858   38.4177   17.9801 C   0  0  1  0  0  0  0  0  0  0  0  0
   29.3041   37.4860   17.2000 O   0  0  0  0  0  0  0  0  0  0  0  0
   28.7562   38.1351   19.4792 C   0  0  1  0  0  0  0  0  0  0  0  0
   29.8247   38.8986   19.9932 O   0  0  0  0  0  0  0  0  0  0  0  0
   27.4980   38.4380   20.2771 C   0  0  0  0  0  0  0  0  0  0  0  0
   27.2754   39.6366   22.8261 N   0  0  0  0  0  0  0  0  0  0  0  0
   27.1130   40.2659   24.0435 C   0  0  0  0  0  0  0  0  0  0  0  0
   27.0758   41.4981   24.1039 O   0  0  0  0  0  0  0  0  0  0  0  0
   27.0023   39.5096   25.1928 N   0  0  0  0  0  0  0  0  0  0  0  0
   27.0532   38.1298   25.1287 C   0  0  0  0  0  0  0  0  0  0  0  0
   27.2136   37.4971   23.9136 C   0  0  1  0  0  0  0  0  0  0  0  0
   26.9468   37.4438   26.1438 O   0  0  0  0  0  0  0  0  0  0  0  0
   27.4138   35.4803   22.6538 C   0  0  2  0  0  0  0  0  0  0  0  0
   27.2576   36.1172   23.8678 N   0  0  0  0  0  0  0  0  0  0  0  0
   27.4605   34.0892   22.6053 C   0  0  0  0  0  0  0  0  0  0  0  0
   27.6254   33.4376   21.3871 C   0  0  1  0  0  0  0  0  0  0  0  0
   27.6629   31.9347   21.3514 C   0  0  0  0  0  0  0  0  0  0  0  0
   27.7405   34.1872   20.2109 C   0  0  1  0  0  0  0  0  0  0  0  0
   27.9041   33.5131   18.8799 C   0  0  0  0  0  0  0  0  0  0  0  0
   27.6927   35.5771   20.2635 C   0  0  0  0  0  0  0  0  0  0  0  0
   27.5308   36.2332   21.4815 C   0  0  2  0  0  0  0  0  0  0  0  0
   27.3237   38.2540   22.7528 C   0  0  2  0  0  0  0  0  0  0  0  0
   27.4926   37.6214   21.5361 N   0  0  0  0  0  0  0  0  0  0  0  0
  1  2  1  1  0  0  0
  1  3  1  0  0  0  0
  1  4  2  0  0  0  0
  1  6  1  0  0  0  0
  5  6  1  0  0  0  0
  7  5  1  1  0  0  0
  7  8  1  0  0  0  0
  7  9  1  0  0  0  0
  9 10  1  6  0  0  0
  9 11  1  0  0  0  0
 11 12  1  1  0  0  0
 11 13  1  0  0  0  0
 13 31  1  0  0  0  0
 14 15  1  0  0  0  0
 15 16  2  0  0  0  0
 15 17  1  0  0  0  0
 17 18  1  0  0  0  0
 18 20  2  0  0  0  0
 19 18  1  6  0  0  0
 19 22  1  0  0  0  0
 19 30  1  0  0  0  0
 21 23  1  1  0  0  0
 21 29  1  0  0  0  0
 21 22  1  0  0  0  0
 23 24  1  0  0  0  0
 24 25  1  6  0  0  0
 24 26  1  0  0  0  0
 26 27  1  6  0  0  0
 26 28  1  0  0  0  0
 29 28  1  1  0  0  0
 29 31  1  0  0  0  0
 30 14  1  1  0  0  0
 30 31  1  0  0  0  0
M  CHG  1   3  -1
M  END
>  <CHROM.1>
-169.41709525,-49.34476197,173.87664257,177.60804156,-31.08139435,155.31639481
-59.32924075,27.44758297,38.40104051,20.76511303,1.90027372,1.29770102,-0.91206978

>  <Name>
ligand

>  <RI>
0

>  <Rbt.Current_Directory>
/home/itssahil/PROJECTS/Mol_Feturizer/New_Systems/rnas/3F2Q

>  <Rbt.Executable>
rbdock ($Id: //depot/dev/client3/rdock/2013.1/src/exe/rbdock.cxx#4 $)

>  <Rbt.Library>
libRbt.so (2013.1, Build901 2013/11/27)

>  <Rbt.Parameter_File>
/export/apps/rDock/src/rDock_2013.1_src/data/scripts/dock_solv.prm

>  <Rbt.Receptor>
prm/pocket_docking_3.prm

>  <SCORE>
-25.3132

>  <SCORE.INTER>
-23.207

>  <SCORE.INTER.CONST>
1

>  <SCORE.INTER.POLAR>
0

>  <SCORE.INTER.ROT>
7

>  <SCORE.INTER.SOLV>
14.4925

>  <SCORE.INTER.VDW>
-28.5688

>  <SCORE.INTER.norm>
-0.748613

>  <SCORE.INTRA>
-2.10617

>  <SCORE.INTRA.DIHEDRAL>
-3.52867

>  <SCORE.INTRA.DIHEDRAL.0>
10.0718

>  <SCORE.INTRA.POLAR>
0

>  <SCORE.INTRA.POLAR.0>
0

>  <SCORE.INTRA.REPUL>
0

>  <SCORE.INTRA.REPUL.0>
0

>  <SCORE.INTRA.SOLV>
-0.866443

>  <SCORE.INTRA.SOLV.lig_0>
-48.6963

>  <SCORE.INTRA.VDW>
0.0913843

>  <SCORE.INTRA.VDW.0>
-0.836976

>  <SCORE.INTRA.norm>
-0.0679411

>  <SCORE.RESTR>
0

>  <SCORE.RESTR.CAVITY>
0

>  <SCORE.RESTR.norm>
0

>  <SCORE.SYSTEM>
0

>  <SCORE.SYSTEM.CONST>
0

>  <SCORE.SYSTEM.DIHEDRAL>
0

>  <SCORE.SYSTEM.SOLV>
0

>  <SCORE.SYSTEM.norm>
0

>  <SCORE.heavy>
31

>  <SCORE.norm>
-0.816554

>  <RMSD>
4.950

$$$$
ligand
 OpenBabel11021811473D
libRbt.so/2013.1/901 2013/11/27
 31 33  0  0  0  0  0  0  0  0999 V2000
   23.9065   34.7682   18.1760 P   0  0  1  0  0  0  0  0  0  0  0  0
   23.6411   33.6431   19.1533 O   0  0  0  0  0  0  0  0  0  0  0  0
   23.4029   34.3364   16.8250 O   0  5  0  0  0  0  0  0  0  0  0  0
   23.1825   36.0135   18.6084 O   0  0  0  0  0  0  0  0  0  0  0  0
   25.9542   36.1528   17.3564 C   0  0  0  0  0  0  0  0  0  0  0  0
   25.4696   35.1136   18.1716 O   0  0  0  0  0  0  0  0  0  0  0  0
   27.4739   36.0868   17.3159 C   0  0  1  0  0  0  0  0  0  0  0  0
   27.9419   37.0393   16.3847 O   0  0  0  0  0  0  0  0  0  0  0  0
   28.0544   36.3661   18.7021 C   0  0  1  0  0  0  0  0  0  0  0  0
   29.3129   35.7386   18.8243 O   0  0  0  0  0  0  0  0  0  0  0  0
   28.1427   37.8595   19.0460 C   0  0  1  0  0  0  0  0  0  0  0  0
   26.8487   38.3838   19.2446 O   0  0  0  0  0  0  0  0  0  0  0  0
   28.9834   38.1246   20.2847 C   0  0  0  0  0  0  0  0  0  0  0  0
   28.0219   35.6687   21.2985 N   0  0  0  0  0  0  0  0  0  0  0  0
   27.6205   34.4406   21.7831 C   0  0  0  0  0  0  0  0  0  0  0  0
   27.8892   33.4103   21.1590 O   0  0  0  0  0  0  0  0  0  0  0  0
   26.9088   34.3728   22.9638 N   0  0  0  0  0  0  0  0  0  0  0  0
   26.5984   35.5261   23.6596 C   0  0  0  0  0  0  0  0  0  0  0  0
   26.9995   36.7553   23.1794 C   0  0  1  0  0  0  0  0  0  0  0  0
   25.9728   35.4792   24.7174 O   0  0  0  0  0  0  0  0  0  0  0  0
   27.0875   39.1283   23.4155 C   0  0  2  0  0  0  0  0  0  0  0  0
   26.6846   37.8970   23.8904 N   0  0  0  0  0  0  0  0  0  0  0  0
   26.7694   40.2811   24.1295 C   0  0  0  0  0  0  0  0  0  0  0  0
   27.1645   41.5280   23.6553 C   0  0  1  0  0  0  0  0  0  0  0  0
   26.8220   42.7617   24.4441 C   0  0  0  0  0  0  0  0  0  0  0  0
   27.8859   41.6173   22.4594 C   0  0  1  0  0  0  0  0  0  0  0  0
   28.3391   42.9465   21.9298 C   0  0  0  0  0  0  0  0  0  0  0  0
   28.2024   40.4630   21.7492 C   0  0  0  0  0  0  0  0  0  0  0  0
   27.8061   39.2131   22.2191 C   0  0  2  0  0  0  0  0  0  0  0  0
   27.7182   36.8291   21.9917 C   0  0  2  0  0  0  0  0  0  0  0  0
   28.1133   38.0607   21.5056 N   0  0  0  0  0  0  0  0  0  0  0  0
  1  2  1  1  0  0  0
  1  3  1  0  0  0  0
  1  4  2  0  0  0  0
  1  6  1  0  0  0  0
  5  6  1  0  0  0  0
  7  5  1  1  0  0  0
  7  8  1  0  0  0  0
  7  9  1  0  0  0  0
  9 10  1  6  0  0  0
  9 11  1  0  0  0  0
 11 12  1  1  0  0  0
 11 13  1  0  0  0  0
 13 31  1  0  0  0  0
 14 15  1  0  0  0  0
 15 16  2  0  0  0  0
 15 17  1  0  0  0  0
 17 18  1  0  0  0  0
 18 20  2  0  0  0  0
 19 18  1  1  0  0  0
 19 22  1  0  0  0  0
 19 30  1  0  0  0  0
 21 23  1  6  0  0  0
 21 29  1  0  0  0  0
 21 22  1  0  0  0  0
 23 24  1  0  0  0  0
 24 25  1  1  0  0  0
 24 26  1  0  0  0  0
 26 27  1  1  0  0  0
 26 28  1  0  0  0  0
 29 28  1  6  0  0  0
 29 31  1  0  0  0  0
 30 14  1  6  0  0  0
 30 31  1  0  0  0  0
M  CHG  1   3  -1
M  END
>  <CHROM.1>
-168.41919397,-178.64200692,173.75956838,153.54108295,70.31321027,-88.60761099
-109.44325029,26.75603645,37.09345288,20.68234846,-2.58928684,1.21663398
1.71175005

>  <Name>
ligand

>  <RI>
0

>  <Rbt.Current_Directory>
/home/itssahil/PROJECTS/Mol_Feturizer/New_Systems/rnas/3F2Q

>  <Rbt.Executable>
rbdock ($Id: //depot/dev/client3/rdock/2013.1/src/exe/rbdock.cxx#4 $)

>  <Rbt.Library>
libRbt.so (2013.1, Build901 2013/11/27)

>  <Rbt.Parameter_File>
/export/apps/rDock/src/rDock_2013.1_src/data/scripts/dock_solv.prm

>  <Rbt.Receptor>
prm/pocket_docking_5.prm

>  <SCORE>
-27.8225

>  <SCORE.INTER>
-24.9461

>  <SCORE.INTER.CONST>
1

>  <SCORE.INTER.POLAR>
0

>  <SCORE.INTER.ROT>
7

>  <SCORE.INTER.SOLV>
15.5614

>  <SCORE.INTER.VDW>
-30.0845

>  <SCORE.INTER.norm>
-0.804712

>  <SCORE.INTRA>
-2.87645

>  <SCORE.INTRA.DIHEDRAL>
-2.8937

>  <SCORE.INTRA.DIHEDRAL.0>
10.0718

>  <SCORE.INTRA.POLAR>
0

>  <SCORE.INTRA.POLAR.0>
0

>  <SCORE.INTRA.REPUL>
0

>  <SCORE.INTRA.REPUL.0>
0

>  <SCORE.INTRA.SOLV>
-0.125611

>  <SCORE.INTRA.SOLV.lig_0>
-48.6963

>  <SCORE.INTRA.VDW>
-1.3668

>  <SCORE.INTRA.VDW.0>
-0.836976

>  <SCORE.INTRA.norm>
-0.0927888

>  <SCORE.RESTR>
0

>  <SCORE.RESTR.CAVITY>
0

>  <SCORE.RESTR.norm>
0

>  <SCORE.SYSTEM>
0

>  <SCORE.SYSTEM.CONST>
0

>  <SCORE.SYSTEM.DIHEDRAL>
0

>  <SCORE.SYSTEM.SOLV>
0

>  <SCORE.SYSTEM.norm>
0

>  <SCORE.heavy>
31

>  <SCORE.norm>
-0.897501

>  <RMSD>
4.958

$$$$
ligand
 OpenBabel11021811473D
libRbt.so/2013.1/901 2013/11/27
 31 33  0  0  0  0  0  0  0  0999 V2000
   26.6801   34.8670   14.6028 P   0  0  1  0  0  0  0  0  0  0  0  0
   26.8693   36.1589   13.8367 O   0  0  0  0  0  0  0  0  0  0  0  0
   25.9092   33.9175   13.7258 O   0  5  0  0  0  0  0  0  0  0  0  0
   28.0155   34.2653   14.9442 O   0  0  0  0  0  0  0  0  0  0  0  0
   26.6872   35.5476   17.1164 C   0  0  0  0  0  0  0  0  0  0  0  0
   25.9367   35.1717   15.9874 O   0  0  0  0  0  0  0  0  0  0  0  0
   27.3752   36.8759   16.8377 C   0  0  1  0  0  0  0  0  0  0  0  0
   26.3884   37.8784   16.7172 O   0  0  0  0  0  0  0  0  0  0  0  0
   28.3473   37.2173   17.9669 C   0  0  1  0  0  0  0  0  0  0  0  0
   29.2896   38.1643   17.5111 O   0  0  0  0  0  0  0  0  0  0  0  0
   27.6581   37.6943   19.2529 C   0  0  1  0  0  0  0  0  0  0  0  0
   26.6251   36.8007   19.6038 O   0  0  0  0  0  0  0  0  0  0  0  0
   28.6241   37.8224   20.4199 C   0  0  0  0  0  0  0  0  0  0  0  0
   27.5674   35.5572   21.7373 N   0  0  0  0  0  0  0  0  0  0  0  0
   27.1160   34.4158   22.3682 C   0  0  0  0  0  0  0  0  0  0  0  0
   27.2573   33.3138   21.8308 O   0  0  0  0  0  0  0  0  0  0  0  0
   26.4975   34.5157   23.5981 N   0  0  0  0  0  0  0  0  0  0  0  0
   26.3296   35.7498   24.1974 C   0  0  0  0  0  0  0  0  0  0  0  0
   26.7811   36.8927   23.5709 C   0  0  1  0  0  0  0  0  0  0  0  0
   25.7884   35.8520   25.2971 O   0  0  0  0  0  0  0  0  0  0  0  0
   27.0628   39.2623   23.5651 C   0  0  2  0  0  0  0  0  0  0  0  0
   26.6090   38.1171   24.1868 N   0  0  0  0  0  0  0  0  0  0  0  0
   26.8886   40.4982   24.1832 C   0  0  0  0  0  0  0  0  0  0  0  0
   27.3358   41.6597   23.5613 C   0  0  1  0  0  0  0  0  0  0  0  0
   27.1493   42.9848   24.2475 C   0  0  0  0  0  0  0  0  0  0  0  0
   27.9644   41.5790   22.3135 C   0  0  1  0  0  0  0  0  0  0  0  0
   28.4711   42.8122   21.6243 C   0  0  0  0  0  0  0  0  0  0  0  0
   28.1371   40.3420   21.6995 C   0  0  0  0  0  0  0  0  0  0  0  0
   27.6882   39.1773   22.3175 C   0  0  2  0  0  0  0  0  0  0  0  0
   27.4064   36.7976   22.3329 C   0  0  2  0  0  0  0  0  0  0  0  0
   27.8516   37.9427   21.7007 N   0  0  0  0  0  0  0  0  0  0  0  0
  1  2  1  6  0  0  0
  1  3  1  0  0  0  0
  1  4  2  0  0  0  0
  1  6  1  0  0  0  0
  5  6  1  0  0  0  0
  7  5  1  1  0  0  0
  7  8  1  0  0  0  0
  7  9  1  0  0  0  0
  9 10  1  6  0  0  0
  9 11  1  0  0  0  0
 11 12  1  1  0  0  0
 11 13  1  0  0  0  0
 13 31  1  0  0  0  0
 14 15  1  0  0  0  0
 15 16  2  0  0  0  0
 15 17  1  0  0  0  0
 17 18  1  0  0  0  0
 18 20  2  0  0  0  0
 19 18  1  1  0  0  0
 19 22  1  0  0  0  0
 19 30  1  0  0  0  0
 21 23  1  6  0  0  0
 21 29  1  0  0  0  0
 21 22  1  0  0  0  0
 23 24  1  0  0  0  0
 24 25  1  1  0  0  0
 24 26  1  0  0  0  0
 26 27  1  1  0  0  0
 26 28  1  0  0  0  0
 29 28  1  6  0  0  0
 29 31  1  0  0  0  0
 30 14  1  6  0  0  0
 30 31  1  0  0  0  0
M  CHG  1   3  -1
M  END
>  <CHROM.1>
63.55550093,-86.19689062,66.55678201,159.99647462,49.34921089,-165.55665254
-102.10462641,27.19858500,37.22217485,19.99842765,-1.76194829,1.37980021
1.29997771

>  <Name>
ligand

>  <RI>
0

>  <Rbt.Current_Directory>
/home/itssahil/PROJECTS/Mol_Feturizer/New_Systems/rnas/3F2Q

>  <Rbt.Executable>
rbdock ($Id: //depot/dev/client3/rdock/2013.1/src/exe/rbdock.cxx#4 $)

>  <Rbt.Library>
libRbt.so (2013.1, Build901 2013/11/27)

>  <Rbt.Parameter_File>
/export/apps/rDock/src/rDock_2013.1_src/data/scripts/dock_solv.prm

>  <Rbt.Receptor>
prm/pocket_docking_7.prm

>  <SCORE>
-28.6582

>  <SCORE.INTER>
-26.3306

>  <SCORE.INTER.CONST>
1

>  <SCORE.INTER.POLAR>
0

>  <SCORE.INTER.ROT>
7

>  <SCORE.INTER.SOLV>
14.0871

>  <SCORE.INTER.VDW>
-30.5161

>  <SCORE.INTER.norm>
-0.849376

>  <SCORE.INTRA>
-2.3275

>  <SCORE.INTRA.DIHEDRAL>
-4.94095

>  <SCORE.INTRA.DIHEDRAL.0>
10.0718

>  <SCORE.INTRA.POLAR>
0

>  <SCORE.INTRA.POLAR.0>
0

>  <SCORE.INTRA.REPUL>
0

>  <SCORE.INTRA.REPUL.0>
0

>  <SCORE.INTRA.SOLV>
0.825528

>  <SCORE.INTRA.SOLV.lig_0>
-48.6963

>  <SCORE.INTRA.VDW>
-0.269792

>  <SCORE.INTRA.VDW.0>
-0.836976

>  <SCORE.INTRA.norm>
-0.0750807

>  <SCORE.RESTR>
0

>  <SCORE.RESTR.CAVITY>
0

>  <SCORE.RESTR.norm>
0

>  <SCORE.SYSTEM>
0

>  <SCORE.SYSTEM.CONST>
0

>  <SCORE.SYSTEM.DIHEDRAL>
0

>  <SCORE.SYSTEM.SOLV>
0

>  <SCORE.SYSTEM.norm>
0

>  <SCORE.heavy>
31

>  <SCORE.norm>
-0.924456

>  <RMSD>
4.959

$$$$
ligand
 OpenBabel11021811473D
libRbt.so/2013.1/901 2013/11/27
 31 33  0  0  0  0  0  0  0  0999 V2000
   26.6406   43.0155   16.8697 P   0  0  1  0  0  0  0  0  0  0  0  0
   26.4329   44.5112   16.9768 O   0  0  0  0  0  0  0  0  0  0  0  0
   25.5923   42.3411   17.7131 O   0  5  0  0  0  0  0  0  0  0  0  0
   26.4977   42.5723   15.4397 O   0  0  0  0  0  0  0  0  0  0  0  0
   28.5401   41.3043   17.3649 C   0  0  0  0  0  0  0  0  0  0  0  0
   28.1307   42.6498   17.3261 O   0  0  0  0  0  0  0  0  0  0  0  0
   28.3507   40.7664   18.7756 C   0  0  1  0  0  0  0  0  0  0  0  0
   26.9679   40.7121   19.0556 O   0  0  0  0  0  0  0  0  0  0  0  0
   28.9755   39.3770   18.9021 C   0  0  1  0  0  0  0  0  0  0  0  0
   30.3262   39.4257   18.4951 O   0  0  0  0  0  0  0  0  0  0  0  0
   28.8394   38.7632   20.3025 C   0  0  1  0  0  0  0  0  0  0  0  0
   29.4716   39.5911   21.2531 O   0  0  0  0  0  0  0  0  0  0  0  0
   27.3896   38.5537   20.7097 C   0  0  0  0  0  0  0  0  0  0  0  0
   26.9779   39.6114   23.2972 N   0  0  0  0  0  0  0  0  0  0  0  0
   26.7237   40.1720   24.5323 C   0  0  0  0  0  0  0  0  0  0  0  0
   26.6478   41.3979   24.6526 O   0  0  0  0  0  0  0  0  0  0  0  0
   26.5648   39.3541   25.6328 N   0  0  0  0  0  0  0  0  0  0  0  0
   26.6588   37.9813   25.5023 C   0  0  0  0  0  0  0  0  0  0  0  0
   26.9109   37.4172   24.2691 C   0  0  1  0  0  0  0  0  0  0  0  0
   26.5103   37.2406   26.4728 O   0  0  0  0  0  0  0  0  0  0  0  0
   27.2450   35.4747   22.9238 C   0  0  2  0  0  0  0  0  0  0  0  0
   26.9969   36.0431   24.1564 N   0  0  0  0  0  0  0  0  0  0  0  0
   27.3342   34.0896   22.8080 C   0  0  0  0  0  0  0  0  0  0  0  0
   27.5916   33.5069   21.5711 C   0  0  1  0  0  0  0  0  0  0  0  0
   27.6740   32.0093   21.4618 C   0  0  0  0  0  0  0  0  0  0  0  0
   27.7567   34.3197   20.4438 C   0  0  1  0  0  0  0  0  0  0  0  0
   28.0204   33.7204   19.0932 C   0  0  0  0  0  0  0  0  0  0  0  0
   27.6662   35.7033   20.5635 C   0  0  0  0  0  0  0  0  0  0  0  0
   27.4117   36.2905   21.8006 C   0  0  2  0  0  0  0  0  0  0  0  0
   27.0700   38.2363   23.1571 C   0  0  2  0  0  0  0  0  0  0  0  0
   27.3308   37.6725   21.9229 N   0  0  0  0  0  0  0  0  0  0  0  0
  1  2  1  1  0  0  0
  1  3  1  0  0  0  0
  1  4  2  0  0  0  0
  1  6  1  0  0  0  0
  5  6  1  0  0  0  0
  7  5  1  6  0  0  0
  7  8  1  0  0  0  0
  7  9  1  0  0  0  0
  9 10  1  1  0  0  0
  9 11  1  0  0  0  0
 11 12  1  1  0  0  0
 11 13  1  0  0  0  0
 13 31  1  0  0  0  0
 14 15  1  0  0  0  0
 15 16  2  0  0  0  0
 15 17  1  0  0  0  0
 17 18  1  0  0  0  0
 18 20  2  0  0  0  0
 19 18  1  6  0  0  0
 19 22  1  0  0  0  0
 19 30  1  0  0  0  0
 21 23  1  1  0  0  0
 21 29  1  0  0  0  0
 21 22  1  0  0  0  0
 23 24  1  0  0  0  0
 24 25  1  6  0  0  0
 24 26  1  0  0  0  0
 26 27  1  6  0  0  0
 26 28  1  0  0  0  0
 29 28  1  1  0  0  0
 29 31  1  0  0  0  0
 30 14  1  1  0  0  0
 30 31  1  0  0  0  0
M  CHG  1   3  -1
M  END
>  <CHROM.1>
-94.64684850,177.32665131,67.17270471,54.31095570,-59.89873606,166.86399477
-81.98133953,27.42949451,38.85134962,20.79777678,1.59586658,1.35381778,-0.75568143

>  <Name>
ligand

>  <RI>
0

>  <Rbt.Current_Directory>
/home/itssahil/PROJECTS/Mol_Feturizer/New_Systems/rnas/3F2Q

>  <Rbt.Executable>
rbdock ($Id: //depot/dev/client3/rdock/2013.1/src/exe/rbdock.cxx#4 $)

>  <Rbt.Library>
libRbt.so (2013.1, Build901 2013/11/27)

>  <Rbt.Parameter_File>
/export/apps/rDock/src/rDock_2013.1_src/data/scripts/dock_solv.prm

>  <Rbt.Receptor>
prm/blind_docking_80.prm

>  <SCORE>
-28.8164

>  <SCORE.INTER>
-27.7911

>  <SCORE.INTER.CONST>
1

>  <SCORE.INTER.POLAR>
0

>  <SCORE.INTER.ROT>
7

>  <SCORE.INTER.SOLV>
18.0123

>  <SCORE.INTER.VDW>
-32.7982

>  <SCORE.INTER.norm>
-0.896487

>  <SCORE.INTRA>
-1.02534

>  <SCORE.INTRA.DIHEDRAL>
-3.195

>  <SCORE.INTRA.DIHEDRAL.0>
10.0718

>  <SCORE.INTRA.POLAR>
0

>  <SCORE.INTRA.POLAR.0>
0

>  <SCORE.INTRA.REPUL>
0

>  <SCORE.INTRA.REPUL.0>
0

>  <SCORE.INTRA.SOLV>
1.8518

>  <SCORE.INTRA.SOLV.lig_0>
-48.6963

>  <SCORE.INTRA.VDW>
-0.353743

>  <SCORE.INTRA.VDW.0>
-0.836976

>  <SCORE.INTRA.norm>
-0.0330755

>  <SCORE.RESTR>
0

>  <SCORE.RESTR.CAVITY>
0

>  <SCORE.RESTR.norm>
0

>  <SCORE.SYSTEM>
0

>  <SCORE.SYSTEM.CONST>
0

>  <SCORE.SYSTEM.DIHEDRAL>
0

>  <SCORE.SYSTEM.SOLV>
0

>  <SCORE.SYSTEM.norm>
0

>  <SCORE.heavy>
31

>  <SCORE.norm>
-0.929563

>  <RMSD>
4.960

$$$$
ligand
 OpenBabel11021811473D
libRbt.so/2013.1/901 2013/11/27
 31 33  0  0  0  0  0  0  0  0999 V2000
   26.1799   33.6454   16.3488 P   0  0  1  0  0  0  0  0  0  0  0  0
   26.0758   34.1915   14.9408 O   0  0  0  0  0  0  0  0  0  0  0  0
   24.8993   32.9179   16.6590 O   0  5  0  0  0  0  0  0  0  0  0  0
   27.3381   32.6916   16.4518 O   0  0  0  0  0  0  0  0  0  0  0  0
   25.6458   35.9857   17.3584 C   0  0  0  0  0  0  0  0  0  0  0  0
   26.4708   34.8462   17.3667 O   0  0  0  0  0  0  0  0  0  0  0  0
   26.1642   36.9836   18.3835 C   0  0  1  0  0  0  0  0  0  0  0  0
   26.0430   36.4133   19.6694 O   0  0  0  0  0  0  0  0  0  0  0  0
   27.6229   37.3352   18.0913 C   0  0  1  0  0  0  0  0  0  0  0  0
   27.7890   37.5574   16.7072 O   0  0  0  0  0  0  0  0  0  0  0  0
   28.1490   38.5216   18.9111 C   0  0  1  0  0  0  0  0  0  0  0  0
   27.0681   39.2819   19.4034 O   0  0  0  0  0  0  0  0  0  0  0  0
   29.0225   38.0845   20.0762 C   0  0  0  0  0  0  0  0  0  0  0  0
   28.0821   35.5912   21.0157 N   0  0  0  0  0  0  0  0  0  0  0  0
   27.6905   34.3451   21.4611 C   0  0  0  0  0  0  0  0  0  0  0  0
   27.9391   33.3405   20.7886 O   0  0  0  0  0  0  0  0  0  0  0  0
   27.0113   34.2307   22.6572 N   0  0  0  0  0  0  0  0  0  0  0  0
   26.7233   35.3554   23.4074 C   0  0  0  0  0  0  0  0  0  0  0  0
   27.1147   36.6024   22.9665 C   0  0  1  0  0  0  0  0  0  0  0  0
   26.1268   35.2667   24.4792 O   0  0  0  0  0  0  0  0  0  0  0  0
   27.2160   38.9637   23.2960 C   0  0  2  0  0  0  0  0  0  0  0  0
   26.8227   37.7149   23.7316 N   0  0  0  0  0  0  0  0  0  0  0  0
   26.9209   40.0871   24.0646 C   0  0  0  0  0  0  0  0  0  0  0  0
   27.3064   41.3516   23.6307 C   0  0  1  0  0  0  0  0  0  0  0  0
   26.9892   42.5528   24.4779 C   0  0  0  0  0  0  0  0  0  0  0  0
   27.9950   41.4880   22.4200 C   0  0  1  0  0  0  0  0  0  0  0  0
   28.4374   42.8368   21.9324 C   0  0  0  0  0  0  0  0  0  0  0  0
   28.2886   40.3629   21.6552 C   0  0  0  0  0  0  0  0  0  0  0  0
   27.9017   39.0957   22.0847 C   0  0  2  0  0  0  0  0  0  0  0  0
   27.8008   36.7230   21.7635 C   0  0  2  0  0  0  0  0  0  0  0  0
   28.1859   37.9726   21.3170 N   0  0  0  0  0  0  0  0  0  0  0  0
  1  2  1  6  0  0  0
  1  3  1  0  0  0  0
  1  4  2  0  0  0  0
  1  6  1  0  0  0  0
  5  6  1  0  0  0  0
  7  5  1  6  0  0  0
  7  8  1  0  0  0  0
  7  9  1  0  0  0  0
  9 10  1  6  0  0  0
  9 11  1  0  0  0  0
 11 12  1  1  0  0  0
 11 13  1  0  0  0  0
 13 31  1  0  0  0  0
 14 15  1  0  0  0  0
 15 16  2  0  0  0  0
 15 17  1  0  0  0  0
 17 18  1  0  0  0  0
 18 20  2  0  0  0  0
 19 18  1  1  0  0  0
 19 22  1  0  0  0  0
 19 30  1  0  0  0  0
 21 23  1  6  0  0  0
 21 29  1  0  0  0  0
 21 22  1  0  0  0  0
 23 24  1  0  0  0  0
 24 25  1  1  0  0  0
 24 26  1  0  0  0  0
 26 27  1  1  0  0  0
 26 28  1  0  0  0  0
 29 28  1  6  0  0  0
 29 31  1  0  0  0  0
 30 14  1  6  0  0  0
 30 31  1  0  0  0  0
M  CHG  1   3  -1
M  END
>  <CHROM.1>
-178.23569003,51.99169722,-64.40866131,44.13871247,-19.51892354,-94.24137388
-83.09529429,27.12179384,36.92452689,20.25461298,-2.55440404,1.41433898,1.76367493

>  <Name>
ligand

>  <RI>
0

>  <Rbt.Current_Directory>
/home/itssahil/PROJECTS/Mol_Feturizer/New_Systems/rnas/3F2Q

>  <Rbt.Executable>
rbdock ($Id: //depot/dev/client3/rdock/2013.1/src/exe/rbdock.cxx#4 $)

>  <Rbt.Library>
libRbt.so (2013.1, Build901 2013/11/27)

>  <Rbt.Parameter_File>
/export/apps/rDock/src/rDock_2013.1_src/data/scripts/dock_solv.prm

>  <Rbt.Receptor>
prm/blind_docking_100.prm

>  <SCORE>
-24.7732

>  <SCORE.INTER>
-23.33

>  <SCORE.INTER.CONST>
1

>  <SCORE.INTER.POLAR>
0

>  <SCORE.INTER.ROT>
7

>  <SCORE.INTER.SOLV>
10.4813

>  <SCORE.INTER.VDW>
-27.3138

>  <SCORE.INTER.norm>
-0.75258

>  <SCORE.INTRA>
-1.4432

>  <SCORE.INTRA.DIHEDRAL>
-0.317556

>  <SCORE.INTRA.DIHEDRAL.0>
10.0718

>  <SCORE.INTRA.POLAR>
0

>  <SCORE.INTRA.POLAR.0>
0

>  <SCORE.INTRA.REPUL>
0

>  <SCORE.INTRA.REPUL.0>
0

>  <SCORE.INTRA.SOLV>
-0.14137

>  <SCORE.INTRA.SOLV.lig_0>
-48.6963

>  <SCORE.INTRA.VDW>
-1.21374

>  <SCORE.INTRA.VDW.0>
-0.836976

>  <SCORE.INTRA.norm>
-0.0465549

>  <SCORE.RESTR>
0

>  <SCORE.RESTR.CAVITY>
0

>  <SCORE.RESTR.norm>
0

>  <SCORE.SYSTEM>
0

>  <SCORE.SYSTEM.CONST>
0

>  <SCORE.SYSTEM.DIHEDRAL>
0

>  <SCORE.SYSTEM.SOLV>
0

>  <SCORE.SYSTEM.norm>
0

>  <SCORE.heavy>
31

>  <SCORE.norm>
-0.799135

>  <RMSD>
4.961

$$$$
ligand
 OpenBabel11021811473D
libRbt.so/2013.1/901 2013/11/27
 31 33  0  0  0  0  0  0  0  0999 V2000
   26.7298   43.0615   16.8247 P   0  0  1  0  0  0  0  0  0  0  0  0
   26.4721   44.5308   17.0819 O   0  0  0  0  0  0  0  0  0  0  0  0
   25.6472   42.2742   17.5128 O   0  5  0  0  0  0  0  0  0  0  0  0
   26.6962   42.7790   15.3479 O   0  0  0  0  0  0  0  0  0  0  0  0
   28.5939   41.3297   17.3794 C   0  0  0  0  0  0  0  0  0  0  0  0
   28.1959   42.6785   17.3409 O   0  0  0  0  0  0  0  0  0  0  0  0
   28.3836   40.7881   18.7858 C   0  0  1  0  0  0  0  0  0  0  0  0
   26.9979   40.7567   19.0544 O   0  0  0  0  0  0  0  0  0  0  0  0
   28.9830   39.3875   18.9103 C   0  0  1  0  0  0  0  0  0  0  0  0
   30.3314   39.4100   18.4934 O   0  0  0  0  0  0  0  0  0  0  0  0
   28.8454   38.7786   20.3126 C   0  0  1  0  0  0  0  0  0  0  0  0
   29.4747   39.6110   21.2613 O   0  0  0  0  0  0  0  0  0  0  0  0
   27.3953   38.5683   20.7181 C   0  0  0  0  0  0  0  0  0  0  0  0
   27.0054   39.6007   23.3192 N   0  0  0  0  0  0  0  0  0  0  0  0
   26.7621   40.1496   24.5617 C   0  0  0  0  0  0  0  0  0  0  0  0
   26.6974   41.3748   24.6959 O   0  0  0  0  0  0  0  0  0  0  0  0
   26.6014   39.3210   25.6538 N   0  0  0  0  0  0  0  0  0  0  0  0
   26.6830   37.9489   25.5076 C   0  0  0  0  0  0  0  0  0  0  0  0
   26.9242   37.3964   24.2670 C   0  0  1  0  0  0  0  0  0  0  0  0
   26.5328   37.1989   26.4706 O   0  0  0  0  0  0  0  0  0  0  0  0
   27.2348   35.4662   22.8987 C   0  0  2  0  0  0  0  0  0  0  0  0
   26.9977   36.0230   24.1387 N   0  0  0  0  0  0  0  0  0  0  0  0
   27.3115   34.0818   22.7671 C   0  0  0  0  0  0  0  0  0  0  0  0
   27.5577   33.5107   21.5225 C   0  0  1  0  0  0  0  0  0  0  0  0
   27.6267   32.0138   21.3963 C   0  0  0  0  0  0  0  0  0  0  0  0
   27.7244   34.3345   20.4035 C   0  0  1  0  0  0  0  0  0  0  0  0
   27.9763   33.7480   19.0451 C   0  0  0  0  0  0  0  0  0  0  0  0
   27.6465   35.7174   20.5390 C   0  0  0  0  0  0  0  0  0  0  0  0
   27.4031   36.2930   21.7838 C   0  0  2  0  0  0  0  0  0  0  0  0
   27.0849   38.2264   23.1634 C   0  0  2  0  0  0  0  0  0  0  0  0
   27.3347   37.6742   21.9218 N   0  0  0  0  0  0  0  0  0  0  0  0
  1  2  1  1  0  0  0
  1  3  1  0  0  0  0
  1  4  2  0  0  0  0
  1  6  1  0  0  0  0
  5  6  1  0  0  0  0
  7  5  1  6  0  0  0
  7  8  1  0  0  0  0
  7  9  1  0  0  0  0
  9 10  1  1  0  0  0
  9 11  1  0  0  0  0
 11 12  1  1  0  0  0
 11 13  1  0  0  0  0
 13 31  1  0  0  0  0
 14 15  1  0  0  0  0
 15 16  2  0  0  0  0
 15 17  1  0  0  0  0
 17 18  1  0  0  0  0
 18 20  2  0  0  0  0
 19 18  1  6  0  0  0
 19 22  1  0  0  0  0
 19 30  1  0  0  0  0
 21 23  1  1  0  0  0
 21 29  1  0  0  0  0
 21 22  1  0  0  0  0
 23 24  1  0  0  0  0
 24 25  1  6  0  0  0
 24 26  1  0  0  0  0
 26 27  1  6  0  0  0
 26 28  1  0  0  0  0
 29 28  1  1  0  0  0
 29 31  1  0  0  0  0
 30 14  1  1  0  0  0
 30 31  1  0  0  0  0
M  CHG  1   3  -1
M  END
>  <CHROM.1>
-96.57221168,171.21013000,66.59445249,53.35113337,-58.61583426,165.99446218
-82.42007357,27.45368105,38.86064595,20.78445437,1.55006399,1.36656414,-0.71257403

>  <Name>
ligand

>  <RI>
0

>  <Rbt.Current_Directory>
/home/itssahil/PROJECTS/Mol_Feturizer/New_Systems/rnas/3F2Q

>  <Rbt.Executable>
rbdock ($Id: //depot/dev/client3/rdock/2013.1/src/exe/rbdock.cxx#4 $)

>  <Rbt.Library>
libRbt.so (2013.1, Build901 2013/11/27)

>  <Rbt.Parameter_File>
/export/apps/rDock/src/rDock_2013.1_src/data/scripts/dock_solv.prm

>  <Rbt.Receptor>
prm/pocket_docking_4.prm

>  <SCORE>
-28.8887

>  <SCORE.INTER>
-27.8445

>  <SCORE.INTER.CONST>
1

>  <SCORE.INTER.POLAR>
0

>  <SCORE.INTER.ROT>
7

>  <SCORE.INTER.SOLV>
18.4383

>  <SCORE.INTER.VDW>
-32.9757

>  <SCORE.INTER.norm>
-0.898209

>  <SCORE.INTRA>
-1.04421

>  <SCORE.INTRA.DIHEDRAL>
-2.63244

>  <SCORE.INTRA.DIHEDRAL.0>
10.0718

>  <SCORE.INTRA.POLAR>
0

>  <SCORE.INTRA.POLAR.0>
0

>  <SCORE.INTRA.REPUL>
0

>  <SCORE.INTRA.REPUL.0>
0

>  <SCORE.INTRA.SOLV>
1.69774

>  <SCORE.INTRA.SOLV.lig_0>
-48.6963

>  <SCORE.INTRA.VDW>
-0.576857

>  <SCORE.INTRA.VDW.0>
-0.836976

>  <SCORE.INTRA.norm>
-0.0336841

>  <SCORE.RESTR>
0

>  <SCORE.RESTR.CAVITY>
0

>  <SCORE.RESTR.norm>
0

>  <SCORE.SYSTEM>
0

>  <SCORE.SYSTEM.CONST>
0

>  <SCORE.SYSTEM.DIHEDRAL>
0

>  <SCORE.SYSTEM.SOLV>
0

>  <SCORE.SYSTEM.norm>
0

>  <SCORE.heavy>
31

>  <SCORE.norm>
-0.931893

>  <RMSD>
4.961

$$$$
ligand
 OpenBabel11021811473D
libRbt.so/2013.1/901 2013/11/27
 31 33  0  0  0  0  0  0  0  0999 V2000
   25.5287   43.7960   15.9109 P   0  0  1  0  0  0  0  0  0  0  0  0
   26.7662   43.8168   15.0393 O   0  0  0  0  0  0  0  0  0  0  0  0
   25.5480   45.0304   16.7718 O   0  5  0  0  0  0  0  0  0  0  0  0
   24.2913   43.7979   15.0561 O   0  0  0  0  0  0  0  0  0  0  0  0
   26.5726   42.1425   17.6307 C   0  0  0  0  0  0  0  0  0  0  0  0
   25.5027   42.4445   16.7685 O   0  0  0  0  0  0  0  0  0  0  0  0
   26.3333   40.7792   18.2629 C   0  0  1  0  0  0  0  0  0  0  0  0
   26.5056   39.7869   17.2735 O   0  0  0  0  0  0  0  0  0  0  0  0
   27.3058   40.5530   19.4204 C   0  0  1  0  0  0  0  0  0  0  0  0
   27.2921   41.6746   20.2773 O   0  0  0  0  0  0  0  0  0  0  0  0
   27.0482   39.2557   20.1996 C   0  0  1  0  0  0  0  0  0  0  0  0
   26.8460   38.1880   19.3009 O   0  0  0  0  0  0  0  0  0  0  0  0
   28.1883   38.9047   21.1422 C   0  0  0  0  0  0  0  0  0  0  0  0
   27.2214   39.6177   23.6996 N   0  0  0  0  0  0  0  0  0  0  0  0
   26.7100   40.0207   24.9163 C   0  0  0  0  0  0  0  0  0  0  0  0
   26.7286   41.2138   25.2317 O   0  0  0  0  0  0  0  0  0  0  0  0
   26.1871   39.0808   25.7814 N   0  0  0  0  0  0  0  0  0  0  0  0
   26.1739   37.7429   25.4344 C   0  0  0  0  0  0  0  0  0  0  0  0
   26.6824   37.3364   24.2183 C   0  0  1  0  0  0  0  0  0  0  0  0
   25.7029   36.8962   26.1918 O   0  0  0  0  0  0  0  0  0  0  0  0
   27.1607   35.5856   22.6690 C   0  0  2  0  0  0  0  0  0  0  0  0
   26.6567   35.9958   23.8862 N   0  0  0  0  0  0  0  0  0  0  0  0
   27.1378   34.2342   22.3327 C   0  0  0  0  0  0  0  0  0  0  0  0
   27.6504   33.8094   21.1110 C   0  0  1  0  0  0  0  0  0  0  0  0
   27.6080   32.3479   20.7592 C   0  0  0  0  0  0  0  0  0  0  0  0
   28.1858   34.7473   20.2209 C   0  0  1  0  0  0  0  0  0  0  0  0
   28.7326   34.3221   18.8894 C   0  0  0  0  0  0  0  0  0  0  0  0
   28.2063   36.0969   20.5604 C   0  0  0  0  0  0  0  0  0  0  0  0
   27.6968   36.5258   21.7837 C   0  0  2  0  0  0  0  0  0  0  0  0
   27.2085   38.2792   23.3425 C   0  0  2  0  0  0  0  0  0  0  0  0
   27.7257   37.8720   22.1277 N   0  0  0  0  0  0  0  0  0  0  0  0
  1  2  1  6  0  0  0
  1  3  1  0  0  0  0
  1  4  2  0  0  0  0
  1  6  1  0  0  0  0
  5  6  1  0  0  0  0
  7  5  1  6  0  0  0
  7  8  1  0  0  0  0
  7  9  1  0  0  0  0
  9 10  1  1  0  0  0
  9 11  1  0  0  0  0
 11 12  1  6  0  0  0
 11 13  1  0  0  0  0
 13 31  1  0  0  0  0
 14 15  1  0  0  0  0
 15 16  2  0  0  0  0
 15 17  1  0  0  0  0
 17 18  1  0  0  0  0
 18 20  2  0  0  0  0
 19 18  1  6  0  0  0
 19 22  1  0  0  0  0
 19 30  1  0  0  0  0
 21 23  1  1  0  0  0
 21 29  1  0  0  0  0
 21 22  1  0  0  0  0
 23 24  1  0  0  0  0
 24 25  1  6  0  0  0
 24 26  1  0  0  0  0
 26 27  1  6  0  0  0
 26 28  1  0  0  0  0
 29 28  1  1  0  0  0
 29 31  1  0  0  0  0
 30 14  1  1  0  0  0
 30 31  1  0  0  0  0
M  CHG  1   3  -1
M  END
>  <CHROM.1>
-177.03215156,58.15538964,71.07636394,49.40213072,45.91013171,164.43520788
81.74827035,26.78140978,39.13698717,20.51362912,2.20383833,1.34411061,-1.39226811

>  <Name>
ligand

>  <RI>
0

>  <Rbt.Current_Directory>
/home/itssahil/PROJECTS/Mol_Feturizer/New_Systems/rnas/3F2Q

>  <Rbt.Executable>
rbdock ($Id: //depot/dev/client3/rdock/2013.1/src/exe/rbdock.cxx#4 $)

>  <Rbt.Library>
libRbt.so (2013.1, Build901 2013/11/27)

>  <Rbt.Parameter_File>
/export/apps/rDock/src/rDock_2013.1_src/data/scripts/dock_solv.prm

>  <Rbt.Receptor>
prm/pocket_docking_5.prm

>  <SCORE>
-33.051

>  <SCORE.INTER>
-28.3682

>  <SCORE.INTER.CONST>
1

>  <SCORE.INTER.POLAR>
0

>  <SCORE.INTER.ROT>
7

>  <SCORE.INTER.SOLV>
21.4438

>  <SCORE.INTER.VDW>
-34.3267

>  <SCORE.INTER.norm>
-0.915102

>  <SCORE.INTRA>
-4.68281

>  <SCORE.INTRA.DIHEDRAL>
-6.49187

>  <SCORE.INTRA.DIHEDRAL.0>
10.0718

>  <SCORE.INTRA.POLAR>
0

>  <SCORE.INTRA.POLAR.0>
0

>  <SCORE.INTRA.REPUL>
0

>  <SCORE.INTRA.REPUL.0>
0

>  <SCORE.INTRA.SOLV>
-1.31046

>  <SCORE.INTRA.SOLV.lig_0>
-48.6963

>  <SCORE.INTRA.VDW>
-0.781641

>  <SCORE.INTRA.VDW.0>
-0.836976

>  <SCORE.INTRA.norm>
-0.151058

>  <SCORE.RESTR>
0

>  <SCORE.RESTR.CAVITY>
0

>  <SCORE.RESTR.norm>
0

>  <SCORE.SYSTEM>
0

>  <SCORE.SYSTEM.CONST>
0

>  <SCORE.SYSTEM.DIHEDRAL>
0

>  <SCORE.SYSTEM.SOLV>
0

>  <SCORE.SYSTEM.norm>
0

>  <SCORE.heavy>
31

>  <SCORE.norm>
-1.06616

>  <RMSD>
4.972

$$$$
ligand
 OpenBabel11021811473D
libRbt.so/2013.1/901 2013/11/27
 31 33  0  0  0  0  0  0  0  0999 V2000
   24.3081   41.8250   19.2405 P   0  0  1  0  0  0  0  0  0  0  0  0
   22.9007   41.2681   19.2154 O   0  0  0  0  0  0  0  0  0  0  0  0
   24.3076   43.1190   18.4720 O   0  5  0  0  0  0  0  0  0  0  0  0
   24.7398   42.0818   20.6581 O   0  0  0  0  0  0  0  0  0  0  0  0
   26.5209   41.1699   18.0340 C   0  0  0  0  0  0  0  0  0  0  0  0
   25.3204   40.7447   18.6316 O   0  0  0  0  0  0  0  0  0  0  0  0
   27.2201   39.9700   17.4122 C   0  0  1  0  0  0  0  0  0  0  0  0
   27.9003   40.3963   16.2507 O   0  0  0  0  0  0  0  0  0  0  0  0
   28.2012   39.3523   18.4085 C   0  0  1  0  0  0  0  0  0  0  0  0
   29.2993   40.2199   18.5925 O   0  0  0  0  0  0  0  0  0  0  0  0
   27.5618   38.9733   19.7516 C   0  0  1  0  0  0  0  0  0  0  0  0
   26.6839   37.8839   19.5749 O   0  0  0  0  0  0  0  0  0  0  0  0
   28.5939   38.6152   20.8091 C   0  0  0  0  0  0  0  0  0  0  0  0
   27.6024   39.2786   23.3704 N   0  0  0  0  0  0  0  0  0  0  0  0
   27.0840   39.6615   24.5907 C   0  0  0  0  0  0  0  0  0  0  0  0
   27.1782   40.8344   24.9633 O   0  0  0  0  0  0  0  0  0  0  0  0
   26.4690   38.7235   25.3950 N   0  0  0  0  0  0  0  0  0  0  0  0
   26.3709   37.4075   24.9840 C   0  0  0  0  0  0  0  0  0  0  0  0
   26.8861   37.0213   23.7642 C   0  0  1  0  0  0  0  0  0  0  0  0
   25.8175   36.5635   25.6868 O   0  0  0  0  0  0  0  0  0  0  0  0
   27.2853   35.3132   22.1462 C   0  0  2  0  0  0  0  0  0  0  0  0
   26.7748   35.7028   23.3675 N   0  0  0  0  0  0  0  0  0  0  0  0
   27.1761   33.9840   21.7450 C   0  0  0  0  0  0  0  0  0  0  0  0
   27.6943   33.5794   20.5187 C   0  0  1  0  0  0  0  0  0  0  0  0
   27.5584   32.1426   20.0962 C   0  0  0  0  0  0  0  0  0  0  0  0
   28.3224   34.5157   19.6896 C   0  0  1  0  0  0  0  0  0  0  0  0
   28.8780   34.1133   18.3547 C   0  0  0  0  0  0  0  0  0  0  0  0
   28.4289   35.8432   20.0939 C   0  0  0  0  0  0  0  0  0  0  0  0
   27.9141   36.2515   21.3221 C   0  0  2  0  0  0  0  0  0  0  0  0
   27.5048   37.9624   22.9493 C   0  0  2  0  0  0  0  0  0  0  0  0
   28.0285   37.5748   21.7309 N   0  0  0  0  0  0  0  0  0  0  0  0
  1  2  1  1  0  0  0
  1  3  1  0  0  0  0
  1  4  2  0  0  0  0
  1  6  1  0  0  0  0
  5  6  1  0  0  0  0
  7  5  1  1  0  0  0
  7  8  1  0  0  0  0
  7  9  1  0  0  0  0
  9 10  1  1  0  0  0
  9 11  1  0  0  0  0
 11 12  1  6  0  0  0
 11 13  1  0  0  0  0
 13 31  1  0  0  0  0
 14 15  1  0  0  0  0
 15 16  2  0  0  0  0
 15 17  1  0  0  0  0
 17 18  1  0  0  0  0
 18 20  2  0  0  0  0
 19 18  1  6  0  0  0
 19 22  1  0  0  0  0
 19 30  1  0  0  0  0
 21 23  1  1  0  0  0
 21 29  1  0  0  0  0
 21 22  1  0  0  0  0
 23 24  1  0  0  0  0
 24 25  1  6  0  0  0
 24 26  1  0  0  0  0
 26 27  1  6  0  0  0
 26 28  1  0  0  0  0
 29 28  1  1  0  0  0
 29 31  1  0  0  0  0
 30 14  1  1  0  0  0
 30 31  1  0  0  0  0
M  CHG  1   3  -1
M  END
>  <CHROM.1>
-174.06509487,153.45636658,146.56960917,-70.34244169,69.15849125,-147.89943820
75.18466855,26.82461910,38.41704766,20.82114772,2.35593242,1.16999284,-1.25122159

>  <Name>
ligand

>  <RI>
0

>  <Rbt.Current_Directory>
/home/itssahil/PROJECTS/Mol_Feturizer/New_Systems/rnas/3F2Q

>  <Rbt.Executable>
rbdock ($Id: //depot/dev/client3/rdock/2013.1/src/exe/rbdock.cxx#4 $)

>  <Rbt.Library>
libRbt.so (2013.1, Build901 2013/11/27)

>  <Rbt.Parameter_File>
/export/apps/rDock/src/rDock_2013.1_src/data/scripts/dock_solv.prm

>  <Rbt.Receptor>
prm/pocket_docking_8.prm

>  <SCORE>
-25.9645

>  <SCORE.INTER>
-24.9337

>  <SCORE.INTER.CONST>
1

>  <SCORE.INTER.POLAR>
0

>  <SCORE.INTER.ROT>
7

>  <SCORE.INTER.SOLV>
18.5593

>  <SCORE.INTER.VDW>
-31.0755

>  <SCORE.INTER.norm>
-0.804311

>  <SCORE.INTRA>
-1.03085

>  <SCORE.INTRA.DIHEDRAL>
-1.0536

>  <SCORE.INTRA.DIHEDRAL.0>
10.0718

>  <SCORE.INTRA.POLAR>
0

>  <SCORE.INTRA.POLAR.0>
0

>  <SCORE.INTRA.REPUL>
0

>  <SCORE.INTRA.REPUL.0>
0

>  <SCORE.INTRA.SOLV>
-0.575236

>  <SCORE.INTRA.SOLV.lig_0>
-48.6963

>  <SCORE.INTRA.VDW>
-0.216436

>  <SCORE.INTRA.VDW.0>
-0.836976

>  <SCORE.INTRA.norm>
-0.0332533

>  <SCORE.RESTR>
0

>  <SCORE.RESTR.CAVITY>
0

>  <SCORE.RESTR.norm>
0

>  <SCORE.SYSTEM>
0

>  <SCORE.SYSTEM.CONST>
0

>  <SCORE.SYSTEM.DIHEDRAL>
0

>  <SCORE.SYSTEM.SOLV>
0

>  <SCORE.SYSTEM.norm>
0

>  <SCORE.heavy>
31

>  <SCORE.norm>
-0.837565

>  <RMSD>
4.972

$$$$
ligand
 OpenBabel11021811473D
libRbt.so/2013.1/901 2013/11/27
 31 33  0  0  0  0  0  0  0  0999 V2000
   25.7103   43.3499   16.1894 P   0  0  1  0  0  0  0  0  0  0  0  0
   26.7277   43.6342   15.1051 O   0  0  0  0  0  0  0  0  0  0  0  0
   25.6735   44.5380   17.1126 O   0  5  0  0  0  0  0  0  0  0  0  0
   24.3498   43.1412   15.5833 O   0  0  0  0  0  0  0  0  0  0  0  0
   27.2326   41.9555   17.7769 C   0  0  0  0  0  0  0  0  0  0  0  0
   26.0995   41.9927   16.9437 O   0  0  0  0  0  0  0  0  0  0  0  0
   27.3654   40.5628   18.3754 C   0  0  1  0  0  0  0  0  0  0  0  0
   27.8650   39.6914   17.3833 O   0  0  0  0  0  0  0  0  0  0  0  0
   28.3033   40.5910   19.5821 C   0  0  1  0  0  0  0  0  0  0  0  0
   27.8645   41.5686   20.5010 O   0  0  0  0  0  0  0  0  0  0  0  0
   28.4754   39.2262   20.2633 C   0  0  1  0  0  0  0  0  0  0  0  0
   29.2094   39.3753   21.4583 O   0  0  0  0  0  0  0  0  0  0  0  0
   27.1461   38.5575   20.5750 C   0  0  0  0  0  0  0  0  0  0  0  0
   27.0817   39.6141   23.1947 N   0  0  0  0  0  0  0  0  0  0  0  0
   26.9920   40.1721   24.4537 C   0  0  0  0  0  0  0  0  0  0  0  0
   26.8926   41.3954   24.5835 O   0  0  0  0  0  0  0  0  0  0  0  0
   27.0240   39.3550   25.5656 N   0  0  0  0  0  0  0  0  0  0  0  0
   27.1449   37.9855   25.4230 C   0  0  0  0  0  0  0  0  0  0  0  0
   27.2329   37.4239   24.1663 C   0  0  1  0  0  0  0  0  0  0  0  0
   27.1656   37.2453   26.4049 O   0  0  0  0  0  0  0  0  0  0  0  0
   27.4327   35.4869   22.7869 C   0  0  2  0  0  0  0  0  0  0  0  0
   27.3485   36.0529   24.0425 N   0  0  0  0  0  0  0  0  0  0  0  0
   27.5514   34.1050   22.6596 C   0  0  0  0  0  0  0  0  0  0  0  0
   27.6446   33.5250   21.3983 C   0  0  1  0  0  0  0  0  0  0  0  0
   27.7614   32.0305   21.2784 C   0  0  0  0  0  0  0  0  0  0  0  0
   27.6151   34.3370   20.2589 C   0  0  1  0  0  0  0  0  0  0  0  0
   27.6985   33.7400   18.8844 C   0  0  0  0  0  0  0  0  0  0  0  0
   27.4958   35.7173   20.3903 C   0  0  0  0  0  0  0  0  0  0  0  0
   27.4052   36.3020   21.6513 C   0  0  2  0  0  0  0  0  0  0  0  0
   27.1993   38.2421   23.0429 C   0  0  2  0  0  0  0  0  0  0  0  0
   27.2957   37.6811   21.7839 N   0  0  0  0  0  0  0  0  0  0  0  0
  1  2  1  6  0  0  0
  1  3  1  0  0  0  0
  1  4  2  0  0  0  0
  1  6  1  0  0  0  0
  5  6  1  0  0  0  0
  7  5  1  6  0  0  0
  7  8  1  0  0  0  0
  7  9  1  0  0  0  0
  9 10  1  1  0  0  0
  9 11  1  0  0  0  0
 11 12  1  1  0  0  0
 11 13  1  0  0  0  0
 13 31  1  0  0  0  0
 14 15  1  0  0  0  0
 15 16  2  0  0  0  0
 15 17  1  0  0  0  0
 17 18  1  0  0  0  0
 18 20  2  0  0  0  0
 19 18  1  6  0  0  0
 19 22  1  0  0  0  0
 19 30  1  0  0  0  0
 21 23  1  1  0  0  0
 21 29  1  0  0  0  0
 21 22  1  0  0  0  0
 23 24  1  0  0  0  0
 24 25  1  6  0  0  0
 24 26  1  0  0  0  0
 26 27  1  6  0  0  0
 26 28  1  0  0  0  0
 29 28  1  1  0  0  0
 29 31  1  0  0  0  0
 30 14  1  1  0  0  0
 30 31  1  0  0  0  0
M  CHG  1   3  -1
M  END
>  <CHROM.1>
179.45714288,70.14163494,75.81409086,53.81018916,-172.39423883,-150.78220746
-102.62789078,27.14482313,39.01901024,20.62174509,-2.78075482,-1.42750853
1.19043543

>  <Name>
ligand

>  <RI>
0

>  <Rbt.Current_Directory>
/home/itssahil/PROJECTS/Mol_Feturizer/New_Systems/rnas/3F2Q

>  <Rbt.Executable>
rbdock ($Id: //depot/dev/client3/rdock/2013.1/src/exe/rbdock.cxx#4 $)

>  <Rbt.Library>
libRbt.so (2013.1, Build901 2013/11/27)

>  <Rbt.Parameter_File>
/export/apps/rDock/src/rDock_2013.1_src/data/scripts/dock_solv.prm

>  <Rbt.Receptor>
prm/pocket_docking_5.prm

>  <SCORE>
-28.7489

>  <SCORE.INTER>
-25.0999

>  <SCORE.INTER.CONST>
1

>  <SCORE.INTER.POLAR>
0

>  <SCORE.INTER.ROT>
7

>  <SCORE.INTER.SOLV>
18.4274

>  <SCORE.INTER.VDW>
-31.1424

>  <SCORE.INTER.norm>
-0.809675

>  <SCORE.INTRA>
-3.64896

>  <SCORE.INTRA.DIHEDRAL>
-4.73484

>  <SCORE.INTRA.DIHEDRAL.0>
10.0718

>  <SCORE.INTRA.POLAR>
0

>  <SCORE.INTRA.POLAR.0>
0

>  <SCORE.INTRA.REPUL>
0

>  <SCORE.INTRA.REPUL.0>
0

>  <SCORE.INTRA.SOLV>
-1.33497

>  <SCORE.INTRA.SOLV.lig_0>
-48.6963

>  <SCORE.INTRA.VDW>
-0.614055

>  <SCORE.INTRA.VDW.0>
-0.836976

>  <SCORE.INTRA.norm>
-0.117708

>  <SCORE.RESTR>
0

>  <SCORE.RESTR.CAVITY>
0

>  <SCORE.RESTR.norm>
0

>  <SCORE.SYSTEM>
0

>  <SCORE.SYSTEM.CONST>
0

>  <SCORE.SYSTEM.DIHEDRAL>
0

>  <SCORE.SYSTEM.SOLV>
0

>  <SCORE.SYSTEM.norm>
0

>  <SCORE.heavy>
31

>  <SCORE.norm>
-0.927384

>  <RMSD>
4.980

$$$$
ligand
 OpenBabel11021811473D
libRbt.so/2013.1/901 2013/11/27
 31 33  0  0  0  0  0  0  0  0999 V2000
   25.2749   43.9629   16.1155 P   0  0  1  0  0  0  0  0  0  0  0  0
   25.3431   45.1535   17.0480 O   0  0  0  0  0  0  0  0  0  0  0  0
   24.0585   44.1263   15.2444 O   0  5  0  0  0  0  0  0  0  0  0  0
   26.5066   43.9061   15.2545 O   0  0  0  0  0  0  0  0  0  0  0  0
   26.2734   42.3440   17.8943 C   0  0  0  0  0  0  0  0  0  0  0  0
   25.2426   42.6130   16.9754 O   0  0  0  0  0  0  0  0  0  0  0  0
   26.1164   40.9238   18.4175 C   0  0  1  0  0  0  0  0  0  0  0  0
   26.2737   40.0260   17.3392 O   0  0  0  0  0  0  0  0  0  0  0  0
   27.1544   40.6405   19.5033 C   0  0  1  0  0  0  0  0  0  0  0  0
   27.1196   41.6668   20.4718 O   0  0  0  0  0  0  0  0  0  0  0  0
   27.0069   39.2579   20.1538 C   0  0  1  0  0  0  0  0  0  0  0  0
   26.8586   38.2716   19.1567 O   0  0  0  0  0  0  0  0  0  0  0  0
   28.1910   38.8992   21.0374 C   0  0  0  0  0  0  0  0  0  0  0  0
   27.3315   39.6478   23.6228 N   0  0  0  0  0  0  0  0  0  0  0  0
   26.8713   40.0679   24.8542 C   0  0  0  0  0  0  0  0  0  0  0  0
   26.9044   41.2650   25.1525 O   0  0  0  0  0  0  0  0  0  0  0  0
   26.3835   39.1405   25.7525 N   0  0  0  0  0  0  0  0  0  0  0  0
   26.3543   37.7981   25.4243 C   0  0  0  0  0  0  0  0  0  0  0  0
   26.8116   37.3746   24.1938 C   0  0  1  0  0  0  0  0  0  0  0  0
   25.9139   36.9624   26.2118 O   0  0  0  0  0  0  0  0  0  0  0  0
   27.2233   35.6025   22.6495 C   0  0  2  0  0  0  0  0  0  0  0  0
   26.7705   36.0297   23.8810 N   0  0  0  0  0  0  0  0  0  0  0  0
   27.1848   34.2468   22.3326 C   0  0  0  0  0  0  0  0  0  0  0  0
   27.6459   33.8048   21.0965 C   0  0  1  0  0  0  0  0  0  0  0  0
   27.5872   32.3389   20.7663 C   0  0  0  0  0  0  0  0  0  0  0  0
   28.1452   34.7299   20.1726 C   0  0  1  0  0  0  0  0  0  0  0  0
   28.6360   34.2860   18.8255 C   0  0  0  0  0  0  0  0  0  0  0  0
   28.1814   36.0838   20.4930 C   0  0  0  0  0  0  0  0  0  0  0  0
   27.7234   36.5298   21.7304 C   0  0  2  0  0  0  0  0  0  0  0  0
   27.3022   38.3047   23.2845 C   0  0  2  0  0  0  0  0  0  0  0  0
   27.7682   37.8805   22.0549 N   0  0  0  0  0  0  0  0  0  0  0  0
  1  2  1  1  0  0  0
  1  3  1  0  0  0  0
  1  4  2  0  0  0  0
  1  6  1  0  0  0  0
  5  6  1  0  0  0  0
  7  5  1  6  0  0  0
  7  8  1  0  0  0  0
  7  9  1  0  0  0  0
  9 10  1  1  0  0  0
  9 11  1  0  0  0  0
 11 12  1  6  0  0  0
 11 13  1  0  0  0  0
 13 31  1  0  0  0  0
 14 15  1  0  0  0  0
 15 16  2  0  0  0  0
 15 17  1  0  0  0  0
 17 18  1  0  0  0  0
 18 20  2  0  0  0  0
 19 18  1  6  0  0  0
 19 22  1  0  0  0  0
 19 30  1  0  0  0  0
 21 23  1  1  0  0  0
 21 29  1  0  0  0  0
 21 22  1  0  0  0  0
 23 24  1  0  0  0  0
 24 25  1  6  0  0  0
 24 26  1  0  0  0  0
 26 27  1  6  0  0  0
 26 28  1  0  0  0  0
 29 28  1  1  0  0  0
 29 31  1  0  0  0  0
 30 14  1  1  0  0  0
 30 31  1  0  0  0  0
M  CHG  1   3  -1
M  END
>  <CHROM.1>
-171.61025629,-56.56472740,63.45199662,50.92798328,47.53149027,156.39576470
82.74146809,26.73578006,39.20921842,20.55475484,-2.42174407,-1.34371925,1.57289774

>  <Name>
ligand

>  <RI>
0

>  <Rbt.Current_Directory>
/home/itssahil/PROJECTS/Mol_Feturizer/New_Systems/rnas/3F2Q

>  <Rbt.Executable>
rbdock ($Id: //depot/dev/client3/rdock/2013.1/src/exe/rbdock.cxx#4 $)

>  <Rbt.Library>
libRbt.so (2013.1, Build901 2013/11/27)

>  <Rbt.Parameter_File>
/export/apps/rDock/src/rDock_2013.1_src/data/scripts/dock_solv.prm

>  <Rbt.Receptor>
prm/blind_docking_80.prm

>  <SCORE>
-32.5118

>  <SCORE.INTER>
-28.1019

>  <SCORE.INTER.CONST>
1

>  <SCORE.INTER.POLAR>
0

>  <SCORE.INTER.ROT>
7

>  <SCORE.INTER.SOLV>
20.636

>  <SCORE.INTER.VDW>
-33.8799

>  <SCORE.INTER.norm>
-0.906511

>  <SCORE.INTRA>
-4.40993

>  <SCORE.INTRA.DIHEDRAL>
-5.87956

>  <SCORE.INTRA.DIHEDRAL.0>
10.0718

>  <SCORE.INTRA.POLAR>
0

>  <SCORE.INTRA.POLAR.0>
0

>  <SCORE.INTRA.REPUL>
0

>  <SCORE.INTRA.REPUL.0>
0

>  <SCORE.INTRA.SOLV>
-1.15257

>  <SCORE.INTRA.SOLV.lig_0>
-48.6963

>  <SCORE.INTRA.VDW>
-0.89386

>  <SCORE.INTRA.VDW.0>
-0.836976

>  <SCORE.INTRA.norm>
-0.142256

>  <SCORE.RESTR>
0

>  <SCORE.RESTR.CAVITY>
0

>  <SCORE.RESTR.norm>
0

>  <SCORE.SYSTEM>
0

>  <SCORE.SYSTEM.CONST>
0

>  <SCORE.SYSTEM.DIHEDRAL>
0

>  <SCORE.SYSTEM.SOLV>
0

>  <SCORE.SYSTEM.norm>
0

>  <SCORE.heavy>
31

>  <SCORE.norm>
-1.04877

>  <RMSD>
4.981

$$$$
ligand
 OpenBabel11021811473D
libRbt.so/2013.1/901 2013/11/27
 31 33  0  0  0  0  0  0  0  0999 V2000
   31.5951   36.1895   15.8254 P   0  0  1  0  0  0  0  0  0  0  0  0
   32.7405   36.9288   16.4834 O   0  0  0  0  0  0  0  0  0  0  0  0
   32.1465   35.4405   14.6422 O   0  5  0  0  0  0  0  0  0  0  0  0
   30.9796   35.2174   16.7939 O   0  0  0  0  0  0  0  0  0  0  0  0
   30.1886   38.3408   16.2439 C   0  0  0  0  0  0  0  0  0  0  0  0
   30.4507   37.2322   15.4184 O   0  0  0  0  0  0  0  0  0  0  0  0
   29.3746   37.8853   17.4461 C   0  0  1  0  0  0  0  0  0  0  0  0
   30.2249   37.1808   18.3258 O   0  0  0  0  0  0  0  0  0  0  0  0
   28.7542   39.0897   18.1541 C   0  0  1  0  0  0  0  0  0  0  0  0
   27.9631   39.8204   17.2416 O   0  0  0  0  0  0  0  0  0  0  0  0
   27.9550   38.7230   19.4124 C   0  0  1  0  0  0  0  0  0  0  0  0
   27.0542   37.6777   19.1213 O   0  0  0  0  0  0  0  0  0  0  0  0
   28.8477   38.3038   20.5695 C   0  0  0  0  0  0  0  0  0  0  0  0
   27.7805   35.8881   21.5739 N   0  0  0  0  0  0  0  0  0  0  0  0
   27.3246   34.6755   22.0494 C   0  0  0  0  0  0  0  0  0  0  0  0
   27.4894   33.6482   21.3856 O   0  0  0  0  0  0  0  0  0  0  0  0
   26.6753   34.6206   23.2662 N   0  0  0  0  0  0  0  0  0  0  0  0
   26.4812   35.7713   24.0069 C   0  0  0  0  0  0  0  0  0  0  0  0
   26.9370   36.9849   23.5359 C   0  0  1  0  0  0  0  0  0  0  0  0
   25.9123   35.7351   25.0967 O   0  0  0  0  0  0  0  0  0  0  0  0
   27.1965   39.3393   23.8260 C   0  0  2  0  0  0  0  0  0  0  0  0
   26.7384   38.1239   24.2918 N   0  0  0  0  0  0  0  0  0  0  0  0
   26.9956   40.4894   24.5853 C   0  0  0  0  0  0  0  0  0  0  0  0
   27.4469   41.7209   24.1211 C   0  0  1  0  0  0  0  0  0  0  0  0
   27.2312   42.9512   24.9585 C   0  0  0  0  0  0  0  0  0  0  0  0
   28.1066   41.7970   22.8891 C   0  0  1  0  0  0  0  0  0  0  0  0
   28.6183   43.1083   22.3683 C   0  0  0  0  0  0  0  0  0  0  0  0
   28.3059   40.6454   22.1336 C   0  0  0  0  0  0  0  0  0  0  0  0
   27.8529   39.4111   22.5936 C   0  0  2  0  0  0  0  0  0  0  0  0
   27.5933   37.0455   22.3119 C   0  0  2  0  0  0  0  0  0  0  0  0
   28.0430   38.2620   21.8354 N   0  0  0  0  0  0  0  0  0  0  0  0
  1  2  1  1  0  0  0
  1  3  1  0  0  0  0
  1  4  2  0  0  0  0
  1  6  1  0  0  0  0
  5  6  1  0  0  0  0
  7  5  1  6  0  0  0
  7  8  1  0  0  0  0
  7  9  1  0  0  0  0
  9 10  1  6  0  0  0
  9 11  1  0  0  0  0
 11 12  1  6  0  0  0
 11 13  1  0  0  0  0
 13 31  1  0  0  0  0
 14 15  1  0  0  0  0
 15 16  2  0  0  0  0
 15 17  1  0  0  0  0
 17 18  1  0  0  0  0
 18 20  2  0  0  0  0
 19 18  1  1  0  0  0
 19 22  1  0  0  0  0
 19 30  1  0  0  0  0
 21 23  1  6  0  0  0
 21 29  1  0  0  0  0
 21 22  1  0  0  0  0
 23 24  1  0  0  0  0
 24 25  1  1  0  0  0
 24 26  1  0  0  0  0
 26 27  1  1  0  0  0
 26 28  1  0  0  0  0
 29 28  1  6  0  0  0
 29 31  1  0  0  0  0
 30 14  1  6  0  0  0
 30 31  1  0  0  0  0
M  CHG  1   3  -1
M  END
>  <CHROM.1>
-77.58634105,-35.64693718,74.16525703,56.89341793,-49.62991929,167.30108904
-85.47159907,28.62082577,37.86515593,20.36131318,0.43192882,-1.07456082,-2.97998718

>  <Name>
ligand

>  <RI>
0

>  <Rbt.Current_Directory>
/home/itssahil/PROJECTS/Mol_Feturizer/New_Systems/rnas/3F2Q

>  <Rbt.Executable>
rbdock ($Id: //depot/dev/client3/rdock/2013.1/src/exe/rbdock.cxx#4 $)

>  <Rbt.Library>
libRbt.so (2013.1, Build901 2013/11/27)

>  <Rbt.Parameter_File>
/export/apps/rDock/src/rDock_2013.1_src/data/scripts/dock_solv.prm

>  <Rbt.Receptor>
prm/blind_docking_60.prm

>  <SCORE>
-28.4665

>  <SCORE.INTER>
-25.7973

>  <SCORE.INTER.CONST>
1

>  <SCORE.INTER.POLAR>
0

>  <SCORE.INTER.ROT>
7

>  <SCORE.INTER.SOLV>
12.7201

>  <SCORE.INTER.VDW>
-29.7049

>  <SCORE.INTER.norm>
-0.832172

>  <SCORE.INTRA>
-2.6692

>  <SCORE.INTRA.DIHEDRAL>
-4.65633

>  <SCORE.INTRA.DIHEDRAL.0>
10.0718

>  <SCORE.INTRA.POLAR>
0

>  <SCORE.INTRA.POLAR.0>
0

>  <SCORE.INTRA.REPUL>
0

>  <SCORE.INTRA.REPUL.0>
0

>  <SCORE.INTRA.SOLV>
1.23429

>  <SCORE.INTRA.SOLV.lig_0>
-48.6963

>  <SCORE.INTRA.VDW>
-0.958182

>  <SCORE.INTRA.VDW.0>
-0.836976

>  <SCORE.INTRA.norm>
-0.0861033

>  <SCORE.RESTR>
0

>  <SCORE.RESTR.CAVITY>
0

>  <SCORE.RESTR.norm>
0

>  <SCORE.SYSTEM>
0

>  <SCORE.SYSTEM.CONST>
0

>  <SCORE.SYSTEM.DIHEDRAL>
0

>  <SCORE.SYSTEM.SOLV>
0

>  <SCORE.SYSTEM.norm>
0

>  <SCORE.heavy>
31

>  <SCORE.norm>
-0.918275

>  <RMSD>
4.982

$$$$
ligand
 OpenBabel11021811473D
libRbt.so/2013.1/901 2013/11/27
 31 33  0  0  0  0  0  0  0  0999 V2000
   27.6846   42.1635   16.5804 P   0  0  1  0  0  0  0  0  0  0  0  0
   29.0668   41.9647   15.9958 O   0  0  0  0  0  0  0  0  0  0  0  0
   27.0760   43.3755   15.9280 O   0  5  0  0  0  0  0  0  0  0  0  0
   26.8263   40.9596   16.3055 O   0  0  0  0  0  0  0  0  0  0  0  0
   26.6319   42.2346   18.9612 C   0  0  0  0  0  0  0  0  0  0  0  0
   27.7937   42.3068   18.1711 O   0  0  0  0  0  0  0  0  0  0  0  0
   27.0237   42.2995   20.4302 C   0  0  1  0  0  0  0  0  0  0  0  0
   25.8644   42.1148   21.2147 O   0  0  0  0  0  0  0  0  0  0  0  0
   28.0616   41.2241   20.7506 C   0  0  1  0  0  0  0  0  0  0  0  0
   28.7423   41.5616   21.9403 O   0  0  0  0  0  0  0  0  0  0  0  0
   27.4790   39.8060   20.8275 C   0  0  1  0  0  0  0  0  0  0  0  0
   26.7798   39.5092   19.6393 O   0  0  0  0  0  0  0  0  0  0  0  0
   28.5467   38.7477   21.0550 C   0  0  0  0  0  0  0  0  0  0  0  0
   27.4217   39.1712   23.6120 N   0  0  0  0  0  0  0  0  0  0  0  0
   26.8377   39.4383   24.8335 C   0  0  0  0  0  0  0  0  0  0  0  0
   26.8792   40.5785   25.3040 O   0  0  0  0  0  0  0  0  0  0  0  0
   26.2162   38.4211   25.5293 N   0  0  0  0  0  0  0  0  0  0  0  0
   26.1768   37.1412   25.0088 C   0  0  0  0  0  0  0  0  0  0  0  0
   26.7576   36.8707   23.7874 C   0  0  1  0  0  0  0  0  0  0  0  0
   25.6184   36.2277   25.6141 O   0  0  0  0  0  0  0  0  0  0  0  0
   27.2809   35.3130   22.0569 C   0  0  2  0  0  0  0  0  0  0  0  0
   26.7045   35.5868   23.2804 N   0  0  0  0  0  0  0  0  0  0  0  0
   27.2304   34.0189   21.5446 C   0  0  0  0  0  0  0  0  0  0  0  0
   27.8152   33.7307   20.3154 C   0  0  1  0  0  0  0  0  0  0  0  0
   27.7422   32.3305   19.7719 C   0  0  0  0  0  0  0  0  0  0  0  0
   28.4509   34.7486   19.5954 C   0  0  1  0  0  0  0  0  0  0  0  0
   29.0778   34.4725   18.2600 C   0  0  0  0  0  0  0  0  0  0  0  0
   28.4986   36.0406   20.1106 C   0  0  0  0  0  0  0  0  0  0  0  0
   27.9171   36.3324   21.3421 C   0  0  2  0  0  0  0  0  0  0  0  0
   27.3833   37.8920   23.0816 C   0  0  2  0  0  0  0  0  0  0  0  0
   27.9727   37.6202   21.8618 N   0  0  0  0  0  0  0  0  0  0  0  0
  1  2  1  6  0  0  0
  1  3  1  0  0  0  0
  1  4  2  0  0  0  0
  1  6  1  0  0  0  0
  5  6  1  0  0  0  0
  7  5  1  6  0  0  0
  7  8  1  0  0  0  0
  7  9  1  0  0  0  0
  9 10  1  1  0  0  0
  9 11  1  0  0  0  0
 11 12  1  6  0  0  0
 11 13  1  0  0  0  0
 13 31  1  0  0  0  0
 14 15  1  0  0  0  0
 15 16  2  0  0  0  0
 15 17  1  0  0  0  0
 17 18  1  0  0  0  0
 18 20  2  0  0  0  0
 19 18  1  6  0  0  0
 19 22  1  0  0  0  0
 19 30  1  0  0  0  0
 21 23  1  1  0  0  0
 21 29  1  0  0  0  0
 21 22  1  0  0  0  0
 23 24  1  0  0  0  0
 24 25  1  6  0  0  0
 24 26  1  0  0  0  0
 26 27  1  6  0  0  0
 26 28  1  0  0  0  0
 29 28  1  1  0  0  0
 29 31  1  0  0  0  0
 30 14  1  1  0  0  0
 30 31  1  0  0  0  0
M  CHG  1   3  -1
M  END
>  <CHROM.1>
175.98245027,-167.42660516,-175.18877169,160.24333357,54.28757385,147.98253554
118.77130528,27.40931945,38.82290598,20.78763231,-1.31454578,-1.35870758
2.67535946

>  <Name>
ligand

>  <RI>
0

>  <Rbt.Current_Directory>
/home/itssahil/PROJECTS/Mol_Feturizer/New_Systems/rnas/3F2Q

>  <Rbt.Executable>
rbdock ($Id: //depot/dev/client3/rdock/2013.1/src/exe/rbdock.cxx#4 $)

>  <Rbt.Library>
libRbt.so (2013.1, Build901 2013/11/27)

>  <Rbt.Parameter_File>
/export/apps/rDock/src/rDock_2013.1_src/data/scripts/dock_solv.prm

>  <Rbt.Receptor>
prm/pocket_docking_4.prm

>  <SCORE>
-31.167

>  <SCORE.INTER>
-28.3511

>  <SCORE.INTER.CONST>
1

>  <SCORE.INTER.POLAR>
0

>  <SCORE.INTER.ROT>
7

>  <SCORE.INTER.SOLV>
21.947

>  <SCORE.INTER.VDW>
-34.483

>  <SCORE.INTER.norm>
-0.914551

>  <SCORE.INTRA>
-2.81596

>  <SCORE.INTRA.DIHEDRAL>
-3.99032

>  <SCORE.INTRA.DIHEDRAL.0>
10.0718

>  <SCORE.INTRA.POLAR>
0

>  <SCORE.INTRA.POLAR.0>
0

>  <SCORE.INTRA.REPUL>
0

>  <SCORE.INTRA.REPUL.0>
0

>  <SCORE.INTRA.SOLV>
0.0677013

>  <SCORE.INTRA.SOLV.lig_0>
-48.6963

>  <SCORE.INTRA.VDW>
-0.854653

>  <SCORE.INTRA.VDW.0>
-0.836976

>  <SCORE.INTRA.norm>
-0.0908374

>  <SCORE.RESTR>
0

>  <SCORE.RESTR.CAVITY>
0

>  <SCORE.RESTR.norm>
0

>  <SCORE.SYSTEM>
0

>  <SCORE.SYSTEM.CONST>
0

>  <SCORE.SYSTEM.DIHEDRAL>
0

>  <SCORE.SYSTEM.SOLV>
0

>  <SCORE.SYSTEM.norm>
0

>  <SCORE.heavy>
31

>  <SCORE.norm>
-1.00539

>  <RMSD>
4.984

$$$$
ligand
 OpenBabel11021811473D
libRbt.so/2013.1/901 2013/11/27
 31 33  0  0  0  0  0  0  0  0999 V2000
   24.8290   42.8520   16.8778 P   0  0  1  0  0  0  0  0  0  0  0  0
   23.7746   42.7327   17.9574 O   0  0  0  0  0  0  0  0  0  0  0  0
   24.1239   42.9916   15.5556 O   0  5  0  0  0  0  0  0  0  0  0  0
   25.6868   44.0631   17.1211 O   0  0  0  0  0  0  0  0  0  0  0  0
   26.3764   41.1907   18.1534 C   0  0  0  0  0  0  0  0  0  0  0  0
   25.7946   41.5764   16.9319 O   0  0  0  0  0  0  0  0  0  0  0  0
   27.5150   40.2195   17.8782 C   0  0  1  0  0  0  0  0  0  0  0  0
   28.1561   40.6039   16.6804 O   0  0  0  0  0  0  0  0  0  0  0  0
   28.5085   40.2235   19.0400 C   0  0  1  0  0  0  0  0  0  0  0  0
   28.3513   41.4062   19.7942 O   0  0  0  0  0  0  0  0  0  0  0  0
   28.4192   38.9788   19.9340 C   0  0  1  0  0  0  0  0  0  0  0  0
   29.4572   38.9979   20.8885 O   0  0  0  0  0  0  0  0  0  0  0  0
   27.0835   38.8705   20.6522 C   0  0  0  0  0  0  0  0  0  0  0  0
   26.8978   39.7079   23.3443 N   0  0  0  0  0  0  0  0  0  0  0  0
   26.7489   40.1595   24.6398 C   0  0  0  0  0  0  0  0  0  0  0  0
   26.6216   41.3664   24.8645 O   0  0  0  0  0  0  0  0  0  0  0  0
   26.7531   39.2547   25.6822 N   0  0  0  0  0  0  0  0  0  0  0  0
   26.9052   37.9035   25.4338 C   0  0  0  0  0  0  0  0  0  0  0  0
   27.0523   37.4481   24.1401 C   0  0  1  0  0  0  0  0  0  0  0  0
   26.9016   37.0858   26.3524 O   0  0  0  0  0  0  0  0  0  0  0  0
   27.3419   35.6339   22.6172 C   0  0  2  0  0  0  0  0  0  0  0  0
   27.1984   36.0939   23.9102 N   0  0  0  0  0  0  0  0  0  0  0  0
   27.4913   34.2691   22.3829 C   0  0  0  0  0  0  0  0  0  0  0  0
   27.6443   33.7958   21.0836 C   0  0  1  0  0  0  0  0  0  0  0  0
   27.7938   32.3182   20.8475 C   0  0  0  0  0  0  0  0  0  0  0  0
   27.6437   34.6978   20.0135 C   0  0  1  0  0  0  0  0  0  0  0  0
   27.7915   34.2168   18.5995 C   0  0  0  0  0  0  0  0  0  0  0  0
   27.4934   36.0608   20.2517 C   0  0  0  0  0  0  0  0  0  0  0  0
   27.3430   36.5388   21.5513 C   0  0  2  0  0  0  0  0  0  0  0  0
   27.0469   38.3550   23.0865 C   0  0  2  0  0  0  0  0  0  0  0  0
   27.2026   37.9005   21.7910 N   0  0  0  0  0  0  0  0  0  0  0  0
  1  2  1  1  0  0  0
  1  3  1  0  0  0  0
  1  4  2  0  0  0  0
  1  6  1  0  0  0  0
  5  6  1  0  0  0  0
  7  5  1  1  0  0  0
  7  8  1  0  0  0  0
  7  9  1  0  0  0  0
  9 10  1  1  0  0  0
  9 11  1  0  0  0  0
 11 12  1  1  0  0  0
 11 13  1  0  0  0  0
 13 31  1  0  0  0  0
 14 15  1  0  0  0  0
 15 16  2  0  0  0  0
 15 17  1  0  0  0  0
 17 18  1  0  0  0  0
 18 20  2  0  0  0  0
 19 18  1  6  0  0  0
 19 22  1  0  0  0  0
 19 30  1  0  0  0  0
 21 23  1  1  0  0  0
 21 29  1  0  0  0  0
 21 22  1  0  0  0  0
 23 24  1  0  0  0  0
 24 25  1  6  0  0  0
 24 26  1  0  0  0  0
 26 27  1  6  0  0  0
 26 28  1  0  0  0  0
 29 28  1  1  0  0  0
 29 31  1  0  0  0  0
 30 14  1  1  0  0  0
 30 31  1  0  0  0  0
M  CHG  1   3  -1
M  END
>  <CHROM.1>
-164.78757160,-50.66380783,35.60167048,-19.74309824,173.83636846,-163.19415895
-70.43590774,26.91301720,38.95540417,20.63474477,2.48497537,1.31728112,-1.66519552

>  <Name>
ligand

>  <RI>
0

>  <Rbt.Current_Directory>
/home/itssahil/PROJECTS/Mol_Feturizer/New_Systems/rnas/3F2Q

>  <Rbt.Executable>
rbdock ($Id: //depot/dev/client3/rdock/2013.1/src/exe/rbdock.cxx#4 $)

>  <Rbt.Library>
libRbt.so (2013.1, Build901 2013/11/27)

>  <Rbt.Parameter_File>
/export/apps/rDock/src/rDock_2013.1_src/data/scripts/dock_solv.prm

>  <Rbt.Receptor>
prm/pocket_docking_5.prm

>  <SCORE>
-21.4678

>  <SCORE.INTER>
-21.6601

>  <SCORE.INTER.CONST>
1

>  <SCORE.INTER.POLAR>
0

>  <SCORE.INTER.ROT>
7

>  <SCORE.INTER.SOLV>
18.1378

>  <SCORE.INTER.VDW>
-28.7527

>  <SCORE.INTER.norm>
-0.698713

>  <SCORE.INTRA>
0.192334

>  <SCORE.INTRA.DIHEDRAL>
-0.484844

>  <SCORE.INTRA.DIHEDRAL.0>
10.0718

>  <SCORE.INTRA.POLAR>
0

>  <SCORE.INTRA.POLAR.0>
0

>  <SCORE.INTRA.REPUL>
0

>  <SCORE.INTRA.REPUL.0>
0

>  <SCORE.INTRA.SOLV>
-1.23483

>  <SCORE.INTRA.SOLV.lig_0>
-48.6963

>  <SCORE.INTRA.VDW>
1.05217

>  <SCORE.INTRA.VDW.0>
-0.836976

>  <SCORE.INTRA.norm>
0.00620433

>  <SCORE.RESTR>
0

>  <SCORE.RESTR.CAVITY>
0

>  <SCORE.RESTR.norm>
0

>  <SCORE.SYSTEM>
0

>  <SCORE.SYSTEM.CONST>
0

>  <SCORE.SYSTEM.DIHEDRAL>
0

>  <SCORE.SYSTEM.SOLV>
0

>  <SCORE.SYSTEM.norm>
0

>  <SCORE.heavy>
31

>  <SCORE.norm>
-0.692508

>  <RMSD>
4.987

$$$$
ligand
 OpenBabel11021811473D
libRbt.so/2013.1/901 2013/11/27
 31 33  0  0  0  0  0  0  0  0999 V2000
   32.1587   36.1483   16.5780 P   0  0  1  0  0  0  0  0  0  0  0  0
   31.8009   37.2210   15.5715 O   0  0  0  0  0  0  0  0  0  0  0  0
   32.6854   34.9596   15.8201 O   0  5  0  0  0  0  0  0  0  0  0  0
   33.2162   36.6528   17.5209 O   0  0  0  0  0  0  0  0  0  0  0  0
   30.2374   36.8078   18.2075 C   0  0  0  0  0  0  0  0  0  0  0  0
   30.8720   35.7967   17.4631 O   0  0  0  0  0  0  0  0  0  0  0  0
   29.4711   37.7182   17.2592 C   0  0  1  0  0  0  0  0  0  0  0  0
   28.3501   37.0154   16.7666 O   0  0  0  0  0  0  0  0  0  0  0  0
   29.0277   38.9882   17.9852 C   0  0  1  0  0  0  0  0  0  0  0  0
   28.3476   39.8362   17.0847 O   0  0  0  0  0  0  0  0  0  0  0  0
   28.1851   38.7208   19.2401 C   0  0  1  0  0  0  0  0  0  0  0  0
   27.2530   37.6941   18.9827 O   0  0  0  0  0  0  0  0  0  0  0  0
   29.0331   38.3343   20.4413 C   0  0  0  0  0  0  0  0  0  0  0  0
   28.0226   35.8595   21.3564 N   0  0  0  0  0  0  0  0  0  0  0  0
   27.5966   34.6211   21.7916 C   0  0  0  0  0  0  0  0  0  0  0  0
   27.8432   33.6118   21.1255 O   0  0  0  0  0  0  0  0  0  0  0  0
   26.8852   34.5200   22.9701 N   0  0  0  0  0  0  0  0  0  0  0  0
   26.5994   35.6501   23.7128 C   0  0  0  0  0  0  0  0  0  0  0  0
   27.0252   36.8894   23.2821 C   0  0  1  0  0  0  0  0  0  0  0  0
   25.9743   35.5731   24.7691 O   0  0  0  0  0  0  0  0  0  0  0  0
   27.1623   39.2485   23.6143 C   0  0  2  0  0  0  0  0  0  0  0  0
   26.7347   38.0075   24.0396 N   0  0  0  0  0  0  0  0  0  0  0  0
   26.8689   40.3776   24.3752 C   0  0  0  0  0  0  0  0  0  0  0  0
   27.2889   41.6344   23.9513 C   0  0  1  0  0  0  0  0  0  0  0  0
   26.9729   42.8417   24.7904 C   0  0  0  0  0  0  0  0  0  0  0  0
   28.0105   41.7574   22.7585 C   0  0  1  0  0  0  0  0  0  0  0  0
   28.4903   43.0975   22.2824 C   0  0  0  0  0  0  0  0  0  0  0  0
   28.3022   40.6267   22.0013 C   0  0  0  0  0  0  0  0  0  0  0  0
   27.8809   39.3671   22.4208 C   0  0  2  0  0  0  0  0  0  0  0  0
   27.7437   36.9967   22.0969 C   0  0  2  0  0  0  0  0  0  0  0  0
   28.1634   38.2386   21.6604 N   0  0  0  0  0  0  0  0  0  0  0  0
  1  2  1  6  0  0  0
  1  3  1  0  0  0  0
  1  4  2  0  0  0  0
  1  6  1  0  0  0  0
  5  6  1  0  0  0  0
  7  5  1  1  0  0  0
  7  8  1  0  0  0  0
  7  9  1  0  0  0  0
  9 10  1  6  0  0  0
  9 11  1  0  0  0  0
 11 12  1  6  0  0  0
 11 13  1  0  0  0  0
 13 31  1  0  0  0  0
 14 15  1  0  0  0  0
 15 16  2  0  0  0  0
 15 17  1  0  0  0  0
 17 18  1  0  0  0  0
 18 20  2  0  0  0  0
 19 18  1  1  0  0  0
 19 22  1  0  0  0  0
 19 30  1  0  0  0  0
 21 23  1  6  0  0  0
 21 29  1  0  0  0  0
 21 22  1  0  0  0  0
 23 24  1  0  0  0  0
 24 25  1  1  0  0  0
 24 26  1  0  0  0  0
 26 27  1  1  0  0  0
 26 28  1  0  0  0  0
 29 28  1  6  0  0  0
 29 31  1  0  0  0  0
 30 14  1  6  0  0  0
 30 31  1  0  0  0  0
M  CHG  1   3  -1
M  END
>  <CHROM.1>
73.41028599,-58.30593931,71.18529787,178.56634495,-42.26682176,173.73541537
-85.86514401,28.74502997,37.75736553,20.38386290,-0.40899184,1.01126311,0.06923901

>  <Name>
ligand

>  <RI>
0

>  <Rbt.Current_Directory>
/home/itssahil/PROJECTS/Mol_Feturizer/New_Systems/rnas/3F2Q

>  <Rbt.Executable>
rbdock ($Id: //depot/dev/client3/rdock/2013.1/src/exe/rbdock.cxx#4 $)

>  <Rbt.Library>
libRbt.so (2013.1, Build901 2013/11/27)

>  <Rbt.Parameter_File>
/export/apps/rDock/src/rDock_2013.1_src/data/scripts/dock_solv.prm

>  <Rbt.Receptor>
prm/pocket_docking_7.prm

>  <SCORE>
-27.7167

>  <SCORE.INTER>
-24.8759

>  <SCORE.INTER.CONST>
1

>  <SCORE.INTER.POLAR>
0

>  <SCORE.INTER.ROT>
7

>  <SCORE.INTER.SOLV>
14.9569

>  <SCORE.INTER.VDW>
-29.8362

>  <SCORE.INTER.norm>
-0.80245

>  <SCORE.INTRA>
-2.8408

>  <SCORE.INTRA.DIHEDRAL>
-6.09178

>  <SCORE.INTRA.DIHEDRAL.0>
10.0718

>  <SCORE.INTRA.POLAR>
0

>  <SCORE.INTRA.POLAR.0>
0

>  <SCORE.INTRA.REPUL>
0

>  <SCORE.INTRA.REPUL.0>
0

>  <SCORE.INTRA.SOLV>
0.00366034

>  <SCORE.INTRA.SOLV.lig_0>
-48.6963

>  <SCORE.INTRA.VDW>
0.203263

>  <SCORE.INTRA.VDW.0>
-0.836976

>  <SCORE.INTRA.norm>
-0.0916386

>  <SCORE.RESTR>
0

>  <SCORE.RESTR.CAVITY>
0

>  <SCORE.RESTR.norm>
0

>  <SCORE.SYSTEM>
0

>  <SCORE.SYSTEM.CONST>
0

>  <SCORE.SYSTEM.DIHEDRAL>
0

>  <SCORE.SYSTEM.SOLV>
0

>  <SCORE.SYSTEM.norm>
0

>  <SCORE.heavy>
31

>  <SCORE.norm>
-0.894088

>  <RMSD>
4.991

$$$$
ligand
 OpenBabel11021811473D
libRbt.so/2013.1/901 2013/11/27
 31 33  0  0  0  0  0  0  0  0999 V2000
   25.3353   44.0461   16.1002 P   0  0  1  0  0  0  0  0  0  0  0  0
   24.0720   43.9841   15.2685 O   0  0  0  0  0  0  0  0  0  0  0  0
   26.4989   43.7324   15.1988 O   0  5  0  0  0  0  0  0  0  0  0  0
   25.5066   45.4221   16.6827 O   0  0  0  0  0  0  0  0  0  0  0  0
   26.3780   42.5603   17.9675 C   0  0  0  0  0  0  0  0  0  0  0  0
   25.2145   43.0291   17.3305 O   0  0  0  0  0  0  0  0  0  0  0  0
   25.9833   41.6207   19.0973 C   0  0  1  0  0  0  0  0  0  0  0  0
   25.0629   40.6745   18.5963 O   0  0  0  0  0  0  0  0  0  0  0  0
   27.2189   40.9173   19.6588 C   0  0  1  0  0  0  0  0  0  0  0  0
   27.9595   41.8206   20.4514 O   0  0  0  0  0  0  0  0  0  0  0  0
   26.8996   39.6313   20.4338 C   0  0  1  0  0  0  0  0  0  0  0  0
   26.3857   38.6559   19.5544 O   0  0  0  0  0  0  0  0  0  0  0  0
   28.1145   39.0651   21.1512 C   0  0  0  0  0  0  0  0  0  0  0  0
   27.1433   39.7382   23.7178 N   0  0  0  0  0  0  0  0  0  0  0  0
   26.6285   40.1212   24.9396 C   0  0  0  0  0  0  0  0  0  0  0  0
   26.6246   41.3118   25.2645 O   0  0  0  0  0  0  0  0  0  0  0  0
   26.1276   39.1641   25.7989 N   0  0  0  0  0  0  0  0  0  0  0  0
   26.1397   37.8291   25.4411 C   0  0  0  0  0  0  0  0  0  0  0  0
   26.6516   37.4426   24.2200 C   0  0  1  0  0  0  0  0  0  0  0  0
   25.6884   36.9672   26.1934 O   0  0  0  0  0  0  0  0  0  0  0  0
   27.1588   35.7141   22.6548 C   0  0  2  0  0  0  0  0  0  0  0  0
   26.6512   36.1044   23.8771 N   0  0  0  0  0  0  0  0  0  0  0  0
   27.1614   34.3653   22.3077 C   0  0  0  0  0  0  0  0  0  0  0  0
   27.6777   33.9605   21.0807 C   0  0  1  0  0  0  0  0  0  0  0  0
   27.6630   32.5013   20.7173 C   0  0  0  0  0  0  0  0  0  0  0  0
   28.1911   34.9160   20.1964 C   0  0  1  0  0  0  0  0  0  0  0  0
   28.7412   34.5124   18.8595 C   0  0  0  0  0  0  0  0  0  0  0  0
   28.1861   36.2629   20.5467 C   0  0  0  0  0  0  0  0  0  0  0  0
   27.6727   36.6718   21.7753 C   0  0  2  0  0  0  0  0  0  0  0  0
   27.1556   38.4026   23.3500 C   0  0  2  0  0  0  0  0  0  0  0  0
   27.6762   38.0155   22.1300 N   0  0  0  0  0  0  0  0  0  0  0  0
  1  2  1  6  0  0  0
  1  3  1  0  0  0  0
  1  4  2  0  0  0  0
  1  6  1  0  0  0  0
  5  6  1  0  0  0  0
  7  5  1  6  0  0  0
  7  8  1  0  0  0  0
  7  9  1  0  0  0  0
  9 10  1  1  0  0  0
  9 11  1  0  0  0  0
 11 12  1  6  0  0  0
 11 13  1  0  0  0  0
 13 31  1  0  0  0  0
 14 15  1  0  0  0  0
 15 16  2  0  0  0  0
 15 17  1  0  0  0  0
 17 18  1  0  0  0  0
 18 20  2  0  0  0  0
 19 18  1  6  0  0  0
 19 22  1  0  0  0  0
 19 30  1  0  0  0  0
 21 23  1  1  0  0  0
 21 29  1  0  0  0  0
 21 22  1  0  0  0  0
 23 24  1  0  0  0  0
 24 25  1  6  0  0  0
 24 26  1  0  0  0  0
 26 27  1  6  0  0  0
 26 28  1  0  0  0  0
 29 28  1  1  0  0  0
 29 31  1  0  0  0  0
 30 14  1  1  0  0  0
 30 31  1  0  0  0  0
M  CHG  1   3  -1
M  END
>  <CHROM.1>
179.76205456,158.21162374,49.53192571,74.84413941,66.55618117,166.92075757
94.72608510,26.65623056,39.37718229,20.66577739,-2.30111041,-1.32985814,1.70404450

>  <Name>
ligand

>  <RI>
0

>  <Rbt.Current_Directory>
/home/itssahil/PROJECTS/Mol_Feturizer/New_Systems/rnas/3F2Q

>  <Rbt.Executable>
rbdock ($Id: //depot/dev/client3/rdock/2013.1/src/exe/rbdock.cxx#4 $)

>  <Rbt.Library>
libRbt.so (2013.1, Build901 2013/11/27)

>  <Rbt.Parameter_File>
/export/apps/rDock/src/rDock_2013.1_src/data/scripts/dock_solv.prm

>  <Rbt.Receptor>
prm/blind_docking_80.prm

>  <SCORE>
-31.9439

>  <SCORE.INTER>
-27.4917

>  <SCORE.INTER.CONST>
1

>  <SCORE.INTER.POLAR>
0

>  <SCORE.INTER.ROT>
7

>  <SCORE.INTER.SOLV>
23.3249

>  <SCORE.INTER.VDW>
-34.3694

>  <SCORE.INTER.norm>
-0.886828

>  <SCORE.INTRA>
-4.45227

>  <SCORE.INTRA.DIHEDRAL>
-6.29625

>  <SCORE.INTRA.DIHEDRAL.0>
10.0718

>  <SCORE.INTRA.POLAR>
0

>  <SCORE.INTRA.POLAR.0>
0

>  <SCORE.INTRA.REPUL>
0

>  <SCORE.INTRA.REPUL.0>
0

>  <SCORE.INTRA.SOLV>
-0.760504

>  <SCORE.INTRA.SOLV.lig_0>
-48.6963

>  <SCORE.INTRA.VDW>
-0.923894

>  <SCORE.INTRA.VDW.0>
-0.836976

>  <SCORE.INTRA.norm>
-0.143622

>  <SCORE.RESTR>
0

>  <SCORE.RESTR.CAVITY>
0

>  <SCORE.RESTR.norm>
0

>  <SCORE.SYSTEM>
0

>  <SCORE.SYSTEM.CONST>
0

>  <SCORE.SYSTEM.DIHEDRAL>
0

>  <SCORE.SYSTEM.SOLV>
0

>  <SCORE.SYSTEM.norm>
0

>  <SCORE.heavy>
31

>  <SCORE.norm>
-1.03045

>  <RMSD>
4.993

$$$$
ligand
 OpenBabel11021811473D
libRbt.so/2013.1/901 2013/11/27
 31 33  0  0  0  0  0  0  0  0999 V2000
   26.3298   42.7733   16.5926 P   0  0  1  0  0  0  0  0  0  0  0  0
   27.1852   43.8193   15.9102 O   0  0  0  0  0  0  0  0  0  0  0  0
   24.8880   43.0934   16.3028 O   0  5  0  0  0  0  0  0  0  0  0  0
   26.6584   41.4056   16.0603 O   0  0  0  0  0  0  0  0  0  0  0  0
   25.7568   42.1497   19.0552 C   0  0  0  0  0  0  0  0  0  0  0  0
   26.6564   42.7563   18.1596 O   0  0  0  0  0  0  0  0  0  0  0  0
   26.3380   42.2069   20.4603 C   0  0  1  0  0  0  0  0  0  0  0  0
   25.3223   41.8731   21.3824 O   0  0  0  0  0  0  0  0  0  0  0  0
   27.5138   41.2383   20.5880 C   0  0  1  0  0  0  0  0  0  0  0  0
   28.3117   41.6044   21.6934 O   0  0  0  0  0  0  0  0  0  0  0  0
   27.0942   39.7640   20.6701 C   0  0  1  0  0  0  0  0  0  0  0  0
   26.5252   39.3579   19.4453 O   0  0  0  0  0  0  0  0  0  0  0  0
   28.2563   38.8443   21.0091 C   0  0  0  0  0  0  0  0  0  0  0  0
   27.3028   39.4998   23.5868 N   0  0  0  0  0  0  0  0  0  0  0  0
   26.7978   39.8754   24.8150 C   0  0  0  0  0  0  0  0  0  0  0  0
   26.8189   41.0610   25.1572 O   0  0  0  0  0  0  0  0  0  0  0  0
   26.2786   38.9165   25.6612 N   0  0  0  0  0  0  0  0  0  0  0  0
   26.2627   37.5868   25.2840 C   0  0  0  0  0  0  0  0  0  0  0  0
   26.7647   37.2077   24.0565 C   0  0  1  0  0  0  0  0  0  0  0  0
   25.7948   36.7235   26.0245 O   0  0  0  0  0  0  0  0  0  0  0  0
   27.2339   35.4921   22.4655 C   0  0  2  0  0  0  0  0  0  0  0  0
   26.7363   35.8750   23.6943 N   0  0  0  0  0  0  0  0  0  0  0  0
   27.2083   34.1487   22.0988 C   0  0  0  0  0  0  0  0  0  0  0  0
   27.7144   33.7513   20.8653 C   0  0  1  0  0  0  0  0  0  0  0  0
   27.6691   32.2982   20.4807 C   0  0  0  0  0  0  0  0  0  0  0  0
   28.2460   34.7088   19.9940 C   0  0  1  0  0  0  0  0  0  0  0  0
   28.7858   34.3135   18.6505 C   0  0  0  0  0  0  0  0  0  0  0  0
   28.2693   36.0503   20.3638 C   0  0  0  0  0  0  0  0  0  0  0  0
   27.7662   36.4517   21.5991 C   0  0  2  0  0  0  0  0  0  0  0  0
   27.2871   38.1697   23.1997 C   0  0  2  0  0  0  0  0  0  0  0  0
   27.7978   37.7898   21.9733 N   0  0  0  0  0  0  0  0  0  0  0  0
  1  2  1  6  0  0  0
  1  3  1  0  0  0  0
  1  4  2  0  0  0  0
  1  6  1  0  0  0  0
  5  6  1  0  0  0  0
  7  5  1  6  0  0  0
  7  8  1  0  0  0  0
  7  9  1  0  0  0  0
  9 10  1  1  0  0  0
  9 11  1  0  0  0  0
 11 12  1  6  0  0  0
 11 13  1  0  0  0  0
 13 31  1  0  0  0  0
 14 15  1  0  0  0  0
 15 16  2  0  0  0  0
 15 17  1  0  0  0  0
 17 18  1  0  0  0  0
 18 20  2  0  0  0  0
 19 18  1  6  0  0  0
 19 22  1  0  0  0  0
 19 30  1  0  0  0  0
 21 23  1  1  0  0  0
 21 29  1  0  0  0  0
 21 22  1  0  0  0  0
 23 24  1  0  0  0  0
 24 25  1  6  0  0  0
 24 26  1  0  0  0  0
 26 27  1  6  0  0  0
 26 28  1  0  0  0  0
 29 28  1  1  0  0  0
 29 31  1  0  0  0  0
 30 14  1  1  0  0  0
 30 31  1  0  0  0  0
M  CHG  1   3  -1
M  END
>  <CHROM.1>
177.00957648,162.57937974,167.19781746,160.40050661,66.90983370,139.76821551
114.35358559,26.96090398,39.05738439,20.92112898,-2.07260394,-1.36935343
1.96229918

>  <Name>
ligand

>  <RI>
0

>  <Rbt.Current_Directory>
/home/itssahil/PROJECTS/Mol_Feturizer/New_Systems/rnas/3F2Q

>  <Rbt.Executable>
rbdock ($Id: //depot/dev/client3/rdock/2013.1/src/exe/rbdock.cxx#4 $)

>  <Rbt.Library>
libRbt.so (2013.1, Build901 2013/11/27)

>  <Rbt.Parameter_File>
/export/apps/rDock/src/rDock_2013.1_src/data/scripts/dock_solv.prm

>  <Rbt.Receptor>
prm/pocket_docking_7.prm

>  <SCORE>
-31.418

>  <SCORE.INTER>
-28.6084

>  <SCORE.INTER.CONST>
1

>  <SCORE.INTER.POLAR>
0

>  <SCORE.INTER.ROT>
7

>  <SCORE.INTER.SOLV>
19.6109

>  <SCORE.INTER.VDW>
-33.8759

>  <SCORE.INTER.norm>
-0.922851

>  <SCORE.INTRA>
-2.80961

>  <SCORE.INTRA.DIHEDRAL>
-2.2737

>  <SCORE.INTRA.DIHEDRAL.0>
10.0718

>  <SCORE.INTRA.POLAR>
0

>  <SCORE.INTRA.POLAR.0>
0

>  <SCORE.INTRA.REPUL>
0

>  <SCORE.INTRA.REPUL.0>
0

>  <SCORE.INTRA.SOLV>
-0.323168

>  <SCORE.INTRA.SOLV.lig_0>
-48.6963

>  <SCORE.INTRA.VDW>
-1.51117

>  <SCORE.INTRA.VDW.0>
-0.836976

>  <SCORE.INTRA.norm>
-0.0906325

>  <SCORE.RESTR>
0

>  <SCORE.RESTR.CAVITY>
0

>  <SCORE.RESTR.norm>
0

>  <SCORE.SYSTEM>
0

>  <SCORE.SYSTEM.CONST>
0

>  <SCORE.SYSTEM.DIHEDRAL>
0

>  <SCORE.SYSTEM.SOLV>
0

>  <SCORE.SYSTEM.norm>
0

>  <SCORE.heavy>
31

>  <SCORE.norm>
-1.01348

>  <RMSD>
4.993

$$$$
ligand
 OpenBabel11021811473D
libRbt.so/2013.1/901 2013/11/27
 31 33  0  0  0  0  0  0  0  0999 V2000
   26.2982   43.3493   16.4244 P   0  0  1  0  0  0  0  0  0  0  0  0
   26.0949   44.6996   17.0778 O   0  0  0  0  0  0  0  0  0  0  0  0
   25.2409   42.4164   16.9507 O   0  5  0  0  0  0  0  0  0  0  0  0
   26.1652   43.4695   14.9312 O   0  0  0  0  0  0  0  0  0  0  0  0
   28.1996   42.6242   18.0494 C   0  0  0  0  0  0  0  0  0  0  0  0
   27.7834   42.8310   16.7215 O   0  0  0  0  0  0  0  0  0  0  0  0
   27.5403   41.3629   18.5875 C   0  0  1  0  0  0  0  0  0  0  0  0
   28.1848   40.2409   18.0226 O   0  0  0  0  0  0  0  0  0  0  0  0
   27.6376   41.3223   20.1124 C   0  0  1  0  0  0  0  0  0  0  0  0
   26.9652   42.4359   20.6603 O   0  0  0  0  0  0  0  0  0  0  0  0
   27.1332   40.0103   20.7294 C   0  0  1  0  0  0  0  0  0  0  0  0
   26.1292   39.4504   19.9125 O   0  0  0  0  0  0  0  0  0  0  0  0
   28.2444   38.9909   20.9227 C   0  0  0  0  0  0  0  0  0  0  0  0
   27.3213   39.6812   23.5024 N   0  0  0  0  0  0  0  0  0  0  0  0
   26.8304   40.0732   24.7311 C   0  0  0  0  0  0  0  0  0  0  0  0
   26.8494   41.2641   25.0546 O   0  0  0  0  0  0  0  0  0  0  0  0
   26.3277   39.1248   25.5988 N   0  0  0  0  0  0  0  0  0  0  0  0
   26.3142   37.7893   25.2426 C   0  0  0  0  0  0  0  0  0  0  0  0
   26.8022   37.3939   24.0146 C   0  0  1  0  0  0  0  0  0  0  0  0
   25.8609   36.9352   26.0024 O   0  0  0  0  0  0  0  0  0  0  0  0
   27.2599   35.6563   22.4442 C   0  0  2  0  0  0  0  0  0  0  0  0
   26.7764   36.0555   23.6733 N   0  0  0  0  0  0  0  0  0  0  0  0
   27.2369   34.3072   22.0987 C   0  0  0  0  0  0  0  0  0  0  0  0
   27.7290   33.8935   20.8648 C   0  0  1  0  0  0  0  0  0  0  0  0
   27.6867   32.4343   20.5034 C   0  0  0  0  0  0  0  0  0  0  0  0
   28.2438   34.8401   19.9719 C   0  0  1  0  0  0  0  0  0  0  0  0
   28.7680   34.4269   18.6276 C   0  0  0  0  0  0  0  0  0  0  0  0
   28.2644   36.1873   20.3206 C   0  0  0  0  0  0  0  0  0  0  0  0
   27.7754   36.6052   21.5561 C   0  0  2  0  0  0  0  0  0  0  0  0
   27.3079   38.3452   23.1361 C   0  0  2  0  0  0  0  0  0  0  0  0
   27.8045   37.9491   21.9091 N   0  0  0  0  0  0  0  0  0  0  0  0
  1  2  1  1  0  0  0
  1  3  1  0  0  0  0
  1  4  2  0  0  0  0
  1  6  1  0  0  0  0
  5  6  1  0  0  0  0
  7  5  1  6  0  0  0
  7  8  1  0  0  0  0
  7  9  1  0  0  0  0
  9 10  1  1  0  0  0
  9 11  1  0  0  0  0
 11 12  1  6  0  0  0
 11 13  1  0  0  0  0
 13 31  1  0  0  0  0
 14 15  1  0  0  0  0
 15 16  2  0  0  0  0
 15 17  1  0  0  0  0
 17 18  1  0  0  0  0
 18 20  2  0  0  0  0
 19 18  1  6  0  0  0
 19 22  1  0  0  0  0
 19 30  1  0  0  0  0
 21 23  1  1  0  0  0
 21 29  1  0  0  0  0
 21 22  1  0  0  0  0
 23 24  1  0  0  0  0
 24 25  1  6  0  0  0
 24 26  1  0  0  0  0
 26 27  1  6  0  0  0
 26 28  1  0  0  0  0
 29 28  1  1  0  0  0
 29 31  1  0  0  0  0
 30 14  1  1  0  0  0
 30 31  1  0  0  0  0
M  CHG  1   3  -1
M  END
>  <CHROM.1>
73.64686941,60.54201014,75.09161635,61.09745185,-29.40093940,161.55051865
122.04061235,27.12343404,39.25013832,20.62053866,-1.86112225,-1.37185988
2.14095673

>  <Name>
ligand

>  <RI>
0

>  <Rbt.Current_Directory>
/home/itssahil/PROJECTS/Mol_Feturizer/New_Systems/rnas/3F2Q

>  <Rbt.Executable>
rbdock ($Id: //depot/dev/client3/rdock/2013.1/src/exe/rbdock.cxx#4 $)

>  <Rbt.Library>
libRbt.so (2013.1, Build901 2013/11/27)

>  <Rbt.Parameter_File>
/export/apps/rDock/src/rDock_2013.1_src/data/scripts/dock_solv.prm

>  <Rbt.Receptor>
prm/blind_docking_100.prm

>  <SCORE>
-30.0933

>  <SCORE.INTER>
-28.0741

>  <SCORE.INTER.CONST>
1

>  <SCORE.INTER.POLAR>
0

>  <SCORE.INTER.ROT>
7

>  <SCORE.INTER.SOLV>
21.3477

>  <SCORE.INTER.VDW>
-34.0987

>  <SCORE.INTER.norm>
-0.905617

>  <SCORE.INTRA>
-2.01913

>  <SCORE.INTRA.DIHEDRAL>
-3.19101

>  <SCORE.INTRA.DIHEDRAL.0>
10.0718

>  <SCORE.INTRA.POLAR>
0

>  <SCORE.INTRA.POLAR.0>
0

>  <SCORE.INTRA.REPUL>
0

>  <SCORE.INTRA.REPUL.0>
0

>  <SCORE.INTRA.SOLV>
1.04662

>  <SCORE.INTRA.SOLV.lig_0>
-48.6963

>  <SCORE.INTRA.VDW>
-0.946936

>  <SCORE.INTRA.VDW.0>
-0.836976

>  <SCORE.INTRA.norm>
-0.0651332

>  <SCORE.RESTR>
0

>  <SCORE.RESTR.CAVITY>
0

>  <SCORE.RESTR.norm>
0

>  <SCORE.SYSTEM>
0

>  <SCORE.SYSTEM.CONST>
0

>  <SCORE.SYSTEM.DIHEDRAL>
0

>  <SCORE.SYSTEM.SOLV>
0

>  <SCORE.SYSTEM.norm>
0

>  <SCORE.heavy>
31

>  <SCORE.norm>
-0.97075

>  <RMSD>
4.996

$$$$
ligand
 OpenBabel11021811473D
libRbt.so/2013.1/901 2013/11/27
 31 33  0  0  0  0  0  0  0  0999 V2000
   26.2209   43.4686   16.8093 P   0  0  1  0  0  0  0  0  0  0  0  0
   27.1773   43.8711   15.7071 O   0  0  0  0  0  0  0  0  0  0  0  0
   25.3555   44.6578   17.1284 O   0  5  0  0  0  0  0  0  0  0  0  0
   25.3567   42.3247   16.3550 O   0  0  0  0  0  0  0  0  0  0  0  0
   26.4108   42.1974   19.0742 C   0  0  0  0  0  0  0  0  0  0  0  0
   27.0531   42.9520   18.0755 O   0  0  0  0  0  0  0  0  0  0  0  0
   27.4291   41.8059   20.1350 C   0  0  1  0  0  0  0  0  0  0  0  0
   27.7810   42.9592   20.8696 O   0  0  0  0  0  0  0  0  0  0  0  0
   26.8459   40.7400   21.0626 C   0  0  1  0  0  0  0  0  0  0  0  0
   25.5322   41.1004   21.4323 O   0  0  0  0  0  0  0  0  0  0  0  0
   26.8888   39.3213   20.4780 C   0  0  1  0  0  0  0  0  0  0  0  0
   26.8117   39.3793   19.0710 O   0  0  0  0  0  0  0  0  0  0  0  0
   28.1445   38.5629   20.8775 C   0  0  0  0  0  0  0  0  0  0  0  0
   27.5442   39.5519   23.4553 N   0  0  0  0  0  0  0  0  0  0  0  0
   27.2073   40.0863   24.6822 C   0  0  0  0  0  0  0  0  0  0  0  0
   27.2614   41.3060   24.8627 O   0  0  0  0  0  0  0  0  0  0  0  0
   26.8194   39.2480   25.7079 N   0  0  0  0  0  0  0  0  0  0  0  0
   26.7673   37.8809   25.5109 C   0  0  0  0  0  0  0  0  0  0  0  0
   27.1014   37.3432   24.2854 C   0  0  1  0  0  0  0  0  0  0  0  0
   26.4147   37.1234   26.4133 O   0  0  0  0  0  0  0  0  0  0  0  0
   27.3687   35.4335   22.8795 C   0  0  2  0  0  0  0  0  0  0  0  0
   27.0390   35.9750   24.1051 N   0  0  0  0  0  0  0  0  0  0  0  0
   27.3085   34.0542   22.6959 C   0  0  0  0  0  0  0  0  0  0  0  0
   27.6461   33.4976   21.4663 C   0  0  1  0  0  0  0  0  0  0  0  0
   27.5654   32.0073   21.2819 C   0  0  0  0  0  0  0  0  0  0  0  0
   28.0429   34.3312   20.4144 C   0  0  1  0  0  0  0  0  0  0  0  0
   28.3988   33.7622   19.0720 C   0  0  0  0  0  0  0  0  0  0  0  0
   28.1011   35.7090   20.6018 C   0  0  0  0  0  0  0  0  0  0  0  0
   27.7668   36.2698   21.8322 C   0  0  2  0  0  0  0  0  0  0  0  0
   27.4910   38.1831   23.2485 C   0  0  2  0  0  0  0  0  0  0  0  0
   27.8339   37.6448   22.0230 N   0  0  0  0  0  0  0  0  0  0  0  0
  1  2  1  6  0  0  0
  1  3  1  0  0  0  0
  1  4  2  0  0  0  0
  1  6  1  0  0  0  0
  5  6  1  0  0  0  0
  7  5  1  6  0  0  0
  7  8  1  0  0  0  0
  7  9  1  0  0  0  0
  9 10  1  6  0  0  0
  9 11  1  0  0  0  0
 11 12  1  6  0  0  0
 11 13  1  0  0  0  0
 13 31  1  0  0  0  0
 14 15  1  0  0  0  0
 15 16  2  0  0  0  0
 15 17  1  0  0  0  0
 17 18  1  0  0  0  0
 18 20  2  0  0  0  0
 19 18  1  6  0  0  0
 19 22  1  0  0  0  0
 19 30  1  0  0  0  0
 21 23  1  1  0  0  0
 21 29  1  0  0  0  0
 21 22  1  0  0  0  0
 23 24  1  0  0  0  0
 24 25  1  6  0  0  0
 24 26  1  0  0  0  0
 26 27  1  6  0  0  0
 26 28  1  0  0  0  0
 29 28  1  1  0  0  0
 29 31  1  0  0  0  0
 30 14  1  1  0  0  0
 30 31  1  0  0  0  0
M  CHG  1   3  -1
M  END
>  <CHROM.1>
178.50917899,-162.97834004,71.29379528,-45.19167854,-29.33448858,99.28897780
107.71681395,27.04954164,39.16597111,21.05324412,-2.47782110,-1.43016328
1.62268130

>  <Name>
ligand

>  <RI>
0

>  <Rbt.Current_Directory>
/home/itssahil/PROJECTS/Mol_Feturizer/New_Systems/rnas/3F2Q

>  <Rbt.Executable>
rbdock ($Id: //depot/dev/client3/rdock/2013.1/src/exe/rbdock.cxx#4 $)

>  <Rbt.Library>
libRbt.so (2013.1, Build901 2013/11/27)

>  <Rbt.Parameter_File>
/export/apps/rDock/src/rDock_2013.1_src/data/scripts/dock_solv.prm

>  <Rbt.Receptor>
prm/pocket_docking_5.prm

>  <SCORE>
-28.5151

>  <SCORE.INTER>
-27.6835

>  <SCORE.INTER.CONST>
1

>  <SCORE.INTER.POLAR>
0

>  <SCORE.INTER.ROT>
7

>  <SCORE.INTER.SOLV>
20.0122

>  <SCORE.INTER.VDW>
-33.3931

>  <SCORE.INTER.norm>
-0.893017

>  <SCORE.INTRA>
-0.831624

>  <SCORE.INTRA.DIHEDRAL>
-0.633171

>  <SCORE.INTRA.DIHEDRAL.0>
10.0718

>  <SCORE.INTRA.POLAR>
0

>  <SCORE.INTRA.POLAR.0>
0

>  <SCORE.INTRA.REPUL>
0

>  <SCORE.INTRA.REPUL.0>
0

>  <SCORE.INTRA.SOLV>
-0.668056

>  <SCORE.INTRA.SOLV.lig_0>
-48.6963

>  <SCORE.INTRA.VDW>
-0.18101

>  <SCORE.INTRA.VDW.0>
-0.836976

>  <SCORE.INTRA.norm>
-0.0268266

>  <SCORE.RESTR>
0

>  <SCORE.RESTR.CAVITY>
0

>  <SCORE.RESTR.norm>
0

>  <SCORE.SYSTEM>
0

>  <SCORE.SYSTEM.CONST>
0

>  <SCORE.SYSTEM.DIHEDRAL>
0

>  <SCORE.SYSTEM.SOLV>
0

>  <SCORE.SYSTEM.norm>
0

>  <SCORE.heavy>
31

>  <SCORE.norm>
-0.919843

>  <RMSD>
4.997

$$$$
ligand
 OpenBabel11021811473D
libRbt.so/2013.1/901 2013/11/27
 31 33  0  0  0  0  0  0  0  0999 V2000
   32.7658   34.2830   15.7034 P   0  0  1  0  0  0  0  0  0  0  0  0
   32.3136   32.8486   15.8755 O   0  0  0  0  0  0  0  0  0  0  0  0
   34.2630   34.2811   15.5496 O   0  5  0  0  0  0  0  0  0  0  0  0
   32.1347   34.8830   14.4772 O   0  0  0  0  0  0  0  0  0  0  0  0
   32.3274   36.5559   16.8964 C   0  0  0  0  0  0  0  0  0  0  0  0
   32.2740   35.1513   16.9551 O   0  0  0  0  0  0  0  0  0  0  0  0
   31.6794   37.1318   18.1469 C   0  0  1  0  0  0  0  0  0  0  0  0
   31.8311   38.5354   18.1280 O   0  0  0  0  0  0  0  0  0  0  0  0
   30.1985   36.7560   18.1983 C   0  0  1  0  0  0  0  0  0  0  0  0
   30.0649   35.3510   18.1774 O   0  0  0  0  0  0  0  0  0  0  0  0
   29.4465   37.3677   19.3885 C   0  0  1  0  0  0  0  0  0  0  0  0
   29.5221   38.7748   19.3323 O   0  0  0  0  0  0  0  0  0  0  0  0
   27.9857   36.9485   19.4339 C   0  0  0  0  0  0  0  0  0  0  0  0
   28.0298   34.1657   18.9463 N   0  0  0  0  0  0  0  0  0  0  0  0
   28.1114   32.8172   18.6650 C   0  0  0  0  0  0  0  0  0  0  0  0
   28.2470   32.4345   17.4995 O   0  0  0  0  0  0  0  0  0  0  0  0
   28.0305   31.8999   19.6932 N   0  0  0  0  0  0  0  0  0  0  0  0
   27.8690   32.3258   20.9982 C   0  0  0  0  0  0  0  0  0  0  0  0
   27.7891   33.6729   21.2836 C   0  0  1  0  0  0  0  0  0  0  0  0
   27.8046   31.5196   21.9247 O   0  0  0  0  0  0  0  0  0  0  0  0
   27.5561   35.4274   22.8842 C   0  0  2  0  0  0  0  0  0  0  0  0
   27.6325   34.0805   22.5941 N   0  0  0  0  0  0  0  0  0  0  0  0
   27.3961   35.8408   24.2046 C   0  0  0  0  0  0  0  0  0  0  0  0
   27.3104   37.1962   24.5069 C   0  0  1  0  0  0  0  0  0  0  0  0
   27.1485   37.6258   25.9389 C   0  0  0  0  0  0  0  0  0  0  0  0
   27.3892   38.1415   23.4778 C   0  0  1  0  0  0  0  0  0  0  0  0
   27.3151   39.6111   23.7735 C   0  0  0  0  0  0  0  0  0  0  0  0
   27.5497   37.7243   22.1598 C   0  0  0  0  0  0  0  0  0  0  0  0
   27.6329   36.3682   21.8528 C   0  0  2  0  0  0  0  0  0  0  0  0
   27.8718   34.6010   20.2520 C   0  0  2  0  0  0  0  0  0  0  0  0
   27.7835   35.9504   20.5359 N   0  0  0  0  0  0  0  0  0  0  0  0
  1  2  1  1  0  0  0
  1  3  1  0  0  0  0
  1  4  2  0  0  0  0
  1  6  1  0  0  0  0
  5  6  1  0  0  0  0
  7  5  1  6  0  0  0
  7  8  1  0  0  0  0
  7  9  1  0  0  0  0
  9 10  1  1  0  0  0
  9 11  1  0  0  0  0
 11 12  1  6  0  0  0
 11 13  1  0  0  0  0
 13 31  1  0  0  0  0
 14 15  1  0  0  0  0
 15 16  2  0  0  0  0
 15 17  1  0  0  0  0
 17 18  1  0  0  0  0
 18 20  2  0  0  0  0
 19 18  1  1  0  0  0
 19 22  1  0  0  0  0
 19 30  1  0  0  0  0
 21 23  1  6  0  0  0
 21 29  1  0  0  0  0
 21 22  1  0  0  0  0
 23 24  1  0  0  0  0
 24 25  1  1  0  0  0
 24 26  1  0  0  0  0
 26 27  1  1  0  0  0
 26 28  1  0  0  0  0
 29 28  1  6  0  0  0
 29 31  1  0  0  0  0
 30 14  1  6  0  0  0
 30 31  1  0  0  0  0
M  CHG  1   3  -1
M  END
>  <CHROM.1>
174.43220321,-166.80080116,175.47375100,58.22288013,59.58739299,106.14052641
81.37660957,29.45884323,35.42922453,19.60083888,-0.52334097,0.88352792,0.38650881

>  <Name>
ligand

>  <RI>
0

>  <Rbt.Current_Directory>
/home/itssahil/PROJECTS/Mol_Feturizer/New_Systems/rnas/3F2Q

>  <Rbt.Executable>
rbdock ($Id: //depot/dev/client3/rdock/2013.1/src/exe/rbdock.cxx#4 $)

>  <Rbt.Library>
libRbt.so (2013.1, Build901 2013/11/27)

>  <Rbt.Parameter_File>
/export/apps/rDock/src/rDock_2013.1_src/data/scripts/dock_solv.prm

>  <Rbt.Receptor>
prm/blind_docking_100.prm

>  <SCORE>
-31.883

>  <SCORE.INTER>
-29.4799

>  <SCORE.INTER.CONST>
1

>  <SCORE.INTER.POLAR>
0

>  <SCORE.INTER.ROT>
7

>  <SCORE.INTER.SOLV>
16.1657

>  <SCORE.INTER.VDW>
-33.3085

>  <SCORE.INTER.norm>
-0.950964

>  <SCORE.INTRA>
-2.40312

>  <SCORE.INTRA.DIHEDRAL>
-3.82438

>  <SCORE.INTRA.DIHEDRAL.0>
10.0718

>  <SCORE.INTRA.POLAR>
0

>  <SCORE.INTRA.POLAR.0>
0

>  <SCORE.INTRA.REPUL>
0

>  <SCORE.INTRA.REPUL.0>
0

>  <SCORE.INTRA.SOLV>
0.181177

>  <SCORE.INTRA.SOLV.lig_0>
-48.6963

>  <SCORE.INTRA.VDW>
-0.581512

>  <SCORE.INTRA.VDW.0>
-0.836976

>  <SCORE.INTRA.norm>
-0.0775199

>  <SCORE.RESTR>
0

>  <SCORE.RESTR.CAVITY>
0

>  <SCORE.RESTR.norm>
0

>  <SCORE.SYSTEM>
0

>  <SCORE.SYSTEM.CONST>
0

>  <SCORE.SYSTEM.DIHEDRAL>
0

>  <SCORE.SYSTEM.SOLV>
0

>  <SCORE.SYSTEM.norm>
0

>  <SCORE.heavy>
31

>  <SCORE.norm>
-1.02848

>  <RMSD>
4.998

$$$$
ligand
 OpenBabel11021811473D
libRbt.so/2013.1/901 2013/11/27
 31 33  0  0  0  0  0  0  0  0999 V2000
   25.0803   44.5334   16.5877 P   0  0  1  0  0  0  0  0  0  0  0  0
   25.6950   45.7631   17.2213 O   0  0  0  0  0  0  0  0  0  0  0  0
   23.7223   44.9135   16.0617 O   0  5  0  0  0  0  0  0  0  0  0  0
   25.9411   44.0477   15.4542 O   0  0  0  0  0  0  0  0  0  0  0  0
   26.1975   42.6876   18.0459 C   0  0  0  0  0  0  0  0  0  0  0  0
   25.0171   43.3524   17.6665 O   0  0  0  0  0  0  0  0  0  0  0  0
   25.8704   41.6712   19.1300 C   0  0  1  0  0  0  0  0  0  0  0  0
   24.8819   40.7907   18.6392 O   0  0  0  0  0  0  0  0  0  0  0  0
   27.1264   40.8954   19.5266 C   0  0  1  0  0  0  0  0  0  0  0  0
   28.0007   41.7422   20.2415 O   0  0  0  0  0  0  0  0  0  0  0  0
   26.8361   39.6079   20.3104 C   0  0  1  0  0  0  0  0  0  0  0  0
   26.2412   38.6524   19.4606 O   0  0  0  0  0  0  0  0  0  0  0  0
   28.0868   39.0098   20.9345 C   0  0  0  0  0  0  0  0  0  0  0  0
   27.1821   39.6502   23.5335 N   0  0  0  0  0  0  0  0  0  0  0  0
   26.6980   40.0167   24.7728 C   0  0  0  0  0  0  0  0  0  0  0  0
   26.6824   41.2051   25.1052 O   0  0  0  0  0  0  0  0  0  0  0  0
   26.2411   39.0457   25.6409 N   0  0  0  0  0  0  0  0  0  0  0  0
   26.2665   37.7131   25.2746 C   0  0  0  0  0  0  0  0  0  0  0  0
   26.7479   37.3431   24.0360 C   0  0  1  0  0  0  0  0  0  0  0  0
   25.8541   36.8388   26.0348 O   0  0  0  0  0  0  0  0  0  0  0  0
   27.2384   35.6332   22.4453 C   0  0  2  0  0  0  0  0  0  0  0  0
   26.7614   36.0071   23.6849 N   0  0  0  0  0  0  0  0  0  0  0  0
   27.2549   34.2867   22.0898 C   0  0  0  0  0  0  0  0  0  0  0  0
   27.7409   33.8985   20.8453 C   0  0  1  0  0  0  0  0  0  0  0  0
   27.7416   32.4414   20.4732 C   0  0  0  0  0  0  0  0  0  0  0  0
   28.2096   34.8683   19.9517 C   0  0  1  0  0  0  0  0  0  0  0  0
   28.7259   34.4825   18.5963 C   0  0  0  0  0  0  0  0  0  0  0  0
   28.1908   36.2128   20.3105 C   0  0  0  0  0  0  0  0  0  0  0  0
   27.7078   36.6052   21.5566 C   0  0  2  0  0  0  0  0  0  0  0  0
   27.2075   38.3172   23.1572 C   0  0  2  0  0  0  0  0  0  0  0  0
   27.6976   37.9467   21.9195 N   0  0  0  0  0  0  0  0  0  0  0  0
  1  2  1  1  0  0  0
  1  3  1  0  0  0  0
  1  4  2  0  0  0  0
  1  6  1  0  0  0  0
  5  6  1  0  0  0  0
  7  5  1  6  0  0  0
  7  8  1  0  0  0  0
  7  9  1  0  0  0  0
  9 10  1  1  0  0  0
  9 11  1  0  0  0  0
 11 12  1  6  0  0  0
 11 13  1  0  0  0  0
 13 31  1  0  0  0  0
 14 15  1  0  0  0  0
 15 16  2  0  0  0  0
 15 17  1  0  0  0  0
 17 18  1  0  0  0  0
 18 20  2  0  0  0  0
 19 18  1  6  0  0  0
 19 22  1  0  0  0  0
 19 30  1  0  0  0  0
 21 23  1  1  0  0  0
 21 29  1  0  0  0  0
 21 22  1  0  0  0  0
 23 24  1  0  0  0  0
 24 25  1  6  0  0  0
 24 26  1  0  0  0  0
 26 27  1  6  0  0  0
 26 28  1  0  0  0  0
 29 28  1  1  0  0  0
 29 31  1  0  0  0  0
 30 14  1  1  0  0  0
 30 31  1  0  0  0  0
M  CHG  1   3  -1
M  END
>  <CHROM.1>
176.93460419,-73.27100503,56.73981394,70.85729833,69.87155929,167.62765497
97.63407284,26.61752529,39.43836730,20.64083256,-2.43681864,-1.31491632,1.67362663

>  <Name>
ligand

>  <RI>
0

>  <Rbt.Current_Directory>
/home/itssahil/PROJECTS/Mol_Feturizer/New_Systems/rnas/3F2Q

>  <Rbt.Executable>
rbdock ($Id: //depot/dev/client3/rdock/2013.1/src/exe/rbdock.cxx#4 $)

>  <Rbt.Library>
libRbt.so (2013.1, Build901 2013/11/27)

>  <Rbt.Parameter_File>
/export/apps/rDock/src/rDock_2013.1_src/data/scripts/dock_solv.prm

>  <Rbt.Receptor>
prm/pocket_docking_7.prm

>  <SCORE>
-33.6269

>  <SCORE.INTER>
-28.4883

>  <SCORE.INTER.CONST>
1

>  <SCORE.INTER.POLAR>
0

>  <SCORE.INTER.ROT>
7

>  <SCORE.INTER.SOLV>
20.6239

>  <SCORE.INTER.VDW>
-34.1335

>  <SCORE.INTER.norm>
-0.918979

>  <SCORE.INTRA>
-5.13857

>  <SCORE.INTRA.DIHEDRAL>
-7.23312

>  <SCORE.INTRA.DIHEDRAL.0>
10.0718

>  <SCORE.INTRA.POLAR>
0

>  <SCORE.INTRA.POLAR.0>
0

>  <SCORE.INTRA.REPUL>
0

>  <SCORE.INTRA.REPUL.0>
0

>  <SCORE.INTRA.SOLV>
-1.19634

>  <SCORE.INTRA.SOLV.lig_0>
-48.6963

>  <SCORE.INTRA.VDW>
-0.923842

>  <SCORE.INTRA.VDW.0>
-0.836976

>  <SCORE.INTRA.norm>
-0.16576

>  <SCORE.RESTR>
0

>  <SCORE.RESTR.CAVITY>
0

>  <SCORE.RESTR.norm>
0

>  <SCORE.SYSTEM>
0

>  <SCORE.SYSTEM.CONST>
0

>  <SCORE.SYSTEM.DIHEDRAL>
0

>  <SCORE.SYSTEM.SOLV>
0

>  <SCORE.SYSTEM.norm>
0

>  <SCORE.heavy>
31

>  <SCORE.norm>
-1.08474

>  <RMSD>
4.999

$$$$
ligand
 OpenBabel11021811473D
libRbt.so/2013.1/901 2013/11/27
 31 33  0  0  0  0  0  0  0  0999 V2000
   26.1311   42.7450   16.8409 P   0  0  1  0  0  0  0  0  0  0  0  0
   27.2779   43.3798   17.5981 O   0  0  0  0  0  0  0  0  0  0  0  0
   25.0045   43.7414   16.7863 O   0  5  0  0  0  0  0  0  0  0  0  0
   26.5619   42.3953   15.4431 O   0  0  0  0  0  0  0  0  0  0  0  0
   25.0538   41.4103   18.8004 C   0  0  0  0  0  0  0  0  0  0  0  0
   25.7116   41.3762   17.5573 O   0  0  0  0  0  0  0  0  0  0  0  0
   25.9997   41.9766   19.8492 C   0  0  1  0  0  0  0  0  0  0  0  0
   25.3047   42.0816   21.0737 O   0  0  0  0  0  0  0  0  0  0  0  0
   27.2219   41.0718   20.0054 C   0  0  1  0  0  0  0  0  0  0  0  0
   28.1893   41.7158   20.8065 O   0  0  0  0  0  0  0  0  0  0  0  0
   26.8914   39.6748   20.5491 C   0  0  1  0  0  0  0  0  0  0  0  0
   26.2972   38.8937   19.5364 O   0  0  0  0  0  0  0  0  0  0  0  0
   28.1174   38.9508   21.0822 C   0  0  0  0  0  0  0  0  0  0  0  0
   27.1994   39.6194   23.6694 N   0  0  0  0  0  0  0  0  0  0  0  0
   26.7103   40.0005   24.9023 C   0  0  0  0  0  0  0  0  0  0  0  0
   26.7191   41.1899   25.2316 O   0  0  0  0  0  0  0  0  0  0  0  0
   26.2210   39.0429   25.7676 N   0  0  0  0  0  0  0  0  0  0  0  0
   26.2190   37.7092   25.4048 C   0  0  0  0  0  0  0  0  0  0  0  0
   26.7052   37.3245   24.1727 C   0  0  1  0  0  0  0  0  0  0  0  0
   25.7776   36.8469   26.1625 O   0  0  0  0  0  0  0  0  0  0  0  0
   27.1728   35.5993   22.5917 C   0  0  2  0  0  0  0  0  0  0  0  0
   26.6910   35.9877   23.8250 N   0  0  0  0  0  0  0  0  0  0  0  0
   27.1615   34.2518   22.2397 C   0  0  0  0  0  0  0  0  0  0  0  0
   27.6519   33.8489   21.0016 C   0  0  1  0  0  0  0  0  0  0  0  0
   27.6224   32.3912   20.6331 C   0  0  0  0  0  0  0  0  0  0  0  0
   28.1533   34.8050   20.1109 C   0  0  1  0  0  0  0  0  0  0  0  0
   28.6753   34.4034   18.7623 C   0  0  0  0  0  0  0  0  0  0  0  0
   28.1622   36.1505   20.4662 C   0  0  0  0  0  0  0  0  0  0  0  0
   27.6749   36.5575   21.7059 C   0  0  2  0  0  0  0  0  0  0  0  0
   27.1975   38.2851   23.2966 C   0  0  2  0  0  0  0  0  0  0  0  0
   27.6923   37.8999   22.0654 N   0  0  0  0  0  0  0  0  0  0  0  0
  1  2  1  1  0  0  0
  1  3  1  0  0  0  0
  1  4  2  0  0  0  0
  1  6  1  0  0  0  0
  5  6  1  0  0  0  0
  7  5  1  6  0  0  0
  7  8  1  0  0  0  0
  7  9  1  0  0  0  0
  9 10  1  1  0  0  0
  9 11  1  0  0  0  0
 11 12  1  6  0  0  0
 11 13  1  0  0  0  0
 13 31  1  0  0  0  0
 14 15  1  0  0  0  0
 15 16  2  0  0  0  0
 15 17  1  0  0  0  0
 17 18  1  0  0  0  0
 18 20  2  0  0  0  0
 19 18  1  6  0  0  0
 19 22  1  0  0  0  0
 19 30  1  0  0  0  0
 21 23  1  1  0  0  0
 21 29  1  0  0  0  0
 21 22  1  0  0  0  0
 23 24  1  0  0  0  0
 24 25  1  6  0  0  0
 24 26  1  0  0  0  0
 26 27  1  6  0  0  0
 26 28  1  0  0  0  0
 29 28  1  1  0  0  0
 29 31  1  0  0  0  0
 30 14  1  1  0  0  0
 30 31  1  0  0  0  0
M  CHG  1   3  -1
M  END
>  <CHROM.1>
-65.84511190,71.19712109,176.50910600,170.19672792,75.22195114,157.15936842
103.43078385,26.81473555,39.06885325,20.94911360,-2.13791535,-1.35475727
1.88621835

>  <Name>
ligand

>  <RI>
0

>  <Rbt.Current_Directory>
/home/itssahil/PROJECTS/Mol_Feturizer/New_Systems/rnas/3F2Q

>  <Rbt.Executable>
rbdock ($Id: //depot/dev/client3/rdock/2013.1/src/exe/rbdock.cxx#4 $)

>  <Rbt.Library>
libRbt.so (2013.1, Build901 2013/11/27)

>  <Rbt.Parameter_File>
/export/apps/rDock/src/rDock_2013.1_src/data/scripts/dock_solv.prm

>  <Rbt.Receptor>
prm/pocket_docking_5.prm

>  <SCORE>
-32.6006

>  <SCORE.INTER>
-28.5086

>  <SCORE.INTER.CONST>
1

>  <SCORE.INTER.POLAR>
0

>  <SCORE.INTER.ROT>
7

>  <SCORE.INTER.SOLV>
19.0712

>  <SCORE.INTER.VDW>
-33.6295

>  <SCORE.INTER.norm>
-0.919631

>  <SCORE.INTRA>
-4.09201

>  <SCORE.INTRA.DIHEDRAL>
-5.67614

>  <SCORE.INTRA.DIHEDRAL.0>
10.0718

>  <SCORE.INTRA.POLAR>
0

>  <SCORE.INTRA.POLAR.0>
0

>  <SCORE.INTRA.REPUL>
0

>  <SCORE.INTRA.REPUL.0>
0

>  <SCORE.INTRA.SOLV>
-0.128842

>  <SCORE.INTRA.SOLV.lig_0>
-48.6963

>  <SCORE.INTRA.VDW>
-1.18952

>  <SCORE.INTRA.VDW.0>
-0.836976

>  <SCORE.INTRA.norm>
-0.132

>  <SCORE.RESTR>
0

>  <SCORE.RESTR.CAVITY>
0

>  <SCORE.RESTR.norm>
0

>  <SCORE.SYSTEM>
0

>  <SCORE.SYSTEM.CONST>
0

>  <SCORE.SYSTEM.DIHEDRAL>
0

>  <SCORE.SYSTEM.SOLV>
0

>  <SCORE.SYSTEM.norm>
0

>  <SCORE.heavy>
31

>  <SCORE.norm>
-1.05163

>  <RMSD>
5.004

$$$$
ligand
 OpenBabel11021811473D
libRbt.so/2013.1/901 2013/11/27
 31 33  0  0  0  0  0  0  0  0999 V2000
   25.4554   43.6912   16.4595 P   0  0  1  0  0  0  0  0  0  0  0  0
   25.2089   45.1764   16.3012 O   0  0  0  0  0  0  0  0  0  0  0  0
   24.3444   42.9600   15.7552 O   0  5  0  0  0  0  0  0  0  0  0  0
   26.7749   43.3151   15.8439 O   0  0  0  0  0  0  0  0  0  0  0  0
   26.1838   42.1424   18.4223 C   0  0  0  0  0  0  0  0  0  0  0  0
   25.5450   43.3283   18.0161 O   0  0  0  0  0  0  0  0  0  0  0  0
   26.3082   42.1379   19.9388 C   0  0  1  0  0  0  0  0  0  0  0  0
   25.0931   41.6761   20.4897 O   0  0  0  0  0  0  0  0  0  0  0  0
   27.4664   41.2399   20.3736 C   0  0  1  0  0  0  0  0  0  0  0  0
   28.0987   41.7966   21.5062 O   0  0  0  0  0  0  0  0  0  0  0  0
   27.0572   39.7822   20.6265 C   0  0  1  0  0  0  0  0  0  0  0  0
   26.4527   39.2458   19.4707 O   0  0  0  0  0  0  0  0  0  0  0  0
   28.2340   38.9063   21.0257 C   0  0  0  0  0  0  0  0  0  0  0  0
   27.2900   39.5739   23.6038 N   0  0  0  0  0  0  0  0  0  0  0  0
   26.7899   39.9555   24.8321 C   0  0  0  0  0  0  0  0  0  0  0  0
   26.8170   41.1421   25.1705 O   0  0  0  0  0  0  0  0  0  0  0  0
   26.2687   39.0015   25.6825 N   0  0  0  0  0  0  0  0  0  0  0  0
   26.2460   37.6707   25.3095 C   0  0  0  0  0  0  0  0  0  0  0  0
   26.7432   37.2856   24.0819 C   0  0  1  0  0  0  0  0  0  0  0  0
   25.7763   36.8117   26.0539 O   0  0  0  0  0  0  0  0  0  0  0  0
   27.2008   35.5631   22.4950 C   0  0  2  0  0  0  0  0  0  0  0  0
   26.7080   35.9519   23.7239 N   0  0  0  0  0  0  0  0  0  0  0  0
   27.1683   34.2187   22.1325 C   0  0  0  0  0  0  0  0  0  0  0  0
   27.6696   33.8153   20.8989 C   0  0  1  0  0  0  0  0  0  0  0  0
   27.6170   32.3613   20.5189 C   0  0  0  0  0  0  0  0  0  0  0  0
   28.2031   34.7679   20.0233 C   0  0  1  0  0  0  0  0  0  0  0  0
   28.7376   34.3660   18.6796 C   0  0  0  0  0  0  0  0  0  0  0  0
   28.2331   36.1103   20.3890 C   0  0  0  0  0  0  0  0  0  0  0  0
   27.7350   36.5177   21.6243 C   0  0  2  0  0  0  0  0  0  0  0  0
   27.2676   38.2427   23.2208 C   0  0  2  0  0  0  0  0  0  0  0  0
   27.7734   37.8568   21.9943 N   0  0  0  0  0  0  0  0  0  0  0  0
  1  2  1  6  0  0  0
  1  3  1  0  0  0  0
  1  4  2  0  0  0  0
  1  6  1  0  0  0  0
  5  6  1  0  0  0  0
  7  5  1  6  0  0  0
  7  8  1  0  0  0  0
  7  9  1  0  0  0  0
  9 10  1  1  0  0  0
  9 11  1  0  0  0  0
 11 12  1  6  0  0  0
 11 13  1  0  0  0  0
 13 31  1  0  0  0  0
 14 15  1  0  0  0  0
 15 16  2  0  0  0  0
 15 17  1  0  0  0  0
 17 18  1  0  0  0  0
 18 20  2  0  0  0  0
 19 18  1  6  0  0  0
 19 22  1  0  0  0  0
 19 30  1  0  0  0  0
 21 23  1  1  0  0  0
 21 29  1  0  0  0  0
 21 22  1  0  0  0  0
 23 24  1  0  0  0  0
 24 25  1  6  0  0  0
 24 26  1  0  0  0  0
 26 27  1  6  0  0  0
 26 28  1  0  0  0  0
 29 28  1  1  0  0  0
 29 31  1  0  0  0  0
 30 14  1  1  0  0  0
 30 31  1  0  0  0  0
M  CHG  1   3  -1
M  END
>  <CHROM.1>
171.86679859,-159.33463736,83.13668561,144.43542613,56.78344229,146.29139718
111.18927113,26.75167929,39.28743909,20.82761276,-2.40472718,-1.34750794
1.66319195

>  <Name>
ligand

>  <RI>
0

>  <Rbt.Current_Directory>
/home/itssahil/PROJECTS/Mol_Feturizer/New_Systems/rnas/3F2Q

>  <Rbt.Executable>
rbdock ($Id: //depot/dev/client3/rdock/2013.1/src/exe/rbdock.cxx#4 $)

>  <Rbt.Library>
libRbt.so (2013.1, Build901 2013/11/27)

>  <Rbt.Parameter_File>
/export/apps/rDock/src/rDock_2013.1_src/data/scripts/dock_solv.prm

>  <Rbt.Receptor>
prm/pocket_docking_7.prm

>  <SCORE>
-30.2186

>  <SCORE.INTER>
-28.8557

>  <SCORE.INTER.CONST>
1

>  <SCORE.INTER.POLAR>
0

>  <SCORE.INTER.ROT>
7

>  <SCORE.INTER.SOLV>
19.8168

>  <SCORE.INTER.VDW>
-34.1094

>  <SCORE.INTER.norm>
-0.930828

>  <SCORE.INTRA>
-1.36289

>  <SCORE.INTRA.DIHEDRAL>
0.420255

>  <SCORE.INTRA.DIHEDRAL.0>
10.0718

>  <SCORE.INTRA.POLAR>
0

>  <SCORE.INTRA.POLAR.0>
0

>  <SCORE.INTRA.REPUL>
0

>  <SCORE.INTRA.REPUL.0>
0

>  <SCORE.INTRA.SOLV>
-0.793439

>  <SCORE.INTRA.SOLV.lig_0>
-48.6963

>  <SCORE.INTRA.VDW>
-1.1763

>  <SCORE.INTRA.VDW.0>
-0.836976

>  <SCORE.INTRA.norm>
-0.0439642

>  <SCORE.RESTR>
0

>  <SCORE.RESTR.CAVITY>
0

>  <SCORE.RESTR.norm>
0

>  <SCORE.SYSTEM>
0

>  <SCORE.SYSTEM.CONST>
0

>  <SCORE.SYSTEM.DIHEDRAL>
0

>  <SCORE.SYSTEM.SOLV>
0

>  <SCORE.SYSTEM.norm>
0

>  <SCORE.heavy>
31

>  <SCORE.norm>
-0.974793

>  <RMSD>
5.007

$$$$
ligand
 OpenBabel11021811473D
libRbt.so/2013.1/901 2013/11/27
 31 33  0  0  0  0  0  0  0  0999 V2000
   25.0236   44.4163   16.5150 P   0  0  1  0  0  0  0  0  0  0  0  0
   23.6228   44.6439   15.9883 O   0  0  0  0  0  0  0  0  0  0  0  0
   25.8928   44.0066   15.3567 O   0  5  0  0  0  0  0  0  0  0  0  0
   25.5612   45.6817   17.1247 O   0  0  0  0  0  0  0  0  0  0  0  0
   26.1699   42.6658   18.0654 C   0  0  0  0  0  0  0  0  0  0  0  0
   24.9844   43.3167   17.6778 O   0  0  0  0  0  0  0  0  0  0  0  0
   25.8562   41.6848   19.1855 C   0  0  1  0  0  0  0  0  0  0  0  0
   24.8776   40.7758   18.7280 O   0  0  0  0  0  0  0  0  0  0  0  0
   27.1219   40.9385   19.6072 C   0  0  1  0  0  0  0  0  0  0  0  0
   27.9511   41.7985   20.3591 O   0  0  0  0  0  0  0  0  0  0  0  0
   26.8459   39.6317   20.3639 C   0  0  1  0  0  0  0  0  0  0  0  0
   26.3151   38.6687   19.4809 O   0  0  0  0  0  0  0  0  0  0  0  0
   28.0918   39.0668   21.0271 C   0  0  0  0  0  0  0  0  0  0  0  0
   27.2153   39.7969   23.6121 N   0  0  0  0  0  0  0  0  0  0  0  0
   26.7454   40.2068   24.8432 C   0  0  0  0  0  0  0  0  0  0  0  0
   26.7477   41.4048   25.1398 O   0  0  0  0  0  0  0  0  0  0  0  0
   26.2824   39.2684   25.7434 N   0  0  0  0  0  0  0  0  0  0  0  0
   26.2877   37.9253   25.4172 C   0  0  0  0  0  0  0  0  0  0  0  0
   26.7548   37.5119   24.1870 C   0  0  1  0  0  0  0  0  0  0  0  0
   25.8697   37.0797   26.2063 O   0  0  0  0  0  0  0  0  0  0  0  0
   27.2110   35.7487   22.6450 C   0  0  2  0  0  0  0  0  0  0  0  0
   26.7483   36.1659   23.8761 N   0  0  0  0  0  0  0  0  0  0  0  0
   27.2073   34.3920   22.3301 C   0  0  0  0  0  0  0  0  0  0  0  0
   27.6788   33.9602   21.0943 C   0  0  1  0  0  0  0  0  0  0  0  0
   27.6577   32.4927   20.7663 C   0  0  0  0  0  0  0  0  0  0  0  0
   28.1532   34.8965   20.1686 C   0  0  1  0  0  0  0  0  0  0  0  0
   28.6542   34.4634   18.8217 C   0  0  0  0  0  0  0  0  0  0  0  0
   28.1547   36.2513   20.4869 C   0  0  0  0  0  0  0  0  0  0  0  0
   27.6863   36.6872   21.7241 C   0  0  2  0  0  0  0  0  0  0  0  0
   27.2205   38.4530   23.2759 C   0  0  2  0  0  0  0  0  0  0  0  0
   27.6963   38.0391   22.0465 N   0  0  0  0  0  0  0  0  0  0  0  0
  1  2  1  6  0  0  0
  1  3  1  0  0  0  0
  1  4  2  0  0  0  0
  1  6  1  0  0  0  0
  5  6  1  0  0  0  0
  7  5  1  6  0  0  0
  7  8  1  0  0  0  0
  7  9  1  0  0  0  0
  9 10  1  1  0  0  0
  9 11  1  0  0  0  0
 11 12  1  6  0  0  0
 11 13  1  0  0  0  0
 13 31  1  0  0  0  0
 14 15  1  0  0  0  0
 15 16  2  0  0  0  0
 15 17  1  0  0  0  0
 17 18  1  0  0  0  0
 18 20  2  0  0  0  0
 19 18  1  6  0  0  0
 19 22  1  0  0  0  0
 19 30  1  0  0  0  0
 21 23  1  1  0  0  0
 21 29  1  0  0  0  0
 21 22  1  0  0  0  0
 23 24  1  0  0  0  0
 24 25  1  6  0  0  0
 24 26  1  0  0  0  0
 26 27  1  6  0  0  0
 26 28  1  0  0  0  0
 29 28  1  1  0  0  0
 29 31  1  0  0  0  0
 30 14  1  1  0  0  0
 30 31  1  0  0  0  0
M  CHG  1   3  -1
M  END
>  <CHROM.1>
179.63582357,162.33548741,57.58149190,74.34341023,70.44815888,164.08987767
95.90597555,26.59732209,39.48719867,20.73053677,-2.49928914,-1.32178604,1.57669234

>  <Name>
ligand

>  <RI>
0

>  <Rbt.Current_Directory>
/home/itssahil/PROJECTS/Mol_Feturizer/New_Systems/rnas/3F2Q

>  <Rbt.Executable>
rbdock ($Id: //depot/dev/client3/rdock/2013.1/src/exe/rbdock.cxx#4 $)

>  <Rbt.Library>
libRbt.so (2013.1, Build901 2013/11/27)

>  <Rbt.Parameter_File>
/export/apps/rDock/src/rDock_2013.1_src/data/scripts/dock_solv.prm

>  <Rbt.Receptor>
prm/pocket_docking_8.prm

>  <SCORE>
-32.0068

>  <SCORE.INTER>
-27.3338

>  <SCORE.INTER.CONST>
1

>  <SCORE.INTER.POLAR>
0

>  <SCORE.INTER.ROT>
7

>  <SCORE.INTER.SOLV>
22.9407

>  <SCORE.INTER.VDW>
-34.1361

>  <SCORE.INTER.norm>
-0.881736

>  <SCORE.INTRA>
-4.67296

>  <SCORE.INTRA.DIHEDRAL>
-6.43804

>  <SCORE.INTRA.DIHEDRAL.0>
10.0718

>  <SCORE.INTRA.POLAR>
0

>  <SCORE.INTRA.POLAR.0>
0

>  <SCORE.INTRA.REPUL>
0

>  <SCORE.INTRA.REPUL.0>
0

>  <SCORE.INTRA.SOLV>
-0.820496

>  <SCORE.INTRA.SOLV.lig_0>
-48.6963

>  <SCORE.INTRA.VDW>
-1.04369

>  <SCORE.INTRA.VDW.0>
-0.836976

>  <SCORE.INTRA.norm>
-0.150741

>  <SCORE.RESTR>
0

>  <SCORE.RESTR.CAVITY>
0

>  <SCORE.RESTR.norm>
0

>  <SCORE.SYSTEM>
0

>  <SCORE.SYSTEM.CONST>
0

>  <SCORE.SYSTEM.DIHEDRAL>
0

>  <SCORE.SYSTEM.SOLV>
0

>  <SCORE.SYSTEM.norm>
0

>  <SCORE.heavy>
31

>  <SCORE.norm>
-1.03248

>  <RMSD>
5.010

$$$$
ligand
 OpenBabel11021811473D
libRbt.so/2013.1/901 2013/11/27
 31 33  0  0  0  0  0  0  0  0999 V2000
   27.0624   35.0343   14.4476 P   0  0  1  0  0  0  0  0  0  0  0  0
   26.5451   36.4239   14.1427 O   0  0  0  0  0  0  0  0  0  0  0  0
   26.0870   34.0413   13.8752 O   0  5  0  0  0  0  0  0  0  0  0  0
   28.4133   34.8332   13.8179 O   0  0  0  0  0  0  0  0  0  0  0  0
   28.2549   35.6057   16.6911 C   0  0  0  0  0  0  0  0  0  0  0  0
   27.2544   34.8714   16.0285 O   0  0  0  0  0  0  0  0  0  0  0  0
   28.2033   35.2885   18.1784 C   0  0  1  0  0  0  0  0  0  0  0  0
   28.4201   33.9043   18.3521 O   0  0  0  0  0  0  0  0  0  0  0  0
   29.2640   36.0930   18.9297 C   0  0  1  0  0  0  0  0  0  0  0  0
   30.5392   35.8141   18.3928 O   0  0  0  0  0  0  0  0  0  0  0  0
   28.9908   37.6033   18.9560 C   0  0  1  0  0  0  0  0  0  0  0  0
   29.1602   38.1444   17.6647 O   0  0  0  0  0  0  0  0  0  0  0  0
   27.5939   37.9354   19.4561 C   0  0  0  0  0  0  0  0  0  0  0  0
   27.2575   35.5642   20.9555 N   0  0  0  0  0  0  0  0  0  0  0  0
   27.1410   34.3724   21.6414 C   0  0  0  0  0  0  0  0  0  0  0  0
   26.9414   33.3209   21.0269 O   0  0  0  0  0  0  0  0  0  0  0  0
   27.2392   34.3655   23.0181 N   0  0  0  0  0  0  0  0  0  0  0  0
   27.4531   35.5432   23.7092 C   0  0  0  0  0  0  0  0  0  0  0  0
   27.5720   36.7362   23.0271 C   0  0  1  0  0  0  0  0  0  0  0  0
   27.5516   35.5499   24.9351 O   0  0  0  0  0  0  0  0  0  0  0  0
   27.9139   39.0977   23.0547 C   0  0  2  0  0  0  0  0  0  0  0  0
   27.7904   37.9029   23.7337 N   0  0  0  0  0  0  0  0  0  0  0  0
   28.1320   40.2757   23.7652 C   0  0  0  0  0  0  0  0  0  0  0  0
   28.2504   41.4868   23.0906 C   0  0  1  0  0  0  0  0  0  0  0  0
   28.4965   42.7477   23.8722 C   0  0  0  0  0  0  0  0  0  0  0  0
   28.1527   41.5143   21.6948 C   0  0  1  0  0  0  0  0  0  0  0  0
   28.2911   42.8027   20.9375 C   0  0  0  0  0  0  0  0  0  0  0  0
   27.9353   40.3350   20.9885 C   0  0  0  0  0  0  0  0  0  0  0  0
   27.8132   39.1210   21.6604 C   0  0  2  0  0  0  0  0  0  0  0  0
   27.4758   36.7486   21.6403 C   0  0  2  0  0  0  0  0  0  0  0  0
   27.5865   37.9442   20.9567 N   0  0  0  0  0  0  0  0  0  0  0  0
  1  2  1  6  0  0  0
  1  3  1  0  0  0  0
  1  4  2  0  0  0  0
  1  6  1  0  0  0  0
  5  6  1  0  0  0  0
  7  5  1  6  0  0  0
  7  8  1  0  0  0  0
  7  9  1  0  0  0  0
  9 10  1  6  0  0  0
  9 11  1  0  0  0  0
 11 12  1  6  0  0  0
 11 13  1  0  0  0  0
 13 31  1  0  0  0  0
 14 15  1  0  0  0  0
 15 16  2  0  0  0  0
 15 17  1  0  0  0  0
 17 18  1  0  0  0  0
 18 20  2  0  0  0  0
 19 18  1  6  0  0  0
 19 22  1  0  0  0  0
 19 30  1  0  0  0  0
 21 23  1  1  0  0  0
 21 29  1  0  0  0  0
 21 22  1  0  0  0  0
 23 24  1  0  0  0  0
 24 25  1  6  0  0  0
 24 26  1  0  0  0  0
 26 27  1  6  0  0  0
 26 28  1  0  0  0  0
 29 28  1  1  0  0  0
 29 31  1  0  0  0  0
 30 14  1  1  0  0  0
 30 31  1  0  0  0  0
M  CHG  1   3  -1
M  END
>  <CHROM.1>
178.85616329,-67.96077985,59.89168603,-57.24808132,-69.46675796,83.08338031
92.16870907,27.86514192,36.94279544,19.68706537,-2.00920757,1.44286796,1.47849158

>  <Name>
ligand

>  <RI>
0

>  <Rbt.Current_Directory>
/home/itssahil/PROJECTS/Mol_Feturizer/New_Systems/rnas/3F2Q

>  <Rbt.Executable>
rbdock ($Id: //depot/dev/client3/rdock/2013.1/src/exe/rbdock.cxx#4 $)

>  <Rbt.Library>
libRbt.so (2013.1, Build901 2013/11/27)

>  <Rbt.Parameter_File>
/export/apps/rDock/src/rDock_2013.1_src/data/scripts/dock_solv.prm

>  <Rbt.Receptor>
prm/pocket_docking_5.prm

>  <SCORE>
-26.6522

>  <SCORE.INTER>
-21.8271

>  <SCORE.INTER.CONST>
1

>  <SCORE.INTER.POLAR>
0

>  <SCORE.INTER.ROT>
7

>  <SCORE.INTER.SOLV>
13.0447

>  <SCORE.INTER.VDW>
-27.1663

>  <SCORE.INTER.norm>
-0.704101

>  <SCORE.INTRA>
-4.82502

>  <SCORE.INTRA.DIHEDRAL>
-6.74383

>  <SCORE.INTRA.DIHEDRAL.0>
10.0718

>  <SCORE.INTRA.POLAR>
0

>  <SCORE.INTRA.POLAR.0>
0

>  <SCORE.INTRA.REPUL>
0

>  <SCORE.INTRA.REPUL.0>
0

>  <SCORE.INTRA.SOLV>
-0.749425

>  <SCORE.INTRA.SOLV.lig_0>
-48.6963

>  <SCORE.INTRA.VDW>
-1.0784

>  <SCORE.INTRA.VDW.0>
-0.836976

>  <SCORE.INTRA.norm>
-0.155646

>  <SCORE.RESTR>
0

>  <SCORE.RESTR.CAVITY>
0

>  <SCORE.RESTR.norm>
0

>  <SCORE.SYSTEM>
0

>  <SCORE.SYSTEM.CONST>
0

>  <SCORE.SYSTEM.DIHEDRAL>
0

>  <SCORE.SYSTEM.SOLV>
0

>  <SCORE.SYSTEM.norm>
0

>  <SCORE.heavy>
31

>  <SCORE.norm>
-0.859747

>  <RMSD>
5.011

$$$$
ligand
 OpenBabel11021811473D
libRbt.so/2013.1/901 2013/11/27
 31 33  0  0  0  0  0  0  0  0999 V2000
   25.1942   44.3208   16.3854 P   0  0  1  0  0  0  0  0  0  0  0  0
   26.2062   43.9290   15.3300 O   0  0  0  0  0  0  0  0  0  0  0  0
   25.6093   45.6512   16.9535 O   0  5  0  0  0  0  0  0  0  0  0  0
   23.8254   44.4397   15.7737 O   0  0  0  0  0  0  0  0  0  0  0  0
   26.2941   42.6293   18.0318 C   0  0  0  0  0  0  0  0  0  0  0  0
   25.1113   43.1724   17.4976 O   0  0  0  0  0  0  0  0  0  0  0  0
   25.9368   41.6575   19.1469 C   0  0  1  0  0  0  0  0  0  0  0  0
   24.9815   40.7405   18.6570 O   0  0  0  0  0  0  0  0  0  0  0  0
   27.1861   40.9201   19.6287 C   0  0  1  0  0  0  0  0  0  0  0  0
   27.9836   41.7925   20.4002 O   0  0  0  0  0  0  0  0  0  0  0  0
   26.8826   39.6237   20.3926 C   0  0  1  0  0  0  0  0  0  0  0  0
   26.3339   38.6662   19.5145 O   0  0  0  0  0  0  0  0  0  0  0  0
   28.1159   39.0377   21.0613 C   0  0  0  0  0  0  0  0  0  0  0  0
   27.1506   39.6770   23.6387 N   0  0  0  0  0  0  0  0  0  0  0  0
   26.6376   40.0430   24.8665 C   0  0  0  0  0  0  0  0  0  0  0  0
   26.6159   41.2312   25.1996 O   0  0  0  0  0  0  0  0  0  0  0  0
   26.1587   39.0719   25.7224 N   0  0  0  0  0  0  0  0  0  0  0  0
   26.1908   37.7397   25.3555 C   0  0  0  0  0  0  0  0  0  0  0  0
   26.7009   37.3701   24.1284 C   0  0  1  0  0  0  0  0  0  0  0  0
   25.7590   36.8653   26.1048 O   0  0  0  0  0  0  0  0  0  0  0  0
   27.2266   35.6610   22.5481 C   0  0  2  0  0  0  0  0  0  0  0  0
   26.7208   36.0345   23.7764 N   0  0  0  0  0  0  0  0  0  0  0  0
   27.2495   34.3148   22.1917 C   0  0  0  0  0  0  0  0  0  0  0  0
   27.7644   33.9271   20.9587 C   0  0  1  0  0  0  0  0  0  0  0  0
   27.7718   32.4704   20.5853 C   0  0  0  0  0  0  0  0  0  0  0  0
   28.2557   34.8970   20.0775 C   0  0  1  0  0  0  0  0  0  0  0  0
   28.8036   34.5118   18.7344 C   0  0  0  0  0  0  0  0  0  0  0  0
   28.2304   36.2413   20.4371 C   0  0  0  0  0  0  0  0  0  0  0  0
   27.7185   36.6331   21.6718 C   0  0  2  0  0  0  0  0  0  0  0  0
   27.1829   38.3443   23.2617 C   0  0  2  0  0  0  0  0  0  0  0  0
   27.7017   37.9743   22.0357 N   0  0  0  0  0  0  0  0  0  0  0  0
  1  2  1  6  0  0  0
  1  3  1  0  0  0  0
  1  4  2  0  0  0  0
  1  6  1  0  0  0  0
  5  6  1  0  0  0  0
  7  5  1  6  0  0  0
  7  8  1  0  0  0  0
  7  9  1  0  0  0  0
  9 10  1  1  0  0  0
  9 11  1  0  0  0  0
 11 12  1  6  0  0  0
 11 13  1  0  0  0  0
 13 31  1  0  0  0  0
 14 15  1  0  0  0  0
 15 16  2  0  0  0  0
 15 17  1  0  0  0  0
 17 18  1  0  0  0  0
 18 20  2  0  0  0  0
 19 18  1  6  0  0  0
 19 22  1  0  0  0  0
 19 30  1  0  0  0  0
 21 23  1  1  0  0  0
 21 29  1  0  0  0  0
 21 22  1  0  0  0  0
 23 24  1  0  0  0  0
 24 25  1  6  0  0  0
 24 26  1  0  0  0  0
 26 27  1  6  0  0  0
 26 28  1  0  0  0  0
 29 28  1  1  0  0  0
 29 31  1  0  0  0  0
 30 14  1  1  0  0  0
 30 31  1  0  0  0  0
M  CHG  1   3  -1
M  END
>  <CHROM.1>
174.95948955,46.51276939,51.74394963,73.99732758,67.89830372,166.96491861
96.77708954,26.64437286,39.40706789,20.66905214,-2.34882273,-1.31187930,1.71723048

>  <Name>
ligand

>  <RI>
0

>  <Rbt.Current_Directory>
/home/itssahil/PROJECTS/Mol_Feturizer/New_Systems/rnas/3F2Q

>  <Rbt.Executable>
rbdock ($Id: //depot/dev/client3/rdock/2013.1/src/exe/rbdock.cxx#4 $)

>  <Rbt.Library>
libRbt.so (2013.1, Build901 2013/11/27)

>  <Rbt.Parameter_File>
/export/apps/rDock/src/rDock_2013.1_src/data/scripts/dock_solv.prm

>  <Rbt.Receptor>
prm/pocket_docking_7.prm

>  <SCORE>
-32.9386

>  <SCORE.INTER>
-27.9336

>  <SCORE.INTER.CONST>
1

>  <SCORE.INTER.POLAR>
0

>  <SCORE.INTER.ROT>
7

>  <SCORE.INTER.SOLV>
22.064

>  <SCORE.INTER.VDW>
-34.2438

>  <SCORE.INTER.norm>
-0.901085

>  <SCORE.INTRA>
-5.00495

>  <SCORE.INTRA.DIHEDRAL>
-6.74248

>  <SCORE.INTRA.DIHEDRAL.0>
10.0718

>  <SCORE.INTRA.POLAR>
0

>  <SCORE.INTRA.POLAR.0>
0

>  <SCORE.INTRA.REPUL>
0

>  <SCORE.INTRA.REPUL.0>
0

>  <SCORE.INTRA.SOLV>
-1.39804

>  <SCORE.INTRA.SOLV.lig_0>
-48.6963

>  <SCORE.INTRA.VDW>
-0.934693

>  <SCORE.INTRA.VDW.0>
-0.836976

>  <SCORE.INTRA.norm>
-0.16145

>  <SCORE.RESTR>
0

>  <SCORE.RESTR.CAVITY>
0

>  <SCORE.RESTR.norm>
0

>  <SCORE.SYSTEM>
0

>  <SCORE.SYSTEM.CONST>
0

>  <SCORE.SYSTEM.DIHEDRAL>
0

>  <SCORE.SYSTEM.SOLV>
0

>  <SCORE.SYSTEM.norm>
0

>  <SCORE.heavy>
31

>  <SCORE.norm>
-1.06253

>  <RMSD>
5.011

$$$$
ligand
 OpenBabel11021811473D
libRbt.so/2013.1/901 2013/11/27
 31 33  0  0  0  0  0  0  0  0999 V2000
   25.2565   43.6908   16.4151 P   0  0  1  0  0  0  0  0  0  0  0  0
   25.0637   45.1813   16.2338 O   0  0  0  0  0  0  0  0  0  0  0  0
   24.0638   42.9937   15.8179 O   0  5  0  0  0  0  0  0  0  0  0  0
   26.5072   43.2395   15.7123 O   0  0  0  0  0  0  0  0  0  0  0  0
   26.0803   42.1676   18.3600 C   0  0  0  0  0  0  0  0  0  0  0  0
   25.4495   43.3631   17.9701 O   0  0  0  0  0  0  0  0  0  0  0  0
   26.2386   42.1584   19.8734 C   0  0  1  0  0  0  0  0  0  0  0  0
   25.0383   41.6884   20.4495 O   0  0  0  0  0  0  0  0  0  0  0  0
   27.4106   41.2649   20.2790 C   0  0  1  0  0  0  0  0  0  0  0  0
   28.1043   41.8536   21.3583 O   0  0  0  0  0  0  0  0  0  0  0  0
   27.0039   39.8204   20.6022 C   0  0  1  0  0  0  0  0  0  0  0  0
   26.3392   39.2501   19.4969 O   0  0  0  0  0  0  0  0  0  0  0  0
   28.1927   38.9483   20.9733 C   0  0  0  0  0  0  0  0  0  0  0  0
   27.2718   39.6209   23.5585 N   0  0  0  0  0  0  0  0  0  0  0  0
   26.7817   40.0043   24.7903 C   0  0  0  0  0  0  0  0  0  0  0  0
   26.7962   41.1935   25.1200 O   0  0  0  0  0  0  0  0  0  0  0  0
   26.2849   39.0491   25.6539 N   0  0  0  0  0  0  0  0  0  0  0  0
   26.2764   37.7155   25.2906 C   0  0  0  0  0  0  0  0  0  0  0  0
   26.7635   37.3287   24.0595 C   0  0  1  0  0  0  0  0  0  0  0  0
   25.8283   36.8554   26.0468 O   0  0  0  0  0  0  0  0  0  0  0  0
   27.2256   35.6015   22.4790 C   0  0  2  0  0  0  0  0  0  0  0  0
   26.7428   35.9921   23.7113 N   0  0  0  0  0  0  0  0  0  0  0  0
   27.2077   34.2542   22.1264 C   0  0  0  0  0  0  0  0  0  0  0  0
   27.6990   33.8491   20.8894 C   0  0  1  0  0  0  0  0  0  0  0  0
   27.6623   32.3917   20.5203 C   0  0  0  0  0  0  0  0  0  0  0  0
   28.2079   34.8027   20.0004 C   0  0  1  0  0  0  0  0  0  0  0  0
   28.7312   34.3988   18.6530 C   0  0  0  0  0  0  0  0  0  0  0  0
   28.2235   36.1481   20.3563 C   0  0  0  0  0  0  0  0  0  0  0  0
   27.7352   36.5572   21.5950 C   0  0  2  0  0  0  0  0  0  0  0  0
   27.2634   38.2869   23.1851 C   0  0  2  0  0  0  0  0  0  0  0  0
   27.7592   37.8994   21.9550 N   0  0  0  0  0  0  0  0  0  0  0  0
  1  2  1  6  0  0  0
  1  3  1  0  0  0  0
  1  4  2  0  0  0  0
  1  6  1  0  0  0  0
  5  6  1  0  0  0  0
  7  5  1  6  0  0  0
  7  8  1  0  0  0  0
  7  9  1  0  0  0  0
  9 10  1  1  0  0  0
  9 11  1  0  0  0  0
 11 12  1  6  0  0  0
 11 13  1  0  0  0  0
 13 31  1  0  0  0  0
 14 15  1  0  0  0  0
 15 16  2  0  0  0  0
 15 17  1  0  0  0  0
 17 18  1  0  0  0  0
 18 20  2  0  0  0  0
 19 18  1  6  0  0  0
 19 22  1  0  0  0  0
 19 30  1  0  0  0  0
 21 23  1  1  0  0  0
 21 29  1  0  0  0  0
 21 22  1  0  0  0  0
 23 24  1  0  0  0  0
 24 25  1  6  0  0  0
 24 26  1  0  0  0  0
 26 27  1  6  0  0  0
 26 28  1  0  0  0  0
 29 28  1  1  0  0  0
 29 31  1  0  0  0  0
 30 14  1  1  0  0  0
 30 31  1  0  0  0  0
M  CHG  1   3  -1
M  END
>  <CHROM.1>
175.31980089,-158.53567489,84.24375389,141.61155593,56.89535931,148.70411830
112.20995503,26.70066307,39.31627254,20.79019411,-2.47413657,-1.33400629
1.59110344

>  <Name>
ligand

>  <RI>
0

>  <Rbt.Current_Directory>
/home/itssahil/PROJECTS/Mol_Feturizer/New_Systems/rnas/3F2Q

>  <Rbt.Executable>
rbdock ($Id: //depot/dev/client3/rdock/2013.1/src/exe/rbdock.cxx#4 $)

>  <Rbt.Library>
libRbt.so (2013.1, Build901 2013/11/27)

>  <Rbt.Parameter_File>
/export/apps/rDock/src/rDock_2013.1_src/data/scripts/dock_solv.prm

>  <Rbt.Receptor>
prm/pocket_docking_6.prm

>  <SCORE>
-30.2134

>  <SCORE.INTER>
-28.9303

>  <SCORE.INTER.CONST>
1

>  <SCORE.INTER.POLAR>
0

>  <SCORE.INTER.ROT>
7

>  <SCORE.INTER.SOLV>
19.7294

>  <SCORE.INTER.VDW>
-34.13

>  <SCORE.INTER.norm>
-0.933237

>  <SCORE.INTRA>
-1.28311

>  <SCORE.INTRA.DIHEDRAL>
0.43675

>  <SCORE.INTRA.DIHEDRAL.0>
10.0718

>  <SCORE.INTRA.POLAR>
0

>  <SCORE.INTRA.POLAR.0>
0

>  <SCORE.INTRA.REPUL>
0

>  <SCORE.INTRA.REPUL.0>
0

>  <SCORE.INTRA.SOLV>
-0.824405

>  <SCORE.INTRA.SOLV.lig_0>
-48.6963

>  <SCORE.INTRA.VDW>
-1.08928

>  <SCORE.INTRA.VDW.0>
-0.836976

>  <SCORE.INTRA.norm>
-0.0413905

>  <SCORE.RESTR>
0

>  <SCORE.RESTR.CAVITY>
0

>  <SCORE.RESTR.norm>
0

>  <SCORE.SYSTEM>
0

>  <SCORE.SYSTEM.CONST>
0

>  <SCORE.SYSTEM.DIHEDRAL>
0

>  <SCORE.SYSTEM.SOLV>
0

>  <SCORE.SYSTEM.norm>
0

>  <SCORE.heavy>
31

>  <SCORE.norm>
-0.974627

>  <RMSD>
5.012

$$$$
ligand
 OpenBabel11021811473D
libRbt.so/2013.1/901 2013/11/27
 31 33  0  0  0  0  0  0  0  0999 V2000
   27.8934   41.9553   16.6260 P   0  0  1  0  0  0  0  0  0  0  0  0
   29.1746   41.6619   15.8750 O   0  0  0  0  0  0  0  0  0  0  0  0
   28.2570   42.6661   17.9018 O   0  5  0  0  0  0  0  0  0  0  0  0
   26.9959   42.8339   15.7986 O   0  0  0  0  0  0  0  0  0  0  0  0
   27.4643   39.7625   17.9635 C   0  0  0  0  0  0  0  0  0  0  0  0
   27.1012   40.5884   16.8840 O   0  0  0  0  0  0  0  0  0  0  0  0
   28.8118   39.1204   17.6682 C   0  0  1  0  0  0  0  0  0  0  0  0
   29.8273   40.0705   17.9120 O   0  0  0  0  0  0  0  0  0  0  0  0
   29.0150   37.8854   18.5459 C   0  0  1  0  0  0  0  0  0  0  0  0
   30.1569   37.1781   18.1122 O   0  0  0  0  0  0  0  0  0  0  0  0
   29.0932   38.1995   20.0465 C   0  0  1  0  0  0  0  0  0  0  0  0
   29.9226   39.3200   20.2598 O   0  0  0  0  0  0  0  0  0  0  0  0
   27.7275   38.4665   20.6589 C   0  0  0  0  0  0  0  0  0  0  0  0
   27.1565   39.5194   23.2180 N   0  0  0  0  0  0  0  0  0  0  0  0
   26.8290   40.0803   24.4356 C   0  0  0  0  0  0  0  0  0  0  0  0
   26.8004   41.3074   24.5649 O   0  0  0  0  0  0  0  0  0  0  0  0
   26.5436   39.2611   25.5092 N   0  0  0  0  0  0  0  0  0  0  0  0
   26.5844   37.8866   25.3693 C   0  0  0  0  0  0  0  0  0  0  0  0
   26.9094   37.3222   24.1534 C   0  0  1  0  0  0  0  0  0  0  0  0
   26.3235   37.1451   26.3152 O   0  0  0  0  0  0  0  0  0  0  0  0
   27.2613   35.3782   22.8149 C   0  0  2  0  0  0  0  0  0  0  0  0
   26.9406   35.9466   24.0306 N   0  0  0  0  0  0  0  0  0  0  0  0
   27.2955   33.9915   22.6892 C   0  0  0  0  0  0  0  0  0  0  0  0
   27.6251   33.4084   21.4697 C   0  0  1  0  0  0  0  0  0  0  0  0
   27.6468   31.9096   21.3485 C   0  0  0  0  0  0  0  0  0  0  0  0
   27.9187   34.2224   20.3698 C   0  0  1  0  0  0  0  0  0  0  0  0
   28.2631   33.6234   19.0374 C   0  0  0  0  0  0  0  0  0  0  0  0
   27.8829   35.6076   20.4994 C   0  0  0  0  0  0  0  0  0  0  0  0
   27.5562   36.1952   21.7193 C   0  0  2  0  0  0  0  0  0  0  0  0
   27.1959   38.1427   23.0684 C   0  0  2  0  0  0  0  0  0  0  0  0
   27.5296   37.5783   21.8522 N   0  0  0  0  0  0  0  0  0  0  0  0
  1  2  1  6  0  0  0
  1  3  1  0  0  0  0
  1  4  2  0  0  0  0
  1  6  1  0  0  0  0
  5  6  1  0  0  0  0
  7  5  1  1  0  0  0
  7  8  1  0  0  0  0
  7  9  1  0  0  0  0
  9 10  1  6  0  0  0
  9 11  1  0  0  0  0
 11 12  1  6  0  0  0
 11 13  1  0  0  0  0
 13 31  1  0  0  0  0
 14 15  1  0  0  0  0
 15 16  2  0  0  0  0
 15 17  1  0  0  0  0
 17 18  1  0  0  0  0
 18 20  2  0  0  0  0
 19 18  1  6  0  0  0
 19 22  1  0  0  0  0
 19 30  1  0  0  0  0
 21 23  1  1  0  0  0
 21 29  1  0  0  0  0
 21 22  1  0  0  0  0
 23 24  1  0  0  0  0
 24 25  1  6  0  0  0
 24 26  1  0  0  0  0
 26 27  1  6  0  0  0
 26 28  1  0  0  0  0
 29 28  1  1  0  0  0
 29 31  1  0  0  0  0
 30 14  1  1  0  0  0
 30 31  1  0  0  0  0
M  CHG  1   3  -1
M  END
>  <CHROM.1>
-70.62455800,81.75570241,78.30147968,170.38772166,-44.49587243,126.77738500
-60.30373910,27.83483293,38.30192001,20.56942725,1.00897386,1.30860576,-0.35264105

>  <Name>
ligand

>  <RI>
0

>  <Rbt.Current_Directory>
/home/itssahil/PROJECTS/Mol_Feturizer/New_Systems/rnas/3F2Q

>  <Rbt.Executable>
rbdock ($Id: //depot/dev/client3/rdock/2013.1/src/exe/rbdock.cxx#4 $)

>  <Rbt.Library>
libRbt.so (2013.1, Build901 2013/11/27)

>  <Rbt.Parameter_File>
/export/apps/rDock/src/rDock_2013.1_src/data/scripts/dock_solv.prm

>  <Rbt.Receptor>
prm/pocket_docking_4.prm

>  <SCORE>
-26.6315

>  <SCORE.INTER>
-27.572

>  <SCORE.INTER.CONST>
1

>  <SCORE.INTER.POLAR>
0

>  <SCORE.INTER.ROT>
7

>  <SCORE.INTER.SOLV>
19.5508

>  <SCORE.INTER.VDW>
-33.165

>  <SCORE.INTER.norm>
-0.88942

>  <SCORE.INTRA>
0.940564

>  <SCORE.INTRA.DIHEDRAL>
-0.21129

>  <SCORE.INTRA.DIHEDRAL.0>
10.0718

>  <SCORE.INTRA.POLAR>
0

>  <SCORE.INTRA.POLAR.0>
0

>  <SCORE.INTRA.REPUL>
0

>  <SCORE.INTRA.REPUL.0>
0

>  <SCORE.INTRA.SOLV>
1.28721

>  <SCORE.INTRA.SOLV.lig_0>
-48.6963

>  <SCORE.INTRA.VDW>
0.402604

>  <SCORE.INTRA.VDW.0>
-0.836976

>  <SCORE.INTRA.norm>
0.0303408

>  <SCORE.RESTR>
0

>  <SCORE.RESTR.CAVITY>
0

>  <SCORE.RESTR.norm>
0

>  <SCORE.SYSTEM>
0

>  <SCORE.SYSTEM.CONST>
0

>  <SCORE.SYSTEM.DIHEDRAL>
0

>  <SCORE.SYSTEM.SOLV>
0

>  <SCORE.SYSTEM.norm>
0

>  <SCORE.heavy>
31

>  <SCORE.norm>
-0.859079

>  <RMSD>
5.013

$$$$
ligand
 OpenBabel11021811473D
libRbt.so/2013.1/901 2013/11/27
 31 33  0  0  0  0  0  0  0  0999 V2000
   25.2247   43.6916   16.4196 P   0  0  1  0  0  0  0  0  0  0  0  0
   26.5107   43.4409   15.6613 O   0  0  0  0  0  0  0  0  0  0  0  0
   24.8196   45.1217   16.1839 O   0  5  0  0  0  0  0  0  0  0  0  0
   24.1418   42.7735   15.9235 O   0  0  0  0  0  0  0  0  0  0  0  0
   26.1383   42.1927   18.3433 C   0  0  0  0  0  0  0  0  0  0  0  0
   25.4460   43.3592   17.9698 O   0  0  0  0  0  0  0  0  0  0  0  0
   26.2547   42.1465   19.8598 C   0  0  1  0  0  0  0  0  0  0  0  0
   25.0497   41.6359   20.3893 O   0  0  0  0  0  0  0  0  0  0  0  0
   27.4345   41.2677   20.2749 C   0  0  1  0  0  0  0  0  0  0  0  0
   28.0995   41.8544   21.3731 O   0  0  0  0  0  0  0  0  0  0  0  0
   27.0467   39.8127   20.5733 C   0  0  1  0  0  0  0  0  0  0  0  0
   26.4622   39.2277   19.4310 O   0  0  0  0  0  0  0  0  0  0  0  0
   28.2337   38.9704   21.0126 C   0  0  0  0  0  0  0  0  0  0  0  0
   27.2666   39.6235   23.5858 N   0  0  0  0  0  0  0  0  0  0  0  0
   26.7550   39.9979   24.8116 C   0  0  0  0  0  0  0  0  0  0  0  0
   26.7724   41.1835   25.1543 O   0  0  0  0  0  0  0  0  0  0  0  0
   26.2334   39.0379   25.6550 N   0  0  0  0  0  0  0  0  0  0  0  0
   26.2216   37.7083   25.2774 C   0  0  0  0  0  0  0  0  0  0  0  0
   26.7302   37.3304   24.0523 C   0  0  1  0  0  0  0  0  0  0  0  0
   25.7516   36.8439   26.0154 O   0  0  0  0  0  0  0  0  0  0  0  0
   27.2101   35.6161   22.4631 C   0  0  2  0  0  0  0  0  0  0  0  0
   26.7059   35.9977   23.6895 N   0  0  0  0  0  0  0  0  0  0  0  0
   27.1885   34.2727   22.0959 C   0  0  0  0  0  0  0  0  0  0  0  0
   27.7013   33.8766   20.8647 C   0  0  1  0  0  0  0  0  0  0  0  0
   27.6605   32.4235   20.4794 C   0  0  0  0  0  0  0  0  0  0  0  0
   28.2355   34.8353   19.9962 C   0  0  1  0  0  0  0  0  0  0  0  0
   28.7824   34.4412   18.6552 C   0  0  0  0  0  0  0  0  0  0  0  0
   28.2546   36.1766   20.3666 C   0  0  0  0  0  0  0  0  0  0  0  0
   27.7449   36.5768   21.5995 C   0  0  2  0  0  0  0  0  0  0  0  0
   27.2551   38.2935   23.1982 C   0  0  2  0  0  0  0  0  0  0  0  0
   27.7724   37.9149   21.9743 N   0  0  0  0  0  0  0  0  0  0  0  0
  1  2  1  6  0  0  0
  1  3  1  0  0  0  0
  1  4  2  0  0  0  0
  1  6  1  0  0  0  0
  5  6  1  0  0  0  0
  7  5  1  6  0  0  0
  7  8  1  0  0  0  0
  7  9  1  0  0  0  0
  9 10  1  1  0  0  0
  9 11  1  0  0  0  0
 11 12  1  6  0  0  0
 11 13  1  0  0  0  0
 13 31  1  0  0  0  0
 14 15  1  0  0  0  0
 15 16  2  0  0  0  0
 15 17  1  0  0  0  0
 17 18  1  0  0  0  0
 18 20  2  0  0  0  0
 19 18  1  6  0  0  0
 19 22  1  0  0  0  0
 19 30  1  0  0  0  0
 21 23  1  1  0  0  0
 21 29  1  0  0  0  0
 21 22  1  0  0  0  0
 23 24  1  0  0  0  0
 24 25  1  6  0  0  0
 24 26  1  0  0  0  0
 26 27  1  6  0  0  0
 26 28  1  0  0  0  0
 29 28  1  1  0  0  0
 29 31  1  0  0  0  0
 30 14  1  1  0  0  0
 30 31  1  0  0  0  0
M  CHG  1   3  -1
M  END
>  <CHROM.1>
177.79976500,-44.04090925,81.96743203,140.56349834,59.37156364,148.32225380
109.39855023,26.69590048,39.31748827,20.78441138,-2.44876308,-1.32829060
1.61371944

>  <Name>
ligand

>  <RI>
0

>  <Rbt.Current_Directory>
/home/itssahil/PROJECTS/Mol_Feturizer/New_Systems/rnas/3F2Q

>  <Rbt.Executable>
rbdock ($Id: //depot/dev/client3/rdock/2013.1/src/exe/rbdock.cxx#4 $)

>  <Rbt.Library>
libRbt.so (2013.1, Build901 2013/11/27)

>  <Rbt.Parameter_File>
/export/apps/rDock/src/rDock_2013.1_src/data/scripts/dock_solv.prm

>  <Rbt.Receptor>
prm/blind_docking_80.prm

>  <SCORE>
-30.4908

>  <SCORE.INTER>
-28.4522

>  <SCORE.INTER.CONST>
1

>  <SCORE.INTER.POLAR>
0

>  <SCORE.INTER.ROT>
7

>  <SCORE.INTER.SOLV>
20.0252

>  <SCORE.INTER.VDW>
-33.9099

>  <SCORE.INTER.norm>
-0.917814

>  <SCORE.INTRA>
-2.03859

>  <SCORE.INTRA.DIHEDRAL>
-0.108691

>  <SCORE.INTRA.DIHEDRAL.0>
10.0718

>  <SCORE.INTRA.POLAR>
0

>  <SCORE.INTRA.POLAR.0>
0

>  <SCORE.INTRA.REPUL>
0

>  <SCORE.INTRA.REPUL.0>
0

>  <SCORE.INTRA.SOLV>
-1.39569

>  <SCORE.INTRA.SOLV.lig_0>
-48.6963

>  <SCORE.INTRA.VDW>
-1.2864

>  <SCORE.INTRA.VDW.0>
-0.836976

>  <SCORE.INTRA.norm>
-0.0657609

>  <SCORE.RESTR>
0

>  <SCORE.RESTR.CAVITY>
0

>  <SCORE.RESTR.norm>
0

>  <SCORE.SYSTEM>
0

>  <SCORE.SYSTEM.CONST>
0

>  <SCORE.SYSTEM.DIHEDRAL>
0

>  <SCORE.SYSTEM.SOLV>
0

>  <SCORE.SYSTEM.norm>
0

>  <SCORE.heavy>
31

>  <SCORE.norm>
-0.983575

>  <RMSD>
5.017

$$$$
ligand
 OpenBabel11021811473D
libRbt.so/2013.1/901 2013/11/27
 31 33  0  0  0  0  0  0  0  0999 V2000
   26.3276   42.6769   16.6537 P   0  0  1  0  0  0  0  0  0  0  0  0
   26.5496   41.2920   16.0840 O   0  0  0  0  0  0  0  0  0  0  0  0
   27.1884   43.6390   15.8802 O   0  5  0  0  0  0  0  0  0  0  0  0
   24.8827   43.0703   16.5143 O   0  0  0  0  0  0  0  0  0  0  0  0
   25.7460   42.1069   19.1272 C   0  0  0  0  0  0  0  0  0  0  0  0
   26.6615   42.6696   18.2192 O   0  0  0  0  0  0  0  0  0  0  0  0
   26.3184   42.2002   20.5340 C   0  0  1  0  0  0  0  0  0  0  0  0
   25.3002   41.8778   21.4575 O   0  0  0  0  0  0  0  0  0  0  0  0
   27.5018   41.2452   20.6899 C   0  0  1  0  0  0  0  0  0  0  0  0
   28.2162   41.5635   21.8650 O   0  0  0  0  0  0  0  0  0  0  0  0
   27.1068   39.7621   20.6647 C   0  0  1  0  0  0  0  0  0  0  0  0
   26.6317   39.4136   19.3834 O   0  0  0  0  0  0  0  0  0  0  0  0
   28.2609   38.8442   21.0350 C   0  0  0  0  0  0  0  0  0  0  0  0
   27.3197   39.5300   23.6093 N   0  0  0  0  0  0  0  0  0  0  0  0
   26.8218   39.9211   24.8356 C   0  0  0  0  0  0  0  0  0  0  0  0
   26.8642   41.1078   25.1716 O   0  0  0  0  0  0  0  0  0  0  0  0
   26.2855   38.9760   25.6867 N   0  0  0  0  0  0  0  0  0  0  0  0
   26.2456   37.6449   25.3164 C   0  0  0  0  0  0  0  0  0  0  0  0
   26.7406   37.2505   24.0909 C   0  0  1  0  0  0  0  0  0  0  0  0
   25.7624   36.7940   26.0614 O   0  0  0  0  0  0  0  0  0  0  0  0
   27.1787   35.5185   22.5087 C   0  0  2  0  0  0  0  0  0  0  0  0
   26.6882   35.9166   23.7355 N   0  0  0  0  0  0  0  0  0  0  0  0
   27.1288   34.1739   22.1490 C   0  0  0  0  0  0  0  0  0  0  0  0
   27.6275   33.7611   20.9175 C   0  0  1  0  0  0  0  0  0  0  0  0
   27.5561   32.3071   20.5404 C   0  0  0  0  0  0  0  0  0  0  0  0
   28.1761   34.7045   20.0412 C   0  0  1  0  0  0  0  0  0  0  0  0
   28.7085   34.2925   18.6997 C   0  0  0  0  0  0  0  0  0  0  0  0
   28.2235   36.0472   20.4041 C   0  0  0  0  0  0  0  0  0  0  0  0
   27.7280   36.4639   21.6374 C   0  0  2  0  0  0  0  0  0  0  0  0
   27.2801   38.1985   23.2290 C   0  0  2  0  0  0  0  0  0  0  0  0
   27.7837   37.8031   22.0046 N   0  0  0  0  0  0  0  0  0  0  0  0
  1  2  1  6  0  0  0
  1  3  1  0  0  0  0
  1  4  2  0  0  0  0
  1  6  1  0  0  0  0
  5  6  1  0  0  0  0
  7  5  1  6  0  0  0
  7  8  1  0  0  0  0
  7  9  1  0  0  0  0
  9 10  1  1  0  0  0
  9 11  1  0  0  0  0
 11 12  1  6  0  0  0
 11 13  1  0  0  0  0
 13 31  1  0  0  0  0
 14 15  1  0  0  0  0
 15 16  2  0  0  0  0
 15 17  1  0  0  0  0
 17 18  1  0  0  0  0
 18 20  2  0  0  0  0
 19 18  1  6  0  0  0
 19 22  1  0  0  0  0
 19 30  1  0  0  0  0
 21 23  1  1  0  0  0
 21 29  1  0  0  0  0
 21 22  1  0  0  0  0
 23 24  1  0  0  0  0
 24 25  1  6  0  0  0
 24 26  1  0  0  0  0
 26 27  1  6  0  0  0
 26 28  1  0  0  0  0
 29 28  1  1  0  0  0
 29 31  1  0  0  0  0
 30 14  1  1  0  0  0
 30 31  1  0  0  0  0
M  CHG  1   3  -1
M  END
>  <CHROM.1>
178.67873676,-76.32696157,168.74463798,166.04331249,67.00747604,134.78934133
112.95590645,26.93798932,39.05038941,20.96905553,-2.08870577,-1.37991924
1.93963139

>  <Name>
ligand

>  <RI>
0

>  <Rbt.Current_Directory>
/home/itssahil/PROJECTS/Mol_Feturizer/New_Systems/rnas/3F2Q

>  <Rbt.Executable>
rbdock ($Id: //depot/dev/client3/rdock/2013.1/src/exe/rbdock.cxx#4 $)

>  <Rbt.Library>
libRbt.so (2013.1, Build901 2013/11/27)

>  <Rbt.Parameter_File>
/export/apps/rDock/src/rDock_2013.1_src/data/scripts/dock_solv.prm

>  <Rbt.Receptor>
prm/pocket_docking_6.prm

>  <SCORE>
-31.3983

>  <SCORE.INTER>
-28.5401

>  <SCORE.INTER.CONST>
1

>  <SCORE.INTER.POLAR>
0

>  <SCORE.INTER.ROT>
7

>  <SCORE.INTER.SOLV>
19.3662

>  <SCORE.INTER.VDW>
-33.7488

>  <SCORE.INTER.norm>
-0.920647

>  <SCORE.INTRA>
-2.8582

>  <SCORE.INTRA.DIHEDRAL>
-2.55583

>  <SCORE.INTRA.DIHEDRAL.0>
10.0718

>  <SCORE.INTRA.POLAR>
0

>  <SCORE.INTRA.POLAR.0>
0

>  <SCORE.INTRA.REPUL>
0

>  <SCORE.INTRA.REPUL.0>
0

>  <SCORE.INTRA.SOLV>
-0.701091

>  <SCORE.INTRA.SOLV.lig_0>
-48.6963

>  <SCORE.INTRA.VDW>
-1.22974

>  <SCORE.INTRA.VDW.0>
-0.836976

>  <SCORE.INTRA.norm>
-0.0922

>  <SCORE.RESTR>
0

>  <SCORE.RESTR.CAVITY>
0

>  <SCORE.RESTR.norm>
0

>  <SCORE.SYSTEM>
0

>  <SCORE.SYSTEM.CONST>
0

>  <SCORE.SYSTEM.DIHEDRAL>
0

>  <SCORE.SYSTEM.SOLV>
0

>  <SCORE.SYSTEM.norm>
0

>  <SCORE.heavy>
31

>  <SCORE.norm>
-1.01285

>  <RMSD>
5.020

$$$$
ligand
 OpenBabel11021811473D
libRbt.so/2013.1/901 2013/11/27
 31 33  0  0  0  0  0  0  0  0999 V2000
   26.3486   42.8641   16.7098 P   0  0  1  0  0  0  0  0  0  0  0  0
   27.3395   43.8027   16.0552 O   0  0  0  0  0  0  0  0  0  0  0  0
   24.9642   43.3845   16.4308 O   0  5  0  0  0  0  0  0  0  0  0  0
   26.4901   41.4795   16.1400 O   0  0  0  0  0  0  0  0  0  0  0  0
   25.7305   42.1647   19.1410 C   0  0  0  0  0  0  0  0  0  0  0  0
   26.6661   42.7603   18.2754 O   0  0  0  0  0  0  0  0  0  0  0  0
   26.2705   42.2063   20.5630 C   0  0  1  0  0  0  0  0  0  0  0  0
   25.2344   41.8410   21.4497 O   0  0  0  0  0  0  0  0  0  0  0  0
   27.4573   41.2538   20.7080 C   0  0  1  0  0  0  0  0  0  0  0  0
   28.1983   41.5918   21.8609 O   0  0  0  0  0  0  0  0  0  0  0  0
   27.0622   39.7706   20.7169 C   0  0  1  0  0  0  0  0  0  0  0  0
   26.5621   39.3994   19.4516 O   0  0  0  0  0  0  0  0  0  0  0  0
   28.2234   38.8592   21.0808 C   0  0  0  0  0  0  0  0  0  0  0  0
   27.2570   39.5192   23.6526 N   0  0  0  0  0  0  0  0  0  0  0  0
   26.7462   39.8973   24.8776 C   0  0  0  0  0  0  0  0  0  0  0  0
   26.7707   41.0828   25.2199 O   0  0  0  0  0  0  0  0  0  0  0  0
   26.2173   38.9408   25.7205 N   0  0  0  0  0  0  0  0  0  0  0  0
   26.1975   37.6112   25.3433 C   0  0  0  0  0  0  0  0  0  0  0  0
   26.7053   37.2297   24.1189 C   0  0  1  0  0  0  0  0  0  0  0  0
   25.7210   36.7501   26.0809 O   0  0  0  0  0  0  0  0  0  0  0  0
   27.1763   35.5119   22.5309 C   0  0  2  0  0  0  0  0  0  0  0  0
   26.6729   35.8971   23.7565 N   0  0  0  0  0  0  0  0  0  0  0  0
   27.1466   34.1686   22.1641 C   0  0  0  0  0  0  0  0  0  0  0  0
   27.6586   33.7688   20.9336 C   0  0  1  0  0  0  0  0  0  0  0  0
   27.6089   32.3159   20.5488 C   0  0  0  0  0  0  0  0  0  0  0  0
   28.2000   34.7238   20.0656 C   0  0  1  0  0  0  0  0  0  0  0  0
   28.7462   34.3259   18.7255 C   0  0  0  0  0  0  0  0  0  0  0  0
   28.2272   36.0651   20.4356 C   0  0  0  0  0  0  0  0  0  0  0  0
   27.7185   36.4689   21.6678 C   0  0  2  0  0  0  0  0  0  0  0  0
   27.2375   38.1892   23.2653 C   0  0  2  0  0  0  0  0  0  0  0  0
   27.7540   37.8069   22.0422 N   0  0  0  0  0  0  0  0  0  0  0  0
  1  2  1  6  0  0  0
  1  3  1  0  0  0  0
  1  4  2  0  0  0  0
  1  6  1  0  0  0  0
  5  6  1  0  0  0  0
  7  5  1  6  0  0  0
  7  8  1  0  0  0  0
  7  9  1  0  0  0  0
  9 10  1  1  0  0  0
  9 11  1  0  0  0  0
 11 12  1  6  0  0  0
 11 13  1  0  0  0  0
 13 31  1  0  0  0  0
 14 15  1  0  0  0  0
 15 16  2  0  0  0  0
 15 17  1  0  0  0  0
 17 18  1  0  0  0  0
 18 20  2  0  0  0  0
 19 18  1  6  0  0  0
 19 22  1  0  0  0  0
 19 30  1  0  0  0  0
 21 23  1  1  0  0  0
 21 29  1  0  0  0  0
 21 22  1  0  0  0  0
 23 24  1  0  0  0  0
 24 25  1  6  0  0  0
 24 26  1  0  0  0  0
 26 27  1  6  0  0  0
 26 28  1  0  0  0  0
 29 28  1  1  0  0  0
 29 31  1  0  0  0  0
 30 14  1  1  0  0  0
 30 31  1  0  0  0  0
M  CHG  1   3  -1
M  END
>  <CHROM.1>
-179.50395300,167.35461774,169.16527439,161.88060861,67.19962171,136.70736558
113.42704585,26.92372830,39.08814149,21.00206774,-2.03436079,-1.36769564
2.01106495

>  <Name>
ligand

>  <RI>
0

>  <Rbt.Current_Directory>
/home/itssahil/PROJECTS/Mol_Feturizer/New_Systems/rnas/3F2Q

>  <Rbt.Executable>
rbdock ($Id: //depot/dev/client3/rdock/2013.1/src/exe/rbdock.cxx#4 $)

>  <Rbt.Library>
libRbt.so (2013.1, Build901 2013/11/27)

>  <Rbt.Parameter_File>
/export/apps/rDock/src/rDock_2013.1_src/data/scripts/dock_solv.prm

>  <Rbt.Receptor>
prm/pocket_docking_6.prm

>  <SCORE>
-31.447

>  <SCORE.INTER>
-28.5593

>  <SCORE.INTER.CONST>
1

>  <SCORE.INTER.POLAR>
0

>  <SCORE.INTER.ROT>
7

>  <SCORE.INTER.SOLV>
18.8094

>  <SCORE.INTER.VDW>
-33.576

>  <SCORE.INTER.norm>
-0.921268

>  <SCORE.INTRA>
-2.8877

>  <SCORE.INTRA.DIHEDRAL>
-2.51159

>  <SCORE.INTRA.DIHEDRAL.0>
10.0718

>  <SCORE.INTRA.POLAR>
0

>  <SCORE.INTRA.POLAR.0>
0

>  <SCORE.INTRA.REPUL>
0

>  <SCORE.INTRA.REPUL.0>
0

>  <SCORE.INTRA.SOLV>
-0.244527

>  <SCORE.INTRA.SOLV.lig_0>
-48.6963

>  <SCORE.INTRA.VDW>
-1.50964

>  <SCORE.INTRA.VDW.0>
-0.836976

>  <SCORE.INTRA.norm>
-0.0931515

>  <SCORE.RESTR>
0

>  <SCORE.RESTR.CAVITY>
0

>  <SCORE.RESTR.norm>
0

>  <SCORE.SYSTEM>
0

>  <SCORE.SYSTEM.CONST>
0

>  <SCORE.SYSTEM.DIHEDRAL>
0

>  <SCORE.SYSTEM.SOLV>
0

>  <SCORE.SYSTEM.norm>
0

>  <SCORE.heavy>
31

>  <SCORE.norm>
-1.01442

>  <RMSD>
5.022

$$$$
ligand
 OpenBabel11021811473D
libRbt.so/2013.1/901 2013/11/27
 31 33  0  0  0  0  0  0  0  0999 V2000
   25.0467   43.2874   16.5110 P   0  0  1  0  0  0  0  0  0  0  0  0
   25.6420   44.3523   17.4072 O   0  0  0  0  0  0  0  0  0  0  0  0
   23.8158   43.8625   15.8635 O   0  5  0  0  0  0  0  0  0  0  0  0
   26.0349   42.8900   15.4493 O   0  0  0  0  0  0  0  0  0  0  0  0
   25.7950   41.2420   17.9386 C   0  0  0  0  0  0  0  0  0  0  0  0
   24.7355   41.9760   17.3748 O   0  0  0  0  0  0  0  0  0  0  0  0
   26.2733   41.9463   19.1998 C   0  0  1  0  0  0  0  0  0  0  0  0
   25.1998   42.0114   20.1146 O   0  0  0  0  0  0  0  0  0  0  0  0
   27.4525   41.1921   19.8141 C   0  0  1  0  0  0  0  0  0  0  0  0
   28.1251   42.0290   20.7304 O   0  0  0  0  0  0  0  0  0  0  0  0
   27.0617   39.8576   20.4644 C   0  0  1  0  0  0  0  0  0  0  0  0
   26.4214   39.0315   19.5176 O   0  0  0  0  0  0  0  0  0  0  0  0
   28.2572   39.1182   21.0436 C   0  0  0  0  0  0  0  0  0  0  0  0
   27.2842   39.8017   23.6067 N   0  0  0  0  0  0  0  0  0  0  0  0
   26.7704   40.1911   24.8269 C   0  0  0  0  0  0  0  0  0  0  0  0
   26.7971   41.3793   25.1596 O   0  0  0  0  0  0  0  0  0  0  0  0
   26.2362   39.2430   25.6759 N   0  0  0  0  0  0  0  0  0  0  0  0
   26.2140   37.9104   25.3094 C   0  0  0  0  0  0  0  0  0  0  0  0
   26.7248   37.5176   24.0899 C   0  0  1  0  0  0  0  0  0  0  0  0
   25.7327   37.0567   26.0524 O   0  0  0  0  0  0  0  0  0  0  0  0
   27.1963   35.7856   22.5174 C   0  0  2  0  0  0  0  0  0  0  0  0
   26.6899   36.1822   23.7382 N   0  0  0  0  0  0  0  0  0  0  0  0
   27.1642   34.4395   22.1614 C   0  0  0  0  0  0  0  0  0  0  0  0
   27.6790   34.0283   20.9360 C   0  0  1  0  0  0  0  0  0  0  0  0
   27.6266   32.5725   20.5628 C   0  0  0  0  0  0  0  0  0  0  0  0
   28.2259   34.9748   20.0620 C   0  0  1  0  0  0  0  0  0  0  0  0
   28.7754   34.5645   18.7269 C   0  0  0  0  0  0  0  0  0  0  0  0
   28.2556   36.3190   20.4212 C   0  0  0  0  0  0  0  0  0  0  0  0
   27.7439   36.7342   21.6483 C   0  0  2  0  0  0  0  0  0  0  0  0
   27.2623   38.4687   23.2302 C   0  0  2  0  0  0  0  0  0  0  0  0
   27.7818   38.0750   22.0119 N   0  0  0  0  0  0  0  0  0  0  0  0
  1  2  1  1  0  0  0
  1  3  1  0  0  0  0
  1  4  2  0  0  0  0
  1  6  1  0  0  0  0
  5  6  1  0  0  0  0
  7  5  1  6  0  0  0
  7  8  1  0  0  0  0
  7  9  1  0  0  0  0
  9 10  1  1  0  0  0
  9 11  1  0  0  0  0
 11 12  1  6  0  0  0
 11 13  1  0  0  0  0
 13 31  1  0  0  0  0
 14 15  1  0  0  0  0
 15 16  2  0  0  0  0
 15 17  1  0  0  0  0
 17 18  1  0  0  0  0
 18 20  2  0  0  0  0
 19 18  1  6  0  0  0
 19 22  1  0  0  0  0
 19 30  1  0  0  0  0
 21 23  1  1  0  0  0
 21 29  1  0  0  0  0
 21 22  1  0  0  0  0
 23 24  1  0  0  0  0
 24 25  1  6  0  0  0
 24 26  1  0  0  0  0
 26 27  1  6  0  0  0
 26 28  1  0  0  0  0
 29 28  1  1  0  0  0
 29 31  1  0  0  0  0
 30 14  1  1  0  0  0
 30 31  1  0  0  0  0
M  CHG  1   3  -1
M  END
>  <CHROM.1>
79.04396728,-66.04256397,60.44633125,163.20262967,57.05370107,162.50006988
102.62916860,26.65291769,39.30435517,20.74988091,-2.50253667,-1.31500266
1.51197954

>  <Name>
ligand

>  <RI>
0

>  <Rbt.Current_Directory>
/home/itssahil/PROJECTS/Mol_Feturizer/New_Systems/rnas/3F2Q

>  <Rbt.Executable>
rbdock ($Id: //depot/dev/client3/rdock/2013.1/src/exe/rbdock.cxx#4 $)

>  <Rbt.Library>
libRbt.so (2013.1, Build901 2013/11/27)

>  <Rbt.Parameter_File>
/export/apps/rDock/src/rDock_2013.1_src/data/scripts/dock_solv.prm

>  <Rbt.Receptor>
prm/pocket_docking_5.prm

>  <SCORE>
-31.4275

>  <SCORE.INTER>
-27.7528

>  <SCORE.INTER.CONST>
1

>  <SCORE.INTER.POLAR>
0

>  <SCORE.INTER.ROT>
7

>  <SCORE.INTER.SOLV>
18.8947

>  <SCORE.INTER.VDW>
-33.0668

>  <SCORE.INTER.norm>
-0.895252

>  <SCORE.INTRA>
-3.67469

>  <SCORE.INTRA.DIHEDRAL>
-5.13057

>  <SCORE.INTRA.DIHEDRAL.0>
10.0718

>  <SCORE.INTRA.POLAR>
0

>  <SCORE.INTRA.POLAR.0>
0

>  <SCORE.INTRA.REPUL>
0

>  <SCORE.INTRA.REPUL.0>
0

>  <SCORE.INTRA.SOLV>
-0.224607

>  <SCORE.INTRA.SOLV.lig_0>
-48.6963

>  <SCORE.INTRA.VDW>
-0.997102

>  <SCORE.INTRA.VDW.0>
-0.836976

>  <SCORE.INTRA.norm>
-0.118538

>  <SCORE.RESTR>
0

>  <SCORE.RESTR.CAVITY>
0

>  <SCORE.RESTR.norm>
0

>  <SCORE.SYSTEM>
0

>  <SCORE.SYSTEM.CONST>
0

>  <SCORE.SYSTEM.DIHEDRAL>
0

>  <SCORE.SYSTEM.SOLV>
0

>  <SCORE.SYSTEM.norm>
0

>  <SCORE.heavy>
31

>  <SCORE.norm>
-1.01379

>  <RMSD>
5.031

$$$$
ligand
 OpenBabel11021811473D
libRbt.so/2013.1/901 2013/11/27
 31 33  0  0  0  0  0  0  0  0999 V2000
   27.7892   42.5453   17.4291 P   0  0  1  0  0  0  0  0  0  0  0  0
   27.2621   43.9152   17.0590 O   0  0  0  0  0  0  0  0  0  0  0  0
   26.6704   41.5547   17.2492 O   0  5  0  0  0  0  0  0  0  0  0  0
   28.9398   42.1726   16.5353 O   0  0  0  0  0  0  0  0  0  0  0  0
   27.4735   42.3816   20.0089 C   0  0  0  0  0  0  0  0  0  0  0  0
   28.3519   42.5770   18.9274 O   0  0  0  0  0  0  0  0  0  0  0  0
   28.2715   42.3785   21.3045 C   0  0  1  0  0  0  0  0  0  0  0  0
   28.8054   43.6695   21.5083 O   0  0  0  0  0  0  0  0  0  0  0  0
   27.3766   41.9799   22.4780 C   0  0  1  0  0  0  0  0  0  0  0  0
   26.1865   42.7383   22.4456 O   0  0  0  0  0  0  0  0  0  0  0  0
   27.0753   40.4762   22.5427 C   0  0  1  0  0  0  0  0  0  0  0  0
   26.4405   40.0621   21.3534 O   0  0  0  0  0  0  0  0  0  0  0  0
   28.3260   39.6389   22.7577 C   0  0  0  0  0  0  0  0  0  0  0  0
   26.8948   38.1689   24.7005 N   0  0  0  0  0  0  0  0  0  0  0  0
   26.1493   37.5090   25.6562 C   0  0  0  0  0  0  0  0  0  0  0  0
   25.8435   38.0801   26.7066 O   0  0  0  0  0  0  0  0  0  0  0  0
   25.7568   36.2045   25.4340 N   0  0  0  0  0  0  0  0  0  0  0  0
   26.1063   35.5597   24.2624 C   0  0  0  0  0  0  0  0  0  0  0  0
   26.8497   36.2166   23.3041 C   0  0  1  0  0  0  0  0  0  0  0  0
   25.7554   34.4007   24.0479 O   0  0  0  0  0  0  0  0  0  0  0  0
   27.9259   36.2131   21.1742 C   0  0  2  0  0  0  0  0  0  0  0  0
   27.1858   35.5582   22.1371 N   0  0  0  0  0  0  0  0  0  0  0  0
   28.2678   35.5507   19.9977 C   0  0  0  0  0  0  0  0  0  0  0  0
   29.0203   36.1996   19.0238 C   0  0  1  0  0  0  0  0  0  0  0  0
   29.3716   35.4733   17.7547 C   0  0  0  0  0  0  0  0  0  0  0  0
   29.4286   37.5220   19.2313 C   0  0  1  0  0  0  0  0  0  0  0  0
   30.2283   38.2539   18.1932 C   0  0  0  0  0  0  0  0  0  0  0  0
   29.0844   38.1807   20.4080 C   0  0  0  0  0  0  0  0  0  0  0  0
   28.3337   37.5335   21.3866 C   0  0  2  0  0  0  0  0  0  0  0  0
   27.2460   37.5311   23.5219 C   0  0  2  0  0  0  0  0  0  0  0  0
   27.9978   38.1872   22.5661 N   0  0  0  0  0  0  0  0  0  0  0  0
  1  2  1  6  0  0  0
  1  3  1  0  0  0  0
  1  4  2  0  0  0  0
  1  6  1  0  0  0  0
  5  6  1  0  0  0  0
  7  5  1  6  0  0  0
  7  8  1  0  0  0  0
  7  9  1  0  0  0  0
  9 10  1  6  0  0  0
  9 11  1  0  0  0  0
 11 12  1  6  0  0  0
 11 13  1  0  0  0  0
 13 31  1  0  0  0  0
 14 15  1  0  0  0  0
 15 16  2  0  0  0  0
 15 17  1  0  0  0  0
 17 18  1  0  0  0  0
 18 20  2  0  0  0  0
 19 18  1  6  0  0  0
 19 22  1  0  0  0  0
 19 30  1  0  0  0  0
 21 23  1  1  0  0  0
 21 29  1  0  0  0  0
 21 22  1  0  0  0  0
 23 24  1  0  0  0  0
 24 25  1  6  0  0  0
 24 26  1  0  0  0  0
 26 27  1  6  0  0  0
 26 28  1  0  0  0  0
 29 28  1  1  0  0  0
 29 31  1  0  0  0  0
 30 14  1  1  0  0  0
 30 31  1  0  0  0  0
M  CHG  1   3  -1
M  END
>  <CHROM.1>
176.72545518,85.12512443,66.52261614,-49.01306233,-58.90851024,-169.94581611
101.89182458,27.61373719,39.26822265,21.10987808,-1.09065179,-1.21443837
2.82499434

>  <Name>
ligand

>  <RI>
0

>  <Rbt.Current_Directory>
/home/itssahil/PROJECTS/Mol_Feturizer/New_Systems/rnas/3F2Q

>  <Rbt.Executable>
rbdock ($Id: //depot/dev/client3/rdock/2013.1/src/exe/rbdock.cxx#4 $)

>  <Rbt.Library>
libRbt.so (2013.1, Build901 2013/11/27)

>  <Rbt.Parameter_File>
/export/apps/rDock/src/rDock_2013.1_src/data/scripts/dock_solv.prm

>  <Rbt.Receptor>
prm/pocket_docking_8.prm

>  <SCORE>
-33.1138

>  <SCORE.INTER>
-28.1368

>  <SCORE.INTER.CONST>
1

>  <SCORE.INTER.POLAR>
0

>  <SCORE.INTER.ROT>
7

>  <SCORE.INTER.SOLV>
21.9299

>  <SCORE.INTER.VDW>
-34.3345

>  <SCORE.INTER.norm>
-0.907639

>  <SCORE.INTRA>
-4.977

>  <SCORE.INTRA.DIHEDRAL>
-6.99901

>  <SCORE.INTRA.DIHEDRAL.0>
10.0718

>  <SCORE.INTRA.POLAR>
0

>  <SCORE.INTRA.POLAR.0>
0

>  <SCORE.INTRA.REPUL>
0

>  <SCORE.INTRA.REPUL.0>
0

>  <SCORE.INTRA.SOLV>
-0.949525

>  <SCORE.INTRA.SOLV.lig_0>
-48.6963

>  <SCORE.INTRA.VDW>
-1.00273

>  <SCORE.INTRA.VDW.0>
-0.836976

>  <SCORE.INTRA.norm>
-0.160548

>  <SCORE.RESTR>
0

>  <SCORE.RESTR.CAVITY>
0

>  <SCORE.RESTR.norm>
0

>  <SCORE.SYSTEM>
0

>  <SCORE.SYSTEM.CONST>
0

>  <SCORE.SYSTEM.DIHEDRAL>
0

>  <SCORE.SYSTEM.SOLV>
0

>  <SCORE.SYSTEM.norm>
0

>  <SCORE.heavy>
31

>  <SCORE.norm>
-1.06819

>  <RMSD>
5.032

$$$$
ligand
 OpenBabel11021811473D
libRbt.so/2013.1/901 2013/11/27
 31 33  0  0  0  0  0  0  0  0999 V2000
   26.2177   42.7026   16.5429 P   0  0  1  0  0  0  0  0  0  0  0  0
   26.5605   41.3089   16.0617 O   0  0  0  0  0  0  0  0  0  0  0  0
   27.0945   43.6765   15.8028 O   0  5  0  0  0  0  0  0  0  0  0  0
   24.7731   43.0096   16.2589 O   0  0  0  0  0  0  0  0  0  0  0  0
   25.5274   42.0846   18.9767 C   0  0  0  0  0  0  0  0  0  0  0  0
   26.4093   42.7811   18.1303 O   0  0  0  0  0  0  0  0  0  0  0  0
   26.0435   42.1616   20.4060 C   0  0  1  0  0  0  0  0  0  0  0  0
   25.0074   41.7698   21.2814 O   0  0  0  0  0  0  0  0  0  0  0  0
   27.2610   41.2538   20.5803 C   0  0  1  0  0  0  0  0  0  0  0  0
   28.0096   41.6745   21.7006 O   0  0  0  0  0  0  0  0  0  0  0  0
   26.9114   39.7621   20.6744 C   0  0  1  0  0  0  0  0  0  0  0  0
   26.3734   39.3169   19.4492 O   0  0  0  0  0  0  0  0  0  0  0  0
   28.1130   38.9024   21.0329 C   0  0  0  0  0  0  0  0  0  0  0  0
   27.2039   39.5746   23.6223 N   0  0  0  0  0  0  0  0  0  0  0  0
   26.7186   39.9571   24.8562 C   0  0  0  0  0  0  0  0  0  0  0  0
   26.7194   41.1479   25.1803 O   0  0  0  0  0  0  0  0  0  0  0  0
   26.2419   38.9993   25.7283 N   0  0  0  0  0  0  0  0  0  0  0  0
   26.2489   37.6640   25.3713 C   0  0  0  0  0  0  0  0  0  0  0  0
   26.7314   37.2780   24.1381 C   0  0  1  0  0  0  0  0  0  0  0  0
   25.8189   36.8014   26.1351 O   0  0  0  0  0  0  0  0  0  0  0  0
   27.2044   35.5498   22.5620 C   0  0  2  0  0  0  0  0  0  0  0  0
   26.7263   35.9396   23.7963 N   0  0  0  0  0  0  0  0  0  0  0  0
   27.2022   34.2007   22.2158 C   0  0  0  0  0  0  0  0  0  0  0  0
   27.6891   33.7965   20.9767 C   0  0  1  0  0  0  0  0  0  0  0  0
   27.6695   32.3370   20.6147 C   0  0  0  0  0  0  0  0  0  0  0  0
   28.1776   34.7528   20.0792 C   0  0  1  0  0  0  0  0  0  0  0  0
   28.6954   34.3497   18.7294 C   0  0  0  0  0  0  0  0  0  0  0  0
   28.1774   36.0999   20.4286 C   0  0  0  0  0  0  0  0  0  0  0  0
   27.6936   36.5083   21.6693 C   0  0  2  0  0  0  0  0  0  0  0  0
   27.2109   38.2388   23.2552 C   0  0  2  0  0  0  0  0  0  0  0  0
   27.7021   37.8523   22.0229 N   0  0  0  0  0  0  0  0  0  0  0  0
  1  2  1  6  0  0  0
  1  3  1  0  0  0  0
  1  4  2  0  0  0  0
  1  6  1  0  0  0  0
  5  6  1  0  0  0  0
  7  5  1  6  0  0  0
  7  8  1  0  0  0  0
  7  9  1  0  0  0  0
  9 10  1  1  0  0  0
  9 11  1  0  0  0  0
 11 12  1  6  0  0  0
 11 13  1  0  0  0  0
 13 31  1  0  0  0  0
 14 15  1  0  0  0  0
 15 16  2  0  0  0  0
 15 17  1  0  0  0  0
 17 18  1  0  0  0  0
 18 20  2  0  0  0  0
 19 18  1  6  0  0  0
 19 22  1  0  0  0  0
 19 30  1  0  0  0  0
 21 23  1  1  0  0  0
 21 29  1  0  0  0  0
 21 22  1  0  0  0  0
 23 24  1  0  0  0  0
 24 25  1  6  0  0  0
 24 26  1  0  0  0  0
 26 27  1  6  0  0  0
 26 28  1  0  0  0  0
 29 28  1  1  0  0  0
 29 31  1  0  0  0  0
 30 14  1  1  0  0  0
 30 31  1  0  0  0  0
M  CHG  1   3  -1
M  END
>  <CHROM.1>
171.96370627,-69.36184820,165.24906425,158.86727111,65.82240059,138.76603901
112.58275102,26.84664565,39.07150626,20.94628568,-2.10697642,-1.35435471
1.90058470

>  <Name>
ligand

>  <RI>
0

>  <Rbt.Current_Directory>
/home/itssahil/PROJECTS/Mol_Feturizer/New_Systems/rnas/3F2Q

>  <Rbt.Executable>
rbdock ($Id: //depot/dev/client3/rdock/2013.1/src/exe/rbdock.cxx#4 $)

>  <Rbt.Library>
libRbt.so (2013.1, Build901 2013/11/27)

>  <Rbt.Parameter_File>
/export/apps/rDock/src/rDock_2013.1_src/data/scripts/dock_solv.prm

>  <Rbt.Receptor>
prm/blind_docking_100.prm

>  <SCORE>
-31.5162

>  <SCORE.INTER>
-28.5698

>  <SCORE.INTER.CONST>
1

>  <SCORE.INTER.POLAR>
0

>  <SCORE.INTER.ROT>
7

>  <SCORE.INTER.SOLV>
20.2243

>  <SCORE.INTER.VDW>
-34.0546

>  <SCORE.INTER.norm>
-0.921606

>  <SCORE.INTRA>
-2.94642

>  <SCORE.INTRA.DIHEDRAL>
-1.91807

>  <SCORE.INTRA.DIHEDRAL.0>
10.0718

>  <SCORE.INTRA.POLAR>
0

>  <SCORE.INTRA.POLAR.0>
0

>  <SCORE.INTRA.REPUL>
0

>  <SCORE.INTRA.REPUL.0>
0

>  <SCORE.INTRA.SOLV>
-0.982216

>  <SCORE.INTRA.SOLV.lig_0>
-48.6963

>  <SCORE.INTRA.VDW>
-1.49627

>  <SCORE.INTRA.VDW.0>
-0.836976

>  <SCORE.INTRA.norm>
-0.0950457

>  <SCORE.RESTR>
0

>  <SCORE.RESTR.CAVITY>
0

>  <SCORE.RESTR.norm>
0

>  <SCORE.SYSTEM>
0

>  <SCORE.SYSTEM.CONST>
0

>  <SCORE.SYSTEM.DIHEDRAL>
0

>  <SCORE.SYSTEM.SOLV>
0

>  <SCORE.SYSTEM.norm>
0

>  <SCORE.heavy>
31

>  <SCORE.norm>
-1.01665

>  <RMSD>
5.033

$$$$
ligand
 OpenBabel11021811473D
libRbt.so/2013.1/901 2013/11/27
 31 33  0  0  0  0  0  0  0  0999 V2000
   23.7189   42.0463   19.4809 P   0  0  1  0  0  0  0  0  0  0  0  0
   22.5894   43.0465   19.3574 O   0  0  0  0  0  0  0  0  0  0  0  0
   23.8125   41.6295   20.9241 O   0  5  0  0  0  0  0  0  0  0  0  0
   23.4409   40.8406   18.6260 O   0  0  0  0  0  0  0  0  0  0  0  0
   26.2823   41.9864   19.0254 C   0  0  0  0  0  0  0  0  0  0  0  0
   25.0744   42.7024   18.9378 O   0  0  0  0  0  0  0  0  0  0  0  0
   26.2872   40.8871   17.9734 C   0  0  1  0  0  0  0  0  0  0  0  0
   26.4496   41.4800   16.7023 O   0  0  0  0  0  0  0  0  0  0  0  0
   27.4176   39.8952   18.2476 C   0  0  1  0  0  0  0  0  0  0  0  0
   28.6479   40.5842   18.3116 O   0  0  0  0  0  0  0  0  0  0  0  0
   27.1962   39.0366   19.5007 C   0  0  1  0  0  0  0  0  0  0  0  0
   26.1440   38.1244   19.2778 O   0  0  0  0  0  0  0  0  0  0  0  0
   28.4430   38.2690   19.9102 C   0  0  0  0  0  0  0  0  0  0  0  0
   28.1551   39.7016   22.3285 N   0  0  0  0  0  0  0  0  0  0  0  0
   27.9706   40.4498   23.4734 C   0  0  0  0  0  0  0  0  0  0  0  0
   28.1084   41.6758   23.4412 O   0  0  0  0  0  0  0  0  0  0  0  0
   27.6409   39.8177   24.6553 N   0  0  0  0  0  0  0  0  0  0  0  0
   27.4954   38.4438   24.6958 C   0  0  0  0  0  0  0  0  0  0  0  0
   27.6771   37.6928   23.5532 C   0  0  1  0  0  0  0  0  0  0  0  0
   27.1931   37.8689   25.7401 O   0  0  0  0  0  0  0  0  0  0  0  0
   27.6999   35.5669   22.4694 C   0  0  2  0  0  0  0  0  0  0  0  0
   27.5229   36.3213   23.6112 N   0  0  0  0  0  0  0  0  0  0  0  0
   27.5470   34.1837   22.5258 C   0  0  0  0  0  0  0  0  0  0  0  0
   27.7307   33.4132   21.3820 C   0  0  1  0  0  0  0  0  0  0  0  0
   27.5512   31.9220   21.4580 C   0  0  0  0  0  0  0  0  0  0  0  0
   28.0663   34.0357   20.1743 C   0  0  1  0  0  0  0  0  0  0  0  0
   28.2563   33.2335   18.9201 C   0  0  0  0  0  0  0  0  0  0  0  0
   28.2175   35.4182   20.1220 C   0  0  0  0  0  0  0  0  0  0  0  0
   28.0374   36.1927   21.2656 C   0  0  2  0  0  0  0  0  0  0  0  0
   28.0074   38.3246   22.3597 C   0  0  2  0  0  0  0  0  0  0  0  0
   28.1977   37.5723   21.2164 N   0  0  0  0  0  0  0  0  0  0  0  0
  1  2  1  6  0  0  0
  1  3  1  0  0  0  0
  1  4  2  0  0  0  0
  1  6  1  0  0  0  0
  5  6  1  0  0  0  0
  7  5  1  1  0  0  0
  7  8  1  0  0  0  0
  7  9  1  0  0  0  0
  9 10  1  1  0  0  0
  9 11  1  0  0  0  0
 11 12  1  6  0  0  0
 11 13  1  0  0  0  0
 13 31  1  0  0  0  0
 14 15  1  0  0  0  0
 15 16  2  0  0  0  0
 15 17  1  0  0  0  0
 17 18  1  0  0  0  0
 18 20  2  0  0  0  0
 19 18  1  6  0  0  0
 19 22  1  0  0  0  0
 19 30  1  0  0  0  0
 21 23  1  1  0  0  0
 21 29  1  0  0  0  0
 21 22  1  0  0  0  0
 23 24  1  0  0  0  0
 24 25  1  6  0  0  0
 24 26  1  0  0  0  0
 26 27  1  6  0  0  0
 26 28  1  0  0  0  0
 29 28  1  1  0  0  0
 29 31  1  0  0  0  0
 30 14  1  1  0  0  0
 30 31  1  0  0  0  0
M  CHG  1   3  -1
M  END
>  <CHROM.1>
74.32260073,176.23588766,72.07053528,-55.70300096,69.78581992,173.99106996
107.61627311,26.77813535,38.75225586,20.82537560,2.99730172,-1.17991233,1.02905406

>  <Name>
ligand

>  <RI>
0

>  <Rbt.Current_Directory>
/home/itssahil/PROJECTS/Mol_Feturizer/New_Systems/rnas/3F2Q

>  <Rbt.Executable>
rbdock ($Id: //depot/dev/client3/rdock/2013.1/src/exe/rbdock.cxx#4 $)

>  <Rbt.Library>
libRbt.so (2013.1, Build901 2013/11/27)

>  <Rbt.Parameter_File>
/export/apps/rDock/src/rDock_2013.1_src/data/scripts/dock_solv.prm

>  <Rbt.Receptor>
prm/blind_docking_80.prm

>  <SCORE>
-27.284

>  <SCORE.INTER>
-23.5687

>  <SCORE.INTER.CONST>
1

>  <SCORE.INTER.POLAR>
0

>  <SCORE.INTER.ROT>
7

>  <SCORE.INTER.SOLV>
20.7871

>  <SCORE.INTER.VDW>
-30.9082

>  <SCORE.INTER.norm>
-0.76028

>  <SCORE.INTRA>
-3.71532

>  <SCORE.INTRA.DIHEDRAL>
-6.80384

>  <SCORE.INTRA.DIHEDRAL.0>
10.0718

>  <SCORE.INTRA.POLAR>
0

>  <SCORE.INTRA.POLAR.0>
0

>  <SCORE.INTRA.REPUL>
0

>  <SCORE.INTRA.REPUL.0>
0

>  <SCORE.INTRA.SOLV>
1.81278

>  <SCORE.INTRA.SOLV.lig_0>
-48.6963

>  <SCORE.INTRA.VDW>
-1.21979

>  <SCORE.INTRA.VDW.0>
-0.836976

>  <SCORE.INTRA.norm>
-0.119849

>  <SCORE.RESTR>
0

>  <SCORE.RESTR.CAVITY>
0

>  <SCORE.RESTR.norm>
0

>  <SCORE.SYSTEM>
0

>  <SCORE.SYSTEM.CONST>
0

>  <SCORE.SYSTEM.DIHEDRAL>
0

>  <SCORE.SYSTEM.SOLV>
0

>  <SCORE.SYSTEM.norm>
0

>  <SCORE.heavy>
31

>  <SCORE.norm>
-0.880129

>  <RMSD>
5.033

$$$$
ligand
 OpenBabel11021811473D
libRbt.so/2013.1/901 2013/11/27
 31 33  0  0  0  0  0  0  0  0999 V2000
   27.2051   34.2096   16.2894 P   0  0  1  0  0  0  0  0  0  0  0  0
   27.2272   32.6974   16.2230 O   0  0  0  0  0  0  0  0  0  0  0  0
   26.8842   34.7286   14.9136 O   0  5  0  0  0  0  0  0  0  0  0  0
   26.1529   34.6716   17.2596 O   0  0  0  0  0  0  0  0  0  0  0  0
   28.7638   36.0968   17.1783 C   0  0  0  0  0  0  0  0  0  0  0  0
   28.6123   34.7402   16.8377 O   0  0  0  0  0  0  0  0  0  0  0  0
   30.1992   36.3423   17.6196 C   0  0  1  0  0  0  0  0  0  0  0  0
   31.0504   36.1585   16.5083 O   0  0  0  0  0  0  0  0  0  0  0  0
   30.3483   37.7578   18.1773 C   0  0  1  0  0  0  0  0  0  0  0  0
   29.7772   38.6842   17.2783 O   0  0  0  0  0  0  0  0  0  0  0  0
   29.7740   37.9291   19.5906 C   0  0  1  0  0  0  0  0  0  0  0  0
   30.2779   39.1101   20.1736 O   0  0  0  0  0  0  0  0  0  0  0  0
   28.2544   37.9769   19.6014 C   0  0  0  0  0  0  0  0  0  0  0  0
   27.5619   35.5263   20.8254 N   0  0  0  0  0  0  0  0  0  0  0  0
   27.2855   34.2995   21.3938 C   0  0  0  0  0  0  0  0  0  0  0  0
   27.3462   33.2728   20.7116 O   0  0  0  0  0  0  0  0  0  0  0  0
   26.9316   34.2293   22.7261 N   0  0  0  0  0  0  0  0  0  0  0  0
   26.8537   35.3789   23.4896 C   0  0  0  0  0  0  0  0  0  0  0  0
   27.1311   36.6066   22.9256 C   0  0  1  0  0  0  0  0  0  0  0  0
   26.5484   35.3296   24.6800 O   0  0  0  0  0  0  0  0  0  0  0  0
   27.3334   38.9742   23.1455 C   0  0  2  0  0  0  0  0  0  0  0  0
   27.0528   37.7445   23.7049 N   0  0  0  0  0  0  0  0  0  0  0  0
   27.2532   40.1231   23.9287 C   0  0  0  0  0  0  0  0  0  0  0  0
   27.5268   41.3686   23.3723 C   0  0  1  0  0  0  0  0  0  0  0  0
   27.4459   42.5979   24.2348 C   0  0  0  0  0  0  0  0  0  0  0  0
   27.8862   41.4603   22.0228 C   0  0  1  0  0  0  0  0  0  0  0  0
   28.2019   42.7877   21.3975 C   0  0  0  0  0  0  0  0  0  0  0  0
   27.9659   40.3098   21.2437 C   0  0  0  0  0  0  0  0  0  0  0  0
   27.6899   39.0614   21.7963 C   0  0  2  0  0  0  0  0  0  0  0  0
   27.4898   36.6828   21.5846 C   0  0  2  0  0  0  0  0  0  0  0  0
   27.7598   37.9131   21.0167 N   0  0  0  0  0  0  0  0  0  0  0  0
  1  2  1  6  0  0  0
  1  3  1  0  0  0  0
  1  4  2  0  0  0  0
  1  6  1  0  0  0  0
  5  6  1  0  0  0  0
  7  5  1  6  0  0  0
  7  8  1  0  0  0  0
  7  9  1  0  0  0  0
  9 10  1  6  0  0  0
  9 11  1  0  0  0  0
 11 12  1  6  0  0  0
 11 13  1  0  0  0  0
 13 31  1  0  0  0  0
 14 15  1  0  0  0  0
 15 16  2  0  0  0  0
 15 17  1  0  0  0  0
 17 18  1  0  0  0  0
 18 20  2  0  0  0  0
 19 18  1  1  0  0  0
 19 22  1  0  0  0  0
 19 30  1  0  0  0  0
 21 23  1  6  0  0  0
 21 29  1  0  0  0  0
 21 22  1  0  0  0  0
 23 24  1  0  0  0  0
 24 25  1  1  0  0  0
 24 26  1  0  0  0  0
 26 27  1  1  0  0  0
 26 28  1  0  0  0  0
 29 28  1  6  0  0  0
 29 31  1  0  0  0  0
 30 14  1  6  0  0  0
 30 31  1  0  0  0  0
M  CHG  1   3  -1
M  END
>  <CHROM.1>
-177.99007958,-170.39245289,66.58736380,-49.20711551,163.23084524,170.57908251
83.57639936,27.98189172,37.03698200,20.07335736,1.47410194,-1.13734712,-2.37464631

>  <Name>
ligand

>  <RI>
0

>  <Rbt.Current_Directory>
/home/itssahil/PROJECTS/Mol_Feturizer/New_Systems/rnas/3F2Q

>  <Rbt.Executable>
rbdock ($Id: //depot/dev/client3/rdock/2013.1/src/exe/rbdock.cxx#4 $)

>  <Rbt.Library>
libRbt.so (2013.1, Build901 2013/11/27)

>  <Rbt.Parameter_File>
/export/apps/rDock/src/rDock_2013.1_src/data/scripts/dock_solv.prm

>  <Rbt.Receptor>
prm/pocket_docking_5.prm

>  <SCORE>
-25.0148

>  <SCORE.INTER>
-20.4446

>  <SCORE.INTER.CONST>
1

>  <SCORE.INTER.POLAR>
0

>  <SCORE.INTER.ROT>
7

>  <SCORE.INTER.SOLV>
8.98405

>  <SCORE.INTER.VDW>
-24.8911

>  <SCORE.INTER.norm>
-0.659503

>  <SCORE.INTRA>
-4.5702

>  <SCORE.INTRA.DIHEDRAL>
-6.87138

>  <SCORE.INTRA.DIHEDRAL.0>
10.0718

>  <SCORE.INTRA.POLAR>
0

>  <SCORE.INTRA.POLAR.0>
0

>  <SCORE.INTRA.REPUL>
0

>  <SCORE.INTRA.REPUL.0>
0

>  <SCORE.INTRA.SOLV>
-0.595875

>  <SCORE.INTRA.SOLV.lig_0>
-48.6963

>  <SCORE.INTRA.VDW>
-0.836568

>  <SCORE.INTRA.VDW.0>
-0.836976

>  <SCORE.INTRA.norm>
-0.147426

>  <SCORE.RESTR>
0

>  <SCORE.RESTR.CAVITY>
0

>  <SCORE.RESTR.norm>
0

>  <SCORE.SYSTEM>
0

>  <SCORE.SYSTEM.CONST>
0

>  <SCORE.SYSTEM.DIHEDRAL>
0

>  <SCORE.SYSTEM.SOLV>
0

>  <SCORE.SYSTEM.norm>
0

>  <SCORE.heavy>
31

>  <SCORE.norm>
-0.806929

>  <RMSD>
5.036

$$$$
ligand
 OpenBabel11021811473D
libRbt.so/2013.1/901 2013/11/27
 31 33  0  0  0  0  0  0  0  0999 V2000
   24.8247   44.2012   15.7457 P   0  0  1  0  0  0  0  0  0  0  0  0
   25.2463   45.5644   16.2512 O   0  0  0  0  0  0  0  0  0  0  0  0
   23.4471   44.3326   15.1541 O   0  5  0  0  0  0  0  0  0  0  0  0
   25.7818   43.7197   14.6903 O   0  0  0  0  0  0  0  0  0  0  0  0
   26.1082   42.5444   17.2914 C   0  0  0  0  0  0  0  0  0  0  0  0
   24.8834   43.1451   16.9473 O   0  0  0  0  0  0  0  0  0  0  0  0
   25.9265   41.7399   18.5702 C   0  0  1  0  0  0  0  0  0  0  0  0
   24.9068   40.7859   18.3619 O   0  0  0  0  0  0  0  0  0  0  0  0
   27.2348   41.0476   18.9521 C   0  0  1  0  0  0  0  0  0  0  0  0
   28.2308   42.0176   19.1961 O   0  0  0  0  0  0  0  0  0  0  0  0
   27.0996   40.0805   20.1364 C   0  0  1  0  0  0  0  0  0  0  0  0
   26.2829   38.9893   19.7743 O   0  0  0  0  0  0  0  0  0  0  0  0
   28.4431   39.5585   20.6202 C   0  0  0  0  0  0  0  0  0  0  0  0
   28.0672   40.0076   23.3844 N   0  0  0  0  0  0  0  0  0  0  0  0
   27.8375   40.2831   24.7170 C   0  0  0  0  0  0  0  0  0  0  0  0
   27.9124   41.4431   25.1317 O   0  0  0  0  0  0  0  0  0  0  0  0
   27.5335   39.2529   25.5838 N   0  0  0  0  0  0  0  0  0  0  0  0
   27.4585   37.9517   25.1235 C   0  0  0  0  0  0  0  0  0  0  0  0
   27.6855   37.6726   23.7919 C   0  0  1  0  0  0  0  0  0  0  0  0
   27.1797   37.0257   25.8832 O   0  0  0  0  0  0  0  0  0  0  0  0
   27.8241   36.0842   22.0164 C   0  0  2  0  0  0  0  0  0  0  0  0
   27.6017   36.3670   23.3485 N   0  0  0  0  0  0  0  0  0  0  0  0
   27.7421   34.7684   21.5673 C   0  0  0  0  0  0  0  0  0  0  0  0
   27.9721   34.4716   20.2276 C   0  0  1  0  0  0  0  0  0  0  0  0
   27.8690   33.0469   19.7574 C   0  0  0  0  0  0  0  0  0  0  0  0
   28.2827   35.5025   19.3335 C   0  0  1  0  0  0  0  0  0  0  0  0
   28.5213   35.2163   17.8796 C   0  0  0  0  0  0  0  0  0  0  0  0
   28.3631   36.8162   19.7861 C   0  0  0  0  0  0  0  0  0  0  0  0
   28.1364   37.1169   21.1271 C   0  0  2  0  0  0  0  0  0  0  0  0
   27.9902   38.7068   22.9142 C   0  0  2  0  0  0  0  0  0  0  0  0
   28.2259   38.4271   21.5818 N   0  0  0  0  0  0  0  0  0  0  0  0
  1  2  1  1  0  0  0
  1  3  1  0  0  0  0
  1  4  2  0  0  0  0
  1  6  1  0  0  0  0
  5  6  1  0  0  0  0
  7  5  1  6  0  0  0
  7  8  1  0  0  0  0
  7  9  1  0  0  0  0
  9 10  1  1  0  0  0
  9 11  1  0  0  0  0
 11 12  1  6  0  0  0
 11 13  1  0  0  0  0
 13 31  1  0  0  0  0
 14 15  1  0  0  0  0
 15 16  2  0  0  0  0
 15 17  1  0  0  0  0
 17 18  1  0  0  0  0
 18 20  2  0  0  0  0
 19 18  1  6  0  0  0
 19 22  1  0  0  0  0
 19 30  1  0  0  0  0
 21 23  1  1  0  0  0
 21 29  1  0  0  0  0
 21 22  1  0  0  0  0
 23 24  1  0  0  0  0
 24 25  1  6  0  0  0
 24 26  1  0  0  0  0
 26 27  1  6  0  0  0
 26 28  1  0  0  0  0
 29 28  1  1  0  0  0
 29 31  1  0  0  0  0
 30 14  1  1  0  0  0
 30 31  1  0  0  0  0
M  CHG  1   3  -1
M  END
>  <CHROM.1>
172.29988343,-82.59877206,57.51504099,61.69258072,66.26345715,-168.84207295
89.41233914,26.95593344,39.64699798,20.17248519,2.98896385,1.28866839,-2.18136600

>  <Name>
ligand

>  <RI>
0

>  <Rbt.Current_Directory>
/home/itssahil/PROJECTS/Mol_Feturizer/New_Systems/rnas/3F2Q

>  <Rbt.Executable>
rbdock ($Id: //depot/dev/client3/rdock/2013.1/src/exe/rbdock.cxx#4 $)

>  <Rbt.Library>
libRbt.so (2013.1, Build901 2013/11/27)

>  <Rbt.Parameter_File>
/export/apps/rDock/src/rDock_2013.1_src/data/scripts/dock_solv.prm

>  <Rbt.Receptor>
prm/pocket_docking_7.prm

>  <SCORE>
-26.3141

>  <SCORE.INTER>
-21.4392

>  <SCORE.INTER.CONST>
1

>  <SCORE.INTER.POLAR>
0

>  <SCORE.INTER.ROT>
7

>  <SCORE.INTER.SOLV>
21.2562

>  <SCORE.INTER.VDW>
-29.6449

>  <SCORE.INTER.norm>
-0.691587

>  <SCORE.INTRA>
-4.87492

>  <SCORE.INTRA.DIHEDRAL>
-7.28109

>  <SCORE.INTRA.DIHEDRAL.0>
10.0718

>  <SCORE.INTRA.POLAR>
0

>  <SCORE.INTRA.POLAR.0>
0

>  <SCORE.INTRA.REPUL>
0

>  <SCORE.INTRA.REPUL.0>
0

>  <SCORE.INTRA.SOLV>
-1.06619

>  <SCORE.INTRA.SOLV.lig_0>
-48.6963

>  <SCORE.INTRA.VDW>
-0.701275

>  <SCORE.INTRA.VDW.0>
-0.836976

>  <SCORE.INTRA.norm>
-0.157255

>  <SCORE.RESTR>
0

>  <SCORE.RESTR.CAVITY>
0

>  <SCORE.RESTR.norm>
0

>  <SCORE.SYSTEM>
0

>  <SCORE.SYSTEM.CONST>
0

>  <SCORE.SYSTEM.DIHEDRAL>
0

>  <SCORE.SYSTEM.SOLV>
0

>  <SCORE.SYSTEM.norm>
0

>  <SCORE.heavy>
31

>  <SCORE.norm>
-0.848843

>  <RMSD>
5.036

$$$$
ligand
 OpenBabel11021811473D
libRbt.so/2013.1/901 2013/11/27
 31 33  0  0  0  0  0  0  0  0999 V2000
   25.2447   44.4065   16.4032 P   0  0  1  0  0  0  0  0  0  0  0  0
   26.2904   44.0566   15.3661 O   0  0  0  0  0  0  0  0  0  0  0  0
   25.6292   45.7233   17.0223 O   0  5  0  0  0  0  0  0  0  0  0  0
   23.8926   44.5301   15.7565 O   0  0  0  0  0  0  0  0  0  0  0  0
   26.3158   42.6761   18.0281 C   0  0  0  0  0  0  0  0  0  0  0  0
   25.1428   43.2244   17.4779 O   0  0  0  0  0  0  0  0  0  0  0  0
   25.9380   41.6761   19.1110 C   0  0  1  0  0  0  0  0  0  0  0  0
   25.0066   40.7607   18.5744 O   0  0  0  0  0  0  0  0  0  0  0  0
   27.1811   40.9406   19.6114 C   0  0  1  0  0  0  0  0  0  0  0  0
   27.9767   41.8205   20.3765 O   0  0  0  0  0  0  0  0  0  0  0  0
   26.8675   39.6558   20.3905 C   0  0  1  0  0  0  0  0  0  0  0  0
   26.3324   38.6845   19.5193 O   0  0  0  0  0  0  0  0  0  0  0  0
   28.0914   39.0814   21.0860 C   0  0  0  0  0  0  0  0  0  0  0  0
   27.1348   39.7521   23.6586 N   0  0  0  0  0  0  0  0  0  0  0  0
   26.6267   40.1337   24.8837 C   0  0  0  0  0  0  0  0  0  0  0  0
   26.6200   41.3245   25.2078 O   0  0  0  0  0  0  0  0  0  0  0  0
   26.1358   39.1752   25.7470 N   0  0  0  0  0  0  0  0  0  0  0  0
   26.1511   37.8399   25.3900 C   0  0  0  0  0  0  0  0  0  0  0  0
   26.6563   37.4547   24.1657 C   0  0  1  0  0  0  0  0  0  0  0  0
   25.7086   36.9766   26.1459 O   0  0  0  0  0  0  0  0  0  0  0  0
   27.1601   35.7274   22.5982 C   0  0  2  0  0  0  0  0  0  0  0  0
   26.6593   36.1164   23.8237 N   0  0  0  0  0  0  0  0  0  0  0  0
   27.1661   34.3783   22.2520 C   0  0  0  0  0  0  0  0  0  0  0  0
   27.6758   33.9749   21.0218 C   0  0  1  0  0  0  0  0  0  0  0  0
   27.6648   32.5154   20.6594 C   0  0  0  0  0  0  0  0  0  0  0  0
   28.1790   34.9320   20.1333 C   0  0  1  0  0  0  0  0  0  0  0  0
   28.7217   34.5298   18.7931 C   0  0  0  0  0  0  0  0  0  0  0  0
   28.1707   36.2791   20.4828 C   0  0  0  0  0  0  0  0  0  0  0  0
   27.6640   36.6866   21.7146 C   0  0  2  0  0  0  0  0  0  0  0  0
   27.1503   38.4163   23.2916 C   0  0  2  0  0  0  0  0  0  0  0  0
   27.6642   38.0306   22.0684 N   0  0  0  0  0  0  0  0  0  0  0  0
  1  2  1  6  0  0  0
  1  3  1  0  0  0  0
  1  4  2  0  0  0  0
  1  6  1  0  0  0  0
  5  6  1  0  0  0  0
  7  5  1  6  0  0  0
  7  8  1  0  0  0  0
  7  9  1  0  0  0  0
  9 10  1  1  0  0  0
  9 11  1  0  0  0  0
 11 12  1  6  0  0  0
 11 13  1  0  0  0  0
 13 31  1  0  0  0  0
 14 15  1  0  0  0  0
 15 16  2  0  0  0  0
 15 17  1  0  0  0  0
 17 18  1  0  0  0  0
 18 20  2  0  0  0  0
 19 18  1  6  0  0  0
 19 22  1  0  0  0  0
 19 30  1  0  0  0  0
 21 23  1  1  0  0  0
 21 29  1  0  0  0  0
 21 22  1  0  0  0  0
 23 24  1  0  0  0  0
 24 25  1  6  0  0  0
 24 26  1  0  0  0  0
 26 27  1  6  0  0  0
 26 28  1  0  0  0  0
 29 28  1  1  0  0  0
 29 31  1  0  0  0  0
 30 14  1  1  0  0  0
 30 31  1  0  0  0  0
M  CHG  1   3  -1
M  END
>  <CHROM.1>
174.51923056,46.43208885,52.05470151,71.48599522,68.42169776,167.08179399
95.51730640,26.62784066,39.46922933,20.68994991,-2.33995035,-1.32498475,1.72243376

>  <Name>
ligand

>  <RI>
0

>  <Rbt.Current_Directory>
/home/itssahil/PROJECTS/Mol_Feturizer/New_Systems/rnas/3F2Q

>  <Rbt.Executable>
rbdock ($Id: //depot/dev/client3/rdock/2013.1/src/exe/rbdock.cxx#4 $)

>  <Rbt.Library>
libRbt.so (2013.1, Build901 2013/11/27)

>  <Rbt.Parameter_File>
/export/apps/rDock/src/rDock_2013.1_src/data/scripts/dock_solv.prm

>  <Rbt.Receptor>
prm/pocket_docking_6.prm

>  <SCORE>
-32.9297

>  <SCORE.INTER>
-27.764

>  <SCORE.INTER.CONST>
1

>  <SCORE.INTER.POLAR>
0

>  <SCORE.INTER.ROT>
7

>  <SCORE.INTER.SOLV>
22.3384

>  <SCORE.INTER.VDW>
-34.2221

>  <SCORE.INTER.norm>
-0.895613

>  <SCORE.INTRA>
-5.16574

>  <SCORE.INTRA.DIHEDRAL>
-6.93645

>  <SCORE.INTRA.DIHEDRAL.0>
10.0718

>  <SCORE.INTRA.POLAR>
0

>  <SCORE.INTRA.POLAR.0>
0

>  <SCORE.INTRA.REPUL>
0

>  <SCORE.INTRA.REPUL.0>
0

>  <SCORE.INTRA.SOLV>
-1.40549

>  <SCORE.INTRA.SOLV.lig_0>
-48.6963

>  <SCORE.INTRA.VDW>
-0.99477

>  <SCORE.INTRA.VDW.0>
-0.836976

>  <SCORE.INTRA.norm>
-0.166637

>  <SCORE.RESTR>
0

>  <SCORE.RESTR.CAVITY>
0

>  <SCORE.RESTR.norm>
0

>  <SCORE.SYSTEM>
0

>  <SCORE.SYSTEM.CONST>
0

>  <SCORE.SYSTEM.DIHEDRAL>
0

>  <SCORE.SYSTEM.SOLV>
0

>  <SCORE.SYSTEM.norm>
0

>  <SCORE.heavy>
31

>  <SCORE.norm>
-1.06225

>  <RMSD>
5.037

$$$$
ligand
 OpenBabel11021811473D
libRbt.so/2013.1/901 2013/11/27
 31 33  0  0  0  0  0  0  0  0999 V2000
   26.1242   42.6228   16.6564 P   0  0  1  0  0  0  0  0  0  0  0  0
   24.6474   42.7660   16.3563 O   0  0  0  0  0  0  0  0  0  0  0  0
   26.5870   41.3088   16.0869 O   0  5  0  0  0  0  0  0  0  0  0  0
   26.8950   43.7465   16.0198 O   0  0  0  0  0  0  0  0  0  0  0  0
   25.4928   42.0621   19.1198 C   0  0  0  0  0  0  0  0  0  0  0  0
   26.3605   42.7295   18.2360 O   0  0  0  0  0  0  0  0  0  0  0  0
   26.0461   42.1648   20.5336 C   0  0  1  0  0  0  0  0  0  0  0  0
   25.0338   41.7875   21.4426 O   0  0  0  0  0  0  0  0  0  0  0  0
   27.2690   41.2614   20.6918 C   0  0  1  0  0  0  0  0  0  0  0  0
   27.9977   41.6463   21.8379 O   0  0  0  0  0  0  0  0  0  0  0  0
   26.9314   39.7643   20.7254 C   0  0  1  0  0  0  0  0  0  0  0  0
   26.4619   39.3496   19.4619 O   0  0  0  0  0  0  0  0  0  0  0  0
   28.1224   38.9060   21.1208 C   0  0  0  0  0  0  0  0  0  0  0  0
   27.1948   39.6141   23.6940 N   0  0  0  0  0  0  0  0  0  0  0  0
   26.7015   40.0143   24.9192 C   0  0  0  0  0  0  0  0  0  0  0  0
   26.7145   41.2080   25.2324 O   0  0  0  0  0  0  0  0  0  0  0  0
   26.2030   39.0709   25.7949 N   0  0  0  0  0  0  0  0  0  0  0  0
   26.1963   37.7324   25.4501 C   0  0  0  0  0  0  0  0  0  0  0  0
   26.6867   37.3287   24.2258 C   0  0  1  0  0  0  0  0  0  0  0  0
   25.7468   36.8826   26.2172 O   0  0  0  0  0  0  0  0  0  0  0  0
   27.1536   35.5799   22.6707 C   0  0  2  0  0  0  0  0  0  0  0  0
   26.6676   35.9874   23.8962 N   0  0  0  0  0  0  0  0  0  0  0  0
   27.1374   34.2278   22.3369 C   0  0  0  0  0  0  0  0  0  0  0  0
   27.6320   33.8058   21.1068 C   0  0  1  0  0  0  0  0  0  0  0  0
   27.5971   32.3434   20.7580 C   0  0  0  0  0  0  0  0  0  0  0  0
   28.1425   34.7473   20.2059 C   0  0  1  0  0  0  0  0  0  0  0  0
   28.6693   34.3249   18.8655 C   0  0  0  0  0  0  0  0  0  0  0  0
   28.1564   36.0975   20.5430 C   0  0  0  0  0  0  0  0  0  0  0  0
   27.6649   36.5236   21.7746 C   0  0  2  0  0  0  0  0  0  0  0  0
   27.1881   38.2749   23.3393 C   0  0  2  0  0  0  0  0  0  0  0  0
   27.6872   37.8706   22.1160 N   0  0  0  0  0  0  0  0  0  0  0  0
  1  2  1  6  0  0  0
  1  3  1  0  0  0  0
  1  4  2  0  0  0  0
  1  6  1  0  0  0  0
  5  6  1  0  0  0  0
  7  5  1  6  0  0  0
  7  8  1  0  0  0  0
  7  9  1  0  0  0  0
  9 10  1  1  0  0  0
  9 11  1  0  0  0  0
 11 12  1  6  0  0  0
 11 13  1  0  0  0  0
 13 31  1  0  0  0  0
 14 15  1  0  0  0  0
 15 16  2  0  0  0  0
 15 17  1  0  0  0  0
 17 18  1  0  0  0  0
 18 20  2  0  0  0  0
 19 18  1  6  0  0  0
 19 22  1  0  0  0  0
 19 30  1  0  0  0  0
 21 23  1  1  0  0  0
 21 29  1  0  0  0  0
 21 22  1  0  0  0  0
 23 24  1  0  0  0  0
 24 25  1  6  0  0  0
 24 26  1  0  0  0  0
 26 27  1  6  0  0  0
 26 28  1  0  0  0  0
 29 28  1  1  0  0  0
 29 31  1  0  0  0  0
 30 14  1  1  0  0  0
 30 31  1  0  0  0  0
M  CHG  1   3  -1
M  END
>  <CHROM.1>
172.19978962,43.02923085,166.00841438,162.80109324,68.00001593,135.69446974
111.71285655,26.81112368,39.07617203,21.04860244,-2.14130294,-1.35841461
1.86482070

>  <Name>
ligand

>  <RI>
0

>  <Rbt.Current_Directory>
/home/itssahil/PROJECTS/Mol_Feturizer/New_Systems/rnas/3F2Q

>  <Rbt.Executable>
rbdock ($Id: //depot/dev/client3/rdock/2013.1/src/exe/rbdock.cxx#4 $)

>  <Rbt.Library>
libRbt.so (2013.1, Build901 2013/11/27)

>  <Rbt.Parameter_File>
/export/apps/rDock/src/rDock_2013.1_src/data/scripts/dock_solv.prm

>  <Rbt.Receptor>
prm/blind_docking_60.prm

>  <SCORE>
-30.7733

>  <SCORE.INTER>
-28.0044

>  <SCORE.INTER.CONST>
1

>  <SCORE.INTER.POLAR>
0

>  <SCORE.INTER.ROT>
7

>  <SCORE.INTER.SOLV>
21.438

>  <SCORE.INTER.VDW>
-34.0822

>  <SCORE.INTER.norm>
-0.903366

>  <SCORE.INTRA>
-2.76892

>  <SCORE.INTRA.DIHEDRAL>
-1.73202

>  <SCORE.INTRA.DIHEDRAL.0>
10.0718

>  <SCORE.INTRA.POLAR>
0

>  <SCORE.INTRA.POLAR.0>
0

>  <SCORE.INTRA.REPUL>
0

>  <SCORE.INTRA.REPUL.0>
0

>  <SCORE.INTRA.SOLV>
-0.77544

>  <SCORE.INTRA.SOLV.lig_0>
-48.6963

>  <SCORE.INTRA.VDW>
-1.51519

>  <SCORE.INTRA.VDW.0>
-0.836976

>  <SCORE.INTRA.norm>
-0.0893201

>  <SCORE.RESTR>
0

>  <SCORE.RESTR.CAVITY>
0

>  <SCORE.RESTR.norm>
0

>  <SCORE.SYSTEM>
0

>  <SCORE.SYSTEM.CONST>
0

>  <SCORE.SYSTEM.DIHEDRAL>
0

>  <SCORE.SYSTEM.SOLV>
0

>  <SCORE.SYSTEM.norm>
0

>  <SCORE.heavy>
31

>  <SCORE.norm>
-0.992686

>  <RMSD>
5.039

$$$$
ligand
 OpenBabel11021811473D
libRbt.so/2013.1/901 2013/11/27
 31 33  0  0  0  0  0  0  0  0999 V2000
   25.1630   44.3592   16.4156 P   0  0  1  0  0  0  0  0  0  0  0  0
   26.1452   43.9462   15.3403 O   0  0  0  0  0  0  0  0  0  0  0  0
   25.6163   45.6815   16.9734 O   0  5  0  0  0  0  0  0  0  0  0  0
   23.7847   44.5053   15.8318 O   0  0  0  0  0  0  0  0  0  0  0  0
   26.2620   42.6517   18.0459 C   0  0  0  0  0  0  0  0  0  0  0  0
   25.0797   43.2137   17.5307 O   0  0  0  0  0  0  0  0  0  0  0  0
   25.9052   41.6616   19.1449 C   0  0  1  0  0  0  0  0  0  0  0  0
   24.9663   40.7394   18.6337 O   0  0  0  0  0  0  0  0  0  0  0  0
   27.1585   40.9332   19.6304 C   0  0  1  0  0  0  0  0  0  0  0  0
   27.9424   41.8084   20.4128 O   0  0  0  0  0  0  0  0  0  0  0  0
   26.8626   39.6290   20.3839 C   0  0  1  0  0  0  0  0  0  0  0  0
   26.3756   38.6560   19.4866 O   0  0  0  0  0  0  0  0  0  0  0  0
   28.0853   39.0785   21.1005 C   0  0  0  0  0  0  0  0  0  0  0  0
   27.1389   39.7419   23.6788 N   0  0  0  0  0  0  0  0  0  0  0  0
   26.6358   40.1201   24.9069 C   0  0  0  0  0  0  0  0  0  0  0  0
   26.6313   41.3099   25.2348 O   0  0  0  0  0  0  0  0  0  0  0  0
   26.1474   39.1592   25.7691 N   0  0  0  0  0  0  0  0  0  0  0  0
   26.1604   37.8251   25.4079 C   0  0  0  0  0  0  0  0  0  0  0  0
   26.6606   37.4434   24.1805 C   0  0  1  0  0  0  0  0  0  0  0  0
   25.7200   36.9598   26.1628 O   0  0  0  0  0  0  0  0  0  0  0  0
   27.1572   35.7205   22.6057 C   0  0  2  0  0  0  0  0  0  0  0  0
   26.6613   36.1061   23.8343 N   0  0  0  0  0  0  0  0  0  0  0  0
   27.1608   34.3725   22.2553 C   0  0  0  0  0  0  0  0  0  0  0  0
   27.6655   33.9726   21.0219 C   0  0  1  0  0  0  0  0  0  0  0  0
   27.6520   32.5143   20.6550 C   0  0  0  0  0  0  0  0  0  0  0  0
   28.1661   34.9321   20.1345 C   0  0  1  0  0  0  0  0  0  0  0  0
   28.7034   34.5336   18.7910 C   0  0  0  0  0  0  0  0  0  0  0  0
   28.1601   36.2781   20.4883 C   0  0  0  0  0  0  0  0  0  0  0  0
   27.6584   36.6821   21.7232 C   0  0  2  0  0  0  0  0  0  0  0  0
   27.1520   38.4073   23.3076 C   0  0  2  0  0  0  0  0  0  0  0  0
   27.6610   38.0250   22.0812 N   0  0  0  0  0  0  0  0  0  0  0  0
  1  2  1  6  0  0  0
  1  3  1  0  0  0  0
  1  4  2  0  0  0  0
  1  6  1  0  0  0  0
  5  6  1  0  0  0  0
  7  5  1  6  0  0  0
  7  8  1  0  0  0  0
  7  9  1  0  0  0  0
  9 10  1  1  0  0  0
  9 11  1  0  0  0  0
 11 12  1  6  0  0  0
 11 13  1  0  0  0  0
 13 31  1  0  0  0  0
 14 15  1  0  0  0  0
 15 16  2  0  0  0  0
 15 17  1  0  0  0  0
 17 18  1  0  0  0  0
 18 20  2  0  0  0  0
 19 18  1  6  0  0  0
 19 22  1  0  0  0  0
 19 30  1  0  0  0  0
 21 23  1  1  0  0  0
 21 29  1  0  0  0  0
 21 22  1  0  0  0  0
 23 24  1  0  0  0  0
 24 25  1  6  0  0  0
 24 26  1  0  0  0  0
 26 27  1  6  0  0  0
 26 28  1  0  0  0  0
 29 28  1  1  0  0  0
 29 31  1  0  0  0  0
 30 14  1  1  0  0  0
 30 31  1  0  0  0  0
M  CHG  1   3  -1
M  END
>  <CHROM.1>
176.34650221,46.80424310,53.29965019,73.56574586,70.05883397,165.74318140
93.96482182,26.60530336,39.45058628,20.70334115,-2.37254106,-1.32227581,1.68725583

>  <Name>
ligand

>  <RI>
0

>  <Rbt.Current_Directory>
/home/itssahil/PROJECTS/Mol_Feturizer/New_Systems/rnas/3F2Q

>  <Rbt.Executable>
rbdock ($Id: //depot/dev/client3/rdock/2013.1/src/exe/rbdock.cxx#4 $)

>  <Rbt.Library>
libRbt.so (2013.1, Build901 2013/11/27)

>  <Rbt.Parameter_File>
/export/apps/rDock/src/rDock_2013.1_src/data/scripts/dock_solv.prm

>  <Rbt.Receptor>
prm/pocket_docking_6.prm

>  <SCORE>
-33.0072

>  <SCORE.INTER>
-27.9617

>  <SCORE.INTER.CONST>
1

>  <SCORE.INTER.POLAR>
0

>  <SCORE.INTER.ROT>
7

>  <SCORE.INTER.SOLV>
22.061

>  <SCORE.INTER.VDW>
-34.2614

>  <SCORE.INTER.norm>
-0.901989

>  <SCORE.INTRA>
-5.0455

>  <SCORE.INTRA.DIHEDRAL>
-6.70542

>  <SCORE.INTRA.DIHEDRAL.0>
10.0718

>  <SCORE.INTRA.POLAR>
0

>  <SCORE.INTRA.POLAR.0>
0

>  <SCORE.INTRA.REPUL>
0

>  <SCORE.INTRA.REPUL.0>
0

>  <SCORE.INTRA.SOLV>
-1.41326

>  <SCORE.INTRA.SOLV.lig_0>
-48.6963

>  <SCORE.INTRA.VDW>
-0.98616

>  <SCORE.INTRA.VDW.0>
-0.836976

>  <SCORE.INTRA.norm>
-0.162758

>  <SCORE.RESTR>
0

>  <SCORE.RESTR.CAVITY>
0

>  <SCORE.RESTR.norm>
0

>  <SCORE.SYSTEM>
0

>  <SCORE.SYSTEM.CONST>
0

>  <SCORE.SYSTEM.DIHEDRAL>
0

>  <SCORE.SYSTEM.SOLV>
0

>  <SCORE.SYSTEM.norm>
0

>  <SCORE.heavy>
31

>  <SCORE.norm>
-1.06475

>  <RMSD>
5.039

$$$$
ligand
 OpenBabel11021811473D
libRbt.so/2013.1/901 2013/11/27
 31 33  0  0  0  0  0  0  0  0999 V2000
   27.3971   42.1443   16.5889 P   0  0  1  0  0  0  0  0  0  0  0  0
   26.7538   40.7855   16.4119 O   0  0  0  0  0  0  0  0  0  0  0  0
   28.8666   41.9322   16.8355 O   0  5  0  0  0  0  0  0  0  0  0  0
   27.2095   42.9734   15.3483 O   0  0  0  0  0  0  0  0  0  0  0  0
   26.2852   42.2241   18.9424 C   0  0  0  0  0  0  0  0  0  0  0  0
   26.6756   42.9243   17.7863 O   0  0  0  0  0  0  0  0  0  0  0  0
   27.5269   41.8271   19.7274 C   0  0  1  0  0  0  0  0  0  0  0  0
   28.2048   43.0008   20.1228 O   0  0  0  0  0  0  0  0  0  0  0  0
   27.1384   40.9976   20.9512 C   0  0  1  0  0  0  0  0  0  0  0  0
   26.0432   41.6019   21.6054 O   0  0  0  0  0  0  0  0  0  0  0  0
   26.8508   39.5237   20.6331 C   0  0  1  0  0  0  0  0  0  0  0  0
   26.4314   39.3949   19.2928 O   0  0  0  0  0  0  0  0  0  0  0  0
   28.0585   38.6299   20.8655 C   0  0  0  0  0  0  0  0  0  0  0  0
   27.4491   39.5540   23.4651 N   0  0  0  0  0  0  0  0  0  0  0  0
   27.1065   40.0564   24.7039 C   0  0  0  0  0  0  0  0  0  0  0  0
   27.1353   41.2731   24.9087 O   0  0  0  0  0  0  0  0  0  0  0  0
   26.7412   39.1896   25.7141 N   0  0  0  0  0  0  0  0  0  0  0  0
   26.7173   37.8259   25.4899 C   0  0  0  0  0  0  0  0  0  0  0  0
   27.0573   37.3201   24.2525 C   0  0  1  0  0  0  0  0  0  0  0  0
   26.3851   37.0432   26.3784 O   0  0  0  0  0  0  0  0  0  0  0  0
   27.3587   35.4452   22.8074 C   0  0  2  0  0  0  0  0  0  0  0  0
   27.0232   35.9549   24.0450 N   0  0  0  0  0  0  0  0  0  0  0  0
   27.3271   34.0688   22.5964 C   0  0  0  0  0  0  0  0  0  0  0  0
   27.6709   33.5443   21.3544 C   0  0  1  0  0  0  0  0  0  0  0  0
   27.6211   32.0566   21.1404 C   0  0  0  0  0  0  0  0  0  0  0  0
   28.0450   34.4070   20.3179 C   0  0  1  0  0  0  0  0  0  0  0  0
   28.4068   33.8728   18.9628 C   0  0  0  0  0  0  0  0  0  0  0  0
   28.0747   35.7818   20.5327 C   0  0  0  0  0  0  0  0  0  0  0  0
   27.7341   36.3105   21.7754 C   0  0  2  0  0  0  0  0  0  0  0  0
   27.4241   38.1888   23.2310 C   0  0  2  0  0  0  0  0  0  0  0  0
   27.7728   37.6825   21.9936 N   0  0  0  0  0  0  0  0  0  0  0  0
  1  2  1  6  0  0  0
  1  3  1  0  0  0  0
  1  4  2  0  0  0  0
  1  6  1  0  0  0  0
  5  6  1  0  0  0  0
  7  5  1  1  0  0  0
  7  8  1  0  0  0  0
  7  9  1  0  0  0  0
  9 10  1  6  0  0  0
  9 11  1  0  0  0  0
 11 12  1  6  0  0  0
 11 13  1  0  0  0  0
 13 31  1  0  0  0  0
 14 15  1  0  0  0  0
 15 16  2  0  0  0  0
 15 17  1  0  0  0  0
 17 18  1  0  0  0  0
 18 20  2  0  0  0  0
 19 18  1  6  0  0  0
 19 22  1  0  0  0  0
 19 30  1  0  0  0  0
 21 23  1  1  0  0  0
 21 29  1  0  0  0  0
 21 22  1  0  0  0  0
 23 24  1  0  0  0  0
 24 25  1  6  0  0  0
 24 26  1  0  0  0  0
 26 27  1  6  0  0  0
 26 28  1  0  0  0  0
 29 28  1  1  0  0  0
 29 31  1  0  0  0  0
 30 14  1  1  0  0  0
 30 31  1  0  0  0  0
M  CHG  1   3  -1
M  END
>  <CHROM.1>
70.63709494,39.16173784,61.92452287,-45.20776406,-26.11797286,114.25890263
116.64350797,27.29817293,38.93049339,20.95364192,-1.59601077,-1.43498481
2.38721289

>  <Name>
ligand

>  <RI>
0

>  <Rbt.Current_Directory>
/home/itssahil/PROJECTS/Mol_Feturizer/New_Systems/rnas/3F2Q

>  <Rbt.Executable>
rbdock ($Id: //depot/dev/client3/rdock/2013.1/src/exe/rbdock.cxx#4 $)

>  <Rbt.Library>
libRbt.so (2013.1, Build901 2013/11/27)

>  <Rbt.Parameter_File>
/export/apps/rDock/src/rDock_2013.1_src/data/scripts/dock_solv.prm

>  <Rbt.Receptor>
prm/pocket_docking_6.prm

>  <SCORE>
-27.1869

>  <SCORE.INTER>
-27.9991

>  <SCORE.INTER.CONST>
1

>  <SCORE.INTER.POLAR>
0

>  <SCORE.INTER.ROT>
7

>  <SCORE.INTER.SOLV>
21.349

>  <SCORE.INTER.VDW>
-34.049

>  <SCORE.INTER.norm>
-0.903196

>  <SCORE.INTRA>
0.81222

>  <SCORE.INTRA.DIHEDRAL>
1.50943

>  <SCORE.INTRA.DIHEDRAL.0>
10.0718

>  <SCORE.INTRA.POLAR>
0

>  <SCORE.INTRA.POLAR.0>
0

>  <SCORE.INTRA.REPUL>
0

>  <SCORE.INTRA.REPUL.0>
0

>  <SCORE.INTRA.SOLV>
1.12727

>  <SCORE.INTRA.SOLV.lig_0>
-48.6963

>  <SCORE.INTRA.VDW>
-0.506126

>  <SCORE.INTRA.VDW.0>
-0.836976

>  <SCORE.INTRA.norm>
0.0262006

>  <SCORE.RESTR>
0

>  <SCORE.RESTR.CAVITY>
0

>  <SCORE.RESTR.norm>
0

>  <SCORE.SYSTEM>
0

>  <SCORE.SYSTEM.CONST>
0

>  <SCORE.SYSTEM.DIHEDRAL>
0

>  <SCORE.SYSTEM.SOLV>
0

>  <SCORE.SYSTEM.norm>
0

>  <SCORE.heavy>
31

>  <SCORE.norm>
-0.876996

>  <RMSD>
5.041

$$$$
ligand
 OpenBabel11021811473D
libRbt.so/2013.1/901 2013/11/27
 31 33  0  0  0  0  0  0  0  0999 V2000
   25.0686   42.8077   16.7823 P   0  0  1  0  0  0  0  0  0  0  0  0
   24.4108   41.7995   17.7001 O   0  0  0  0  0  0  0  0  0  0  0  0
   24.1914   42.9718   15.5704 O   0  5  0  0  0  0  0  0  0  0  0  0
   25.2124   44.1310   17.4823 O   0  0  0  0  0  0  0  0  0  0  0  0
   27.5350   42.2584   17.4124 C   0  0  0  0  0  0  0  0  0  0  0  0
   26.5450   42.3104   16.4141 O   0  0  0  0  0  0  0  0  0  0  0  0
   27.3439   40.9947   18.2381 C   0  0  1  0  0  0  0  0  0  0  0  0
   27.7840   39.8889   17.4787 O   0  0  0  0  0  0  0  0  0  0  0  0
   28.1303   41.0910   19.5454 C   0  0  1  0  0  0  0  0  0  0  0  0
   27.4980   42.0078   20.4127 O   0  0  0  0  0  0  0  0  0  0  0  0
   28.3523   39.7373   20.2344 C   0  0  1  0  0  0  0  0  0  0  0  0
   29.0272   39.9265   21.4582 O   0  0  0  0  0  0  0  0  0  0  0  0
   27.0518   38.9932   20.4923 C   0  0  0  0  0  0  0  0  0  0  0  0
   26.9760   39.9581   23.1469 N   0  0  0  0  0  0  0  0  0  0  0  0
   26.8798   40.4709   24.4245 C   0  0  0  0  0  0  0  0  0  0  0  0
   26.7584   41.6869   24.5965 O   0  0  0  0  0  0  0  0  0  0  0  0
   26.9301   39.6169   25.5077 N   0  0  0  0  0  0  0  0  0  0  0  0
   27.0757   38.2555   25.3178 C   0  0  0  0  0  0  0  0  0  0  0  0
   27.1702   37.7390   24.0423 C   0  0  1  0  0  0  0  0  0  0  0  0
   27.1129   37.4826   26.2737 O   0  0  0  0  0  0  0  0  0  0  0  0
   27.4014   35.8544   22.5968 C   0  0  2  0  0  0  0  0  0  0  0  0
   27.3105   36.3755   23.8713 N   0  0  0  0  0  0  0  0  0  0  0  0
   27.5450   34.4802   22.4219 C   0  0  0  0  0  0  0  0  0  0  0  0
   27.6451   33.9455   21.1413 C   0  0  1  0  0  0  0  0  0  0  0  0
   27.7889   32.4584   20.9699 C   0  0  0  0  0  0  0  0  0  0  0  0
   27.5972   34.7954   20.0304 C   0  0  1  0  0  0  0  0  0  0  0  0
   27.6874   34.2475   18.6360 C   0  0  0  0  0  0  0  0  0  0  0  0
   27.4530   36.1680   20.2095 C   0  0  0  0  0  0  0  0  0  0  0  0
   27.3554   36.7074   21.4899 C   0  0  2  0  0  0  0  0  0  0  0  0
   27.1182   38.5945   22.9478 C   0  0  2  0  0  0  0  0  0  0  0  0
   27.2211   38.0789   21.6700 N   0  0  0  0  0  0  0  0  0  0  0  0
  1  2  1  1  0  0  0
  1  3  1  0  0  0  0
  1  4  2  0  0  0  0
  1  6  1  0  0  0  0
  5  6  1  0  0  0  0
  7  5  1  6  0  0  0
  7  8  1  0  0  0  0
  7  9  1  0  0  0  0
  9 10  1  1  0  0  0
  9 11  1  0  0  0  0
 11 12  1  1  0  0  0
 11 13  1  0  0  0  0
 13 31  1  0  0  0  0
 14 15  1  0  0  0  0
 15 16  2  0  0  0  0
 15 17  1  0  0  0  0
 17 18  1  0  0  0  0
 18 20  2  0  0  0  0
 19 18  1  6  0  0  0
 19 22  1  0  0  0  0
 19 30  1  0  0  0  0
 21 23  1  1  0  0  0
 21 29  1  0  0  0  0
 21 22  1  0  0  0  0
 23 24  1  0  0  0  0
 24 25  1  6  0  0  0
 24 26  1  0  0  0  0
 26 27  1  6  0  0  0
 26 28  1  0  0  0  0
 29 28  1  1  0  0  0
 29 31  1  0  0  0  0
 30 14  1  1  0  0  0
 30 31  1  0  0  0  0
M  CHG  1   3  -1
M  END
>  <CHROM.1>
79.78339075,-67.36753698,74.58742956,72.45094402,-177.23278095,-153.31229548
-104.83006769,26.95785074,39.20543441,20.65131285,-2.85753153,-1.37377880
1.10670476

>  <Name>
ligand

>  <RI>
0

>  <Rbt.Current_Directory>
/home/itssahil/PROJECTS/Mol_Feturizer/New_Systems/rnas/3F2Q

>  <Rbt.Executable>
rbdock ($Id: //depot/dev/client3/rdock/2013.1/src/exe/rbdock.cxx#4 $)

>  <Rbt.Library>
libRbt.so (2013.1, Build901 2013/11/27)

>  <Rbt.Parameter_File>
/export/apps/rDock/src/rDock_2013.1_src/data/scripts/dock_solv.prm

>  <Rbt.Receptor>
prm/pocket_docking_3.prm

>  <SCORE>
-25.2903

>  <SCORE.INTER>
-22.5943

>  <SCORE.INTER.CONST>
1

>  <SCORE.INTER.POLAR>
0

>  <SCORE.INTER.ROT>
7

>  <SCORE.INTER.SOLV>
16.9458

>  <SCORE.INTER.VDW>
-28.9781

>  <SCORE.INTER.norm>
-0.728849

>  <SCORE.INTRA>
-2.69599

>  <SCORE.INTRA.DIHEDRAL>
-3.26533

>  <SCORE.INTRA.DIHEDRAL.0>
10.0718

>  <SCORE.INTRA.POLAR>
0

>  <SCORE.INTRA.POLAR.0>
0

>  <SCORE.INTRA.REPUL>
0

>  <SCORE.INTRA.REPUL.0>
0

>  <SCORE.INTRA.SOLV>
-0.216737

>  <SCORE.INTRA.SOLV.lig_0>
-48.6963

>  <SCORE.INTRA.VDW>
-0.954954

>  <SCORE.INTRA.VDW.0>
-0.836976

>  <SCORE.INTRA.norm>
-0.0869673

>  <SCORE.RESTR>
0

>  <SCORE.RESTR.CAVITY>
0

>  <SCORE.RESTR.norm>
0

>  <SCORE.SYSTEM>
0

>  <SCORE.SYSTEM.CONST>
0

>  <SCORE.SYSTEM.DIHEDRAL>
0

>  <SCORE.SYSTEM.SOLV>
0

>  <SCORE.SYSTEM.norm>
0

>  <SCORE.heavy>
31

>  <SCORE.norm>
-0.815816

>  <RMSD>
5.055

$$$$
ligand
 OpenBabel11021811473D
libRbt.so/2013.1/901 2013/11/27
 31 33  0  0  0  0  0  0  0  0999 V2000
   29.1050   35.0922   18.0214 P   0  0  1  0  0  0  0  0  0  0  0  0
   28.7208   34.1958   19.1793 O   0  0  0  0  0  0  0  0  0  0  0  0
   30.2105   34.4139   17.2580 O   0  5  0  0  0  0  0  0  0  0  0  0
   27.9240   35.3045   17.1148 O   0  0  0  0  0  0  0  0  0  0  0  0
   29.9663   37.5267   17.6856 C   0  0  0  0  0  0  0  0  0  0  0  0
   29.5312   36.5309   18.5791 O   0  0  0  0  0  0  0  0  0  0  0  0
   30.2670   38.7985   18.4650 C   0  0  1  0  0  0  0  0  0  0  0  0
   31.1507   39.5951   17.7048 O   0  0  0  0  0  0  0  0  0  0  0  0
   28.9746   39.5622   18.7536 C   0  0  1  0  0  0  0  0  0  0  0  0
   28.2880   39.8061   17.5446 O   0  0  0  0  0  0  0  0  0  0  0  0
   28.0648   38.8722   19.7795 C   0  0  1  0  0  0  0  0  0  0  0  0
   27.3677   37.8109   19.1658 O   0  0  0  0  0  0  0  0  0  0  0  0
   28.8349   38.3368   20.9760 C   0  0  0  0  0  0  0  0  0  0  0  0
   27.6608   35.9672   21.9708 N   0  0  0  0  0  0  0  0  0  0  0  0
   27.1529   34.7756   22.4468 C   0  0  0  0  0  0  0  0  0  0  0  0
   27.3416   33.7281   21.8221 O   0  0  0  0  0  0  0  0  0  0  0  0
   26.4251   34.7644   23.6196 N   0  0  0  0  0  0  0  0  0  0  0  0
   26.2043   35.9378   24.3159 C   0  0  0  0  0  0  0  0  0  0  0  0
   26.7119   37.1305   23.8444 C   0  0  1  0  0  0  0  0  0  0  0  0
   25.5654   35.9406   25.3667 O   0  0  0  0  0  0  0  0  0  0  0  0
   26.9950   39.4873   24.0896 C   0  0  2  0  0  0  0  0  0  0  0  0
   26.4855   38.2927   24.5559 N   0  0  0  0  0  0  0  0  0  0  0  0
   26.7663   40.6607   24.8041 C   0  0  0  0  0  0  0  0  0  0  0  0
   27.2692   41.8716   24.3385 C   0  0  1  0  0  0  0  0  0  0  0  0
   27.0222   43.1275   25.1279 C   0  0  0  0  0  0  0  0  0  0  0  0
   28.0087   41.9034   23.1508 C   0  0  1  0  0  0  0  0  0  0  0  0
   28.5771   43.1914   22.6307 C   0  0  0  0  0  0  0  0  0  0  0  0
   28.2356   40.7285   22.4401 C   0  0  0  0  0  0  0  0  0  0  0  0
   27.7313   39.5148   22.9013 C   0  0  2  0  0  0  0  0  0  0  0  0
   27.4473   37.1471   22.6647 C   0  0  2  0  0  0  0  0  0  0  0  0
   27.9491   38.3426   22.1872 N   0  0  0  0  0  0  0  0  0  0  0  0
  1  2  1  1  0  0  0
  1  3  1  0  0  0  0
  1  4  2  0  0  0  0
  1  6  1  0  0  0  0
  5  6  1  0  0  0  0
  7  5  1  6  0  0  0
  7  8  1  0  0  0  0
  7  9  1  0  0  0  0
  9 10  1  6  0  0  0
  9 11  1  0  0  0  0
 11 12  1  6  0  0  0
 11 13  1  0  0  0  0
 13 31  1  0  0  0  0
 14 15  1  0  0  0  0
 15 16  2  0  0  0  0
 15 17  1  0  0  0  0
 17 18  1  0  0  0  0
 18 20  2  0  0  0  0
 19 18  1  1  0  0  0
 19 22  1  0  0  0  0
 19 30  1  0  0  0  0
 21 23  1  6  0  0  0
 21 29  1  0  0  0  0
 21 22  1  0  0  0  0
 23 24  1  0  0  0  0
 24 25  1  1  0  0  0
 24 26  1  0  0  0  0
 26 27  1  1  0  0  0
 26 28  1  0  0  0  0
 29 28  1  6  0  0  0
 29 31  1  0  0  0  0
 30 14  1  6  0  0  0
 30 31  1  0  0  0  0
M  CHG  1   3  -1
M  END
>  <CHROM.1>
178.32195676,178.25633650,158.01718531,-54.97000288,-78.11026474,150.73980521
-79.83532462,28.08385284,37.81164596,21.09385377,0.91361022,-1.11819950,-2.80159887

>  <Name>
ligand

>  <RI>
0

>  <Rbt.Current_Directory>
/home/itssahil/PROJECTS/Mol_Feturizer/New_Systems/rnas/3F2Q

>  <Rbt.Executable>
rbdock ($Id: //depot/dev/client3/rdock/2013.1/src/exe/rbdock.cxx#4 $)

>  <Rbt.Library>
libRbt.so (2013.1, Build901 2013/11/27)

>  <Rbt.Parameter_File>
/export/apps/rDock/src/rDock_2013.1_src/data/scripts/dock_solv.prm

>  <Rbt.Receptor>
prm/pocket_docking_5.prm

>  <SCORE>
-26.7811

>  <SCORE.INTER>
-24.2377

>  <SCORE.INTER.CONST>
1

>  <SCORE.INTER.POLAR>
0

>  <SCORE.INTER.ROT>
7

>  <SCORE.INTER.SOLV>
12.0553

>  <SCORE.INTER.VDW>
-28.4436

>  <SCORE.INTER.norm>
-0.781862

>  <SCORE.INTRA>
-2.54341

>  <SCORE.INTRA.DIHEDRAL>
-3.22047

>  <SCORE.INTRA.DIHEDRAL.0>
10.0718

>  <SCORE.INTRA.POLAR>
0

>  <SCORE.INTRA.POLAR.0>
0

>  <SCORE.INTRA.REPUL>
0

>  <SCORE.INTRA.REPUL.0>
0

>  <SCORE.INTRA.SOLV>
0.936988

>  <SCORE.INTRA.SOLV.lig_0>
-48.6963

>  <SCORE.INTRA.VDW>
-1.40166

>  <SCORE.INTRA.VDW.0>
-0.836976

>  <SCORE.INTRA.norm>
-0.0820454

>  <SCORE.RESTR>
0

>  <SCORE.RESTR.CAVITY>
0

>  <SCORE.RESTR.norm>
0

>  <SCORE.SYSTEM>
0

>  <SCORE.SYSTEM.CONST>
0

>  <SCORE.SYSTEM.DIHEDRAL>
0

>  <SCORE.SYSTEM.SOLV>
0

>  <SCORE.SYSTEM.norm>
0

>  <SCORE.heavy>
31

>  <SCORE.norm>
-0.863907

>  <RMSD>
5.055

$$$$
ligand
 OpenBabel11021811473D
libRbt.so/2013.1/901 2013/11/27
 31 33  0  0  0  0  0  0  0  0999 V2000
   24.3308   44.2533   16.9093 P   0  0  1  0  0  0  0  0  0  0  0  0
   25.5755   45.0720   16.6410 O   0  0  0  0  0  0  0  0  0  0  0  0
   23.5520   44.9387   17.9996 O   0  5  0  0  0  0  0  0  0  0  0  0
   23.4879   44.1673   15.6667 O   0  0  0  0  0  0  0  0  0  0  0  0
   25.7257   42.5367   18.2838 C   0  0  0  0  0  0  0  0  0  0  0  0
   24.7492   42.7571   17.2953 O   0  0  0  0  0  0  0  0  0  0  0  0
   25.8525   41.0412   18.5341 C   0  0  1  0  0  0  0  0  0  0  0  0
   26.2746   40.4182   17.3394 O   0  0  0  0  0  0  0  0  0  0  0  0
   26.8540   40.7741   19.6576 C   0  0  1  0  0  0  0  0  0  0  0  0
   26.5916   41.6388   20.7421 O   0  0  0  0  0  0  0  0  0  0  0  0
   26.8957   39.3089   20.1133 C   0  0  1  0  0  0  0  0  0  0  0  0
   26.9793   38.4593   18.9908 O   0  0  0  0  0  0  0  0  0  0  0  0
   28.0621   39.0202   21.0448 C   0  0  0  0  0  0  0  0  0  0  0  0
   27.1547   39.7003   23.6328 N   0  0  0  0  0  0  0  0  0  0  0  0
   26.6697   40.0861   24.8659 C   0  0  0  0  0  0  0  0  0  0  0  0
   26.6626   41.2788   25.1833 O   0  0  0  0  0  0  0  0  0  0  0  0
   26.2024   39.1298   25.7446 N   0  0  0  0  0  0  0  0  0  0  0  0
   26.2183   37.7926   25.3950 C   0  0  0  0  0  0  0  0  0  0  0  0
   26.7004   37.4032   24.1628 C   0  0  1  0  0  0  0  0  0  0  0  0
   25.7966   36.9312   26.1648 O   0  0  0  0  0  0  0  0  0  0  0  0
   27.1821   35.6697   22.5951 C   0  0  2  0  0  0  0  0  0  0  0  0
   26.7043   36.0629   23.8284 N   0  0  0  0  0  0  0  0  0  0  0  0
   27.1889   34.3187   22.2565 C   0  0  0  0  0  0  0  0  0  0  0  0
   27.6756   33.9111   21.0185 C   0  0  1  0  0  0  0  0  0  0  0  0
   27.6658   32.4495   20.6647 C   0  0  0  0  0  0  0  0  0  0  0  0
   28.1547   34.8659   20.1143 C   0  0  1  0  0  0  0  0  0  0  0  0
   28.6720   34.4590   18.7654 C   0  0  0  0  0  0  0  0  0  0  0  0
   28.1456   36.2149   20.4562 C   0  0  0  0  0  0  0  0  0  0  0  0
   27.6620   36.6267   21.6958 C   0  0  2  0  0  0  0  0  0  0  0  0
   27.1705   38.3625   23.2732 C   0  0  2  0  0  0  0  0  0  0  0  0
   27.6614   37.9727   22.0419 N   0  0  0  0  0  0  0  0  0  0  0  0
  1  2  1  6  0  0  0
  1  3  1  0  0  0  0
  1  4  2  0  0  0  0
  1  6  1  0  0  0  0
  5  6  1  0  0  0  0
  7  5  1  6  0  0  0
  7  8  1  0  0  0  0
  7  9  1  0  0  0  0
  9 10  1  1  0  0  0
  9 11  1  0  0  0  0
 11 12  1  6  0  0  0
 11 13  1  0  0  0  0
 13 31  1  0  0  0  0
 14 15  1  0  0  0  0
 15 16  2  0  0  0  0
 15 17  1  0  0  0  0
 17 18  1  0  0  0  0
 18 20  2  0  0  0  0
 19 18  1  6  0  0  0
 19 22  1  0  0  0  0
 19 30  1  0  0  0  0
 21 23  1  1  0  0  0
 21 29  1  0  0  0  0
 21 22  1  0  0  0  0
 23 24  1  0  0  0  0
 24 25  1  6  0  0  0
 24 26  1  0  0  0  0
 26 27  1  6  0  0  0
 26 28  1  0  0  0  0
 29 28  1  1  0  0  0
 29 31  1  0  0  0  0
 30 14  1  1  0  0  0
 30 31  1  0  0  0  0
M  CHG  1   3  -1
M  END
>  <CHROM.1>
175.49663106,49.87039770,61.84839096,46.51956618,47.80444589,146.76154088
80.10219380,26.43645522,39.34121276,20.72372640,-2.54587387,-1.25845638,1.55690532

>  <Name>
ligand

>  <RI>
0

>  <Rbt.Current_Directory>
/home/itssahil/PROJECTS/Mol_Feturizer/New_Systems/rnas/3F2Q

>  <Rbt.Executable>
rbdock ($Id: //depot/dev/client3/rdock/2013.1/src/exe/rbdock.cxx#4 $)

>  <Rbt.Library>
libRbt.so (2013.1, Build901 2013/11/27)

>  <Rbt.Parameter_File>
/export/apps/rDock/src/rDock_2013.1_src/data/scripts/dock_solv.prm

>  <Rbt.Receptor>
prm/pocket_docking_5.prm

>  <SCORE>
-31.9368

>  <SCORE.INTER>
-28.1345

>  <SCORE.INTER.CONST>
1

>  <SCORE.INTER.POLAR>
0

>  <SCORE.INTER.ROT>
7

>  <SCORE.INTER.SOLV>
18.8677

>  <SCORE.INTER.VDW>
-33.3123

>  <SCORE.INTER.norm>
-0.907565

>  <SCORE.INTRA>
-3.80226

>  <SCORE.INTRA.DIHEDRAL>
-4.37095

>  <SCORE.INTRA.DIHEDRAL.0>
10.0718

>  <SCORE.INTRA.POLAR>
0

>  <SCORE.INTRA.POLAR.0>
0

>  <SCORE.INTRA.REPUL>
0

>  <SCORE.INTRA.REPUL.0>
0

>  <SCORE.INTRA.SOLV>
-1.36215

>  <SCORE.INTRA.SOLV.lig_0>
-48.6963

>  <SCORE.INTRA.VDW>
-0.935704

>  <SCORE.INTRA.VDW.0>
-0.836976

>  <SCORE.INTRA.norm>
-0.122654

>  <SCORE.RESTR>
0

>  <SCORE.RESTR.CAVITY>
0

>  <SCORE.RESTR.norm>
0

>  <SCORE.SYSTEM>
0

>  <SCORE.SYSTEM.CONST>
0

>  <SCORE.SYSTEM.DIHEDRAL>
0

>  <SCORE.SYSTEM.SOLV>
0

>  <SCORE.SYSTEM.norm>
0

>  <SCORE.heavy>
31

>  <SCORE.norm>
-1.03022

>  <RMSD>
5.064

$$$$
ligand
 OpenBabel11021811473D
libRbt.so/2013.1/901 2013/11/27
 31 33  0  0  0  0  0  0  0  0999 V2000
   27.0363   35.0022   14.3793 P   0  0  1  0  0  0  0  0  0  0  0  0
   26.5043   35.7128   13.1531 O   0  0  0  0  0  0  0  0  0  0  0  0
   25.9790   34.0415   14.8528 O   0  5  0  0  0  0  0  0  0  0  0  0
   28.2890   34.2434   14.0374 O   0  0  0  0  0  0  0  0  0  0  0  0
   27.8232   35.6554   16.7743 C   0  0  0  0  0  0  0  0  0  0  0  0
   27.4328   36.0827   15.4920 O   0  0  0  0  0  0  0  0  0  0  0  0
   28.2431   36.8652   17.5961 C   0  0  1  0  0  0  0  0  0  0  0  0
   27.1523   37.7582   17.6738 O   0  0  0  0  0  0  0  0  0  0  0  0
   28.6777   36.4309   18.9959 C   0  0  1  0  0  0  0  0  0  0  0  0
   29.7045   35.4675   18.8960 O   0  0  0  0  0  0  0  0  0  0  0  0
   29.0962   37.5966   19.9027 C   0  0  1  0  0  0  0  0  0  0  0  0
   30.1576   38.3101   19.3083 O   0  0  0  0  0  0  0  0  0  0  0  0
   27.9505   38.5542   20.1888 C   0  0  0  0  0  0  0  0  0  0  0  0
   27.0914   36.1272   21.3528 N   0  0  0  0  0  0  0  0  0  0  0  0
   26.7272   34.9071   21.8852 C   0  0  0  0  0  0  0  0  0  0  0  0
   26.6159   33.9200   21.1528 O   0  0  0  0  0  0  0  0  0  0  0  0
   26.4789   34.8005   23.2387 N   0  0  0  0  0  0  0  0  0  0  0  0
   26.5936   35.9068   24.0593 C   0  0  0  0  0  0  0  0  0  0  0  0
   26.9592   37.1275   23.5313 C   0  0  1  0  0  0  0  0  0  0  0  0
   26.3841   35.8237   25.2683 O   0  0  0  0  0  0  0  0  0  0  0  0
   27.4429   39.4434   23.8433 C   0  0  2  0  0  0  0  0  0  0  0  0
   27.0735   38.2214   24.3670 N   0  0  0  0  0  0  0  0  0  0  0  0
   27.5568   40.5482   24.6836 C   0  0  0  0  0  0  0  0  0  0  0  0
   27.9212   41.7865   24.1643 C   0  0  1  0  0  0  0  0  0  0  0  0
   28.0500   42.9667   25.0873 C   0  0  0  0  0  0  0  0  0  0  0  0
   28.1760   41.9148   22.7942 C   0  0  1  0  0  0  0  0  0  0  0  0
   28.5857   43.2337   22.2064 C   0  0  0  0  0  0  0  0  0  0  0  0
   28.0617   40.8083   21.9580 C   0  0  0  0  0  0  0  0  0  0  0  0
   27.6942   39.5676   22.4736 C   0  0  2  0  0  0  0  0  0  0  0  0
   27.2122   37.2400   22.1689 C   0  0  2  0  0  0  0  0  0  0  0  0
   27.5704   38.4642   21.6377 N   0  0  0  0  0  0  0  0  0  0  0  0
  1  2  1  6  0  0  0
  1  3  1  0  0  0  0
  1  4  2  0  0  0  0
  1  6  1  0  0  0  0
  5  6  1  0  0  0  0
  7  5  1  6  0  0  0
  7  8  1  0  0  0  0
  7  9  1  0  0  0  0
  9 10  1  6  0  0  0
  9 11  1  0  0  0  0
 11 12  1  6  0  0  0
 11 13  1  0  0  0  0
 13 31  1  0  0  0  0
 14 15  1  0  0  0  0
 15 16  2  0  0  0  0
 15 17  1  0  0  0  0
 17 18  1  0  0  0  0
 18 20  2  0  0  0  0
 19 18  1  1  0  0  0
 19 22  1  0  0  0  0
 19 30  1  0  0  0  0
 21 23  1  6  0  0  0
 21 29  1  0  0  0  0
 21 22  1  0  0  0  0
 23 24  1  0  0  0  0
 24 25  1  1  0  0  0
 24 26  1  0  0  0  0
 26 27  1  1  0  0  0
 26 28  1  0  0  0  0
 29 28  1  6  0  0  0
 29 31  1  0  0  0  0
 30 14  1  6  0  0  0
 30 31  1  0  0  0  0
M  CHG  1   3  -1
M  END
>  <CHROM.1>
175.79956586,173.45973511,59.01576491,55.78241519,-58.25699041,112.09207233
117.58474144,27.60150203,37.36282503,20.11643105,-1.68020883,1.29660766,1.17305257

>  <Name>
ligand

>  <RI>
0

>  <Rbt.Current_Directory>
/home/itssahil/PROJECTS/Mol_Feturizer/New_Systems/rnas/3F2Q

>  <Rbt.Executable>
rbdock ($Id: //depot/dev/client3/rdock/2013.1/src/exe/rbdock.cxx#4 $)

>  <Rbt.Library>
libRbt.so (2013.1, Build901 2013/11/27)

>  <Rbt.Parameter_File>
/export/apps/rDock/src/rDock_2013.1_src/data/scripts/dock_solv.prm

>  <Rbt.Receptor>
prm/blind_docking_100.prm

>  <SCORE>
-24.9557

>  <SCORE.INTER>
-22.6163

>  <SCORE.INTER.CONST>
1

>  <SCORE.INTER.POLAR>
0

>  <SCORE.INTER.ROT>
7

>  <SCORE.INTER.SOLV>
12.9813

>  <SCORE.INTER.VDW>
-27.6713

>  <SCORE.INTER.norm>
-0.729557

>  <SCORE.INTRA>
-2.3394

>  <SCORE.INTRA.DIHEDRAL>
-3.46803

>  <SCORE.INTRA.DIHEDRAL.0>
10.0718

>  <SCORE.INTRA.POLAR>
0

>  <SCORE.INTRA.POLAR.0>
0

>  <SCORE.INTRA.REPUL>
0

>  <SCORE.INTRA.REPUL.0>
0

>  <SCORE.INTRA.SOLV>
-0.708719

>  <SCORE.INTRA.SOLV.lig_0>
-48.6963

>  <SCORE.INTRA.VDW>
-0.251024

>  <SCORE.INTRA.VDW.0>
-0.836976

>  <SCORE.INTRA.norm>
-0.0754645

>  <SCORE.RESTR>
0

>  <SCORE.RESTR.CAVITY>
0

>  <SCORE.RESTR.norm>
0

>  <SCORE.SYSTEM>
0

>  <SCORE.SYSTEM.CONST>
0

>  <SCORE.SYSTEM.DIHEDRAL>
0

>  <SCORE.SYSTEM.SOLV>
0

>  <SCORE.SYSTEM.norm>
0

>  <SCORE.heavy>
31

>  <SCORE.norm>
-0.805021

>  <RMSD>
5.071

$$$$
ligand
 OpenBabel11021811473D
libRbt.so/2013.1/901 2013/11/27
 31 33  0  0  0  0  0  0  0  0999 V2000
   25.0575   43.4317   17.2363 P   0  0  1  0  0  0  0  0  0  0  0  0
   26.0237   44.5908   17.1164 O   0  0  0  0  0  0  0  0  0  0  0  0
   23.7018   43.9113   16.7923 O   0  5  0  0  0  0  0  0  0  0  0  0
   25.5007   42.2933   16.3591 O   0  0  0  0  0  0  0  0  0  0  0  0
   26.1620   42.1604   19.2226 C   0  0  0  0  0  0  0  0  0  0  0  0
   25.0588   42.8896   18.7425 O   0  0  0  0  0  0  0  0  0  0  0  0
   26.0096   41.9564   20.7228 C   0  0  1  0  0  0  0  0  0  0  0  0
   24.8054   41.2596   20.9631 O   0  0  0  0  0  0  0  0  0  0  0  0
   27.1994   41.1716   21.2753 C   0  0  1  0  0  0  0  0  0  0  0  0
   28.4021   41.7337   20.7954 O   0  0  0  0  0  0  0  0  0  0  0  0
   27.2101   41.0614   22.8063 C   0  0  1  0  0  0  0  0  0  0  0  0
   25.9764   40.5500   23.2594 O   0  0  0  0  0  0  0  0  0  0  0  0
   28.3351   40.1772   23.3201 C   0  0  0  0  0  0  0  0  0  0  0  0
   26.8797   38.5802   25.1408 N   0  0  0  0  0  0  0  0  0  0  0  0
   26.1220   37.8576   26.0398 C   0  0  0  0  0  0  0  0  0  0  0  0
   25.7967   38.3588   27.1197 O   0  0  0  0  0  0  0  0  0  0  0  0
   25.7390   36.5687   25.7278 N   0  0  0  0  0  0  0  0  0  0  0  0
   26.1102   36.0019   24.5230 C   0  0  0  0  0  0  0  0  0  0  0  0
   26.8658   36.7217   23.6212 C   0  0  1  0  0  0  0  0  0  0  0  0
   25.7681   34.8579   24.2287 O   0  0  0  0  0  0  0  0  0  0  0  0
   27.9762   36.8591   21.5133 C   0  0  2  0  0  0  0  0  0  0  0  0
   27.2237   36.1409   22.4200 N   0  0  0  0  0  0  0  0  0  0  0  0
   28.3399   36.2750   20.3024 C   0  0  0  0  0  0  0  0  0  0  0  0
   29.1050   36.9879   19.3847 C   0  0  1  0  0  0  0  0  0  0  0  0
   29.4799   36.3460   18.0774 C   0  0  0  0  0  0  0  0  0  0  0  0
   29.5039   38.2957   19.6833 C   0  0  1  0  0  0  0  0  0  0  0  0
   30.3167   39.0956   18.7077 C   0  0  0  0  0  0  0  0  0  0  0  0
   29.1378   38.8760   20.8942 C   0  0  0  0  0  0  0  0  0  0  0  0
   28.3745   38.1645   21.8168 C   0  0  2  0  0  0  0  0  0  0  0  0
   27.2527   38.0209   23.9295 C   0  0  2  0  0  0  0  0  0  0  0  0
   28.0167   38.7397   23.0303 N   0  0  0  0  0  0  0  0  0  0  0  0
  1  2  1  6  0  0  0
  1  3  1  0  0  0  0
  1  4  2  0  0  0  0
  1  6  1  0  0  0  0
  5  6  1  0  0  0  0
  7  5  1  6  0  0  0
  7  8  1  0  0  0  0
  7  9  1  0  0  0  0
  9 10  1  1  0  0  0
  9 11  1  0  0  0  0
 11 12  1  6  0  0  0
 11 13  1  0  0  0  0
 13 31  1  0  0  0  0
 14 15  1  0  0  0  0
 15 16  2  0  0  0  0
 15 17  1  0  0  0  0
 17 18  1  0  0  0  0
 18 20  2  0  0  0  0
 19 18  1  6  0  0  0
 19 22  1  0  0  0  0
 19 30  1  0  0  0  0
 21 23  1  1  0  0  0
 21 29  1  0  0  0  0
 21 22  1  0  0  0  0
 23 24  1  0  0  0  0
 24 25  1  6  0  0  0
 24 26  1  0  0  0  0
 26 27  1  6  0  0  0
 26 28  1  0  0  0  0
 29 28  1  1  0  0  0
 29 31  1  0  0  0  0
 30 14  1  1  0  0  0
 30 31  1  0  0  0  0
M  CHG  1   3  -1
M  END
>  <CHROM.1>
171.21209179,-72.76916932,59.12469374,48.05017357,53.18624298,-73.03119972
87.53927468,26.86285108,39.64529925,21.20371205,1.80683034,0.89335008,-1.01600269

>  <Name>
ligand

>  <RI>
0

>  <Rbt.Current_Directory>
/home/itssahil/PROJECTS/Mol_Feturizer/New_Systems/rnas/3F2Q

>  <Rbt.Executable>
rbdock ($Id: //depot/dev/client3/rdock/2013.1/src/exe/rbdock.cxx#4 $)

>  <Rbt.Library>
libRbt.so (2013.1, Build901 2013/11/27)

>  <Rbt.Parameter_File>
/export/apps/rDock/src/rDock_2013.1_src/data/scripts/dock_solv.prm

>  <Rbt.Receptor>
prm/blind_docking_100.prm

>  <SCORE>
-31.8486

>  <SCORE.INTER>
-26.4235

>  <SCORE.INTER.CONST>
1

>  <SCORE.INTER.POLAR>
0

>  <SCORE.INTER.ROT>
7

>  <SCORE.INTER.SOLV>
18.9969

>  <SCORE.INTER.VDW>
-32.2146

>  <SCORE.INTER.norm>
-0.852369

>  <SCORE.INTRA>
-5.42511

>  <SCORE.INTRA.DIHEDRAL>
-7.00485

>  <SCORE.INTRA.DIHEDRAL.0>
10.0718

>  <SCORE.INTRA.POLAR>
0

>  <SCORE.INTRA.POLAR.0>
0

>  <SCORE.INTRA.REPUL>
0

>  <SCORE.INTRA.REPUL.0>
0

>  <SCORE.INTRA.SOLV>
-0.837844

>  <SCORE.INTRA.SOLV.lig_0>
-48.6963

>  <SCORE.INTRA.VDW>
-1.50376

>  <SCORE.INTRA.VDW.0>
-0.836976

>  <SCORE.INTRA.norm>
-0.175003

>  <SCORE.RESTR>
0

>  <SCORE.RESTR.CAVITY>
0

>  <SCORE.RESTR.norm>
0

>  <SCORE.SYSTEM>
0

>  <SCORE.SYSTEM.CONST>
0

>  <SCORE.SYSTEM.DIHEDRAL>
0

>  <SCORE.SYSTEM.SOLV>
0

>  <SCORE.SYSTEM.norm>
0

>  <SCORE.heavy>
31

>  <SCORE.norm>
-1.02737

>  <RMSD>
5.071

$$$$
ligand
 OpenBabel11021811473D
libRbt.so/2013.1/901 2013/11/27
 31 33  0  0  0  0  0  0  0  0999 V2000
   32.0401   36.4736   17.2038 P   0  0  1  0  0  0  0  0  0  0  0  0
   32.5937   37.1767   15.9829 O   0  0  0  0  0  0  0  0  0  0  0  0
   32.6443   35.0962   17.2584 O   0  5  0  0  0  0  0  0  0  0  0  0
   32.4044   37.2326   18.4501 O   0  0  0  0  0  0  0  0  0  0  0  0
   29.7022   35.8019   18.1337 C   0  0  0  0  0  0  0  0  0  0  0  0
   30.4416   36.4448   17.1241 O   0  0  0  0  0  0  0  0  0  0  0  0
   28.2218   35.8729   17.7890 C   0  0  1  0  0  0  0  0  0  0  0  0
   27.4940   35.1810   18.7814 O   0  0  0  0  0  0  0  0  0  0  0  0
   27.7645   37.3294   17.7100 C   0  0  1  0  0  0  0  0  0  0  0  0
   26.7699   37.4609   16.7171 O   0  0  0  0  0  0  0  0  0  0  0  0
   27.2880   37.9013   19.0524 C   0  0  1  0  0  0  0  0  0  0  0  0
   26.1569   37.1897   19.5031 O   0  0  0  0  0  0  0  0  0  0  0  0
   28.3662   37.8533   20.1232 C   0  0  0  0  0  0  0  0  0  0  0  0
   27.4384   35.5685   21.5023 N   0  0  0  0  0  0  0  0  0  0  0  0
   27.0481   34.4175   22.1561 C   0  0  0  0  0  0  0  0  0  0  0  0
   27.1257   33.3251   21.5870 O   0  0  0  0  0  0  0  0  0  0  0  0
   26.5618   34.4970   23.4454 N   0  0  0  0  0  0  0  0  0  0  0  0
   26.4649   35.7204   24.0813 C   0  0  0  0  0  0  0  0  0  0  0  0
   26.8558   36.8728   23.4319 C   0  0  1  0  0  0  0  0  0  0  0  0
   26.0419   35.8044   25.2330 O   0  0  0  0  0  0  0  0  0  0  0  0
   27.1503   39.2409   23.4398 C   0  0  2  0  0  0  0  0  0  0  0  0
   26.7565   38.0863   24.0845 N   0  0  0  0  0  0  0  0  0  0  0  0
   27.0492   40.4658   24.0950 C   0  0  0  0  0  0  0  0  0  0  0  0
   27.4364   41.6368   23.4510 C   0  0  1  0  0  0  0  0  0  0  0  0
   27.3308   42.9496   24.1767 C   0  0  0  0  0  0  0  0  0  0  0  0
   27.9311   41.5767   22.1431 C   0  0  1  0  0  0  0  0  0  0  0  0
   28.3709   42.8203   21.4273 C   0  0  0  0  0  0  0  0  0  0  0  0
   28.0311   40.3507   21.4921 C   0  0  0  0  0  0  0  0  0  0  0  0
   27.6417   39.1765   22.1324 C   0  0  2  0  0  0  0  0  0  0  0  0
   27.3481   36.7982   22.1339 C   0  0  2  0  0  0  0  0  0  0  0  0
   27.7321   37.9530   21.4796 N   0  0  0  0  0  0  0  0  0  0  0  0
  1  2  1  6  0  0  0
  1  3  1  0  0  0  0
  1  4  2  0  0  0  0
  1  6  1  0  0  0  0
  5  6  1  0  0  0  0
  7  5  1  1  0  0  0
  7  8  1  0  0  0  0
  7  9  1  0  0  0  0
  9 10  1  6  0  0  0
  9 11  1  0  0  0  0
 11 12  1  1  0  0  0
 11 13  1  0  0  0  0
 13 31  1  0  0  0  0
 14 15  1  0  0  0  0
 15 16  2  0  0  0  0
 15 17  1  0  0  0  0
 17 18  1  0  0  0  0
 18 20  2  0  0  0  0
 19 18  1  1  0  0  0
 19 22  1  0  0  0  0
 19 30  1  0  0  0  0
 21 23  1  6  0  0  0
 21 29  1  0  0  0  0
 21 22  1  0  0  0  0
 23 24  1  0  0  0  0
 24 25  1  1  0  0  0
 24 26  1  0  0  0  0
 26 27  1  1  0  0  0
 26 28  1  0  0  0  0
 29 28  1  6  0  0  0
 29 31  1  0  0  0  0
 30 14  1  6  0  0  0
 30 31  1  0  0  0  0
M  CHG  1   3  -1
M  END
>  <CHROM.1>
-177.76763724,178.00596475,177.78484968,146.03590743,-62.72194805,-160.04951385
-96.08631413,28.35959215,37.43823750,20.54135757,-0.58222204,0.92905033,0.27020993

>  <Name>
ligand

>  <RI>
0

>  <Rbt.Current_Directory>
/home/itssahil/PROJECTS/Mol_Feturizer/New_Systems/rnas/3F2Q

>  <Rbt.Executable>
rbdock ($Id: //depot/dev/client3/rdock/2013.1/src/exe/rbdock.cxx#4 $)

>  <Rbt.Library>
libRbt.so (2013.1, Build901 2013/11/27)

>  <Rbt.Parameter_File>
/export/apps/rDock/src/rDock_2013.1_src/data/scripts/dock_solv.prm

>  <Rbt.Receptor>
prm/pocket_docking_6.prm

>  <SCORE>
-27.2431

>  <SCORE.INTER>
-24.5024

>  <SCORE.INTER.CONST>
1

>  <SCORE.INTER.POLAR>
0

>  <SCORE.INTER.ROT>
7

>  <SCORE.INTER.SOLV>
15.2895

>  <SCORE.INTER.VDW>
-29.6981

>  <SCORE.INTER.norm>
-0.790399

>  <SCORE.INTRA>
-2.74071

>  <SCORE.INTRA.DIHEDRAL>
-4.01316

>  <SCORE.INTRA.DIHEDRAL.0>
10.0718

>  <SCORE.INTRA.POLAR>
0

>  <SCORE.INTRA.POLAR.0>
0

>  <SCORE.INTRA.REPUL>
0

>  <SCORE.INTRA.REPUL.0>
0

>  <SCORE.INTRA.SOLV>
0.195536

>  <SCORE.INTRA.SOLV.lig_0>
-48.6963

>  <SCORE.INTRA.VDW>
-0.831895

>  <SCORE.INTRA.VDW.0>
-0.836976

>  <SCORE.INTRA.norm>
-0.08841

>  <SCORE.RESTR>
0

>  <SCORE.RESTR.CAVITY>
0

>  <SCORE.RESTR.norm>
0

>  <SCORE.SYSTEM>
0

>  <SCORE.SYSTEM.CONST>
0

>  <SCORE.SYSTEM.DIHEDRAL>
0

>  <SCORE.SYSTEM.SOLV>
0

>  <SCORE.SYSTEM.norm>
0

>  <SCORE.heavy>
31

>  <SCORE.norm>
-0.878809

>  <RMSD>
5.088

$$$$
ligand
 OpenBabel11021811473D
libRbt.so/2013.1/901 2013/11/27
 31 33  0  0  0  0  0  0  0  0999 V2000
   25.5490   43.4718   16.3740 P   0  0  1  0  0  0  0  0  0  0  0  0
   26.0508   43.6851   14.9618 O   0  0  0  0  0  0  0  0  0  0  0  0
   25.2416   44.8214   16.9648 O   0  5  0  0  0  0  0  0  0  0  0  0
   24.3012   42.6323   16.3606 O   0  0  0  0  0  0  0  0  0  0  0  0
   26.3597   42.2556   18.5292 C   0  0  0  0  0  0  0  0  0  0  0  0
   26.6468   42.6646   17.2141 O   0  0  0  0  0  0  0  0  0  0  0  0
   27.6522   41.8352   19.2135 C   0  0  1  0  0  0  0  0  0  0  0  0
   28.5915   42.8814   19.0849 O   0  0  0  0  0  0  0  0  0  0  0  0
   27.3957   41.5269   20.6886 C   0  0  1  0  0  0  0  0  0  0  0  0
   26.5152   42.4893   21.2280 O   0  0  0  0  0  0  0  0  0  0  0  0
   26.8841   40.1020   20.9425 C   0  0  1  0  0  0  0  0  0  0  0  0
   26.0405   39.6996   19.8864 O   0  0  0  0  0  0  0  0  0  0  0  0
   28.0127   39.0942   21.0906 C   0  0  0  0  0  0  0  0  0  0  0  0
   27.0977   39.7667   23.6779 N   0  0  0  0  0  0  0  0  0  0  0  0
   26.6087   40.1485   24.9106 C   0  0  0  0  0  0  0  0  0  0  0  0
   26.5911   41.3410   25.2279 O   0  0  0  0  0  0  0  0  0  0  0  0
   26.1489   39.1882   25.7891 N   0  0  0  0  0  0  0  0  0  0  0  0
   26.1765   37.8512   25.4396 C   0  0  0  0  0  0  0  0  0  0  0  0
   26.6628   37.4659   24.2077 C   0  0  1  0  0  0  0  0  0  0  0  0
   25.7616   36.9862   26.2092 O   0  0  0  0  0  0  0  0  0  0  0  0
   27.1604   35.7364   22.6405 C   0  0  2  0  0  0  0  0  0  0  0  0
   26.6784   36.1256   23.8735 N   0  0  0  0  0  0  0  0  0  0  0  0
   27.1791   34.3855   22.3021 C   0  0  0  0  0  0  0  0  0  0  0  0
   27.6701   33.9820   21.0644 C   0  0  1  0  0  0  0  0  0  0  0  0
   27.6730   32.5204   20.7107 C   0  0  0  0  0  0  0  0  0  0  0  0
   28.1416   34.9408   20.1605 C   0  0  1  0  0  0  0  0  0  0  0  0
   28.6634   34.5383   18.8120 C   0  0  0  0  0  0  0  0  0  0  0  0
   28.1207   36.2897   20.5023 C   0  0  0  0  0  0  0  0  0  0  0  0
   27.6327   36.6974   21.7415 C   0  0  2  0  0  0  0  0  0  0  0  0
   27.1253   38.4291   23.3184 C   0  0  2  0  0  0  0  0  0  0  0  0
   27.6204   38.0434   22.0875 N   0  0  0  0  0  0  0  0  0  0  0  0
  1  2  1  6  0  0  0
  1  3  1  0  0  0  0
  1  4  2  0  0  0  0
  1  6  1  0  0  0  0
  5  6  1  0  0  0  0
  7  5  1  1  0  0  0
  7  8  1  0  0  0  0
  7  9  1  0  0  0  0
  9 10  1  6  0  0  0
  9 11  1  0  0  0  0
 11 12  1  6  0  0  0
 11 13  1  0  0  0  0
 13 31  1  0  0  0  0
 14 15  1  0  0  0  0
 15 16  2  0  0  0  0
 15 17  1  0  0  0  0
 17 18  1  0  0  0  0
 18 20  2  0  0  0  0
 19 18  1  6  0  0  0
 19 22  1  0  0  0  0
 19 30  1  0  0  0  0
 21 23  1  1  0  0  0
 21 29  1  0  0  0  0
 21 22  1  0  0  0  0
 23 24  1  0  0  0  0
 24 25  1  6  0  0  0
 24 26  1  0  0  0  0
 26 27  1  6  0  0  0
 26 28  1  0  0  0  0
 29 28  1  1  0  0  0
 29 31  1  0  0  0  0
 30 14  1  1  0  0  0
 30 31  1  0  0  0  0
M  CHG  1   3  -1
M  END
>  <CHROM.1>
-165.87963655,-175.02827256,52.83553671,-41.36399611,-35.37063781,145.66370229
124.02720871,26.80990653,39.43483090,20.83030230,-2.20164548,-1.36821115
1.81399575

>  <Name>
ligand

>  <RI>
0

>  <Rbt.Current_Directory>
/home/itssahil/PROJECTS/Mol_Feturizer/New_Systems/rnas/3F2Q

>  <Rbt.Executable>
rbdock ($Id: //depot/dev/client3/rdock/2013.1/src/exe/rbdock.cxx#4 $)

>  <Rbt.Library>
libRbt.so (2013.1, Build901 2013/11/27)

>  <Rbt.Parameter_File>
/export/apps/rDock/src/rDock_2013.1_src/data/scripts/dock_solv.prm

>  <Rbt.Receptor>
prm/blind_docking_60.prm

>  <SCORE>
-28.8523

>  <SCORE.INTER>
-28.2226

>  <SCORE.INTER.CONST>
1

>  <SCORE.INTER.POLAR>
0

>  <SCORE.INTER.ROT>
7

>  <SCORE.INTER.SOLV>
21.7762

>  <SCORE.INTER.VDW>
-34.3404

>  <SCORE.INTER.norm>
-0.910405

>  <SCORE.INTRA>
-0.629707

>  <SCORE.INTRA.DIHEDRAL>
-1.23425

>  <SCORE.INTRA.DIHEDRAL.0>
10.0718

>  <SCORE.INTRA.POLAR>
0

>  <SCORE.INTRA.POLAR.0>
0

>  <SCORE.INTRA.REPUL>
0

>  <SCORE.INTRA.REPUL.0>
0

>  <SCORE.INTRA.SOLV>
-0.770724

>  <SCORE.INTRA.SOLV.lig_0>
-48.6963

>  <SCORE.INTRA.VDW>
0.372778

>  <SCORE.INTRA.VDW.0>
-0.836976

>  <SCORE.INTRA.norm>
-0.0203131

>  <SCORE.RESTR>
0

>  <SCORE.RESTR.CAVITY>
0

>  <SCORE.RESTR.norm>
0

>  <SCORE.SYSTEM>
0

>  <SCORE.SYSTEM.CONST>
0

>  <SCORE.SYSTEM.DIHEDRAL>
0

>  <SCORE.SYSTEM.SOLV>
0

>  <SCORE.SYSTEM.norm>
0

>  <SCORE.heavy>
31

>  <SCORE.norm>
-0.930718

>  <RMSD>
5.096

$$$$
ligand
 OpenBabel11021811473D
libRbt.so/2013.1/901 2013/11/27
 31 33  0  0  0  0  0  0  0  0999 V2000
   31.4339   36.0170   16.0187 P   0  0  1  0  0  0  0  0  0  0  0  0
   32.6437   36.7205   15.4417 O   0  0  0  0  0  0  0  0  0  0  0  0
   30.4863   35.7223   14.8872 O   0  5  0  0  0  0  0  0  0  0  0  0
   31.8468   34.7297   16.6776 O   0  0  0  0  0  0  0  0  0  0  0  0
   30.4242   38.2642   16.8629 C   0  0  0  0  0  0  0  0  0  0  0  0
   30.7750   36.9332   17.1541 O   0  0  0  0  0  0  0  0  0  0  0  0
   29.8085   38.8994   18.1009 C   0  0  1  0  0  0  0  0  0  0  0  0
   29.7397   40.2958   17.9045 O   0  0  0  0  0  0  0  0  0  0  0  0
   28.4139   38.3268   18.3534 C   0  0  1  0  0  0  0  0  0  0  0  0
   28.4418   36.9242   18.1975 O   0  0  0  0  0  0  0  0  0  0  0  0
   27.8197   38.7227   19.7123 C   0  0  1  0  0  0  0  0  0  0  0  0
   26.5108   38.2115   19.8312 O   0  0  0  0  0  0  0  0  0  0  0  0
   28.6561   38.2281   20.8816 C   0  0  0  0  0  0  0  0  0  0  0  0
   27.4726   35.9075   21.9758 N   0  0  0  0  0  0  0  0  0  0  0  0
   26.9585   34.7377   22.4973 C   0  0  0  0  0  0  0  0  0  0  0  0
   27.0827   33.6767   21.8793 O   0  0  0  0  0  0  0  0  0  0  0  0
   26.2969   34.7638   23.7084 N   0  0  0  0  0  0  0  0  0  0  0  0
   26.1482   35.9526   24.3977 C   0  0  0  0  0  0  0  0  0  0  0  0
   26.6623   37.1235   23.8807 C   0  0  1  0  0  0  0  0  0  0  0  0
   25.5689   35.9884   25.4819 O   0  0  0  0  0  0  0  0  0  0  0  0
   27.0249   39.4742   24.0737 C   0  0  2  0  0  0  0  0  0  0  0  0
   26.5086   38.3015   24.5856 N   0  0  0  0  0  0  0  0  0  0  0  0
   26.8694   40.6635   24.7817 C   0  0  0  0  0  0  0  0  0  0  0  0
   27.3797   41.8528   24.2706 C   0  0  1  0  0  0  0  0  0  0  0  0
   27.2123   43.1261   25.0530 C   0  0  0  0  0  0  0  0  0  0  0  0
   28.0528   41.8467   23.0436 C   0  0  1  0  0  0  0  0  0  0  0  0
   28.6275   43.1105   22.4733 C   0  0  0  0  0  0  0  0  0  0  0  0
   28.2066   40.6561   22.3396 C   0  0  0  0  0  0  0  0  0  0  0  0
   27.6946   39.4640   22.8464 C   0  0  2  0  0  0  0  0  0  0  0  0
   27.3313   37.1025   22.6622 C   0  0  2  0  0  0  0  0  0  0  0  0
   27.8394   38.2763   22.1395 N   0  0  0  0  0  0  0  0  0  0  0  0
  1  2  1  6  0  0  0
  1  3  1  0  0  0  0
  1  4  2  0  0  0  0
  1  6  1  0  0  0  0
  5  6  1  0  0  0  0
  7  5  1  6  0  0  0
  7  8  1  0  0  0  0
  7  9  1  0  0  0  0
  9 10  1  1  0  0  0
  9 11  1  0  0  0  0
 11 12  1  1  0  0  0
 11 13  1  0  0  0  0
 13 31  1  0  0  0  0
 14 15  1  0  0  0  0
 15 16  2  0  0  0  0
 15 17  1  0  0  0  0
 17 18  1  0  0  0  0
 18 20  2  0  0  0  0
 19 18  1  1  0  0  0
 19 22  1  0  0  0  0
 19 30  1  0  0  0  0
 21 23  1  6  0  0  0
 21 29  1  0  0  0  0
 21 22  1  0  0  0  0
 23 24  1  0  0  0  0
 24 25  1  1  0  0  0
 24 26  1  0  0  0  0
 26 27  1  1  0  0  0
 26 28  1  0  0  0  0
 29 28  1  6  0  0  0
 29 31  1  0  0  0  0
 30 14  1  6  0  0  0
 30 31  1  0  0  0  0
M  CHG  1   3  -1
M  END
>  <CHROM.1>
179.34472692,53.63366057,166.89803199,44.56522691,176.96005431,-163.09926690
-81.83489789,28.45672777,37.91085209,20.66763940,0.52130302,-1.03357867,-2.88170599

>  <Name>
ligand

>  <RI>
0

>  <Rbt.Current_Directory>
/home/itssahil/PROJECTS/Mol_Feturizer/New_Systems/rnas/3F2Q

>  <Rbt.Executable>
rbdock ($Id: //depot/dev/client3/rdock/2013.1/src/exe/rbdock.cxx#4 $)

>  <Rbt.Library>
libRbt.so (2013.1, Build901 2013/11/27)

>  <Rbt.Parameter_File>
/export/apps/rDock/src/rDock_2013.1_src/data/scripts/dock_solv.prm

>  <Rbt.Receptor>
prm/blind_docking_80.prm

>  <SCORE>
-28.1141

>  <SCORE.INTER>
-24.012

>  <SCORE.INTER.CONST>
1

>  <SCORE.INTER.POLAR>
0

>  <SCORE.INTER.ROT>
7

>  <SCORE.INTER.SOLV>
12.2461

>  <SCORE.INTER.VDW>
-28.3567

>  <SCORE.INTER.norm>
-0.774582

>  <SCORE.INTRA>
-4.1135

>  <SCORE.INTRA.DIHEDRAL>
-6.10705

>  <SCORE.INTRA.DIHEDRAL.0>
10.0718

>  <SCORE.INTRA.POLAR>
0

>  <SCORE.INTRA.POLAR.0>
0

>  <SCORE.INTRA.REPUL>
0

>  <SCORE.INTRA.REPUL.0>
0

>  <SCORE.INTRA.SOLV>
-0.911201

>  <SCORE.INTRA.SOLV.lig_0>
-48.6963

>  <SCORE.INTRA.VDW>
-0.604376

>  <SCORE.INTRA.VDW.0>
-0.836976

>  <SCORE.INTRA.norm>
-0.132694

>  <SCORE.RESTR>
0.0114428

>  <SCORE.RESTR.CAVITY>
0.0114428

>  <SCORE.RESTR.norm>
0.000369122

>  <SCORE.SYSTEM>
0

>  <SCORE.SYSTEM.CONST>
0

>  <SCORE.SYSTEM.DIHEDRAL>
0

>  <SCORE.SYSTEM.SOLV>
0

>  <SCORE.SYSTEM.norm>
0

>  <SCORE.heavy>
31

>  <SCORE.norm>
-0.906907

>  <RMSD>
5.099

$$$$
ligand
 OpenBabel11021811473D
libRbt.so/2013.1/901 2013/11/27
 31 33  0  0  0  0  0  0  0  0999 V2000
   28.0275   34.7151   18.4174 P   0  0  1  0  0  0  0  0  0  0  0  0
   29.1115   35.1287   19.3897 O   0  0  0  0  0  0  0  0  0  0  0  0
   28.6705   33.9043   17.3247 O   0  5  0  0  0  0  0  0  0  0  0  0
   26.9909   33.8815   19.1191 O   0  0  0  0  0  0  0  0  0  0  0  0
   27.9384   36.8644   16.9496 C   0  0  0  0  0  0  0  0  0  0  0  0
   27.2823   36.0190   17.8630 O   0  0  0  0  0  0  0  0  0  0  0  0
   29.0954   37.5571   17.6545 C   0  0  1  0  0  0  0  0  0  0  0  0
   30.1422   37.7443   16.7258 O   0  0  0  0  0  0  0  0  0  0  0  0
   28.6415   38.9008   18.2247 C   0  0  1  0  0  0  0  0  0  0  0  0
   27.9087   39.6076   17.2470 O   0  0  0  0  0  0  0  0  0  0  0  0
   27.8487   38.7808   19.5337 C   0  0  1  0  0  0  0  0  0  0  0  0
   26.6595   38.0564   19.3101 O   0  0  0  0  0  0  0  0  0  0  0  0
   28.6445   38.1038   20.6382 C   0  0  0  0  0  0  0  0  0  0  0  0
   27.5436   35.8031   21.8541 N   0  0  0  0  0  0  0  0  0  0  0  0
   27.0698   34.6436   22.4335 C   0  0  0  0  0  0  0  0  0  0  0  0
   27.1842   33.5651   21.8444 O   0  0  0  0  0  0  0  0  0  0  0  0
   26.4592   34.6993   23.6701 N   0  0  0  0  0  0  0  0  0  0  0  0
   26.3214   35.9074   24.3274 C   0  0  0  0  0  0  0  0  0  0  0  0
   26.7954   37.0681   23.7524 C   0  0  1  0  0  0  0  0  0  0  0  0
   25.7875   35.9699   25.4335 O   0  0  0  0  0  0  0  0  0  0  0  0
   27.1296   39.4287   23.8559 C   0  0  2  0  0  0  0  0  0  0  0  0
   26.6532   38.2658   24.4258 N   0  0  0  0  0  0  0  0  0  0  0  0
   26.9857   40.6378   24.5320 C   0  0  0  0  0  0  0  0  0  0  0  0
   27.4558   41.8170   23.9626 C   0  0  1  0  0  0  0  0  0  0  0  0
   27.3019   43.1123   24.7109 C   0  0  0  0  0  0  0  0  0  0  0  0
   28.0769   41.7811   22.7089 C   0  0  1  0  0  0  0  0  0  0  0  0
   28.6078   43.0338   22.0753 C   0  0  0  0  0  0  0  0  0  0  0  0
   28.2193   40.5707   22.0369 C   0  0  0  0  0  0  0  0  0  0  0  0
   27.7474   39.3885   22.6022 C   0  0  2  0  0  0  0  0  0  0  0  0
   27.4129   37.0174   22.5080 C   0  0  2  0  0  0  0  0  0  0  0  0
   27.8805   38.1808   21.9275 N   0  0  0  0  0  0  0  0  0  0  0  0
  1  2  1  1  0  0  0
  1  3  1  0  0  0  0
  1  4  2  0  0  0  0
  1  6  1  0  0  0  0
  5  6  1  0  0  0  0
  7  5  1  6  0  0  0
  7  8  1  0  0  0  0
  7  9  1  0  0  0  0
  9 10  1  6  0  0  0
  9 11  1  0  0  0  0
 11 12  1  6  0  0  0
 11 13  1  0  0  0  0
 13 31  1  0  0  0  0
 14 15  1  0  0  0  0
 15 16  2  0  0  0  0
 15 17  1  0  0  0  0
 17 18  1  0  0  0  0
 18 20  2  0  0  0  0
 19 18  1  1  0  0  0
 19 22  1  0  0  0  0
 19 30  1  0  0  0  0
 21 23  1  6  0  0  0
 21 29  1  0  0  0  0
 21 22  1  0  0  0  0
 23 24  1  0  0  0  0
 24 25  1  1  0  0  0
 24 26  1  0  0  0  0
 26 27  1  1  0  0  0
 26 28  1  0  0  0  0
 29 28  1  6  0  0  0
 29 31  1  0  0  0  0
 30 14  1  6  0  0  0
 30 31  1  0  0  0  0
M  CHG  1   3  -1
M  END
>  <CHROM.1>
-68.05262238,72.43533589,146.64218246,-46.83490314,-62.50406032,172.70202118
-71.62950244,27.69236887,37.53367210,20.95237287,1.18633856,-1.26328485,-2.66704421

>  <Name>
ligand

>  <RI>
0

>  <Rbt.Current_Directory>
/home/itssahil/PROJECTS/Mol_Feturizer/New_Systems/rnas/3F2Q

>  <Rbt.Executable>
rbdock ($Id: //depot/dev/client3/rdock/2013.1/src/exe/rbdock.cxx#4 $)

>  <Rbt.Library>
libRbt.so (2013.1, Build901 2013/11/27)

>  <Rbt.Parameter_File>
/export/apps/rDock/src/rDock_2013.1_src/data/scripts/dock_solv.prm

>  <Rbt.Receptor>
prm/pocket_docking_6.prm

>  <SCORE>
-26.7366

>  <SCORE.INTER>
-23.8194

>  <SCORE.INTER.CONST>
1

>  <SCORE.INTER.POLAR>
0

>  <SCORE.INTER.ROT>
7

>  <SCORE.INTER.SOLV>
9.7194

>  <SCORE.INTER.VDW>
-27.3861

>  <SCORE.INTER.norm>
-0.768369

>  <SCORE.INTRA>
-2.91713

>  <SCORE.INTRA.DIHEDRAL>
-4.15978

>  <SCORE.INTRA.DIHEDRAL.0>
10.0718

>  <SCORE.INTRA.POLAR>
0

>  <SCORE.INTRA.POLAR.0>
0

>  <SCORE.INTRA.REPUL>
0

>  <SCORE.INTRA.REPUL.0>
0

>  <SCORE.INTRA.SOLV>
2.93368

>  <SCORE.INTRA.SOLV.lig_0>
-48.6963

>  <SCORE.INTRA.VDW>
-2.30408

>  <SCORE.INTRA.VDW.0>
-0.836976

>  <SCORE.INTRA.norm>
-0.094101

>  <SCORE.RESTR>
0

>  <SCORE.RESTR.CAVITY>
0

>  <SCORE.RESTR.norm>
0

>  <SCORE.SYSTEM>
0

>  <SCORE.SYSTEM.CONST>
0

>  <SCORE.SYSTEM.DIHEDRAL>
0

>  <SCORE.SYSTEM.SOLV>
0

>  <SCORE.SYSTEM.norm>
0

>  <SCORE.heavy>
31

>  <SCORE.norm>
-0.86247

>  <RMSD>
5.102

$$$$
ligand
 OpenBabel11021811473D
libRbt.so/2013.1/901 2013/11/27
 31 33  0  0  0  0  0  0  0  0999 V2000
   32.4015   36.4774   17.1122 P   0  0  1  0  0  0  0  0  0  0  0  0
   33.4347   37.0916   18.0325 O   0  0  0  0  0  0  0  0  0  0  0  0
   33.1050   35.4909   16.2194 O   0  5  0  0  0  0  0  0  0  0  0  0
   31.3475   35.7664   17.9156 O   0  0  0  0  0  0  0  0  0  0  0  0
   30.2580   37.7226   16.3146 C   0  0  0  0  0  0  0  0  0  0  0  0
   31.6620   37.6359   16.2915 O   0  0  0  0  0  0  0  0  0  0  0  0
   29.8107   38.1977   17.6892 C   0  0  1  0  0  0  0  0  0  0  0  0
   30.0671   39.5822   17.7934 O   0  0  0  0  0  0  0  0  0  0  0  0
   28.3221   37.9142   17.8903 C   0  0  1  0  0  0  0  0  0  0  0  0
   28.0651   36.5452   17.6614 O   0  0  0  0  0  0  0  0  0  0  0  0
   27.7876   38.3582   19.2591 C   0  0  1  0  0  0  0  0  0  0  0  0
   26.4539   37.9278   19.4163 O   0  0  0  0  0  0  0  0  0  0  0  0
   28.6225   37.8255   20.4127 C   0  0  0  0  0  0  0  0  0  0  0  0
   27.5488   35.5562   21.7091 N   0  0  0  0  0  0  0  0  0  0  0  0
   27.0890   34.4126   22.3298 C   0  0  0  0  0  0  0  0  0  0  0  0
   27.2274   33.3138   21.7852 O   0  0  0  0  0  0  0  0  0  0  0  0
   26.4654   34.5067   23.5576 N   0  0  0  0  0  0  0  0  0  0  0  0
   26.3008   35.7374   24.1650 C   0  0  0  0  0  0  0  0  0  0  0  0
   26.7607   36.8824   23.5486 C   0  0  1  0  0  0  0  0  0  0  0  0
   25.7552   35.8344   25.2629 O   0  0  0  0  0  0  0  0  0  0  0  0
   27.0541   39.2506   23.5610 C   0  0  2  0  0  0  0  0  0  0  0  0
   26.5918   38.1033   24.1725 N   0  0  0  0  0  0  0  0  0  0  0  0
   26.8831   40.4830   24.1871 C   0  0  0  0  0  0  0  0  0  0  0  0
   27.3388   41.6466   23.5755 C   0  0  1  0  0  0  0  0  0  0  0  0
   27.1557   42.9677   24.2703 C   0  0  0  0  0  0  0  0  0  0  0  0
   27.9727   41.5717   22.3300 C   0  0  1  0  0  0  0  0  0  0  0  0
   28.4885   42.8073   21.6519 C   0  0  0  0  0  0  0  0  0  0  0  0
   28.1421   40.3383   21.7080 C   0  0  0  0  0  0  0  0  0  0  0  0
   27.6846   39.1714   22.3157 C   0  0  2  0  0  0  0  0  0  0  0  0
   27.3912   36.7931   22.3128 C   0  0  2  0  0  0  0  0  0  0  0  0
   27.8448   37.9404   21.6908 N   0  0  0  0  0  0  0  0  0  0  0  0
  1  2  1  1  0  0  0
  1  3  1  0  0  0  0
  1  4  2  0  0  0  0
  1  6  1  0  0  0  0
  5  6  1  0  0  0  0
  7  5  1  6  0  0  0
  7  8  1  0  0  0  0
  7  9  1  0  0  0  0
  9 10  1  1  0  0  0
  9 11  1  0  0  0  0
 11 12  1  1  0  0  0
 11 13  1  0  0  0  0
 13 31  1  0  0  0  0
 14 15  1  0  0  0  0
 15 16  2  0  0  0  0
 15 17  1  0  0  0  0
 17 18  1  0  0  0  0
 18 20  2  0  0  0  0
 19 18  1  1  0  0  0
 19 22  1  0  0  0  0
 19 30  1  0  0  0  0
 21 23  1  6  0  0  0
 21 29  1  0  0  0  0
 21 22  1  0  0  0  0
 23 24  1  0  0  0  0
 24 25  1  1  0  0  0
 24 26  1  0  0  0  0
 26 27  1  1  0  0  0
 26 28  1  0  0  0  0
 29 28  1  6  0  0  0
 29 31  1  0  0  0  0
 30 14  1  6  0  0  0
 30 31  1  0  0  0  0
M  CHG  1   3  -1
M  END
>  <CHROM.1>
71.19952762,-125.96419106,75.50540021,54.54606386,-173.51235302,-163.34750734
-75.45930510,28.66895821,37.74918742,20.55582946,0.29482278,-0.92906965,-3.03374933

>  <Name>
ligand

>  <RI>
0

>  <Rbt.Current_Directory>
/home/itssahil/PROJECTS/Mol_Feturizer/New_Systems/rnas/3F2Q

>  <Rbt.Executable>
rbdock ($Id: //depot/dev/client3/rdock/2013.1/src/exe/rbdock.cxx#4 $)

>  <Rbt.Library>
libRbt.so (2013.1, Build901 2013/11/27)

>  <Rbt.Parameter_File>
/export/apps/rDock/src/rDock_2013.1_src/data/scripts/dock_solv.prm

>  <Rbt.Receptor>
prm/pocket_docking_6.prm

>  <SCORE>
-27.6757

>  <SCORE.INTER>
-26.3612

>  <SCORE.INTER.CONST>
1

>  <SCORE.INTER.POLAR>
0

>  <SCORE.INTER.ROT>
7

>  <SCORE.INTER.SOLV>
16.0285

>  <SCORE.INTER.VDW>
-31.1836

>  <SCORE.INTER.norm>
-0.850361

>  <SCORE.INTRA>
-1.31447

>  <SCORE.INTRA.DIHEDRAL>
-3.69921

>  <SCORE.INTRA.DIHEDRAL.0>
10.0718

>  <SCORE.INTRA.POLAR>
0

>  <SCORE.INTRA.POLAR.0>
0

>  <SCORE.INTRA.REPUL>
0

>  <SCORE.INTRA.REPUL.0>
0

>  <SCORE.INTRA.SOLV>
1.78592

>  <SCORE.INTRA.SOLV.lig_0>
-48.6963

>  <SCORE.INTRA.VDW>
-0.357823

>  <SCORE.INTRA.VDW.0>
-0.836976

>  <SCORE.INTRA.norm>
-0.0424022

>  <SCORE.RESTR>
0

>  <SCORE.RESTR.CAVITY>
0

>  <SCORE.RESTR.norm>
0

>  <SCORE.SYSTEM>
0

>  <SCORE.SYSTEM.CONST>
0

>  <SCORE.SYSTEM.DIHEDRAL>
0

>  <SCORE.SYSTEM.SOLV>
0

>  <SCORE.SYSTEM.norm>
0

>  <SCORE.heavy>
31

>  <SCORE.norm>
-0.892763

>  <RMSD>
5.108

$$$$
ligand
 OpenBabel11021811473D
libRbt.so/2013.1/901 2013/11/27
 31 33  0  0  0  0  0  0  0  0999 V2000
   32.9617   34.3864   14.5742 P   0  0  1  0  0  0  0  0  0  0  0  0
   34.4430   34.0815   14.5093 O   0  0  0  0  0  0  0  0  0  0  0  0
   32.5728   35.0683   13.2901 O   0  5  0  0  0  0  0  0  0  0  0  0
   32.1755   33.1133   14.7261 O   0  0  0  0  0  0  0  0  0  0  0  0
   31.3841   35.8555   16.0352 C   0  0  0  0  0  0  0  0  0  0  0  0
   32.6572   35.2811   15.8662 O   0  0  0  0  0  0  0  0  0  0  0  0
   31.2484   36.3540   17.4665 C   0  0  1  0  0  0  0  0  0  0  0  0
   32.0832   37.4804   17.6328 O   0  0  0  0  0  0  0  0  0  0  0  0
   29.7944   36.7186   17.7659 C   0  0  1  0  0  0  0  0  0  0  0  0
   28.9396   35.7202   17.2512 O   0  0  0  0  0  0  0  0  0  0  0  0
   29.5153   36.9759   19.2533 C   0  0  1  0  0  0  0  0  0  0  0  0
   30.0446   38.2271   19.6316 O   0  0  0  0  0  0  0  0  0  0  0  0
   28.0316   36.9420   19.5832 C   0  0  0  0  0  0  0  0  0  0  0  0
   28.1529   34.1634   19.0851 N   0  0  0  0  0  0  0  0  0  0  0  0
   28.2745   32.8181   18.8024 C   0  0  0  0  0  0  0  0  0  0  0  0
   28.4866   32.4449   17.6453 O   0  0  0  0  0  0  0  0  0  0  0  0
   28.1477   31.8934   19.8192 N   0  0  0  0  0  0  0  0  0  0  0  0
   27.9006   32.3085   21.1143 C   0  0  0  0  0  0  0  0  0  0  0  0
   27.7804   33.6523   21.4011 C   0  0  1  0  0  0  0  0  0  0  0  0
   27.7945   31.4957   22.0311 O   0  0  0  0  0  0  0  0  0  0  0  0
   27.4212   35.3929   22.9936 C   0  0  2  0  0  0  0  0  0  0  0  0
   27.5381   34.0493   22.7019 N   0  0  0  0  0  0  0  0  0  0  0  0
   27.1749   35.7955   24.3040 C   0  0  0  0  0  0  0  0  0  0  0  0
   27.0477   37.1474   24.6074 C   0  0  1  0  0  0  0  0  0  0  0  0
   26.7926   37.5654   26.0292 C   0  0  0  0  0  0  0  0  0  0  0  0
   27.1721   38.1001   23.5898 C   0  0  1  0  0  0  0  0  0  0  0  0
   27.0550   39.5664   23.8879 C   0  0  0  0  0  0  0  0  0  0  0  0
   27.4188   37.6937   22.2818 C   0  0  0  0  0  0  0  0  0  0  0  0
   27.5438   36.3411   21.9735 C   0  0  2  0  0  0  0  0  0  0  0  0
   27.9091   34.5880   20.3811 C   0  0  2  0  0  0  0  0  0  0  0  0
   27.7805   35.9339   20.6660 N   0  0  0  0  0  0  0  0  0  0  0  0
  1  2  1  6  0  0  0
  1  3  1  0  0  0  0
  1  4  2  0  0  0  0
  1  6  1  0  0  0  0
  5  6  1  0  0  0  0
  7  5  1  6  0  0  0
  7  8  1  0  0  0  0
  7  9  1  0  0  0  0
  9 10  1  1  0  0  0
  9 11  1  0  0  0  0
 11 12  1  6  0  0  0
 11 13  1  0  0  0  0
 13 31  1  0  0  0  0
 14 15  1  0  0  0  0
 15 16  2  0  0  0  0
 15 17  1  0  0  0  0
 17 18  1  0  0  0  0
 18 20  2  0  0  0  0
 19 18  1  1  0  0  0
 19 22  1  0  0  0  0
 19 30  1  0  0  0  0
 21 23  1  6  0  0  0
 21 29  1  0  0  0  0
 21 22  1  0  0  0  0
 23 24  1  0  0  0  0
 24 25  1  1  0  0  0
 24 26  1  0  0  0  0
 26 27  1  1  0  0  0
 26 28  1  0  0  0  0
 29 28  1  6  0  0  0
 29 31  1  0  0  0  0
 30 14  1  6  0  0  0
 30 31  1  0  0  0  0
M  CHG  1   3  -1
M  END
>  <CHROM.1>
166.28608342,170.67098156,70.44409442,43.82245770,74.50785508,124.15259952
103.77704378,29.41000826,35.33552622,19.32764470,-0.46385411,0.94512533,0.35140293

>  <Name>
ligand

>  <RI>
0

>  <Rbt.Current_Directory>
/home/itssahil/PROJECTS/Mol_Feturizer/New_Systems/rnas/3F2Q

>  <Rbt.Executable>
rbdock ($Id: //depot/dev/client3/rdock/2013.1/src/exe/rbdock.cxx#4 $)

>  <Rbt.Library>
libRbt.so (2013.1, Build901 2013/11/27)

>  <Rbt.Parameter_File>
/export/apps/rDock/src/rDock_2013.1_src/data/scripts/dock_solv.prm

>  <Rbt.Receptor>
prm/pocket_docking_8.prm

>  <SCORE>
-31.9528

>  <SCORE.INTER>
-30.6002

>  <SCORE.INTER.CONST>
1

>  <SCORE.INTER.POLAR>
0

>  <SCORE.INTER.ROT>
7

>  <SCORE.INTER.SOLV>
14.1496

>  <SCORE.INTER.VDW>
-33.3833

>  <SCORE.INTER.norm>
-0.987103

>  <SCORE.INTRA>
-1.35262

>  <SCORE.INTRA.DIHEDRAL>
-0.668418

>  <SCORE.INTRA.DIHEDRAL.0>
10.0718

>  <SCORE.INTRA.POLAR>
0

>  <SCORE.INTRA.POLAR.0>
0

>  <SCORE.INTRA.REPUL>
0

>  <SCORE.INTRA.REPUL.0>
0

>  <SCORE.INTRA.SOLV>
-0.648143

>  <SCORE.INTRA.SOLV.lig_0>
-48.6963

>  <SCORE.INTRA.VDW>
-0.694344

>  <SCORE.INTRA.VDW.0>
-0.836976

>  <SCORE.INTRA.norm>
-0.0436331

>  <SCORE.RESTR>
0

>  <SCORE.RESTR.CAVITY>
0

>  <SCORE.RESTR.norm>
0

>  <SCORE.SYSTEM>
0

>  <SCORE.SYSTEM.CONST>
0

>  <SCORE.SYSTEM.DIHEDRAL>
0

>  <SCORE.SYSTEM.SOLV>
0

>  <SCORE.SYSTEM.norm>
0

>  <SCORE.heavy>
31

>  <SCORE.norm>
-1.03074

>  <RMSD>
5.115

$$$$
ligand
 OpenBabel11021811473D
libRbt.so/2013.1/901 2013/11/27
 31 33  0  0  0  0  0  0  0  0999 V2000
   32.7752   34.2214   15.4141 P   0  0  1  0  0  0  0  0  0  0  0  0
   33.0476   34.6636   13.9922 O   0  0  0  0  0  0  0  0  0  0  0  0
   32.1676   32.8455   15.3626 O   0  5  0  0  0  0  0  0  0  0  0  0
   34.0575   34.1763   16.1987 O   0  0  0  0  0  0  0  0  0  0  0  0
   32.1395   36.6603   16.0696 C   0  0  0  0  0  0  0  0  0  0  0  0
   31.8246   35.2905   16.1325 O   0  0  0  0  0  0  0  0  0  0  0  0
   31.0739   37.4511   16.8142 C   0  0  1  0  0  0  0  0  0  0  0  0
   29.8138   37.1481   16.2542 O   0  0  0  0  0  0  0  0  0  0  0  0
   31.0949   37.0999   18.3018 C   0  0  1  0  0  0  0  0  0  0  0  0
   32.4033   37.2575   18.8078 O   0  0  0  0  0  0  0  0  0  0  0  0
   30.0775   37.8889   19.1377 C   0  0  1  0  0  0  0  0  0  0  0  0
   30.1995   39.2675   18.8665 O   0  0  0  0  0  0  0  0  0  0  0  0
   28.6444   37.4543   18.8757 C   0  0  0  0  0  0  0  0  0  0  0  0
   28.8683   34.8223   17.8727 N   0  0  0  0  0  0  0  0  0  0  0  0
   29.0429   33.5562   17.3522 C   0  0  0  0  0  0  0  0  0  0  0  0
   29.3643   33.4115   16.1694 O   0  0  0  0  0  0  0  0  0  0  0  0
   28.8464   32.4539   18.1593 N   0  0  0  0  0  0  0  0  0  0  0  0
   28.4770   32.6133   19.4817 C   0  0  0  0  0  0  0  0  0  0  0  0
   28.3034   33.8772   20.0061 C   0  0  1  0  0  0  0  0  0  0  0  0
   28.3075   31.6400   20.2142 O   0  0  0  0  0  0  0  0  0  0  0  0
   27.7679   35.2804   21.8606 C   0  0  2  0  0  0  0  0  0  0  0  0
   27.9387   34.0177   21.3311 N   0  0  0  0  0  0  0  0  0  0  0  0
   27.3983   35.4246   23.1957 C   0  0  0  0  0  0  0  0  0  0  0  0
   27.2161   36.6932   23.7372 C   0  0  1  0  0  0  0  0  0  0  0  0
   26.8275   36.8312   25.1833 C   0  0  0  0  0  0  0  0  0  0  0  0
   27.4097   37.8231   22.9343 C   0  0  1  0  0  0  0  0  0  0  0  0
   27.2356   39.2050   23.4933 C   0  0  0  0  0  0  0  0  0  0  0  0
   27.7797   37.6747   21.6009 C   0  0  0  0  0  0  0  0  0  0  0  0
   27.9601   36.4064   21.0543 C   0  0  2  0  0  0  0  0  0  0  0  0
   28.5018   34.9908   19.1981 C   0  0  2  0  0  0  0  0  0  0  0  0
   28.3201   36.2571   19.7203 N   0  0  0  0  0  0  0  0  0  0  0  0
  1  2  1  6  0  0  0
  1  3  1  0  0  0  0
  1  4  2  0  0  0  0
  1  6  1  0  0  0  0
  5  6  1  0  0  0  0
  7  5  1  6  0  0  0
  7  8  1  0  0  0  0
  7  9  1  0  0  0  0
  9 10  1  1  0  0  0
  9 11  1  0  0  0  0
 11 12  1  6  0  0  0
 11 13  1  0  0  0  0
 13 31  1  0  0  0  0
 14 15  1  0  0  0  0
 15 16  2  0  0  0  0
 15 17  1  0  0  0  0
 17 18  1  0  0  0  0
 18 20  2  0  0  0  0
 19 18  1  1  0  0  0
 19 22  1  0  0  0  0
 19 30  1  0  0  0  0
 21 23  1  6  0  0  0
 21 29  1  0  0  0  0
 21 22  1  0  0  0  0
 23 24  1  0  0  0  0
 24 25  1  1  0  0  0
 24 26  1  0  0  0  0
 26 27  1  1  0  0  0
 26 28  1  0  0  0  0
 29 28  1  6  0  0  0
 29 31  1  0  0  0  0
 30 14  1  6  0  0  0
 30 31  1  0  0  0  0
M  CHG  1   3  -1
M  END
>  <CHROM.1>
179.35259018,-49.39486943,-56.39640394,52.94477154,-50.48527867,84.13354181
81.27809082,29.75363301,35.55821960,18.83777810,0.51927147,-0.89905548,-2.79937318

>  <Name>
ligand

>  <RI>
0

>  <Rbt.Current_Directory>
/home/itssahil/PROJECTS/Mol_Feturizer/New_Systems/rnas/3F2Q

>  <Rbt.Executable>
rbdock ($Id: //depot/dev/client3/rdock/2013.1/src/exe/rbdock.cxx#4 $)

>  <Rbt.Library>
libRbt.so (2013.1, Build901 2013/11/27)

>  <Rbt.Parameter_File>
/export/apps/rDock/src/rDock_2013.1_src/data/scripts/dock_solv.prm

>  <Rbt.Receptor>
prm/pocket_docking_8.prm

>  <SCORE>
-31.4434

>  <SCORE.INTER>
-25.9337

>  <SCORE.INTER.CONST>
1

>  <SCORE.INTER.POLAR>
0

>  <SCORE.INTER.ROT>
7

>  <SCORE.INTER.SOLV>
13.0214

>  <SCORE.INTER.VDW>
-29.8963

>  <SCORE.INTER.norm>
-0.836572

>  <SCORE.INTRA>
-5.50967

>  <SCORE.INTRA.DIHEDRAL>
-6.40144

>  <SCORE.INTRA.DIHEDRAL.0>
10.0718

>  <SCORE.INTRA.POLAR>
0

>  <SCORE.INTRA.POLAR.0>
0

>  <SCORE.INTRA.REPUL>
0

>  <SCORE.INTRA.REPUL.0>
0

>  <SCORE.INTRA.SOLV>
0.665168

>  <SCORE.INTRA.SOLV.lig_0>
-48.6963

>  <SCORE.INTRA.VDW>
-2.64153

>  <SCORE.INTRA.VDW.0>
-0.836976

>  <SCORE.INTRA.norm>
-0.177731

>  <SCORE.RESTR>
0

>  <SCORE.RESTR.CAVITY>
0

>  <SCORE.RESTR.norm>
0

>  <SCORE.SYSTEM>
0

>  <SCORE.SYSTEM.CONST>
0

>  <SCORE.SYSTEM.DIHEDRAL>
0

>  <SCORE.SYSTEM.SOLV>
0

>  <SCORE.SYSTEM.norm>
0

>  <SCORE.heavy>
31

>  <SCORE.norm>
-1.0143

>  <RMSD>
5.119

$$$$
ligand
 OpenBabel11021811473D
libRbt.so/2013.1/901 2013/11/27
 31 33  0  0  0  0  0  0  0  0999 V2000
   28.5853   41.4601   16.6996 P   0  0  1  0  0  0  0  0  0  0  0  0
   29.5273   42.1080   17.6918 O   0  0  0  0  0  0  0  0  0  0  0  0
   29.1887   41.6018   15.3281 O   0  5  0  0  0  0  0  0  0  0  0  0
   28.4110   40.0021   17.0245 O   0  0  0  0  0  0  0  0  0  0  0  0
   26.7513   42.7598   18.0145 C   0  0  0  0  0  0  0  0  0  0  0  0
   27.1407   42.1405   16.8127 O   0  0  0  0  0  0  0  0  0  0  0  0
   26.2652   41.6962   18.9882 C   0  0  1  0  0  0  0  0  0  0  0  0
   25.4514   40.7805   18.2864 O   0  0  0  0  0  0  0  0  0  0  0  0
   27.4541   40.9753   19.6236 C   0  0  1  0  0  0  0  0  0  0  0  0
   28.1715   41.8743   20.4418 O   0  0  0  0  0  0  0  0  0  0  0  0
   27.0665   39.7079   20.3980 C   0  0  1  0  0  0  0  0  0  0  0  0
   26.4815   38.7701   19.5220 O   0  0  0  0  0  0  0  0  0  0  0  0
   28.2538   39.0645   21.0964 C   0  0  0  0  0  0  0  0  0  0  0  0
   27.2548   39.6926   23.6637 N   0  0  0  0  0  0  0  0  0  0  0  0
   26.7286   40.0557   24.8867 C   0  0  0  0  0  0  0  0  0  0  0  0
   26.7527   41.2363   25.2456 O   0  0  0  0  0  0  0  0  0  0  0  0
   26.1849   39.0897   25.7091 N   0  0  0  0  0  0  0  0  0  0  0  0
   26.1656   37.7655   25.3134 C   0  0  0  0  0  0  0  0  0  0  0  0
   26.6887   37.3990   24.0909 C   0  0  1  0  0  0  0  0  0  0  0  0
   25.6761   36.8962   26.0324 O   0  0  0  0  0  0  0  0  0  0  0  0
   27.1753   35.7014   22.4858 C   0  0  2  0  0  0  0  0  0  0  0  0
   26.6566   36.0716   23.7097 N   0  0  0  0  0  0  0  0  0  0  0  0
   27.1459   34.3634   22.1001 C   0  0  0  0  0  0  0  0  0  0  0  0
   27.6731   33.9787   20.8714 C   0  0  1  0  0  0  0  0  0  0  0  0
   27.6236   32.5314   20.4659 C   0  0  0  0  0  0  0  0  0  0  0  0
   28.2297   34.9435   20.0241 C   0  0  1  0  0  0  0  0  0  0  0  0
   28.7927   34.5620   18.6861 C   0  0  0  0  0  0  0  0  0  0  0  0
   28.2566   36.2796   20.4129 C   0  0  0  0  0  0  0  0  0  0  0  0
   27.7325   36.6683   21.6434 C   0  0  2  0  0  0  0  0  0  0  0  0
   27.2359   38.3682   23.2579 C   0  0  2  0  0  0  0  0  0  0  0  0
   27.7676   38.0008   22.0367 N   0  0  0  0  0  0  0  0  0  0  0  0
  1  2  1  1  0  0  0
  1  3  1  0  0  0  0
  1  4  2  0  0  0  0
  1  6  1  0  0  0  0
  5  6  1  0  0  0  0
  7  5  1  6  0  0  0
  7  8  1  0  0  0  0
  7  9  1  0  0  0  0
  9 10  1  1  0  0  0
  9 11  1  0  0  0  0
 11 12  1  6  0  0  0
 11 13  1  0  0  0  0
 13 31  1  0  0  0  0
 14 15  1  0  0  0  0
 15 16  2  0  0  0  0
 15 17  1  0  0  0  0
 17 18  1  0  0  0  0
 18 20  2  0  0  0  0
 19 18  1  6  0  0  0
 19 22  1  0  0  0  0
 19 30  1  0  0  0  0
 21 23  1  1  0  0  0
 21 29  1  0  0  0  0
 21 22  1  0  0  0  0
 23 24  1  0  0  0  0
 24 25  1  6  0  0  0
 24 26  1  0  0  0  0
 26 27  1  6  0  0  0
 26 28  1  0  0  0  0
 29 28  1  1  0  0  0
 29 31  1  0  0  0  0
 30 14  1  1  0  0  0
 30 31  1  0  0  0  0
M  CHG  1   3  -1
M  END
>  <CHROM.1>
-81.13277914,-24.93526345,-42.97810930,66.43257301,61.98675034,169.18812650
96.02880816,27.42844235,38.84030572,20.70247431,-0.98630608,-1.31647747,2.80395191

>  <Name>
ligand

>  <RI>
0

>  <Rbt.Current_Directory>
/home/itssahil/PROJECTS/Mol_Feturizer/New_Systems/rnas/3F2Q

>  <Rbt.Executable>
rbdock ($Id: //depot/dev/client3/rdock/2013.1/src/exe/rbdock.cxx#4 $)

>  <Rbt.Library>
libRbt.so (2013.1, Build901 2013/11/27)

>  <Rbt.Parameter_File>
/export/apps/rDock/src/rDock_2013.1_src/data/scripts/dock_solv.prm

>  <Rbt.Receptor>
prm/blind_docking_60.prm

>  <SCORE>
-27.9767

>  <SCORE.INTER>
-26.1264

>  <SCORE.INTER.CONST>
1

>  <SCORE.INTER.POLAR>
0

>  <SCORE.INTER.ROT>
7

>  <SCORE.INTER.SOLV>
19.6875

>  <SCORE.INTER.VDW>
-32.2468

>  <SCORE.INTER.norm>
-0.842788

>  <SCORE.INTRA>
-1.85026

>  <SCORE.INTRA.DIHEDRAL>
-3.85733

>  <SCORE.INTRA.DIHEDRAL.0>
10.0718

>  <SCORE.INTRA.POLAR>
0

>  <SCORE.INTRA.POLAR.0>
0

>  <SCORE.INTRA.REPUL>
0

>  <SCORE.INTRA.REPUL.0>
0

>  <SCORE.INTRA.SOLV>
3.64986

>  <SCORE.INTRA.SOLV.lig_0>
-48.6963

>  <SCORE.INTRA.VDW>
-1.74653

>  <SCORE.INTRA.VDW.0>
-0.836976

>  <SCORE.INTRA.norm>
-0.0596859

>  <SCORE.RESTR>
0

>  <SCORE.RESTR.CAVITY>
0

>  <SCORE.RESTR.norm>
0

>  <SCORE.SYSTEM>
0

>  <SCORE.SYSTEM.CONST>
0

>  <SCORE.SYSTEM.DIHEDRAL>
0

>  <SCORE.SYSTEM.SOLV>
0

>  <SCORE.SYSTEM.norm>
0

>  <SCORE.heavy>
31

>  <SCORE.norm>
-0.902474

>  <RMSD>
5.125

$$$$
ligand
 OpenBabel11021811473D
libRbt.so/2013.1/901 2013/11/27
 31 33  0  0  0  0  0  0  0  0999 V2000
   26.1213   34.2735   15.6150 P   0  0  1  0  0  0  0  0  0  0  0  0
   27.1820   33.2886   16.0584 O   0  0  0  0  0  0  0  0  0  0  0  0
   25.8167   34.0046   14.1659 O   0  5  0  0  0  0  0  0  0  0  0  0
   24.8722   34.0950   16.4333 O   0  0  0  0  0  0  0  0  0  0  0  0
   27.3507   36.0680   17.0468 C   0  0  0  0  0  0  0  0  0  0  0  0
   26.6390   35.7665   15.8712 O   0  0  0  0  0  0  0  0  0  0  0  0
   27.7137   37.5457   17.0441 C   0  0  1  0  0  0  0  0  0  0  0  0
   26.5222   38.3029   17.0696 O   0  0  0  0  0  0  0  0  0  0  0  0
   28.5844   37.8805   18.2551 C   0  0  1  0  0  0  0  0  0  0  0  0
   29.3278   39.0520   17.9952 O   0  0  0  0  0  0  0  0  0  0  0  0
   27.7977   38.0018   19.5676 C   0  0  1  0  0  0  0  0  0  0  0  0
   26.8669   36.9472   19.6687 O   0  0  0  0  0  0  0  0  0  0  0  0
   28.6992   37.9899   20.7918 C   0  0  0  0  0  0  0  0  0  0  0  0
   27.5262   35.7349   22.0257 N   0  0  0  0  0  0  0  0  0  0  0  0
   27.0178   34.5972   22.6187 C   0  0  0  0  0  0  0  0  0  0  0  0
   27.1628   33.4982   22.0764 O   0  0  0  0  0  0  0  0  0  0  0  0
   26.3384   34.6977   23.8160 N   0  0  0  0  0  0  0  0  0  0  0  0
   26.1664   35.9288   24.4205 C   0  0  0  0  0  0  0  0  0  0  0  0
   26.6747   37.0679   23.8318 C   0  0  1  0  0  0  0  0  0  0  0  0
   25.5710   36.0313   25.4917 O   0  0  0  0  0  0  0  0  0  0  0  0
   27.0080   39.4306   23.8688 C   0  0  2  0  0  0  0  0  0  0  0  0
   26.4975   38.2892   24.4525 N   0  0  0  0  0  0  0  0  0  0  0  0
   26.8288   40.6634   24.4916 C   0  0  0  0  0  0  0  0  0  0  0  0
   27.3330   41.8212   23.9076 C   0  0  1  0  0  0  0  0  0  0  0  0
   27.1400   43.1427   24.5988 C   0  0  0  0  0  0  0  0  0  0  0  0
   28.0239   41.7398   22.6932 C   0  0  1  0  0  0  0  0  0  0  0  0
   28.5925   42.9687   22.0458 C   0  0  0  0  0  0  0  0  0  0  0  0
   28.2013   40.5059   22.0743 C   0  0  0  0  0  0  0  0  0  0  0  0
   27.6955   39.3450   22.6543 C   0  0  2  0  0  0  0  0  0  0  0  0
   27.3614   36.9721   22.6269 C   0  0  2  0  0  0  0  0  0  0  0  0
   27.8638   38.1137   22.0322 N   0  0  0  0  0  0  0  0  0  0  0  0
  1  2  1  1  0  0  0
  1  3  1  0  0  0  0
  1  4  2  0  0  0  0
  1  6  1  0  0  0  0
  5  6  1  0  0  0  0
  7  5  1  1  0  0  0
  7  8  1  0  0  0  0
  7  9  1  0  0  0  0
  9 10  1  6  0  0  0
  9 11  1  0  0  0  0
 11 12  1  1  0  0  0
 11 13  1  0  0  0  0
 13 31  1  0  0  0  0
 14 15  1  0  0  0  0
 15 16  2  0  0  0  0
 15 17  1  0  0  0  0
 17 18  1  0  0  0  0
 18 20  2  0  0  0  0
 19 18  1  1  0  0  0
 19 22  1  0  0  0  0
 19 30  1  0  0  0  0
 21 23  1  6  0  0  0
 21 29  1  0  0  0  0
 21 22  1  0  0  0  0
 23 24  1  0  0  0  0
 24 25  1  1  0  0  0
 24 26  1  0  0  0  0
 26 27  1  1  0  0  0
 26 28  1  0  0  0  0
 29 28  1  6  0  0  0
 29 31  1  0  0  0  0
 30 14  1  6  0  0  0
 30 31  1  0  0  0  0
M  CHG  1   3  -1
M  END
>  <CHROM.1>
-179.62352497,-40.13323964,63.36522991,157.36698730,43.90550391,179.91580683
-97.85625202,27.11192814,37.30916398,20.43608801,1.90186919,-1.30793353,-1.83390939

>  <Name>
ligand

>  <RI>
0

>  <Rbt.Current_Directory>
/home/itssahil/PROJECTS/Mol_Feturizer/New_Systems/rnas/3F2Q

>  <Rbt.Executable>
rbdock ($Id: //depot/dev/client3/rdock/2013.1/src/exe/rbdock.cxx#4 $)

>  <Rbt.Library>
libRbt.so (2013.1, Build901 2013/11/27)

>  <Rbt.Parameter_File>
/export/apps/rDock/src/rDock_2013.1_src/data/scripts/dock_solv.prm

>  <Rbt.Receptor>
prm/pocket_docking_6.prm

>  <SCORE>
-26.8893

>  <SCORE.INTER>
-22.8897

>  <SCORE.INTER.CONST>
1

>  <SCORE.INTER.POLAR>
0

>  <SCORE.INTER.ROT>
7

>  <SCORE.INTER.SOLV>
14.5083

>  <SCORE.INTER.VDW>
-28.3626

>  <SCORE.INTER.norm>
-0.738379

>  <SCORE.INTRA>
-3.99959

>  <SCORE.INTRA.DIHEDRAL>
-5.38297

>  <SCORE.INTRA.DIHEDRAL.0>
10.0718

>  <SCORE.INTRA.POLAR>
0

>  <SCORE.INTRA.POLAR.0>
0

>  <SCORE.INTRA.REPUL>
0

>  <SCORE.INTRA.REPUL.0>
0

>  <SCORE.INTRA.SOLV>
-1.1591

>  <SCORE.INTRA.SOLV.lig_0>
-48.6963

>  <SCORE.INTRA.VDW>
-0.728551

>  <SCORE.INTRA.VDW.0>
-0.836976

>  <SCORE.INTRA.norm>
-0.129019

>  <SCORE.RESTR>
0

>  <SCORE.RESTR.CAVITY>
0

>  <SCORE.RESTR.norm>
0

>  <SCORE.SYSTEM>
0

>  <SCORE.SYSTEM.CONST>
0

>  <SCORE.SYSTEM.DIHEDRAL>
0

>  <SCORE.SYSTEM.SOLV>
0

>  <SCORE.SYSTEM.norm>
0

>  <SCORE.heavy>
31

>  <SCORE.norm>
-0.867398

>  <RMSD>
5.145

$$$$
ligand
 OpenBabel11021811473D
libRbt.so/2013.1/901 2013/11/27
 31 33  0  0  0  0  0  0  0  0999 V2000
   29.3264   34.9295   14.3579 P   0  0  1  0  0  0  0  0  0  0  0  0
   29.0653   33.5534   14.9321 O   0  0  0  0  0  0  0  0  0  0  0  0
   30.8141   35.0883   14.1947 O   0  5  0  0  0  0  0  0  0  0  0  0
   28.6555   35.0697   13.0192 O   0  0  0  0  0  0  0  0  0  0  0  0
   27.3555   35.9075   15.7510 C   0  0  0  0  0  0  0  0  0  0  0  0
   28.6881   36.0388   15.3195 O   0  0  0  0  0  0  0  0  0  0  0  0
   27.0348   37.0302   16.7268 C   0  0  1  0  0  0  0  0  0  0  0  0
   25.6988   36.8840   17.1592 O   0  0  0  0  0  0  0  0  0  0  0  0
   27.9896   36.9853   17.9197 C   0  0  1  0  0  0  0  0  0  0  0  0
   29.2362   37.5347   17.5502 O   0  0  0  0  0  0  0  0  0  0  0  0
   27.4358   37.6633   19.1806 C   0  0  1  0  0  0  0  0  0  0  0  0
   26.3112   36.9548   19.6521 O   0  0  0  0  0  0  0  0  0  0  0  0
   28.4674   37.7585   20.2933 C   0  0  0  0  0  0  0  0  0  0  0  0
   27.4436   35.5279   21.6932 N   0  0  0  0  0  0  0  0  0  0  0  0
   27.0068   34.4021   22.3611 C   0  0  0  0  0  0  0  0  0  0  0  0
   27.0972   33.2920   21.8293 O   0  0  0  0  0  0  0  0  0  0  0  0
   26.4600   34.5265   23.6224 N   0  0  0  0  0  0  0  0  0  0  0  0
   26.3491   35.7698   24.2161 C   0  0  0  0  0  0  0  0  0  0  0  0
   26.7862   36.8972   23.5524 C   0  0  1  0  0  0  0  0  0  0  0  0
   25.8722   35.8938   25.3429 O   0  0  0  0  0  0  0  0  0  0  0  0
   27.1117   39.2607   23.5040 C   0  0  2  0  0  0  0  0  0  0  0  0
   26.6719   38.1310   24.1630 N   0  0  0  0  0  0  0  0  0  0  0  0
   26.9956   40.5061   24.1168 C   0  0  0  0  0  0  0  0  0  0  0  0
   27.4291   41.6522   23.4578 C   0  0  1  0  0  0  0  0  0  0  0  0
   27.3062   42.9877   24.1381 C   0  0  0  0  0  0  0  0  0  0  0  0
   27.9853   41.5465   22.1779 C   0  0  1  0  0  0  0  0  0  0  0  0
   28.4758   42.7625   21.4476 C   0  0  0  0  0  0  0  0  0  0  0  0
   28.1002   40.3001   21.5694 C   0  0  0  0  0  0  0  0  0  0  0  0
   27.6646   39.1508   22.2246 C   0  0  2  0  0  0  0  0  0  0  0  0
   27.3395   36.7772   22.2827 C   0  0  2  0  0  0  0  0  0  0  0  0
   27.7701   37.9069   21.6137 N   0  0  0  0  0  0  0  0  0  0  0  0
  1  2  1  1  0  0  0
  1  3  1  0  0  0  0
  1  4  2  0  0  0  0
  1  6  1  0  0  0  0
  5  6  1  0  0  0  0
  7  5  1  6  0  0  0
  7  8  1  0  0  0  0
  7  9  1  0  0  0  0
  9 10  1  6  0  0  0
  9 11  1  0  0  0  0
 11 12  1  1  0  0  0
 11 13  1  0  0  0  0
 13 31  1  0  0  0  0
 14 15  1  0  0  0  0
 15 16  2  0  0  0  0
 15 17  1  0  0  0  0
 17 18  1  0  0  0  0
 18 20  2  0  0  0  0
 19 18  1  1  0  0  0
 19 22  1  0  0  0  0
 19 30  1  0  0  0  0
 21 23  1  6  0  0  0
 21 29  1  0  0  0  0
 21 22  1  0  0  0  0
 23 24  1  0  0  0  0
 24 25  1  1  0  0  0
 24 26  1  0  0  0  0
 26 27  1  1  0  0  0
 26 28  1  0  0  0  0
 29 28  1  6  0  0  0
 29 31  1  0  0  0  0
 30 14  1  6  0  0  0
 30 31  1  0  0  0  0
M  CHG  1   3  -1
M  END
>  <CHROM.1>
175.89918526,-49.58095643,-179.65055770,78.01675449,65.31391728,-157.80071859
-101.05065098,27.70609206,37.18347164,19.88089723,-0.88655434,1.28105673
0.48751288

>  <Name>
ligand

>  <RI>
0

>  <Rbt.Current_Directory>
/home/itssahil/PROJECTS/Mol_Feturizer/New_Systems/rnas/3F2Q

>  <Rbt.Executable>
rbdock ($Id: //depot/dev/client3/rdock/2013.1/src/exe/rbdock.cxx#4 $)

>  <Rbt.Library>
libRbt.so (2013.1, Build901 2013/11/27)

>  <Rbt.Parameter_File>
/export/apps/rDock/src/rDock_2013.1_src/data/scripts/dock_solv.prm

>  <Rbt.Receptor>
prm/blind_docking_100.prm

>  <SCORE>
-26.1852

>  <SCORE.INTER>
-22.5894

>  <SCORE.INTER.CONST>
1

>  <SCORE.INTER.POLAR>
0

>  <SCORE.INTER.ROT>
7

>  <SCORE.INTER.SOLV>
13.4673

>  <SCORE.INTER.VDW>
-27.8153

>  <SCORE.INTER.norm>
-0.728689

>  <SCORE.INTRA>
-3.59585

>  <SCORE.INTRA.DIHEDRAL>
-5.55526

>  <SCORE.INTRA.DIHEDRAL.0>
10.0718

>  <SCORE.INTRA.POLAR>
0

>  <SCORE.INTRA.POLAR.0>
0

>  <SCORE.INTRA.REPUL>
0

>  <SCORE.INTRA.REPUL.0>
0

>  <SCORE.INTRA.SOLV>
-0.827154

>  <SCORE.INTRA.SOLV.lig_0>
-48.6963

>  <SCORE.INTRA.VDW>
-0.404647

>  <SCORE.INTRA.VDW.0>
-0.836976

>  <SCORE.INTRA.norm>
-0.115995

>  <SCORE.RESTR>
0

>  <SCORE.RESTR.CAVITY>
0

>  <SCORE.RESTR.norm>
0

>  <SCORE.SYSTEM>
0

>  <SCORE.SYSTEM.CONST>
0

>  <SCORE.SYSTEM.DIHEDRAL>
0

>  <SCORE.SYSTEM.SOLV>
0

>  <SCORE.SYSTEM.norm>
0

>  <SCORE.heavy>
31

>  <SCORE.norm>
-0.844684

>  <RMSD>
5.163

$$$$
ligand
 OpenBabel11021811473D
libRbt.so/2013.1/901 2013/11/27
 31 33  0  0  0  0  0  0  0  0999 V2000
   31.7830   35.4142   17.2037 P   0  0  1  0  0  0  0  0  0  0  0  0
   31.5636   33.9260   17.0347 O   0  0  0  0  0  0  0  0  0  0  0  0
   32.4983   35.6312   18.5100 O   0  5  0  0  0  0  0  0  0  0  0  0
   32.6229   35.9469   16.0756 O   0  0  0  0  0  0  0  0  0  0  0  0
   30.1980   37.3830   17.8312 C   0  0  0  0  0  0  0  0  0  0  0  0
   30.3746   36.1722   17.1367 O   0  0  0  0  0  0  0  0  0  0  0  0
   28.9111   38.0443   17.3602 C   0  0  1  0  0  0  0  0  0  0  0  0
   27.8346   37.1660   17.6115 O   0  0  0  0  0  0  0  0  0  0  0  0
   28.6985   39.3709   18.0893 C   0  0  1  0  0  0  0  0  0  0  0  0
   28.0257   40.2760   17.2403 O   0  0  0  0  0  0  0  0  0  0  0  0
   27.9733   39.2278   19.4346 C   0  0  1  0  0  0  0  0  0  0  0  0
   26.7312   38.5875   19.2447 O   0  0  0  0  0  0  0  0  0  0  0  0
   28.7856   38.4471   20.4555 C   0  0  0  0  0  0  0  0  0  0  0  0
   27.8025   35.9818   21.4247 N   0  0  0  0  0  0  0  0  0  0  0  0
   27.3879   34.7468   21.8802 C   0  0  0  0  0  0  0  0  0  0  0  0
   27.5565   33.7413   21.1847 O   0  0  0  0  0  0  0  0  0  0  0  0
   26.7755   34.6451   23.1130 N   0  0  0  0  0  0  0  0  0  0  0  0
   26.5770   35.7712   23.8895 C   0  0  0  0  0  0  0  0  0  0  0  0
   26.9917   37.0070   23.4385 C   0  0  1  0  0  0  0  0  0  0  0  0
   26.0409   35.6934   24.9936 O   0  0  0  0  0  0  0  0  0  0  0  0
   27.2064   39.3584   23.7840 C   0  0  2  0  0  0  0  0  0  0  0  0
   26.7894   38.1209   24.2299 N   0  0  0  0  0  0  0  0  0  0  0  0
   27.0017   40.4833   24.5793 C   0  0  0  0  0  0  0  0  0  0  0  0
   27.4116   41.7367   24.1356 C   0  0  1  0  0  0  0  0  0  0  0  0
   27.1926   42.9393   25.0115 C   0  0  0  0  0  0  0  0  0  0  0  0
   28.0334   41.8603   22.8879 C   0  0  1  0  0  0  0  0  0  0  0  0
   28.5003   43.1963   22.3882 C   0  0  0  0  0  0  0  0  0  0  0  0
   28.2367   40.7337   22.0965 C   0  0  0  0  0  0  0  0  0  0  0  0
   27.8251   39.4776   22.5359 C   0  0  2  0  0  0  0  0  0  0  0  0
   27.6107   37.1148   22.1984 C   0  0  2  0  0  0  0  0  0  0  0  0
   28.0189   38.3535   21.7421 N   0  0  0  0  0  0  0  0  0  0  0  0
  1  2  1  6  0  0  0
  1  3  1  0  0  0  0
  1  4  2  0  0  0  0
  1  6  1  0  0  0  0
  5  6  1  0  0  0  0
  7  5  1  1  0  0  0
  7  8  1  0  0  0  0
  7  9  1  0  0  0  0
  9 10  1  6  0  0  0
  9 11  1  0  0  0  0
 11 12  1  6  0  0  0
 11 13  1  0  0  0  0
 13 31  1  0  0  0  0
 14 15  1  0  0  0  0
 15 16  2  0  0  0  0
 15 17  1  0  0  0  0
 17 18  1  0  0  0  0
 18 20  2  0  0  0  0
 19 18  1  1  0  0  0
 19 22  1  0  0  0  0
 19 30  1  0  0  0  0
 21 23  1  6  0  0  0
 21 29  1  0  0  0  0
 21 22  1  0  0  0  0
 23 24  1  0  0  0  0
 24 25  1  1  0  0  0
 24 26  1  0  0  0  0
 26 27  1  1  0  0  0
 26 28  1  0  0  0  0
 29 28  1  6  0  0  0
 29 31  1  0  0  0  0
 30 14  1  6  0  0  0
 30 31  1  0  0  0  0
M  CHG  1   3  -1
M  END
>  <CHROM.1>
167.40103433,151.25962857,59.35903277,148.27205919,-56.67022829,179.74964101
-69.98767554,28.55700883,37.77140582,20.63168735,-0.45948714,1.05176322,-0.04110878

>  <Name>
ligand

>  <RI>
0

>  <Rbt.Current_Directory>
/home/itssahil/PROJECTS/Mol_Feturizer/New_Systems/rnas/3F2Q

>  <Rbt.Executable>
rbdock ($Id: //depot/dev/client3/rdock/2013.1/src/exe/rbdock.cxx#4 $)

>  <Rbt.Library>
libRbt.so (2013.1, Build901 2013/11/27)

>  <Rbt.Parameter_File>
/export/apps/rDock/src/rDock_2013.1_src/data/scripts/dock_solv.prm

>  <Rbt.Receptor>
prm/pocket_docking_6.prm

>  <SCORE>
-25.162

>  <SCORE.INTER>
-22.9714

>  <SCORE.INTER.CONST>
1

>  <SCORE.INTER.POLAR>
0

>  <SCORE.INTER.ROT>
7

>  <SCORE.INTER.SOLV>
15.7362

>  <SCORE.INTER.VDW>
-28.8264

>  <SCORE.INTER.norm>
-0.741014

>  <SCORE.INTRA>
-2.19055

>  <SCORE.INTRA.DIHEDRAL>
-3.89065

>  <SCORE.INTRA.DIHEDRAL.0>
10.0718

>  <SCORE.INTRA.POLAR>
0

>  <SCORE.INTRA.POLAR.0>
0

>  <SCORE.INTRA.REPUL>
0

>  <SCORE.INTRA.REPUL.0>
0

>  <SCORE.INTRA.SOLV>
-0.510293

>  <SCORE.INTRA.SOLV.lig_0>
-48.6963

>  <SCORE.INTRA.VDW>
0.00992614

>  <SCORE.INTRA.VDW.0>
-0.836976

>  <SCORE.INTRA.norm>
-0.0706628

>  <SCORE.RESTR>
0

>  <SCORE.RESTR.CAVITY>
0

>  <SCORE.RESTR.norm>
0

>  <SCORE.SYSTEM>
0

>  <SCORE.SYSTEM.CONST>
0

>  <SCORE.SYSTEM.DIHEDRAL>
0

>  <SCORE.SYSTEM.SOLV>
0

>  <SCORE.SYSTEM.norm>
0

>  <SCORE.heavy>
31

>  <SCORE.norm>
-0.811677

>  <RMSD>
5.163

$$$$
ligand
 OpenBabel11021811473D
libRbt.so/2013.1/901 2013/11/27
 31 33  0  0  0  0  0  0  0  0999 V2000
   25.8743   42.5577   16.8617 P   0  0  1  0  0  0  0  0  0  0  0  0
   26.9429   43.3535   17.5803 O   0  0  0  0  0  0  0  0  0  0  0  0
   25.3983   43.3741   15.6903 O   0  5  0  0  0  0  0  0  0  0  0  0
   26.4400   41.2540   16.3698 O   0  0  0  0  0  0  0  0  0  0  0  0
   24.8699   41.1583   18.8148 C   0  0  0  0  0  0  0  0  0  0  0  0
   24.6965   42.2000   17.8852 O   0  0  0  0  0  0  0  0  0  0  0  0
   25.8959   41.5842   19.8547 C   0  0  1  0  0  0  0  0  0  0  0  0
   25.6150   40.9149   21.0657 O   0  0  0  0  0  0  0  0  0  0  0  0
   27.3081   41.2491   19.3751 C   0  0  1  0  0  0  0  0  0  0  0  0
   28.1965   42.2752   19.7630 O   0  0  0  0  0  0  0  0  0  0  0  0
   27.8095   39.8751   19.8410 C   0  0  1  0  0  0  0  0  0  0  0  0
   28.7418   39.3646   18.9142 O   0  0  0  0  0  0  0  0  0  0  0  0
   28.4516   39.9241   21.2183 C   0  0  0  0  0  0  0  0  0  0  0  0
   27.3327   40.3947   23.7697 N   0  0  0  0  0  0  0  0  0  0  0  0
   26.7498   40.6830   24.9870 C   0  0  0  0  0  0  0  0  0  0  0  0
   26.7631   41.8378   25.4222 O   0  0  0  0  0  0  0  0  0  0  0  0
   26.1613   39.6710   25.7180 N   0  0  0  0  0  0  0  0  0  0  0  0
   26.1536   38.3752   25.2370 C   0  0  0  0  0  0  0  0  0  0  0  0
   26.7334   38.0834   24.0200 C   0  0  1  0  0  0  0  0  0  0  0  0
   25.6247   37.4658   25.8740 O   0  0  0  0  0  0  0  0  0  0  0  0
   27.2877   36.4884   22.3337 C   0  0  2  0  0  0  0  0  0  0  0  0
   26.7122   36.7837   23.5526 N   0  0  0  0  0  0  0  0  0  0  0  0
   27.2694   35.1783   21.8614 C   0  0  0  0  0  0  0  0  0  0  0  0
   27.8535   34.8687   20.6371 C   0  0  1  0  0  0  0  0  0  0  0  0
   27.8154   33.4510   20.1369 C   0  0  0  0  0  0  0  0  0  0  0  0
   28.4561   35.8811   19.8817 C   0  0  1  0  0  0  0  0  0  0  0  0
   29.0812   35.5815   18.5505 C   0  0  0  0  0  0  0  0  0  0  0  0
   28.4717   37.1891   20.3570 C   0  0  0  0  0  0  0  0  0  0  0  0
   27.8907   37.5024   21.5835 C   0  0  2  0  0  0  0  0  0  0  0  0
   27.3259   39.0993   23.2787 C   0  0  2  0  0  0  0  0  0  0  0  0
   27.9143   38.8065   22.0633 N   0  0  0  0  0  0  0  0  0  0  0  0
  1  2  1  1  0  0  0
  1  3  1  0  0  0  0
  1  4  2  0  0  0  0
  1  6  1  0  0  0  0
  5  6  1  0  0  0  0
  7  5  1  6  0  0  0
  7  8  1  0  0  0  0
  7  9  1  0  0  0  0
  9 10  1  1  0  0  0
  9 11  1  0  0  0  0
 11 12  1  6  0  0  0
 11 13  1  0  0  0  0
 13 31  1  0  0  0  0
 14 15  1  0  0  0  0
 15 16  2  0  0  0  0
 15 17  1  0  0  0  0
 17 18  1  0  0  0  0
 18 20  2  0  0  0  0
 19 18  1  6  0  0  0
 19 22  1  0  0  0  0
 19 30  1  0  0  0  0
 21 23  1  1  0  0  0
 21 29  1  0  0  0  0
 21 22  1  0  0  0  0
 23 24  1  0  0  0  0
 24 25  1  6  0  0  0
 24 26  1  0  0  0  0
 26 27  1  6  0  0  0
 26 28  1  0  0  0  0
 29 28  1  1  0  0  0
 29 31  1  0  0  0  0
 30 14  1  1  0  0  0
 30 31  1  0  0  0  0
M  CHG  1   3  -1
M  END
>  <CHROM.1>
69.70037969,-77.49516652,151.73367474,142.30594623,151.89718517,132.88075530
49.96751564,26.95109350,39.50134066,20.78165114,1.99964618,1.27677665,-1.29548208

>  <Name>
ligand

>  <RI>
0

>  <Rbt.Current_Directory>
/home/itssahil/PROJECTS/Mol_Feturizer/New_Systems/rnas/3F2Q

>  <Rbt.Executable>
rbdock ($Id: //depot/dev/client3/rdock/2013.1/src/exe/rbdock.cxx#4 $)

>  <Rbt.Library>
libRbt.so (2013.1, Build901 2013/11/27)

>  <Rbt.Parameter_File>
/export/apps/rDock/src/rDock_2013.1_src/data/scripts/dock_solv.prm

>  <Rbt.Receptor>
prm/pocket_docking_5.prm

>  <SCORE>
-17.8217

>  <SCORE.INTER>
-21.9079

>  <SCORE.INTER.CONST>
1

>  <SCORE.INTER.POLAR>
0

>  <SCORE.INTER.ROT>
7

>  <SCORE.INTER.SOLV>
17.8628

>  <SCORE.INTER.VDW>
-28.8262

>  <SCORE.INTER.norm>
-0.706705

>  <SCORE.INTRA>
4.08618

>  <SCORE.INTRA.DIHEDRAL>
5.44118

>  <SCORE.INTRA.DIHEDRAL.0>
10.0718

>  <SCORE.INTRA.POLAR>
0

>  <SCORE.INTRA.POLAR.0>
0

>  <SCORE.INTRA.REPUL>
0

>  <SCORE.INTRA.REPUL.0>
0

>  <SCORE.INTRA.SOLV>
2.33229

>  <SCORE.INTRA.SOLV.lig_0>
-48.6963

>  <SCORE.INTRA.VDW>
0.199452

>  <SCORE.INTRA.VDW.0>
-0.836976

>  <SCORE.INTRA.norm>
0.131812

>  <SCORE.RESTR>
0

>  <SCORE.RESTR.CAVITY>
0

>  <SCORE.RESTR.norm>
0

>  <SCORE.SYSTEM>
0

>  <SCORE.SYSTEM.CONST>
0

>  <SCORE.SYSTEM.DIHEDRAL>
0

>  <SCORE.SYSTEM.SOLV>
0

>  <SCORE.SYSTEM.norm>
0

>  <SCORE.heavy>
31

>  <SCORE.norm>
-0.574893

>  <RMSD>
5.165

$$$$
ligand
 OpenBabel11021811473D
libRbt.so/2013.1/901 2013/11/27
 31 33  0  0  0  0  0  0  0  0999 V2000
   29.3120   40.7999   16.4820 P   0  0  1  0  0  0  0  0  0  0  0  0
   29.2732   39.4780   17.2186 O   0  0  0  0  0  0  0  0  0  0  0  0
   30.0284   41.7952   17.3546 O   0  5  0  0  0  0  0  0  0  0  0  0
   30.0506   40.6480   15.1808 O   0  0  0  0  0  0  0  0  0  0  0  0
   26.9808   41.7620   17.1315 C   0  0  0  0  0  0  0  0  0  0  0  0
   27.8197   41.2544   16.1226 O   0  0  0  0  0  0  0  0  0  0  0  0
   26.5343   40.6182   18.0303 C   0  0  1  0  0  0  0  0  0  0  0  0
   26.4356   39.4447   17.2515 O   0  0  0  0  0  0  0  0  0  0  0  0
   27.5323   40.4190   19.1710 C   0  0  1  0  0  0  0  0  0  0  0  0
   27.7085   41.6357   19.8647 O   0  0  0  0  0  0  0  0  0  0  0  0
   27.1551   39.2821   20.1309 C   0  0  1  0  0  0  0  0  0  0  0  0
   26.7641   38.1435   19.3963 O   0  0  0  0  0  0  0  0  0  0  0  0
   28.2934   38.9054   21.0657 C   0  0  0  0  0  0  0  0  0  0  0  0
   27.3537   39.5684   23.6465 N   0  0  0  0  0  0  0  0  0  0  0  0
   26.8560   39.9482   24.8764 C   0  0  0  0  0  0  0  0  0  0  0  0
   26.8914   41.1330   25.2200 O   0  0  0  0  0  0  0  0  0  0  0  0
   26.3280   38.9941   25.7226 N   0  0  0  0  0  0  0  0  0  0  0  0
   26.2960   37.6652   25.3438 C   0  0  0  0  0  0  0  0  0  0  0  0
   26.7907   37.2820   24.1146 C   0  0  1  0  0  0  0  0  0  0  0  0
   25.8201   36.8063   26.0843 O   0  0  0  0  0  0  0  0  0  0  0  0
   27.2365   35.5632   22.5203 C   0  0  2  0  0  0  0  0  0  0  0  0
   26.7463   35.9501   23.7507 N   0  0  0  0  0  0  0  0  0  0  0  0
   27.1946   34.2207   22.1520 C   0  0  0  0  0  0  0  0  0  0  0  0
   27.6933   33.8191   20.9167 C   0  0  1  0  0  0  0  0  0  0  0  0
   27.6305   32.3671   20.5304 C   0  0  0  0  0  0  0  0  0  0  0  0
   28.2336   34.7717   20.0453 C   0  0  1  0  0  0  0  0  0  0  0  0
   28.7656   34.3719   18.7000 C   0  0  0  0  0  0  0  0  0  0  0  0
   28.2730   36.1123   20.4168 C   0  0  0  0  0  0  0  0  0  0  0  0
   27.7776   36.5178   21.6538 C   0  0  2  0  0  0  0  0  0  0  0  0
   27.3219   38.2391   23.2577 C   0  0  2  0  0  0  0  0  0  0  0  0
   27.8253   37.8550   22.0296 N   0  0  0  0  0  0  0  0  0  0  0  0
  1  2  1  1  0  0  0
  1  3  1  0  0  0  0
  1  4  2  0  0  0  0
  1  6  1  0  0  0  0
  5  6  1  0  0  0  0
  7  5  1  6  0  0  0
  7  8  1  0  0  0  0
  7  9  1  0  0  0  0
  9 10  1  1  0  0  0
  9 11  1  0  0  0  0
 11 12  1  6  0  0  0
 11 13  1  0  0  0  0
 13 31  1  0  0  0  0
 14 15  1  0  0  0  0
 15 16  2  0  0  0  0
 15 17  1  0  0  0  0
 17 18  1  0  0  0  0
 18 20  2  0  0  0  0
 19 18  1  6  0  0  0
 19 22  1  0  0  0  0
 19 30  1  0  0  0  0
 21 23  1  1  0  0  0
 21 29  1  0  0  0  0
 21 22  1  0  0  0  0
 23 24  1  0  0  0  0
 24 25  1  6  0  0  0
 24 26  1  0  0  0  0
 26 27  1  6  0  0  0
 26 28  1  0  0  0  0
 29 28  1  1  0  0  0
 29 31  1  0  0  0  0
 30 14  1  1  0  0  0
 30 31  1  0  0  0  0
M  CHG  1   3  -1
M  END
>  <CHROM.1>
-73.31820128,74.76648391,-32.12202289,54.67029974,45.65665443,176.33781845
81.15751977,27.67082881,38.45348248,20.52327233,0.61548541,1.31378645,-0.12740386

>  <Name>
ligand

>  <RI>
0

>  <Rbt.Current_Directory>
/home/itssahil/PROJECTS/Mol_Feturizer/New_Systems/rnas/3F2Q

>  <Rbt.Executable>
rbdock ($Id: //depot/dev/client3/rdock/2013.1/src/exe/rbdock.cxx#4 $)

>  <Rbt.Library>
libRbt.so (2013.1, Build901 2013/11/27)

>  <Rbt.Parameter_File>
/export/apps/rDock/src/rDock_2013.1_src/data/scripts/dock_solv.prm

>  <Rbt.Receptor>
prm/blind_docking_80.prm

>  <SCORE>
-27.303

>  <SCORE.INTER>
-25.2553

>  <SCORE.INTER.CONST>
1

>  <SCORE.INTER.POLAR>
0

>  <SCORE.INTER.ROT>
7

>  <SCORE.INTER.SOLV>
23.5954

>  <SCORE.INTER.VDW>
-32.9687

>  <SCORE.INTER.norm>
-0.814688

>  <SCORE.INTRA>
-2.04765

>  <SCORE.INTRA.DIHEDRAL>
-4.50861

>  <SCORE.INTRA.DIHEDRAL.0>
10.0718

>  <SCORE.INTRA.POLAR>
0

>  <SCORE.INTRA.POLAR.0>
0

>  <SCORE.INTRA.REPUL>
0

>  <SCORE.INTRA.REPUL.0>
0

>  <SCORE.INTRA.SOLV>
2.386

>  <SCORE.INTRA.SOLV.lig_0>
-48.6963

>  <SCORE.INTRA.VDW>
-0.986339

>  <SCORE.INTRA.VDW.0>
-0.836976

>  <SCORE.INTRA.norm>
-0.0660531

>  <SCORE.RESTR>
0

>  <SCORE.RESTR.CAVITY>
0

>  <SCORE.RESTR.norm>
0

>  <SCORE.SYSTEM>
0

>  <SCORE.SYSTEM.CONST>
0

>  <SCORE.SYSTEM.DIHEDRAL>
0

>  <SCORE.SYSTEM.SOLV>
0

>  <SCORE.SYSTEM.norm>
0

>  <SCORE.heavy>
31

>  <SCORE.norm>
-0.880741

>  <RMSD>
5.176

$$$$
ligand
 OpenBabel11021811473D
libRbt.so/2013.1/901 2013/11/27
 31 33  0  0  0  0  0  0  0  0999 V2000
   31.8559   35.1285   15.3419 P   0  0  1  0  0  0  0  0  0  0  0  0
   30.9829   34.1557   16.1055 O   0  0  0  0  0  0  0  0  0  0  0  0
   33.2552   35.0197   15.8854 O   0  5  0  0  0  0  0  0  0  0  0  0
   31.8569   34.7863   13.8774 O   0  0  0  0  0  0  0  0  0  0  0  0
   31.5780   37.3939   16.5957 C   0  0  0  0  0  0  0  0  0  0  0  0
   31.2534   36.6054   15.4767 O   0  0  0  0  0  0  0  0  0  0  0  0
   30.8635   36.8400   17.8197 C   0  0  1  0  0  0  0  0  0  0  0  0
   31.5197   35.6588   18.2289 O   0  0  0  0  0  0  0  0  0  0  0  0
   30.8676   37.8709   18.9484 C   0  0  1  0  0  0  0  0  0  0  0  0
   32.1548   38.4377   19.0681 O   0  0  0  0  0  0  0  0  0  0  0  0
   29.7941   38.9577   18.7969 C   0  0  1  0  0  0  0  0  0  0  0  0
   29.9193   39.5841   17.5396 O   0  0  0  0  0  0  0  0  0  0  0  0
   28.3836   38.4093   18.9423 C   0  0  0  0  0  0  0  0  0  0  0  0
   28.0029   35.7403   19.7880 N   0  0  0  0  0  0  0  0  0  0  0  0
   27.8745   34.4170   20.1578 C   0  0  0  0  0  0  0  0  0  0  0  0
   27.8708   33.5311   19.2984 O   0  0  0  0  0  0  0  0  0  0  0  0
   27.7406   34.0918   21.4925 N   0  0  0  0  0  0  0  0  0  0  0  0
   27.7349   35.0829   22.4558 C   0  0  0  0  0  0  0  0  0  0  0  0
   27.8649   36.4065   22.0903 C   0  0  1  0  0  0  0  0  0  0  0  0
   27.6255   34.8063   23.6492 O   0  0  0  0  0  0  0  0  0  0  0  0
   27.9956   38.7085   22.7058 C   0  0  2  0  0  0  0  0  0  0  0  0
   27.8618   37.3835   23.0670 N   0  0  0  0  0  0  0  0  0  0  0  0
   27.9908   39.6954   23.6885 C   0  0  0  0  0  0  0  0  0  0  0  0
   28.1174   41.0349   23.3342 C   0  0  1  0  0  0  0  0  0  0  0  0
   28.1210   42.0870   24.4087 C   0  0  0  0  0  0  0  0  0  0  0  0
   28.2532   41.3846   21.9859 C   0  0  1  0  0  0  0  0  0  0  0  0
   28.4068   42.8195   21.5733 C   0  0  0  0  0  0  0  0  0  0  0  0
   28.2582   40.3954   21.0070 C   0  0  0  0  0  0  0  0  0  0  0  0
   28.1286   39.0536   21.3574 C   0  0  2  0  0  0  0  0  0  0  0  0
   28.0019   36.7395   20.7476 C   0  0  2  0  0  0  0  0  0  0  0  0
   28.1238   38.0658   20.3798 N   0  0  0  0  0  0  0  0  0  0  0  0
  1  2  1  1  0  0  0
  1  3  1  0  0  0  0
  1  4  2  0  0  0  0
  1  6  1  0  0  0  0
  5  6  1  0  0  0  0
  7  5  1  6  0  0  0
  7  8  1  0  0  0  0
  7  9  1  0  0  0  0
  9 10  1  6  0  0  0
  9 11  1  0  0  0  0
 11 12  1  6  0  0  0
 11 13  1  0  0  0  0
 13 31  1  0  0  0  0
 14 15  1  0  0  0  0
 15 16  2  0  0  0  0
 15 17  1  0  0  0  0
 17 18  1  0  0  0  0
 18 20  2  0  0  0  0
 19 18  1  1  0  0  0
 19 22  1  0  0  0  0
 19 30  1  0  0  0  0
 21 23  1  6  0  0  0
 21 29  1  0  0  0  0
 21 22  1  0  0  0  0
 23 24  1  0  0  0  0
 24 25  1  1  0  0  0
 24 26  1  0  0  0  0
 26 27  1  1  0  0  0
 26 28  1  0  0  0  0
 29 28  1  6  0  0  0
 29 31  1  0  0  0  0
 30 14  1  6  0  0  0
 30 31  1  0  0  0  0
M  CHG  1   3  -1
M  END
>  <CHROM.1>
-71.94044628,84.83030716,74.73709117,-45.16906471,-54.84382494,72.32802044
63.36797818,29.49628199,37.25985202,19.53643602,-0.71223793,0.99227147,0.25200905

>  <Name>
ligand

>  <RI>
0

>  <Rbt.Current_Directory>
/home/itssahil/PROJECTS/Mol_Feturizer/New_Systems/rnas/3F2Q

>  <Rbt.Executable>
rbdock ($Id: //depot/dev/client3/rdock/2013.1/src/exe/rbdock.cxx#4 $)

>  <Rbt.Library>
libRbt.so (2013.1, Build901 2013/11/27)

>  <Rbt.Parameter_File>
/export/apps/rDock/src/rDock_2013.1_src/data/scripts/dock_solv.prm

>  <Rbt.Receptor>
prm/blind_docking_60.prm

>  <SCORE>
-23.4792

>  <SCORE.INTER>
-20.4941

>  <SCORE.INTER.CONST>
1

>  <SCORE.INTER.POLAR>
0

>  <SCORE.INTER.ROT>
7

>  <SCORE.INTER.SOLV>
12.9092

>  <SCORE.INTER.VDW>
-26.2325

>  <SCORE.INTER.norm>
-0.6611

>  <SCORE.INTRA>
-3.0206

>  <SCORE.INTRA.DIHEDRAL>
-5.13917

>  <SCORE.INTRA.DIHEDRAL.0>
10.0718

>  <SCORE.INTRA.POLAR>
0

>  <SCORE.INTRA.POLAR.0>
0

>  <SCORE.INTRA.REPUL>
0

>  <SCORE.INTRA.REPUL.0>
0

>  <SCORE.INTRA.SOLV>
0.942636

>  <SCORE.INTRA.SOLV.lig_0>
-48.6963

>  <SCORE.INTRA.VDW>
-0.922333

>  <SCORE.INTRA.VDW.0>
-0.836976

>  <SCORE.INTRA.norm>
-0.0974386

>  <SCORE.RESTR>
0.0355052

>  <SCORE.RESTR.CAVITY>
0.0355052

>  <SCORE.RESTR.norm>
0.00114533

>  <SCORE.SYSTEM>
0

>  <SCORE.SYSTEM.CONST>
0

>  <SCORE.SYSTEM.DIHEDRAL>
0

>  <SCORE.SYSTEM.SOLV>
0

>  <SCORE.SYSTEM.norm>
0

>  <SCORE.heavy>
31

>  <SCORE.norm>
-0.757393

>  <RMSD>
5.189

$$$$
ligand
 OpenBabel11021811473D
libRbt.so/2013.1/901 2013/11/27
 31 33  0  0  0  0  0  0  0  0999 V2000
   29.7964   34.8763   14.4404 P   0  0  1  0  0  0  0  0  0  0  0  0
   29.0975   35.7202   13.3958 O   0  0  0  0  0  0  0  0  0  0  0  0
   29.5819   33.4295   14.0858 O   0  5  0  0  0  0  0  0  0  0  0  0
   31.2696   35.1786   14.4518 O   0  0  0  0  0  0  0  0  0  0  0  0
   29.1749   36.5936   16.2968 C   0  0  0  0  0  0  0  0  0  0  0  0
   29.2314   35.2476   15.8915 O   0  0  0  0  0  0  0  0  0  0  0  0
   28.5409   36.6717   17.6779 C   0  0  1  0  0  0  0  0  0  0  0  0
   29.4128   36.0668   18.6092 O   0  0  0  0  0  0  0  0  0  0  0  0
   28.2794   38.1285   18.0602 C   0  0  1  0  0  0  0  0  0  0  0  0
   27.5202   38.7552   17.0485 O   0  0  0  0  0  0  0  0  0  0  0  0
   27.6187   38.2977   19.4354 C   0  0  1  0  0  0  0  0  0  0  0  0
   26.5355   37.4035   19.5610 O   0  0  0  0  0  0  0  0  0  0  0  0
   28.5903   38.0678   20.5820 C   0  0  0  0  0  0  0  0  0  0  0  0
   27.5040   35.7720   21.8201 N   0  0  0  0  0  0  0  0  0  0  0  0
   27.0368   34.6146   22.4088 C   0  0  0  0  0  0  0  0  0  0  0  0
   27.1328   33.5359   21.8168 O   0  0  0  0  0  0  0  0  0  0  0  0
   26.4533   34.6726   23.6584 N   0  0  0  0  0  0  0  0  0  0  0  0
   26.3360   35.8809   24.3192 C   0  0  0  0  0  0  0  0  0  0  0  0
   26.8035   37.0396   23.7348 C   0  0  1  0  0  0  0  0  0  0  0  0
   25.8265   35.9454   25.4367 O   0  0  0  0  0  0  0  0  0  0  0  0
   27.1522   39.3983   23.8324 C   0  0  2  0  0  0  0  0  0  0  0  0
   26.6822   38.2376   24.4118 N   0  0  0  0  0  0  0  0  0  0  0  0
   27.0292   40.6077   24.5122 C   0  0  0  0  0  0  0  0  0  0  0  0
   27.4930   41.7849   23.9334 C   0  0  1  0  0  0  0  0  0  0  0  0
   27.3620   43.0804   24.6856 C   0  0  0  0  0  0  0  0  0  0  0  0
   28.0867   41.7465   22.6666 C   0  0  1  0  0  0  0  0  0  0  0  0
   28.6103   42.9969   22.0224 C   0  0  0  0  0  0  0  0  0  0  0  0
   28.2083   40.5359   21.9909 C   0  0  0  0  0  0  0  0  0  0  0  0
   27.7425   39.3558   22.5657 C   0  0  2  0  0  0  0  0  0  0  0  0
   27.3937   36.9865   22.4773 C   0  0  2  0  0  0  0  0  0  0  0  0
   27.8548   38.1479   21.8875 N   0  0  0  0  0  0  0  0  0  0  0  0
  1  2  1  6  0  0  0
  1  3  1  0  0  0  0
  1  4  2  0  0  0  0
  1  6  1  0  0  0  0
  5  6  1  0  0  0  0
  7  5  1  6  0  0  0
  7  8  1  0  0  0  0
  7  9  1  0  0  0  0
  9 10  1  6  0  0  0
  9 11  1  0  0  0  0
 11 12  1  1  0  0  0
 11 13  1  0  0  0  0
 13 31  1  0  0  0  0
 14 15  1  0  0  0  0
 15 16  2  0  0  0  0
 15 17  1  0  0  0  0
 17 18  1  0  0  0  0
 18 20  2  0  0  0  0
 19 18  1  1  0  0  0
 19 22  1  0  0  0  0
 19 30  1  0  0  0  0
 21 23  1  6  0  0  0
 21 29  1  0  0  0  0
 21 22  1  0  0  0  0
 23 24  1  0  0  0  0
 24 25  1  1  0  0  0
 24 26  1  0  0  0  0
 26 27  1  1  0  0  0
 26 28  1  0  0  0  0
 29 28  1  6  0  0  0
 29 31  1  0  0  0  0
 30 14  1  6  0  0  0
 30 31  1  0  0  0  0
M  CHG  1   3  -1
M  END
>  <CHROM.1>
177.28369755,-50.63656536,67.04415956,53.91378118,-46.93539018,-175.78609214
-90.98853298,28.03041047,37.36612892,20.13699089,-0.77390227,1.23286941,0.36382068

>  <Name>
ligand

>  <RI>
0

>  <Rbt.Current_Directory>
/home/itssahil/PROJECTS/Mol_Feturizer/New_Systems/rnas/3F2Q

>  <Rbt.Executable>
rbdock ($Id: //depot/dev/client3/rdock/2013.1/src/exe/rbdock.cxx#4 $)

>  <Rbt.Library>
libRbt.so (2013.1, Build901 2013/11/27)

>  <Rbt.Parameter_File>
/export/apps/rDock/src/rDock_2013.1_src/data/scripts/dock_solv.prm

>  <Rbt.Receptor>
prm/pocket_docking_8.prm

>  <SCORE>
-28.2523

>  <SCORE.INTER>
-22.7838

>  <SCORE.INTER.CONST>
1

>  <SCORE.INTER.POLAR>
0

>  <SCORE.INTER.ROT>
7

>  <SCORE.INTER.SOLV>
10.604

>  <SCORE.INTER.VDW>
-26.9905

>  <SCORE.INTER.norm>
-0.734961

>  <SCORE.INTRA>
-5.46854

>  <SCORE.INTRA.DIHEDRAL>
-7.44593

>  <SCORE.INTRA.DIHEDRAL.0>
10.0718

>  <SCORE.INTRA.POLAR>
0

>  <SCORE.INTRA.POLAR.0>
0

>  <SCORE.INTRA.REPUL>
0

>  <SCORE.INTRA.REPUL.0>
0

>  <SCORE.INTRA.SOLV>
-1.21416

>  <SCORE.INTRA.SOLV.lig_0>
-48.6963

>  <SCORE.INTRA.VDW>
-1.13849

>  <SCORE.INTRA.VDW.0>
-0.836976

>  <SCORE.INTRA.norm>
-0.176404

>  <SCORE.RESTR>
0

>  <SCORE.RESTR.CAVITY>
0

>  <SCORE.RESTR.norm>
0

>  <SCORE.SYSTEM>
0

>  <SCORE.SYSTEM.CONST>
0

>  <SCORE.SYSTEM.DIHEDRAL>
0

>  <SCORE.SYSTEM.SOLV>
0

>  <SCORE.SYSTEM.norm>
0

>  <SCORE.heavy>
31

>  <SCORE.norm>
-0.911365

>  <RMSD>
5.205

$$$$
ligand
 OpenBabel11021811473D
libRbt.so/2013.1/901 2013/11/27
 31 33  0  0  0  0  0  0  0  0999 V2000
   27.9628   35.1769   13.9287 P   0  0  1  0  0  0  0  0  0  0  0  0
   26.6876   35.9727   13.7487 O   0  0  0  0  0  0  0  0  0  0  0  0
   27.6258   33.7193   13.7645 O   0  5  0  0  0  0  0  0  0  0  0  0
   28.9764   35.5788   12.8929 O   0  0  0  0  0  0  0  0  0  0  0  0
   28.4772   34.5798   16.4107 C   0  0  0  0  0  0  0  0  0  0  0  0
   28.6001   35.5069   15.3596 O   0  0  0  0  0  0  0  0  0  0  0  0
   29.0144   35.2035   17.6904 C   0  0  1  0  0  0  0  0  0  0  0  0
   30.3561   35.5874   17.4763 O   0  0  0  0  0  0  0  0  0  0  0  0
   28.1697   36.4147   18.0857 C   0  0  1  0  0  0  0  0  0  0  0  0
   26.8059   36.0518   18.1168 O   0  0  0  0  0  0  0  0  0  0  0  0
   28.6015   37.0647   19.4076 C   0  0  1  0  0  0  0  0  0  0  0  0
   29.8869   37.6280   19.2682 O   0  0  0  0  0  0  0  0  0  0  0  0
   27.6335   38.1408   19.8727 C   0  0  0  0  0  0  0  0  0  0  0  0
   27.1809   35.8127   21.4084 N   0  0  0  0  0  0  0  0  0  0  0  0
   27.0069   34.6392   22.1134 C   0  0  0  0  0  0  0  0  0  0  0  0
   26.7737   33.5855   21.5146 O   0  0  0  0  0  0  0  0  0  0  0  0
   27.0855   34.6534   23.4914 N   0  0  0  0  0  0  0  0  0  0  0  0
   27.3370   35.8340   24.1646 C   0  0  0  0  0  0  0  0  0  0  0  0
   27.5134   37.0086   23.4634 C   0  0  1  0  0  0  0  0  0  0  0  0
   27.4186   35.8591   25.3915 O   0  0  0  0  0  0  0  0  0  0  0  0
   27.9497   39.3547   23.4545 C   0  0  2  0  0  0  0  0  0  0  0  0
   27.7687   38.1783   24.1526 N   0  0  0  0  0  0  0  0  0  0  0  0
   28.2052   40.5357   24.1472 C   0  0  0  0  0  0  0  0  0  0  0  0
   28.3817   41.7286   23.4532 C   0  0  1  0  0  0  0  0  0  0  0  0
   28.6674   42.9927   24.2161 C   0  0  0  0  0  0  0  0  0  0  0  0
   28.3046   41.7347   22.0558 C   0  0  1  0  0  0  0  0  0  0  0  0
   28.5054   43.0026   21.2781 C   0  0  0  0  0  0  0  0  0  0  0  0
   28.0497   40.5524   21.3674 C   0  0  0  0  0  0  0  0  0  0  0  0
   27.8695   39.3567   22.0587 C   0  0  2  0  0  0  0  0  0  0  0  0
   27.4371   36.9996   22.0754 C   0  0  2  0  0  0  0  0  0  0  0  0
   27.6054   38.1773   21.3726 N   0  0  0  0  0  0  0  0  0  0  0  0
  1  2  1  6  0  0  0
  1  3  1  0  0  0  0
  1  4  2  0  0  0  0
  1  6  1  0  0  0  0
  5  6  1  0  0  0  0
  7  5  1  6  0  0  0
  7  8  1  0  0  0  0
  7  9  1  0  0  0  0
  9 10  1  1  0  0  0
  9 11  1  0  0  0  0
 11 12  1  6  0  0  0
 11 13  1  0  0  0  0
 13 31  1  0  0  0  0
 14 15  1  0  0  0  0
 15 16  2  0  0  0  0
 15 17  1  0  0  0  0
 17 18  1  0  0  0  0
 18 20  2  0  0  0  0
 19 18  1  6  0  0  0
 19 22  1  0  0  0  0
 19 30  1  0  0  0  0
 21 23  1  1  0  0  0
 21 29  1  0  0  0  0
 21 22  1  0  0  0  0
 23 24  1  0  0  0  0
 24 25  1  6  0  0  0
 24 26  1  0  0  0  0
 26 27  1  6  0  0  0
 26 28  1  0  0  0  0
 29 28  1  1  0  0  0
 29 31  1  0  0  0  0
 30 14  1  1  0  0  0
 30 31  1  0  0  0  0
M  CHG  1   3  -1
M  END
>  <CHROM.1>
-173.19735328,103.85776836,-57.58339905,51.93646796,66.01581479,147.91820700
124.57089878,28.00660214,37.12541484,19.79215573,-1.46058272,1.36620179,1.00285951

>  <Name>
ligand

>  <RI>
0

>  <Rbt.Current_Directory>
/home/itssahil/PROJECTS/Mol_Feturizer/New_Systems/rnas/3F2Q

>  <Rbt.Executable>
rbdock ($Id: //depot/dev/client3/rdock/2013.1/src/exe/rbdock.cxx#4 $)

>  <Rbt.Library>
libRbt.so (2013.1, Build901 2013/11/27)

>  <Rbt.Parameter_File>
/export/apps/rDock/src/rDock_2013.1_src/data/scripts/dock_solv.prm

>  <Rbt.Receptor>
prm/pocket_docking_7.prm

>  <SCORE>
-23.7534

>  <SCORE.INTER>
-21.3754

>  <SCORE.INTER.CONST>
1

>  <SCORE.INTER.POLAR>
0

>  <SCORE.INTER.ROT>
7

>  <SCORE.INTER.SOLV>
12.5617

>  <SCORE.INTER.VDW>
-26.7042

>  <SCORE.INTER.norm>
-0.68953

>  <SCORE.INTRA>
-2.37801

>  <SCORE.INTRA.DIHEDRAL>
-3.16133

>  <SCORE.INTRA.DIHEDRAL.0>
10.0718

>  <SCORE.INTRA.POLAR>
0

>  <SCORE.INTRA.POLAR.0>
0

>  <SCORE.INTRA.REPUL>
0

>  <SCORE.INTRA.REPUL.0>
0

>  <SCORE.INTRA.SOLV>
-0.877908

>  <SCORE.INTRA.SOLV.lig_0>
-48.6963

>  <SCORE.INTRA.VDW>
-0.358389

>  <SCORE.INTRA.VDW.0>
-0.836976

>  <SCORE.INTRA.norm>
-0.0767099

>  <SCORE.RESTR>
0

>  <SCORE.RESTR.CAVITY>
0

>  <SCORE.RESTR.norm>
0

>  <SCORE.SYSTEM>
0

>  <SCORE.SYSTEM.CONST>
0

>  <SCORE.SYSTEM.DIHEDRAL>
0

>  <SCORE.SYSTEM.SOLV>
0

>  <SCORE.SYSTEM.norm>
0

>  <SCORE.heavy>
31

>  <SCORE.norm>
-0.76624

>  <RMSD>
5.224

$$$$
ligand
 OpenBabel11021811473D
libRbt.so/2013.1/901 2013/11/27
 31 33  0  0  0  0  0  0  0  0999 V2000
   29.6248   40.9745   16.6592 P   0  0  1  0  0  0  0  0  0  0  0  0
   29.2841   41.6321   15.3389 O   0  0  0  0  0  0  0  0  0  0  0  0
   29.6413   39.4850   16.4438 O   0  5  0  0  0  0  0  0  0  0  0  0
   30.9779   41.4296   17.1322 O   0  0  0  0  0  0  0  0  0  0  0  0
   27.2154   41.0479   17.6446 C   0  0  0  0  0  0  0  0  0  0  0  0
   28.5645   41.4269   17.7699 O   0  0  0  0  0  0  0  0  0  0  0  0
   26.4501   41.5165   18.8735 C   0  0  1  0  0  0  0  0  0  0  0  0
   25.1471   40.9749   18.8270 O   0  0  0  0  0  0  0  0  0  0  0  0
   27.1678   41.0708   20.1475 C   0  0  1  0  0  0  0  0  0  0  0  0
   26.7670   41.8865   21.2275 O   0  0  0  0  0  0  0  0  0  0  0  0
   26.9790   39.5831   20.4753 C   0  0  1  0  0  0  0  0  0  0  0  0
   26.7957   38.8489   19.2853 O   0  0  0  0  0  0  0  0  0  0  0  0
   28.1543   39.0010   21.2441 C   0  0  0  0  0  0  0  0  0  0  0  0
   27.1211   39.6115   23.8020 N   0  0  0  0  0  0  0  0  0  0  0  0
   26.5782   39.9658   25.0203 C   0  0  0  0  0  0  0  0  0  0  0  0
   26.5894   41.1451   25.3841 O   0  0  0  0  0  0  0  0  0  0  0  0
   26.0321   38.9926   25.8326 N   0  0  0  0  0  0  0  0  0  0  0  0
   26.0271   37.6699   25.4314 C   0  0  0  0  0  0  0  0  0  0  0  0
   26.5670   37.3121   24.2136 C   0  0  1  0  0  0  0  0  0  0  0  0
   25.5357   36.7941   26.1413 O   0  0  0  0  0  0  0  0  0  0  0  0
   27.0846   35.6246   22.6077 C   0  0  2  0  0  0  0  0  0  0  0  0
   26.5491   35.9861   23.8269 N   0  0  0  0  0  0  0  0  0  0  0  0
   27.0695   34.2880   22.2164 C   0  0  0  0  0  0  0  0  0  0  0  0
   27.6137   33.9120   20.9923 C   0  0  1  0  0  0  0  0  0  0  0  0
   27.5795   32.4661   20.5806 C   0  0  0  0  0  0  0  0  0  0  0  0
   28.1730   34.8843   20.1553 C   0  0  1  0  0  0  0  0  0  0  0  0
   28.7542   34.5123   18.8225 C   0  0  0  0  0  0  0  0  0  0  0  0
   28.1855   36.2189   20.5497 C   0  0  0  0  0  0  0  0  0  0  0  0
   27.6444   36.5989   21.7756 C   0  0  2  0  0  0  0  0  0  0  0  0
   27.1166   38.2886   23.3909 C   0  0  2  0  0  0  0  0  0  0  0  0
   27.6652   37.9300   22.1745 N   0  0  0  0  0  0  0  0  0  0  0  0
  1  2  1  6  0  0  0
  1  3  1  0  0  0  0
  1  4  2  0  0  0  0
  1  6  1  0  0  0  0
  5  6  1  0  0  0  0
  7  5  1  6  0  0  0
  7  8  1  0  0  0  0
  7  9  1  0  0  0  0
  9 10  1  1  0  0  0
  9 11  1  0  0  0  0
 11 12  1  6  0  0  0
 11 13  1  0  0  0  0
 13 31  1  0  0  0  0
 14 15  1  0  0  0  0
 15 16  2  0  0  0  0
 15 17  1  0  0  0  0
 17 18  1  0  0  0  0
 18 20  2  0  0  0  0
 19 18  1  6  0  0  0
 19 22  1  0  0  0  0
 19 30  1  0  0  0  0
 21 23  1  1  0  0  0
 21 29  1  0  0  0  0
 21 22  1  0  0  0  0
 23 24  1  0  0  0  0
 24 25  1  6  0  0  0
 24 26  1  0  0  0  0
 26 27  1  6  0  0  0
 26 28  1  0  0  0  0
 29 28  1  1  0  0  0
 29 31  1  0  0  0  0
 30 14  1  1  0  0  0
 30 31  1  0  0  0  0
M  CHG  1   3  -1
M  END
>  <CHROM.1>
175.90406603,65.26756239,-172.00304191,158.54022885,29.43121322,147.72277868
92.76855532,27.55114886,38.64668026,20.80693585,-0.72048722,-1.21056585,2.92409644

>  <Name>
ligand

>  <RI>
0

>  <Rbt.Current_Directory>
/home/itssahil/PROJECTS/Mol_Feturizer/New_Systems/rnas/3F2Q

>  <Rbt.Executable>
rbdock ($Id: //depot/dev/client3/rdock/2013.1/src/exe/rbdock.cxx#4 $)

>  <Rbt.Library>
libRbt.so (2013.1, Build901 2013/11/27)

>  <Rbt.Parameter_File>
/export/apps/rDock/src/rDock_2013.1_src/data/scripts/dock_solv.prm

>  <Rbt.Receptor>
prm/pocket_docking_5.prm

>  <SCORE>
-29.3007

>  <SCORE.INTER>
-27.376

>  <SCORE.INTER.CONST>
1

>  <SCORE.INTER.POLAR>
0

>  <SCORE.INTER.ROT>
7

>  <SCORE.INTER.SOLV>
22.2639

>  <SCORE.INTER.VDW>
-33.9386

>  <SCORE.INTER.norm>
-0.883097

>  <SCORE.INTRA>
-1.92474

>  <SCORE.INTRA.DIHEDRAL>
-1.3547

>  <SCORE.INTRA.DIHEDRAL.0>
10.0718

>  <SCORE.INTRA.POLAR>
0

>  <SCORE.INTRA.POLAR.0>
0

>  <SCORE.INTRA.REPUL>
0

>  <SCORE.INTRA.REPUL.0>
0

>  <SCORE.INTRA.SOLV>
-0.74963

>  <SCORE.INTRA.SOLV.lig_0>
-48.6963

>  <SCORE.INTRA.VDW>
-0.872575

>  <SCORE.INTRA.VDW.0>
-0.836976

>  <SCORE.INTRA.norm>
-0.0620883

>  <SCORE.RESTR>
0

>  <SCORE.RESTR.CAVITY>
0

>  <SCORE.RESTR.norm>
0

>  <SCORE.SYSTEM>
0

>  <SCORE.SYSTEM.CONST>
0

>  <SCORE.SYSTEM.DIHEDRAL>
0

>  <SCORE.SYSTEM.SOLV>
0

>  <SCORE.SYSTEM.norm>
0

>  <SCORE.heavy>
31

>  <SCORE.norm>
-0.945185

>  <RMSD>
5.250

$$$$
ligand
 OpenBabel11021811473D
libRbt.so/2013.1/901 2013/11/27
 31 33  0  0  0  0  0  0  0  0999 V2000
   26.3327   34.2814   17.7713 P   0  0  1  0  0  0  0  0  0  0  0  0
   26.4475   32.9377   18.4588 O   0  0  0  0  0  0  0  0  0  0  0  0
   25.6553   34.0663   16.4447 O   0  5  0  0  0  0  0  0  0  0  0  0
   25.5129   35.2246   18.6080 O   0  0  0  0  0  0  0  0  0  0  0  0
   28.6723   34.9226   18.7184 C   0  0  0  0  0  0  0  0  0  0  0  0
   27.7882   34.9314   17.6240 O   0  0  0  0  0  0  0  0  0  0  0  0
   29.9864   35.5673   18.3024 C   0  0  1  0  0  0  0  0  0  0  0  0
   30.3868   35.0173   17.0652 O   0  0  0  0  0  0  0  0  0  0  0  0
   29.8201   37.0823   18.1838 C   0  0  1  0  0  0  0  0  0  0  0  0
   28.8814   37.3785   17.1722 O   0  0  0  0  0  0  0  0  0  0  0  0
   29.4475   37.7686   19.5054 C   0  0  1  0  0  0  0  0  0  0  0  0
   29.9893   39.0701   19.5399 O   0  0  0  0  0  0  0  0  0  0  0  0
   27.9442   37.8487   19.7180 C   0  0  0  0  0  0  0  0  0  0  0  0
   27.3595   35.5700   21.2829 N   0  0  0  0  0  0  0  0  0  0  0  0
   27.1302   34.4217   22.0132 C   0  0  0  0  0  0  0  0  0  0  0  0
   27.0667   33.3282   21.4446 O   0  0  0  0  0  0  0  0  0  0  0  0
   26.9629   34.5053   23.3808 N   0  0  0  0  0  0  0  0  0  0  0  0
   27.0240   35.7300   24.0185 C   0  0  0  0  0  0  0  0  0  0  0  0
   27.2549   36.8797   23.2923 C   0  0  1  0  0  0  0  0  0  0  0  0
   26.8857   35.8176   25.2374 O   0  0  0  0  0  0  0  0  0  0  0  0
   27.5524   39.2465   23.2246 C   0  0  2  0  0  0  0  0  0  0  0  0
   27.3176   38.0945   23.9469 N   0  0  0  0  0  0  0  0  0  0  0  0
   27.6140   40.4728   23.8821 C   0  0  0  0  0  0  0  0  0  0  0  0
   27.8427   41.6410   23.1619 C   0  0  1  0  0  0  0  0  0  0  0  0
   27.9169   42.9554   23.8889 C   0  0  0  0  0  0  0  0  0  0  0  0
   28.0138   41.5768   21.7744 C   0  0  1  0  0  0  0  0  0  0  0  0
   28.2769   42.8175   20.9718 C   0  0  0  0  0  0  0  0  0  0  0  0
   27.9522   40.3495   21.1212 C   0  0  0  0  0  0  0  0  0  0  0  0
   27.7205   39.1780   21.8382 C   0  0  2  0  0  0  0  0  0  0  0  0
   27.4261   36.8010   21.9150 C   0  0  2  0  0  0  0  0  0  0  0  0
   27.6491   37.9531   21.1856 N   0  0  0  0  0  0  0  0  0  0  0  0
  1  2  1  1  0  0  0
  1  3  1  0  0  0  0
  1  4  2  0  0  0  0
  1  6  1  0  0  0  0
  5  6  1  0  0  0  0
  7  5  1  6  0  0  0
  7  8  1  0  0  0  0
  7  9  1  0  0  0  0
  9 10  1  6  0  0  0
  9 11  1  0  0  0  0
 11 12  1  6  0  0  0
 11 13  1  0  0  0  0
 13 31  1  0  0  0  0
 14 15  1  0  0  0  0
 15 16  2  0  0  0  0
 15 17  1  0  0  0  0
 17 18  1  0  0  0  0
 18 20  2  0  0  0  0
 19 18  1  1  0  0  0
 19 22  1  0  0  0  0
 19 30  1  0  0  0  0
 21 23  1  6  0  0  0
 21 29  1  0  0  0  0
 21 22  1  0  0  0  0
 23 24  1  0  0  0  0
 24 25  1  1  0  0  0
 24 26  1  0  0  0  0
 26 27  1  1  0  0  0
 26 28  1  0  0  0  0
 29 28  1  6  0  0  0
 29 31  1  0  0  0  0
 30 14  1  6  0  0  0
 30 31  1  0  0  0  0
M  CHG  1   3  -1
M  END
>  <CHROM.1>
178.64303255,-45.61174148,-47.45165999,-62.63042907,148.50576303,155.58680750
82.22934215,27.73787086,36.98615923,20.55288025,-1.74662690,1.18890580,0.82947288

>  <Name>
ligand

>  <RI>
0

>  <Rbt.Current_Directory>
/home/itssahil/PROJECTS/Mol_Feturizer/New_Systems/rnas/3F2Q

>  <Rbt.Executable>
rbdock ($Id: //depot/dev/client3/rdock/2013.1/src/exe/rbdock.cxx#4 $)

>  <Rbt.Library>
libRbt.so (2013.1, Build901 2013/11/27)

>  <Rbt.Parameter_File>
/export/apps/rDock/src/rDock_2013.1_src/data/scripts/dock_solv.prm

>  <Rbt.Receptor>
prm/pocket_docking_8.prm

>  <SCORE>
-23.4407

>  <SCORE.INTER>
-20.5275

>  <SCORE.INTER.CONST>
1

>  <SCORE.INTER.POLAR>
0

>  <SCORE.INTER.ROT>
7

>  <SCORE.INTER.SOLV>
9.59553

>  <SCORE.INTER.VDW>
-25.1502

>  <SCORE.INTER.norm>
-0.662177

>  <SCORE.INTRA>
-2.91322

>  <SCORE.INTRA.DIHEDRAL>
-3.23491

>  <SCORE.INTRA.DIHEDRAL.0>
10.0718

>  <SCORE.INTRA.POLAR>
0

>  <SCORE.INTRA.POLAR.0>
0

>  <SCORE.INTRA.REPUL>
0

>  <SCORE.INTRA.REPUL.0>
0

>  <SCORE.INTRA.SOLV>
1.14967

>  <SCORE.INTRA.SOLV.lig_0>
-48.6963

>  <SCORE.INTRA.VDW>
-1.8706

>  <SCORE.INTRA.VDW.0>
-0.836976

>  <SCORE.INTRA.norm>
-0.0939749

>  <SCORE.RESTR>
0

>  <SCORE.RESTR.CAVITY>
0

>  <SCORE.RESTR.norm>
0

>  <SCORE.SYSTEM>
0

>  <SCORE.SYSTEM.CONST>
0

>  <SCORE.SYSTEM.DIHEDRAL>
0

>  <SCORE.SYSTEM.SOLV>
0

>  <SCORE.SYSTEM.norm>
0

>  <SCORE.heavy>
31

>  <SCORE.norm>
-0.756152

>  <RMSD>
5.255

$$$$
ligand
 OpenBabel11021811473D
libRbt.so/2013.1/901 2013/11/27
 31 33  0  0  0  0  0  0  0  0999 V2000
   29.3087   34.5142   13.9723 P   0  0  1  0  0  0  0  0  0  0  0  0
   28.5744   33.2235   13.6781 O   0  0  0  0  0  0  0  0  0  0  0  0
   30.7745   34.2798   13.7240 O   0  5  0  0  0  0  0  0  0  0  0  0
   28.8144   35.6105   13.0693 O   0  0  0  0  0  0  0  0  0  0  0  0
   29.6711   36.0840   16.0183 C   0  0  0  0  0  0  0  0  0  0  0  0
   29.0018   34.9721   15.4752 O   0  0  0  0  0  0  0  0  0  0  0  0
   29.1766   36.3185   17.4381 C   0  0  1  0  0  0  0  0  0  0  0  0
   29.4690   35.1745   18.2122 O   0  0  0  0  0  0  0  0  0  0  0  0
   29.8488   37.5539   18.0370 C   0  0  1  0  0  0  0  0  0  0  0  0
   29.5687   38.6815   17.2353 O   0  0  0  0  0  0  0  0  0  0  0  0
   29.4774   37.8097   19.5043 C   0  0  1  0  0  0  0  0  0  0  0  0
   30.2255   38.8944   20.0068 O   0  0  0  0  0  0  0  0  0  0  0  0
   27.9961   38.0973   19.6899 C   0  0  0  0  0  0  0  0  0  0  0  0
   27.3385   35.6979   21.0293 N   0  0  0  0  0  0  0  0  0  0  0  0
   27.0742   34.4930   21.6480 C   0  0  0  0  0  0  0  0  0  0  0  0
   27.0142   33.4550   20.9830 O   0  0  0  0  0  0  0  0  0  0  0  0
   26.8679   34.4577   23.0123 N   0  0  0  0  0  0  0  0  0  0  0  0
   26.9251   35.6202   23.7578 C   0  0  0  0  0  0  0  0  0  0  0  0
   27.1909   36.8261   23.1433 C   0  0  1  0  0  0  0  0  0  0  0  0
   26.7522   35.6016   24.9753 O   0  0  0  0  0  0  0  0  0  0  0  0
   27.5187   39.1850   23.2944 C   0  0  2  0  0  0  0  0  0  0  0  0
   27.2490   37.9772   23.9048 N   0  0  0  0  0  0  0  0  0  0  0  0
   27.5757   40.3473   24.0597 C   0  0  0  0  0  0  0  0  0  0  0  0
   27.8394   41.5713   23.4529 C   0  0  1  0  0  0  0  0  0  0  0  0
   27.9081   42.8149   24.2955 C   0  0  0  0  0  0  0  0  0  0  0  0
   28.0503   41.6275   22.0705 C   0  0  1  0  0  0  0  0  0  0  0  0
   28.3517   42.9304   21.3890 C   0  0  0  0  0  0  0  0  0  0  0  0
   27.9931   40.4638   21.3094 C   0  0  0  0  0  0  0  0  0  0  0  0
   27.7264   39.2370   21.9128 C   0  0  2  0  0  0  0  0  0  0  0  0
   27.4013   36.8670   21.7698 C   0  0  2  0  0  0  0  0  0  0  0  0
   27.6595   38.0758   21.1522 N   0  0  0  0  0  0  0  0  0  0  0  0
  1  2  1  6  0  0  0
  1  3  1  0  0  0  0
  1  4  2  0  0  0  0
  1  6  1  0  0  0  0
  5  6  1  0  0  0  0
  7  5  1  6  0  0  0
  7  8  1  0  0  0  0
  7  9  1  0  0  0  0
  9 10  1  6  0  0  0
  9 11  1  0  0  0  0
 11 12  1  6  0  0  0
 11 13  1  0  0  0  0
 13 31  1  0  0  0  0
 14 15  1  0  0  0  0
 15 16  2  0  0  0  0
 15 17  1  0  0  0  0
 17 18  1  0  0  0  0
 18 20  2  0  0  0  0
 19 18  1  1  0  0  0
 19 22  1  0  0  0  0
 19 30  1  0  0  0  0
 21 23  1  6  0  0  0
 21 29  1  0  0  0  0
 21 22  1  0  0  0  0
 23 24  1  0  0  0  0
 24 25  1  1  0  0  0
 24 26  1  0  0  0  0
 26 27  1  1  0  0  0
 26 28  1  0  0  0  0
 29 28  1  6  0  0  0
 29 31  1  0  0  0  0
 30 14  1  6  0  0  0
 30 31  1  0  0  0  0
M  CHG  1   3  -1
M  END
>  <CHROM.1>
178.80220107,174.27073230,60.95160172,58.69952065,175.01730248,169.23555006
90.49834050,28.35834289,37.15893715,19.67812576,-1.01807999,1.22448090,0.55083687

>  <Name>
ligand

>  <RI>
0

>  <Rbt.Current_Directory>
/home/itssahil/PROJECTS/Mol_Feturizer/New_Systems/rnas/3F2Q

>  <Rbt.Executable>
rbdock ($Id: //depot/dev/client3/rdock/2013.1/src/exe/rbdock.cxx#4 $)

>  <Rbt.Library>
libRbt.so (2013.1, Build901 2013/11/27)

>  <Rbt.Parameter_File>
/export/apps/rDock/src/rDock_2013.1_src/data/scripts/dock_solv.prm

>  <Rbt.Receptor>
prm/pocket_docking_8.prm

>  <SCORE>
-25.3263

>  <SCORE.INTER>
-19.236

>  <SCORE.INTER.CONST>
1

>  <SCORE.INTER.POLAR>
0

>  <SCORE.INTER.ROT>
7

>  <SCORE.INTER.SOLV>
12.0148

>  <SCORE.INTER.VDW>
-25.0956

>  <SCORE.INTER.norm>
-0.620518

>  <SCORE.INTRA>
-6.0903

>  <SCORE.INTRA.DIHEDRAL>
-8.32736

>  <SCORE.INTRA.DIHEDRAL.0>
10.0718

>  <SCORE.INTRA.POLAR>
0

>  <SCORE.INTRA.POLAR.0>
0

>  <SCORE.INTRA.REPUL>
0

>  <SCORE.INTRA.REPUL.0>
0

>  <SCORE.INTRA.SOLV>
-0.929136

>  <SCORE.INTRA.SOLV.lig_0>
-48.6963

>  <SCORE.INTRA.VDW>
-1.46205

>  <SCORE.INTRA.VDW.0>
-0.836976

>  <SCORE.INTRA.norm>
-0.196461

>  <SCORE.RESTR>
0

>  <SCORE.RESTR.CAVITY>
0

>  <SCORE.RESTR.norm>
0

>  <SCORE.SYSTEM>
0

>  <SCORE.SYSTEM.CONST>
0

>  <SCORE.SYSTEM.DIHEDRAL>
0

>  <SCORE.SYSTEM.SOLV>
0

>  <SCORE.SYSTEM.norm>
0

>  <SCORE.heavy>
31

>  <SCORE.norm>
-0.816979

>  <RMSD>
5.259

$$$$
ligand
 OpenBabel11021811473D
libRbt.so/2013.1/901 2013/11/27
 31 33  0  0  0  0  0  0  0  0999 V2000
   27.5522   33.8146   14.7240 P   0  0  1  0  0  0  0  0  0  0  0  0
   26.5568   33.8479   13.5841 O   0  0  0  0  0  0  0  0  0  0  0  0
   27.5731   32.4161   15.2796 O   0  5  0  0  0  0  0  0  0  0  0  0
   28.9239   34.1791   14.2266 O   0  0  0  0  0  0  0  0  0  0  0  0
   27.0181   36.2592   15.4454 C   0  0  0  0  0  0  0  0  0  0  0  0
   27.1458   34.9090   15.8194 O   0  0  0  0  0  0  0  0  0  0  0  0
   26.5412   37.0654   16.6446 C   0  0  1  0  0  0  0  0  0  0  0  0
   25.3870   36.4476   17.1731 O   0  0  0  0  0  0  0  0  0  0  0  0
   27.6397   37.1393   17.7051 C   0  0  1  0  0  0  0  0  0  0  0  0
   28.7162   37.9126   17.2195 O   0  0  0  0  0  0  0  0  0  0  0  0
   27.1522   37.6583   19.0650 C   0  0  1  0  0  0  0  0  0  0  0  0
   26.1416   36.8126   19.5673 O   0  0  0  0  0  0  0  0  0  0  0  0
   28.2728   37.7578   20.0877 C   0  0  0  0  0  0  0  0  0  0  0  0
   27.3728   35.5139   21.5500 N   0  0  0  0  0  0  0  0  0  0  0  0
   26.9951   34.3818   22.2429 C   0  0  0  0  0  0  0  0  0  0  0  0
   27.0428   33.2762   21.6966 O   0  0  0  0  0  0  0  0  0  0  0  0
   26.5549   34.4951   23.5462 N   0  0  0  0  0  0  0  0  0  0  0  0
   26.4916   35.7334   24.1570 C   0  0  0  0  0  0  0  0  0  0  0  0
   26.8701   36.8670   23.4683 C   0  0  1  0  0  0  0  0  0  0  0  0
   26.1099   35.8474   25.3206 O   0  0  0  0  0  0  0  0  0  0  0  0
   27.1863   39.2316   23.4120 C   0  0  2  0  0  0  0  0  0  0  0  0
   26.8048   38.0957   24.0962 N   0  0  0  0  0  0  0  0  0  0  0  0
   27.1194   40.4718   24.0422 C   0  0  0  0  0  0  0  0  0  0  0  0
   27.4946   41.6241   23.3586 C   0  0  1  0  0  0  0  0  0  0  0  0
   27.4264   42.9539   24.0575 C   0  0  0  0  0  0  0  0  0  0  0  0
   27.9426   41.5297   22.0361 C   0  0  1  0  0  0  0  0  0  0  0  0
   28.3685   42.7526   21.2772 C   0  0  0  0  0  0  0  0  0  0  0  0
   28.0086   40.2885   21.4101 C   0  0  0  0  0  0  0  0  0  0  0  0
   27.6310   39.1330   22.0901 C   0  0  2  0  0  0  0  0  0  0  0  0
   27.3160   36.7583   22.1561 C   0  0  2  0  0  0  0  0  0  0  0  0
   27.6874   37.8942   21.4627 N   0  0  0  0  0  0  0  0  0  0  0  0
  1  2  1  6  0  0  0
  1  3  1  0  0  0  0
  1  4  2  0  0  0  0
  1  6  1  0  0  0  0
  5  6  1  0  0  0  0
  7  5  1  6  0  0  0
  7  8  1  0  0  0  0
  7  9  1  0  0  0  0
  9 10  1  6  0  0  0
  9 11  1  0  0  0  0
 11 12  1  1  0  0  0
 11 13  1  0  0  0  0
 13 31  1  0  0  0  0
 14 15  1  0  0  0  0
 15 16  2  0  0  0  0
 15 17  1  0  0  0  0
 17 18  1  0  0  0  0
 18 20  2  0  0  0  0
 19 18  1  1  0  0  0
 19 22  1  0  0  0  0
 19 30  1  0  0  0  0
 21 23  1  6  0  0  0
 21 29  1  0  0  0  0
 21 22  1  0  0  0  0
 23 24  1  0  0  0  0
 24 25  1  1  0  0  0
 24 26  1  0  0  0  0
 26 27  1  1  0  0  0
 26 28  1  0  0  0  0
 29 28  1  6  0  0  0
 29 31  1  0  0  0  0
 30 14  1  6  0  0  0
 30 31  1  0  0  0  0
M  CHG  1   3  -1
M  END
>  <CHROM.1>
176.43511429,-56.89898900,-52.11602750,67.60926907,59.71835867,-164.35139982
-101.47644379,27.26471067,36.94550387,19.85862501,-1.51505935,1.39698584
0.96100722

>  <Name>
ligand

>  <RI>
0

>  <Rbt.Current_Directory>
/home/itssahil/PROJECTS/Mol_Feturizer/New_Systems/rnas/3F2Q

>  <Rbt.Executable>
rbdock ($Id: //depot/dev/client3/rdock/2013.1/src/exe/rbdock.cxx#4 $)

>  <Rbt.Library>
libRbt.so (2013.1, Build901 2013/11/27)

>  <Rbt.Parameter_File>
/export/apps/rDock/src/rDock_2013.1_src/data/scripts/dock_solv.prm

>  <Rbt.Receptor>
prm/blind_docking_60.prm

>  <SCORE>
-27.5721

>  <SCORE.INTER>
-22.967

>  <SCORE.INTER.CONST>
1

>  <SCORE.INTER.POLAR>
0

>  <SCORE.INTER.ROT>
7

>  <SCORE.INTER.SOLV>
10.5449

>  <SCORE.INTER.VDW>
-27.093

>  <SCORE.INTER.norm>
-0.740871

>  <SCORE.INTRA>
-4.60507

>  <SCORE.INTRA.DIHEDRAL>
-7.23244

>  <SCORE.INTRA.DIHEDRAL.0>
10.0718

>  <SCORE.INTRA.POLAR>
0

>  <SCORE.INTRA.POLAR.0>
0

>  <SCORE.INTRA.REPUL>
0

>  <SCORE.INTRA.REPUL.0>
0

>  <SCORE.INTRA.SOLV>
-0.905557

>  <SCORE.INTRA.SOLV.lig_0>
-48.6963

>  <SCORE.INTRA.VDW>
-0.536077

>  <SCORE.INTRA.VDW.0>
-0.836976

>  <SCORE.INTRA.norm>
-0.148551

>  <SCORE.RESTR>
0

>  <SCORE.RESTR.CAVITY>
0

>  <SCORE.RESTR.norm>
0

>  <SCORE.SYSTEM>
0

>  <SCORE.SYSTEM.CONST>
0

>  <SCORE.SYSTEM.DIHEDRAL>
0

>  <SCORE.SYSTEM.SOLV>
0

>  <SCORE.SYSTEM.norm>
0

>  <SCORE.heavy>
31

>  <SCORE.norm>
-0.889421

>  <RMSD>
5.267

$$$$
ligand
 OpenBabel11021811473D
libRbt.so/2013.1/901 2013/11/27
 31 33  0  0  0  0  0  0  0  0999 V2000
   25.0585   32.8416   17.7437 P   0  0  1  0  0  0  0  0  0  0  0  0
   25.4717   31.4487   18.1686 O   0  0  0  0  0  0  0  0  0  0  0  0
   24.6878   32.7899   16.2859 O   0  5  0  0  0  0  0  0  0  0  0  0
   23.8736   33.3001   18.5483 O   0  0  0  0  0  0  0  0  0  0  0  0
   26.0449   35.2481   17.8760 C   0  0  0  0  0  0  0  0  0  0  0  0
   26.2515   33.8664   18.0422 O   0  0  0  0  0  0  0  0  0  0  0  0
   27.3320   35.9879   18.2097 C   0  0  1  0  0  0  0  0  0  0  0  0
   28.2522   35.7892   17.1575 O   0  0  0  0  0  0  0  0  0  0  0  0
   27.0531   37.4788   18.4000 C   0  0  1  0  0  0  0  0  0  0  0  0
   26.1312   37.6579   19.4538 O   0  0  0  0  0  0  0  0  0  0  0  0
   28.3175   38.3212   18.6192 C   0  0  1  0  0  0  0  0  0  0  0  0
   27.9665   39.6744   18.8050 O   0  0  0  0  0  0  0  0  0  0  0  0
   29.1337   37.8496   19.8121 C   0  0  0  0  0  0  0  0  0  0  0  0
   28.1916   35.3572   20.7522 N   0  0  0  0  0  0  0  0  0  0  0  0
   27.8002   34.1124   21.2012 C   0  0  0  0  0  0  0  0  0  0  0  0
   28.0925   33.1012   20.5568 O   0  0  0  0  0  0  0  0  0  0  0  0
   27.0722   34.0065   22.3691 N   0  0  0  0  0  0  0  0  0  0  0  0
   26.7355   35.1383   23.0874 C   0  0  0  0  0  0  0  0  0  0  0  0
   27.1265   36.3841   22.6429 C   0  0  1  0  0  0  0  0  0  0  0  0
   26.0950   35.0575   24.1342 O   0  0  0  0  0  0  0  0  0  0  0  0
   27.1779   38.7517   22.9369 C   0  0  2  0  0  0  0  0  0  0  0  0
   26.7852   37.5040   23.3761 N   0  0  0  0  0  0  0  0  0  0  0  0
   26.8332   39.8825   23.6734 C   0  0  0  0  0  0  0  0  0  0  0  0
   27.2179   41.1458   23.2352 C   0  0  1  0  0  0  0  0  0  0  0  0
   26.8466   42.3553   24.0480 C   0  0  0  0  0  0  0  0  0  0  0  0
   27.9556   41.2737   22.0528 C   0  0  1  0  0  0  0  0  0  0  0  0
   28.3980   42.6213   21.5620 C   0  0  0  0  0  0  0  0  0  0  0  0
   28.2986   40.1412   21.3201 C   0  0  0  0  0  0  0  0  0  0  0  0
   27.9128   38.8751   21.7539 C   0  0  2  0  0  0  0  0  0  0  0  0
   27.8615   36.4963   21.4683 C   0  0  2  0  0  0  0  0  0  0  0  0
   28.2466   37.7445   21.0178 N   0  0  0  0  0  0  0  0  0  0  0  0
  1  2  1  1  0  0  0
  1  3  1  0  0  0  0
  1  4  2  0  0  0  0
  1  6  1  0  0  0  0
  5  6  1  0  0  0  0
  7  5  1  6  0  0  0
  7  8  1  0  0  0  0
  7  9  1  0  0  0  0
  9 10  1  1  0  0  0
  9 11  1  0  0  0  0
 11 12  1  1  0  0  0
 11 13  1  0  0  0  0
 13 31  1  0  0  0  0
 14 15  1  0  0  0  0
 15 16  2  0  0  0  0
 15 17  1  0  0  0  0
 17 18  1  0  0  0  0
 18 20  2  0  0  0  0
 19 18  1  1  0  0  0
 19 22  1  0  0  0  0
 19 30  1  0  0  0  0
 21 23  1  6  0  0  0
 21 29  1  0  0  0  0
 21 22  1  0  0  0  0
 23 24  1  0  0  0  0
 24 25  1  1  0  0  0
 24 26  1  0  0  0  0
 26 27  1  1  0  0  0
 26 28  1  0  0  0  0
 29 28  1  6  0  0  0
 29 31  1  0  0  0  0
 30 14  1  6  0  0  0
 30 31  1  0  0  0  0
M  CHG  1   3  -1
M  END
>  <CHROM.1>
-179.42011135,-172.59956799,73.75834677,59.85165061,-179.11474348,-51.69985607
-80.29406754,26.97697259,36.57146687,20.36659128,-2.60613061,1.30506161,1.54868348

>  <Name>
ligand

>  <RI>
0

>  <Rbt.Current_Directory>
/home/itssahil/PROJECTS/Mol_Feturizer/New_Systems/rnas/3F2Q

>  <Rbt.Executable>
rbdock ($Id: //depot/dev/client3/rdock/2013.1/src/exe/rbdock.cxx#4 $)

>  <Rbt.Library>
libRbt.so (2013.1, Build901 2013/11/27)

>  <Rbt.Parameter_File>
/export/apps/rDock/src/rDock_2013.1_src/data/scripts/dock_solv.prm

>  <Rbt.Receptor>
prm/blind_docking_80.prm

>  <SCORE>
-28.5451

>  <SCORE.INTER>
-22.7694

>  <SCORE.INTER.CONST>
1

>  <SCORE.INTER.POLAR>
0

>  <SCORE.INTER.ROT>
7

>  <SCORE.INTER.SOLV>
11.0795

>  <SCORE.INTER.VDW>
-27.1394

>  <SCORE.INTER.norm>
-0.734498

>  <SCORE.INTRA>
-5.7757

>  <SCORE.INTRA.DIHEDRAL>
-7.61028

>  <SCORE.INTRA.DIHEDRAL.0>
10.0718

>  <SCORE.INTRA.POLAR>
0

>  <SCORE.INTRA.POLAR.0>
0

>  <SCORE.INTRA.REPUL>
0

>  <SCORE.INTRA.REPUL.0>
0

>  <SCORE.INTRA.SOLV>
0.192784

>  <SCORE.INTRA.SOLV.lig_0>
-48.6963

>  <SCORE.INTRA.VDW>
-2.06695

>  <SCORE.INTRA.VDW.0>
-0.836976

>  <SCORE.INTRA.norm>
-0.186313

>  <SCORE.RESTR>
0

>  <SCORE.RESTR.CAVITY>
0

>  <SCORE.RESTR.norm>
0

>  <SCORE.SYSTEM>
0

>  <SCORE.SYSTEM.CONST>
0

>  <SCORE.SYSTEM.DIHEDRAL>
0

>  <SCORE.SYSTEM.SOLV>
0

>  <SCORE.SYSTEM.norm>
0

>  <SCORE.heavy>
31

>  <SCORE.norm>
-0.920811

>  <RMSD>
5.287

$$$$
ligand
 OpenBabel11021811473D
libRbt.so/2013.1/901 2013/11/27
 31 33  0  0  0  0  0  0  0  0999 V2000
   22.5219   34.8836   18.8456 P   0  0  1  0  0  0  0  0  0  0  0  0
   21.9166   35.7506   19.9289 O   0  0  0  0  0  0  0  0  0  0  0  0
   22.2603   33.4454   19.2036 O   0  5  0  0  0  0  0  0  0  0  0  0
   21.8890   35.1947   17.5172 O   0  0  0  0  0  0  0  0  0  0  0  0
   24.4932   36.4776   18.2500 C   0  0  0  0  0  0  0  0  0  0  0  0
   24.0825   35.2126   18.7088 O   0  0  0  0  0  0  0  0  0  0  0  0
   25.9648   36.4154   17.8680 C   0  0  1  0  0  0  0  0  0  0  0  0
   26.2546   37.4995   17.0112 O   0  0  0  0  0  0  0  0  0  0  0  0
   26.8408   36.4755   19.1193 C   0  0  1  0  0  0  0  0  0  0  0  0
   27.7532   35.3984   19.1115 O   0  0  0  0  0  0  0  0  0  0  0  0
   27.5658   37.8160   19.3026 C   0  0  1  0  0  0  0  0  0  0  0  0
   26.6244   38.8493   19.4893 O   0  0  0  0  0  0  0  0  0  0  0  0
   28.5303   37.8022   20.4778 C   0  0  0  0  0  0  0  0  0  0  0  0
   27.4520   35.5553   21.8091 N   0  0  0  0  0  0  0  0  0  0  0  0
   26.9897   34.4222   22.4468 C   0  0  0  0  0  0  0  0  0  0  0  0
   27.1177   33.3160   21.9146 O   0  0  0  0  0  0  0  0  0  0  0  0
   26.3753   34.5349   23.6776 N   0  0  0  0  0  0  0  0  0  0  0  0
   26.2223   35.7738   24.2711 C   0  0  0  0  0  0  0  0  0  0  0  0
   26.6848   36.9085   23.6378 C   0  0  1  0  0  0  0  0  0  0  0  0
   25.6850   35.8875   25.3715 O   0  0  0  0  0  0  0  0  0  0  0  0
   26.9924   39.2749   23.6194 C   0  0  2  0  0  0  0  0  0  0  0  0
   26.5276   38.1378   24.2479 N   0  0  0  0  0  0  0  0  0  0  0  0
   26.8333   40.5157   24.2317 C   0  0  0  0  0  0  0  0  0  0  0  0
   27.2917   41.6691   23.6029 C   0  0  1  0  0  0  0  0  0  0  0  0
   27.1214   42.9996   24.2828 C   0  0  0  0  0  0  0  0  0  0  0  0
   27.9164   41.5752   22.3540 C   0  0  1  0  0  0  0  0  0  0  0  0
   28.4349   42.7993   21.6574 C   0  0  0  0  0  0  0  0  0  0  0  0
   28.0740   40.3334   21.7459 C   0  0  0  0  0  0  0  0  0  0  0  0
   27.6138   39.1768   22.3708 C   0  0  2  0  0  0  0  0  0  0  0  0
   27.3061   36.8003   22.3988 C   0  0  2  0  0  0  0  0  0  0  0  0
   27.7622   37.9373   21.7598 N   0  0  0  0  0  0  0  0  0  0  0  0
  1  2  1  1  0  0  0
  1  3  1  0  0  0  0
  1  4  2  0  0  0  0
  1  6  1  0  0  0  0
  5  6  1  0  0  0  0
  7  5  1  1  0  0  0
  7  8  1  0  0  0  0
  7  9  1  0  0  0  0
  9 10  1  6  0  0  0
  9 11  1  0  0  0  0
 11 12  1  1  0  0  0
 11 13  1  0  0  0  0
 13 31  1  0  0  0  0
 14 15  1  0  0  0  0
 15 16  2  0  0  0  0
 15 17  1  0  0  0  0
 17 18  1  0  0  0  0
 18 20  2  0  0  0  0
 19 18  1  1  0  0  0
 19 22  1  0  0  0  0
 19 30  1  0  0  0  0
 21 23  1  6  0  0  0
 21 29  1  0  0  0  0
 21 22  1  0  0  0  0
 23 24  1  0  0  0  0
 24 25  1  1  0  0  0
 24 26  1  0  0  0  0
 26 27  1  1  0  0  0
 26 28  1  0  0  0  0
 29 28  1  6  0  0  0
 29 31  1  0  0  0  0
 30 14  1  6  0  0  0
 30 31  1  0  0  0  0
M  CHG  1   3  -1
M  END
>  <CHROM.1>
-165.34413317,-66.16409123,160.42554167,127.77683903,63.61325261,-77.41029753
-96.59269550,26.05619554,37.18893266,21.09081738,3.13307676,1.05684523,2.24133170

>  <Name>
ligand

>  <RI>
0

>  <Rbt.Current_Directory>
/home/itssahil/PROJECTS/Mol_Feturizer/New_Systems/rnas/3F2Q

>  <Rbt.Executable>
rbdock ($Id: //depot/dev/client3/rdock/2013.1/src/exe/rbdock.cxx#4 $)

>  <Rbt.Library>
libRbt.so (2013.1, Build901 2013/11/27)

>  <Rbt.Parameter_File>
/export/apps/rDock/src/rDock_2013.1_src/data/scripts/dock_solv.prm

>  <Rbt.Receptor>
prm/pocket_docking_8.prm

>  <SCORE>
-30.9164

>  <SCORE.INTER>
-29.0393

>  <SCORE.INTER.CONST>
1

>  <SCORE.INTER.POLAR>
0

>  <SCORE.INTER.ROT>
7

>  <SCORE.INTER.SOLV>
19.393

>  <SCORE.INTER.VDW>
-34.0905

>  <SCORE.INTER.norm>
-0.936752

>  <SCORE.INTRA>
-1.87711

>  <SCORE.INTRA.DIHEDRAL>
-0.0969078

>  <SCORE.INTRA.DIHEDRAL.0>
10.0718

>  <SCORE.INTRA.POLAR>
0

>  <SCORE.INTRA.POLAR.0>
0

>  <SCORE.INTRA.REPUL>
0

>  <SCORE.INTRA.REPUL.0>
0

>  <SCORE.INTRA.SOLV>
-0.58801

>  <SCORE.INTRA.SOLV.lig_0>
-48.6963

>  <SCORE.INTRA.VDW>
-1.53465

>  <SCORE.INTRA.VDW.0>
-0.836976

>  <SCORE.INTRA.norm>
-0.0605521

>  <SCORE.RESTR>
0

>  <SCORE.RESTR.CAVITY>
0

>  <SCORE.RESTR.norm>
0

>  <SCORE.SYSTEM>
0

>  <SCORE.SYSTEM.CONST>
0

>  <SCORE.SYSTEM.DIHEDRAL>
0

>  <SCORE.SYSTEM.SOLV>
0

>  <SCORE.SYSTEM.norm>
0

>  <SCORE.heavy>
31

>  <SCORE.norm>
-0.997304

>  <RMSD>
5.299

$$$$
ligand
 OpenBabel11021811473D
libRbt.so/2013.1/901 2013/11/27
 31 33  0  0  0  0  0  0  0  0999 V2000
   26.6856   34.1561   14.6216 P   0  0  1  0  0  0  0  0  0  0  0  0
   26.0904   35.1854   15.5585 O   0  0  0  0  0  0  0  0  0  0  0  0
   25.6203   33.1381   14.3153 O   0  5  0  0  0  0  0  0  0  0  0  0
   27.1354   34.8133   13.3459 O   0  0  0  0  0  0  0  0  0  0  0  0
   29.0177   34.3392   15.7661 C   0  0  0  0  0  0  0  0  0  0  0  0
   27.9843   33.5078   15.2968 O   0  0  0  0  0  0  0  0  0  0  0  0
   28.5675   35.0155   17.0527 C   0  0  1  0  0  0  0  0  0  0  0  0
   28.5188   34.0464   18.0783 O   0  0  0  0  0  0  0  0  0  0  0  0
   29.5329   36.1401   17.4270 C   0  0  1  0  0  0  0  0  0  0  0  0
   29.4597   37.1683   16.4626 O   0  0  0  0  0  0  0  0  0  0  0  0
   29.3202   36.6915   18.8437 C   0  0  1  0  0  0  0  0  0  0  0  0
   30.2552   37.7141   19.1062 O   0  0  0  0  0  0  0  0  0  0  0  0
   27.9157   37.2343   19.0542 C   0  0  0  0  0  0  0  0  0  0  0  0
   27.6311   35.0996   20.8833 N   0  0  0  0  0  0  0  0  0  0  0  0
   27.5498   34.0233   21.7432 C   0  0  0  0  0  0  0  0  0  0  0  0
   27.5649   32.8723   21.2983 O   0  0  0  0  0  0  0  0  0  0  0  0
   27.4417   34.2425   23.1017 N   0  0  0  0  0  0  0  0  0  0  0  0
   27.4149   35.5309   23.6015 C   0  0  0  0  0  0  0  0  0  0  0  0
   27.4979   36.6091   22.7453 C   0  0  1  0  0  0  0  0  0  0  0  0
   27.3281   35.7402   24.8103 O   0  0  0  0  0  0  0  0  0  0  0  0
   27.5612   38.9710   22.4100 C   0  0  2  0  0  0  0  0  0  0  0  0
   27.4744   37.8897   23.2629 N   0  0  0  0  0  0  0  0  0  0  0  0
   27.5356   40.2631   22.9293 C   0  0  0  0  0  0  0  0  0  0  0  0
   27.6149   41.3602   22.0773 C   0  0  1  0  0  0  0  0  0  0  0  0
   27.5968   42.7483   22.6553 C   0  0  0  0  0  0  0  0  0  0  0  0
   27.7239   41.1583   20.6967 C   0  0  1  0  0  0  0  0  0  0  0  0
   27.8264   42.3210   19.7532 C   0  0  0  0  0  0  0  0  0  0  0  0
   27.7497   39.8656   20.1819 C   0  0  0  0  0  0  0  0  0  0  0  0
   27.6676   38.7647   21.0313 C   0  0  2  0  0  0  0  0  0  0  0  0
   27.6088   36.3940   21.3764 C   0  0  2  0  0  0  0  0  0  0  0  0
   27.6836   37.4736   20.5173 N   0  0  0  0  0  0  0  0  0  0  0  0
  1  2  1  1  0  0  0
  1  3  1  0  0  0  0
  1  4  2  0  0  0  0
  1  6  1  0  0  0  0
  5  6  1  0  0  0  0
  7  5  1  6  0  0  0
  7  8  1  0  0  0  0
  7  9  1  0  0  0  0
  9 10  1  6  0  0  0
  9 11  1  0  0  0  0
 11 12  1  6  0  0  0
 11 13  1  0  0  0  0
 13 31  1  0  0  0  0
 14 15  1  0  0  0  0
 15 16  2  0  0  0  0
 15 17  1  0  0  0  0
 17 18  1  0  0  0  0
 18 20  2  0  0  0  0
 19 18  1  1  0  0  0
 19 22  1  0  0  0  0
 19 30  1  0  0  0  0
 21 23  1  6  0  0  0
 21 29  1  0  0  0  0
 21 22  1  0  0  0  0
 23 24  1  0  0  0  0
 24 25  1  1  0  0  0
 24 26  1  0  0  0  0
 26 27  1  1  0  0  0
 26 28  1  0  0  0  0
 29 28  1  6  0  0  0
 29 31  1  0  0  0  0
 30 14  1  6  0  0  0
 30 31  1  0  0  0  0
M  CHG  1   3  -1
M  END
>  <CHROM.1>
73.99192680,-53.62035437,70.87976567,66.28444411,179.60859816,167.67798394
105.94189970,27.78098187,36.57953283,19.32384580,-1.99342867,1.48915715,1.38922406

>  <Name>
ligand

>  <RI>
0

>  <Rbt.Current_Directory>
/home/itssahil/PROJECTS/Mol_Feturizer/New_Systems/rnas/3F2Q

>  <Rbt.Executable>
rbdock ($Id: //depot/dev/client3/rdock/2013.1/src/exe/rbdock.cxx#4 $)

>  <Rbt.Library>
libRbt.so (2013.1, Build901 2013/11/27)

>  <Rbt.Parameter_File>
/export/apps/rDock/src/rDock_2013.1_src/data/scripts/dock_solv.prm

>  <Rbt.Receptor>
prm/pocket_docking_6.prm

>  <SCORE>
-24.7016

>  <SCORE.INTER>
-19.4785

>  <SCORE.INTER.CONST>
1

>  <SCORE.INTER.POLAR>
0

>  <SCORE.INTER.ROT>
7

>  <SCORE.INTER.SOLV>
12.171

>  <SCORE.INTER.VDW>
-25.3093

>  <SCORE.INTER.norm>
-0.62834

>  <SCORE.INTRA>
-5.22303

>  <SCORE.INTRA.DIHEDRAL>
-6.75289

>  <SCORE.INTRA.DIHEDRAL.0>
10.0718

>  <SCORE.INTRA.POLAR>
0

>  <SCORE.INTRA.POLAR.0>
0

>  <SCORE.INTRA.REPUL>
0

>  <SCORE.INTRA.REPUL.0>
0

>  <SCORE.INTRA.SOLV>
-0.328672

>  <SCORE.INTRA.SOLV.lig_0>
-48.6963

>  <SCORE.INTRA.VDW>
-1.68225

>  <SCORE.INTRA.VDW.0>
-0.836976

>  <SCORE.INTRA.norm>
-0.168485

>  <SCORE.RESTR>
0

>  <SCORE.RESTR.CAVITY>
0

>  <SCORE.RESTR.norm>
0

>  <SCORE.SYSTEM>
0

>  <SCORE.SYSTEM.CONST>
0

>  <SCORE.SYSTEM.DIHEDRAL>
0

>  <SCORE.SYSTEM.SOLV>
0

>  <SCORE.SYSTEM.norm>
0

>  <SCORE.heavy>
31

>  <SCORE.norm>
-0.796825

>  <RMSD>
5.316

$$$$
ligand
 OpenBabel11021811473D
libRbt.so/2013.1/901 2013/11/27
 31 33  0  0  0  0  0  0  0  0999 V2000
   25.2643   41.9398   18.8768 P   0  0  1  0  0  0  0  0  0  0  0  0
   24.7102   42.6445   17.6570 O   0  0  0  0  0  0  0  0  0  0  0  0
   25.5260   40.5054   18.5038 O   0  5  0  0  0  0  0  0  0  0  0  0
   26.5490   42.5889   19.3128 O   0  0  0  0  0  0  0  0  0  0  0  0
   24.5063   41.4587   21.3214 C   0  0  0  0  0  0  0  0  0  0  0  0
   24.2315   42.0841   20.0915 O   0  0  0  0  0  0  0  0  0  0  0  0
   25.3395   42.3968   22.1821 C   0  0  1  0  0  0  0  0  0  0  0  0
   24.4725   43.1227   23.0275 O   0  0  0  0  0  0  0  0  0  0  0  0
   26.3492   41.6015   23.0097 C   0  0  1  0  0  0  0  0  0  0  0  0
   25.6642   40.7303   23.8839 O   0  0  0  0  0  0  0  0  0  0  0  0
   27.3801   40.8416   22.1634 C   0  0  1  0  0  0  0  0  0  0  0  0
   28.1480   41.7531   21.4095 O   0  0  0  0  0  0  0  0  0  0  0  0
   28.3103   39.9847   23.0072 C   0  0  0  0  0  0  0  0  0  0  0  0
   26.8696   38.3890   24.8406 N   0  0  0  0  0  0  0  0  0  0  0  0
   26.1174   37.6659   25.7439 C   0  0  0  0  0  0  0  0  0  0  0  0
   25.7632   38.1811   26.8080 O   0  0  0  0  0  0  0  0  0  0  0  0
   25.7727   36.3611   25.4543 N   0  0  0  0  0  0  0  0  0  0  0  0
   26.1764   35.7789   24.2675 C   0  0  0  0  0  0  0  0  0  0  0  0
   26.9266   36.4990   23.3613 C   0  0  1  0  0  0  0  0  0  0  0  0
   25.8685   34.6203   23.9929 O   0  0  0  0  0  0  0  0  0  0  0  0
   28.0645   36.6208   21.2673 C   0  0  2  0  0  0  0  0  0  0  0  0
   27.3173   35.9025   22.1782 N   0  0  0  0  0  0  0  0  0  0  0  0
   28.4614   36.0209   20.0746 C   0  0  0  0  0  0  0  0  0  0  0  0
   29.2214   36.7341   19.1528 C   0  0  1  0  0  0  0  0  0  0  0  0
   29.6323   36.0747   17.8652 C   0  0  0  0  0  0  0  0  0  0  0  0
   29.5818   38.0579   19.4290 C   0  0  1  0  0  0  0  0  0  0  0  0
   30.3882   38.8580   18.4481 C   0  0  0  0  0  0  0  0  0  0  0  0
   29.1827   38.6539   20.6217 C   0  0  0  0  0  0  0  0  0  0  0  0
   28.4243   37.9423   21.5483 C   0  0  2  0  0  0  0  0  0  0  0  0
   27.2750   37.8141   23.6472 C   0  0  2  0  0  0  0  0  0  0  0  0
   28.0336   38.5335   22.7438 N   0  0  0  0  0  0  0  0  0  0  0  0
  1  2  1  6  0  0  0
  1  3  1  0  0  0  0
  1  4  2  0  0  0  0
  1  6  1  0  0  0  0
  5  6  1  0  0  0  0
  7  5  1  1  0  0  0
  7  8  1  0  0  0  0
  7  9  1  0  0  0  0
  9 10  1  6  0  0  0
  9 11  1  0  0  0  0
 11 12  1  1  0  0  0
 11 13  1  0  0  0  0
 13 31  1  0  0  0  0
 14 15  1  0  0  0  0
 15 16  2  0  0  0  0
 15 17  1  0  0  0  0
 17 18  1  0  0  0  0
 18 20  2  0  0  0  0
 19 18  1  6  0  0  0
 19 22  1  0  0  0  0
 19 30  1  0  0  0  0
 21 23  1  1  0  0  0
 21 29  1  0  0  0  0
 21 22  1  0  0  0  0
 23 24  1  0  0  0  0
 24 25  1  6  0  0  0
 24 26  1  0  0  0  0
 26 27  1  6  0  0  0
 26 28  1  0  0  0  0
 29 28  1  1  0  0  0
 29 31  1  0  0  0  0
 30 14  1  1  0  0  0
 30 31  1  0  0  0  0
M  CHG  1   3  -1
M  END
>  <CHROM.1>
87.81478420,177.35484569,94.50954921,-62.15915499,62.07183147,111.79811222
73.02609207,26.81067949,39.27840333,21.65955318,-1.91244358,-0.95658803,2.20374293

>  <Name>
ligand

>  <RI>
0

>  <Rbt.Current_Directory>
/home/itssahil/PROJECTS/Mol_Feturizer/New_Systems/rnas/3F2Q

>  <Rbt.Executable>
rbdock ($Id: //depot/dev/client3/rdock/2013.1/src/exe/rbdock.cxx#4 $)

>  <Rbt.Library>
libRbt.so (2013.1, Build901 2013/11/27)

>  <Rbt.Parameter_File>
/export/apps/rDock/src/rDock_2013.1_src/data/scripts/dock_solv.prm

>  <Rbt.Receptor>
prm/pocket_docking_6.prm

>  <SCORE>
-26.6256

>  <SCORE.INTER>
-27.185

>  <SCORE.INTER.CONST>
1

>  <SCORE.INTER.POLAR>
0

>  <SCORE.INTER.ROT>
7

>  <SCORE.INTER.SOLV>
18.1277

>  <SCORE.INTER.VDW>
-32.4325

>  <SCORE.INTER.norm>
-0.876934

>  <SCORE.INTRA>
0.559397

>  <SCORE.INTRA.DIHEDRAL>
2.61187

>  <SCORE.INTRA.DIHEDRAL.0>
10.0718

>  <SCORE.INTRA.POLAR>
0

>  <SCORE.INTRA.POLAR.0>
0

>  <SCORE.INTRA.REPUL>
0

>  <SCORE.INTRA.REPUL.0>
0

>  <SCORE.INTRA.SOLV>
3.19371

>  <SCORE.INTRA.SOLV.lig_0>
-48.6963

>  <SCORE.INTRA.VDW>
-2.3434

>  <SCORE.INTRA.VDW.0>
-0.836976

>  <SCORE.INTRA.norm>
0.0180451

>  <SCORE.RESTR>
0

>  <SCORE.RESTR.CAVITY>
0

>  <SCORE.RESTR.norm>
0

>  <SCORE.SYSTEM>
0

>  <SCORE.SYSTEM.CONST>
0

>  <SCORE.SYSTEM.DIHEDRAL>
0

>  <SCORE.SYSTEM.SOLV>
0

>  <SCORE.SYSTEM.norm>
0

>  <SCORE.heavy>
31

>  <SCORE.norm>
-0.858889

>  <RMSD>
5.316

$$$$
ligand
 OpenBabel11021811473D
libRbt.so/2013.1/901 2013/11/27
 31 33  0  0  0  0  0  0  0  0999 V2000
   28.6208   34.2836   13.2915 P   0  0  1  0  0  0  0  0  0  0  0  0
   29.0030   35.4975   12.4718 O   0  0  0  0  0  0  0  0  0  0  0  0
   27.4886   33.5867   12.5862 O   0  5  0  0  0  0  0  0  0  0  0  0
   29.7919   33.3475   13.4105 O   0  0  0  0  0  0  0  0  0  0  0  0
   27.3046   35.7790   14.9687 C   0  0  0  0  0  0  0  0  0  0  0  0
   28.2357   34.7421   14.7761 O   0  0  0  0  0  0  0  0  0  0  0  0
   27.1525   36.0414   16.4598 C   0  0  1  0  0  0  0  0  0  0  0  0
   26.6602   34.8702   17.0759 O   0  0  0  0  0  0  0  0  0  0  0  0
   28.4970   36.4396   17.0685 C   0  0  1  0  0  0  0  0  0  0  0  0
   28.9638   37.6218   16.4546 O   0  0  0  0  0  0  0  0  0  0  0  0
   28.4658   36.5823   18.5965 C   0  0  1  0  0  0  0  0  0  0  0  0
   29.7116   37.0533   19.0602 O   0  0  0  0  0  0  0  0  0  0  0  0
   27.3693   37.5216   19.0728 C   0  0  0  0  0  0  0  0  0  0  0  0
   27.2381   35.2754   20.7819 N   0  0  0  0  0  0  0  0  0  0  0  0
   27.2211   34.1431   21.5705 C   0  0  0  0  0  0  0  0  0  0  0  0
   27.0462   33.0339   21.0584 O   0  0  0  0  0  0  0  0  0  0  0  0
   27.3910   34.2599   22.9353 N   0  0  0  0  0  0  0  0  0  0  0  0
   27.5774   35.5021   23.5123 C   0  0  0  0  0  0  0  0  0  0  0  0
   27.5969   36.6359   22.7271 C   0  0  1  0  0  0  0  0  0  0  0  0
   27.7390   35.6195   24.7258 O   0  0  0  0  0  0  0  0  0  0  0  0
   27.8134   39.0049   22.5378 C   0  0  2  0  0  0  0  0  0  0  0  0
   27.7892   37.8686   23.3203 N   0  0  0  0  0  0  0  0  0  0  0  0
   28.0050   40.2491   23.1338 C   0  0  0  0  0  0  0  0  0  0  0  0
   28.0234   41.4017   22.3547 C   0  0  1  0  0  0  0  0  0  0  0  0
   28.2422   42.7359   23.0129 C   0  0  0  0  0  0  0  0  0  0  0  0
   27.8519   41.3037   20.9691 C   0  0  1  0  0  0  0  0  0  0  0  0
   27.8819   42.5270   20.1001 C   0  0  0  0  0  0  0  0  0  0  0  0
   27.6613   40.0585   20.3774 C   0  0  0  0  0  0  0  0  0  0  0  0
   27.6392   38.9026   21.1543 C   0  0  2  0  0  0  0  0  0  0  0  0
   27.4282   36.5237   21.3518 C   0  0  2  0  0  0  0  0  0  0  0  0
   27.4393   37.6598   20.5654 N   0  0  0  0  0  0  0  0  0  0  0  0
  1  2  1  6  0  0  0
  1  3  1  0  0  0  0
  1  4  2  0  0  0  0
  1  6  1  0  0  0  0
  5  6  1  0  0  0  0
  7  5  1  6  0  0  0
  7  8  1  0  0  0  0
  7  9  1  0  0  0  0
  9 10  1  6  0  0  0
  9 11  1  0  0  0  0
 11 12  1  6  0  0  0
 11 13  1  0  0  0  0
 13 31  1  0  0  0  0
 14 15  1  0  0  0  0
 15 16  2  0  0  0  0
 15 17  1  0  0  0  0
 17 18  1  0  0  0  0
 18 20  2  0  0  0  0
 19 18  1  6  0  0  0
 19 22  1  0  0  0  0
 19 30  1  0  0  0  0
 21 23  1  1  0  0  0
 21 29  1  0  0  0  0
 21 22  1  0  0  0  0
 23 24  1  0  0  0  0
 24 25  1  6  0  0  0
 24 26  1  0  0  0  0
 26 27  1  6  0  0  0
 26 28  1  0  0  0  0
 29 28  1  1  0  0  0
 29 31  1  0  0  0  0
 30 14  1  1  0  0  0
 30 31  1  0  0  0  0
M  CHG  1   3  -1
M  END
>  <CHROM.1>
-178.33705567,50.93388772,-61.62984855,60.76357678,-175.33070309,-177.45611914
120.44602058,27.95093476,36.75878136,18.97788893,-1.11829644,1.42641241,0.65662973

>  <Name>
ligand

>  <RI>
0

>  <Rbt.Current_Directory>
/home/itssahil/PROJECTS/Mol_Feturizer/New_Systems/rnas/3F2Q

>  <Rbt.Executable>
rbdock ($Id: //depot/dev/client3/rdock/2013.1/src/exe/rbdock.cxx#4 $)

>  <Rbt.Library>
libRbt.so (2013.1, Build901 2013/11/27)

>  <Rbt.Parameter_File>
/export/apps/rDock/src/rDock_2013.1_src/data/scripts/dock_solv.prm

>  <Rbt.Receptor>
prm/pocket_docking_7.prm

>  <SCORE>
-25.0979

>  <SCORE.INTER>
-19.5726

>  <SCORE.INTER.CONST>
1

>  <SCORE.INTER.POLAR>
0

>  <SCORE.INTER.ROT>
7

>  <SCORE.INTER.SOLV>
9.284

>  <SCORE.INTER.VDW>
-24.4097

>  <SCORE.INTER.norm>
-0.631373

>  <SCORE.INTRA>
-5.52534

>  <SCORE.INTRA.DIHEDRAL>
-8.4438

>  <SCORE.INTRA.DIHEDRAL.0>
10.0718

>  <SCORE.INTRA.POLAR>
0

>  <SCORE.INTRA.POLAR.0>
0

>  <SCORE.INTRA.REPUL>
0

>  <SCORE.INTRA.REPUL.0>
0

>  <SCORE.INTRA.SOLV>
-1.33692

>  <SCORE.INTRA.SOLV.lig_0>
-48.6963

>  <SCORE.INTRA.VDW>
-0.634985

>  <SCORE.INTRA.VDW.0>
-0.836976

>  <SCORE.INTRA.norm>
-0.178237

>  <SCORE.RESTR>
0

>  <SCORE.RESTR.CAVITY>
0

>  <SCORE.RESTR.norm>
0

>  <SCORE.SYSTEM>
0

>  <SCORE.SYSTEM.CONST>
0

>  <SCORE.SYSTEM.DIHEDRAL>
0

>  <SCORE.SYSTEM.SOLV>
0

>  <SCORE.SYSTEM.norm>
0

>  <SCORE.heavy>
31

>  <SCORE.norm>
-0.80961

>  <RMSD>
5.324

$$$$
ligand
 OpenBabel11021811473D
libRbt.so/2013.1/901 2013/11/27
 31 33  0  0  0  0  0  0  0  0999 V2000
   27.6352   33.6871   14.8748 P   0  0  1  0  0  0  0  0  0  0  0  0
   28.9921   33.9818   14.2718 O   0  0  0  0  0  0  0  0  0  0  0  0
   26.6499   33.5383   13.7469 O   0  5  0  0  0  0  0  0  0  0  0  0
   27.6862   32.4116   15.6701 O   0  0  0  0  0  0  0  0  0  0  0  0
   27.1062   36.1772   15.4236 C   0  0  0  0  0  0  0  0  0  0  0  0
   27.2380   34.8573   15.8924 O   0  0  0  0  0  0  0  0  0  0  0  0
   26.6831   37.0754   16.5767 C   0  0  1  0  0  0  0  0  0  0  0  0
   25.4256   36.6408   17.0490 O   0  0  0  0  0  0  0  0  0  0  0  0
   27.7209   37.0240   17.6979 C   0  0  1  0  0  0  0  0  0  0  0  0
   28.8948   37.6924   17.2884 O   0  0  0  0  0  0  0  0  0  0  0  0
   27.2100   37.5699   19.0386 C   0  0  1  0  0  0  0  0  0  0  0  0
   26.1089   36.8069   19.4793 O   0  0  0  0  0  0  0  0  0  0  0  0
   28.2820   37.5668   20.1167 C   0  0  0  0  0  0  0  0  0  0  0  0
   27.3762   35.3903   21.6741 N   0  0  0  0  0  0  0  0  0  0  0  0
   26.9971   34.2914   22.4178 C   0  0  0  0  0  0  0  0  0  0  0  0
   27.0876   33.1577   21.9385 O   0  0  0  0  0  0  0  0  0  0  0  0
   26.5073   34.4690   23.6960 N   0  0  0  0  0  0  0  0  0  0  0  0
   26.3961   35.7384   24.2314 C   0  0  0  0  0  0  0  0  0  0  0  0
   26.7758   36.8391   23.4918 C   0  0  1  0  0  0  0  0  0  0  0  0
   25.9699   35.9101   25.3722 O   0  0  0  0  0  0  0  0  0  0  0  0
   27.0446   39.2032   23.3096 C   0  0  2  0  0  0  0  0  0  0  0  0
   26.6621   38.0999   24.0447 N   0  0  0  0  0  0  0  0  0  0  0  0
   26.9290   40.4756   23.8641 C   0  0  0  0  0  0  0  0  0  0  0  0
   27.3048   41.5952   23.1284 C   0  0  1  0  0  0  0  0  0  0  0  0
   27.1836   42.9609   23.7462 C   0  0  0  0  0  0  0  0  0  0  0  0
   27.8027   41.4355   21.8302 C   0  0  1  0  0  0  0  0  0  0  0  0
   28.2304   42.6224   21.0172 C   0  0  0  0  0  0  0  0  0  0  0  0
   27.9172   40.1623   21.2800 C   0  0  0  0  0  0  0  0  0  0  0  0
   27.5392   39.0393   22.0122 C   0  0  2  0  0  0  0  0  0  0  0  0
   27.2714   36.6657   22.2046 C   0  0  2  0  0  0  0  0  0  0  0  0
   27.6442   37.7683   21.4600 N   0  0  0  0  0  0  0  0  0  0  0  0
  1  2  1  6  0  0  0
  1  3  1  0  0  0  0
  1  4  2  0  0  0  0
  1  6  1  0  0  0  0
  5  6  1  0  0  0  0
  7  5  1  6  0  0  0
  7  8  1  0  0  0  0
  7  9  1  0  0  0  0
  9 10  1  6  0  0  0
  9 11  1  0  0  0  0
 11 12  1  1  0  0  0
 11 13  1  0  0  0  0
 13 31  1  0  0  0  0
 14 15  1  0  0  0  0
 15 16  2  0  0  0  0
 15 17  1  0  0  0  0
 17 18  1  0  0  0  0
 18 20  2  0  0  0  0
 19 18  1  1  0  0  0
 19 22  1  0  0  0  0
 19 30  1  0  0  0  0
 21 23  1  6  0  0  0
 21 29  1  0  0  0  0
 21 22  1  0  0  0  0
 23 24  1  0  0  0  0
 24 25  1  1  0  0  0
 24 26  1  0  0  0  0
 26 27  1  1  0  0  0
 26 28  1  0  0  0  0
 29 28  1  6  0  0  0
 29 31  1  0  0  0  0
 30 14  1  6  0  0  0
 30 31  1  0  0  0  0
M  CHG  1   3  -1
M  END
>  <CHROM.1>
178.24859609,60.95118708,-61.92323985,70.95974804,60.81211586,-165.52680224
-93.94369094,27.24908912,36.87128752,19.86719584,1.33468286,-1.41014679,-2.36671129

>  <Name>
ligand

>  <RI>
0

>  <Rbt.Current_Directory>
/home/itssahil/PROJECTS/Mol_Feturizer/New_Systems/rnas/3F2Q

>  <Rbt.Executable>
rbdock ($Id: //depot/dev/client3/rdock/2013.1/src/exe/rbdock.cxx#4 $)

>  <Rbt.Library>
libRbt.so (2013.1, Build901 2013/11/27)

>  <Rbt.Parameter_File>
/export/apps/rDock/src/rDock_2013.1_src/data/scripts/dock_solv.prm

>  <Rbt.Receptor>
prm/pocket_docking_7.prm

>  <SCORE>
-26.2414

>  <SCORE.INTER>
-21.2339

>  <SCORE.INTER.CONST>
1

>  <SCORE.INTER.POLAR>
0

>  <SCORE.INTER.ROT>
7

>  <SCORE.INTER.SOLV>
12.1128

>  <SCORE.INTER.VDW>
-26.4602

>  <SCORE.INTER.norm>
-0.684964

>  <SCORE.INTRA>
-5.00751

>  <SCORE.INTRA.DIHEDRAL>
-7.37628

>  <SCORE.INTRA.DIHEDRAL.0>
10.0718

>  <SCORE.INTRA.POLAR>
0

>  <SCORE.INTRA.POLAR.0>
0

>  <SCORE.INTRA.REPUL>
0

>  <SCORE.INTRA.REPUL.0>
0

>  <SCORE.INTRA.SOLV>
-0.983092

>  <SCORE.INTRA.SOLV.lig_0>
-48.6963

>  <SCORE.INTRA.VDW>
-0.827817

>  <SCORE.INTRA.VDW.0>
-0.836976

>  <SCORE.INTRA.norm>
-0.161532

>  <SCORE.RESTR>
0

>  <SCORE.RESTR.CAVITY>
0

>  <SCORE.RESTR.norm>
0

>  <SCORE.SYSTEM>
0

>  <SCORE.SYSTEM.CONST>
0

>  <SCORE.SYSTEM.DIHEDRAL>
0

>  <SCORE.SYSTEM.SOLV>
0

>  <SCORE.SYSTEM.norm>
0

>  <SCORE.heavy>
31

>  <SCORE.norm>
-0.846496

>  <RMSD>
5.328

$$$$
ligand
 OpenBabel11021811473D
libRbt.so/2013.1/901 2013/11/27
 31 33  0  0  0  0  0  0  0  0999 V2000
   31.6803   35.3798   16.9188 P   0  0  1  0  0  0  0  0  0  0  0  0
   30.6138   34.4291   17.4191 O   0  0  0  0  0  0  0  0  0  0  0  0
   33.0167   34.7108   17.0959 O   0  5  0  0  0  0  0  0  0  0  0  0
   31.4604   35.6874   15.4631 O   0  0  0  0  0  0  0  0  0  0  0  0
   30.3268   37.4074   17.8345 C   0  0  0  0  0  0  0  0  0  0  0  0
   31.5732   36.7666   17.7112 O   0  0  0  0  0  0  0  0  0  0  0  0
   30.5041   38.6930   18.6290 C   0  0  1  0  0  0  0  0  0  0  0  0
   31.3943   39.5365   17.9293 O   0  0  0  0  0  0  0  0  0  0  0  0
   29.1558   39.3859   18.8251 C   0  0  1  0  0  0  0  0  0  0  0  0
   28.4599   39.4254   17.5976 O   0  0  0  0  0  0  0  0  0  0  0  0
   28.2947   38.7610   19.9317 C   0  0  1  0  0  0  0  0  0  0  0  0
   27.8120   37.5040   19.5121 O   0  0  0  0  0  0  0  0  0  0  0  0
   29.0546   38.5925   21.2377 C   0  0  0  0  0  0  0  0  0  0  0  0
   27.9049   36.1479   22.0657 N   0  0  0  0  0  0  0  0  0  0  0  0
   27.4109   34.9224   22.4640 C   0  0  0  0  0  0  0  0  0  0  0  0
   27.6860   33.9050   21.8218 O   0  0  0  0  0  0  0  0  0  0  0  0
   26.6001   34.8435   23.5783 N   0  0  0  0  0  0  0  0  0  0  0  0
   26.2829   35.9829   24.2935 C   0  0  0  0  0  0  0  0  0  0  0  0
   26.7763   37.2093   23.8996 C   0  0  1  0  0  0  0  0  0  0  0  0
   25.5690   35.9255   25.2933 O   0  0  0  0  0  0  0  0  0  0  0  0
   26.9476   39.5649   24.2407 C   0  0  2  0  0  0  0  0  0  0  0  0
   26.4527   38.3368   24.6292 N   0  0  0  0  0  0  0  0  0  0  0  0
   26.6211   40.7035   24.9735 C   0  0  0  0  0  0  0  0  0  0  0  0
   27.1087   41.9475   24.5858 C   0  0  1  0  0  0  0  0  0  0  0  0
   26.7552   43.1652   25.3944 C   0  0  0  0  0  0  0  0  0  0  0  0
   27.9315   42.0480   23.4581 C   0  0  1  0  0  0  0  0  0  0  0  0
   28.4853   43.3735   23.0234 C   0  0  0  0  0  0  0  0  0  0  0  0
   28.2559   40.9078   22.7290 C   0  0  0  0  0  0  0  0  0  0  0  0
   27.7673   39.6610   23.1121 C   0  0  2  0  0  0  0  0  0  0  0  0
   27.5949   37.2941   22.7792 C   0  0  2  0  0  0  0  0  0  0  0  0
   28.0829   38.5233   22.3790 N   0  0  0  0  0  0  0  0  0  0  0  0
  1  2  1  1  0  0  0
  1  3  1  0  0  0  0
  1  4  2  0  0  0  0
  1  6  1  0  0  0  0
  5  6  1  0  0  0  0
  7  5  1  6  0  0  0
  7  8  1  0  0  0  0
  7  9  1  0  0  0  0
  9 10  1  6  0  0  0
  9 11  1  0  0  0  0
 11 12  1  6  0  0  0
 11 13  1  0  0  0  0
 13 31  1  0  0  0  0
 14 15  1  0  0  0  0
 15 16  2  0  0  0  0
 15 17  1  0  0  0  0
 17 18  1  0  0  0  0
 18 20  2  0  0  0  0
 19 18  1  1  0  0  0
 19 22  1  0  0  0  0
 19 30  1  0  0  0  0
 21 23  1  6  0  0  0
 21 29  1  0  0  0  0
 21 22  1  0  0  0  0
 23 24  1  0  0  0  0
 24 25  1  1  0  0  0
 24 26  1  0  0  0  0
 26 27  1  1  0  0  0
 26 28  1  0  0  0  0
 29 28  1  6  0  0  0
 29 31  1  0  0  0  0
 30 14  1  6  0  0  0
 30 31  1  0  0  0  0
M  CHG  1   3  -1
M  END
>  <CHROM.1>
179.87439241,-49.36251112,60.97469260,-46.81559428,-71.20106238,157.14084531
-95.52241802,28.71758554,37.89607095,20.97619630,0.54727409,-0.98766006,-2.99961704

>  <Name>
ligand

>  <RI>
0

>  <Rbt.Current_Directory>
/home/itssahil/PROJECTS/Mol_Feturizer/New_Systems/rnas/3F2Q

>  <Rbt.Executable>
rbdock ($Id: //depot/dev/client3/rdock/2013.1/src/exe/rbdock.cxx#4 $)

>  <Rbt.Library>
libRbt.so (2013.1, Build901 2013/11/27)

>  <Rbt.Parameter_File>
/export/apps/rDock/src/rDock_2013.1_src/data/scripts/dock_solv.prm

>  <Rbt.Receptor>
prm/pocket_docking_6.prm

>  <SCORE>
-27.2102

>  <SCORE.INTER>
-23.257

>  <SCORE.INTER.CONST>
1

>  <SCORE.INTER.POLAR>
0

>  <SCORE.INTER.ROT>
7

>  <SCORE.INTER.SOLV>
13.9776

>  <SCORE.INTER.VDW>
-28.4305

>  <SCORE.INTER.norm>
-0.750226

>  <SCORE.INTRA>
-3.95694

>  <SCORE.INTRA.DIHEDRAL>
-5.60785

>  <SCORE.INTRA.DIHEDRAL.0>
10.0718

>  <SCORE.INTRA.POLAR>
0

>  <SCORE.INTRA.POLAR.0>
0

>  <SCORE.INTRA.REPUL>
0

>  <SCORE.INTRA.REPUL.0>
0

>  <SCORE.INTRA.SOLV>
-1.35898

>  <SCORE.INTRA.SOLV.lig_0>
-48.6963

>  <SCORE.INTRA.VDW>
-0.473517

>  <SCORE.INTRA.VDW.0>
-0.836976

>  <SCORE.INTRA.norm>
-0.127643

>  <SCORE.RESTR>
0.00368247

>  <SCORE.RESTR.CAVITY>
0.00368247

>  <SCORE.RESTR.norm>
0.00011879

>  <SCORE.SYSTEM>
0

>  <SCORE.SYSTEM.CONST>
0

>  <SCORE.SYSTEM.DIHEDRAL>
0

>  <SCORE.SYSTEM.SOLV>
0

>  <SCORE.SYSTEM.norm>
0

>  <SCORE.heavy>
31

>  <SCORE.norm>
-0.87775

>  <RMSD>
5.348

$$$$
ligand
 OpenBabel11021811473D
libRbt.so/2013.1/901 2013/11/27
 31 33  0  0  0  0  0  0  0  0999 V2000
   29.5830   41.0822   16.4937 P   0  0  1  0  0  0  0  0  0  0  0  0
   29.8233   40.5698   15.0898 O   0  0  0  0  0  0  0  0  0  0  0  0
   30.8391   41.7699   16.9569 O   0  5  0  0  0  0  0  0  0  0  0  0
   28.4413   42.0612   16.5010 O   0  0  0  0  0  0  0  0  0  0  0  0
   30.0409   38.7820   17.6255 C   0  0  0  0  0  0  0  0  0  0  0  0
   29.1600   39.8634   17.4415 O   0  0  0  0  0  0  0  0  0  0  0  0
   29.4702   37.8491   18.6834 C   0  0  1  0  0  0  0  0  0  0  0  0
   30.0710   36.5798   18.5369 O   0  0  0  0  0  0  0  0  0  0  0  0
   29.7357   38.4067   20.0818 C   0  0  1  0  0  0  0  0  0  0  0  0
   30.9851   39.0633   20.1010 O   0  0  0  0  0  0  0  0  0  0  0  0
   28.6194   39.3216   20.6046 C   0  0  1  0  0  0  0  0  0  0  0  0
   28.4877   40.4466   19.7643 O   0  0  0  0  0  0  0  0  0  0  0  0
   27.2788   38.6110   20.6999 C   0  0  0  0  0  0  0  0  0  0  0  0
   26.8971   39.6638   23.2940 N   0  0  0  0  0  0  0  0  0  0  0  0
   26.6560   40.2208   24.5334 C   0  0  0  0  0  0  0  0  0  0  0  0
   26.5575   41.4451   24.6539 O   0  0  0  0  0  0  0  0  0  0  0  0
   26.5358   39.4013   25.6376 N   0  0  0  0  0  0  0  0  0  0  0  0
   26.6553   38.0305   25.5066 C   0  0  0  0  0  0  0  0  0  0  0  0
   26.8943   37.4700   24.2692 C   0  0  1  0  0  0  0  0  0  0  0  0
   26.5412   37.2884   26.4807 O   0  0  0  0  0  0  0  0  0  0  0  0
   27.2412   35.5328   22.9195 C   0  0  2  0  0  0  0  0  0  0  0  0
   27.0061   36.0978   24.1563 N   0  0  0  0  0  0  0  0  0  0  0  0
   27.3563   34.1497   22.8034 C   0  0  0  0  0  0  0  0  0  0  0  0
   27.6009   33.5706   21.5622 C   0  0  1  0  0  0  0  0  0  0  0  0
   27.7118   32.0749   21.4528 C   0  0  0  0  0  0  0  0  0  0  0  0
   27.7270   34.3850   20.4310 C   0  0  1  0  0  0  0  0  0  0  0  0
   27.9759   33.7893   19.0760 C   0  0  0  0  0  0  0  0  0  0  0  0
   27.6106   35.7666   20.5511 C   0  0  0  0  0  0  0  0  0  0  0  0
   27.3688   36.3503   21.7925 C   0  0  2  0  0  0  0  0  0  0  0  0
   27.0144   38.2906   23.1535 C   0  0  2  0  0  0  0  0  0  0  0  0
   27.2621   37.7305   21.9149 N   0  0  0  0  0  0  0  0  0  0  0  0
  1  2  1  6  0  0  0
  1  3  1  0  0  0  0
  1  4  2  0  0  0  0
  1  6  1  0  0  0  0
  5  6  1  0  0  0  0
  7  5  1  6  0  0  0
  7  8  1  0  0  0  0
  7  9  1  0  0  0  0
  9 10  1  6  0  0  0
  9 11  1  0  0  0  0
 11 12  1  6  0  0  0
 11 13  1  0  0  0  0
 13 31  1  0  0  0  0
 14 15  1  0  0  0  0
 15 16  2  0  0  0  0
 15 17  1  0  0  0  0
 17 18  1  0  0  0  0
 18 20  2  0  0  0  0
 19 18  1  6  0  0  0
 19 22  1  0  0  0  0
 19 30  1  0  0  0  0
 21 23  1  1  0  0  0
 21 29  1  0  0  0  0
 21 22  1  0  0  0  0
 23 24  1  0  0  0  0
 24 25  1  6  0  0  0
 24 26  1  0  0  0  0
 26 27  1  6  0  0  0
 26 28  1  0  0  0  0
 29 28  1  1  0  0  0
 29 31  1  0  0  0  0
 30 14  1  1  0  0  0
 30 31  1  0  0  0  0
M  CHG  1   3  -1
M  END
>  <CHROM.1>
173.63837980,60.39937314,159.61375228,-34.91769483,-61.75311692,77.08846736
-105.75658736,28.22383455,38.16527364,20.75126732,0.39465809,1.20587151,0.07491137

>  <Name>
ligand

>  <RI>
0

>  <Rbt.Current_Directory>
/home/itssahil/PROJECTS/Mol_Feturizer/New_Systems/rnas/3F2Q

>  <Rbt.Executable>
rbdock ($Id: //depot/dev/client3/rdock/2013.1/src/exe/rbdock.cxx#4 $)

>  <Rbt.Library>
libRbt.so (2013.1, Build901 2013/11/27)

>  <Rbt.Parameter_File>
/export/apps/rDock/src/rDock_2013.1_src/data/scripts/dock_solv.prm

>  <Rbt.Receptor>
prm/pocket_docking_6.prm

>  <SCORE>
-29.0969

>  <SCORE.INTER>
-25.9074

>  <SCORE.INTER.CONST>
1

>  <SCORE.INTER.POLAR>
0

>  <SCORE.INTER.ROT>
7

>  <SCORE.INTER.SOLV>
23.4919

>  <SCORE.INTER.VDW>
-33.3689

>  <SCORE.INTER.norm>
-0.835723

>  <SCORE.INTRA>
-3.18953

>  <SCORE.INTRA.DIHEDRAL>
-4.05551

>  <SCORE.INTRA.DIHEDRAL.0>
10.0718

>  <SCORE.INTRA.POLAR>
0

>  <SCORE.INTRA.POLAR.0>
0

>  <SCORE.INTRA.REPUL>
0

>  <SCORE.INTRA.REPUL.0>
0

>  <SCORE.INTRA.SOLV>
0.352704

>  <SCORE.INTRA.SOLV.lig_0>
-48.6963

>  <SCORE.INTRA.VDW>
-1.33813

>  <SCORE.INTRA.VDW.0>
-0.836976

>  <SCORE.INTRA.norm>
-0.102888

>  <SCORE.RESTR>
0

>  <SCORE.RESTR.CAVITY>
0

>  <SCORE.RESTR.norm>
0

>  <SCORE.SYSTEM>
0

>  <SCORE.SYSTEM.CONST>
0

>  <SCORE.SYSTEM.DIHEDRAL>
0

>  <SCORE.SYSTEM.SOLV>
0

>  <SCORE.SYSTEM.norm>
0

>  <SCORE.heavy>
31

>  <SCORE.norm>
-0.938611

>  <RMSD>
5.362

$$$$
ligand
 OpenBabel11021811473D
libRbt.so/2013.1/901 2013/11/27
 31 33  0  0  0  0  0  0  0  0999 V2000
   26.3832   32.9467   16.1262 P   0  0  1  0  0  0  0  0  0  0  0  0
   26.0622   32.0632   17.3127 O   0  0  0  0  0  0  0  0  0  0  0  0
   27.5952   32.3771   15.4394 O   0  5  0  0  0  0  0  0  0  0  0  0
   25.2252   32.9691   15.1668 O   0  0  0  0  0  0  0  0  0  0  0  0
   25.6610   35.0524   17.4776 C   0  0  0  0  0  0  0  0  0  0  0  0
   26.6057   34.4512   16.6259 O   0  0  0  0  0  0  0  0  0  0  0  0
   26.0883   36.4846   17.7634 C   0  0  1  0  0  0  0  0  0  0  0  0
   25.0086   37.1654   18.3669 O   0  0  0  0  0  0  0  0  0  0  0  0
   27.3097   36.5007   18.6825 C   0  0  1  0  0  0  0  0  0  0  0  0
   28.2903   35.6165   18.1833 O   0  0  0  0  0  0  0  0  0  0  0  0
   27.8915   37.9023   18.9129 C   0  0  1  0  0  0  0  0  0  0  0  0
   26.8483   38.8237   19.1404 O   0  0  0  0  0  0  0  0  0  0  0  0
   28.8602   37.9471   20.0839 C   0  0  0  0  0  0  0  0  0  0  0  0
   27.9308   35.5478   21.2514 N   0  0  0  0  0  0  0  0  0  0  0  0
   27.5433   34.3452   21.8066 C   0  0  0  0  0  0  0  0  0  0  0  0
   27.7376   33.2900   21.1966 O   0  0  0  0  0  0  0  0  0  0  0  0
   26.9289   34.3311   23.0425 N   0  0  0  0  0  0  0  0  0  0  0  0
   26.7016   35.5125   23.7231 C   0  0  0  0  0  0  0  0  0  0  0  0
   27.0892   36.7162   23.1724 C   0  0  1  0  0  0  0  0  0  0  0  0
   26.1634   35.5134   24.8289 O   0  0  0  0  0  0  0  0  0  0  0  0
   27.2482   39.0925   23.3232 C   0  0  2  0  0  0  0  0  0  0  0  0
   26.8583   37.8866   23.8689 N   0  0  0  0  0  0  0  0  0  0  0  0
   27.0146   40.2740   24.0227 C   0  0  0  0  0  0  0  0  0  0  0  0
   27.3970   41.4958   23.4778 C   0  0  1  0  0  0  0  0  0  0  0  0
   27.1471   42.7611   24.2512 C   0  0  0  0  0  0  0  0  0  0  0  0
   28.0204   41.5306   22.2253 C   0  0  1  0  0  0  0  0  0  0  0  0
   28.4581   42.8315   21.6178 C   0  0  0  0  0  0  0  0  0  0  0  0
   28.2525   40.3477   21.5298 C   0  0  0  0  0  0  0  0  0  0  0  0
   27.8685   39.1229   22.0706 C   0  0  2  0  0  0  0  0  0  0  0  0
   27.7101   36.7359   21.9287 C   0  0  2  0  0  0  0  0  0  0  0  0
   28.0912   37.9419   21.3725 N   0  0  0  0  0  0  0  0  0  0  0  0
  1  2  1  1  0  0  0
  1  3  1  0  0  0  0
  1  4  2  0  0  0  0
  1  6  1  0  0  0  0
  5  6  1  0  0  0  0
  7  5  1  1  0  0  0
  7  8  1  0  0  0  0
  7  9  1  0  0  0  0
  9 10  1  6  0  0  0
  9 11  1  0  0  0  0
 11 12  1  1  0  0  0
 11 13  1  0  0  0  0
 13 31  1  0  0  0  0
 14 15  1  0  0  0  0
 15 16  2  0  0  0  0
 15 17  1  0  0  0  0
 17 18  1  0  0  0  0
 18 20  2  0  0  0  0
 19 18  1  1  0  0  0
 19 22  1  0  0  0  0
 19 30  1  0  0  0  0
 21 23  1  6  0  0  0
 21 29  1  0  0  0  0
 21 22  1  0  0  0  0
 23 24  1  0  0  0  0
 24 25  1  1  0  0  0
 24 26  1  0  0  0  0
 26 27  1  1  0  0  0
 26 28  1  0  0  0  0
 29 28  1  6  0  0  0
 29 31  1  0  0  0  0
 30 14  1  6  0  0  0
 30 31  1  0  0  0  0
M  CHG  1   3  -1
M  END
>  <CHROM.1>
-178.28652535,-49.31731864,167.37492103,49.16845761,43.50075242,-76.91360749
-99.86691724,27.09866825,36.66918385,20.25657994,-2.75517107,1.44744934,1.93464269

>  <Name>
ligand

>  <RI>
0

>  <Rbt.Current_Directory>
/home/itssahil/PROJECTS/Mol_Feturizer/New_Systems/rnas/3F2Q

>  <Rbt.Executable>
rbdock ($Id: //depot/dev/client3/rdock/2013.1/src/exe/rbdock.cxx#4 $)

>  <Rbt.Library>
libRbt.so (2013.1, Build901 2013/11/27)

>  <Rbt.Parameter_File>
/export/apps/rDock/src/rDock_2013.1_src/data/scripts/dock_solv.prm

>  <Rbt.Receptor>
prm/pocket_docking_8.prm

>  <SCORE>
-28.1393

>  <SCORE.INTER>
-23.9249

>  <SCORE.INTER.CONST>
1

>  <SCORE.INTER.POLAR>
0

>  <SCORE.INTER.ROT>
7

>  <SCORE.INTER.SOLV>
11.1751

>  <SCORE.INTER.VDW>
-27.9416

>  <SCORE.INTER.norm>
-0.77177

>  <SCORE.INTRA>
-4.21439

>  <SCORE.INTRA.DIHEDRAL>
-5.46268

>  <SCORE.INTRA.DIHEDRAL.0>
10.0718

>  <SCORE.INTRA.POLAR>
0

>  <SCORE.INTRA.POLAR.0>
0

>  <SCORE.INTRA.REPUL>
0

>  <SCORE.INTRA.REPUL.0>
0

>  <SCORE.INTRA.SOLV>
-0.475702

>  <SCORE.INTRA.SOLV.lig_0>
-48.6963

>  <SCORE.INTRA.VDW>
-1.2452

>  <SCORE.INTRA.VDW.0>
-0.836976

>  <SCORE.INTRA.norm>
-0.135948

>  <SCORE.RESTR>
0

>  <SCORE.RESTR.CAVITY>
0

>  <SCORE.RESTR.norm>
0

>  <SCORE.SYSTEM>
0

>  <SCORE.SYSTEM.CONST>
0

>  <SCORE.SYSTEM.DIHEDRAL>
0

>  <SCORE.SYSTEM.SOLV>
0

>  <SCORE.SYSTEM.norm>
0

>  <SCORE.heavy>
31

>  <SCORE.norm>
-0.907719

>  <RMSD>
5.381

$$$$
ligand
 OpenBabel11021811473D
libRbt.so/2013.1/901 2013/11/27
 31 33  0  0  0  0  0  0  0  0999 V2000
   29.1742   33.1755   17.1998 P   0  0  1  0  0  0  0  0  0  0  0  0
   28.8745   32.8498   18.6474 O   0  0  0  0  0  0  0  0  0  0  0  0
   30.5611   32.6794   16.8912 O   0  5  0  0  0  0  0  0  0  0  0  0
   28.1831   32.4928   16.2978 O   0  0  0  0  0  0  0  0  0  0  0  0
   27.8249   35.3982   17.3450 C   0  0  0  0  0  0  0  0  0  0  0  0
   29.0142   34.7507   16.9632 O   0  0  0  0  0  0  0  0  0  0  0  0
   27.8623   36.8382   16.8548 C   0  0  1  0  0  0  0  0  0  0  0  0
   26.6166   37.4418   17.1330 O   0  0  0  0  0  0  0  0  0  0  0  0
   28.9918   37.6041   17.5435 C   0  0  1  0  0  0  0  0  0  0  0  0
   29.0432   38.9235   17.0443 O   0  0  0  0  0  0  0  0  0  0  0  0
   28.9013   37.5934   19.0759 C   0  0  1  0  0  0  0  0  0  0  0  0
   30.0218   38.2485   19.6275 O   0  0  0  0  0  0  0  0  0  0  0  0
   27.6333   38.2557   19.5905 C   0  0  0  0  0  0  0  0  0  0  0  0
   27.1673   35.8022   20.9120 N   0  0  0  0  0  0  0  0  0  0  0  0
   26.9873   34.5715   21.5099 C   0  0  0  0  0  0  0  0  0  0  0  0
   26.7620   33.5740   20.8188 O   0  0  0  0  0  0  0  0  0  0  0  0
   27.0510   34.4652   22.8846 N   0  0  0  0  0  0  0  0  0  0  0  0
   27.2936   35.5826   23.6611 C   0  0  0  0  0  0  0  0  0  0  0  0
   27.4759   36.8141   23.0672 C   0  0  1  0  0  0  0  0  0  0  0  0
   27.3618   35.5004   24.8863 O   0  0  0  0  0  0  0  0  0  0  0  0
   27.9091   39.1522   23.2680 C   0  0  2  0  0  0  0  0  0  0  0  0
   27.7222   37.9192   23.8586 N   0  0  0  0  0  0  0  0  0  0  0  0
   28.1555   40.2683   24.0640 C   0  0  0  0  0  0  0  0  0  0  0  0
   28.3379   41.5173   23.4788 C   0  0  1  0  0  0  0  0  0  0  0  0
   28.6136   42.7100   24.3522 C   0  0  0  0  0  0  0  0  0  0  0  0
   28.2759   41.6454   22.0865 C   0  0  1  0  0  0  0  0  0  0  0  0
   28.4834   42.9764   21.4248 C   0  0  0  0  0  0  0  0  0  0  0  0
   28.0301   40.5276   21.2947 C   0  0  0  0  0  0  0  0  0  0  0  0
   27.8441   39.2760   21.8769 C   0  0  2  0  0  0  0  0  0  0  0  0
   27.4147   36.9264   21.6829 C   0  0  2  0  0  0  0  0  0  0  0  0
   27.5890   38.1610   21.0875 N   0  0  0  0  0  0  0  0  0  0  0  0
  1  2  1  1  0  0  0
  1  3  1  0  0  0  0
  1  4  2  0  0  0  0
  1  6  1  0  0  0  0
  5  6  1  0  0  0  0
  7  5  1  1  0  0  0
  7  8  1  0  0  0  0
  7  9  1  0  0  0  0
  9 10  1  6  0  0  0
  9 11  1  0  0  0  0
 11 12  1  1  0  0  0
 11 13  1  0  0  0  0
 13 31  1  0  0  0  0
 14 15  1  0  0  0  0
 15 16  2  0  0  0  0
 15 17  1  0  0  0  0
 17 18  1  0  0  0  0
 18 20  2  0  0  0  0
 19 18  1  6  0  0  0
 19 22  1  0  0  0  0
 19 30  1  0  0  0  0
 21 23  1  1  0  0  0
 21 29  1  0  0  0  0
 21 22  1  0  0  0  0
 23 24  1  0  0  0  0
 24 25  1  6  0  0  0
 24 26  1  0  0  0  0
 26 27  1  6  0  0  0
 26 28  1  0  0  0  0
 29 28  1  1  0  0  0
 29 31  1  0  0  0  0
 30 14  1  1  0  0  0
 30 31  1  0  0  0  0
M  CHG  1   3  -1
M  END
>  <CHROM.1>
-172.92204851,-52.89594427,174.61830630,177.95325768,176.37283518,177.83974536
105.59520912,28.17218400,36.94124211,20.26713887,-1.25472120,1.34059049,0.39490994

>  <Name>
ligand

>  <RI>
0

>  <Rbt.Current_Directory>
/home/itssahil/PROJECTS/Mol_Feturizer/New_Systems/rnas/3F2Q

>  <Rbt.Executable>
rbdock ($Id: //depot/dev/client3/rdock/2013.1/src/exe/rbdock.cxx#4 $)

>  <Rbt.Library>
libRbt.so (2013.1, Build901 2013/11/27)

>  <Rbt.Parameter_File>
/export/apps/rDock/src/rDock_2013.1_src/data/scripts/dock_solv.prm

>  <Rbt.Receptor>
prm/pocket_docking_7.prm

>  <SCORE>
-25.3361

>  <SCORE.INTER>
-19.5815

>  <SCORE.INTER.CONST>
1

>  <SCORE.INTER.POLAR>
0

>  <SCORE.INTER.ROT>
7

>  <SCORE.INTER.SOLV>
12.777

>  <SCORE.INTER.VDW>
-25.58

>  <SCORE.INTER.norm>
-0.631662

>  <SCORE.INTRA>
-5.75457

>  <SCORE.INTRA.DIHEDRAL>
-8.3217

>  <SCORE.INTRA.DIHEDRAL.0>
10.0718

>  <SCORE.INTRA.POLAR>
0

>  <SCORE.INTRA.POLAR.0>
0

>  <SCORE.INTRA.REPUL>
0

>  <SCORE.INTRA.REPUL.0>
0

>  <SCORE.INTRA.SOLV>
-1.11081

>  <SCORE.INTRA.SOLV.lig_0>
-48.6963

>  <SCORE.INTRA.VDW>
-1.03832

>  <SCORE.INTRA.VDW.0>
-0.836976

>  <SCORE.INTRA.norm>
-0.185631

>  <SCORE.RESTR>
0

>  <SCORE.RESTR.CAVITY>
0

>  <SCORE.RESTR.norm>
0

>  <SCORE.SYSTEM>
0

>  <SCORE.SYSTEM.CONST>
0

>  <SCORE.SYSTEM.DIHEDRAL>
0

>  <SCORE.SYSTEM.SOLV>
0

>  <SCORE.SYSTEM.norm>
0

>  <SCORE.heavy>
31

>  <SCORE.norm>
-0.817293

>  <RMSD>
5.440

$$$$
ligand
 OpenBabel11021811473D
libRbt.so/2013.1/901 2013/11/27
 31 33  0  0  0  0  0  0  0  0999 V2000
   32.2078   34.6165   15.3408 P   0  0  1  0  0  0  0  0  0  0  0  0
   31.7319   33.2672   15.8354 O   0  0  0  0  0  0  0  0  0  0  0  0
   33.7122   34.5919   15.3043 O   0  5  0  0  0  0  0  0  0  0  0  0
   31.6752   34.8808   13.9594 O   0  0  0  0  0  0  0  0  0  0  0  0
   30.2462   35.8553   16.5237 C   0  0  0  0  0  0  0  0  0  0  0  0
   31.6312   35.7673   16.2926 O   0  0  0  0  0  0  0  0  0  0  0  0
   29.9800   36.9545   17.5416 C   0  0  1  0  0  0  0  0  0  0  0  0
   30.3001   38.1987   16.9561 O   0  0  0  0  0  0  0  0  0  0  0  0
   28.5148   36.9311   17.9770 C   0  0  1  0  0  0  0  0  0  0  0  0
   28.1959   35.6594   18.5001 O   0  0  0  0  0  0  0  0  0  0  0  0
   28.1455   38.0465   18.9649 C   0  0  1  0  0  0  0  0  0  0  0  0
   26.7975   37.9133   19.3573 O   0  0  0  0  0  0  0  0  0  0  0  0
   29.0276   38.0451   20.2033 C   0  0  0  0  0  0  0  0  0  0  0  0
   28.0583   35.5984   21.2317 N   0  0  0  0  0  0  0  0  0  0  0  0
   27.6527   34.3742   21.7230 C   0  0  0  0  0  0  0  0  0  0  0  0
   27.9086   33.3406   21.0989 O   0  0  0  0  0  0  0  0  0  0  0  0
   26.9514   34.3142   22.9103 N   0  0  0  0  0  0  0  0  0  0  0  0
   26.6554   35.4713   23.6060 C   0  0  0  0  0  0  0  0  0  0  0  0
   27.0608   36.6966   23.1192 C   0  0  1  0  0  0  0  0  0  0  0  0
   26.0392   35.4313   24.6696 O   0  0  0  0  0  0  0  0  0  0  0  0
   27.1675   39.0695   23.3487 C   0  0  2  0  0  0  0  0  0  0  0  0
   26.7603   37.8421   23.8303 N   0  0  0  0  0  0  0  0  0  0  0  0
   26.8639   40.2261   24.0628 C   0  0  0  0  0  0  0  0  0  0  0  0
   27.2633   41.4691   23.5820 C   0  0  1  0  0  0  0  0  0  0  0  0
   26.9366   42.7070   24.3709 C   0  0  0  0  0  0  0  0  0  0  0  0
   27.9744   41.5505   22.3794 C   0  0  1  0  0  0  0  0  0  0  0  0
   28.4321   42.8752   21.8424 C   0  0  0  0  0  0  0  0  0  0  0  0
   28.2763   40.3923   21.6691 C   0  0  0  0  0  0  0  0  0  0  0  0
   27.8756   39.1463   22.1456 C   0  0  2  0  0  0  0  0  0  0  0  0
   27.7690   36.7625   21.9248 C   0  0  2  0  0  0  0  0  0  0  0  0
   28.1682   37.9901   21.4322 N   0  0  0  0  0  0  0  0  0  0  0  0
  1  2  1  1  0  0  0
  1  3  1  0  0  0  0
  1  4  2  0  0  0  0
  1  6  1  0  0  0  0
  5  6  1  0  0  0  0
  7  5  1  6  0  0  0
  7  8  1  0  0  0  0
  7  9  1  0  0  0  0
  9 10  1  1  0  0  0
  9 11  1  0  0  0  0
 11 12  1  1  0  0  0
 11 13  1  0  0  0  0
 13 31  1  0  0  0  0
 14 15  1  0  0  0  0
 15 16  2  0  0  0  0
 15 17  1  0  0  0  0
 17 18  1  0  0  0  0
 18 20  2  0  0  0  0
 19 18  1  1  0  0  0
 19 22  1  0  0  0  0
 19 30  1  0  0  0  0
 21 23  1  6  0  0  0
 21 29  1  0  0  0  0
 21 22  1  0  0  0  0
 23 24  1  0  0  0  0
 24 25  1  1  0  0  0
 24 26  1  0  0  0  0
 26 27  1  1  0  0  0
 26 28  1  0  0  0  0
 29 28  1  6  0  0  0
 29 31  1  0  0  0  0
 30 14  1  6  0  0  0
 30 31  1  0  0  0  0
M  CHG  1   3  -1
M  END
>  <CHROM.1>
175.51295462,-54.66844120,67.62934951,57.08599350,-177.37769945,-125.85903319
-98.82315635,28.80923771,37.08552473,20.01274049,-0.55261614,1.00558322,0.10465097

>  <Name>
ligand

>  <RI>
0

>  <Rbt.Current_Directory>
/home/itssahil/PROJECTS/Mol_Feturizer/New_Systems/rnas/3F2Q

>  <Rbt.Executable>
rbdock ($Id: //depot/dev/client3/rdock/2013.1/src/exe/rbdock.cxx#4 $)

>  <Rbt.Library>
libRbt.so (2013.1, Build901 2013/11/27)

>  <Rbt.Parameter_File>
/export/apps/rDock/src/rDock_2013.1_src/data/scripts/dock_solv.prm

>  <Rbt.Receptor>
prm/blind_docking_60.prm

>  <SCORE>
-25.6593

>  <SCORE.INTER>
-22.754

>  <SCORE.INTER.CONST>
1

>  <SCORE.INTER.POLAR>
0

>  <SCORE.INTER.ROT>
7

>  <SCORE.INTER.SOLV>
12.7045

>  <SCORE.INTER.VDW>
-27.6709

>  <SCORE.INTER.norm>
-0.734001

>  <SCORE.INTRA>
-2.90527

>  <SCORE.INTRA.DIHEDRAL>
-3.03366

>  <SCORE.INTRA.DIHEDRAL.0>
10.0718

>  <SCORE.INTRA.POLAR>
0

>  <SCORE.INTRA.POLAR.0>
0

>  <SCORE.INTRA.REPUL>
0

>  <SCORE.INTRA.REPUL.0>
0

>  <SCORE.INTRA.SOLV>
-1.03426

>  <SCORE.INTRA.SOLV.lig_0>
-48.6963

>  <SCORE.INTRA.VDW>
-0.871312

>  <SCORE.INTRA.VDW.0>
-0.836976

>  <SCORE.INTRA.norm>
-0.0937185

>  <SCORE.RESTR>
0

>  <SCORE.RESTR.CAVITY>
0

>  <SCORE.RESTR.norm>
0

>  <SCORE.SYSTEM>
0

>  <SCORE.SYSTEM.CONST>
0

>  <SCORE.SYSTEM.DIHEDRAL>
0

>  <SCORE.SYSTEM.SOLV>
0

>  <SCORE.SYSTEM.norm>
0

>  <SCORE.heavy>
31

>  <SCORE.norm>
-0.82772

>  <RMSD>
5.460

$$$$
ligand
 OpenBabel11021811473D
libRbt.so/2013.1/901 2013/11/27
 31 33  0  0  0  0  0  0  0  0999 V2000
   29.4051   34.4861   13.4316 P   0  0  1  0  0  0  0  0  0  0  0  0
   28.9971   35.4952   12.3795 O   0  0  0  0  0  0  0  0  0  0  0  0
   28.7279   33.1814   13.1088 O   0  5  0  0  0  0  0  0  0  0  0  0
   30.8969   34.2957   13.4178 O   0  0  0  0  0  0  0  0  0  0  0  0
   29.2995   34.2703   16.0246 C   0  0  0  0  0  0  0  0  0  0  0  0
   29.0178   35.0415   14.8821 O   0  0  0  0  0  0  0  0  0  0  0  0
   28.7635   34.9880   17.2547 C   0  0  1  0  0  0  0  0  0  0  0  0
   28.8575   34.1169   18.3618 O   0  0  0  0  0  0  0  0  0  0  0  0
   29.5606   36.2665   17.5126 C   0  0  1  0  0  0  0  0  0  0  0  0
   29.2958   37.2045   16.4915 O   0  0  0  0  0  0  0  0  0  0  0  0
   29.3207   36.8750   18.9014 C   0  0  1  0  0  0  0  0  0  0  0  0
   30.1564   37.9960   19.0852 O   0  0  0  0  0  0  0  0  0  0  0  0
   27.8741   37.2916   19.1142 C   0  0  0  0  0  0  0  0  0  0  0  0
   27.5298   35.1597   20.9363 N   0  0  0  0  0  0  0  0  0  0  0  0
   27.4192   34.0838   21.7934 C   0  0  0  0  0  0  0  0  0  0  0  0
   27.4177   32.9333   21.3466 O   0  0  0  0  0  0  0  0  0  0  0  0
   27.3004   34.3027   23.1510 N   0  0  0  0  0  0  0  0  0  0  0  0
   27.2921   35.5906   23.6528 C   0  0  0  0  0  0  0  0  0  0  0  0
   27.4045   36.6685   22.7995 C   0  0  1  0  0  0  0  0  0  0  0  0
   27.1960   35.7995   24.8610 O   0  0  0  0  0  0  0  0  0  0  0  0
   27.5154   39.0292   22.4691 C   0  0  2  0  0  0  0  0  0  0  0  0
   27.3992   37.9484   23.3190 N   0  0  0  0  0  0  0  0  0  0  0  0
   27.5082   40.3208   22.9904 C   0  0  0  0  0  0  0  0  0  0  0  0
   27.6172   41.4176   22.1413 C   0  0  1  0  0  0  0  0  0  0  0  0
   27.6186   42.8049   22.7216 C   0  0  0  0  0  0  0  0  0  0  0  0
   27.7375   41.2159   20.7616 C   0  0  1  0  0  0  0  0  0  0  0  0
   27.8719   42.3780   19.8214 C   0  0  0  0  0  0  0  0  0  0  0  0
   27.7448   39.9237   20.2448 C   0  0  0  0  0  0  0  0  0  0  0  0
   27.6330   38.8232   21.0913 C   0  0  2  0  0  0  0  0  0  0  0  0
   27.5263   36.4535   21.4315 C   0  0  2  0  0  0  0  0  0  0  0  0
   27.6305   37.5328   20.5752 N   0  0  0  0  0  0  0  0  0  0  0  0
  1  2  1  6  0  0  0
  1  3  1  0  0  0  0
  1  4  2  0  0  0  0
  1  6  1  0  0  0  0
  5  6  1  0  0  0  0
  7  5  1  6  0  0  0
  7  8  1  0  0  0  0
  7  9  1  0  0  0  0
  9 10  1  6  0  0  0
  9 11  1  0  0  0  0
 11 12  1  6  0  0  0
 11 13  1  0  0  0  0
 13 31  1  0  0  0  0
 14 15  1  0  0  0  0
 15 16  2  0  0  0  0
 15 17  1  0  0  0  0
 17 18  1  0  0  0  0
 18 20  2  0  0  0  0
 19 18  1  1  0  0  0
 19 22  1  0  0  0  0
 19 30  1  0  0  0  0
 21 23  1  6  0  0  0
 21 29  1  0  0  0  0
 21 22  1  0  0  0  0
 23 24  1  0  0  0  0
 24 25  1  1  0  0  0
 24 26  1  0  0  0  0
 26 27  1  1  0  0  0
 26 28  1  0  0  0  0
 29 28  1  6  0  0  0
 29 31  1  0  0  0  0
 30 14  1  6  0  0  0
 30 31  1  0  0  0  0
M  CHG  1   3  -1
M  END
>  <CHROM.1>
-176.85696315,179.87669102,170.74580277,68.62669760,176.21454874,165.22743131
99.50378590,28.33802588,36.70417984,19.13367680,-0.54835173,1.33725789,0.09130322

>  <Name>
ligand

>  <RI>
0

>  <Rbt.Current_Directory>
/home/itssahil/PROJECTS/Mol_Feturizer/New_Systems/rnas/3F2Q

>  <Rbt.Executable>
rbdock ($Id: //depot/dev/client3/rdock/2013.1/src/exe/rbdock.cxx#4 $)

>  <Rbt.Library>
libRbt.so (2013.1, Build901 2013/11/27)

>  <Rbt.Parameter_File>
/export/apps/rDock/src/rDock_2013.1_src/data/scripts/dock_solv.prm

>  <Rbt.Receptor>
prm/pocket_docking_8.prm

>  <SCORE>
-24.9171

>  <SCORE.INTER>
-19.2842

>  <SCORE.INTER.CONST>
1

>  <SCORE.INTER.POLAR>
0

>  <SCORE.INTER.ROT>
7

>  <SCORE.INTER.SOLV>
8.79504

>  <SCORE.INTER.VDW>
-24.0545

>  <SCORE.INTER.norm>
-0.62207

>  <SCORE.INTRA>
-5.63294

>  <SCORE.INTRA.DIHEDRAL>
-7.43619

>  <SCORE.INTRA.DIHEDRAL.0>
10.0718

>  <SCORE.INTRA.POLAR>
0

>  <SCORE.INTRA.POLAR.0>
0

>  <SCORE.INTRA.REPUL>
0

>  <SCORE.INTRA.REPUL.0>
0

>  <SCORE.INTRA.SOLV>
-0.406186

>  <SCORE.INTRA.SOLV.lig_0>
-48.6963

>  <SCORE.INTRA.VDW>
-1.71175

>  <SCORE.INTRA.VDW.0>
-0.836976

>  <SCORE.INTRA.norm>
-0.181708

>  <SCORE.RESTR>
0

>  <SCORE.RESTR.CAVITY>
0

>  <SCORE.RESTR.norm>
0

>  <SCORE.SYSTEM>
0

>  <SCORE.SYSTEM.CONST>
0

>  <SCORE.SYSTEM.DIHEDRAL>
0

>  <SCORE.SYSTEM.SOLV>
0

>  <SCORE.SYSTEM.norm>
0

>  <SCORE.heavy>
31

>  <SCORE.norm>
-0.803778

>  <RMSD>
5.483

$$$$
ligand
 OpenBabel11021811473D
libRbt.so/2013.1/901 2013/11/27
 31 33  0  0  0  0  0  0  0  0999 V2000
   25.0056   33.4178   17.3863 P   0  0  1  0  0  0  0  0  0  0  0  0
   24.1158   34.6424   17.3770 O   0  0  0  0  0  0  0  0  0  0  0  0
   24.8095   32.7131   18.7017 O   0  5  0  0  0  0  0  0  0  0  0  0
   24.6303   32.4945   16.2600 O   0  0  0  0  0  0  0  0  0  0  0  0
   27.1441   34.7557   18.0330 C   0  0  0  0  0  0  0  0  0  0  0  0
   26.5246   33.8601   17.1423 O   0  0  0  0  0  0  0  0  0  0  0  0
   28.5598   35.0377   17.5516 C   0  0  1  0  0  0  0  0  0  0  0  0
   28.4888   35.7630   16.3423 O   0  0  0  0  0  0  0  0  0  0  0  0
   29.3304   35.8324   18.6058 C   0  0  1  0  0  0  0  0  0  0  0  0
   30.7166   35.7217   18.3634 O   0  0  0  0  0  0  0  0  0  0  0  0
   28.9003   37.3023   18.7086 C   0  0  1  0  0  0  0  0  0  0  0  0
   28.9972   37.9204   17.4447 O   0  0  0  0  0  0  0  0  0  0  0  0
   27.4821   37.4603   19.2333 C   0  0  0  0  0  0  0  0  0  0  0  0
   27.3808   35.2709   21.0164 N   0  0  0  0  0  0  0  0  0  0  0  0
   27.3804   34.1662   21.8435 C   0  0  0  0  0  0  0  0  0  0  0  0
   27.2501   33.0353   21.3667 O   0  0  0  0  0  0  0  0  0  0  0  0
   27.5168   34.3348   23.2067 N   0  0  0  0  0  0  0  0  0  0  0  0
   27.6533   35.6010   23.7438 C   0  0  0  0  0  0  0  0  0  0  0  0
   27.6561   36.7074   22.9202 C   0  0  1  0  0  0  0  0  0  0  0  0
   27.7847   35.7647   24.9555 O   0  0  0  0  0  0  0  0  0  0  0  0
   27.8057   39.0741   22.6530 C   0  0  2  0  0  0  0  0  0  0  0  0
   27.7984   37.9650   23.4739 N   0  0  0  0  0  0  0  0  0  0  0  0
   27.9469   40.3432   23.2092 C   0  0  0  0  0  0  0  0  0  0  0  0
   27.9479   41.4685   22.3909 C   0  0  1  0  0  0  0  0  0  0  0  0
   28.1122   42.8305   23.0068 C   0  0  0  0  0  0  0  0  0  0  0  0
   27.8098   41.3180   21.0064 C   0  0  1  0  0  0  0  0  0  0  0  0
   27.8222   42.5112   20.0961 C   0  0  0  0  0  0  0  0  0  0  0  0
   27.6695   40.0481   20.4545 C   0  0  0  0  0  0  0  0  0  0  0  0
   27.6650   38.9193   21.2706 C   0  0  2  0  0  0  0  0  0  0  0  0
   27.5210   36.5432   21.5464 C   0  0  2  0  0  0  0  0  0  0  0  0
   27.5153   37.6515   20.7213 N   0  0  0  0  0  0  0  0  0  0  0  0
  1  2  1  6  0  0  0
  1  3  1  0  0  0  0
  1  4  2  0  0  0  0
  1  6  1  0  0  0  0
  5  6  1  0  0  0  0
  7  5  1  1  0  0  0
  7  8  1  0  0  0  0
  7  9  1  0  0  0  0
  9 10  1  6  0  0  0
  9 11  1  0  0  0  0
 11 12  1  6  0  0  0
 11 13  1  0  0  0  0
 13 31  1  0  0  0  0
 14 15  1  0  0  0  0
 15 16  2  0  0  0  0
 15 17  1  0  0  0  0
 17 18  1  0  0  0  0
 18 20  2  0  0  0  0
 19 18  1  6  0  0  0
 19 22  1  0  0  0  0
 19 30  1  0  0  0  0
 21 23  1  1  0  0  0
 21 29  1  0  0  0  0
 21 22  1  0  0  0  0
 23 24  1  0  0  0  0
 24 25  1  6  0  0  0
 24 26  1  0  0  0  0
 26 27  1  6  0  0  0
 26 28  1  0  0  0  0
 29 28  1  1  0  0  0
 29 31  1  0  0  0  0
 30 14  1  1  0  0  0
 30 31  1  0  0  0  0
M  CHG  1   3  -1
M  END
>  <CHROM.1>
-178.36378215,59.26762255,67.55060721,161.32464234,-55.07482171,93.53372783
87.15482243,27.38430407,36.53576715,20.08560616,-2.64667046,1.29407914,1.67362130

>  <Name>
ligand

>  <RI>
0

>  <Rbt.Current_Directory>
/home/itssahil/PROJECTS/Mol_Feturizer/New_Systems/rnas/3F2Q

>  <Rbt.Executable>
rbdock ($Id: //depot/dev/client3/rdock/2013.1/src/exe/rbdock.cxx#4 $)

>  <Rbt.Library>
libRbt.so (2013.1, Build901 2013/11/27)

>  <Rbt.Parameter_File>
/export/apps/rDock/src/rDock_2013.1_src/data/scripts/dock_solv.prm

>  <Rbt.Receptor>
prm/blind_docking_60.prm

>  <SCORE>
-22.3614

>  <SCORE.INTER>
-19.0949

>  <SCORE.INTER.CONST>
1

>  <SCORE.INTER.POLAR>
0

>  <SCORE.INTER.ROT>
7

>  <SCORE.INTER.SOLV>
10.9258

>  <SCORE.INTER.VDW>
-24.6385

>  <SCORE.INTER.norm>
-0.615964

>  <SCORE.INTRA>
-3.26645

>  <SCORE.INTRA.DIHEDRAL>
-4.38656

>  <SCORE.INTRA.DIHEDRAL.0>
10.0718

>  <SCORE.INTRA.POLAR>
0

>  <SCORE.INTRA.POLAR.0>
0

>  <SCORE.INTRA.REPUL>
0

>  <SCORE.INTRA.REPUL.0>
0

>  <SCORE.INTRA.SOLV>
-0.643924

>  <SCORE.INTRA.SOLV.lig_0>
-48.6963

>  <SCORE.INTRA.VDW>
-0.751211

>  <SCORE.INTRA.VDW.0>
-0.836976

>  <SCORE.INTRA.norm>
-0.10537

>  <SCORE.RESTR>
0

>  <SCORE.RESTR.CAVITY>
0

>  <SCORE.RESTR.norm>
0

>  <SCORE.SYSTEM>
0

>  <SCORE.SYSTEM.CONST>
0

>  <SCORE.SYSTEM.DIHEDRAL>
0

>  <SCORE.SYSTEM.SOLV>
0

>  <SCORE.SYSTEM.norm>
0

>  <SCORE.heavy>
31

>  <SCORE.norm>
-0.721334

>  <RMSD>
5.484

$$$$
ligand
 OpenBabel11021811473D
libRbt.so/2013.1/901 2013/11/27
 31 33  0  0  0  0  0  0  0  0999 V2000
   29.9071   33.6905   16.8995 P   0  0  1  0  0  0  0  0  0  0  0  0
   31.1944   32.8976   16.9767 O   0  0  0  0  0  0  0  0  0  0  0  0
   29.1762   33.2662   15.6542 O   0  5  0  0  0  0  0  0  0  0  0  0
   29.0520   33.4113   18.1048 O   0  0  0  0  0  0  0  0  0  0  0  0
   31.0639   35.7841   17.9292 C   0  0  0  0  0  0  0  0  0  0  0  0
   30.2427   35.2556   16.9165 O   0  0  0  0  0  0  0  0  0  0  0  0
   31.1860   37.2886   17.7372 C   0  0  1  0  0  0  0  0  0  0  0  0
   31.5830   37.5426   16.4063 O   0  0  0  0  0  0  0  0  0  0  0  0
   29.8514   37.9718   18.0353 C   0  0  1  0  0  0  0  0  0  0  0  0
   28.8427   37.4194   17.2169 O   0  0  0  0  0  0  0  0  0  0  0  0
   29.4513   37.9268   19.5166 C   0  0  1  0  0  0  0  0  0  0  0  0
   30.2430   38.8302   20.2554 O   0  0  0  0  0  0  0  0  0  0  0  0
   27.9833   38.2567   19.7350 C   0  0  0  0  0  0  0  0  0  0  0  0
   27.3089   35.8103   20.9775 N   0  0  0  0  0  0  0  0  0  0  0  0
   27.0354   34.5833   21.5468 C   0  0  0  0  0  0  0  0  0  0  0  0
   26.9544   33.5758   20.8385 O   0  0  0  0  0  0  0  0  0  0  0  0
   26.8438   34.4918   22.9107 N   0  0  0  0  0  0  0  0  0  0  0  0
   26.9246   35.6202   23.7048 C   0  0  0  0  0  0  0  0  0  0  0  0
   27.1996   36.8480   23.1397 C   0  0  1  0  0  0  0  0  0  0  0  0
   26.7650   35.5513   24.9222 O   0  0  0  0  0  0  0  0  0  0  0  0
   27.5602   39.1939   23.3882 C   0  0  2  0  0  0  0  0  0  0  0  0
   27.2814   37.9644   23.9492 N   0  0  0  0  0  0  0  0  0  0  0  0
   27.6412   40.3212   24.2021 C   0  0  0  0  0  0  0  0  0  0  0  0
   27.9143   41.5667   23.6454 C   0  0  1  0  0  0  0  0  0  0  0  0
   28.0088   42.7719   24.5399 C   0  0  0  0  0  0  0  0  0  0  0  0
   28.1106   41.6799   22.2644 C   0  0  1  0  0  0  0  0  0  0  0  0
   28.4217   43.0070   21.6361 C   0  0  0  0  0  0  0  0  0  0  0  0
   28.0295   40.5509   21.4547 C   0  0  0  0  0  0  0  0  0  0  0  0
   27.7533   39.3027   22.0078 C   0  0  2  0  0  0  0  0  0  0  0  0
   27.3954   36.9455   21.7668 C   0  0  2  0  0  0  0  0  0  0  0  0
   27.6626   38.1764   21.1988 N   0  0  0  0  0  0  0  0  0  0  0  0
  1  2  1  1  0  0  0
  1  3  1  0  0  0  0
  1  4  2  0  0  0  0
  1  6  1  0  0  0  0
  5  6  1  0  0  0  0
  7  5  1  6  0  0  0
  7  8  1  0  0  0  0
  7  9  1  0  0  0  0
  9 10  1  6  0  0  0
  9 11  1  0  0  0  0
 11 12  1  1  0  0  0
 11 13  1  0  0  0  0
 13 31  1  0  0  0  0
 14 15  1  0  0  0  0
 15 16  2  0  0  0  0
 15 17  1  0  0  0  0
 17 18  1  0  0  0  0
 18 20  2  0  0  0  0
 19 18  1  1  0  0  0
 19 22  1  0  0  0  0
 19 30  1  0  0  0  0
 21 23  1  6  0  0  0
 21 29  1  0  0  0  0
 21 22  1  0  0  0  0
 23 24  1  0  0  0  0
 24 25  1  1  0  0  0
 24 26  1  0  0  0  0
 26 27  1  1  0  0  0
 26 28  1  0  0  0  0
 29 28  1  6  0  0  0
 29 31  1  0  0  0  0
 30 14  1  6  0  0  0
 30 31  1  0  0  0  0
M  CHG  1   3  -1
M  END
>  <CHROM.1>
-178.26439154,-52.14232121,-51.98244205,-56.48445823,73.89417196,179.29554922
91.80406857,28.65062703,37.08332818,20.33840742,1.01926837,-1.03814371,-2.79996457

>  <Name>
ligand

>  <RI>
0

>  <Rbt.Current_Directory>
/home/itssahil/PROJECTS/Mol_Feturizer/New_Systems/rnas/3F2Q

>  <Rbt.Executable>
rbdock ($Id: //depot/dev/client3/rdock/2013.1/src/exe/rbdock.cxx#4 $)

>  <Rbt.Library>
libRbt.so (2013.1, Build901 2013/11/27)

>  <Rbt.Parameter_File>
/export/apps/rDock/src/rDock_2013.1_src/data/scripts/dock_solv.prm

>  <Rbt.Receptor>
prm/pocket_docking_5.prm

>  <SCORE>
-26.4291

>  <SCORE.INTER>
-21.3907

>  <SCORE.INTER.CONST>
1

>  <SCORE.INTER.POLAR>
0

>  <SCORE.INTER.ROT>
7

>  <SCORE.INTER.SOLV>
11.7928

>  <SCORE.INTER.VDW>
-26.4581

>  <SCORE.INTER.norm>
-0.690022

>  <SCORE.INTRA>
-5.03841

>  <SCORE.INTRA.DIHEDRAL>
-7.89018

>  <SCORE.INTRA.DIHEDRAL.0>
10.0718

>  <SCORE.INTRA.POLAR>
0

>  <SCORE.INTRA.POLAR.0>
0

>  <SCORE.INTRA.REPUL>
0

>  <SCORE.INTRA.REPUL.0>
0

>  <SCORE.INTRA.SOLV>
-0.204926

>  <SCORE.INTRA.SOLV.lig_0>
-48.6963

>  <SCORE.INTRA.VDW>
-0.990853

>  <SCORE.INTRA.VDW.0>
-0.836976

>  <SCORE.INTRA.norm>
-0.162529

>  <SCORE.RESTR>
0

>  <SCORE.RESTR.CAVITY>
0

>  <SCORE.RESTR.norm>
0

>  <SCORE.SYSTEM>
0

>  <SCORE.SYSTEM.CONST>
0

>  <SCORE.SYSTEM.DIHEDRAL>
0

>  <SCORE.SYSTEM.SOLV>
0

>  <SCORE.SYSTEM.norm>
0

>  <SCORE.heavy>
31

>  <SCORE.norm>
-0.852551

>  <RMSD>
5.492

$$$$
ligand
 OpenBabel11021811473D
libRbt.so/2013.1/901 2013/11/27
 31 33  0  0  0  0  0  0  0  0999 V2000
   32.3026   34.5699   15.1581 P   0  0  1  0  0  0  0  0  0  0  0  0
   33.7064   34.5158   15.7221 O   0  0  0  0  0  0  0  0  0  0  0  0
   32.4026   34.9377   13.7021 O   0  5  0  0  0  0  0  0  0  0  0  0
   31.6363   33.2285   15.2937 O   0  0  0  0  0  0  0  0  0  0  0  0
   31.7449   36.9838   15.9604 C   0  0  0  0  0  0  0  0  0  0  0  0
   31.4289   35.6135   16.0008 O   0  0  0  0  0  0  0  0  0  0  0  0
   30.8070   37.7390   16.8907 C   0  0  1  0  0  0  0  0  0  0  0  0
   29.4804   37.5461   16.4476 O   0  0  0  0  0  0  0  0  0  0  0  0
   30.9678   37.2395   18.3264 C   0  0  1  0  0  0  0  0  0  0  0  0
   32.3241   37.3235   18.7085 O   0  0  0  0  0  0  0  0  0  0  0  0
   30.0610   37.9571   19.3359 C   0  0  1  0  0  0  0  0  0  0  0  0
   30.1532   39.3528   19.1565 O   0  0  0  0  0  0  0  0  0  0  0  0
   28.6055   37.5343   19.2167 C   0  0  0  0  0  0  0  0  0  0  0  0
   27.9989   35.1130   20.5407 N   0  0  0  0  0  0  0  0  0  0  0  0
   27.7695   33.9046   21.1664 C   0  0  0  0  0  0  0  0  0  0  0  0
   27.9863   32.8466   20.5690 O   0  0  0  0  0  0  0  0  0  0  0  0
   27.2873   33.8868   22.4596 N   0  0  0  0  0  0  0  0  0  0  0  0
   27.0347   35.0704   23.1272 C   0  0  0  0  0  0  0  0  0  0  0  0
   27.2646   36.2803   22.5059 C   0  0  1  0  0  0  0  0  0  0  0  0
   26.6136   35.0690   24.2827 O   0  0  0  0  0  0  0  0  0  0  0  0
   27.2434   38.6656   22.5735 C   0  0  2  0  0  0  0  0  0  0  0  0
   27.0110   37.4532   23.1901 N   0  0  0  0  0  0  0  0  0  0  0  0
   26.9866   39.8496   23.2605 C   0  0  0  0  0  0  0  0  0  0  0  0
   27.2104   41.0772   22.6451 C   0  0  1  0  0  0  0  0  0  0  0  0
   26.9380   42.3460   23.4050 C   0  0  0  0  0  0  0  0  0  0  0  0
   27.6981   41.1157   21.3339 C   0  0  1  0  0  0  0  0  0  0  0  0
   27.9639   42.4241   20.6483 C   0  0  0  0  0  0  0  0  0  0  0  0
   27.9541   39.9303   20.6511 C   0  0  0  0  0  0  0  0  0  0  0  0
   27.7285   38.6994   21.2626 C   0  0  2  0  0  0  0  0  0  0  0  0
   27.7520   36.3038   21.2042 C   0  0  2  0  0  0  0  0  0  0  0  0
   27.9747   37.5152   20.5781 N   0  0  0  0  0  0  0  0  0  0  0  0
  1  2  1  1  0  0  0
  1  3  1  0  0  0  0
  1  4  2  0  0  0  0
  1  6  1  0  0  0  0
  5  6  1  0  0  0  0
  7  5  1  6  0  0  0
  7  8  1  0  0  0  0
  7  9  1  0  0  0  0
  9 10  1  1  0  0  0
  9 11  1  0  0  0  0
 11 12  1  6  0  0  0
 11 13  1  0  0  0  0
 13 31  1  0  0  0  0
 14 15  1  0  0  0  0
 15 16  2  0  0  0  0
 15 17  1  0  0  0  0
 17 18  1  0  0  0  0
 18 20  2  0  0  0  0
 19 18  1  1  0  0  0
 19 22  1  0  0  0  0
 19 30  1  0  0  0  0
 21 23  1  6  0  0  0
 21 29  1  0  0  0  0
 21 22  1  0  0  0  0
 23 24  1  0  0  0  0
 24 25  1  1  0  0  0
 24 26  1  0  0  0  0
 26 27  1  1  0  0  0
 26 28  1  0  0  0  0
 29 28  1  6  0  0  0
 29 31  1  0  0  0  0
 30 14  1  6  0  0  0
 30 31  1  0  0  0  0
M  CHG  1   3  -1
M  END
>  <CHROM.1>
-177.47741731,66.32160078,-60.58876364,54.43504321,-48.24769130,144.74583089
70.01635021,29.27359375,36.98320552,19.51442153,0.41854882,-0.96153312,-3.12871710

>  <Name>
ligand

>  <RI>
0

>  <Rbt.Current_Directory>
/home/itssahil/PROJECTS/Mol_Feturizer/New_Systems/rnas/3F2Q

>  <Rbt.Executable>
rbdock ($Id: //depot/dev/client3/rdock/2013.1/src/exe/rbdock.cxx#4 $)

>  <Rbt.Library>
libRbt.so (2013.1, Build901 2013/11/27)

>  <Rbt.Parameter_File>
/export/apps/rDock/src/rDock_2013.1_src/data/scripts/dock_solv.prm

>  <Rbt.Receptor>
prm/blind_docking_100.prm

>  <SCORE>
-26.3497

>  <SCORE.INTER>
-22.7772

>  <SCORE.INTER.CONST>
1

>  <SCORE.INTER.POLAR>
0

>  <SCORE.INTER.ROT>
7

>  <SCORE.INTER.SOLV>
12.2899

>  <SCORE.INTER.VDW>
-27.5481

>  <SCORE.INTER.norm>
-0.734748

>  <SCORE.INTRA>
-3.57251

>  <SCORE.INTRA.DIHEDRAL>
-4.83779

>  <SCORE.INTRA.DIHEDRAL.0>
10.0718

>  <SCORE.INTRA.POLAR>
0

>  <SCORE.INTRA.POLAR.0>
0

>  <SCORE.INTRA.REPUL>
0

>  <SCORE.INTRA.REPUL.0>
0

>  <SCORE.INTRA.SOLV>
-0.839918

>  <SCORE.INTRA.SOLV.lig_0>
-48.6963

>  <SCORE.INTRA.VDW>
-0.733653

>  <SCORE.INTRA.VDW.0>
-0.836976

>  <SCORE.INTRA.norm>
-0.115242

>  <SCORE.RESTR>
0

>  <SCORE.RESTR.CAVITY>
0

>  <SCORE.RESTR.norm>
0

>  <SCORE.SYSTEM>
0

>  <SCORE.SYSTEM.CONST>
0

>  <SCORE.SYSTEM.DIHEDRAL>
0

>  <SCORE.SYSTEM.SOLV>
0

>  <SCORE.SYSTEM.norm>
0

>  <SCORE.heavy>
31

>  <SCORE.norm>
-0.84999

>  <RMSD>
5.504

$$$$
ligand
 OpenBabel11021811473D
libRbt.so/2013.1/901 2013/11/27
 31 33  0  0  0  0  0  0  0  0999 V2000
   29.9418   33.6163   16.8620 P   0  0  1  0  0  0  0  0  0  0  0  0
   31.2293   32.8264   16.9625 O   0  0  0  0  0  0  0  0  0  0  0  0
   29.2205   33.1696   15.6189 O   0  5  0  0  0  0  0  0  0  0  0  0
   29.0781   33.3570   18.0656 O   0  0  0  0  0  0  0  0  0  0  0  0
   31.0685   35.7332   17.8773 C   0  0  0  0  0  0  0  0  0  0  0  0
   30.2755   35.1819   16.8543 O   0  0  0  0  0  0  0  0  0  0  0  0
   31.1779   37.2364   17.6675 C   0  0  1  0  0  0  0  0  0  0  0  0
   31.5617   37.4784   16.3306 O   0  0  0  0  0  0  0  0  0  0  0  0
   29.8408   37.9130   17.9695 C   0  0  1  0  0  0  0  0  0  0  0  0
   28.8289   37.3426   17.1675 O   0  0  0  0  0  0  0  0  0  0  0  0
   29.4547   37.8837   19.4549 C   0  0  1  0  0  0  0  0  0  0  0  0
   30.2391   38.8098   20.1732 O   0  0  0  0  0  0  0  0  0  0  0  0
   27.9838   38.1944   19.6820 C   0  0  0  0  0  0  0  0  0  0  0  0
   27.3483   35.7570   20.9620 N   0  0  0  0  0  0  0  0  0  0  0  0
   27.0939   34.5345   21.5496 C   0  0  0  0  0  0  0  0  0  0  0  0
   27.0179   33.5171   20.8551 O   0  0  0  0  0  0  0  0  0  0  0  0
   26.9156   34.4586   22.9162 N   0  0  0  0  0  0  0  0  0  0  0  0
   26.9909   35.5981   23.6949 C   0  0  0  0  0  0  0  0  0  0  0  0
   27.2469   36.8215   23.1115 C   0  0  1  0  0  0  0  0  0  0  0  0
   26.8430   35.5433   24.9146 O   0  0  0  0  0  0  0  0  0  0  0  0
   27.5832   39.1742   23.3265 C   0  0  2  0  0  0  0  0  0  0  0  0
   27.3233   37.9491   23.9058 N   0  0  0  0  0  0  0  0  0  0  0  0
   27.6587   40.3129   24.1250 C   0  0  0  0  0  0  0  0  0  0  0  0
   27.9127   41.5540   23.5498 C   0  0  1  0  0  0  0  0  0  0  0  0
   28.0017   42.7717   24.4278 C   0  0  0  0  0  0  0  0  0  0  0  0
   28.0953   41.6515   22.1657 C   0  0  1  0  0  0  0  0  0  0  0  0
   28.3856   42.9736   21.5175 C   0  0  0  0  0  0  0  0  0  0  0  0
   28.0197   40.5112   21.3714 C   0  0  0  0  0  0  0  0  0  0  0  0
   27.7626   39.2673   21.9431 C   0  0  2  0  0  0  0  0  0  0  0  0
   27.4291   36.9033   21.7358 C   0  0  2  0  0  0  0  0  0  0  0  0
   27.6773   38.1296   21.1495 N   0  0  0  0  0  0  0  0  0  0  0  0
  1  2  1  1  0  0  0
  1  3  1  0  0  0  0
  1  4  2  0  0  0  0
  1  6  1  0  0  0  0
  5  6  1  0  0  0  0
  7  5  1  6  0  0  0
  7  8  1  0  0  0  0
  7  9  1  0  0  0  0
  9 10  1  6  0  0  0
  9 11  1  0  0  0  0
 11 12  1  1  0  0  0
 11 13  1  0  0  0  0
 13 31  1  0  0  0  0
 14 15  1  0  0  0  0
 15 16  2  0  0  0  0
 15 17  1  0  0  0  0
 17 18  1  0  0  0  0
 18 20  2  0  0  0  0
 19 18  1  1  0  0  0
 19 22  1  0  0  0  0
 19 30  1  0  0  0  0
 21 23  1  6  0  0  0
 21 29  1  0  0  0  0
 21 22  1  0  0  0  0
 23 24  1  0  0  0  0
 24 25  1  1  0  0  0
 24 26  1  0  0  0  0
 26 27  1  1  0  0  0
 26 28  1  0  0  0  0
 29 28  1  6  0  0  0
 29 31  1  0  0  0  0
 30 14  1  6  0  0  0
 30 31  1  0  0  0  0
M  CHG  1   3  -1
M  END
>  <CHROM.1>
-177.44890577,-53.29926246,-50.23263129,-56.38599324,74.34261108,179.24648874
91.57609040,28.67125044,37.03811072,20.28874227,1.00233815,-1.05075193,-2.82539170

>  <Name>
ligand

>  <RI>
0

>  <Rbt.Current_Directory>
/home/itssahil/PROJECTS/Mol_Feturizer/New_Systems/rnas/3F2Q

>  <Rbt.Executable>
rbdock ($Id: //depot/dev/client3/rdock/2013.1/src/exe/rbdock.cxx#4 $)

>  <Rbt.Library>
libRbt.so (2013.1, Build901 2013/11/27)

>  <Rbt.Parameter_File>
/export/apps/rDock/src/rDock_2013.1_src/data/scripts/dock_solv.prm

>  <Rbt.Receptor>
prm/blind_docking_100.prm

>  <SCORE>
-26.4367

>  <SCORE.INTER>
-21.4471

>  <SCORE.INTER.CONST>
1

>  <SCORE.INTER.POLAR>
0

>  <SCORE.INTER.ROT>
7

>  <SCORE.INTER.SOLV>
11.7186

>  <SCORE.INTER.VDW>
-26.4709

>  <SCORE.INTER.norm>
-0.691841

>  <SCORE.INTRA>
-4.98965

>  <SCORE.INTRA.DIHEDRAL>
-7.74793

>  <SCORE.INTRA.DIHEDRAL.0>
10.0718

>  <SCORE.INTRA.POLAR>
0

>  <SCORE.INTRA.POLAR.0>
0

>  <SCORE.INTRA.REPUL>
0

>  <SCORE.INTRA.REPUL.0>
0

>  <SCORE.INTRA.SOLV>
-0.197657

>  <SCORE.INTRA.SOLV.lig_0>
-48.6963

>  <SCORE.INTRA.VDW>
-1.01686

>  <SCORE.INTRA.VDW.0>
-0.836976

>  <SCORE.INTRA.norm>
-0.160956

>  <SCORE.RESTR>
0

>  <SCORE.RESTR.CAVITY>
0

>  <SCORE.RESTR.norm>
0

>  <SCORE.SYSTEM>
0

>  <SCORE.SYSTEM.CONST>
0

>  <SCORE.SYSTEM.DIHEDRAL>
0

>  <SCORE.SYSTEM.SOLV>
0

>  <SCORE.SYSTEM.norm>
0

>  <SCORE.heavy>
31

>  <SCORE.norm>
-0.852797

>  <RMSD>
5.513

$$$$
ligand
 OpenBabel11021811473D
libRbt.so/2013.1/901 2013/11/27
 31 33  0  0  0  0  0  0  0  0999 V2000
   31.7356   34.7116   15.1977 P   0  0  1  0  0  0  0  0  0  0  0  0
   33.1118   34.9705   14.6227 O   0  0  0  0  0  0  0  0  0  0  0  0
   30.7183   35.1677   14.1866 O   0  5  0  0  0  0  0  0  0  0  0  0
   31.5533   33.2435   15.4680 O   0  0  0  0  0  0  0  0  0  0  0  0
   31.9408   36.8265   16.7033 C   0  0  0  0  0  0  0  0  0  0  0  0
   31.5933   35.4670   16.6019 O   0  0  0  0  0  0  0  0  0  0  0  0
   31.5878   37.3284   18.0957 C   0  0  1  0  0  0  0  0  0  0  0  0
   32.2647   38.5468   18.3210 O   0  0  0  0  0  0  0  0  0  0  0  0
   30.0773   37.5262   18.2215 C   0  0  1  0  0  0  0  0  0  0  0  0
   29.4086   36.3632   17.7823 O   0  0  0  0  0  0  0  0  0  0  0  0
   29.6218   37.9299   19.6307 C   0  0  1  0  0  0  0  0  0  0  0  0
   30.2208   39.1530   19.9969 O   0  0  0  0  0  0  0  0  0  0  0  0
   28.1112   38.0621   19.7405 C   0  0  0  0  0  0  0  0  0  0  0  0
   27.4050   35.6716   21.0711 N   0  0  0  0  0  0  0  0  0  0  0  0
   27.1186   34.4710   21.6883 C   0  0  0  0  0  0  0  0  0  0  0  0
   27.0930   33.4269   21.0307 O   0  0  0  0  0  0  0  0  0  0  0  0
   26.8518   34.4468   23.0423 N   0  0  0  0  0  0  0  0  0  0  0  0
   26.8705   35.6162   23.7790 C   0  0  0  0  0  0  0  0  0  0  0  0
   27.1582   36.8179   23.1660 C   0  0  1  0  0  0  0  0  0  0  0  0
   26.6435   35.6077   24.9877 O   0  0  0  0  0  0  0  0  0  0  0  0
   27.4685   39.1796   23.3101 C   0  0  2  0  0  0  0  0  0  0  0  0
   27.1772   37.9760   23.9188 N   0  0  0  0  0  0  0  0  0  0  0  0
   27.4863   40.3489   24.0665 C   0  0  0  0  0  0  0  0  0  0  0  0
   27.7714   41.5686   23.4609 C   0  0  1  0  0  0  0  0  0  0  0  0
   27.7970   42.8201   24.2944 C   0  0  0  0  0  0  0  0  0  0  0  0
   28.0436   41.6136   22.0889 C   0  0  1  0  0  0  0  0  0  0  0  0
   28.3694   42.9117   21.4096 C   0  0  0  0  0  0  0  0  0  0  0  0
   28.0255   40.4428   21.3366 C   0  0  0  0  0  0  0  0  0  0  0  0
   27.7376   39.2202   21.9387 C   0  0  2  0  0  0  0  0  0  0  0  0
   27.4296   36.8476   21.8029 C   0  0  2  0  0  0  0  0  0  0  0  0
   27.7098   38.0520   21.1864 N   0  0  0  0  0  0  0  0  0  0  0  0
  1  2  1  6  0  0  0
  1  3  1  0  0  0  0
  1  4  2  0  0  0  0
  1  6  1  0  0  0  0
  5  6  1  0  0  0  0
  7  5  1  6  0  0  0
  7  8  1  0  0  0  0
  7  9  1  0  0  0  0
  9 10  1  1  0  0  0
  9 11  1  0  0  0  0
 11 12  1  6  0  0  0
 11 13  1  0  0  0  0
 13 31  1  0  0  0  0
 14 15  1  0  0  0  0
 15 16  2  0  0  0  0
 15 17  1  0  0  0  0
 17 18  1  0  0  0  0
 18 20  2  0  0  0  0
 19 18  1  1  0  0  0
 19 22  1  0  0  0  0
 19 30  1  0  0  0  0
 21 23  1  6  0  0  0
 21 29  1  0  0  0  0
 21 22  1  0  0  0  0
 23 24  1  0  0  0  0
 24 25  1  1  0  0  0
 24 26  1  0  0  0  0
 26 27  1  1  0  0  0
 26 28  1  0  0  0  0
 29 28  1  6  0  0  0
 29 31  1  0  0  0  0
 30 14  1  6  0  0  0
 30 31  1  0  0  0  0
M  CHG  1   3  -1
M  END
>  <CHROM.1>
174.60678596,49.78636027,163.66286626,50.38877062,60.54705144,163.35945225
84.43210937,29.11732769,37.29462009,20.02546627,0.69148695,-0.95965650,-2.84314229

>  <Name>
ligand

>  <RI>
0

>  <Rbt.Current_Directory>
/home/itssahil/PROJECTS/Mol_Feturizer/New_Systems/rnas/3F2Q

>  <Rbt.Executable>
rbdock ($Id: //depot/dev/client3/rdock/2013.1/src/exe/rbdock.cxx#4 $)

>  <Rbt.Library>
libRbt.so (2013.1, Build901 2013/11/27)

>  <Rbt.Parameter_File>
/export/apps/rDock/src/rDock_2013.1_src/data/scripts/dock_solv.prm

>  <Rbt.Receptor>
prm/pocket_docking_6.prm

>  <SCORE>
-28.2067

>  <SCORE.INTER>
-23.5725

>  <SCORE.INTER.CONST>
1

>  <SCORE.INTER.POLAR>
0

>  <SCORE.INTER.ROT>
7

>  <SCORE.INTER.SOLV>
10.9888

>  <SCORE.INTER.VDW>
-27.6446

>  <SCORE.INTER.norm>
-0.760403

>  <SCORE.INTRA>
-4.63421

>  <SCORE.INTRA.DIHEDRAL>
-6.42269

>  <SCORE.INTRA.DIHEDRAL.0>
10.0718

>  <SCORE.INTRA.POLAR>
0

>  <SCORE.INTRA.POLAR.0>
0

>  <SCORE.INTRA.REPUL>
0

>  <SCORE.INTRA.REPUL.0>
0

>  <SCORE.INTRA.SOLV>
-0.720413

>  <SCORE.INTRA.SOLV.lig_0>
-48.6963

>  <SCORE.INTRA.VDW>
-1.06266

>  <SCORE.INTRA.VDW.0>
-0.836976

>  <SCORE.INTRA.norm>
-0.149491

>  <SCORE.RESTR>
0

>  <SCORE.RESTR.CAVITY>
0

>  <SCORE.RESTR.norm>
0

>  <SCORE.SYSTEM>
0

>  <SCORE.SYSTEM.CONST>
0

>  <SCORE.SYSTEM.DIHEDRAL>
0

>  <SCORE.SYSTEM.SOLV>
0

>  <SCORE.SYSTEM.norm>
0

>  <SCORE.heavy>
31

>  <SCORE.norm>
-0.909894

>  <RMSD>
5.514

$$$$
ligand
 OpenBabel11021811473D
libRbt.so/2013.1/901 2013/11/27
 31 33  0  0  0  0  0  0  0  0999 V2000
   32.3427   34.5509   15.1095 P   0  0  1  0  0  0  0  0  0  0  0  0
   32.3165   35.4116   13.8645 O   0  0  0  0  0  0  0  0  0  0  0  0
   31.7451   33.2143   14.7610 O   0  5  0  0  0  0  0  0  0  0  0  0
   33.7585   34.3618   15.5804 O   0  0  0  0  0  0  0  0  0  0  0  0
   30.2448   35.7609   16.0667 C   0  0  0  0  0  0  0  0  0  0  0  0
   31.5530   35.2929   16.2878 O   0  0  0  0  0  0  0  0  0  0  0  0
   29.6516   36.2249   17.3889 C   0  0  1  0  0  0  0  0  0  0  0  0
   29.7890   35.1854   18.3344 O   0  0  0  0  0  0  0  0  0  0  0  0
   30.3636   37.4867   17.8763 C   0  0  1  0  0  0  0  0  0  0  0  0
   30.1314   38.5426   16.9687 O   0  0  0  0  0  0  0  0  0  0  0  0
   29.9898   37.8934   19.3085 C   0  0  1  0  0  0  0  0  0  0  0  0
   30.7560   39.0086   19.7064 O   0  0  0  0  0  0  0  0  0  0  0  0
   28.5133   38.2253   19.4547 C   0  0  0  0  0  0  0  0  0  0  0  0
   27.9031   35.6920   20.5473 N   0  0  0  0  0  0  0  0  0  0  0  0
   27.6651   34.4275   21.0461 C   0  0  0  0  0  0  0  0  0  0  0  0
   27.6909   33.4496   20.2935 O   0  0  0  0  0  0  0  0  0  0  0  0
   27.3888   34.2647   22.3886 N   0  0  0  0  0  0  0  0  0  0  0  0
   27.3499   35.3595   23.2315 C   0  0  0  0  0  0  0  0  0  0  0  0
   27.5891   36.6247   22.7371 C   0  0  1  0  0  0  0  0  0  0  0  0
   27.1139   35.2276   24.4313 O   0  0  0  0  0  0  0  0  0  0  0  0
   27.7934   38.9737   23.1050 C   0  0  2  0  0  0  0  0  0  0  0  0
   27.5508   37.7068   23.5950 N   0  0  0  0  0  0  0  0  0  0  0  0
   27.7534   40.0664   23.9677 C   0  0  0  0  0  0  0  0  0  0  0  0
   27.9891   41.3489   23.4822 C   0  0  1  0  0  0  0  0  0  0  0  0
   27.9526   42.5164   24.4293 C   0  0  0  0  0  0  0  0  0  0  0  0
   28.2700   41.5342   22.1238 C   0  0  1  0  0  0  0  0  0  0  0  0
   28.5434   42.9033   21.5729 C   0  0  0  0  0  0  0  0  0  0  0  0
   28.3097   40.4396   21.2652 C   0  0  0  0  0  0  0  0  0  0  0  0
   28.0713   39.1546   21.7468 C   0  0  2  0  0  0  0  0  0  0  0  0
   27.8697   36.7941   21.3861 C   0  0  2  0  0  0  0  0  0  0  0  0
   28.1012   38.0620   20.8883 N   0  0  0  0  0  0  0  0  0  0  0  0
  1  2  1  6  0  0  0
  1  3  1  0  0  0  0
  1  4  2  0  0  0  0
  1  6  1  0  0  0  0
  5  6  1  0  0  0  0
  7  5  1  6  0  0  0
  7  8  1  0  0  0  0
  7  9  1  0  0  0  0
  9 10  1  6  0  0  0
  9 11  1  0  0  0  0
 11 12  1  6  0  0  0
 11 13  1  0  0  0  0
 13 31  1  0  0  0  0
 14 15  1  0  0  0  0
 15 16  2  0  0  0  0
 15 17  1  0  0  0  0
 17 18  1  0  0  0  0
 18 20  2  0  0  0  0
 19 18  1  1  0  0  0
 19 22  1  0  0  0  0
 19 30  1  0  0  0  0
 21 23  1  6  0  0  0
 21 29  1  0  0  0  0
 21 22  1  0  0  0  0
 23 24  1  0  0  0  0
 24 25  1  1  0  0  0
 24 26  1  0  0  0  0
 26 27  1  1  0  0  0
 26 28  1  0  0  0  0
 29 28  1  6  0  0  0
 29 31  1  0  0  0  0
 30 14  1  6  0  0  0
 30 31  1  0  0  0  0
M  CHG  1   3  -1
M  END
>  <CHROM.1>
171.34084886,52.30193298,-52.49227256,64.29612453,176.06834853,157.00046041
95.73572534,29.32418903,37.07944067,19.73728036,-0.68110844,1.01040850,0.21251160

>  <Name>
ligand

>  <RI>
0

>  <Rbt.Current_Directory>
/home/itssahil/PROJECTS/Mol_Feturizer/New_Systems/rnas/3F2Q

>  <Rbt.Executable>
rbdock ($Id: //depot/dev/client3/rdock/2013.1/src/exe/rbdock.cxx#4 $)

>  <Rbt.Library>
libRbt.so (2013.1, Build901 2013/11/27)

>  <Rbt.Parameter_File>
/export/apps/rDock/src/rDock_2013.1_src/data/scripts/dock_solv.prm

>  <Rbt.Receptor>
prm/blind_docking_60.prm

>  <SCORE>
-26.9133

>  <SCORE.INTER>
-21.3988

>  <SCORE.INTER.CONST>
1

>  <SCORE.INTER.POLAR>
0

>  <SCORE.INTER.ROT>
7

>  <SCORE.INTER.SOLV>
11.0101

>  <SCORE.INTER.VDW>
-26.2025

>  <SCORE.INTER.norm>
-0.690283

>  <SCORE.INTRA>
-5.51452

>  <SCORE.INTRA.DIHEDRAL>
-6.40211

>  <SCORE.INTRA.DIHEDRAL.0>
10.0718

>  <SCORE.INTRA.POLAR>
0

>  <SCORE.INTRA.POLAR.0>
0

>  <SCORE.INTRA.REPUL>
0

>  <SCORE.INTRA.REPUL.0>
0

>  <SCORE.INTRA.SOLV>
-0.993434

>  <SCORE.INTRA.SOLV.lig_0>
-48.6963

>  <SCORE.INTRA.VDW>
-1.81675

>  <SCORE.INTRA.VDW.0>
-0.836976

>  <SCORE.INTRA.norm>
-0.177888

>  <SCORE.RESTR>
0

>  <SCORE.RESTR.CAVITY>
0

>  <SCORE.RESTR.norm>
0

>  <SCORE.SYSTEM>
0

>  <SCORE.SYSTEM.CONST>
0

>  <SCORE.SYSTEM.DIHEDRAL>
0

>  <SCORE.SYSTEM.SOLV>
0

>  <SCORE.SYSTEM.norm>
0

>  <SCORE.heavy>
31

>  <SCORE.norm>
-0.86817

>  <RMSD>
5.517

$$$$
ligand
 OpenBabel11021811473D
libRbt.so/2013.1/901 2013/11/27
 31 33  0  0  0  0  0  0  0  0999 V2000
   32.7318   35.0529   15.9383 P   0  0  1  0  0  0  0  0  0  0  0  0
   33.9179   34.5568   15.1392 O   0  0  0  0  0  0  0  0  0  0  0  0
   31.5067   34.3311   15.4449 O   0  5  0  0  0  0  0  0  0  0  0  0
   32.9323   34.7624   17.4002 O   0  0  0  0  0  0  0  0  0  0  0  0
   31.3926   37.2828   16.0626 C   0  0  0  0  0  0  0  0  0  0  0  0
   32.6150   36.6424   15.7889 O   0  0  0  0  0  0  0  0  0  0  0  0
   31.1079   37.1960   17.5549 C   0  0  1  0  0  0  0  0  0  0  0  0
   32.0700   37.9668   18.2431 O   0  0  0  0  0  0  0  0  0  0  0  0
   29.6993   37.7072   17.8571 C   0  0  1  0  0  0  0  0  0  0  0  0
   28.7522   36.9286   17.1577 O   0  0  0  0  0  0  0  0  0  0  0  0
   29.3715   37.7667   19.3555 C   0  0  1  0  0  0  0  0  0  0  0  0
   30.1663   38.7488   19.9822 O   0  0  0  0  0  0  0  0  0  0  0  0
   27.9052   38.0684   19.6208 C   0  0  0  0  0  0  0  0  0  0  0  0
   27.2987   35.6677   20.9819 N   0  0  0  0  0  0  0  0  0  0  0  0
   27.0571   34.4619   21.6080 C   0  0  0  0  0  0  0  0  0  0  0  0
   26.9531   33.4279   20.9422 O   0  0  0  0  0  0  0  0  0  0  0  0
   26.9229   34.4214   22.9812 N   0  0  0  0  0  0  0  0  0  0  0  0
   27.0294   35.5795   23.7280 C   0  0  0  0  0  0  0  0  0  0  0  0
   27.2728   36.7863   23.1059 C   0  0  1  0  0  0  0  0  0  0  0  0
   26.9209   35.5562   24.9528 O   0  0  0  0  0  0  0  0  0  0  0  0
   27.6283   39.1416   23.2505 C   0  0  2  0  0  0  0  0  0  0  0  0
   27.3809   37.9330   23.8686 N   0  0  0  0  0  0  0  0  0  0  0  0
   27.7358   40.2995   24.0171 C   0  0  0  0  0  0  0  0  0  0  0  0
   27.9775   41.5242   23.4029 C   0  0  1  0  0  0  0  0  0  0  0  0
   28.1014   42.7630   24.2465 C   0  0  0  0  0  0  0  0  0  0  0  0
   28.1156   41.5858   22.0115 C   0  0  1  0  0  0  0  0  0  0  0  0
   28.3917   42.8896   21.3211 C   0  0  0  0  0  0  0  0  0  0  0  0
   28.0081   40.4265   21.2491 C   0  0  0  0  0  0  0  0  0  0  0  0
   27.7632   39.1989   21.8600 C   0  0  2  0  0  0  0  0  0  0  0  0
   27.4106   36.8325   21.7234 C   0  0  2  0  0  0  0  0  0  0  0  0
   27.6462   38.0422   21.0986 N   0  0  0  0  0  0  0  0  0  0  0  0
  1  2  1  6  0  0  0
  1  3  1  0  0  0  0
  1  4  2  0  0  0  0
  1  6  1  0  0  0  0
  5  6  1  0  0  0  0
  7  5  1  6  0  0  0
  7  8  1  0  0  0  0
  7  9  1  0  0  0  0
  9 10  1  6  0  0  0
  9 11  1  0  0  0  0
 11 12  1  1  0  0  0
 11 13  1  0  0  0  0
 13 31  1  0  0  0  0
 14 15  1  0  0  0  0
 15 16  2  0  0  0  0
 15 17  1  0  0  0  0
 17 18  1  0  0  0  0
 18 20  2  0  0  0  0
 19 18  1  1  0  0  0
 19 22  1  0  0  0  0
 19 30  1  0  0  0  0
 21 23  1  6  0  0  0
 21 29  1  0  0  0  0
 21 22  1  0  0  0  0
 23 24  1  0  0  0  0
 24 25  1  1  0  0  0
 24 26  1  0  0  0  0
 26 27  1  1  0  0  0
 26 28  1  0  0  0  0
 29 28  1  6  0  0  0
 29 31  1  0  0  0  0
 30 14  1  6  0  0  0
 30 31  1  0  0  0  0
M  CHG  1   3  -1
M  END
>  <CHROM.1>
68.73474922,159.65006477,66.76254191,59.71249329,67.04415664,177.15964072
90.60750531,29.28358181,37.35114643,20.06000337,0.55052373,-0.91314365,-2.94459354

>  <Name>
ligand

>  <RI>
0

>  <Rbt.Current_Directory>
/home/itssahil/PROJECTS/Mol_Feturizer/New_Systems/rnas/3F2Q

>  <Rbt.Executable>
rbdock ($Id: //depot/dev/client3/rdock/2013.1/src/exe/rbdock.cxx#4 $)

>  <Rbt.Library>
libRbt.so (2013.1, Build901 2013/11/27)

>  <Rbt.Parameter_File>
/export/apps/rDock/src/rDock_2013.1_src/data/scripts/dock_solv.prm

>  <Rbt.Receptor>
prm/blind_docking_100.prm

>  <SCORE>
-28.5494

>  <SCORE.INTER>
-24.4536

>  <SCORE.INTER.CONST>
1

>  <SCORE.INTER.POLAR>
0

>  <SCORE.INTER.ROT>
7

>  <SCORE.INTER.SOLV>
12.7894

>  <SCORE.INTER.VDW>
-28.8322

>  <SCORE.INTER.norm>
-0.788825

>  <SCORE.INTRA>
-4.09585

>  <SCORE.INTRA.DIHEDRAL>
-7.5612

>  <SCORE.INTRA.DIHEDRAL.0>
10.0718

>  <SCORE.INTRA.POLAR>
0

>  <SCORE.INTRA.POLAR.0>
0

>  <SCORE.INTRA.REPUL>
0

>  <SCORE.INTRA.REPUL.0>
0

>  <SCORE.INTRA.SOLV>
1.90638

>  <SCORE.INTRA.SOLV.lig_0>
-48.6963

>  <SCORE.INTRA.VDW>
-1.26844

>  <SCORE.INTRA.VDW.0>
-0.836976

>  <SCORE.INTRA.norm>
-0.132124

>  <SCORE.RESTR>
0

>  <SCORE.RESTR.CAVITY>
0

>  <SCORE.RESTR.norm>
0

>  <SCORE.SYSTEM>
0

>  <SCORE.SYSTEM.CONST>
0

>  <SCORE.SYSTEM.DIHEDRAL>
0

>  <SCORE.SYSTEM.SOLV>
0

>  <SCORE.SYSTEM.norm>
0

>  <SCORE.heavy>
31

>  <SCORE.norm>
-0.920949

>  <RMSD>
5.520

$$$$
ligand
 OpenBabel11021811473D
libRbt.so/2013.1/901 2013/11/27
 31 33  0  0  0  0  0  0  0  0999 V2000
   28.6380   42.5918   23.7329 P   0  0  1  0  0  0  0  0  0  0  0  0
   28.2959   43.8984   24.4165 O   0  0  0  0  0  0  0  0  0  0  0  0
   30.1361   42.4476   23.7335 O   0  5  0  0  0  0  0  0  0  0  0  0
   28.0212   41.4394   24.4766 O   0  0  0  0  0  0  0  0  0  0  0  0
   28.2434   41.4832   21.4098 C   0  0  0  0  0  0  0  0  0  0  0  0
   28.0167   42.5828   22.2576 O   0  0  0  0  0  0  0  0  0  0  0  0
   27.4624   41.6803   20.1188 C   0  0  1  0  0  0  0  0  0  0  0  0
   27.9412   42.8421   19.4750 O   0  0  0  0  0  0  0  0  0  0  0  0
   27.6236   40.4619   19.2098 C   0  0  1  0  0  0  0  0  0  0  0  0
   28.9346   40.4301   18.6875 O   0  0  0  0  0  0  0  0  0  0  0  0
   27.2636   39.1327   19.8880 C   0  0  1  0  0  0  0  0  0  0  0  0
   26.7842   38.2181   18.9275 O   0  0  0  0  0  0  0  0  0  0  0  0
   28.4428   38.5133   20.6211 C   0  0  0  0  0  0  0  0  0  0  0  0
   27.2113   38.0507   23.1217 N   0  0  0  0  0  0  0  0  0  0  0  0
   26.5649   37.8829   24.3294 C   0  0  0  0  0  0  0  0  0  0  0  0
   26.3796   38.8506   25.0726 O   0  0  0  0  0  0  0  0  0  0  0  0
   26.1363   36.6256   24.7046 N   0  0  0  0  0  0  0  0  0  0  0  0
   26.3513   35.5388   23.8782 C   0  0  0  0  0  0  0  0  0  0  0  0
   26.9952   35.7028   22.6695 C   0  0  1  0  0  0  0  0  0  0  0  0
   25.9666   34.4148   24.1962 O   0  0  0  0  0  0  0  0  0  0  0  0
   27.8374   34.7667   20.6424 C   0  0  2  0  0  0  0  0  0  0  0  0
   27.1972   34.6061   21.8541 N   0  0  0  0  0  0  0  0  0  0  0  0
   28.0441   33.6622   19.8195 C   0  0  0  0  0  0  0  0  0  0  0  0
   28.6953   33.8121   18.5991 C   0  0  1  0  0  0  0  0  0  0  0  0
   28.9007   32.6109   17.7180 C   0  0  0  0  0  0  0  0  0  0  0  0
   29.1382   35.0788   18.2017 C   0  0  1  0  0  0  0  0  0  0  0  0
   29.8304   35.2753   16.8845 C   0  0  0  0  0  0  0  0  0  0  0  0
   28.9292   36.1801   19.0265 C   0  0  0  0  0  0  0  0  0  0  0  0
   28.2803   36.0336   20.2503 C   0  0  2  0  0  0  0  0  0  0  0  0
   27.4273   36.9672   22.2858 C   0  0  2  0  0  0  0  0  0  0  0  0
   28.0798   37.1311   21.0790 N   0  0  0  0  0  0  0  0  0  0  0  0
  1  2  1  1  0  0  0
  1  3  1  0  0  0  0
  1  4  2  0  0  0  0
  1  6  1  0  0  0  0
  5  6  1  0  0  0  0
  7  5  1  1  0  0  0
  7  8  1  0  0  0  0
  7  9  1  0  0  0  0
  9 10  1  1  0  0  0
  9 11  1  0  0  0  0
 11 12  1  6  0  0  0
 11 13  1  0  0  0  0
 13 31  1  0  0  0  0
 14 15  1  0  0  0  0
 15 16  2  0  0  0  0
 15 17  1  0  0  0  0
 17 18  1  0  0  0  0
 18 20  2  0  0  0  0
 19 18  1  6  0  0  0
 19 22  1  0  0  0  0
 19 30  1  0  0  0  0
 21 23  1  1  0  0  0
 21 29  1  0  0  0  0
 21 22  1  0  0  0  0
 23 24  1  0  0  0  0
 24 25  1  6  0  0  0
 24 26  1  0  0  0  0
 26 27  1  6  0  0  0
 26 28  1  0  0  0  0
 29 28  1  1  0  0  0
 29 31  1  0  0  0  0
 30 14  1  1  0  0  0
 30 31  1  0  0  0  0
M  CHG  1   3  -1
M  END
>  <CHROM.1>
175.78728141,177.85478474,62.15025444,-71.36219205,150.48247553,-171.52556435
88.24895298,27.90283282,38.37916111,21.47200842,1.52768596,1.24983210,0.44989466

>  <Name>
ligand

>  <RI>
0

>  <Rbt.Current_Directory>
/home/itssahil/PROJECTS/Mol_Feturizer/New_Systems/rnas/3F2Q

>  <Rbt.Executable>
rbdock ($Id: //depot/dev/client3/rdock/2013.1/src/exe/rbdock.cxx#4 $)

>  <Rbt.Library>
libRbt.so (2013.1, Build901 2013/11/27)

>  <Rbt.Parameter_File>
/export/apps/rDock/src/rDock_2013.1_src/data/scripts/dock_solv.prm

>  <Rbt.Receptor>
prm/blind_docking_80.prm

>  <SCORE>
-28.4486

>  <SCORE.INTER>
-25.2117

>  <SCORE.INTER.CONST>
1

>  <SCORE.INTER.POLAR>
0

>  <SCORE.INTER.ROT>
7

>  <SCORE.INTER.SOLV>
16.8893

>  <SCORE.INTER.VDW>
-30.7042

>  <SCORE.INTER.norm>
-0.813279

>  <SCORE.INTRA>
-3.23691

>  <SCORE.INTRA.DIHEDRAL>
-5.48509

>  <SCORE.INTRA.DIHEDRAL.0>
10.0718

>  <SCORE.INTRA.POLAR>
0

>  <SCORE.INTRA.POLAR.0>
0

>  <SCORE.INTRA.REPUL>
0

>  <SCORE.INTRA.REPUL.0>
0

>  <SCORE.INTRA.SOLV>
-0.0981685

>  <SCORE.INTRA.SOLV.lig_0>
-48.6963

>  <SCORE.INTRA.VDW>
-0.445285

>  <SCORE.INTRA.VDW.0>
-0.836976

>  <SCORE.INTRA.norm>
-0.104417

>  <SCORE.RESTR>
0

>  <SCORE.RESTR.CAVITY>
0

>  <SCORE.RESTR.norm>
0

>  <SCORE.SYSTEM>
0

>  <SCORE.SYSTEM.CONST>
0

>  <SCORE.SYSTEM.DIHEDRAL>
0

>  <SCORE.SYSTEM.SOLV>
0

>  <SCORE.SYSTEM.norm>
0

>  <SCORE.heavy>
31

>  <SCORE.norm>
-0.917696

>  <RMSD>
5.535

$$$$
ligand
 OpenBabel11021811473D
libRbt.so/2013.1/901 2013/11/27
 31 33  0  0  0  0  0  0  0  0999 V2000
   28.3285   32.8891   16.6681 P   0  0  1  0  0  0  0  0  0  0  0  0
   29.3567   31.7883   16.8175 O   0  0  0  0  0  0  0  0  0  0  0  0
   28.2478   33.2523   15.2097 O   0  5  0  0  0  0  0  0  0  0  0  0
   26.9837   32.4118   17.1429 O   0  0  0  0  0  0  0  0  0  0  0  0
   27.8808   35.2419   17.6906 C   0  0  0  0  0  0  0  0  0  0  0  0
   28.7375   34.1303   17.5926 O   0  0  0  0  0  0  0  0  0  0  0  0
   28.5537   36.3170   18.5312 C   0  0  1  0  0  0  0  0  0  0  0  0
   29.7141   36.7559   17.8573 O   0  0  0  0  0  0  0  0  0  0  0  0
   27.5967   37.4863   18.7626 C   0  0  1  0  0  0  0  0  0  0  0  0
   26.5221   37.0659   19.5756 O   0  0  0  0  0  0  0  0  0  0  0  0
   28.2755   38.7355   19.3416 C   0  0  1  0  0  0  0  0  0  0  0  0
   27.3024   39.7019   19.6701 O   0  0  0  0  0  0  0  0  0  0  0  0
   29.1090   38.4281   20.5754 C   0  0  0  0  0  0  0  0  0  0  0  0
   28.0757   35.9426   21.4345 N   0  0  0  0  0  0  0  0  0  0  0  0
   27.6388   34.6991   21.8434 C   0  0  0  0  0  0  0  0  0  0  0  0
   27.8996   33.6983   21.1699 O   0  0  0  0  0  0  0  0  0  0  0  0
   26.9007   34.5832   23.0041 N   0  0  0  0  0  0  0  0  0  0  0  0
   26.5992   35.7038   23.7550 C   0  0  0  0  0  0  0  0  0  0  0  0
   27.0358   36.9481   23.3505 C   0  0  1  0  0  0  0  0  0  0  0  0
   25.9502   35.6136   24.7957 O   0  0  0  0  0  0  0  0  0  0  0  0
   27.1675   39.3025   23.7169 C   0  0  2  0  0  0  0  0  0  0  0  0
   26.7292   38.0565   24.1159 N   0  0  0  0  0  0  0  0  0  0  0  0
   26.8578   40.4218   24.4858 C   0  0  0  0  0  0  0  0  0  0  0  0
   27.2885   41.6836   24.0882 C   0  0  1  0  0  0  0  0  0  0  0  0
   26.9547   42.8801   24.9358 C   0  0  0  0  0  0  0  0  0  0  0  0
   28.0372   41.8215   22.9138 C   0  0  1  0  0  0  0  0  0  0  0  0
   28.5289   43.1671   22.4665 C   0  0  0  0  0  0  0  0  0  0  0  0
   28.3450   40.7005   22.1486 C   0  0  0  0  0  0  0  0  0  0  0  0
   27.9131   39.4360   22.5417 C   0  0  2  0  0  0  0  0  0  0  0  0
   27.7811   37.0702   22.1834 C   0  0  2  0  0  0  0  0  0  0  0  0
   28.2118   38.3173   21.7731 N   0  0  0  0  0  0  0  0  0  0  0  0
  1  2  1  1  0  0  0
  1  3  1  0  0  0  0
  1  4  2  0  0  0  0
  1  6  1  0  0  0  0
  5  6  1  0  0  0  0
  7  5  1  6  0  0  0
  7  8  1  0  0  0  0
  7  9  1  0  0  0  0
  9 10  1  1  0  0  0
  9 11  1  0  0  0  0
 11 12  1  1  0  0  0
 11 13  1  0  0  0  0
 13 31  1  0  0  0  0
 14 15  1  0  0  0  0
 15 16  2  0  0  0  0
 15 17  1  0  0  0  0
 17 18  1  0  0  0  0
 18 20  2  0  0  0  0
 19 18  1  1  0  0  0
 19 22  1  0  0  0  0
 19 30  1  0  0  0  0
 21 23  1  6  0  0  0
 21 29  1  0  0  0  0
 21 22  1  0  0  0  0
 23 24  1  0  0  0  0
 24 25  1  1  0  0  0
 24 26  1  0  0  0  0
 26 27  1  1  0  0  0
 26 28  1  0  0  0  0
 29 28  1  6  0  0  0
 29 31  1  0  0  0  0
 30 14  1  6  0  0  0
 30 31  1  0  0  0  0
M  CHG  1   3  -1
M  END
>  <CHROM.1>
-175.33991499,-175.65543025,63.98670234,66.97358374,-173.06520628,-79.94254335
-89.80839100,27.79478292,36.93336875,20.65714650,-1.27112219,1.26216544,0.43392215

>  <Name>
ligand

>  <RI>
0

>  <Rbt.Current_Directory>
/home/itssahil/PROJECTS/Mol_Feturizer/New_Systems/rnas/3F2Q

>  <Rbt.Executable>
rbdock ($Id: //depot/dev/client3/rdock/2013.1/src/exe/rbdock.cxx#4 $)

>  <Rbt.Library>
libRbt.so (2013.1, Build901 2013/11/27)

>  <Rbt.Parameter_File>
/export/apps/rDock/src/rDock_2013.1_src/data/scripts/dock_solv.prm

>  <Rbt.Receptor>
prm/pocket_docking_7.prm

>  <SCORE>
-28.2984

>  <SCORE.INTER>
-22.7626

>  <SCORE.INTER.CONST>
1

>  <SCORE.INTER.POLAR>
0

>  <SCORE.INTER.ROT>
7

>  <SCORE.INTER.SOLV>
10.8947

>  <SCORE.INTER.VDW>
-27.0733

>  <SCORE.INTER.norm>
-0.734279

>  <SCORE.INTRA>
-5.53574

>  <SCORE.INTRA.DIHEDRAL>
-6.70351

>  <SCORE.INTRA.DIHEDRAL.0>
10.0718

>  <SCORE.INTRA.POLAR>
0

>  <SCORE.INTRA.POLAR.0>
0

>  <SCORE.INTRA.REPUL>
0

>  <SCORE.INTRA.REPUL.0>
0

>  <SCORE.INTRA.SOLV>
0.0115789

>  <SCORE.INTRA.SOLV.lig_0>
-48.6963

>  <SCORE.INTRA.VDW>
-2.18978

>  <SCORE.INTRA.VDW.0>
-0.836976

>  <SCORE.INTRA.norm>
-0.178572

>  <SCORE.RESTR>
0

>  <SCORE.RESTR.CAVITY>
0

>  <SCORE.RESTR.norm>
0

>  <SCORE.SYSTEM>
0

>  <SCORE.SYSTEM.CONST>
0

>  <SCORE.SYSTEM.DIHEDRAL>
0

>  <SCORE.SYSTEM.SOLV>
0

>  <SCORE.SYSTEM.norm>
0

>  <SCORE.heavy>
31

>  <SCORE.norm>
-0.912851

>  <RMSD>
5.536

$$$$
ligand
 OpenBabel11021811473D
libRbt.so/2013.1/901 2013/11/27
 31 33  0  0  0  0  0  0  0  0999 V2000
   32.2342   34.6018   16.0622 P   0  0  1  0  0  0  0  0  0  0  0  0
   32.3382   34.2983   17.5416 O   0  0  0  0  0  0  0  0  0  0  0  0
   33.6049   34.4463   15.4604 O   0  5  0  0  0  0  0  0  0  0  0  0
   31.2826   33.6432   15.4010 O   0  0  0  0  0  0  0  0  0  0  0  0
   32.1972   37.1592   16.5518 C   0  0  0  0  0  0  0  0  0  0  0  0
   31.6333   36.0717   15.8600 O   0  0  0  0  0  0  0  0  0  0  0  0
   31.7198   37.1322   17.9964 C   0  0  1  0  0  0  0  0  0  0  0  0
   32.5089   38.0291   18.7489 O   0  0  0  0  0  0  0  0  0  0  0  0
   30.2445   37.5245   18.0752 C   0  0  1  0  0  0  0  0  0  0  0  0
   29.4552   36.5260   17.4648 O   0  0  0  0  0  0  0  0  0  0  0  0
   29.7591   37.8216   19.5009 C   0  0  1  0  0  0  0  0  0  0  0  0
   30.4112   38.9677   20.0009 O   0  0  0  0  0  0  0  0  0  0  0  0
   28.2551   38.0322   19.5735 C   0  0  0  0  0  0  0  0  0  0  0  0
   27.5876   35.5824   20.8130 N   0  0  0  0  0  0  0  0  0  0  0  0
   27.3221   34.3558   21.3869 C   0  0  0  0  0  0  0  0  0  0  0  0
   27.3534   33.3308   20.7002 O   0  0  0  0  0  0  0  0  0  0  0  0
   27.0121   34.2839   22.7300 N   0  0  0  0  0  0  0  0  0  0  0  0
   26.9670   35.4317   23.4989 C   0  0  0  0  0  0  0  0  0  0  0  0
   27.2336   36.6593   22.9293 C   0  0  1  0  0  0  0  0  0  0  0  0
   26.7011   35.3809   24.6985 O   0  0  0  0  0  0  0  0  0  0  0  0
   27.4586   39.0249   23.1489 C   0  0  2  0  0  0  0  0  0  0  0  0
   27.1886   37.7953   23.7140 N   0  0  0  0  0  0  0  0  0  0  0  0
   27.4119   40.1719   23.9376 C   0  0  0  0  0  0  0  0  0  0  0  0
   27.6750   41.4173   23.3758 C   0  0  1  0  0  0  0  0  0  0  0  0
   27.6308   42.6444   24.2439 C   0  0  0  0  0  0  0  0  0  0  0  0
   27.9902   41.5106   22.0155 C   0  0  1  0  0  0  0  0  0  0  0  0
   28.2937   42.8378   21.3837 C   0  0  0  0  0  0  0  0  0  0  0  0
   28.0365   40.3620   21.2310 C   0  0  0  0  0  0  0  0  0  0  0  0
   27.7707   39.1138   21.7890 C   0  0  2  0  0  0  0  0  0  0  0  0
   27.5482   36.7371   21.5775 C   0  0  2  0  0  0  0  0  0  0  0  0
   27.8073   37.9673   21.0043 N   0  0  0  0  0  0  0  0  0  0  0  0
  1  2  1  1  0  0  0
  1  3  1  0  0  0  0
  1  4  2  0  0  0  0
  1  6  1  0  0  0  0
  5  6  1  0  0  0  0
  7  5  1  6  0  0  0
  7  8  1  0  0  0  0
  7  9  1  0  0  0  0
  9 10  1  1  0  0  0
  9 11  1  0  0  0  0
 11 12  1  6  0  0  0
 11 13  1  0  0  0  0
 13 31  1  0  0  0  0
 14 15  1  0  0  0  0
 15 16  2  0  0  0  0
 15 17  1  0  0  0  0
 17 18  1  0  0  0  0
 18 20  2  0  0  0  0
 19 18  1  1  0  0  0
 19 22  1  0  0  0  0
 19 30  1  0  0  0  0
 21 23  1  6  0  0  0
 21 29  1  0  0  0  0
 21 22  1  0  0  0  0
 23 24  1  0  0  0  0
 24 25  1  1  0  0  0
 24 26  1  0  0  0  0
 26 27  1  1  0  0  0
 26 28  1  0  0  0  0
 29 28  1  6  0  0  0
 29 31  1  0  0  0  0
 30 14  1  6  0  0  0
 30 31  1  0  0  0  0
M  CHG  1   3  -1
M  END
>  <CHROM.1>
-77.22738391,50.63138889,167.03810135,67.41733858,65.52685476,165.65937409
89.74147622,29.28683057,37.18241901,20.08776562,-0.64027880,0.89210907,0.20683527

>  <Name>
ligand

>  <RI>
0

>  <Rbt.Current_Directory>
/home/itssahil/PROJECTS/Mol_Feturizer/New_Systems/rnas/3F2Q

>  <Rbt.Executable>
rbdock ($Id: //depot/dev/client3/rdock/2013.1/src/exe/rbdock.cxx#4 $)

>  <Rbt.Library>
libRbt.so (2013.1, Build901 2013/11/27)

>  <Rbt.Parameter_File>
/export/apps/rDock/src/rDock_2013.1_src/data/scripts/dock_solv.prm

>  <Rbt.Receptor>
prm/pocket_docking_8.prm

>  <SCORE>
-28.0897

>  <SCORE.INTER>
-23.8398

>  <SCORE.INTER.CONST>
1

>  <SCORE.INTER.POLAR>
0

>  <SCORE.INTER.ROT>
7

>  <SCORE.INTER.SOLV>
12.261

>  <SCORE.INTER.VDW>
-28.2469

>  <SCORE.INTER.norm>
-0.769027

>  <SCORE.INTRA>
-4.24983

>  <SCORE.INTRA.DIHEDRAL>
-5.79834

>  <SCORE.INTRA.DIHEDRAL.0>
10.0718

>  <SCORE.INTRA.POLAR>
0

>  <SCORE.INTRA.POLAR.0>
0

>  <SCORE.INTRA.REPUL>
0

>  <SCORE.INTRA.REPUL.0>
0

>  <SCORE.INTRA.SOLV>
0.209942

>  <SCORE.INTRA.SOLV.lig_0>
-48.6963

>  <SCORE.INTRA.VDW>
-1.45564

>  <SCORE.INTRA.VDW.0>
-0.836976

>  <SCORE.INTRA.norm>
-0.137091

>  <SCORE.RESTR>
0

>  <SCORE.RESTR.CAVITY>
0

>  <SCORE.RESTR.norm>
0

>  <SCORE.SYSTEM>
0

>  <SCORE.SYSTEM.CONST>
0

>  <SCORE.SYSTEM.DIHEDRAL>
0

>  <SCORE.SYSTEM.SOLV>
0

>  <SCORE.SYSTEM.norm>
0

>  <SCORE.heavy>
31

>  <SCORE.norm>
-0.906119

>  <RMSD>
5.552

$$$$
ligand
 OpenBabel11021811473D
libRbt.so/2013.1/901 2013/11/27
 31 33  0  0  0  0  0  0  0  0999 V2000
   30.0413   34.0170   15.6588 P   0  0  1  0  0  0  0  0  0  0  0  0
   30.9135   34.6414   14.5906 O   0  0  0  0  0  0  0  0  0  0  0  0
   30.0698   32.5247   15.4658 O   0  5  0  0  0  0  0  0  0  0  0  0
   30.5691   34.3579   17.0251 O   0  0  0  0  0  0  0  0  0  0  0  0
   28.3608   36.0043   15.7495 C   0  0  0  0  0  0  0  0  0  0  0  0
   28.5633   34.6246   15.5633 O   0  0  0  0  0  0  0  0  0  0  0  0
   26.8856   36.3221   15.5537 C   0  0  1  0  0  0  0  0  0  0  0  0
   26.4419   35.6929   14.3702 O   0  0  0  0  0  0  0  0  0  0  0  0
   26.0739   35.8345   16.7537 C   0  0  1  0  0  0  0  0  0  0  0  0
   26.4199   34.4982   17.0487 O   0  0  0  0  0  0  0  0  0  0  0  0
   26.2059   36.7291   17.9941 C   0  0  1  0  0  0  0  0  0  0  0  0
   25.2404   36.3633   18.9548 O   0  0  0  0  0  0  0  0  0  0  0  0
   27.5881   36.6547   18.6231 C   0  0  0  0  0  0  0  0  0  0  0  0
   27.4801   34.7617   20.7179 N   0  0  0  0  0  0  0  0  0  0  0  0
   27.4812   33.7986   21.7063 C   0  0  0  0  0  0  0  0  0  0  0  0
   27.4441   32.6022   21.4057 O   0  0  0  0  0  0  0  0  0  0  0  0
   27.5141   34.1819   23.0319 N   0  0  0  0  0  0  0  0  0  0  0  0
   27.5460   35.5215   23.3712 C   0  0  0  0  0  0  0  0  0  0  0  0
   27.5470   36.4869   22.3861 C   0  0  1  0  0  0  0  0  0  0  0  0
   27.5847   35.8765   24.5480 O   0  0  0  0  0  0  0  0  0  0  0  0
   27.5890   38.7895   21.7609 C   0  0  2  0  0  0  0  0  0  0  0  0
   27.5839   37.8208   22.7435 N   0  0  0  0  0  0  0  0  0  0  0  0
   27.6242   40.1351   22.1188 C   0  0  0  0  0  0  0  0  0  0  0  0
   27.6220   41.1198   21.1359 C   0  0  1  0  0  0  0  0  0  0  0  0
   27.6711   42.5677   21.5394 C   0  0  0  0  0  0  0  0  0  0  0  0
   27.5879   40.7510   19.7863 C   0  0  1  0  0  0  0  0  0  0  0  0
   27.5998   41.7894   18.7027 C   0  0  0  0  0  0  0  0  0  0  0  0
   27.5534   39.4054   19.4328 C   0  0  0  0  0  0  0  0  0  0  0  0
   27.5525   38.4166   20.4139 C   0  0  2  0  0  0  0  0  0  0  0  0
   27.5158   36.1063   21.0494 C   0  0  2  0  0  0  0  0  0  0  0  0
   27.5084   37.0729   20.0620 N   0  0  0  0  0  0  0  0  0  0  0  0
  1  2  1  6  0  0  0
  1  3  1  0  0  0  0
  1  4  2  0  0  0  0
  1  6  1  0  0  0  0
  5  6  1  0  0  0  0
  7  5  1  1  0  0  0
  7  8  1  0  0  0  0
  7  9  1  0  0  0  0
  9 10  1  1  0  0  0
  9 11  1  0  0  0  0
 11 12  1  1  0  0  0
 11 13  1  0  0  0  0
 13 31  1  0  0  0  0
 14 15  1  0  0  0  0
 15 16  2  0  0  0  0
 15 17  1  0  0  0  0
 17 18  1  0  0  0  0
 18 20  2  0  0  0  0
 19 18  1  6  0  0  0
 19 22  1  0  0  0  0
 19 30  1  0  0  0  0
 21 23  1  1  0  0  0
 21 29  1  0  0  0  0
 21 22  1  0  0  0  0
 23 24  1  0  0  0  0
 24 25  1  6  0  0  0
 24 26  1  0  0  0  0
 26 27  1  6  0  0  0
 26 28  1  0  0  0  0
 29 28  1  1  0  0  0
 29 31  1  0  0  0  0
 30 14  1  1  0  0  0
 30 31  1  0  0  0  0
M  CHG  1   3  -1
M  END
>  <CHROM.1>
177.80787557,-61.21908954,-47.28848364,-49.05181617,168.69495239,-157.55315701
-84.00190603,27.84192038,36.41126678,19.05738941,-0.11371988,-1.37705112
2.41501579

>  <Name>
ligand

>  <RI>
0

>  <Rbt.Current_Directory>
/home/itssahil/PROJECTS/Mol_Feturizer/New_Systems/rnas/3F2Q

>  <Rbt.Executable>
rbdock ($Id: //depot/dev/client3/rdock/2013.1/src/exe/rbdock.cxx#4 $)

>  <Rbt.Library>
libRbt.so (2013.1, Build901 2013/11/27)

>  <Rbt.Parameter_File>
/export/apps/rDock/src/rDock_2013.1_src/data/scripts/dock_solv.prm

>  <Rbt.Receptor>
prm/pocket_docking_8.prm

>  <SCORE>
-21.9844

>  <SCORE.INTER>
-18.9845

>  <SCORE.INTER.CONST>
1

>  <SCORE.INTER.POLAR>
0

>  <SCORE.INTER.ROT>
7

>  <SCORE.INTER.SOLV>
10.496

>  <SCORE.INTER.VDW>
-24.4217

>  <SCORE.INTER.norm>
-0.612402

>  <SCORE.INTRA>
-2.99991

>  <SCORE.INTRA.DIHEDRAL>
-5.47227

>  <SCORE.INTRA.DIHEDRAL.0>
10.0718

>  <SCORE.INTRA.POLAR>
0

>  <SCORE.INTRA.POLAR.0>
0

>  <SCORE.INTRA.REPUL>
0

>  <SCORE.INTRA.REPUL.0>
0

>  <SCORE.INTRA.SOLV>
-0.271334

>  <SCORE.INTRA.SOLV.lig_0>
-48.6963

>  <SCORE.INTRA.VDW>
-0.12811

>  <SCORE.INTRA.VDW.0>
-0.836976

>  <SCORE.INTRA.norm>
-0.0967714

>  <SCORE.RESTR>
0

>  <SCORE.RESTR.CAVITY>
0

>  <SCORE.RESTR.norm>
0

>  <SCORE.SYSTEM>
0

>  <SCORE.SYSTEM.CONST>
0

>  <SCORE.SYSTEM.DIHEDRAL>
0

>  <SCORE.SYSTEM.SOLV>
0

>  <SCORE.SYSTEM.norm>
0

>  <SCORE.heavy>
31

>  <SCORE.norm>
-0.709174

>  <RMSD>
5.552

$$$$
ligand
 OpenBabel11021811473D
libRbt.so/2013.1/901 2013/11/27
 31 33  0  0  0  0  0  0  0  0999 V2000
   27.5148   33.1952   18.3471 P   0  0  1  0  0  0  0  0  0  0  0  0
   26.5960   32.2407   19.0794 O   0  0  0  0  0  0  0  0  0  0  0  0
   28.5094   33.7336   19.3400 O   0  5  0  0  0  0  0  0  0  0  0  0
   28.2426   32.4738   17.2463 O   0  0  0  0  0  0  0  0  0  0  0  0
   27.2872   35.3711   16.9345 C   0  0  0  0  0  0  0  0  0  0  0  0
   26.6453   34.3479   17.6558 O   0  0  0  0  0  0  0  0  0  0  0  0
   28.0324   36.2739   17.9066 C   0  0  1  0  0  0  0  0  0  0  0  0
   28.9604   37.0509   17.1796 O   0  0  0  0  0  0  0  0  0  0  0  0
   27.0496   37.1763   18.6526 C   0  0  1  0  0  0  0  0  0  0  0  0
   26.3123   36.4095   19.5804 O   0  0  0  0  0  0  0  0  0  0  0  0
   27.7118   38.3833   19.3317 C   0  0  1  0  0  0  0  0  0  0  0  0
   26.7226   39.2593   19.8245 O   0  0  0  0  0  0  0  0  0  0  0  0
   28.6325   37.9790   20.4720 C   0  0  0  0  0  0  0  0  0  0  0  0
   27.5658   35.6807   21.7222 N   0  0  0  0  0  0  0  0  0  0  0  0
   27.1087   34.5226   22.3176 C   0  0  0  0  0  0  0  0  0  0  0  0
   27.2214   33.4404   21.7351 O   0  0  0  0  0  0  0  0  0  0  0  0
   26.5167   34.5838   23.5629 N   0  0  0  0  0  0  0  0  0  0  0  0
   26.3808   35.7961   24.2130 C   0  0  0  0  0  0  0  0  0  0  0  0
   26.8382   36.9554   23.6220 C   0  0  1  0  0  0  0  0  0  0  0  0
   25.8635   35.8636   25.3267 O   0  0  0  0  0  0  0  0  0  0  0  0
   27.1581   39.3189   23.7023 C   0  0  2  0  0  0  0  0  0  0  0  0
   26.6983   38.1573   24.2883 N   0  0  0  0  0  0  0  0  0  0  0  0
   27.0164   40.5322   24.3712 C   0  0  0  0  0  0  0  0  0  0  0  0
   27.4698   41.7101   23.7857 C   0  0  1  0  0  0  0  0  0  0  0  0
   27.3187   43.0101   24.5264 C   0  0  0  0  0  0  0  0  0  0  0  0
   28.0719   41.6685   22.5230 C   0  0  1  0  0  0  0  0  0  0  0  0
   28.5847   42.9197   21.8717 C   0  0  0  0  0  0  0  0  0  0  0  0
   28.2122   40.4539   21.8581 C   0  0  0  0  0  0  0  0  0  0  0  0
   27.7569   39.2730   22.4396 C   0  0  2  0  0  0  0  0  0  0  0  0
   27.4369   36.8991   22.3686 C   0  0  2  0  0  0  0  0  0  0  0  0
   27.8878   38.0611   21.7722 N   0  0  0  0  0  0  0  0  0  0  0  0
  1  2  1  1  0  0  0
  1  3  1  0  0  0  0
  1  4  2  0  0  0  0
  1  6  1  0  0  0  0
  5  6  1  0  0  0  0
  7  5  1  6  0  0  0
  7  8  1  0  0  0  0
  7  9  1  0  0  0  0
  9 10  1  1  0  0  0
  9 11  1  0  0  0  0
 11 12  1  1  0  0  0
 11 13  1  0  0  0  0
 13 31  1  0  0  0  0
 14 15  1  0  0  0  0
 15 16  2  0  0  0  0
 15 17  1  0  0  0  0
 17 18  1  0  0  0  0
 18 20  2  0  0  0  0
 19 18  1  1  0  0  0
 19 22  1  0  0  0  0
 19 30  1  0  0  0  0
 21 23  1  6  0  0  0
 21 29  1  0  0  0  0
 21 22  1  0  0  0  0
 23 24  1  0  0  0  0
 24 25  1  1  0  0  0
 24 26  1  0  0  0  0
 26 27  1  1  0  0  0
 26 28  1  0  0  0  0
 29 28  1  6  0  0  0
 29 31  1  0  0  0  0
 30 14  1  6  0  0  0
 30 31  1  0  0  0  0
M  CHG  1   3  -1
M  END
>  <CHROM.1>
-70.22020808,178.82778435,163.73987856,71.87077990,171.46462618,-95.51595927
-82.93530614,27.39889827,36.90376078,20.98213738,-1.56159438,1.32415419,0.60845408

>  <Name>
ligand

>  <RI>
0

>  <Rbt.Current_Directory>
/home/itssahil/PROJECTS/Mol_Feturizer/New_Systems/rnas/3F2Q

>  <Rbt.Executable>
rbdock ($Id: //depot/dev/client3/rdock/2013.1/src/exe/rbdock.cxx#4 $)

>  <Rbt.Library>
libRbt.so (2013.1, Build901 2013/11/27)

>  <Rbt.Parameter_File>
/export/apps/rDock/src/rDock_2013.1_src/data/scripts/dock_solv.prm

>  <Rbt.Receptor>
prm/pocket_docking_8.prm

>  <SCORE>
-25.0959

>  <SCORE.INTER>
-23.4217

>  <SCORE.INTER.CONST>
1

>  <SCORE.INTER.POLAR>
0

>  <SCORE.INTER.ROT>
7

>  <SCORE.INTER.SOLV>
13.5346

>  <SCORE.INTER.VDW>
-28.3926

>  <SCORE.INTER.norm>
-0.755538

>  <SCORE.INTRA>
-1.67423

>  <SCORE.INTRA.DIHEDRAL>
-2.98863

>  <SCORE.INTRA.DIHEDRAL.0>
10.0718

>  <SCORE.INTRA.POLAR>
0

>  <SCORE.INTRA.POLAR.0>
0

>  <SCORE.INTRA.REPUL>
0

>  <SCORE.INTRA.REPUL.0>
0

>  <SCORE.INTRA.SOLV>
4.92756

>  <SCORE.INTRA.SOLV.lig_0>
-48.6963

>  <SCORE.INTRA.VDW>
-2.6437

>  <SCORE.INTRA.VDW.0>
-0.836976

>  <SCORE.INTRA.norm>
-0.0540075

>  <SCORE.RESTR>
0

>  <SCORE.RESTR.CAVITY>
0

>  <SCORE.RESTR.norm>
0

>  <SCORE.SYSTEM>
0

>  <SCORE.SYSTEM.CONST>
0

>  <SCORE.SYSTEM.DIHEDRAL>
0

>  <SCORE.SYSTEM.SOLV>
0

>  <SCORE.SYSTEM.norm>
0

>  <SCORE.heavy>
31

>  <SCORE.norm>
-0.809545

>  <RMSD>
5.564

$$$$
ligand
 OpenBabel11021811473D
libRbt.so/2013.1/901 2013/11/27
 31 33  0  0  0  0  0  0  0  0999 V2000
   29.5856   33.6202   17.0876 P   0  0  1  0  0  0  0  0  0  0  0  0
   28.7311   32.9078   18.1142 O   0  0  0  0  0  0  0  0  0  0  0  0
   30.7849   32.7563   16.8038 O   0  5  0  0  0  0  0  0  0  0  0  0
   28.8058   33.8311   15.8190 O   0  0  0  0  0  0  0  0  0  0  0  0
   28.9793   36.0189   17.9003 C   0  0  0  0  0  0  0  0  0  0  0  0
   29.9840   35.0696   17.6381 O   0  0  0  0  0  0  0  0  0  0  0  0
   29.6299   37.3481   18.2539 C   0  0  1  0  0  0  0  0  0  0  0  0
   30.5155   37.7074   17.2147 O   0  0  0  0  0  0  0  0  0  0  0  0
   28.5637   38.4271   18.4432 C   0  0  1  0  0  0  0  0  0  0  0  0
   27.7060   38.4479   17.3223 O   0  0  0  0  0  0  0  0  0  0  0  0
   27.7682   38.2879   19.7486 C   0  0  1  0  0  0  0  0  0  0  0  0
   26.9281   37.1573   19.6805 O   0  0  0  0  0  0  0  0  0  0  0  0
   28.6662   38.1689   20.9696 C   0  0  0  0  0  0  0  0  0  0  0  0
   27.4928   35.8758   22.1309 N   0  0  0  0  0  0  0  0  0  0  0  0
   26.9842   34.7198   22.6872 C   0  0  0  0  0  0  0  0  0  0  0  0
   27.1264   33.6391   22.1084 O   0  0  0  0  0  0  0  0  0  0  0  0
   26.3078   34.7815   23.8888 N   0  0  0  0  0  0  0  0  0  0  0  0
   26.1390   35.9921   24.5341 C   0  0  0  0  0  0  0  0  0  0  0  0
   26.6476   37.1494   23.9823 C   0  0  1  0  0  0  0  0  0  0  0  0
   25.5464   36.0599   25.6096 O   0  0  0  0  0  0  0  0  0  0  0  0
   26.9844   39.5091   24.0967 C   0  0  2  0  0  0  0  0  0  0  0  0
   26.4737   38.3497   24.6435 N   0  0  0  0  0  0  0  0  0  0  0  0
   26.8085   40.7208   24.7605 C   0  0  0  0  0  0  0  0  0  0  0  0
   27.3130   41.8966   24.2139 C   0  0  1  0  0  0  0  0  0  0  0  0
   27.1235   43.1948   24.9490 C   0  0  0  0  0  0  0  0  0  0  0  0
   28.0008   41.8546   22.9958 C   0  0  1  0  0  0  0  0  0  0  0  0
   28.5697   43.1035   22.3882 C   0  0  0  0  0  0  0  0  0  0  0  0
   28.1750   40.6417   22.3360 C   0  0  0  0  0  0  0  0  0  0  0  0
   27.6688   39.4628   22.8785 C   0  0  2  0  0  0  0  0  0  0  0  0
   27.3313   37.0927   22.7732 C   0  0  2  0  0  0  0  0  0  0  0  0
   27.8339   38.2526   22.2155 N   0  0  0  0  0  0  0  0  0  0  0  0
  1  2  1  1  0  0  0
  1  3  1  0  0  0  0
  1  4  2  0  0  0  0
  1  6  1  0  0  0  0
  5  6  1  0  0  0  0
  7  5  1  6  0  0  0
  7  8  1  0  0  0  0
  7  9  1  0  0  0  0
  9 10  1  6  0  0  0
  9 11  1  0  0  0  0
 11 12  1  6  0  0  0
 11 13  1  0  0  0  0
 13 31  1  0  0  0  0
 14 15  1  0  0  0  0
 15 16  2  0  0  0  0
 15 17  1  0  0  0  0
 17 18  1  0  0  0  0
 18 20  2  0  0  0  0
 19 18  1  1  0  0  0
 19 22  1  0  0  0  0
 19 30  1  0  0  0  0
 21 23  1  6  0  0  0
 21 29  1  0  0  0  0
 21 22  1  0  0  0  0
 23 24  1  0  0  0  0
 24 25  1  1  0  0  0
 24 26  1  0  0  0  0
 26 27  1  1  0  0  0
 26 28  1  0  0  0  0
 29 28  1  6  0  0  0
 29 31  1  0  0  0  0
 30 14  1  6  0  0  0
 30 31  1  0  0  0  0
M  CHG  1   3  -1
M  END
>  <CHROM.1>
-173.49585421,-62.50500674,54.65757444,-51.64538335,-70.06307095,171.21585769
-95.22924494,28.02052978,37.21028518,20.90750125,0.92338226,-1.14462459,-2.88352618

>  <Name>
ligand

>  <RI>
0

>  <Rbt.Current_Directory>
/home/itssahil/PROJECTS/Mol_Feturizer/New_Systems/rnas/3F2Q

>  <Rbt.Executable>
rbdock ($Id: //depot/dev/client3/rdock/2013.1/src/exe/rbdock.cxx#4 $)

>  <Rbt.Library>
libRbt.so (2013.1, Build901 2013/11/27)

>  <Rbt.Parameter_File>
/export/apps/rDock/src/rDock_2013.1_src/data/scripts/dock_solv.prm

>  <Rbt.Receptor>
prm/pocket_docking_5.prm

>  <SCORE>
-28.4732

>  <SCORE.INTER>
-23.7149

>  <SCORE.INTER.CONST>
1

>  <SCORE.INTER.POLAR>
0

>  <SCORE.INTER.ROT>
7

>  <SCORE.INTER.SOLV>
12.3969

>  <SCORE.INTER.VDW>
-28.2089

>  <SCORE.INTER.norm>
-0.764996

>  <SCORE.INTRA>
-4.7583

>  <SCORE.INTRA.DIHEDRAL>
-7.30542

>  <SCORE.INTRA.DIHEDRAL.0>
10.0718

>  <SCORE.INTRA.POLAR>
0

>  <SCORE.INTRA.POLAR.0>
0

>  <SCORE.INTRA.REPUL>
0.00669039

>  <SCORE.INTRA.REPUL.0>
0

>  <SCORE.INTRA.SOLV>
-1.1261

>  <SCORE.INTRA.SOLV.lig_0>
-48.6963

>  <SCORE.INTRA.VDW>
-0.575994

>  <SCORE.INTRA.VDW.0>
-0.836976

>  <SCORE.INTRA.norm>
-0.153494

>  <SCORE.RESTR>
0

>  <SCORE.RESTR.CAVITY>
0

>  <SCORE.RESTR.norm>
0

>  <SCORE.SYSTEM>
0

>  <SCORE.SYSTEM.CONST>
0

>  <SCORE.SYSTEM.DIHEDRAL>
0

>  <SCORE.SYSTEM.SOLV>
0

>  <SCORE.SYSTEM.norm>
0

>  <SCORE.heavy>
31

>  <SCORE.norm>
-0.91849

>  <RMSD>
5.565

$$$$
ligand
 OpenBabel11021811473D
libRbt.so/2013.1/901 2013/11/27
 31 33  0  0  0  0  0  0  0  0999 V2000
   32.4525   34.4302   14.6009 P   0  0  1  0  0  0  0  0  0  0  0  0
   32.0307   33.0175   14.2575 O   0  0  0  0  0  0  0  0  0  0  0  0
   33.8837   34.3863   15.0643 O   0  5  0  0  0  0  0  0  0  0  0  0
   32.3428   35.3141   13.3890 O   0  0  0  0  0  0  0  0  0  0  0  0
   31.7197   36.2943   16.2652 C   0  0  0  0  0  0  0  0  0  0  0  0
   31.4624   35.0286   15.7074 O   0  0  0  0  0  0  0  0  0  0  0  0
   30.6464   36.6119   17.2960 C   0  0  1  0  0  0  0  0  0  0  0  0
   30.5958   35.5578   18.2339 O   0  0  0  0  0  0  0  0  0  0  0  0
   30.9579   37.9345   17.9962 C   0  0  1  0  0  0  0  0  0  0  0  0
   30.5729   39.0113   17.1687 O   0  0  0  0  0  0  0  0  0  0  0  0
   30.3330   38.0567   19.3930 C   0  0  1  0  0  0  0  0  0  0  0  0
   30.8751   39.1715   20.0656 O   0  0  0  0  0  0  0  0  0  0  0  0
   28.8193   38.1907   19.3457 C   0  0  0  0  0  0  0  0  0  0  0  0
   28.2039   35.6131   20.3257 N   0  0  0  0  0  0  0  0  0  0  0  0
   27.9682   34.3301   20.7764 C   0  0  0  0  0  0  0  0  0  0  0  0
   28.1247   33.3687   20.0185 O   0  0  0  0  0  0  0  0  0  0  0  0
   27.5474   34.1302   22.0756 N   0  0  0  0  0  0  0  0  0  0  0  0
   27.3622   35.2061   22.9234 C   0  0  0  0  0  0  0  0  0  0  0  0
   27.5985   36.4897   22.4772 C   0  0  1  0  0  0  0  0  0  0  0  0
   26.9963   35.0415   24.0859 O   0  0  0  0  0  0  0  0  0  0  0  0
   27.6520   38.8380   22.8984 C   0  0  2  0  0  0  0  0  0  0  0  0
   27.4128   37.5527   23.3397 N   0  0  0  0  0  0  0  0  0  0  0  0
   27.4635   39.9115   23.7655 C   0  0  0  0  0  0  0  0  0  0  0  0
   27.6946   41.2119   23.3281 C   0  0  1  0  0  0  0  0  0  0  0  0
   27.4966   42.3587   24.2805 C   0  0  0  0  0  0  0  0  0  0  0  0
   28.1207   41.4350   22.0139 C   0  0  1  0  0  0  0  0  0  0  0  0
   28.3929   42.8248   21.5170 C   0  0  0  0  0  0  0  0  0  0  0  0
   28.3085   40.3595   21.1507 C   0  0  0  0  0  0  0  0  0  0  0  0
   28.0753   39.0564   21.5839 C   0  0  2  0  0  0  0  0  0  0  0  0
   28.0243   36.6966   21.1701 C   0  0  2  0  0  0  0  0  0  0  0  0
   28.2533   37.9826   20.7198 N   0  0  0  0  0  0  0  0  0  0  0  0
  1  2  1  6  0  0  0
  1  3  1  0  0  0  0
  1  4  2  0  0  0  0
  1  6  1  0  0  0  0
  5  6  1  0  0  0  0
  7  5  1  6  0  0  0
  7  8  1  0  0  0  0
  7  9  1  0  0  0  0
  9 10  1  6  0  0  0
  9 11  1  0  0  0  0
 11 12  1  6  0  0  0
 11 13  1  0  0  0  0
 13 31  1  0  0  0  0
 14 15  1  0  0  0  0
 15 16  2  0  0  0  0
 15 17  1  0  0  0  0
 17 18  1  0  0  0  0
 18 20  2  0  0  0  0
 19 18  1  1  0  0  0
 19 22  1  0  0  0  0
 19 30  1  0  0  0  0
 21 23  1  6  0  0  0
 21 29  1  0  0  0  0
 21 22  1  0  0  0  0
 23 24  1  0  0  0  0
 24 25  1  1  0  0  0
 24 26  1  0  0  0  0
 26 27  1  1  0  0  0
 26 28  1  0  0  0  0
 29 28  1  6  0  0  0
 29 31  1  0  0  0  0
 30 14  1  6  0  0  0
 30 31  1  0  0  0  0
M  CHG  1   3  -1
M  END
>  <CHROM.1>
-179.19065475,174.86837583,54.54369672,79.42190037,168.58627517,166.82860687
90.37723423,29.49999552,37.06921680,19.53783688,-0.62993693,0.98998500,0.18230753

>  <Name>
ligand

>  <RI>
0

>  <Rbt.Current_Directory>
/home/itssahil/PROJECTS/Mol_Feturizer/New_Systems/rnas/3F2Q

>  <Rbt.Executable>
rbdock ($Id: //depot/dev/client3/rdock/2013.1/src/exe/rbdock.cxx#4 $)

>  <Rbt.Library>
libRbt.so (2013.1, Build901 2013/11/27)

>  <Rbt.Parameter_File>
/export/apps/rDock/src/rDock_2013.1_src/data/scripts/dock_solv.prm

>  <Rbt.Receptor>
prm/blind_docking_100.prm

>  <SCORE>
-26.2163

>  <SCORE.INTER>
-21.0737

>  <SCORE.INTER.CONST>
1

>  <SCORE.INTER.POLAR>
0

>  <SCORE.INTER.ROT>
7

>  <SCORE.INTER.SOLV>
16.1923

>  <SCORE.INTER.VDW>
-27.7132

>  <SCORE.INTER.norm>
-0.679796

>  <SCORE.INTRA>
-5.14263

>  <SCORE.INTRA.DIHEDRAL>
-6.40364

>  <SCORE.INTRA.DIHEDRAL.0>
10.0718

>  <SCORE.INTRA.POLAR>
0

>  <SCORE.INTRA.POLAR.0>
0

>  <SCORE.INTRA.REPUL>
0

>  <SCORE.INTRA.REPUL.0>
0

>  <SCORE.INTRA.SOLV>
-0.713833

>  <SCORE.INTRA.SOLV.lig_0>
-48.6963

>  <SCORE.INTRA.VDW>
-1.5839

>  <SCORE.INTRA.VDW.0>
-0.836976

>  <SCORE.INTRA.norm>
-0.165891

>  <SCORE.RESTR>
0

>  <SCORE.RESTR.CAVITY>
0

>  <SCORE.RESTR.norm>
0

>  <SCORE.SYSTEM>
0

>  <SCORE.SYSTEM.CONST>
0

>  <SCORE.SYSTEM.DIHEDRAL>
0

>  <SCORE.SYSTEM.SOLV>
0

>  <SCORE.SYSTEM.norm>
0

>  <SCORE.heavy>
31

>  <SCORE.norm>
-0.845687

>  <RMSD>
5.575

$$$$
ligand
 OpenBabel11021811473D
libRbt.so/2013.1/901 2013/11/27
 31 33  0  0  0  0  0  0  0  0999 V2000
   32.1088   34.7995   15.2138 P   0  0  1  0  0  0  0  0  0  0  0  0
   33.4786   34.9990   15.8265 O   0  0  0  0  0  0  0  0  0  0  0  0
   32.1483   35.3345   13.8076 O   0  5  0  0  0  0  0  0  0  0  0  0
   31.7602   33.3368   15.1861 O   0  0  0  0  0  0  0  0  0  0  0  0
   30.7168   35.0252   17.4031 C   0  0  0  0  0  0  0  0  0  0  0  0
   31.0077   35.5257   16.1209 O   0  0  0  0  0  0  0  0  0  0  0  0
   29.6100   35.8633   18.0259 C   0  0  1  0  0  0  0  0  0  0  0  0
   29.1676   35.2228   19.2037 O   0  0  0  0  0  0  0  0  0  0  0  0
   30.1226   37.2681   18.3429 C   0  0  1  0  0  0  0  0  0  0  0  0
   29.8091   38.1390   17.2772 O   0  0  0  0  0  0  0  0  0  0  0  0
   29.6161   37.8236   19.6813 C   0  0  1  0  0  0  0  0  0  0  0  0
   30.2291   39.0652   19.9487 O   0  0  0  0  0  0  0  0  0  0  0  0
   28.1059   37.9975   19.7072 C   0  0  0  0  0  0  0  0  0  0  0  0
   27.3121   35.6282   21.0263 N   0  0  0  0  0  0  0  0  0  0  0  0
   26.9843   34.4372   21.6416 C   0  0  0  0  0  0  0  0  0  0  0  0
   26.9879   33.3851   20.9965 O   0  0  0  0  0  0  0  0  0  0  0  0
   26.6434   34.4318   22.9791 N   0  0  0  0  0  0  0  0  0  0  0  0
   26.6293   35.6103   23.7012 C   0  0  0  0  0  0  0  0  0  0  0  0
   26.9582   36.8024   23.0902 C   0  0  1  0  0  0  0  0  0  0  0  0
   26.3363   35.6184   24.8955 O   0  0  0  0  0  0  0  0  0  0  0  0
   27.2756   39.1639   23.2220 C   0  0  2  0  0  0  0  0  0  0  0  0
   26.9434   37.9698   23.8285 N   0  0  0  0  0  0  0  0  0  0  0  0
   27.2595   40.3426   23.9638 C   0  0  0  0  0  0  0  0  0  0  0  0
   27.5855   41.5528   23.3598 C   0  0  1  0  0  0  0  0  0  0  0  0
   27.5735   42.8146   24.1779 C   0  0  0  0  0  0  0  0  0  0  0  0
   27.9329   41.5788   22.0043 C   0  0  1  0  0  0  0  0  0  0  0  0
   28.3040   42.8663   21.3281 C   0  0  0  0  0  0  0  0  0  0  0  0
   27.9484   40.3987   21.2667 C   0  0  0  0  0  0  0  0  0  0  0  0
   27.6198   39.1856   21.8670 C   0  0  2  0  0  0  0  0  0  0  0  0
   27.3042   36.8132   21.7438 C   0  0  2  0  0  0  0  0  0  0  0  0
   27.6257   38.0081   21.1288 N   0  0  0  0  0  0  0  0  0  0  0  0
  1  2  1  1  0  0  0
  1  3  1  0  0  0  0
  1  4  2  0  0  0  0
  1  6  1  0  0  0  0
  5  6  1  0  0  0  0
  7  5  1  1  0  0  0
  7  8  1  0  0  0  0
  7  9  1  0  0  0  0
  9 10  1  6  0  0  0
  9 11  1  0  0  0  0
 11 12  1  6  0  0  0
 11 13  1  0  0  0  0
 13 31  1  0  0  0  0
 14 15  1  0  0  0  0
 15 16  2  0  0  0  0
 15 17  1  0  0  0  0
 17 18  1  0  0  0  0
 18 20  2  0  0  0  0
 19 18  1  1  0  0  0
 19 22  1  0  0  0  0
 19 30  1  0  0  0  0
 21 23  1  6  0  0  0
 21 29  1  0  0  0  0
 21 22  1  0  0  0  0
 23 24  1  0  0  0  0
 24 25  1  1  0  0  0
 24 26  1  0  0  0  0
 26 27  1  1  0  0  0
 26 28  1  0  0  0  0
 29 28  1  6  0  0  0
 29 31  1  0  0  0  0
 30 14  1  6  0  0  0
 30 31  1  0  0  0  0
M  CHG  1   3  -1
M  END
>  <CHROM.1>
-178.03898970,-68.43223696,170.06565130,94.92496879,174.76766653,157.80927015
85.69701913,28.91606967,37.13051529,20.02437299,-0.63543052,0.96512584,0.20711863

>  <Name>
ligand

>  <RI>
0

>  <Rbt.Current_Directory>
/home/itssahil/PROJECTS/Mol_Feturizer/New_Systems/rnas/3F2Q

>  <Rbt.Executable>
rbdock ($Id: //depot/dev/client3/rdock/2013.1/src/exe/rbdock.cxx#4 $)

>  <Rbt.Library>
libRbt.so (2013.1, Build901 2013/11/27)

>  <Rbt.Parameter_File>
/export/apps/rDock/src/rDock_2013.1_src/data/scripts/dock_solv.prm

>  <Rbt.Receptor>
prm/blind_docking_60.prm

>  <SCORE>
-24.3342

>  <SCORE.INTER>
-21.0698

>  <SCORE.INTER.CONST>
1

>  <SCORE.INTER.POLAR>
0

>  <SCORE.INTER.ROT>
7

>  <SCORE.INTER.SOLV>
12.7352

>  <SCORE.INTER.VDW>
-26.5583

>  <SCORE.INTER.norm>
-0.67967

>  <SCORE.INTRA>
-3.26441

>  <SCORE.INTRA.DIHEDRAL>
-3.40734

>  <SCORE.INTRA.DIHEDRAL.0>
10.0718

>  <SCORE.INTRA.POLAR>
0

>  <SCORE.INTRA.POLAR.0>
0

>  <SCORE.INTRA.REPUL>
0

>  <SCORE.INTRA.REPUL.0>
0

>  <SCORE.INTRA.SOLV>
-0.778324

>  <SCORE.INTRA.SOLV.lig_0>
-48.6963

>  <SCORE.INTRA.VDW>
-1.17158

>  <SCORE.INTRA.VDW.0>
-0.836976

>  <SCORE.INTRA.norm>
-0.105304

>  <SCORE.RESTR>
0

>  <SCORE.RESTR.CAVITY>
0

>  <SCORE.RESTR.norm>
0

>  <SCORE.SYSTEM>
0

>  <SCORE.SYSTEM.CONST>
0

>  <SCORE.SYSTEM.DIHEDRAL>
0

>  <SCORE.SYSTEM.SOLV>
0

>  <SCORE.SYSTEM.norm>
0

>  <SCORE.heavy>
31

>  <SCORE.norm>
-0.784973

>  <RMSD>
5.581

$$$$
ligand
 OpenBabel11021811473D
libRbt.so/2013.1/901 2013/11/27
 31 33  0  0  0  0  0  0  0  0999 V2000
   25.2676   32.8538   14.5372 P   0  0  1  0  0  0  0  0  0  0  0  0
   24.4075   33.2000   13.3406 O   0  0  0  0  0  0  0  0  0  0  0  0
   24.3876   32.1940   15.5645 O   0  5  0  0  0  0  0  0  0  0  0  0
   26.3646   31.9080   14.1322 O   0  0  0  0  0  0  0  0  0  0  0  0
   26.7463   34.1254   16.2629 C   0  0  0  0  0  0  0  0  0  0  0  0
   25.9738   34.1805   15.0884 O   0  0  0  0  0  0  0  0  0  0  0  0
   27.2592   35.5207   16.5877 C   0  0  1  0  0  0  0  0  0  0  0  0
   26.1522   36.3830   16.7442 O   0  0  0  0  0  0  0  0  0  0  0  0
   28.0989   35.4935   17.8648 C   0  0  1  0  0  0  0  0  0  0  0  0
   29.2578   34.7158   17.6538 O   0  0  0  0  0  0  0  0  0  0  0  0
   28.4554   36.8874   18.4000 C   0  0  1  0  0  0  0  0  0  0  0  0
   29.0097   37.6710   17.3669 O   0  0  0  0  0  0  0  0  0  0  0  0
   27.2544   37.6125   18.9860 C   0  0  0  0  0  0  0  0  0  0  0  0
   27.1770   35.2826   20.5827 N   0  0  0  0  0  0  0  0  0  0  0  0
   27.1842   34.1117   21.3129 C   0  0  0  0  0  0  0  0  0  0  0  0
   26.9823   33.0308   20.7525 O   0  0  0  0  0  0  0  0  0  0  0  0
   27.4086   34.1581   22.6740 N   0  0  0  0  0  0  0  0  0  0  0  0
   27.6255   35.3684   23.3054 C   0  0  0  0  0  0  0  0  0  0  0  0
   27.6209   36.5407   22.5786 C   0  0  1  0  0  0  0  0  0  0  0  0
   27.8357   35.4231   24.5159 O   0  0  0  0  0  0  0  0  0  0  0  0
   27.8444   38.9153   22.5014 C   0  0  2  0  0  0  0  0  0  0  0  0
   27.8442   37.7407   23.2255 N   0  0  0  0  0  0  0  0  0  0  0  0
   28.0672   40.1267   23.1516 C   0  0  0  0  0  0  0  0  0  0  0  0
   28.0620   41.3174   22.4319 C   0  0  1  0  0  0  0  0  0  0  0  0
   28.3149   42.6154   23.1478 C   0  0  0  0  0  0  0  0  0  0  0  0
   27.8352   41.2909   21.0511 C   0  0  1  0  0  0  0  0  0  0  0  0
   27.8383   42.5568   20.2448 C   0  0  0  0  0  0  0  0  0  0  0  0
   27.6136   40.0783   20.4050 C   0  0  0  0  0  0  0  0  0  0  0  0
   27.6151   38.8844   21.1225 C   0  0  2  0  0  0  0  0  0  0  0  0
   27.3973   36.4995   21.2072 C   0  0  2  0  0  0  0  0  0  0  0  0
   27.3843   37.6741   20.4797 N   0  0  0  0  0  0  0  0  0  0  0  0
  1  2  1  6  0  0  0
  1  3  1  0  0  0  0
  1  4  2  0  0  0  0
  1  6  1  0  0  0  0
  5  6  1  0  0  0  0
  7  5  1  1  0  0  0
  7  8  1  0  0  0  0
  7  9  1  0  0  0  0
  9 10  1  6  0  0  0
  9 11  1  0  0  0  0
 11 12  1  6  0  0  0
 11 13  1  0  0  0  0
 13 31  1  0  0  0  0
 14 15  1  0  0  0  0
 15 16  2  0  0  0  0
 15 17  1  0  0  0  0
 17 18  1  0  0  0  0
 18 20  2  0  0  0  0
 19 18  1  6  0  0  0
 19 22  1  0  0  0  0
 19 30  1  0  0  0  0
 21 23  1  1  0  0  0
 21 29  1  0  0  0  0
 21 22  1  0  0  0  0
 23 24  1  0  0  0  0
 24 25  1  6  0  0  0
 24 26  1  0  0  0  0
 26 27  1  6  0  0  0
 26 28  1  0  0  0  0
 29 28  1  1  0  0  0
 29 31  1  0  0  0  0
 30 14  1  1  0  0  0
 30 31  1  0  0  0  0
M  CHG  1   3  -1
M  END
>  <CHROM.1>
-178.08737957,175.20534473,58.59887852,64.73510414,-50.87395882,108.48787033
111.08676635,27.18104281,36.31401439,19.22190907,-3.13271719,1.34923401,2.41326650

>  <Name>
ligand

>  <RI>
0

>  <Rbt.Current_Directory>
/home/itssahil/PROJECTS/Mol_Feturizer/New_Systems/rnas/3F2Q

>  <Rbt.Executable>
rbdock ($Id: //depot/dev/client3/rdock/2013.1/src/exe/rbdock.cxx#4 $)

>  <Rbt.Library>
libRbt.so (2013.1, Build901 2013/11/27)

>  <Rbt.Parameter_File>
/export/apps/rDock/src/rDock_2013.1_src/data/scripts/dock_solv.prm

>  <Rbt.Receptor>
prm/blind_docking_60.prm

>  <SCORE>
-21.7359

>  <SCORE.INTER>
-18.7599

>  <SCORE.INTER.CONST>
1

>  <SCORE.INTER.POLAR>
0

>  <SCORE.INTER.ROT>
7

>  <SCORE.INTER.SOLV>
10.3286

>  <SCORE.INTER.VDW>
-24.2161

>  <SCORE.INTER.norm>
-0.605159

>  <SCORE.INTRA>
-2.97593

>  <SCORE.INTRA.DIHEDRAL>
-3.58093

>  <SCORE.INTRA.DIHEDRAL.0>
10.0718

>  <SCORE.INTRA.POLAR>
0

>  <SCORE.INTRA.POLAR.0>
0

>  <SCORE.INTRA.REPUL>
0

>  <SCORE.INTRA.REPUL.0>
0

>  <SCORE.INTRA.SOLV>
-0.674061

>  <SCORE.INTRA.SOLV.lig_0>
-48.6963

>  <SCORE.INTRA.VDW>
-0.848431

>  <SCORE.INTRA.VDW.0>
-0.836976

>  <SCORE.INTRA.norm>
-0.0959977

>  <SCORE.RESTR>
0

>  <SCORE.RESTR.CAVITY>
0

>  <SCORE.RESTR.norm>
0

>  <SCORE.SYSTEM>
0

>  <SCORE.SYSTEM.CONST>
0

>  <SCORE.SYSTEM.DIHEDRAL>
0

>  <SCORE.SYSTEM.SOLV>
0

>  <SCORE.SYSTEM.norm>
0

>  <SCORE.heavy>
31

>  <SCORE.norm>
-0.701157

>  <RMSD>
5.582

$$$$
ligand
 OpenBabel11021811473D
libRbt.so/2013.1/901 2013/11/27
 31 33  0  0  0  0  0  0  0  0999 V2000
   33.0162   34.3305   15.3529 P   0  0  1  0  0  0  0  0  0  0  0  0
   33.5488   34.4351   13.9398 O   0  0  0  0  0  0  0  0  0  0  0  0
   32.0371   33.1882   15.3952 O   0  5  0  0  0  0  0  0  0  0  0  0
   34.1419   34.0643   16.3139 O   0  0  0  0  0  0  0  0  0  0  0  0
   32.1386   36.0093   17.1398 C   0  0  0  0  0  0  0  0  0  0  0  0
   32.3572   35.7257   15.7793 O   0  0  0  0  0  0  0  0  0  0  0  0
   31.2643   37.2492   17.2560 C   0  0  1  0  0  0  0  0  0  0  0  0
   29.9778   36.9419   16.7621 O   0  0  0  0  0  0  0  0  0  0  0  0
   31.1815   37.7056   18.7126 C   0  0  1  0  0  0  0  0  0  0  0  0
   32.4719   38.0356   19.1801 O   0  0  0  0  0  0  0  0  0  0  0  0
   30.1953   38.8590   18.9439 C   0  0  1  0  0  0  0  0  0  0  0  0
   30.3682   39.8450   17.9505 O   0  0  0  0  0  0  0  0  0  0  0  0
   28.7466   38.3978   18.9416 C   0  0  0  0  0  0  0  0  0  0  0  0
   28.2739   35.7086   19.6684 N   0  0  0  0  0  0  0  0  0  0  0  0
   28.1048   34.3763   19.9858 C   0  0  0  0  0  0  0  0  0  0  0  0
   28.1878   33.5145   19.1062 O   0  0  0  0  0  0  0  0  0  0  0  0
   27.8327   34.0151   21.2899 N   0  0  0  0  0  0  0  0  0  0  0  0
   27.7297   34.9793   22.2748 C   0  0  0  0  0  0  0  0  0  0  0  0
   27.9000   36.3118   21.9619 C   0  0  1  0  0  0  0  0  0  0  0  0
   27.4967   34.6705   23.4423 O   0  0  0  0  0  0  0  0  0  0  0  0
   27.9720   38.5952   22.6517 C   0  0  2  0  0  0  0  0  0  0  0  0
   27.7983   37.2614   22.9599 N   0  0  0  0  0  0  0  0  0  0  0  0
   27.8679   39.5547   23.6559 C   0  0  0  0  0  0  0  0  0  0  0  0
   28.0338   40.9027   23.3541 C   0  0  1  0  0  0  0  0  0  0  0  0
   27.9287   41.9247   24.4522 C   0  0  0  0  0  0  0  0  0  0  0  0
   28.3092   41.2887   22.0374 C   0  0  1  0  0  0  0  0  0  0  0  0
   28.5082   42.7336   21.6832 C   0  0  0  0  0  0  0  0  0  0  0  0
   28.4131   40.3268   21.0370 C   0  0  0  0  0  0  0  0  0  0  0  0
   28.2447   38.9766   21.3345 C   0  0  2  0  0  0  0  0  0  0  0  0
   28.1761   36.6809   20.6503 C   0  0  2  0  0  0  0  0  0  0  0  0
   28.3387   38.0161   20.3344 N   0  0  0  0  0  0  0  0  0  0  0  0
  1  2  1  6  0  0  0
  1  3  1  0  0  0  0
  1  4  2  0  0  0  0
  1  6  1  0  0  0  0
  5  6  1  0  0  0  0
  7  5  1  1  0  0  0
  7  8  1  0  0  0  0
  7  9  1  0  0  0  0
  9 10  1  6  0  0  0
  9 11  1  0  0  0  0
 11 12  1  6  0  0  0
 11 13  1  0  0  0  0
 13 31  1  0  0  0  0
 14 15  1  0  0  0  0
 15 16  2  0  0  0  0
 15 17  1  0  0  0  0
 17 18  1  0  0  0  0
 18 20  2  0  0  0  0
 19 18  1  1  0  0  0
 19 22  1  0  0  0  0
 19 30  1  0  0  0  0
 21 23  1  6  0  0  0
 21 29  1  0  0  0  0
 21 22  1  0  0  0  0
 23 24  1  0  0  0  0
 24 25  1  1  0  0  0
 24 26  1  0  0  0  0
 26 27  1  1  0  0  0
 26 28  1  0  0  0  0
 29 28  1  6  0  0  0
 29 31  1  0  0  0  0
 30 14  1  6  0  0  0
 30 31  1  0  0  0  0
M  CHG  1   3  -1
M  END
>  <CHROM.1>
-168.83408092,-161.95941582,67.32706781,61.15948926,-45.22445647,89.66169194
66.95088836,29.81310070,37.04613921,19.46488768,-0.69575891,0.89136373,0.20999799

>  <Name>
ligand

>  <RI>
0

>  <Rbt.Current_Directory>
/home/itssahil/PROJECTS/Mol_Feturizer/New_Systems/rnas/3F2Q

>  <Rbt.Executable>
rbdock ($Id: //depot/dev/client3/rdock/2013.1/src/exe/rbdock.cxx#4 $)

>  <Rbt.Library>
libRbt.so (2013.1, Build901 2013/11/27)

>  <Rbt.Parameter_File>
/export/apps/rDock/src/rDock_2013.1_src/data/scripts/dock_solv.prm

>  <Rbt.Receptor>
prm/pocket_docking_7.prm

>  <SCORE>
-26.8529

>  <SCORE.INTER>
-23.1044

>  <SCORE.INTER.CONST>
1

>  <SCORE.INTER.POLAR>
0

>  <SCORE.INTER.ROT>
7

>  <SCORE.INTER.SOLV>
12.6989

>  <SCORE.INTER.VDW>
-27.9026

>  <SCORE.INTER.norm>
-0.745303

>  <SCORE.INTRA>
-3.74855

>  <SCORE.INTRA.DIHEDRAL>
-4.26142

>  <SCORE.INTRA.DIHEDRAL.0>
10.0718

>  <SCORE.INTRA.POLAR>
0

>  <SCORE.INTRA.POLAR.0>
0

>  <SCORE.INTRA.REPUL>
0

>  <SCORE.INTRA.REPUL.0>
0

>  <SCORE.INTRA.SOLV>
-0.762807

>  <SCORE.INTRA.SOLV.lig_0>
-48.6963

>  <SCORE.INTRA.VDW>
-1.23643

>  <SCORE.INTRA.VDW.0>
-0.836976

>  <SCORE.INTRA.norm>
-0.120921

>  <SCORE.RESTR>
0

>  <SCORE.RESTR.CAVITY>
0

>  <SCORE.RESTR.norm>
0

>  <SCORE.SYSTEM>
0

>  <SCORE.SYSTEM.CONST>
0

>  <SCORE.SYSTEM.DIHEDRAL>
0

>  <SCORE.SYSTEM.SOLV>
0

>  <SCORE.SYSTEM.norm>
0

>  <SCORE.heavy>
31

>  <SCORE.norm>
-0.866224

>  <RMSD>
5.584

$$$$
ligand
 OpenBabel11021811473D
libRbt.so/2013.1/901 2013/11/27
 31 33  0  0  0  0  0  0  0  0999 V2000
   29.0586   42.4653   24.0012 P   0  0  1  0  0  0  0  0  0  0  0  0
   29.8596   41.6197   23.0342 O   0  0  0  0  0  0  0  0  0  0  0  0
   29.1582   41.8314   25.3626 O   0  5  0  0  0  0  0  0  0  0  0  0
   29.6151   43.8615   24.0544 O   0  0  0  0  0  0  0  0  0  0  0  0
   26.7452   41.4309   23.4014 C   0  0  0  0  0  0  0  0  0  0  0  0
   27.5486   42.5829   23.4830 O   0  0  0  0  0  0  0  0  0  0  0  0
   25.5475   41.7210   22.5088 C   0  0  1  0  0  0  0  0  0  0  0  0
   24.9077   42.8888   22.9781 O   0  0  0  0  0  0  0  0  0  0  0  0
   25.9978   41.9051   21.0597 C   0  0  1  0  0  0  0  0  0  0  0  0
   27.0599   42.8335   21.0075 O   0  0  0  0  0  0  0  0  0  0  0  0
   26.3725   40.5927   20.3572 C   0  0  1  0  0  0  0  0  0  0  0  0
   26.3748   40.7800   18.9594 O   0  0  0  0  0  0  0  0  0  0  0  0
   27.7306   40.0651   20.7916 C   0  0  0  0  0  0  0  0  0  0  0  0
   28.8087   40.3101   18.1914 N   0  0  0  0  0  0  0  0  0  0  0  0
   29.3798   40.4839   16.9471 C   0  0  0  0  0  0  0  0  0  0  0  0
   29.4996   41.6171   16.4732 O   0  0  0  0  0  0  0  0  0  0  0  0
   29.8067   39.3826   16.2329 N   0  0  0  0  0  0  0  0  0  0  0  0
   29.6648   38.1117   16.7575 C   0  0  0  0  0  0  0  0  0  0  0  0
   29.0962   37.9342   18.0016 C   0  0  1  0  0  0  0  0  0  0  0  0
   30.0491   37.1227   16.1356 O   0  0  0  0  0  0  0  0  0  0  0  0
   28.4021   36.4756   19.7581 C   0  0  2  0  0  0  0  0  0  0  0  0
   28.9667   36.6572   18.5122 N   0  0  0  0  0  0  0  0  0  0  0  0
   28.2686   35.1889   20.2743 C   0  0  0  0  0  0  0  0  0  0  0  0
   27.6938   34.9944   21.5263 C   0  0  1  0  0  0  0  0  0  0  0  0
   27.5670   33.5994   22.0733 C   0  0  0  0  0  0  0  0  0  0  0  0
   27.2539   36.0985   22.2653 C   0  0  1  0  0  0  0  0  0  0  0  0
   26.6434   35.9225   23.6251 C   0  0  0  0  0  0  0  0  0  0  0  0
   27.3896   37.3827   21.7462 C   0  0  0  0  0  0  0  0  0  0  0  0
   27.9619   37.5813   20.4920 C   0  0  2  0  0  0  0  0  0  0  0  0
   28.6663   39.0400   18.7260 C   0  0  2  0  0  0  0  0  0  0  0  0
   28.0891   38.8625   19.9687 N   0  0  0  0  0  0  0  0  0  0  0  0
  1  2  1  6  0  0  0
  1  3  1  0  0  0  0
  1  4  2  0  0  0  0
  1  6  1  0  0  0  0
  5  6  1  0  0  0  0
  7  5  1  1  0  0  0
  7  8  1  0  0  0  0
  7  9  1  0  0  0  0
  9 10  1  1  0  0  0
  9 11  1  0  0  0  0
 11 12  1  6  0  0  0
 11 13  1  0  0  0  0
 13 31  1  0  0  0  0
 14 15  1  0  0  0  0
 15 16  2  0  0  0  0
 15 17  1  0  0  0  0
 17 18  1  0  0  0  0
 18 20  2  0  0  0  0
 19 18  1  1  0  0  0
 19 22  1  0  0  0  0
 19 30  1  0  0  0  0
 21 23  1  6  0  0  0
 21 29  1  0  0  0  0
 21 22  1  0  0  0  0
 23 24  1  0  0  0  0
 24 25  1  1  0  0  0
 24 26  1  0  0  0  0
 26 27  1  1  0  0  0
 26 28  1  0  0  0  0
 29 28  1  6  0  0  0
 29 31  1  0  0  0  0
 30 14  1  6  0  0  0
 30 31  1  0  0  0  0
M  CHG  1   3  -1
M  END
>  <CHROM.1>
-162.91521208,64.04206320,-52.71832425,-50.50368074,162.09858979,-174.38482314
-102.45873264,28.07866995,39.66333270,20.80719121,2.11993718,1.31332160,0.21460137

>  <Name>
ligand

>  <RI>
0

>  <Rbt.Current_Directory>
/home/itssahil/PROJECTS/Mol_Feturizer/New_Systems/rnas/3F2Q

>  <Rbt.Executable>
rbdock ($Id: //depot/dev/client3/rdock/2013.1/src/exe/rbdock.cxx#4 $)

>  <Rbt.Library>
libRbt.so (2013.1, Build901 2013/11/27)

>  <Rbt.Parameter_File>
/export/apps/rDock/src/rDock_2013.1_src/data/scripts/dock_solv.prm

>  <Rbt.Receptor>
prm/blind_docking_60.prm

>  <SCORE>
-25.0607

>  <SCORE.INTER>
-21.7964

>  <SCORE.INTER.CONST>
1

>  <SCORE.INTER.POLAR>
0

>  <SCORE.INTER.ROT>
7

>  <SCORE.INTER.SOLV>
17.5822

>  <SCORE.INTER.VDW>
-28.6583

>  <SCORE.INTER.norm>
-0.703109

>  <SCORE.INTRA>
-3.26432

>  <SCORE.INTRA.DIHEDRAL>
-5.45598

>  <SCORE.INTRA.DIHEDRAL.0>
10.0718

>  <SCORE.INTRA.POLAR>
0

>  <SCORE.INTRA.POLAR.0>
0

>  <SCORE.INTRA.REPUL>
0

>  <SCORE.INTRA.REPUL.0>
0

>  <SCORE.INTRA.SOLV>
-0.271492

>  <SCORE.INTRA.SOLV.lig_0>
-48.6963

>  <SCORE.INTRA.VDW>
-0.400585

>  <SCORE.INTRA.VDW.0>
-0.836976

>  <SCORE.INTRA.norm>
-0.105301

>  <SCORE.RESTR>
0

>  <SCORE.RESTR.CAVITY>
0

>  <SCORE.RESTR.norm>
0

>  <SCORE.SYSTEM>
0

>  <SCORE.SYSTEM.CONST>
0

>  <SCORE.SYSTEM.DIHEDRAL>
0

>  <SCORE.SYSTEM.SOLV>
0

>  <SCORE.SYSTEM.norm>
0

>  <SCORE.heavy>
31

>  <SCORE.norm>
-0.808409

>  <RMSD>
5.588

$$$$
ligand
 OpenBabel11021811473D
libRbt.so/2013.1/901 2013/11/27
 31 33  0  0  0  0  0  0  0  0999 V2000
   28.1957   33.4513   13.3194 P   0  0  1  0  0  0  0  0  0  0  0  0
   28.7063   32.1146   13.8134 O   0  0  0  0  0  0  0  0  0  0  0  0
   29.3436   34.1722   12.6653 O   0  5  0  0  0  0  0  0  0  0  0  0
   27.0927   33.2479   12.3175 O   0  0  0  0  0  0  0  0  0  0  0  0
   27.0804   35.5721   14.3390 C   0  0  0  0  0  0  0  0  0  0  0  0
   27.5697   34.2692   14.5448 O   0  0  0  0  0  0  0  0  0  0  0  0
   26.5650   36.1251   15.6596 C   0  0  1  0  0  0  0  0  0  0  0  0
   25.5550   35.2661   16.1448 O   0  0  0  0  0  0  0  0  0  0  0  0
   27.7058   36.2321   16.6715 C   0  0  1  0  0  0  0  0  0  0  0  0
   28.7286   37.0520   16.1480 O   0  0  0  0  0  0  0  0  0  0  0  0
   27.2593   36.7181   18.0574 C   0  0  1  0  0  0  0  0  0  0  0  0
   26.3302   35.8111   18.6079 O   0  0  0  0  0  0  0  0  0  0  0  0
   28.4237   36.8849   19.0207 C   0  0  0  0  0  0  0  0  0  0  0  0
   27.9054   34.8531   20.9145 N   0  0  0  0  0  0  0  0  0  0  0  0
   27.7170   33.8291   21.8202 C   0  0  0  0  0  0  0  0  0  0  0  0
   27.8795   32.6563   21.4719 O   0  0  0  0  0  0  0  0  0  0  0  0
   27.3368   34.1241   23.1138 N   0  0  0  0  0  0  0  0  0  0  0  0
   27.1449   35.4362   23.5036 C   0  0  0  0  0  0  0  0  0  0  0  0
   27.3341   36.4626   22.6018 C   0  0  1  0  0  0  0  0  0  0  0  0
   26.8149   35.7136   24.6554 O   0  0  0  0  0  0  0  0  0  0  0  0
   27.3345   38.7982   22.1120 C   0  0  2  0  0  0  0  0  0  0  0  0
   27.1425   37.7683   23.0101 N   0  0  0  0  0  0  0  0  0  0  0  0
   27.1400   40.1154   22.5208 C   0  0  0  0  0  0  0  0  0  0  0  0
   27.3237   41.1606   21.6210 C   0  0  1  0  0  0  0  0  0  0  0  0
   27.1198   42.5775   22.0817 C   0  0  0  0  0  0  0  0  0  0  0  0
   27.7082   40.8815   20.3046 C   0  0  1  0  0  0  0  0  0  0  0  0
   27.9288   41.9879   19.3148 C   0  0  0  0  0  0  0  0  0  0  0  0
   27.9022   39.5640   19.9003 C   0  0  0  0  0  0  0  0  0  0  0  0
   27.7164   38.5147   20.7973 C   0  0  2  0  0  0  0  0  0  0  0  0
   27.7189   36.1712   21.2981 C   0  0  2  0  0  0  0  0  0  0  0  0
   27.9006   37.1982   20.3918 N   0  0  0  0  0  0  0  0  0  0  0  0
  1  2  1  1  0  0  0
  1  3  1  0  0  0  0
  1  4  2  0  0  0  0
  1  6  1  0  0  0  0
  5  6  1  0  0  0  0
  7  5  1  6  0  0  0
  7  8  1  0  0  0  0
  7  9  1  0  0  0  0
  9 10  1  6  0  0  0
  9 11  1  0  0  0  0
 11 12  1  1  0  0  0
 11 13  1  0  0  0  0
 13 31  1  0  0  0  0
 14 15  1  0  0  0  0
 15 16  2  0  0  0  0
 15 17  1  0  0  0  0
 17 18  1  0  0  0  0
 18 20  2  0  0  0  0
 19 18  1  1  0  0  0
 19 22  1  0  0  0  0
 19 30  1  0  0  0  0
 21 23  1  6  0  0  0
 21 29  1  0  0  0  0
 21 22  1  0  0  0  0
 23 24  1  0  0  0  0
 24 25  1  1  0  0  0
 24 26  1  0  0  0  0
 26 27  1  1  0  0  0
 26 28  1  0  0  0  0
 29 28  1  6  0  0  0
 29 31  1  0  0  0  0
 30 14  1  6  0  0  0
 30 31  1  0  0  0  0
M  CHG  1   3  -1
M  END
>  <CHROM.1>
-179.14540970,177.27168969,-58.37560658,57.63579343,61.14245997,-173.18163228
-91.15839624,27.56587330,36.36109593,18.71448143,0.38142646,-1.51208539,3.03070421

>  <Name>
ligand

>  <RI>
0

>  <Rbt.Current_Directory>
/home/itssahil/PROJECTS/Mol_Feturizer/New_Systems/rnas/3F2Q

>  <Rbt.Executable>
rbdock ($Id: //depot/dev/client3/rdock/2013.1/src/exe/rbdock.cxx#4 $)

>  <Rbt.Library>
libRbt.so (2013.1, Build901 2013/11/27)

>  <Rbt.Parameter_File>
/export/apps/rDock/src/rDock_2013.1_src/data/scripts/dock_solv.prm

>  <Rbt.Receptor>
prm/pocket_docking_7.prm

>  <SCORE>
-24.3407

>  <SCORE.INTER>
-18.8768

>  <SCORE.INTER.CONST>
1

>  <SCORE.INTER.POLAR>
0

>  <SCORE.INTER.ROT>
7

>  <SCORE.INTER.SOLV>
10.8014

>  <SCORE.INTER.VDW>
-24.4517

>  <SCORE.INTER.norm>
-0.608929

>  <SCORE.INTRA>
-5.46386

>  <SCORE.INTRA.DIHEDRAL>
-8.33765

>  <SCORE.INTRA.DIHEDRAL.0>
10.0718

>  <SCORE.INTRA.POLAR>
0

>  <SCORE.INTRA.POLAR.0>
0

>  <SCORE.INTRA.REPUL>
0

>  <SCORE.INTRA.REPUL.0>
0

>  <SCORE.INTRA.SOLV>
-0.494635

>  <SCORE.INTRA.SOLV.lig_0>
-48.6963

>  <SCORE.INTRA.VDW>
-1.04772

>  <SCORE.INTRA.VDW.0>
-0.836976

>  <SCORE.INTRA.norm>
-0.176253

>  <SCORE.RESTR>
0

>  <SCORE.RESTR.CAVITY>
0

>  <SCORE.RESTR.norm>
0

>  <SCORE.SYSTEM>
0

>  <SCORE.SYSTEM.CONST>
0

>  <SCORE.SYSTEM.DIHEDRAL>
0

>  <SCORE.SYSTEM.SOLV>
0

>  <SCORE.SYSTEM.norm>
0

>  <SCORE.heavy>
31

>  <SCORE.norm>
-0.785182

>  <RMSD>
5.589

$$$$
ligand
 OpenBabel11021811473D
libRbt.so/2013.1/901 2013/11/27
 31 33  0  0  0  0  0  0  0  0999 V2000
   26.9704   36.8326   16.5716 P   0  0  1  0  0  0  0  0  0  0  0  0
   28.4448   36.4902   16.5501 O   0  0  0  0  0  0  0  0  0  0  0  0
   26.4047   36.5287   15.2104 O   0  5  0  0  0  0  0  0  0  0  0  0
   26.2602   36.0057   17.6078 O   0  0  0  0  0  0  0  0  0  0  0  0
   27.4228   38.8594   18.1429 C   0  0  0  0  0  0  0  0  0  0  0  0
   26.7850   38.3666   16.9898 O   0  0  0  0  0  0  0  0  0  0  0  0
   27.0825   40.3332   18.3091 C   0  0  1  0  0  0  0  0  0  0  0  0
   25.6908   40.4544   18.5139 O   0  0  0  0  0  0  0  0  0  0  0  0
   27.8493   40.9248   19.4918 C   0  0  1  0  0  0  0  0  0  0  0  0
   27.5145   42.2881   19.6397 O   0  0  0  0  0  0  0  0  0  0  0  0
   27.6468   40.1575   20.8059 C   0  0  1  0  0  0  0  0  0  0  0  0
   26.3214   39.6823   20.8850 O   0  0  0  0  0  0  0  0  0  0  0  0
   28.6056   38.9868   20.9521 C   0  0  0  0  0  0  0  0  0  0  0  0
   27.6801   39.7999   23.4948 N   0  0  0  0  0  0  0  0  0  0  0  0
   27.1937   40.2545   24.7036 C   0  0  0  0  0  0  0  0  0  0  0  0
   27.3076   41.4449   25.0091 O   0  0  0  0  0  0  0  0  0  0  0  0
   26.5887   39.3685   25.5720 N   0  0  0  0  0  0  0  0  0  0  0  0
   26.4686   38.0331   25.2362 C   0  0  0  0  0  0  0  0  0  0  0  0
   26.9517   37.5753   24.0281 C   0  0  1  0  0  0  0  0  0  0  0  0
   25.9236   37.2349   25.9967 O   0  0  0  0  0  0  0  0  0  0  0  0
   27.2971   35.7771   22.4978 C   0  0  2  0  0  0  0  0  0  0  0  0
   26.8187   36.2383   23.7071 N   0  0  0  0  0  0  0  0  0  0  0  0
   27.1661   34.4291   22.1727 C   0  0  0  0  0  0  0  0  0  0  0  0
   27.6519   33.9526   20.9592 C   0  0  1  0  0  0  0  0  0  0  0  0
   27.4926   32.4964   20.6194 C   0  0  0  0  0  0  0  0  0  0  0  0
   28.2695   34.8354   20.0659 C   0  0  1  0  0  0  0  0  0  0  0  0
   28.7901   34.3546   18.7429 C   0  0  0  0  0  0  0  0  0  0  0  0
   28.3979   36.1817   20.3942 C   0  0  0  0  0  0  0  0  0  0  0  0
   27.9155   36.6620   21.6094 C   0  0  2  0  0  0  0  0  0  0  0  0
   27.5603   38.4637   23.1490 C   0  0  2  0  0  0  0  0  0  0  0  0
   28.0520   38.0045   21.9422 N   0  0  0  0  0  0  0  0  0  0  0  0
  1  2  1  1  0  0  0
  1  3  1  0  0  0  0
  1  4  2  0  0  0  0
  1  6  1  0  0  0  0
  5  6  1  0  0  0  0
  7  5  1  1  0  0  0
  7  8  1  0  0  0  0
  7  9  1  0  0  0  0
  9 10  1  1  0  0  0
  9 11  1  0  0  0  0
 11 12  1  6  0  0  0
 11 13  1  0  0  0  0
 13 31  1  0  0  0  0
 14 15  1  0  0  0  0
 15 16  2  0  0  0  0
 15 17  1  0  0  0  0
 17 18  1  0  0  0  0
 18 20  2  0  0  0  0
 19 18  1  6  0  0  0
 19 22  1  0  0  0  0
 19 30  1  0  0  0  0
 21 23  1  1  0  0  0
 21 29  1  0  0  0  0
 21 22  1  0  0  0  0
 23 24  1  0  0  0  0
 24 25  1  6  0  0  0
 24 26  1  0  0  0  0
 26 27  1  6  0  0  0
 26 28  1  0  0  0  0
 29 28  1  1  0  0  0
 29 31  1  0  0  0  0
 30 14  1  1  0  0  0
 30 31  1  0  0  0  0
M  CHG  1   3  -1
M  END
>  <CHROM.1>
-179.96963186,-50.85321606,63.28611731,-179.50603835,-36.08296648,-158.97122042
127.02991183,27.26618910,37.79085718,20.66925272,1.05620249,1.50389188,-1.35675823

>  <Name>
ligand

>  <RI>
0

>  <Rbt.Current_Directory>
/home/itssahil/PROJECTS/Mol_Feturizer/New_Systems/rnas/3F2Q

>  <Rbt.Executable>
rbdock ($Id: //depot/dev/client3/rdock/2013.1/src/exe/rbdock.cxx#4 $)

>  <Rbt.Library>
libRbt.so (2013.1, Build901 2013/11/27)

>  <Rbt.Parameter_File>
/export/apps/rDock/src/rDock_2013.1_src/data/scripts/dock_solv.prm

>  <Rbt.Receptor>
prm/pocket_docking_4.prm

>  <SCORE>
-24.1643

>  <SCORE.INTER>
-21.8586

>  <SCORE.INTER.CONST>
1

>  <SCORE.INTER.POLAR>
0

>  <SCORE.INTER.ROT>
7

>  <SCORE.INTER.SOLV>
17.0888

>  <SCORE.INTER.VDW>
-28.5353

>  <SCORE.INTER.norm>
-0.705115

>  <SCORE.INTRA>
-2.30578

>  <SCORE.INTRA.DIHEDRAL>
-5.27136

>  <SCORE.INTRA.DIHEDRAL.0>
10.0718

>  <SCORE.INTRA.POLAR>
0

>  <SCORE.INTRA.POLAR.0>
0

>  <SCORE.INTRA.REPUL>
0

>  <SCORE.INTRA.REPUL.0>
0

>  <SCORE.INTRA.SOLV>
0.829222

>  <SCORE.INTRA.SOLV.lig_0>
-48.6963

>  <SCORE.INTRA.VDW>
-0.084713

>  <SCORE.INTRA.VDW.0>
-0.836976

>  <SCORE.INTRA.norm>
-0.07438

>  <SCORE.RESTR>
0

>  <SCORE.RESTR.CAVITY>
0

>  <SCORE.RESTR.norm>
0

>  <SCORE.SYSTEM>
0

>  <SCORE.SYSTEM.CONST>
0

>  <SCORE.SYSTEM.DIHEDRAL>
0

>  <SCORE.SYSTEM.SOLV>
0

>  <SCORE.SYSTEM.norm>
0

>  <SCORE.heavy>
31

>  <SCORE.norm>
-0.779495

>  <RMSD>
5.594

$$$$
ligand
 OpenBabel11021811473D
libRbt.so/2013.1/901 2013/11/27
 31 33  0  0  0  0  0  0  0  0999 V2000
   31.3833   34.0198   15.8535 P   0  0  1  0  0  0  0  0  0  0  0  0
   31.2297   35.2108   14.9318 O   0  0  0  0  0  0  0  0  0  0  0  0
   30.7013   32.8438   15.2077 O   0  5  0  0  0  0  0  0  0  0  0  0
   32.8398   33.7064   16.0589 O   0  0  0  0  0  0  0  0  0  0  0  0
   29.3866   34.5569   17.4367 C   0  0  0  0  0  0  0  0  0  0  0  0
   30.7741   34.3752   17.2905 O   0  0  0  0  0  0  0  0  0  0  0  0
   28.9750   35.8399   16.7297 C   0  0  1  0  0  0  0  0  0  0  0  0
   27.5672   35.9417   16.7634 O   0  0  0  0  0  0  0  0  0  0  0  0
   29.6138   37.0499   17.4112 C   0  0  1  0  0  0  0  0  0  0  0  0
   29.2449   38.2286   16.7278 O   0  0  0  0  0  0  0  0  0  0  0  0
   29.2967   37.1543   18.9095 C   0  0  1  0  0  0  0  0  0  0  0  0
   30.0741   38.1752   19.4947 O   0  0  0  0  0  0  0  0  0  0  0  0
   27.8261   37.4323   19.1770 C   0  0  0  0  0  0  0  0  0  0  0  0
   27.4931   35.2411   20.9295 N   0  0  0  0  0  0  0  0  0  0  0  0
   27.3870   34.1369   21.7505 C   0  0  0  0  0  0  0  0  0  0  0  0
   27.3662   33.0029   21.2639 O   0  0  0  0  0  0  0  0  0  0  0  0
   27.2945   34.3093   23.1168 N   0  0  0  0  0  0  0  0  0  0  0  0
   27.3079   35.5788   23.6633 C   0  0  0  0  0  0  0  0  0  0  0  0
   27.4158   36.6848   22.8462 C   0  0  1  0  0  0  0  0  0  0  0  0
   27.2353   35.7461   24.8795 O   0  0  0  0  0  0  0  0  0  0  0  0
   27.5442   39.0546   22.5964 C   0  0  2  0  0  0  0  0  0  0  0  0
   27.4324   37.9458   23.4101 N   0  0  0  0  0  0  0  0  0  0  0  0
   27.5591   40.3271   23.1624 C   0  0  0  0  0  0  0  0  0  0  0  0
   27.6639   41.4519   22.3502 C   0  0  1  0  0  0  0  0  0  0  0  0
   27.6893   42.8179   22.9785 C   0  0  0  0  0  0  0  0  0  0  0  0
   27.7577   41.2976   20.9624 C   0  0  1  0  0  0  0  0  0  0  0  0
   27.8869   42.4906   20.0610 C   0  0  0  0  0  0  0  0  0  0  0  0
   27.7431   40.0243   20.4008 C   0  0  0  0  0  0  0  0  0  0  0  0
   27.6353   38.8959   21.2103 C   0  0  2  0  0  0  0  0  0  0  0  0
   27.5112   36.5168   21.4695 C   0  0  2  0  0  0  0  0  0  0  0  0
   27.6109   37.6245   20.6496 N   0  0  0  0  0  0  0  0  0  0  0  0
  1  2  1  6  0  0  0
  1  3  1  0  0  0  0
  1  4  2  0  0  0  0
  1  6  1  0  0  0  0
  5  6  1  0  0  0  0
  7  5  1  1  0  0  0
  7  8  1  0  0  0  0
  7  9  1  0  0  0  0
  9 10  1  6  0  0  0
  9 11  1  0  0  0  0
 11 12  1  6  0  0  0
 11 13  1  0  0  0  0
 13 31  1  0  0  0  0
 14 15  1  0  0  0  0
 15 16  2  0  0  0  0
 15 17  1  0  0  0  0
 17 18  1  0  0  0  0
 18 20  2  0  0  0  0
 19 18  1  1  0  0  0
 19 22  1  0  0  0  0
 19 30  1  0  0  0  0
 21 23  1  6  0  0  0
 21 29  1  0  0  0  0
 21 22  1  0  0  0  0
 23 24  1  0  0  0  0
 24 25  1  1  0  0  0
 24 26  1  0  0  0  0
 26 27  1  1  0  0  0
 26 28  1  0  0  0  0
 29 28  1  6  0  0  0
 29 31  1  0  0  0  0
 30 14  1  6  0  0  0
 30 31  1  0  0  0  0
M  CHG  1   3  -1
M  END
>  <CHROM.1>
-69.30173633,68.17503953,174.03455785,178.80413004,171.52310778,-175.72643921
93.56105531,28.71919847,36.80414090,19.68746609,-0.51010047,1.12826971,-0.11063890

>  <Name>
ligand

>  <RI>
0

>  <Rbt.Current_Directory>
/home/itssahil/PROJECTS/Mol_Feturizer/New_Systems/rnas/3F2Q

>  <Rbt.Executable>
rbdock ($Id: //depot/dev/client3/rdock/2013.1/src/exe/rbdock.cxx#4 $)

>  <Rbt.Library>
libRbt.so (2013.1, Build901 2013/11/27)

>  <Rbt.Parameter_File>
/export/apps/rDock/src/rDock_2013.1_src/data/scripts/dock_solv.prm

>  <Rbt.Receptor>
prm/blind_docking_60.prm

>  <SCORE>
-24.0902

>  <SCORE.INTER>
-18.8797

>  <SCORE.INTER.CONST>
1

>  <SCORE.INTER.POLAR>
0

>  <SCORE.INTER.ROT>
7

>  <SCORE.INTER.SOLV>
9.24214

>  <SCORE.INTER.VDW>
-23.9338

>  <SCORE.INTER.norm>
-0.609022

>  <SCORE.INTRA>
-5.21494

>  <SCORE.INTRA.DIHEDRAL>
-7.91419

>  <SCORE.INTRA.DIHEDRAL.0>
10.0718

>  <SCORE.INTRA.POLAR>
0

>  <SCORE.INTRA.POLAR.0>
0

>  <SCORE.INTRA.REPUL>
0

>  <SCORE.INTRA.REPUL.0>
0

>  <SCORE.INTRA.SOLV>
-0.258931

>  <SCORE.INTRA.SOLV.lig_0>
-48.6963

>  <SCORE.INTRA.VDW>
-1.12838

>  <SCORE.INTRA.VDW.0>
-0.836976

>  <SCORE.INTRA.norm>
-0.168224

>  <SCORE.RESTR>
0.00440559

>  <SCORE.RESTR.CAVITY>
0.00440559

>  <SCORE.RESTR.norm>
0.000142116

>  <SCORE.SYSTEM>
0

>  <SCORE.SYSTEM.CONST>
0

>  <SCORE.SYSTEM.DIHEDRAL>
0

>  <SCORE.SYSTEM.SOLV>
0

>  <SCORE.SYSTEM.norm>
0

>  <SCORE.heavy>
31

>  <SCORE.norm>
-0.777104

>  <RMSD>
5.595

$$$$
ligand
 OpenBabel11021811473D
libRbt.so/2013.1/901 2013/11/27
 31 33  0  0  0  0  0  0  0  0999 V2000
   32.7119   34.8220   16.2451 P   0  0  1  0  0  0  0  0  0  0  0  0
   32.4491   34.5633   17.7133 O   0  0  0  0  0  0  0  0  0  0  0  0
   34.0442   34.2134   15.8991 O   0  5  0  0  0  0  0  0  0  0  0  0
   31.6364   34.1893   15.4055 O   0  0  0  0  0  0  0  0  0  0  0  0
   31.4673   37.1088   16.1886 C   0  0  0  0  0  0  0  0  0  0  0  0
   32.6596   36.3969   15.9632 O   0  0  0  0  0  0  0  0  0  0  0  0
   31.1902   37.1557   17.6840 C   0  0  1  0  0  0  0  0  0  0  0  0
   32.1380   38.0075   18.2918 O   0  0  0  0  0  0  0  0  0  0  0  0
   29.7721   37.6630   17.9454 C   0  0  1  0  0  0  0  0  0  0  0  0
   28.8426   36.8389   17.2750 O   0  0  0  0  0  0  0  0  0  0  0  0
   29.4264   37.7918   19.4354 C   0  0  1  0  0  0  0  0  0  0  0  0
   30.2229   38.7934   20.0282 O   0  0  0  0  0  0  0  0  0  0  0  0
   27.9599   38.1183   19.6684 C   0  0  0  0  0  0  0  0  0  0  0  0
   27.3205   35.7086   20.9980 N   0  0  0  0  0  0  0  0  0  0  0  0
   27.0637   34.4986   21.6099 C   0  0  0  0  0  0  0  0  0  0  0  0
   26.9762   33.4691   20.9348 O   0  0  0  0  0  0  0  0  0  0  0  0
   26.8957   34.4488   22.9790 N   0  0  0  0  0  0  0  0  0  0  0  0
   26.9837   35.6020   23.7360 C   0  0  0  0  0  0  0  0  0  0  0  0
   27.2421   36.8129   23.1283 C   0  0  1  0  0  0  0  0  0  0  0  0
   26.8451   35.5704   24.9576 O   0  0  0  0  0  0  0  0  0  0  0  0
   27.5937   39.1671   23.2974 C   0  0  2  0  0  0  0  0  0  0  0  0
   27.3313   37.9544   23.9011 N   0  0  0  0  0  0  0  0  0  0  0  0
   27.6821   40.3198   24.0742 C   0  0  0  0  0  0  0  0  0  0  0  0
   27.9387   41.5487   23.4743 C   0  0  1  0  0  0  0  0  0  0  0  0
   28.0416   42.7817   24.3290 C   0  0  0  0  0  0  0  0  0  0  0  0
   28.1110   41.6196   22.0872 C   0  0  1  0  0  0  0  0  0  0  0  0
   28.4038   42.9279   21.4126 C   0  0  0  0  0  0  0  0  0  0  0  0
   28.0225   40.4654   21.3146 C   0  0  0  0  0  0  0  0  0  0  0  0
   27.7627   39.2338   21.9111 C   0  0  2  0  0  0  0  0  0  0  0  0
   27.4140   36.8684   21.7499 C   0  0  2  0  0  0  0  0  0  0  0  0
   27.6646   38.0822   21.1392 N   0  0  0  0  0  0  0  0  0  0  0  0
  1  2  1  1  0  0  0
  1  3  1  0  0  0  0
  1  4  2  0  0  0  0
  1  6  1  0  0  0  0
  5  6  1  0  0  0  0
  7  5  1  6  0  0  0
  7  8  1  0  0  0  0
  7  9  1  0  0  0  0
  9 10  1  1  0  0  0
  9 11  1  0  0  0  0
 11 12  1  6  0  0  0
 11 13  1  0  0  0  0
 13 31  1  0  0  0  0
 14 15  1  0  0  0  0
 15 16  2  0  0  0  0
 15 17  1  0  0  0  0
 17 18  1  0  0  0  0
 18 20  2  0  0  0  0
 19 18  1  1  0  0  0
 19 22  1  0  0  0  0
 19 30  1  0  0  0  0
 21 23  1  6  0  0  0
 21 29  1  0  0  0  0
 21 22  1  0  0  0  0
 23 24  1  0  0  0  0
 24 25  1  1  0  0  0
 24 26  1  0  0  0  0
 26 27  1  1  0  0  0
 26 28  1  0  0  0  0
 29 28  1  6  0  0  0
 29 31  1  0  0  0  0
 30 14  1  6  0  0  0
 30 31  1  0  0  0  0
M  CHG  1   3  -1
M  END
>  <CHROM.1>
68.56222806,-62.17709776,70.47232935,56.97017588,65.75222367,173.92168135
91.69880944,29.28396596,37.31221549,20.16583697,-0.58581595,0.89539545,0.18691798

>  <Name>
ligand

>  <RI>
0

>  <Rbt.Current_Directory>
/home/itssahil/PROJECTS/Mol_Feturizer/New_Systems/rnas/3F2Q

>  <Rbt.Executable>
rbdock ($Id: //depot/dev/client3/rdock/2013.1/src/exe/rbdock.cxx#4 $)

>  <Rbt.Library>
libRbt.so (2013.1, Build901 2013/11/27)

>  <Rbt.Parameter_File>
/export/apps/rDock/src/rDock_2013.1_src/data/scripts/dock_solv.prm

>  <Rbt.Receptor>
prm/pocket_docking_8.prm

>  <SCORE>
-28.9742

>  <SCORE.INTER>
-23.8393

>  <SCORE.INTER.CONST>
1

>  <SCORE.INTER.POLAR>
0

>  <SCORE.INTER.ROT>
7

>  <SCORE.INTER.SOLV>
13.4098

>  <SCORE.INTER.VDW>
-28.6295

>  <SCORE.INTER.norm>
-0.76901

>  <SCORE.INTRA>
-5.13488

>  <SCORE.INTRA.DIHEDRAL>
-7.89383

>  <SCORE.INTRA.DIHEDRAL.0>
10.0718

>  <SCORE.INTRA.POLAR>
0

>  <SCORE.INTRA.POLAR.0>
0

>  <SCORE.INTRA.REPUL>
0

>  <SCORE.INTRA.REPUL.0>
0

>  <SCORE.INTRA.SOLV>
-0.063235

>  <SCORE.INTRA.SOLV.lig_0>
-48.6963

>  <SCORE.INTRA.VDW>
-1.15635

>  <SCORE.INTRA.VDW.0>
-0.836976

>  <SCORE.INTRA.norm>
-0.165641

>  <SCORE.RESTR>
0

>  <SCORE.RESTR.CAVITY>
0

>  <SCORE.RESTR.norm>
0

>  <SCORE.SYSTEM>
0

>  <SCORE.SYSTEM.CONST>
0

>  <SCORE.SYSTEM.DIHEDRAL>
0

>  <SCORE.SYSTEM.SOLV>
0

>  <SCORE.SYSTEM.norm>
0

>  <SCORE.heavy>
31

>  <SCORE.norm>
-0.934652

>  <RMSD>
5.609

$$$$
ligand
 OpenBabel11021811473D
libRbt.so/2013.1/901 2013/11/27
 31 33  0  0  0  0  0  0  0  0999 V2000
   22.8895   33.8614   17.5653 P   0  0  1  0  0  0  0  0  0  0  0  0
   21.8925   34.0864   16.4486 O   0  0  0  0  0  0  0  0  0  0  0  0
   22.1184   33.6841   18.8455 O   0  5  0  0  0  0  0  0  0  0  0  0
   23.7041   32.6268   17.2933 O   0  0  0  0  0  0  0  0  0  0  0  0
   24.9447   35.0985   18.5789 C   0  0  0  0  0  0  0  0  0  0  0  0
   23.9112   35.0924   17.6243 O   0  0  0  0  0  0  0  0  0  0  0  0
   25.6928   36.4208   18.4946 C   0  0  1  0  0  0  0  0  0  0  0  0
   24.7699   37.4736   18.6775 O   0  0  0  0  0  0  0  0  0  0  0  0
   26.7875   36.4801   19.5599 C   0  0  1  0  0  0  0  0  0  0  0  0
   27.6619   35.3831   19.4027 O   0  0  0  0  0  0  0  0  0  0  0  0
   27.5593   37.8068   19.5802 C   0  0  1  0  0  0  0  0  0  0  0  0
   26.6551   38.8873   19.6434 O   0  0  0  0  0  0  0  0  0  0  0  0
   28.5296   37.9001   20.7469 C   0  0  0  0  0  0  0  0  0  0  0  0
   27.3687   35.6999   22.0867 N   0  0  0  0  0  0  0  0  0  0  0  0
   26.8648   34.5872   22.7289 C   0  0  0  0  0  0  0  0  0  0  0  0
   26.9552   33.4743   22.2031 O   0  0  0  0  0  0  0  0  0  0  0  0
   26.2511   34.7283   23.9572 N   0  0  0  0  0  0  0  0  0  0  0  0
   26.1401   35.9750   24.5436 C   0  0  0  0  0  0  0  0  0  0  0  0
   26.6443   37.0892   23.9057 C   0  0  1  0  0  0  0  0  0  0  0  0
   25.6038   36.1135   25.6416 O   0  0  0  0  0  0  0  0  0  0  0  0
   27.0353   39.4431   23.8757 C   0  0  2  0  0  0  0  0  0  0  0  0
   26.5287   38.3266   24.5088 N   0  0  0  0  0  0  0  0  0  0  0  0
   26.9182   40.6921   24.4808 C   0  0  0  0  0  0  0  0  0  0  0  0
   27.4189   41.8251   23.8474 C   0  0  1  0  0  0  0  0  0  0  0  0
   27.2936   43.1645   24.5196 C   0  0  0  0  0  0  0  0  0  0  0  0
   28.0436   41.7025   22.6010 C   0  0  1  0  0  0  0  0  0  0  0  0
   28.6071   42.9038   21.8996 C   0  0  0  0  0  0  0  0  0  0  0  0
   28.1592   40.4526   22.0000 C   0  0  0  0  0  0  0  0  0  0  0  0
   27.6566   39.3163   22.6296 C   0  0  2  0  0  0  0  0  0  0  0  0
   27.2650   36.9525   22.6693 C   0  0  2  0  0  0  0  0  0  0  0  0
   27.7629   38.0691   22.0257 N   0  0  0  0  0  0  0  0  0  0  0  0
  1  2  1  6  0  0  0
  1  3  1  0  0  0  0
  1  4  2  0  0  0  0
  1  6  1  0  0  0  0
  5  6  1  0  0  0  0
  7  5  1  1  0  0  0
  7  8  1  0  0  0  0
  7  9  1  0  0  0  0
  9 10  1  6  0  0  0
  9 11  1  0  0  0  0
 11 12  1  1  0  0  0
 11 13  1  0  0  0  0
 13 31  1  0  0  0  0
 14 15  1  0  0  0  0
 15 16  2  0  0  0  0
 15 17  1  0  0  0  0
 17 18  1  0  0  0  0
 18 20  2  0  0  0  0
 19 18  1  1  0  0  0
 19 22  1  0  0  0  0
 19 30  1  0  0  0  0
 21 23  1  6  0  0  0
 21 29  1  0  0  0  0
 21 22  1  0  0  0  0
 23 24  1  0  0  0  0
 24 25  1  1  0  0  0
 24 26  1  0  0  0  0
 26 27  1  1  0  0  0
 26 28  1  0  0  0  0
 29 28  1  6  0  0  0
 29 31  1  0  0  0  0
 30 14  1  6  0  0  0
 30 31  1  0  0  0  0
M  CHG  1   3  -1
M  END
>  <CHROM.1>
-175.43802273,-179.24762779,56.54549769,56.98857727,51.53679765,-71.44916880
-102.01666794,26.08602551,37.01712033,21.09139147,3.11027586,1.12989116,2.32375648

>  <Name>
ligand

>  <RI>
0

>  <Rbt.Current_Directory>
/home/itssahil/PROJECTS/Mol_Feturizer/New_Systems/rnas/3F2Q

>  <Rbt.Executable>
rbdock ($Id: //depot/dev/client3/rdock/2013.1/src/exe/rbdock.cxx#4 $)

>  <Rbt.Library>
libRbt.so (2013.1, Build901 2013/11/27)

>  <Rbt.Parameter_File>
/export/apps/rDock/src/rDock_2013.1_src/data/scripts/dock_solv.prm

>  <Rbt.Receptor>
prm/blind_docking_100.prm

>  <SCORE>
-30.6936

>  <SCORE.INTER>
-25.7152

>  <SCORE.INTER.CONST>
1

>  <SCORE.INTER.POLAR>
0

>  <SCORE.INTER.ROT>
7

>  <SCORE.INTER.SOLV>
17.5567

>  <SCORE.INTER.VDW>
-31.2624

>  <SCORE.INTER.norm>
-0.829523

>  <SCORE.INTRA>
-4.97836

>  <SCORE.INTRA.DIHEDRAL>
-7.64499

>  <SCORE.INTRA.DIHEDRAL.0>
10.0718

>  <SCORE.INTRA.POLAR>
0

>  <SCORE.INTRA.POLAR.0>
0

>  <SCORE.INTRA.REPUL>
0

>  <SCORE.INTRA.REPUL.0>
0

>  <SCORE.INTRA.SOLV>
-0.113701

>  <SCORE.INTRA.SOLV.lig_0>
-48.6963

>  <SCORE.INTRA.VDW>
-1.09902

>  <SCORE.INTRA.VDW.0>
-0.836976

>  <SCORE.INTRA.norm>
-0.160592

>  <SCORE.RESTR>
0

>  <SCORE.RESTR.CAVITY>
0

>  <SCORE.RESTR.norm>
0

>  <SCORE.SYSTEM>
0

>  <SCORE.SYSTEM.CONST>
0

>  <SCORE.SYSTEM.DIHEDRAL>
0

>  <SCORE.SYSTEM.SOLV>
0

>  <SCORE.SYSTEM.norm>
0

>  <SCORE.heavy>
31

>  <SCORE.norm>
-0.990115

>  <RMSD>
5.616

$$$$
ligand
 OpenBabel11021811473D
libRbt.so/2013.1/901 2013/11/27
 31 33  0  0  0  0  0  0  0  0999 V2000
   27.4864   33.2110   18.5989 P   0  0  1  0  0  0  0  0  0  0  0  0
   26.5987   32.2343   19.3403 O   0  0  0  0  0  0  0  0  0  0  0  0
   28.4471   33.8086   19.5914 O   0  5  0  0  0  0  0  0  0  0  0  0
   28.2552   32.4987   17.5204 O   0  0  0  0  0  0  0  0  0  0  0  0
   27.1821   35.3001   17.0742 C   0  0  0  0  0  0  0  0  0  0  0  0
   26.5789   34.3138   17.8758 O   0  0  0  0  0  0  0  0  0  0  0  0
   27.9493   36.2658   17.9654 C   0  0  1  0  0  0  0  0  0  0  0  0
   28.7971   37.0513   17.1545 O   0  0  0  0  0  0  0  0  0  0  0  0
   26.9792   37.1560   18.7421 C   0  0  1  0  0  0  0  0  0  0  0  0
   26.2550   36.3736   19.6673 O   0  0  0  0  0  0  0  0  0  0  0  0
   27.6532   38.3501   19.4322 C   0  0  1  0  0  0  0  0  0  0  0  0
   26.6728   39.2396   19.9184 O   0  0  0  0  0  0  0  0  0  0  0  0
   28.5561   37.9275   20.5801 C   0  0  0  0  0  0  0  0  0  0  0  0
   27.4426   35.6708   21.8650 N   0  0  0  0  0  0  0  0  0  0  0  0
   26.9621   34.5317   22.4782 C   0  0  0  0  0  0  0  0  0  0  0  0
   27.0561   33.4379   21.9143 O   0  0  0  0  0  0  0  0  0  0  0  0
   26.3676   34.6249   23.7204 N   0  0  0  0  0  0  0  0  0  0  0  0
   26.2527   35.8502   24.3497 C   0  0  0  0  0  0  0  0  0  0  0  0
   26.7335   36.9907   23.7409 C   0  0  1  0  0  0  0  0  0  0  0  0
   25.7334   35.9461   25.4604 O   0  0  0  0  0  0  0  0  0  0  0  0
   27.0976   39.3488   23.7826 C   0  0  2  0  0  0  0  0  0  0  0  0
   26.6143   38.2061   24.3866 N   0  0  0  0  0  0  0  0  0  0  0  0
   26.9767   40.5756   24.4308 C   0  0  0  0  0  0  0  0  0  0  0  0
   27.4539   41.7348   23.8271 C   0  0  1  0  0  0  0  0  0  0  0  0
   27.3251   43.0496   24.5454 C   0  0  0  0  0  0  0  0  0  0  0  0
   28.0589   41.6607   22.5672 C   0  0  1  0  0  0  0  0  0  0  0  0
   28.5970   42.8910   21.8968 C   0  0  0  0  0  0  0  0  0  0  0  0
   28.1783   40.4328   21.9232 C   0  0  0  0  0  0  0  0  0  0  0  0
   27.6991   39.2705   22.5229 C   0  0  2  0  0  0  0  0  0  0  0  0
   27.3348   36.9022   22.4906 C   0  0  2  0  0  0  0  0  0  0  0  0
   27.8092   38.0453   21.8763 N   0  0  0  0  0  0  0  0  0  0  0  0
  1  2  1  1  0  0  0
  1  3  1  0  0  0  0
  1  4  2  0  0  0  0
  1  6  1  0  0  0  0
  5  6  1  0  0  0  0
  7  5  1  6  0  0  0
  7  8  1  0  0  0  0
  7  9  1  0  0  0  0
  9 10  1  1  0  0  0
  9 11  1  0  0  0  0
 11 12  1  1  0  0  0
 11 13  1  0  0  0  0
 13 31  1  0  0  0  0
 14 15  1  0  0  0  0
 15 16  2  0  0  0  0
 15 17  1  0  0  0  0
 17 18  1  0  0  0  0
 18 20  2  0  0  0  0
 19 18  1  1  0  0  0
 19 22  1  0  0  0  0
 19 30  1  0  0  0  0
 21 23  1  6  0  0  0
 21 29  1  0  0  0  0
 21 22  1  0  0  0  0
 23 24  1  0  0  0  0
 24 25  1  1  0  0  0
 24 26  1  0  0  0  0
 26 27  1  1  0  0  0
 26 28  1  0  0  0  0
 29 28  1  6  0  0  0
 29 31  1  0  0  0  0
 30 14  1  6  0  0  0
 30 31  1  0  0  0  0
M  CHG  1   3  -1
M  END
>  <CHROM.1>
-70.32953391,-177.29834696,166.37823375,67.14232491,169.61863605,-96.75062630
-82.07525870,27.32905905,36.90913055,21.10877872,-1.57221781,1.31419601,0.60481683

>  <Name>
ligand

>  <RI>
0

>  <Rbt.Current_Directory>
/home/itssahil/PROJECTS/Mol_Feturizer/New_Systems/rnas/3F2Q

>  <Rbt.Executable>
rbdock ($Id: //depot/dev/client3/rdock/2013.1/src/exe/rbdock.cxx#4 $)

>  <Rbt.Library>
libRbt.so (2013.1, Build901 2013/11/27)

>  <Rbt.Parameter_File>
/export/apps/rDock/src/rDock_2013.1_src/data/scripts/dock_solv.prm

>  <Rbt.Receptor>
prm/blind_docking_80.prm

>  <SCORE>
-25.2559

>  <SCORE.INTER>
-23.6189

>  <SCORE.INTER.CONST>
1

>  <SCORE.INTER.POLAR>
0

>  <SCORE.INTER.ROT>
7

>  <SCORE.INTER.SOLV>
14.2857

>  <SCORE.INTER.VDW>
-28.7745

>  <SCORE.INTER.norm>
-0.761901

>  <SCORE.INTRA>
-1.63694

>  <SCORE.INTRA.DIHEDRAL>
-3.25947

>  <SCORE.INTRA.DIHEDRAL.0>
10.0718

>  <SCORE.INTRA.POLAR>
0

>  <SCORE.INTRA.POLAR.0>
0

>  <SCORE.INTRA.REPUL>
0

>  <SCORE.INTRA.REPUL.0>
0

>  <SCORE.INTRA.SOLV>
5.22445

>  <SCORE.INTRA.SOLV.lig_0>
-48.6963

>  <SCORE.INTRA.VDW>
-2.61943

>  <SCORE.INTRA.VDW.0>
-0.836976

>  <SCORE.INTRA.norm>
-0.0528044

>  <SCORE.RESTR>
0

>  <SCORE.RESTR.CAVITY>
0

>  <SCORE.RESTR.norm>
0

>  <SCORE.SYSTEM>
0

>  <SCORE.SYSTEM.CONST>
0

>  <SCORE.SYSTEM.DIHEDRAL>
0

>  <SCORE.SYSTEM.SOLV>
0

>  <SCORE.SYSTEM.norm>
0

>  <SCORE.heavy>
31

>  <SCORE.norm>
-0.814705

>  <RMSD>
5.620

$$$$
ligand
 OpenBabel11021811473D
libRbt.so/2013.1/901 2013/11/27
 31 33  0  0  0  0  0  0  0  0999 V2000
   30.8461   38.1878   17.7781 P   0  0  1  0  0  0  0  0  0  0  0  0
   31.2767   39.2467   18.7706 O   0  0  0  0  0  0  0  0  0  0  0  0
   32.0656   37.7454   17.0150 O   0  5  0  0  0  0  0  0  0  0  0  0
   30.2498   37.0110   18.5001 O   0  0  0  0  0  0  0  0  0  0  0  0
   28.4234   39.0414   17.3499 C   0  0  0  0  0  0  0  0  0  0  0  0
   29.7033   38.7812   16.8271 O   0  0  0  0  0  0  0  0  0  0  0  0
   28.5115   40.2039   18.3277 C   0  0  1  0  0  0  0  0  0  0  0  0
   28.7712   41.3860   17.6006 O   0  0  0  0  0  0  0  0  0  0  0  0
   27.2070   40.3367   19.1134 C   0  0  1  0  0  0  0  0  0  0  0  0
   26.1340   40.5426   18.2196 O   0  0  0  0  0  0  0  0  0  0  0  0
   26.9281   39.1551   20.0528 C   0  0  1  0  0  0  0  0  0  0  0  0
   26.5785   38.0151   19.2997 O   0  0  0  0  0  0  0  0  0  0  0  0
   28.1170   38.8211   20.9397 C   0  0  0  0  0  0  0  0  0  0  0  0
   27.2354   39.6075   23.5063 N   0  0  0  0  0  0  0  0  0  0  0  0
   26.7638   40.0447   24.7273 C   0  0  0  0  0  0  0  0  0  0  0  0
   26.7780   41.2478   25.0022 O   0  0  0  0  0  0  0  0  0  0  0  0
   26.2858   39.1280   25.6418 N   0  0  0  0  0  0  0  0  0  0  0  0
   26.2778   37.7792   25.3399 C   0  0  0  0  0  0  0  0  0  0  0  0
   26.7466   37.3384   24.1198 C   0  0  1  0  0  0  0  0  0  0  0  0
   25.8464   36.9526   26.1419 O   0  0  0  0  0  0  0  0  0  0  0  0
   27.1910   35.5427   22.6123 C   0  0  2  0  0  0  0  0  0  0  0  0
   26.7266   35.9873   23.8333 N   0  0  0  0  0  0  0  0  0  0  0  0
   27.1738   34.1807   22.3219 C   0  0  0  0  0  0  0  0  0  0  0  0
   27.6468   33.7214   21.0966 C   0  0  1  0  0  0  0  0  0  0  0  0
   27.6111   32.2486   20.7951 C   0  0  0  0  0  0  0  0  0  0  0  0
   28.1364   34.6355   20.1568 C   0  0  1  0  0  0  0  0  0  0  0  0
   28.6394   34.1726   18.8206 C   0  0  0  0  0  0  0  0  0  0  0  0
   28.1513   35.9958   20.4506 C   0  0  0  0  0  0  0  0  0  0  0  0
   27.6814   36.4592   21.6772 C   0  0  2  0  0  0  0  0  0  0  0  0
   27.2274   38.2577   23.1944 C   0  0  2  0  0  0  0  0  0  0  0  0
   27.7049   37.8164   21.9752 N   0  0  0  0  0  0  0  0  0  0  0  0
  1  2  1  1  0  0  0
  1  3  1  0  0  0  0
  1  4  2  0  0  0  0
  1  6  1  0  0  0  0
  5  6  1  0  0  0  0
  7  5  1  6  0  0  0
  7  8  1  0  0  0  0
  7  9  1  0  0  0  0
  9 10  1  6  0  0  0
  9 11  1  0  0  0  0
 11 12  1  6  0  0  0
 11 13  1  0  0  0  0
 13 31  1  0  0  0  0
 14 15  1  0  0  0  0
 15 16  2  0  0  0  0
 15 17  1  0  0  0  0
 17 18  1  0  0  0  0
 18 20  2  0  0  0  0
 19 18  1  6  0  0  0
 19 22  1  0  0  0  0
 19 30  1  0  0  0  0
 21 23  1  1  0  0  0
 21 29  1  0  0  0  0
 21 22  1  0  0  0  0
 23 24  1  0  0  0  0
 24 25  1  6  0  0  0
 24 26  1  0  0  0  0
 26 27  1  6  0  0  0
 26 28  1  0  0  0  0
 29 28  1  1  0  0  0
 29 31  1  0  0  0  0
 30 14  1  1  0  0  0
 30 31  1  0  0  0  0
M  CHG  1   3  -1
M  END
>  <CHROM.1>
68.33430695,-69.98833408,69.84658077,-58.91760684,-71.70220723,170.87419264
83.28660734,28.06140447,37.82104158,20.76948336,-0.24338776,-1.11430228,3.00994066

>  <Name>
ligand

>  <RI>
0

>  <Rbt.Current_Directory>
/home/itssahil/PROJECTS/Mol_Feturizer/New_Systems/rnas/3F2Q

>  <Rbt.Executable>
rbdock ($Id: //depot/dev/client3/rdock/2013.1/src/exe/rbdock.cxx#4 $)

>  <Rbt.Library>
libRbt.so (2013.1, Build901 2013/11/27)

>  <Rbt.Parameter_File>
/export/apps/rDock/src/rDock_2013.1_src/data/scripts/dock_solv.prm

>  <Rbt.Receptor>
prm/blind_docking_100.prm

>  <SCORE>
-29.1605

>  <SCORE.INTER>
-25.2218

>  <SCORE.INTER.CONST>
1

>  <SCORE.INTER.POLAR>
0

>  <SCORE.INTER.ROT>
7

>  <SCORE.INTER.SOLV>
14.7474

>  <SCORE.INTER.VDW>
-29.997

>  <SCORE.INTER.norm>
-0.813605

>  <SCORE.INTRA>
-3.93872

>  <SCORE.INTRA.DIHEDRAL>
-7.25627

>  <SCORE.INTRA.DIHEDRAL.0>
10.0718

>  <SCORE.INTRA.POLAR>
0

>  <SCORE.INTRA.POLAR.0>
0

>  <SCORE.INTRA.REPUL>
0

>  <SCORE.INTRA.REPUL.0>
0

>  <SCORE.INTRA.SOLV>
2.51546

>  <SCORE.INTRA.SOLV.lig_0>
-48.6963

>  <SCORE.INTRA.VDW>
-1.56831

>  <SCORE.INTRA.VDW.0>
-0.836976

>  <SCORE.INTRA.norm>
-0.127055

>  <SCORE.RESTR>
0

>  <SCORE.RESTR.CAVITY>
0

>  <SCORE.RESTR.norm>
0

>  <SCORE.SYSTEM>
0

>  <SCORE.SYSTEM.CONST>
0

>  <SCORE.SYSTEM.DIHEDRAL>
0

>  <SCORE.SYSTEM.SOLV>
0

>  <SCORE.SYSTEM.norm>
0

>  <SCORE.heavy>
31

>  <SCORE.norm>
-0.94066

>  <RMSD>
5.626

$$$$
ligand
 OpenBabel11021811473D
libRbt.so/2013.1/901 2013/11/27
 31 33  0  0  0  0  0  0  0  0999 V2000
   28.4884   42.1838   22.2813 P   0  0  1  0  0  0  0  0  0  0  0  0
   29.7690   42.0530   23.0779 O   0  0  0  0  0  0  0  0  0  0  0  0
   27.4253   42.7241   23.1994 O   0  5  0  0  0  0  0  0  0  0  0  0
   28.6875   43.1304   21.1297 O   0  0  0  0  0  0  0  0  0  0  0  0
   27.2649   40.6984   20.5269 C   0  0  0  0  0  0  0  0  0  0  0  0
   28.1012   40.7618   21.6564 O   0  0  0  0  0  0  0  0  0  0  0  0
   26.8953   39.2464   20.2615 C   0  0  1  0  0  0  0  0  0  0  0  0
   25.9347   39.2072   19.2275 O   0  0  0  0  0  0  0  0  0  0  0  0
   28.1367   38.4463   19.8670 C   0  0  1  0  0  0  0  0  0  0  0  0
   29.1599   38.6603   20.8156 O   0  0  0  0  0  0  0  0  0  0  0  0
   27.8689   36.9480   19.6676 C   0  0  1  0  0  0  0  0  0  0  0  0
   27.2600   36.4115   20.8209 O   0  0  0  0  0  0  0  0  0  0  0  0
   26.9862   36.6682   18.4618 C   0  0  0  0  0  0  0  0  0  0  0  0
   24.5672   35.2752   18.8997 N   0  0  0  0  0  0  0  0  0  0  0  0
   23.3500   34.6500   19.0781 C   0  0  0  0  0  0  0  0  0  0  0  0
   22.3834   35.2865   19.5068 O   0  0  0  0  0  0  0  0  0  0  0  0
   23.2233   33.3074   18.7836 N   0  0  0  0  0  0  0  0  0  0  0  0
   24.3069   32.5903   18.3124 C   0  0  0  0  0  0  0  0  0  0  0  0
   25.5246   33.2122   18.1310 C   0  0  1  0  0  0  0  0  0  0  0  0
   24.2054   31.3959   18.0376 O   0  0  0  0  0  0  0  0  0  0  0  0
   27.8143   33.1003   17.4681 C   0  0  2  0  0  0  0  0  0  0  0  0
   26.5954   32.4809   17.6548 N   0  0  0  0  0  0  0  0  0  0  0  0
   28.8960   32.3646   16.9900 C   0  0  0  0  0  0  0  0  0  0  0  0
   30.1312   32.9779   16.8055 C   0  0  1  0  0  0  0  0  0  0  0  0
   31.2859   32.1715   16.2783 C   0  0  0  0  0  0  0  0  0  0  0  0
   30.2797   34.3381   17.0995 C   0  0  1  0  0  0  0  0  0  0  0  0
   31.5953   35.0316   16.8967 C   0  0  0  0  0  0  0  0  0  0  0  0
   29.1962   35.0698   17.5765 C   0  0  0  0  0  0  0  0  0  0  0  0
   27.9588   34.4588   17.7653 C   0  0  2  0  0  0  0  0  0  0  0  0
   25.6572   34.5646   18.4243 C   0  0  2  0  0  0  0  0  0  0  0  0
   26.8788   35.1864   18.2507 N   0  0  0  0  0  0  0  0  0  0  0  0
  1  2  1  1  0  0  0
  1  3  1  0  0  0  0
  1  4  2  0  0  0  0
  1  6  1  0  0  0  0
  5  6  1  0  0  0  0
  7  5  1  6  0  0  0
  7  8  1  0  0  0  0
  7  9  1  0  0  0  0
  9 10  1  1  0  0  0
  9 11  1  0  0  0  0
 11 12  1  1  0  0  0
 11 13  1  0  0  0  0
 13 31  1  0  0  0  0
 14 15  1  0  0  0  0
 15 16  2  0  0  0  0
 15 17  1  0  0  0  0
 17 18  1  0  0  0  0
 18 20  2  0  0  0  0
 19 18  1  6  0  0  0
 19 22  1  0  0  0  0
 19 30  1  0  0  0  0
 21 23  1  1  0  0  0
 21 29  1  0  0  0  0
 21 22  1  0  0  0  0
 23 24  1  0  0  0  0
 24 25  1  6  0  0  0
 24 26  1  0  0  0  0
 26 27  1  6  0  0  0
 26 28  1  0  0  0  0
 29 28  1  1  0  0  0
 29 31  1  0  0  0  0
 30 14  1  1  0  0  0
 30 31  1  0  0  0  0
M  CHG  1   3  -1
M  END
>  <CHROM.1>
-171.94193383,-157.50288975,173.20700153,51.11382194,-54.50830961,174.48509746
-72.11805086,27.33414872,36.69230992,19.35871375,-1.40786019,-0.20138903
-2.65583325

>  <Name>
ligand

>  <RI>
0

>  <Rbt.Current_Directory>
/home/itssahil/PROJECTS/Mol_Feturizer/New_Systems/rnas/3F2Q

>  <Rbt.Executable>
rbdock ($Id: //depot/dev/client3/rdock/2013.1/src/exe/rbdock.cxx#4 $)

>  <Rbt.Library>
libRbt.so (2013.1, Build901 2013/11/27)

>  <Rbt.Parameter_File>
/export/apps/rDock/src/rDock_2013.1_src/data/scripts/dock_solv.prm

>  <Rbt.Receptor>
prm/pocket_docking_6.prm

>  <SCORE>
-14.4934

>  <SCORE.INTER>
-10.8078

>  <SCORE.INTER.CONST>
1

>  <SCORE.INTER.POLAR>
0

>  <SCORE.INTER.ROT>
7

>  <SCORE.INTER.SOLV>
19.8187

>  <SCORE.INTER.VDW>
-22.0781

>  <SCORE.INTER.norm>
-0.34864

>  <SCORE.INTRA>
-3.68559

>  <SCORE.INTRA.DIHEDRAL>
-6.95485

>  <SCORE.INTRA.DIHEDRAL.0>
10.0718

>  <SCORE.INTRA.POLAR>
0

>  <SCORE.INTRA.POLAR.0>
0

>  <SCORE.INTRA.REPUL>
0

>  <SCORE.INTRA.REPUL.0>
0

>  <SCORE.INTRA.SOLV>
-0.292391

>  <SCORE.INTRA.SOLV.lig_0>
-48.6963

>  <SCORE.INTRA.VDW>
-0.0619714

>  <SCORE.INTRA.VDW.0>
-0.836976

>  <SCORE.INTRA.norm>
-0.11889

>  <SCORE.RESTR>
0

>  <SCORE.RESTR.CAVITY>
0

>  <SCORE.RESTR.norm>
0

>  <SCORE.SYSTEM>
0

>  <SCORE.SYSTEM.CONST>
0

>  <SCORE.SYSTEM.DIHEDRAL>
0

>  <SCORE.SYSTEM.SOLV>
0

>  <SCORE.SYSTEM.norm>
0

>  <SCORE.heavy>
31

>  <SCORE.norm>
-0.46753

>  <RMSD>
5.661

$$$$
ligand
 OpenBabel11021811473D
libRbt.so/2013.1/901 2013/11/27
 31 33  0  0  0  0  0  0  0  0999 V2000
   30.7637   37.5838   16.6352 P   0  0  1  0  0  0  0  0  0  0  0  0
   30.5446   37.9795   15.1905 O   0  0  0  0  0  0  0  0  0  0  0  0
   30.0542   36.2774   16.8700 O   0  5  0  0  0  0  0  0  0  0  0  0
   32.2325   37.4154   16.9106 O   0  0  0  0  0  0  0  0  0  0  0  0
   28.8577   38.9890   17.7188 C   0  0  0  0  0  0  0  0  0  0  0  0
   30.2390   38.7533   17.5941 O   0  0  0  0  0  0  0  0  0  0  0  0
   28.6396   40.2472   18.5464 C   0  0  1  0  0  0  0  0  0  0  0  0
   28.8587   41.3725   17.7224 O   0  0  0  0  0  0  0  0  0  0  0  0
   27.2205   40.2697   19.1140 C   0  0  1  0  0  0  0  0  0  0  0  0
   26.2867   40.2845   18.0556 O   0  0  0  0  0  0  0  0  0  0  0  0
   26.9291   39.1262   20.0957 C   0  0  1  0  0  0  0  0  0  0  0  0
   26.6609   37.9388   19.3837 O   0  0  0  0  0  0  0  0  0  0  0  0
   28.0767   38.8796   21.0619 C   0  0  0  0  0  0  0  0  0  0  0  0
   27.1694   39.6366   23.6284 N   0  0  0  0  0  0  0  0  0  0  0  0
   26.6851   40.0596   24.8495 C   0  0  0  0  0  0  0  0  0  0  0  0
   26.6894   41.2602   25.1355 O   0  0  0  0  0  0  0  0  0  0  0  0
   26.2055   39.1315   25.7516 N   0  0  0  0  0  0  0  0  0  0  0  0
   26.2086   37.7855   25.4373 C   0  0  0  0  0  0  0  0  0  0  0  0
   26.6900   37.3590   24.2171 C   0  0  1  0  0  0  0  0  0  0  0  0
   25.7759   36.9490   26.2281 O   0  0  0  0  0  0  0  0  0  0  0  0
   27.1581   35.5801   22.6969 C   0  0  2  0  0  0  0  0  0  0  0  0
   26.6810   36.0104   23.9181 N   0  0  0  0  0  0  0  0  0  0  0  0
   27.1519   34.2207   22.3939 C   0  0  0  0  0  0  0  0  0  0  0  0
   27.6377   33.7758   21.1684 C   0  0  1  0  0  0  0  0  0  0  0  0
   27.6138   32.3056   20.8530 C   0  0  0  0  0  0  0  0  0  0  0  0
   28.1291   34.7015   20.2409 C   0  0  1  0  0  0  0  0  0  0  0  0
   28.6458   34.2541   18.9047 C   0  0  0  0  0  0  0  0  0  0  0  0
   28.1329   36.0591   20.5473 C   0  0  0  0  0  0  0  0  0  0  0  0
   27.6502   36.5082   21.7743 C   0  0  2  0  0  0  0  0  0  0  0  0
   27.1724   38.2898   23.3041 C   0  0  2  0  0  0  0  0  0  0  0  0
   27.6626   37.8628   22.0849 N   0  0  0  0  0  0  0  0  0  0  0  0
  1  2  1  6  0  0  0
  1  3  1  0  0  0  0
  1  4  2  0  0  0  0
  1  6  1  0  0  0  0
  5  6  1  0  0  0  0
  7  5  1  6  0  0  0
  7  8  1  0  0  0  0
  7  9  1  0  0  0  0
  9 10  1  6  0  0  0
  9 11  1  0  0  0  0
 11 12  1  6  0  0  0
 11 13  1  0  0  0  0
 13 31  1  0  0  0  0
 14 15  1  0  0  0  0
 15 16  2  0  0  0  0
 15 17  1  0  0  0  0
 17 18  1  0  0  0  0
 18 20  2  0  0  0  0
 19 18  1  6  0  0  0
 19 22  1  0  0  0  0
 19 30  1  0  0  0  0
 21 23  1  1  0  0  0
 21 29  1  0  0  0  0
 21 22  1  0  0  0  0
 23 24  1  0  0  0  0
 24 25  1  6  0  0  0
 24 26  1  0  0  0  0
 26 27  1  6  0  0  0
 26 28  1  0  0  0  0
 29 28  1  1  0  0  0
 29 31  1  0  0  0  0
 30 14  1  1  0  0  0
 30 31  1  0  0  0  0
M  CHG  1   3  -1
M  END
>  <CHROM.1>
-173.20885481,70.94604046,78.72323090,-61.53544683,-79.25446269,173.56651669
78.49764811,28.05277168,37.69980982,20.60360006,-0.15434471,-1.13690051,2.97847449

>  <Name>
ligand

>  <RI>
0

>  <Rbt.Current_Directory>
/home/itssahil/PROJECTS/Mol_Feturizer/New_Systems/rnas/3F2Q

>  <Rbt.Executable>
rbdock ($Id: //depot/dev/client3/rdock/2013.1/src/exe/rbdock.cxx#4 $)

>  <Rbt.Library>
libRbt.so (2013.1, Build901 2013/11/27)

>  <Rbt.Parameter_File>
/export/apps/rDock/src/rDock_2013.1_src/data/scripts/dock_solv.prm

>  <Rbt.Receptor>
prm/pocket_docking_8.prm

>  <SCORE>
-28.5275

>  <SCORE.INTER>
-24.9834

>  <SCORE.INTER.CONST>
1

>  <SCORE.INTER.POLAR>
0

>  <SCORE.INTER.ROT>
7

>  <SCORE.INTER.SOLV>
14.0038

>  <SCORE.INTER.VDW>
-29.5902

>  <SCORE.INTER.norm>
-0.805916

>  <SCORE.INTRA>
-3.54413

>  <SCORE.INTRA.DIHEDRAL>
-5.89304

>  <SCORE.INTRA.DIHEDRAL.0>
10.0718

>  <SCORE.INTRA.POLAR>
0

>  <SCORE.INTRA.POLAR.0>
0

>  <SCORE.INTRA.REPUL>
0

>  <SCORE.INTRA.REPUL.0>
0

>  <SCORE.INTRA.SOLV>
-0.26574

>  <SCORE.INTRA.SOLV.lig_0>
-48.6963

>  <SCORE.INTRA.VDW>
-0.464742

>  <SCORE.INTRA.VDW.0>
-0.836976

>  <SCORE.INTRA.norm>
-0.114327

>  <SCORE.RESTR>
0

>  <SCORE.RESTR.CAVITY>
0

>  <SCORE.RESTR.norm>
0

>  <SCORE.SYSTEM>
0

>  <SCORE.SYSTEM.CONST>
0

>  <SCORE.SYSTEM.DIHEDRAL>
0

>  <SCORE.SYSTEM.SOLV>
0

>  <SCORE.SYSTEM.norm>
0

>  <SCORE.heavy>
31

>  <SCORE.norm>
-0.920242

>  <RMSD>
5.673

$$$$
ligand
 OpenBabel11021811473D
libRbt.so/2013.1/901 2013/11/27
 31 33  0  0  0  0  0  0  0  0999 V2000
   32.4043   33.9552   16.2638 P   0  0  1  0  0  0  0  0  0  0  0  0
   31.7438   32.6741   16.7265 O   0  0  0  0  0  0  0  0  0  0  0  0
   33.8203   33.9564   16.7740 O   0  5  0  0  0  0  0  0  0  0  0  0
   32.4107   34.0232   14.7614 O   0  0  0  0  0  0  0  0  0  0  0  0
   31.9190   36.5108   16.3880 C   0  0  0  0  0  0  0  0  0  0  0  0
   31.5583   35.2102   16.7852 O   0  0  0  0  0  0  0  0  0  0  0  0
   30.9467   37.5070   17.0024 C   0  0  1  0  0  0  0  0  0  0  0  0
   29.6375   37.1682   16.5967 O   0  0  0  0  0  0  0  0  0  0  0  0
   31.0555   37.4836   18.5270 C   0  0  1  0  0  0  0  0  0  0  0  0
   32.3904   37.7349   18.9109 O   0  0  0  0  0  0  0  0  0  0  0  0
   30.0854   38.4428   19.2308 C   0  0  1  0  0  0  0  0  0  0  0  0
   30.1139   39.7034   18.5992 O   0  0  0  0  0  0  0  0  0  0  0  0
   28.6566   37.9233   19.2426 C   0  0  0  0  0  0  0  0  0  0  0  0
   28.1464   35.4331   20.4761 N   0  0  0  0  0  0  0  0  0  0  0  0
   27.9611   34.1914   21.0493 C   0  0  0  0  0  0  0  0  0  0  0  0
   28.0971   33.1694   20.3710 O   0  0  0  0  0  0  0  0  0  0  0  0
   27.6134   34.1005   22.3820 N   0  0  0  0  0  0  0  0  0  0  0  0
   27.4511   35.2441   23.1412 C   0  0  0  0  0  0  0  0  0  0  0  0
   27.6373   36.4868   22.5723 C   0  0  1  0  0  0  0  0  0  0  0  0
   27.1503   35.1771   24.3318 O   0  0  0  0  0  0  0  0  0  0  0  0
   27.6649   38.8637   22.7831 C   0  0  2  0  0  0  0  0  0  0  0  0
   27.4755   37.6188   23.3474 N   0  0  0  0  0  0  0  0  0  0  0  0
   27.5003   40.0065   23.5620 C   0  0  0  0  0  0  0  0  0  0  0  0
   27.6815   41.2667   23.0007 C   0  0  1  0  0  0  0  0  0  0  0  0
   27.5103   42.4899   23.8586 C   0  0  0  0  0  0  0  0  0  0  0  0
   28.0332   41.3794   21.6508 C   0  0  1  0  0  0  0  0  0  0  0  0
   28.2503   42.7240   21.0203 C   0  0  0  0  0  0  0  0  0  0  0  0
   28.1973   40.2349   20.8761 C   0  0  0  0  0  0  0  0  0  0  0  0
   28.0139   38.9717   21.4336 C   0  0  2  0  0  0  0  0  0  0  0  0
   27.9894   36.5840   21.2310 C   0  0  2  0  0  0  0  0  0  0  0  0
   28.1681   37.8287   20.6583 N   0  0  0  0  0  0  0  0  0  0  0  0
  1  2  1  1  0  0  0
  1  3  1  0  0  0  0
  1  4  2  0  0  0  0
  1  6  1  0  0  0  0
  5  6  1  0  0  0  0
  7  5  1  6  0  0  0
  7  8  1  0  0  0  0
  7  9  1  0  0  0  0
  9 10  1  6  0  0  0
  9 11  1  0  0  0  0
 11 12  1  6  0  0  0
 11 13  1  0  0  0  0
 13 31  1  0  0  0  0
 14 15  1  0  0  0  0
 15 16  2  0  0  0  0
 15 17  1  0  0  0  0
 17 18  1  0  0  0  0
 18 20  2  0  0  0  0
 19 18  1  1  0  0  0
 19 22  1  0  0  0  0
 19 30  1  0  0  0  0
 21 23  1  6  0  0  0
 21 29  1  0  0  0  0
 21 22  1  0  0  0  0
 23 24  1  0  0  0  0
 24 25  1  1  0  0  0
 24 26  1  0  0  0  0
 26 27  1  1  0  0  0
 26 28  1  0  0  0  0
 29 28  1  6  0  0  0
 29 31  1  0  0  0  0
 30 14  1  6  0  0  0
 30 31  1  0  0  0  0
M  CHG  1   3  -1
M  END
>  <CHROM.1>
179.13280281,-174.89297906,-57.35417705,55.94906557,-46.17274790,122.72086351
64.92837287,29.49507876,37.00388877,19.82557224,-0.59633722,0.94648284,0.01271856

>  <Name>
ligand

>  <RI>
0

>  <Rbt.Current_Directory>
/home/itssahil/PROJECTS/Mol_Feturizer/New_Systems/rnas/3F2Q

>  <Rbt.Executable>
rbdock ($Id: //depot/dev/client3/rdock/2013.1/src/exe/rbdock.cxx#4 $)

>  <Rbt.Library>
libRbt.so (2013.1, Build901 2013/11/27)

>  <Rbt.Parameter_File>
/export/apps/rDock/src/rDock_2013.1_src/data/scripts/dock_solv.prm

>  <Rbt.Receptor>
prm/blind_docking_60.prm

>  <SCORE>
-24.6126

>  <SCORE.INTER>
-22.0601

>  <SCORE.INTER.CONST>
1

>  <SCORE.INTER.POLAR>
0

>  <SCORE.INTER.ROT>
7

>  <SCORE.INTER.SOLV>
13.3825

>  <SCORE.INTER.VDW>
-27.4343

>  <SCORE.INTER.norm>
-0.711618

>  <SCORE.INTRA>
-2.5525

>  <SCORE.INTRA.DIHEDRAL>
-2.82318

>  <SCORE.INTRA.DIHEDRAL.0>
10.0718

>  <SCORE.INTRA.POLAR>
0

>  <SCORE.INTRA.POLAR.0>
0

>  <SCORE.INTRA.REPUL>
0

>  <SCORE.INTRA.REPUL.0>
0

>  <SCORE.INTRA.SOLV>
-0.447643

>  <SCORE.INTRA.SOLV.lig_0>
-48.6963

>  <SCORE.INTRA.VDW>
-0.917088

>  <SCORE.INTRA.VDW.0>
-0.836976

>  <SCORE.INTRA.norm>
-0.0823387

>  <SCORE.RESTR>
0

>  <SCORE.RESTR.CAVITY>
0

>  <SCORE.RESTR.norm>
0

>  <SCORE.SYSTEM>
0

>  <SCORE.SYSTEM.CONST>
0

>  <SCORE.SYSTEM.DIHEDRAL>
0

>  <SCORE.SYSTEM.SOLV>
0

>  <SCORE.SYSTEM.norm>
0

>  <SCORE.heavy>
31

>  <SCORE.norm>
-0.793956

>  <RMSD>
5.683

$$$$
ligand
 OpenBabel11021811473D
libRbt.so/2013.1/901 2013/11/27
 31 33  0  0  0  0  0  0  0  0999 V2000
   22.1278   34.4114   17.0867 P   0  0  1  0  0  0  0  0  0  0  0  0
   21.4842   35.6343   16.4688 O   0  0  0  0  0  0  0  0  0  0  0  0
   21.3940   34.0968   18.3625 O   0  5  0  0  0  0  0  0  0  0  0  0
   22.0281   33.2413   16.1471 O   0  0  0  0  0  0  0  0  0  0  0  0
   24.0889   35.7310   18.1797 C   0  0  0  0  0  0  0  0  0  0  0  0
   23.6864   34.6904   17.3226 O   0  0  0  0  0  0  0  0  0  0  0  0
   25.5621   35.5560   18.5179 C   0  0  1  0  0  0  0  0  0  0  0  0
   25.9650   36.6266   19.3455 O   0  0  0  0  0  0  0  0  0  0  0  0
   25.7892   34.2201   19.2253 C   0  0  1  0  0  0  0  0  0  0  0  0
   25.9629   33.1992   18.2662 O   0  0  0  0  0  0  0  0  0  0  0  0
   26.9500   34.2419   20.2296 C   0  0  1  0  0  0  0  0  0  0  0  0
   27.0595   32.9872   20.8640 O   0  0  0  0  0  0  0  0  0  0  0  0
   28.2792   34.5886   19.5780 C   0  0  0  0  0  0  0  0  0  0  0  0
   29.2910   36.1394   17.4438 N   0  0  0  0  0  0  0  0  0  0  0  0
   29.7370   36.8622   16.3561 C   0  0  0  0  0  0  0  0  0  0  0  0
   30.0145   36.2856   15.3007 O   0  0  0  0  0  0  0  0  0  0  0  0
   29.8797   38.2312   16.4590 N   0  0  0  0  0  0  0  0  0  0  0  0
   29.5786   38.8778   17.6430 C   0  0  0  0  0  0  0  0  0  0  0  0
   29.1308   38.1591   18.7317 C   0  0  1  0  0  0  0  0  0  0  0  0
   29.6927   40.0981   17.7455 O   0  0  0  0  0  0  0  0  0  0  0  0
   28.3780   38.1077   20.9956 C   0  0  2  0  0  0  0  0  0  0  0  0
   28.8301   38.8226   19.9054 N   0  0  0  0  0  0  0  0  0  0  0  0
   28.0761   38.7742   22.1808 C   0  0  0  0  0  0  0  0  0  0  0  0
   27.6267   38.0617   23.2881 C   0  0  1  0  0  0  0  0  0  0  0  0
   27.2950   38.7982   24.5566 C   0  0  0  0  0  0  0  0  0  0  0  0
   27.4765   36.6728   23.2035 C   0  0  1  0  0  0  0  0  0  0  0  0
   26.9796   35.8783   24.3759 C   0  0  0  0  0  0  0  0  0  0  0  0
   27.7787   36.0107   22.0173 C   0  0  0  0  0  0  0  0  0  0  0  0
   28.2316   36.7200   20.9075 C   0  0  2  0  0  0  0  0  0  0  0  0
   28.9834   36.7803   18.6328 C   0  0  2  0  0  0  0  0  0  0  0  0
   28.5427   36.0585   19.7255 N   0  0  0  0  0  0  0  0  0  0  0  0
  1  2  1  6  0  0  0
  1  3  1  0  0  0  0
  1  4  2  0  0  0  0
  1  6  1  0  0  0  0
  5  6  1  0  0  0  0
  7  5  1  1  0  0  0
  7  8  1  0  0  0  0
  7  9  1  0  0  0  0
  9 10  1  6  0  0  0
  9 11  1  0  0  0  0
 11 12  1  6  0  0  0
 11 13  1  0  0  0  0
 13 31  1  0  0  0  0
 14 15  1  0  0  0  0
 15 16  2  0  0  0  0
 15 17  1  0  0  0  0
 17 18  1  0  0  0  0
 18 20  2  0  0  0  0
 19 18  1  6  0  0  0
 19 22  1  0  0  0  0
 19 30  1  0  0  0  0
 21 23  1  1  0  0  0
 21 29  1  0  0  0  0
 21 22  1  0  0  0  0
 23 24  1  0  0  0  0
 24 25  1  6  0  0  0
 24 26  1  0  0  0  0
 26 27  1  6  0  0  0
 26 28  1  0  0  0  0
 29 28  1  1  0  0  0
 29 31  1  0  0  0  0
 30 14  1  1  0  0  0
 30 31  1  0  0  0  0
M  CHG  1   3  -1
M  END
>  <CHROM.1>
165.18761115,61.29456563,178.27765431,85.75696293,178.10292259,95.43594463
39.79035561,26.65110079,36.12362423,19.15307566,2.69620658,-0.50711459,-1.63206332

>  <Name>
ligand

>  <RI>
0

>  <Rbt.Current_Directory>
/home/itssahil/PROJECTS/Mol_Feturizer/New_Systems/rnas/3F2Q

>  <Rbt.Executable>
rbdock ($Id: //depot/dev/client3/rdock/2013.1/src/exe/rbdock.cxx#4 $)

>  <Rbt.Library>
libRbt.so (2013.1, Build901 2013/11/27)

>  <Rbt.Parameter_File>
/export/apps/rDock/src/rDock_2013.1_src/data/scripts/dock_solv.prm

>  <Rbt.Receptor>
prm/blind_docking_80.prm

>  <SCORE>
-20.7126

>  <SCORE.INTER>
-19.5167

>  <SCORE.INTER.CONST>
1

>  <SCORE.INTER.POLAR>
0

>  <SCORE.INTER.ROT>
7

>  <SCORE.INTER.SOLV>
16.7747

>  <SCORE.INTER.VDW>
-26.8694

>  <SCORE.INTER.norm>
-0.629571

>  <SCORE.INTRA>
-1.19596

>  <SCORE.INTRA.DIHEDRAL>
-2.11087

>  <SCORE.INTRA.DIHEDRAL.0>
10.0718

>  <SCORE.INTRA.POLAR>
0

>  <SCORE.INTRA.POLAR.0>
0

>  <SCORE.INTRA.REPUL>
0

>  <SCORE.INTRA.REPUL.0>
0

>  <SCORE.INTRA.SOLV>
-0.557662

>  <SCORE.INTRA.SOLV.lig_0>
-48.6963

>  <SCORE.INTRA.VDW>
0.138306

>  <SCORE.INTRA.VDW.0>
-0.836976

>  <SCORE.INTRA.norm>
-0.0385794

>  <SCORE.RESTR>
0

>  <SCORE.RESTR.CAVITY>
0

>  <SCORE.RESTR.norm>
0

>  <SCORE.SYSTEM>
0

>  <SCORE.SYSTEM.CONST>
0

>  <SCORE.SYSTEM.DIHEDRAL>
0

>  <SCORE.SYSTEM.SOLV>
0

>  <SCORE.SYSTEM.norm>
0

>  <SCORE.heavy>
31

>  <SCORE.norm>
-0.66815

>  <RMSD>
5.687

$$$$
ligand
 OpenBabel11021811473D
libRbt.so/2013.1/901 2013/11/27
 31 33  0  0  0  0  0  0  0  0999 V2000
   27.0839   33.8959   13.4354 P   0  0  1  0  0  0  0  0  0  0  0  0
   27.7579   34.7722   12.4013 O   0  0  0  0  0  0  0  0  0  0  0  0
   26.2776   32.8554   12.7056 O   0  5  0  0  0  0  0  0  0  0  0  0
   28.1158   33.2206   14.2961 O   0  0  0  0  0  0  0  0  0  0  0  0
   26.7358   35.9695   14.9717 C   0  0  0  0  0  0  0  0  0  0  0  0
   26.1893   34.8044   14.4033 O   0  0  0  0  0  0  0  0  0  0  0  0
   27.8520   35.5801   15.9298 C   0  0  1  0  0  0  0  0  0  0  0  0
   28.6288   36.7261   16.2069 O   0  0  0  0  0  0  0  0  0  0  0  0
   27.2675   35.0070   17.2207 C   0  0  1  0  0  0  0  0  0  0  0  0
   26.3140   34.0138   16.9095 O   0  0  0  0  0  0  0  0  0  0  0  0
   28.3266   34.4739   18.1956 C   0  0  1  0  0  0  0  0  0  0  0  0
   29.1647   33.5509   17.5364 O   0  0  0  0  0  0  0  0  0  0  0  0
   29.1787   35.5813   18.7947 C   0  0  0  0  0  0  0  0  0  0  0  0
   28.0654   34.2185   21.0052 N   0  0  0  0  0  0  0  0  0  0  0  0
   27.5859   33.5153   22.0915 C   0  0  0  0  0  0  0  0  0  0  0  0
   27.7114   32.2884   22.1398 O   0  0  0  0  0  0  0  0  0  0  0  0
   26.9570   34.1910   23.1177 N   0  0  0  0  0  0  0  0  0  0  0  0
   26.8067   35.5638   23.0613 C   0  0  0  0  0  0  0  0  0  0  0  0
   27.2864   36.2704   21.9781 C   0  0  1  0  0  0  0  0  0  0  0  0
   26.2565   36.1792   23.9729 O   0  0  0  0  0  0  0  0  0  0  0  0
   27.6136   38.3535   20.8608 C   0  0  2  0  0  0  0  0  0  0  0  0
   27.1316   37.6426   21.9408 N   0  0  0  0  0  0  0  0  0  0  0  0
   27.4569   39.7368   20.8200 C   0  0  0  0  0  0  0  0  0  0  0  0
   27.9326   40.4621   19.7320 C   0  0  1  0  0  0  0  0  0  0  0  0
   27.7647   41.9563   19.7089 C   0  0  0  0  0  0  0  0  0  0  0  0
   28.5722   39.7946   18.6812 C   0  0  1  0  0  0  0  0  0  0  0  0
   29.1094   40.5507   17.5012 C   0  0  0  0  0  0  0  0  0  0  0  0
   28.7273   38.4123   18.7262 C   0  0  0  0  0  0  0  0  0  0  0  0
   28.2498   37.6824   19.8122 C   0  0  2  0  0  0  0  0  0  0  0  0
   27.9223   35.5950   20.9427 C   0  0  2  0  0  0  0  0  0  0  0  0
   28.3957   36.3009   19.8534 N   0  0  0  0  0  0  0  0  0  0  0  0
  1  2  1  6  0  0  0
  1  3  1  0  0  0  0
  1  4  2  0  0  0  0
  1  6  1  0  0  0  0
  5  6  1  0  0  0  0
  7  5  1  6  0  0  0
  7  8  1  0  0  0  0
  7  9  1  0  0  0  0
  9 10  1  6  0  0  0
  9 11  1  0  0  0  0
 11 12  1  6  0  0  0
 11 13  1  0  0  0  0
 13 31  1  0  0  0  0
 14 15  1  0  0  0  0
 15 16  2  0  0  0  0
 15 17  1  0  0  0  0
 17 18  1  0  0  0  0
 18 20  2  0  0  0  0
 19 18  1  1  0  0  0
 19 22  1  0  0  0  0
 19 30  1  0  0  0  0
 21 23  1  6  0  0  0
 21 29  1  0  0  0  0
 21 22  1  0  0  0  0
 23 24  1  0  0  0  0
 24 25  1  1  0  0  0
 24 26  1  0  0  0  0
 26 27  1  1  0  0  0
 26 28  1  0  0  0  0
 29 28  1  6  0  0  0
 29 31  1  0  0  0  0
 30 14  1  6  0  0  0
 30 31  1  0  0  0  0
M  CHG  1   3  -1
M  END
>  <CHROM.1>
-65.71008586,-48.48691909,163.98155840,49.73682315,-53.34927311,76.23154101
-126.55864429,27.65317163,35.91198726,18.32072698,1.84338855,-1.44851367
-1.65958166

>  <Name>
ligand

>  <RI>
0

>  <Rbt.Current_Directory>
/home/itssahil/PROJECTS/Mol_Feturizer/New_Systems/rnas/3F2Q

>  <Rbt.Executable>
rbdock ($Id: //depot/dev/client3/rdock/2013.1/src/exe/rbdock.cxx#4 $)

>  <Rbt.Library>
libRbt.so (2013.1, Build901 2013/11/27)

>  <Rbt.Parameter_File>
/export/apps/rDock/src/rDock_2013.1_src/data/scripts/dock_solv.prm

>  <Rbt.Receptor>
prm/pocket_docking_7.prm

>  <SCORE>
-21.0003

>  <SCORE.INTER>
-18.1253

>  <SCORE.INTER.CONST>
1

>  <SCORE.INTER.POLAR>
0

>  <SCORE.INTER.ROT>
7

>  <SCORE.INTER.SOLV>
11.239

>  <SCORE.INTER.VDW>
-24.0965

>  <SCORE.INTER.norm>
-0.584688

>  <SCORE.INTRA>
-2.87502

>  <SCORE.INTRA.DIHEDRAL>
-6.1368

>  <SCORE.INTRA.DIHEDRAL.0>
10.0718

>  <SCORE.INTRA.POLAR>
0

>  <SCORE.INTRA.POLAR.0>
0

>  <SCORE.INTRA.REPUL>
0

>  <SCORE.INTRA.REPUL.0>
0

>  <SCORE.INTRA.SOLV>
2.77799

>  <SCORE.INTRA.SOLV.lig_0>
-48.6963

>  <SCORE.INTRA.VDW>
-1.19562

>  <SCORE.INTRA.VDW.0>
-0.836976

>  <SCORE.INTRA.norm>
-0.0927427

>  <SCORE.RESTR>
0

>  <SCORE.RESTR.CAVITY>
0

>  <SCORE.RESTR.norm>
0

>  <SCORE.SYSTEM>
0

>  <SCORE.SYSTEM.CONST>
0

>  <SCORE.SYSTEM.DIHEDRAL>
0

>  <SCORE.SYSTEM.SOLV>
0

>  <SCORE.SYSTEM.norm>
0

>  <SCORE.heavy>
31

>  <SCORE.norm>
-0.67743

>  <RMSD>
5.718

$$$$
ligand
 OpenBabel11021811473D
libRbt.so/2013.1/901 2013/11/27
 31 33  0  0  0  0  0  0  0  0999 V2000
   28.8302   33.8825   12.8645 P   0  0  1  0  0  0  0  0  0  0  0  0
   28.4458   32.4208   12.9498 O   0  0  0  0  0  0  0  0  0  0  0  0
   30.2268   33.9622   12.3094 O   0  5  0  0  0  0  0  0  0  0  0  0
   27.8842   34.6162   11.9542 O   0  0  0  0  0  0  0  0  0  0  0  0
   29.0115   35.9151   14.4824 C   0  0  0  0  0  0  0  0  0  0  0  0
   28.7011   34.5535   14.3122 O   0  0  0  0  0  0  0  0  0  0  0  0
   28.9015   36.2705   15.9578 C   0  0  1  0  0  0  0  0  0  0  0  0
   29.3872   37.5832   16.1430 O   0  0  0  0  0  0  0  0  0  0  0  0
   27.4484   36.1691   16.4213 C   0  0  1  0  0  0  0  0  0  0  0  0
   27.0337   34.8201   16.3896 O   0  0  0  0  0  0  0  0  0  0  0  0
   27.1937   36.7961   17.7991 C   0  0  1  0  0  0  0  0  0  0  0  0
   25.8823   36.5012   18.2258 O   0  0  0  0  0  0  0  0  0  0  0  0
   28.1802   36.3146   18.8510 C   0  0  0  0  0  0  0  0  0  0  0  0
   27.6609   34.7464   21.1432 N   0  0  0  0  0  0  0  0  0  0  0  0
   27.4657   33.9379   22.2445 C   0  0  0  0  0  0  0  0  0  0  0  0
   27.4639   32.7101   22.1192 O   0  0  0  0  0  0  0  0  0  0  0  0
   27.2631   34.5108   23.4838 N   0  0  0  0  0  0  0  0  0  0  0  0
   27.2551   35.8858   23.6249 C   0  0  0  0  0  0  0  0  0  0  0  0
   27.4517   36.6972   22.5270 C   0  0  1  0  0  0  0  0  0  0  0  0
   27.0847   36.4091   24.7248 O   0  0  0  0  0  0  0  0  0  0  0  0
   27.6455   38.8842   21.5922 C   0  0  2  0  0  0  0  0  0  0  0  0
   27.4453   38.0692   22.6875 N   0  0  0  0  0  0  0  0  0  0  0  0
   27.6375   40.2679   21.7512 C   0  0  0  0  0  0  0  0  0  0  0  0
   27.8309   41.0986   20.6519 C   0  0  1  0  0  0  0  0  0  0  0  0
   27.8299   42.5903   20.8430 C   0  0  0  0  0  0  0  0  0  0  0  0
   28.0369   40.5365   19.3869 C   0  0  1  0  0  0  0  0  0  0  0  0
   28.2634   41.4058   18.1846 C   0  0  0  0  0  0  0  0  0  0  0  0
   28.0449   39.1534   19.2324 C   0  0  0  0  0  0  0  0  0  0  0  0
   27.8487   38.3185   20.3299 C   0  0  2  0  0  0  0  0  0  0  0  0
   27.6581   36.1253   21.2768 C   0  0  2  0  0  0  0  0  0  0  0  0
   27.8469   36.9374   20.1749 N   0  0  0  0  0  0  0  0  0  0  0  0
  1  2  1  1  0  0  0
  1  3  1  0  0  0  0
  1  4  2  0  0  0  0
  1  6  1  0  0  0  0
  5  6  1  0  0  0  0
  7  5  1  6  0  0  0
  7  8  1  0  0  0  0
  7  9  1  0  0  0  0
  9 10  1  1  0  0  0
  9 11  1  0  0  0  0
 11 12  1  1  0  0  0
 11 13  1  0  0  0  0
 13 31  1  0  0  0  0
 14 15  1  0  0  0  0
 15 16  2  0  0  0  0
 15 17  1  0  0  0  0
 17 18  1  0  0  0  0
 18 20  2  0  0  0  0
 19 18  1  1  0  0  0
 19 22  1  0  0  0  0
 19 30  1  0  0  0  0
 21 23  1  6  0  0  0
 21 29  1  0  0  0  0
 21 22  1  0  0  0  0
 23 24  1  0  0  0  0
 24 25  1  1  0  0  0
 24 26  1  0  0  0  0
 26 27  1  1  0  0  0
 26 28  1  0  0  0  0
 29 28  1  6  0  0  0
 29 31  1  0  0  0  0
 30 14  1  6  0  0  0
 30 31  1  0  0  0  0
M  CHG  1   3  -1
M  END
>  <CHROM.1>
-176.02117400,179.83783717,172.16856199,67.33921511,-172.10699687,-178.41362256
-59.79353385,27.94898753,36.49542703,18.45075032,0.65188248,-1.41025824,-2.85903094

>  <Name>
ligand

>  <RI>
0

>  <Rbt.Current_Directory>
/home/itssahil/PROJECTS/Mol_Feturizer/New_Systems/rnas/3F2Q

>  <Rbt.Executable>
rbdock ($Id: //depot/dev/client3/rdock/2013.1/src/exe/rbdock.cxx#4 $)

>  <Rbt.Library>
libRbt.so (2013.1, Build901 2013/11/27)

>  <Rbt.Parameter_File>
/export/apps/rDock/src/rDock_2013.1_src/data/scripts/dock_solv.prm

>  <Rbt.Receptor>
prm/pocket_docking_6.prm

>  <SCORE>
-21.3831

>  <SCORE.INTER>
-16.5619

>  <SCORE.INTER.CONST>
1

>  <SCORE.INTER.POLAR>
0

>  <SCORE.INTER.ROT>
7

>  <SCORE.INTER.SOLV>
11.0388

>  <SCORE.INTER.VDW>
-22.9875

>  <SCORE.INTER.norm>
-0.534254

>  <SCORE.INTRA>
-4.8212

>  <SCORE.INTRA.DIHEDRAL>
-8.05482

>  <SCORE.INTRA.DIHEDRAL.0>
10.0718

>  <SCORE.INTRA.POLAR>
0

>  <SCORE.INTRA.POLAR.0>
0

>  <SCORE.INTRA.REPUL>
0

>  <SCORE.INTRA.REPUL.0>
0

>  <SCORE.INTRA.SOLV>
-0.587104

>  <SCORE.INTRA.SOLV.lig_0>
-48.6963

>  <SCORE.INTRA.VDW>
-0.500237

>  <SCORE.INTRA.VDW.0>
-0.836976

>  <SCORE.INTRA.norm>
-0.155523

>  <SCORE.RESTR>
0

>  <SCORE.RESTR.CAVITY>
0

>  <SCORE.RESTR.norm>
0

>  <SCORE.SYSTEM>
0

>  <SCORE.SYSTEM.CONST>
0

>  <SCORE.SYSTEM.DIHEDRAL>
0

>  <SCORE.SYSTEM.SOLV>
0

>  <SCORE.SYSTEM.norm>
0

>  <SCORE.heavy>
31

>  <SCORE.norm>
-0.689776

>  <RMSD>
5.722

$$$$
ligand
 OpenBabel11021811473D
libRbt.so/2013.1/901 2013/11/27
 31 33  0  0  0  0  0  0  0  0999 V2000
   23.3447   33.3667   17.2942 P   0  0  1  0  0  0  0  0  0  0  0  0
   24.1418   32.1331   17.6607 O   0  0  0  0  0  0  0  0  0  0  0  0
   22.7920   33.1660   15.9088 O   0  5  0  0  0  0  0  0  0  0  0  0
   22.2122   33.5607   18.2646 O   0  0  0  0  0  0  0  0  0  0  0  0
   25.0910   34.8424   18.5410 C   0  0  0  0  0  0  0  0  0  0  0  0
   24.2819   34.6598   17.4046 O   0  0  0  0  0  0  0  0  0  0  0  0
   25.8157   36.1756   18.4275 C   0  0  1  0  0  0  0  0  0  0  0  0
   24.8604   37.2139   18.4769 O   0  0  0  0  0  0  0  0  0  0  0  0
   26.8281   36.3276   19.5627 C   0  0  1  0  0  0  0  0  0  0  0  0
   27.7600   35.2686   19.5120 O   0  0  0  0  0  0  0  0  0  0  0  0
   27.5359   37.6896   19.5815 C   0  0  1  0  0  0  0  0  0  0  0  0
   26.5816   38.7256   19.6511 O   0  0  0  0  0  0  0  0  0  0  0  0
   28.5065   37.8271   20.7437 C   0  0  0  0  0  0  0  0  0  0  0  0
   27.3555   35.6517   22.1315 N   0  0  0  0  0  0  0  0  0  0  0  0
   26.8567   34.5510   22.7980 C   0  0  0  0  0  0  0  0  0  0  0  0
   26.9518   33.4274   22.2966 O   0  0  0  0  0  0  0  0  0  0  0  0
   26.2426   34.7162   24.0231 N   0  0  0  0  0  0  0  0  0  0  0  0
   26.1264   35.9749   24.5823 C   0  0  0  0  0  0  0  0  0  0  0  0
   26.6254   37.0771   23.9200 C   0  0  1  0  0  0  0  0  0  0  0  0
   25.5897   36.1350   25.6772 O   0  0  0  0  0  0  0  0  0  0  0  0
   27.0061   39.4315   23.8386 C   0  0  2  0  0  0  0  0  0  0  0  0
   26.5046   38.3268   24.4960 N   0  0  0  0  0  0  0  0  0  0  0  0
   26.8837   40.6929   24.4163 C   0  0  0  0  0  0  0  0  0  0  0  0
   27.3792   41.8140   23.7581 C   0  0  1  0  0  0  0  0  0  0  0  0
   27.2483   43.1671   24.4010 C   0  0  0  0  0  0  0  0  0  0  0  0
   28.0042   41.6670   22.5146 C   0  0  1  0  0  0  0  0  0  0  0  0
   28.5622   42.8551   21.7869 C   0  0  0  0  0  0  0  0  0  0  0  0
   28.1251   40.4048   21.9409 C   0  0  0  0  0  0  0  0  0  0  0  0
   27.6276   39.2803   22.5953 C   0  0  2  0  0  0  0  0  0  0  0  0
   27.2465   36.9162   22.6867 C   0  0  2  0  0  0  0  0  0  0  0  0
   27.7393   38.0207   22.0188 N   0  0  0  0  0  0  0  0  0  0  0  0
  1  2  1  1  0  0  0
  1  3  1  0  0  0  0
  1  4  2  0  0  0  0
  1  6  1  0  0  0  0
  5  6  1  0  0  0  0
  7  5  1  1  0  0  0
  7  8  1  0  0  0  0
  7  9  1  0  0  0  0
  9 10  1  6  0  0  0
  9 11  1  0  0  0  0
 11 12  1  1  0  0  0
 11 13  1  0  0  0  0
 13 31  1  0  0  0  0
 14 15  1  0  0  0  0
 15 16  2  0  0  0  0
 15 17  1  0  0  0  0
 17 18  1  0  0  0  0
 18 20  2  0  0  0  0
 19 18  1  1  0  0  0
 19 22  1  0  0  0  0
 19 30  1  0  0  0  0
 21 23  1  6  0  0  0
 21 29  1  0  0  0  0
 21 22  1  0  0  0  0
 23 24  1  0  0  0  0
 24 25  1  1  0  0  0
 24 26  1  0  0  0  0
 26 27  1  1  0  0  0
 26 28  1  0  0  0  0
 29 28  1  6  0  0  0
 29 31  1  0  0  0  0
 30 14  1  6  0  0  0
 30 31  1  0  0  0  0
M  CHG  1   3  -1
M  END
>  <CHROM.1>
-176.91741087,-46.95536334,65.59287364,58.85790093,56.46103937,-74.02990863
-102.60649037,26.18087468,36.85635741,21.02533679,-3.08952049,1.18899188
2.22141160

>  <Name>
ligand

>  <RI>
0

>  <Rbt.Current_Directory>
/home/itssahil/PROJECTS/Mol_Feturizer/New_Systems/rnas/3F2Q

>  <Rbt.Executable>
rbdock ($Id: //depot/dev/client3/rdock/2013.1/src/exe/rbdock.cxx#4 $)

>  <Rbt.Library>
libRbt.so (2013.1, Build901 2013/11/27)

>  <Rbt.Parameter_File>
/export/apps/rDock/src/rDock_2013.1_src/data/scripts/dock_solv.prm

>  <Rbt.Receptor>
prm/pocket_docking_7.prm

>  <SCORE>
-30.4621

>  <SCORE.INTER>
-25.319

>  <SCORE.INTER.CONST>
1

>  <SCORE.INTER.POLAR>
0

>  <SCORE.INTER.ROT>
7

>  <SCORE.INTER.SOLV>
17.2669

>  <SCORE.INTER.VDW>
-30.9016

>  <SCORE.INTER.norm>
-0.816742

>  <SCORE.INTRA>
-5.14314

>  <SCORE.INTRA.DIHEDRAL>
-7.40551

>  <SCORE.INTRA.DIHEDRAL.0>
10.0718

>  <SCORE.INTRA.POLAR>
0

>  <SCORE.INTRA.POLAR.0>
0

>  <SCORE.INTRA.REPUL>
0

>  <SCORE.INTRA.REPUL.0>
0

>  <SCORE.INTRA.SOLV>
-0.709382

>  <SCORE.INTRA.SOLV.lig_0>
-48.6963

>  <SCORE.INTRA.VDW>
-1.08569

>  <SCORE.INTRA.VDW.0>
-0.836976

>  <SCORE.INTRA.norm>
-0.165908

>  <SCORE.RESTR>
0

>  <SCORE.RESTR.CAVITY>
0

>  <SCORE.RESTR.norm>
0

>  <SCORE.SYSTEM>
0

>  <SCORE.SYSTEM.CONST>
0

>  <SCORE.SYSTEM.DIHEDRAL>
0

>  <SCORE.SYSTEM.SOLV>
0

>  <SCORE.SYSTEM.norm>
0

>  <SCORE.heavy>
31

>  <SCORE.norm>
-0.98265

>  <RMSD>
5.723

$$$$
ligand
 OpenBabel11021811473D
libRbt.so/2013.1/901 2013/11/27
 31 33  0  0  0  0  0  0  0  0999 V2000
   24.4139   32.9436   14.6832 P   0  0  1  0  0  0  0  0  0  0  0  0
   25.3280   33.5987   13.6699 O   0  0  0  0  0  0  0  0  0  0  0  0
   23.0974   32.6670   14.0084 O   0  5  0  0  0  0  0  0  0  0  0  0
   25.0138   31.6514   15.1650 O   0  0  0  0  0  0  0  0  0  0  0  0
   25.3714   34.1150   16.8028 C   0  0  0  0  0  0  0  0  0  0  0  0
   24.2653   33.8956   15.9616 O   0  0  0  0  0  0  0  0  0  0  0  0
   25.0208   35.1956   17.8152 C   0  0  1  0  0  0  0  0  0  0  0  0
   23.9050   34.7654   18.5658 O   0  0  0  0  0  0  0  0  0  0  0  0
   26.2107   35.4665   18.7358 C   0  0  1  0  0  0  0  0  0  0  0  0
   26.1408   36.7890   19.2242 O   0  0  0  0  0  0  0  0  0  0  0  0
   26.3462   34.4569   19.8842 C   0  0  1  0  0  0  0  0  0  0  0  0
   26.0498   33.1588   19.4196 O   0  0  0  0  0  0  0  0  0  0  0  0
   27.7349   34.4598   20.5031 C   0  0  0  0  0  0  0  0  0  0  0  0
   29.2357   35.6304   18.4148 N   0  0  0  0  0  0  0  0  0  0  0  0
   29.9202   36.1727   17.3463 C   0  0  0  0  0  0  0  0  0  0  0  0
   30.2007   35.4717   16.3700 O   0  0  0  0  0  0  0  0  0  0  0  0
   30.2971   37.5001   17.3807 N   0  0  0  0  0  0  0  0  0  0  0  0
   29.9924   38.2846   18.4771 C   0  0  0  0  0  0  0  0  0  0  0  0
   29.3067   37.7467   19.5462 C   0  0  1  0  0  0  0  0  0  0  0  0
   30.3144   39.4709   18.5168 O   0  0  0  0  0  0  0  0  0  0  0  0
   28.3172   38.0134   21.7013 C   0  0  2  0  0  0  0  0  0  0  0  0
   29.0066   38.5468   20.6315 N   0  0  0  0  0  0  0  0  0  0  0  0
   28.0152   38.8176   22.7976 C   0  0  0  0  0  0  0  0  0  0  0  0
   27.3272   38.2876   23.8846 C   0  0  1  0  0  0  0  0  0  0  0  0
   26.9998   39.1725   25.0555 C   0  0  0  0  0  0  0  0  0  0  0  0
   26.9374   36.9435   23.8687 C   0  0  1  0  0  0  0  0  0  0  0  0
   26.1810   36.3465   25.0194 C   0  0  0  0  0  0  0  0  0  0  0  0
   27.2406   36.1434   22.7711 C   0  0  0  0  0  0  0  0  0  0  0  0
   27.9318   36.6696   21.6823 C   0  0  2  0  0  0  0  0  0  0  0  0
   28.9230   36.4108   19.5159 C   0  0  2  0  0  0  0  0  0  0  0  0
   28.2434   35.8689   20.5899 N   0  0  0  0  0  0  0  0  0  0  0  0
  1  2  1  6  0  0  0
  1  3  1  0  0  0  0
  1  4  2  0  0  0  0
  1  6  1  0  0  0  0
  5  6  1  0  0  0  0
  7  5  1  6  0  0  0
  7  8  1  0  0  0  0
  7  9  1  0  0  0  0
  9 10  1  1  0  0  0
  9 11  1  0  0  0  0
 11 12  1  6  0  0  0
 11 13  1  0  0  0  0
 13 31  1  0  0  0  0
 14 15  1  0  0  0  0
 15 16  2  0  0  0  0
 15 17  1  0  0  0  0
 17 18  1  0  0  0  0
 18 20  2  0  0  0  0
 19 18  1  6  0  0  0
 19 22  1  0  0  0  0
 19 30  1  0  0  0  0
 21 23  1  1  0  0  0
 21 29  1  0  0  0  0
 21 22  1  0  0  0  0
 23 24  1  0  0  0  0
 24 25  1  6  0  0  0
 24 26  1  0  0  0  0
 26 27  1  6  0  0  0
 26 28  1  0  0  0  0
 29 28  1  1  0  0  0
 29 31  1  0  0  0  0
 30 14  1  1  0  0  0
 30 31  1  0  0  0  0
M  CHG  1   3  -1
M  END
>  <CHROM.1>
172.19445676,-67.90410074,59.41705413,153.47255476,39.69454368,39.33432988
86.13102965,27.00367410,35.74097546,18.96150847,2.01240239,-0.57033111,-1.88958495

>  <Name>
ligand

>  <RI>
0

>  <Rbt.Current_Directory>
/home/itssahil/PROJECTS/Mol_Feturizer/New_Systems/rnas/3F2Q

>  <Rbt.Executable>
rbdock ($Id: //depot/dev/client3/rdock/2013.1/src/exe/rbdock.cxx#4 $)

>  <Rbt.Library>
libRbt.so (2013.1, Build901 2013/11/27)

>  <Rbt.Parameter_File>
/export/apps/rDock/src/rDock_2013.1_src/data/scripts/dock_solv.prm

>  <Rbt.Receptor>
prm/blind_docking_100.prm

>  <SCORE>
-22.6811

>  <SCORE.INTER>
-19.4195

>  <SCORE.INTER.CONST>
1

>  <SCORE.INTER.POLAR>
0

>  <SCORE.INTER.ROT>
7

>  <SCORE.INTER.SOLV>
11.6555

>  <SCORE.INTER.VDW>
-25.0982

>  <SCORE.INTER.norm>
-0.626437

>  <SCORE.INTRA>
-3.26159

>  <SCORE.INTRA.DIHEDRAL>
-3.56709

>  <SCORE.INTRA.DIHEDRAL.0>
10.0718

>  <SCORE.INTRA.POLAR>
0

>  <SCORE.INTRA.POLAR.0>
0

>  <SCORE.INTRA.REPUL>
0

>  <SCORE.INTRA.REPUL.0>
0

>  <SCORE.INTRA.SOLV>
-0.676429

>  <SCORE.INTRA.SOLV.lig_0>
-48.6963

>  <SCORE.INTRA.VDW>
-1.13983

>  <SCORE.INTRA.VDW.0>
-0.836976

>  <SCORE.INTRA.norm>
-0.105212

>  <SCORE.RESTR>
0

>  <SCORE.RESTR.CAVITY>
0

>  <SCORE.RESTR.norm>
0

>  <SCORE.SYSTEM>
0

>  <SCORE.SYSTEM.CONST>
0

>  <SCORE.SYSTEM.DIHEDRAL>
0

>  <SCORE.SYSTEM.SOLV>
0

>  <SCORE.SYSTEM.norm>
0

>  <SCORE.heavy>
31

>  <SCORE.norm>
-0.731649

>  <RMSD>
5.730

$$$$
ligand
 OpenBabel11021811473D
libRbt.so/2013.1/901 2013/11/27
 31 33  0  0  0  0  0  0  0  0999 V2000
   28.5867   34.1221   12.4392 P   0  0  1  0  0  0  0  0  0  0  0  0
   29.1990   35.3450   11.7900 O   0  0  0  0  0  0  0  0  0  0  0  0
   27.5947   33.5328   11.4728 O   0  5  0  0  0  0  0  0  0  0  0  0
   29.6538   33.1078   12.7462 O   0  0  0  0  0  0  0  0  0  0  0  0
   27.1051   35.6809   13.9077 C   0  0  0  0  0  0  0  0  0  0  0  0
   27.9197   34.5362   13.8343 O   0  0  0  0  0  0  0  0  0  0  0  0
   26.5706   35.8218   15.3255 C   0  0  1  0  0  0  0  0  0  0  0  0
   25.7290   34.7224   15.6015 O   0  0  0  0  0  0  0  0  0  0  0  0
   27.7257   35.8737   16.3254 C   0  0  1  0  0  0  0  0  0  0  0  0
   28.6689   36.8384   15.9106 O   0  0  0  0  0  0  0  0  0  0  0  0
   27.2794   36.1201   17.7733 C   0  0  1  0  0  0  0  0  0  0  0  0
   26.3971   35.0994   18.1840 O   0  0  0  0  0  0  0  0  0  0  0  0
   28.4496   36.1869   18.7416 C   0  0  0  0  0  0  0  0  0  0  0  0
   27.8094   34.5856   20.9798 N   0  0  0  0  0  0  0  0  0  0  0  0
   27.5580   33.7631   22.0590 C   0  0  0  0  0  0  0  0  0  0  0  0
   27.6075   32.5369   21.9283 O   0  0  0  0  0  0  0  0  0  0  0  0
   27.2415   34.3199   23.2817 N   0  0  0  0  0  0  0  0  0  0  0  0
   27.1760   35.6928   23.4282 C   0  0  0  0  0  0  0  0  0  0  0  0
   27.4285   36.5182   22.3523 C   0  0  1  0  0  0  0  0  0  0  0  0
   26.9040   36.2021   24.5140 O   0  0  0  0  0  0  0  0  0  0  0  0
   27.6191   38.7173   21.4454 C   0  0  2  0  0  0  0  0  0  0  0  0
   27.3632   37.8880   22.5182 N   0  0  0  0  0  0  0  0  0  0  0  0
   27.5519   40.0987   21.6097 C   0  0  0  0  0  0  0  0  0  0  0  0
   27.8007   40.9434   20.5325 C   0  0  1  0  0  0  0  0  0  0  0  0
   27.7344   42.4327   20.7298 C   0  0  0  0  0  0  0  0  0  0  0  0
   28.1222   40.3977   19.2845 C   0  0  1  0  0  0  0  0  0  0  0  0
   28.4106   41.2828   18.1072 C   0  0  0  0  0  0  0  0  0  0  0  0
   28.1890   39.0168   19.1246 C   0  0  0  0  0  0  0  0  0  0  0  0
   27.9376   38.1678   20.1999 C   0  0  2  0  0  0  0  0  0  0  0  0
   27.7496   35.9627   21.1191 C   0  0  2  0  0  0  0  0  0  0  0  0
   27.9946   36.7885   20.0388 N   0  0  0  0  0  0  0  0  0  0  0  0
  1  2  1  6  0  0  0
  1  3  1  0  0  0  0
  1  4  2  0  0  0  0
  1  6  1  0  0  0  0
  5  6  1  0  0  0  0
  7  5  1  6  0  0  0
  7  8  1  0  0  0  0
  7  9  1  0  0  0  0
  9 10  1  6  0  0  0
  9 11  1  0  0  0  0
 11 12  1  1  0  0  0
 11 13  1  0  0  0  0
 13 31  1  0  0  0  0
 14 15  1  0  0  0  0
 15 16  2  0  0  0  0
 15 17  1  0  0  0  0
 17 18  1  0  0  0  0
 18 20  2  0  0  0  0
 19 18  1  1  0  0  0
 19 22  1  0  0  0  0
 19 30  1  0  0  0  0
 21 23  1  6  0  0  0
 21 29  1  0  0  0  0
 21 22  1  0  0  0  0
 23 24  1  0  0  0  0
 24 25  1  1  0  0  0
 24 26  1  0  0  0  0
 26 27  1  1  0  0  0
 26 28  1  0  0  0  0
 29 28  1  6  0  0  0
 29 31  1  0  0  0  0
 30 14  1  6  0  0  0
 30 31  1  0  0  0  0
M  CHG  1   3  -1
M  END
>  <CHROM.1>
178.37464989,46.17816135,-64.68863627,50.50494402,58.95478051,164.73701432
-83.97083466,27.75148738,36.32603545,18.19923140,0.93676573,-1.45398142,-2.52973502

>  <Name>
ligand

>  <RI>
0

>  <Rbt.Current_Directory>
/home/itssahil/PROJECTS/Mol_Feturizer/New_Systems/rnas/3F2Q

>  <Rbt.Executable>
rbdock ($Id: //depot/dev/client3/rdock/2013.1/src/exe/rbdock.cxx#4 $)

>  <Rbt.Library>
libRbt.so (2013.1, Build901 2013/11/27)

>  <Rbt.Parameter_File>
/export/apps/rDock/src/rDock_2013.1_src/data/scripts/dock_solv.prm

>  <Rbt.Receptor>
prm/blind_docking_60.prm

>  <SCORE>
-24.9146

>  <SCORE.INTER>
-19.7468

>  <SCORE.INTER.CONST>
1

>  <SCORE.INTER.POLAR>
0

>  <SCORE.INTER.ROT>
7

>  <SCORE.INTER.SOLV>
11.1971

>  <SCORE.INTER.VDW>
-25.1636

>  <SCORE.INTER.norm>
-0.636994

>  <SCORE.INTRA>
-5.16774

>  <SCORE.INTRA.DIHEDRAL>
-7.03761

>  <SCORE.INTRA.DIHEDRAL.0>
10.0718

>  <SCORE.INTRA.POLAR>
0

>  <SCORE.INTRA.POLAR.0>
0

>  <SCORE.INTRA.REPUL>
0

>  <SCORE.INTRA.REPUL.0>
0

>  <SCORE.INTRA.SOLV>
-1.17427

>  <SCORE.INTRA.SOLV.lig_0>
-48.6963

>  <SCORE.INTRA.VDW>
-1.0618

>  <SCORE.INTRA.VDW.0>
-0.836976

>  <SCORE.INTRA.norm>
-0.166701

>  <SCORE.RESTR>
0

>  <SCORE.RESTR.CAVITY>
0

>  <SCORE.RESTR.norm>
0

>  <SCORE.SYSTEM>
0

>  <SCORE.SYSTEM.CONST>
0

>  <SCORE.SYSTEM.DIHEDRAL>
0

>  <SCORE.SYSTEM.SOLV>
0

>  <SCORE.SYSTEM.norm>
0

>  <SCORE.heavy>
31

>  <SCORE.norm>
-0.803695

>  <RMSD>
5.739

$$$$
ligand
 OpenBabel11021811473D
libRbt.so/2013.1/901 2013/11/27
 31 33  0  0  0  0  0  0  0  0999 V2000
   27.1994   36.2723   15.9793 P   0  0  1  0  0  0  0  0  0  0  0  0
   26.4136   37.4904   16.4152 O   0  0  0  0  0  0  0  0  0  0  0  0
   26.9067   35.1606   16.9507 O   0  5  0  0  0  0  0  0  0  0  0  0
   26.7840   35.8539   14.5957 O   0  0  0  0  0  0  0  0  0  0  0  0
   29.3327   37.4371   16.9142 C   0  0  0  0  0  0  0  0  0  0  0  0
   28.7562   36.6385   15.9096 O   0  0  0  0  0  0  0  0  0  0  0  0
   29.2813   36.6873   18.2373 C   0  0  1  0  0  0  0  0  0  0  0  0
   30.1221   35.5566   18.1479 O   0  0  0  0  0  0  0  0  0  0  0  0
   29.7306   37.5971   19.3806 C   0  0  1  0  0  0  0  0  0  0  0  0
   30.9888   38.1584   19.0735 O   0  0  0  0  0  0  0  0  0  0  0  0
   28.7103   38.6855   19.7420 C   0  0  1  0  0  0  0  0  0  0  0  0
   28.5842   39.5987   18.6748 O   0  0  0  0  0  0  0  0  0  0  0  0
   27.3407   38.1148   20.0740 C   0  0  0  0  0  0  0  0  0  0  0  0
   27.1734   39.4629   22.5515 N   0  0  0  0  0  0  0  0  0  0  0  0
   27.0356   40.1619   23.7335 C   0  0  0  0  0  0  0  0  0  0  0  0
   26.9622   41.3938   23.7198 O   0  0  0  0  0  0  0  0  0  0  0  0
   26.9902   39.4758   24.9302 N   0  0  0  0  0  0  0  0  0  0  0  0
   27.0818   38.0967   24.9488 C   0  0  0  0  0  0  0  0  0  0  0  0
   27.2177   37.3945   23.7694 C   0  0  1  0  0  0  0  0  0  0  0  0
   27.0337   37.4724   26.0073 O   0  0  0  0  0  0  0  0  0  0  0  0
   27.4350   35.3097   22.6286 C   0  0  2  0  0  0  0  0  0  0  0  0
   27.3030   36.0162   23.8065 N   0  0  0  0  0  0  0  0  0  0  0  0
   27.5232   33.9202   22.6636 C   0  0  0  0  0  0  0  0  0  0  0  0
   27.6641   33.1990   21.4821 C   0  0  1  0  0  0  0  0  0  0  0  0
   27.7472   31.6985   21.5371 C   0  0  0  0  0  0  0  0  0  0  0  0
   27.7131   33.8769   20.2588 C   0  0  1  0  0  0  0  0  0  0  0  0
   27.8494   33.1263   18.9663 C   0  0  0  0  0  0  0  0  0  0  0  0
   27.6239   35.2655   20.2280 C   0  0  0  0  0  0  0  0  0  0  0  0
   27.4858   35.9912   21.4088 C   0  0  2  0  0  0  0  0  0  0  0  0
   27.2620   38.0805   22.5611 C   0  0  2  0  0  0  0  0  0  0  0  0
   27.4064   37.3784   21.3798 N   0  0  0  0  0  0  0  0  0  0  0  0
  1  2  1  1  0  0  0
  1  3  1  0  0  0  0
  1  4  2  0  0  0  0
  1  6  1  0  0  0  0
  5  6  1  0  0  0  0
  7  5  1  6  0  0  0
  7  8  1  0  0  0  0
  7  9  1  0  0  0  0
  9 10  1  6  0  0  0
  9 11  1  0  0  0  0
 11 12  1  6  0  0  0
 11 13  1  0  0  0  0
 13 31  1  0  0  0  0
 14 15  1  0  0  0  0
 15 16  2  0  0  0  0
 15 17  1  0  0  0  0
 17 18  1  0  0  0  0
 18 20  2  0  0  0  0
 19 18  1  6  0  0  0
 19 22  1  0  0  0  0
 19 30  1  0  0  0  0
 21 23  1  1  0  0  0
 21 29  1  0  0  0  0
 21 22  1  0  0  0  0
 23 24  1  0  0  0  0
 24 25  1  6  0  0  0
 24 26  1  0  0  0  0
 26 27  1  6  0  0  0
 26 28  1  0  0  0  0
 29 28  1  1  0  0  0
 29 31  1  0  0  0  0
 30 14  1  1  0  0  0
 30 31  1  0  0  0  0
M  CHG  1   3  -1
M  END
>  <CHROM.1>
65.02038194,41.20581387,66.26616609,-52.98068610,-66.44175326,69.77343921
-101.16000685,27.82268461,36.80426272,20.22355122,-0.65621331,1.44378202
0.37746428

>  <Name>
ligand

>  <RI>
0

>  <Rbt.Current_Directory>
/home/itssahil/PROJECTS/Mol_Feturizer/New_Systems/rnas/3F2Q

>  <Rbt.Executable>
rbdock ($Id: //depot/dev/client3/rdock/2013.1/src/exe/rbdock.cxx#4 $)

>  <Rbt.Library>
libRbt.so (2013.1, Build901 2013/11/27)

>  <Rbt.Parameter_File>
/export/apps/rDock/src/rDock_2013.1_src/data/scripts/dock_solv.prm

>  <Rbt.Receptor>
prm/pocket_docking_5.prm

>  <SCORE>
-26.3669

>  <SCORE.INTER>
-21.8943

>  <SCORE.INTER.CONST>
1

>  <SCORE.INTER.POLAR>
0

>  <SCORE.INTER.ROT>
7

>  <SCORE.INTER.SOLV>
13.4753

>  <SCORE.INTER.VDW>
-27.3546

>  <SCORE.INTER.norm>
-0.706267

>  <SCORE.INTRA>
-4.47259

>  <SCORE.INTRA.DIHEDRAL>
-7.07604

>  <SCORE.INTRA.DIHEDRAL.0>
10.0718

>  <SCORE.INTRA.POLAR>
0

>  <SCORE.INTRA.POLAR.0>
0

>  <SCORE.INTRA.REPUL>
0

>  <SCORE.INTRA.REPUL.0>
0

>  <SCORE.INTRA.SOLV>
2.562

>  <SCORE.INTRA.SOLV.lig_0>
-48.6963

>  <SCORE.INTRA.VDW>
-2.21557

>  <SCORE.INTRA.VDW.0>
-0.836976

>  <SCORE.INTRA.norm>
-0.144277

>  <SCORE.RESTR>
0

>  <SCORE.RESTR.CAVITY>
0

>  <SCORE.RESTR.norm>
0

>  <SCORE.SYSTEM>
0

>  <SCORE.SYSTEM.CONST>
0

>  <SCORE.SYSTEM.DIHEDRAL>
0

>  <SCORE.SYSTEM.SOLV>
0

>  <SCORE.SYSTEM.norm>
0

>  <SCORE.heavy>
31

>  <SCORE.norm>
-0.850544

>  <RMSD>
5.739

$$$$
ligand
 OpenBabel11021811473D
libRbt.so/2013.1/901 2013/11/27
 31 33  0  0  0  0  0  0  0  0999 V2000
   28.2941   42.7072   23.6560 P   0  0  1  0  0  0  0  0  0  0  0  0
   28.8157   43.7514   22.6921 O   0  0  0  0  0  0  0  0  0  0  0  0
   29.2274   42.6591   24.8358 O   0  5  0  0  0  0  0  0  0  0  0  0
   26.9123   43.0748   24.1222 O   0  0  0  0  0  0  0  0  0  0  0  0
   29.3114   40.7298   22.3008 C   0  0  0  0  0  0  0  0  0  0  0  0
   28.1750   41.2990   22.9041 O   0  0  0  0  0  0  0  0  0  0  0  0
   28.9738   39.3224   21.8312 C   0  0  1  0  0  0  0  0  0  0  0  0
   28.3676   38.6242   22.8982 O   0  0  0  0  0  0  0  0  0  0  0  0
   28.0343   39.3759   20.6266 C   0  0  1  0  0  0  0  0  0  0  0  0
   28.5840   40.2148   19.6334 O   0  0  0  0  0  0  0  0  0  0  0  0
   27.6827   37.9953   20.0550 C   0  0  1  0  0  0  0  0  0  0  0  0
   26.7273   38.1306   19.0265 O   0  0  0  0  0  0  0  0  0  0  0  0
   28.8985   37.2612   19.5124 C   0  0  0  0  0  0  0  0  0  0  0  0
   28.0341   36.1220   21.9492 N   0  0  0  0  0  0  0  0  0  0  0  0
   27.5614   35.6203   23.1448 C   0  0  0  0  0  0  0  0  0  0  0  0
   27.3997   36.3710   24.1110 O   0  0  0  0  0  0  0  0  0  0  0  0
   27.2803   34.2735   23.2558 N   0  0  0  0  0  0  0  0  0  0  0  0
   27.4698   33.4292   22.1779 C   0  0  0  0  0  0  0  0  0  0  0  0
   27.9402   33.9272   20.9807 C   0  0  1  0  0  0  0  0  0  0  0  0
   27.2147   32.2290   22.2604 O   0  0  0  0  0  0  0  0  0  0  0  0
   28.5857   33.5646   18.7121 C   0  0  2  0  0  0  0  0  0  0  0  0
   28.1190   33.0696   19.9127 N   0  0  0  0  0  0  0  0  0  0  0  0
   28.7687   32.7015   17.6344 C   0  0  0  0  0  0  0  0  0  0  0  0
   29.2460   33.1892   16.4219 C   0  0  1  0  0  0  0  0  0  0  0  0
   29.4277   32.2455   15.2652 C   0  0  0  0  0  0  0  0  0  0  0  0
   29.5377   34.5517   16.2902 C   0  0  1  0  0  0  0  0  0  0  0  0
   30.0396   35.1105   14.9908 C   0  0  0  0  0  0  0  0  0  0  0  0
   29.3528   35.4109   17.3693 C   0  0  0  0  0  0  0  0  0  0  0  0
   28.8781   34.9259   18.5857 C   0  0  2  0  0  0  0  0  0  0  0  0
   28.2231   35.2832   20.8630 C   0  0  2  0  0  0  0  0  0  0  0  0
   28.7023   35.7815   19.6667 N   0  0  0  0  0  0  0  0  0  0  0  0
  1  2  1  6  0  0  0
  1  3  1  0  0  0  0
  1  4  2  0  0  0  0
  1  6  1  0  0  0  0
  5  6  1  0  0  0  0
  7  5  1  1  0  0  0
  7  8  1  0  0  0  0
  7  9  1  0  0  0  0
  9 10  1  6  0  0  0
  9 11  1  0  0  0  0
 11 12  1  6  0  0  0
 11 13  1  0  0  0  0
 13 31  1  0  0  0  0
 14 15  1  0  0  0  0
 15 16  2  0  0  0  0
 15 17  1  0  0  0  0
 17 18  1  0  0  0  0
 18 20  2  0  0  0  0
 19 18  1  6  0  0  0
 19 22  1  0  0  0  0
 19 30  1  0  0  0  0
 21 23  1  1  0  0  0
 21 29  1  0  0  0  0
 21 22  1  0  0  0  0
 23 24  1  0  0  0  0
 24 25  1  6  0  0  0
 24 26  1  0  0  0  0
 26 27  1  6  0  0  0
 26 28  1  0  0  0  0
 29 28  1  1  0  0  0
 29 31  1  0  0  0  0
 30 14  1  1  0  0  0
 30 31  1  0  0  0  0
M  CHG  1   3  -1
M  END
>  <CHROM.1>
172.26345514,57.62360258,-50.01631543,52.67279217,174.97505460,149.53745658
128.55843648,28.35855047,37.28772461,20.79794218,-1.73581905,-1.29247708
-2.74045392

>  <Name>
ligand

>  <RI>
0

>  <Rbt.Current_Directory>
/home/itssahil/PROJECTS/Mol_Feturizer/New_Systems/rnas/3F2Q

>  <Rbt.Executable>
rbdock ($Id: //depot/dev/client3/rdock/2013.1/src/exe/rbdock.cxx#4 $)

>  <Rbt.Library>
libRbt.so (2013.1, Build901 2013/11/27)

>  <Rbt.Parameter_File>
/export/apps/rDock/src/rDock_2013.1_src/data/scripts/dock_solv.prm

>  <Rbt.Receptor>
prm/pocket_docking_6.prm

>  <SCORE>
-26.0344

>  <SCORE.INTER>
-22.7812

>  <SCORE.INTER.CONST>
1

>  <SCORE.INTER.POLAR>
0

>  <SCORE.INTER.ROT>
7

>  <SCORE.INTER.SOLV>
15.7779

>  <SCORE.INTER.VDW>
-28.7134

>  <SCORE.INTER.norm>
-0.734878

>  <SCORE.INTRA>
-3.2532

>  <SCORE.INTRA.DIHEDRAL>
-4.98034

>  <SCORE.INTRA.DIHEDRAL.0>
10.0718

>  <SCORE.INTRA.POLAR>
0

>  <SCORE.INTRA.POLAR.0>
0

>  <SCORE.INTRA.REPUL>
0

>  <SCORE.INTRA.REPUL.0>
0

>  <SCORE.INTRA.SOLV>
-0.754633

>  <SCORE.INTRA.SOLV.lig_0>
-48.6963

>  <SCORE.INTRA.VDW>
-0.385717

>  <SCORE.INTRA.VDW.0>
-0.836976

>  <SCORE.INTRA.norm>
-0.104942

>  <SCORE.RESTR>
0

>  <SCORE.RESTR.CAVITY>
0

>  <SCORE.RESTR.norm>
0

>  <SCORE.SYSTEM>
0

>  <SCORE.SYSTEM.CONST>
0

>  <SCORE.SYSTEM.DIHEDRAL>
0

>  <SCORE.SYSTEM.SOLV>
0

>  <SCORE.SYSTEM.norm>
0

>  <SCORE.heavy>
31

>  <SCORE.norm>
-0.83982

>  <RMSD>
5.740

$$$$
ligand
 OpenBabel11021811473D
libRbt.so/2013.1/901 2013/11/27
 31 33  0  0  0  0  0  0  0  0999 V2000
   32.4147   34.3499   16.5857 P   0  0  1  0  0  0  0  0  0  0  0  0
   31.9735   32.9051   16.4890 O   0  0  0  0  0  0  0  0  0  0  0  0
   33.7977   34.3728   17.1791 O   0  5  0  0  0  0  0  0  0  0  0  0
   32.4431   34.9769   15.2190 O   0  0  0  0  0  0  0  0  0  0  0  0
   30.0243   35.2904   17.0134 C   0  0  0  0  0  0  0  0  0  0  0  0
   31.3545   35.1744   17.4567 O   0  0  0  0  0  0  0  0  0  0  0  0
   29.2062   36.0098   18.0757 C   0  0  1  0  0  0  0  0  0  0  0  0
   29.1675   35.2063   19.2360 O   0  0  0  0  0  0  0  0  0  0  0  0
   29.8250   37.3716   18.3904 C   0  0  1  0  0  0  0  0  0  0  0  0
   29.5132   38.2838   17.3592 O   0  0  0  0  0  0  0  0  0  0  0  0
   29.4268   37.9292   19.7641 C   0  0  1  0  0  0  0  0  0  0  0  0
   30.0772   39.1600   19.9895 O   0  0  0  0  0  0  0  0  0  0  0  0
   27.9255   38.1262   19.9012 C   0  0  0  0  0  0  0  0  0  0  0  0
   27.1803   35.7712   21.2730 N   0  0  0  0  0  0  0  0  0  0  0  0
   26.8733   34.5859   21.9096 C   0  0  0  0  0  0  0  0  0  0  0  0
   26.8067   33.5355   21.2650 O   0  0  0  0  0  0  0  0  0  0  0  0
   26.6319   34.5843   23.2686 N   0  0  0  0  0  0  0  0  0  0  0  0
   26.6965   35.7610   23.9909 C   0  0  0  0  0  0  0  0  0  0  0  0
   27.0049   36.9474   23.3585 C   0  0  1  0  0  0  0  0  0  0  0  0
   26.4925   35.7723   25.2037 O   0  0  0  0  0  0  0  0  0  0  0  0
   27.3820   39.3012   23.4688 C   0  0  2  0  0  0  0  0  0  0  0  0
   27.0698   38.1129   24.0970 N   0  0  0  0  0  0  0  0  0  0  0  0
   27.4460   40.4780   24.2109 C   0  0  0  0  0  0  0  0  0  0  0  0
   27.7525   41.6826   23.5857 C   0  0  1  0  0  0  0  0  0  0  0  0
   27.8280   42.9422   24.4037 C   0  0  0  0  0  0  0  0  0  0  0  0
   27.9995   41.7046   22.2083 C   0  0  1  0  0  0  0  0  0  0  0  0
   28.3473   42.9856   21.5078 C   0  0  0  0  0  0  0  0  0  0  0  0
   27.9351   40.5263   21.4704 C   0  0  0  0  0  0  0  0  0  0  0  0
   27.6257   39.3190   22.0922 C   0  0  2  0  0  0  0  0  0  0  0  0
   27.2508   36.9542   21.9903 C   0  0  2  0  0  0  0  0  0  0  0  0
   27.5517   38.1435   21.3544 N   0  0  0  0  0  0  0  0  0  0  0  0
  1  2  1  6  0  0  0
  1  3  1  0  0  0  0
  1  4  2  0  0  0  0
  1  6  1  0  0  0  0
  5  6  1  0  0  0  0
  7  5  1  6  0  0  0
  7  8  1  0  0  0  0
  7  9  1  0  0  0  0
  9 10  1  6  0  0  0
  9 11  1  0  0  0  0
 11 12  1  6  0  0  0
 11 13  1  0  0  0  0
 13 31  1  0  0  0  0
 14 15  1  0  0  0  0
 15 16  2  0  0  0  0
 15 17  1  0  0  0  0
 17 18  1  0  0  0  0
 18 20  2  0  0  0  0
 19 18  1  1  0  0  0
 19 22  1  0  0  0  0
 19 30  1  0  0  0  0
 21 23  1  6  0  0  0
 21 29  1  0  0  0  0
 21 22  1  0  0  0  0
 23 24  1  0  0  0  0
 24 25  1  1  0  0  0
 24 26  1  0  0  0  0
 26 27  1  1  0  0  0
 26 28  1  0  0  0  0
 29 28  1  6  0  0  0
 29 31  1  0  0  0  0
 30 14  1  6  0  0  0
 30 31  1  0  0  0  0
M  CHG  1   3  -1
M  END
>  <CHROM.1>
175.00382746,-62.10102665,-64.56747072,76.75515421,177.94536168,158.02373630
85.33344745,28.92876047,37.14092447,20.44799282,-0.68647361,0.91851793,0.14833176

>  <Name>
ligand

>  <RI>
0

>  <Rbt.Current_Directory>
/home/itssahil/PROJECTS/Mol_Feturizer/New_Systems/rnas/3F2Q

>  <Rbt.Executable>
rbdock ($Id: //depot/dev/client3/rdock/2013.1/src/exe/rbdock.cxx#4 $)

>  <Rbt.Library>
libRbt.so (2013.1, Build901 2013/11/27)

>  <Rbt.Parameter_File>
/export/apps/rDock/src/rDock_2013.1_src/data/scripts/dock_solv.prm

>  <Rbt.Receptor>
prm/pocket_docking_7.prm

>  <SCORE>
-26.6311

>  <SCORE.INTER>
-21.5933

>  <SCORE.INTER.CONST>
1

>  <SCORE.INTER.POLAR>
0

>  <SCORE.INTER.ROT>
7

>  <SCORE.INTER.SOLV>
15.2191

>  <SCORE.INTER.VDW>
-27.7352

>  <SCORE.INTER.norm>
-0.696559

>  <SCORE.INTRA>
-5.03783

>  <SCORE.INTRA.DIHEDRAL>
-6.16224

>  <SCORE.INTRA.DIHEDRAL.0>
10.0718

>  <SCORE.INTRA.POLAR>
0

>  <SCORE.INTRA.POLAR.0>
0

>  <SCORE.INTRA.REPUL>
0

>  <SCORE.INTRA.REPUL.0>
0

>  <SCORE.INTRA.SOLV>
-0.837322

>  <SCORE.INTRA.SOLV.lig_0>
-48.6963

>  <SCORE.INTRA.VDW>
-1.53805

>  <SCORE.INTRA.VDW.0>
-0.836976

>  <SCORE.INTRA.norm>
-0.162511

>  <SCORE.RESTR>
0

>  <SCORE.RESTR.CAVITY>
0

>  <SCORE.RESTR.norm>
0

>  <SCORE.SYSTEM>
0

>  <SCORE.SYSTEM.CONST>
0

>  <SCORE.SYSTEM.DIHEDRAL>
0

>  <SCORE.SYSTEM.SOLV>
0

>  <SCORE.SYSTEM.norm>
0

>  <SCORE.heavy>
31

>  <SCORE.norm>
-0.859069

>  <RMSD>
5.743

$$$$
ligand
 OpenBabel11021811473D
libRbt.so/2013.1/901 2013/11/27
 31 33  0  0  0  0  0  0  0  0999 V2000
   32.6391   34.1615   14.3035 P   0  0  1  0  0  0  0  0  0  0  0  0
   32.5181   32.6698   14.0763 O   0  0  0  0  0  0  0  0  0  0  0  0
   34.0864   34.4725   14.5748 O   0  5  0  0  0  0  0  0  0  0  0  0
   32.1835   34.9116   13.0822 O   0  0  0  0  0  0  0  0  0  0  0  0
   31.5834   35.9534   15.8708 C   0  0  0  0  0  0  0  0  0  0  0  0
   31.6770   34.5978   15.5063 O   0  0  0  0  0  0  0  0  0  0  0  0
   30.6584   36.0836   17.0720 C   0  0  1  0  0  0  0  0  0  0  0  0
   31.1212   35.2250   18.0928 O   0  0  0  0  0  0  0  0  0  0  0  0
   30.6285   37.5303   17.5645 C   0  0  1  0  0  0  0  0  0  0  0  0
   29.9643   38.3399   16.6179 O   0  0  0  0  0  0  0  0  0  0  0  0
   30.0165   37.6949   18.9626 C   0  0  1  0  0  0  0  0  0  0  0  0
   30.3065   38.9803   19.4653 O   0  0  0  0  0  0  0  0  0  0  0  0
   28.5107   37.4852   18.9692 C   0  0  0  0  0  0  0  0  0  0  0  0
   28.0655   35.1480   20.4933 N   0  0  0  0  0  0  0  0  0  0  0  0
   27.9132   33.9801   21.2125 C   0  0  0  0  0  0  0  0  0  0  0  0
   28.0965   32.8883   20.6671 O   0  0  0  0  0  0  0  0  0  0  0  0
   27.5455   34.0407   22.5415 N   0  0  0  0  0  0  0  0  0  0  0  0
   27.3303   35.2620   23.1518 C   0  0  0  0  0  0  0  0  0  0  0  0
   27.4834   36.4316   22.4368 C   0  0  1  0  0  0  0  0  0  0  0  0
   27.0112   35.3306   24.3376 O   0  0  0  0  0  0  0  0  0  0  0  0
   27.4248   38.8158   22.3535 C   0  0  2  0  0  0  0  0  0  0  0  0
   27.2688   37.6434   23.0643 N   0  0  0  0  0  0  0  0  0  0  0  0
   27.2071   40.0387   22.9834 C   0  0  0  0  0  0  0  0  0  0  0  0
   27.3543   41.2263   22.2736 C   0  0  1  0  0  0  0  0  0  0  0  0
   27.1258   42.5384   22.9719 C   0  0  0  0  0  0  0  0  0  0  0  0
   27.7256   41.1854   20.9249 C   0  0  1  0  0  0  0  0  0  0  0  0
   27.9070   42.4495   20.1365 C   0  0  0  0  0  0  0  0  0  0  0  0
   27.9428   39.9613   20.2993 C   0  0  0  0  0  0  0  0  0  0  0  0
   27.7936   38.7702   21.0056 C   0  0  2  0  0  0  0  0  0  0  0  0
   27.8554   36.3763   21.0985 C   0  0  2  0  0  0  0  0  0  0  0  0
   28.0009   37.5470   20.3792 N   0  0  0  0  0  0  0  0  0  0  0  0
  1  2  1  6  0  0  0
  1  3  1  0  0  0  0
  1  4  2  0  0  0  0
  1  6  1  0  0  0  0
  5  6  1  0  0  0  0
  7  5  1  6  0  0  0
  7  8  1  0  0  0  0
  7  9  1  0  0  0  0
  9 10  1  6  0  0  0
  9 11  1  0  0  0  0
 11 12  1  6  0  0  0
 11 13  1  0  0  0  0
 13 31  1  0  0  0  0
 14 15  1  0  0  0  0
 15 16  2  0  0  0  0
 15 17  1  0  0  0  0
 17 18  1  0  0  0  0
 18 20  2  0  0  0  0
 19 18  1  1  0  0  0
 19 22  1  0  0  0  0
 19 30  1  0  0  0  0
 21 23  1  6  0  0  0
 21 29  1  0  0  0  0
 21 22  1  0  0  0  0
 23 24  1  0  0  0  0
 24 25  1  1  0  0  0
 24 26  1  0  0  0  0
 26 27  1  1  0  0  0
 26 28  1  0  0  0  0
 29 28  1  6  0  0  0
 29 31  1  0  0  0  0
 30 14  1  6  0  0  0
 30 31  1  0  0  0  0
M  CHG  1   3  -1
M  END
>  <CHROM.1>
-177.44440682,-177.73804737,54.10116515,69.39085568,166.35570530,175.28604165
79.86017571,29.37797743,36.81723973,19.19945452,-0.36304092,1.01670715,-0.11086043

>  <Name>
ligand

>  <RI>
0

>  <Rbt.Current_Directory>
/home/itssahil/PROJECTS/Mol_Feturizer/New_Systems/rnas/3F2Q

>  <Rbt.Executable>
rbdock ($Id: //depot/dev/client3/rdock/2013.1/src/exe/rbdock.cxx#4 $)

>  <Rbt.Library>
libRbt.so (2013.1, Build901 2013/11/27)

>  <Rbt.Parameter_File>
/export/apps/rDock/src/rDock_2013.1_src/data/scripts/dock_solv.prm

>  <Rbt.Receptor>
prm/blind_docking_60.prm

>  <SCORE>
-25.4911

>  <SCORE.INTER>
-20.2618

>  <SCORE.INTER.CONST>
1

>  <SCORE.INTER.POLAR>
0

>  <SCORE.INTER.ROT>
7

>  <SCORE.INTER.SOLV>
15.6774

>  <SCORE.INTER.VDW>
-27.0003

>  <SCORE.INTER.norm>
-0.653605

>  <SCORE.INTRA>
-5.22934

>  <SCORE.INTRA.DIHEDRAL>
-7.65992

>  <SCORE.INTRA.DIHEDRAL.0>
10.0718

>  <SCORE.INTRA.POLAR>
0

>  <SCORE.INTRA.POLAR.0>
0

>  <SCORE.INTRA.REPUL>
0

>  <SCORE.INTRA.REPUL.0>
0

>  <SCORE.INTRA.SOLV>
-0.801284

>  <SCORE.INTRA.SOLV.lig_0>
-48.6963

>  <SCORE.INTRA.VDW>
-0.998742

>  <SCORE.INTRA.VDW.0>
-0.836976

>  <SCORE.INTRA.norm>
-0.168688

>  <SCORE.RESTR>
0

>  <SCORE.RESTR.CAVITY>
0

>  <SCORE.RESTR.norm>
0

>  <SCORE.SYSTEM>
0

>  <SCORE.SYSTEM.CONST>
0

>  <SCORE.SYSTEM.DIHEDRAL>
0

>  <SCORE.SYSTEM.SOLV>
0

>  <SCORE.SYSTEM.norm>
0

>  <SCORE.heavy>
31

>  <SCORE.norm>
-0.822294

>  <RMSD>
5.797

$$$$
ligand
 OpenBabel11021811473D
libRbt.so/2013.1/901 2013/11/27
 31 33  0  0  0  0  0  0  0  0999 V2000
   26.6108   32.7175   15.5799 P   0  0  1  0  0  0  0  0  0  0  0  0
   25.9411   31.3910   15.2910 O   0  0  0  0  0  0  0  0  0  0  0  0
   26.4696   33.5833   14.3570 O   0  5  0  0  0  0  0  0  0  0  0  0
   25.9488   33.3894   16.7513 O   0  0  0  0  0  0  0  0  0  0  0  0
   29.0152   33.5586   16.1210 C   0  0  0  0  0  0  0  0  0  0  0  0
   28.1386   32.4665   15.9867 O   0  0  0  0  0  0  0  0  0  0  0  0
   28.6136   34.3726   17.3422 C   0  0  1  0  0  0  0  0  0  0  0  0
   28.7526   33.5623   18.4900 O   0  0  0  0  0  0  0  0  0  0  0  0
   29.4897   35.6197   17.4603 C   0  0  1  0  0  0  0  0  0  0  0  0
   29.2552   36.4700   16.3583 O   0  0  0  0  0  0  0  0  0  0  0  0
   29.3194   36.3714   18.7879 C   0  0  1  0  0  0  0  0  0  0  0  0
   30.2648   37.4143   18.8738 O   0  0  0  0  0  0  0  0  0  0  0  0
   27.9232   36.9491   18.9567 C   0  0  0  0  0  0  0  0  0  0  0  0
   27.6430   34.9852   20.9687 N   0  0  0  0  0  0  0  0  0  0  0  0
   27.5635   33.9893   21.9207 C   0  0  0  0  0  0  0  0  0  0  0  0
   27.5709   32.8034   21.5789 O   0  0  0  0  0  0  0  0  0  0  0  0
   27.4659   34.3278   23.2552 N   0  0  0  0  0  0  0  0  0  0  0  0
   27.4477   35.6554   23.6397 C   0  0  0  0  0  0  0  0  0  0  0  0
   27.5289   36.6536   22.6913 C   0  0  1  0  0  0  0  0  0  0  0  0
   27.3703   35.9707   24.8259 O   0  0  0  0  0  0  0  0  0  0  0  0
   27.5993   38.9763   22.1487 C   0  0  2  0  0  0  0  0  0  0  0  0
   27.5142   37.9748   23.0940 N   0  0  0  0  0  0  0  0  0  0  0  0
   27.5825   40.3093   22.5521 C   0  0  0  0  0  0  0  0  0  0  0  0
   27.6601   41.3267   21.6062 C   0  0  1  0  0  0  0  0  0  0  0  0
   27.6516   42.7604   22.0598 C   0  0  0  0  0  0  0  0  0  0  0  0
   27.7586   41.0034   20.2481 C   0  0  1  0  0  0  0  0  0  0  0  0
   27.8590   42.0780   19.2052 C   0  0  0  0  0  0  0  0  0  0  0  0
   27.7756   39.6703   19.8491 C   0  0  0  0  0  0  0  0  0  0  0  0
   27.6951   38.6489   20.7928 C   0  0  2  0  0  0  0  0  0  0  0  0
   27.6293   36.3181   21.3459 C   0  0  2  0  0  0  0  0  0  0  0  0
   27.7024   37.3175   20.3945 N   0  0  0  0  0  0  0  0  0  0  0  0
  1  2  1  6  0  0  0
  1  3  1  0  0  0  0
  1  4  2  0  0  0  0
  1  6  1  0  0  0  0
  5  6  1  0  0  0  0
  7  5  1  6  0  0  0
  7  8  1  0  0  0  0
  7  9  1  0  0  0  0
  9 10  1  6  0  0  0
  9 11  1  0  0  0  0
 11 12  1  6  0  0  0
 11 13  1  0  0  0  0
 13 31  1  0  0  0  0
 14 15  1  0  0  0  0
 15 16  2  0  0  0  0
 15 17  1  0  0  0  0
 17 18  1  0  0  0  0
 18 20  2  0  0  0  0
 19 18  1  1  0  0  0
 19 22  1  0  0  0  0
 19 30  1  0  0  0  0
 21 23  1  6  0  0  0
 21 29  1  0  0  0  0
 21 22  1  0  0  0  0
 23 24  1  0  0  0  0
 24 25  1  1  0  0  0
 24 26  1  0  0  0  0
 26 27  1  1  0  0  0
 26 28  1  0  0  0  0
 29 28  1  6  0  0  0
 29 31  1  0  0  0  0
 30 14  1  6  0  0  0
 30 31  1  0  0  0  0
M  CHG  1   3  -1
M  END
>  <CHROM.1>
68.93526325,171.20410808,62.66369562,64.73149440,173.50751106,164.06296463
106.46996887,27.78165285,36.12776585,19.46368839,-1.96939799,1.44788423,1.12598404

>  <Name>
ligand

>  <RI>
0

>  <Rbt.Current_Directory>
/home/itssahil/PROJECTS/Mol_Feturizer/New_Systems/rnas/3F2Q

>  <Rbt.Executable>
rbdock ($Id: //depot/dev/client3/rdock/2013.1/src/exe/rbdock.cxx#4 $)

>  <Rbt.Library>
libRbt.so (2013.1, Build901 2013/11/27)

>  <Rbt.Parameter_File>
/export/apps/rDock/src/rDock_2013.1_src/data/scripts/dock_solv.prm

>  <Rbt.Receptor>
prm/blind_docking_100.prm

>  <SCORE>
-23.9813

>  <SCORE.INTER>
-19.6186

>  <SCORE.INTER.CONST>
1

>  <SCORE.INTER.POLAR>
0

>  <SCORE.INTER.ROT>
7

>  <SCORE.INTER.SOLV>
9.80988

>  <SCORE.INTER.VDW>
-24.6157

>  <SCORE.INTER.norm>
-0.632857

>  <SCORE.INTRA>
-4.36276

>  <SCORE.INTRA.DIHEDRAL>
-7.16228

>  <SCORE.INTRA.DIHEDRAL.0>
10.0718

>  <SCORE.INTRA.POLAR>
0

>  <SCORE.INTRA.POLAR.0>
0

>  <SCORE.INTRA.REPUL>
0

>  <SCORE.INTRA.REPUL.0>
0

>  <SCORE.INTRA.SOLV>
1.94214

>  <SCORE.INTRA.SOLV.lig_0>
-48.6963

>  <SCORE.INTRA.VDW>
-1.7527

>  <SCORE.INTRA.VDW.0>
-0.836976

>  <SCORE.INTRA.norm>
-0.140734

>  <SCORE.RESTR>
0

>  <SCORE.RESTR.CAVITY>
0

>  <SCORE.RESTR.norm>
0

>  <SCORE.SYSTEM>
0

>  <SCORE.SYSTEM.CONST>
0

>  <SCORE.SYSTEM.DIHEDRAL>
0

>  <SCORE.SYSTEM.SOLV>
0

>  <SCORE.SYSTEM.norm>
0

>  <SCORE.heavy>
31

>  <SCORE.norm>
-0.773591

>  <RMSD>
5.808

$$$$
ligand
 OpenBabel11021811473D
libRbt.so/2013.1/901 2013/11/27
 31 33  0  0  0  0  0  0  0  0999 V2000
   32.8476   34.3038   15.4586 P   0  0  1  0  0  0  0  0  0  0  0  0
   34.2037   33.6536   15.6314 O   0  0  0  0  0  0  0  0  0  0  0  0
   32.8089   34.9381   14.0942 O   0  5  0  0  0  0  0  0  0  0  0  0
   31.7592   33.2714   15.5646 O   0  0  0  0  0  0  0  0  0  0  0  0
   31.4593   36.1718   16.6268 C   0  0  0  0  0  0  0  0  0  0  0  0
   32.6077   35.3593   16.6380 O   0  0  0  0  0  0  0  0  0  0  0  0
   31.2654   36.7794   18.0083 C   0  0  1  0  0  0  0  0  0  0  0  0
   32.2126   37.8114   18.1841 O   0  0  0  0  0  0  0  0  0  0  0  0
   29.8459   37.3280   18.1524 C   0  0  1  0  0  0  0  0  0  0  0  0
   28.9169   36.3618   17.7096 O   0  0  0  0  0  0  0  0  0  0  0  0
   29.5109   37.8116   19.5702 C   0  0  1  0  0  0  0  0  0  0  0  0
   30.3013   38.9337   19.8940 O   0  0  0  0  0  0  0  0  0  0  0  0
   28.0429   38.1724   19.7324 C   0  0  0  0  0  0  0  0  0  0  0  0
   27.3359   35.7530   21.0092 N   0  0  0  0  0  0  0  0  0  0  0  0
   27.0480   34.5385   21.5980 C   0  0  0  0  0  0  0  0  0  0  0  0
   26.9961   33.5141   20.9117 O   0  0  0  0  0  0  0  0  0  0  0  0
   26.8091   34.4787   22.9561 N   0  0  0  0  0  0  0  0  0  0  0  0
   26.8572   35.6262   23.7251 C   0  0  0  0  0  0  0  0  0  0  0  0
   27.1466   36.8416   23.1406 C   0  0  1  0  0  0  0  0  0  0  0  0
   26.6553   35.5857   24.9376 O   0  0  0  0  0  0  0  0  0  0  0  0
   27.4881   39.1945   23.3450 C   0  0  2  0  0  0  0  0  0  0  0  0
   27.1951   37.9774   23.9253 N   0  0  0  0  0  0  0  0  0  0  0  0
   27.5357   40.3414   24.1338 C   0  0  0  0  0  0  0  0  0  0  0  0
   27.8228   41.5746   23.5572 C   0  0  1  0  0  0  0  0  0  0  0  0
   27.8807   42.8014   24.4251 C   0  0  0  0  0  0  0  0  0  0  0  0
   28.0669   41.6558   22.1815 C   0  0  1  0  0  0  0  0  0  0  0  0
   28.3940   42.9690   21.5326 C   0  0  0  0  0  0  0  0  0  0  0  0
   28.0191   40.5073   21.3969 C   0  0  0  0  0  0  0  0  0  0  0  0
   27.7290   39.2713   21.9699 C   0  0  2  0  0  0  0  0  0  0  0  0
   27.3898   36.9072   21.7734 C   0  0  2  0  0  0  0  0  0  0  0  0
   27.6716   38.1255   21.1856 N   0  0  0  0  0  0  0  0  0  0  0  0
  1  2  1  1  0  0  0
  1  3  1  0  0  0  0
  1  4  2  0  0  0  0
  1  6  1  0  0  0  0
  5  6  1  0  0  0  0
  7  5  1  6  0  0  0
  7  8  1  0  0  0  0
  7  9  1  0  0  0  0
  9 10  1  1  0  0  0
  9 11  1  0  0  0  0
 11 12  1  6  0  0  0
 11 13  1  0  0  0  0
 13 31  1  0  0  0  0
 14 15  1  0  0  0  0
 15 16  2  0  0  0  0
 15 17  1  0  0  0  0
 17 18  1  0  0  0  0
 18 20  2  0  0  0  0
 19 18  1  1  0  0  0
 19 22  1  0  0  0  0
 19 30  1  0  0  0  0
 21 23  1  6  0  0  0
 21 29  1  0  0  0  0
 21 22  1  0  0  0  0
 23 24  1  0  0  0  0
 24 25  1  1  0  0  0
 24 26  1  0  0  0  0
 26 27  1  1  0  0  0
 26 28  1  0  0  0  0
 29 28  1  6  0  0  0
 29 31  1  0  0  0  0
 30 14  1  6  0  0  0
 30 31  1  0  0  0  0
M  CHG  1   3  -1
M  END
>  <CHROM.1>
164.11606880,174.70689116,75.04398570,48.01877030,65.97917912,158.59912593
93.18425892,29.29454449,37.15050335,20.06376400,-0.65634672,0.88545342,0.22803128

>  <Name>
ligand

>  <RI>
0

>  <Rbt.Current_Directory>
/home/itssahil/PROJECTS/Mol_Feturizer/New_Systems/rnas/3F2Q

>  <Rbt.Executable>
rbdock ($Id: //depot/dev/client3/rdock/2013.1/src/exe/rbdock.cxx#4 $)

>  <Rbt.Library>
libRbt.so (2013.1, Build901 2013/11/27)

>  <Rbt.Parameter_File>
/export/apps/rDock/src/rDock_2013.1_src/data/scripts/dock_solv.prm

>  <Rbt.Receptor>
prm/pocket_docking_8.prm

>  <SCORE>
-27.945

>  <SCORE.INTER>
-23.9517

>  <SCORE.INTER.CONST>
1

>  <SCORE.INTER.POLAR>
0

>  <SCORE.INTER.ROT>
7

>  <SCORE.INTER.SOLV>
12.2132

>  <SCORE.INTER.VDW>
-28.3055

>  <SCORE.INTER.norm>
-0.772635

>  <SCORE.INTRA>
-3.99328

>  <SCORE.INTRA.DIHEDRAL>
-4.8116

>  <SCORE.INTRA.DIHEDRAL.0>
10.0718

>  <SCORE.INTRA.POLAR>
0

>  <SCORE.INTRA.POLAR.0>
0

>  <SCORE.INTRA.REPUL>
0

>  <SCORE.INTRA.REPUL.0>
0

>  <SCORE.INTRA.SOLV>
-0.95017

>  <SCORE.INTRA.SOLV.lig_0>
-48.6963

>  <SCORE.INTRA.VDW>
-1.1124

>  <SCORE.INTRA.VDW.0>
-0.836976

>  <SCORE.INTRA.norm>
-0.128816

>  <SCORE.RESTR>
0

>  <SCORE.RESTR.CAVITY>
0

>  <SCORE.RESTR.norm>
0

>  <SCORE.SYSTEM>
0

>  <SCORE.SYSTEM.CONST>
0

>  <SCORE.SYSTEM.DIHEDRAL>
0

>  <SCORE.SYSTEM.SOLV>
0

>  <SCORE.SYSTEM.norm>
0

>  <SCORE.heavy>
31

>  <SCORE.norm>
-0.90145

>  <RMSD>
5.820

$$$$
ligand
 OpenBabel11021811473D
libRbt.so/2013.1/901 2013/11/27
 31 33  0  0  0  0  0  0  0  0999 V2000
   25.0328   35.6031   17.9034 P   0  0  1  0  0  0  0  0  0  0  0  0
   23.7982   36.4745   17.8143 O   0  0  0  0  0  0  0  0  0  0  0  0
   25.0892   35.0208   19.2901 O   0  5  0  0  0  0  0  0  0  0  0  0
   24.9578   34.4913   16.8935 O   0  0  0  0  0  0  0  0  0  0  0  0
   26.4694   37.7680   18.0785 C   0  0  0  0  0  0  0  0  0  0  0  0
   26.3274   36.4739   17.5454 O   0  0  0  0  0  0  0  0  0  0  0  0
   27.8913   38.2531   17.8371 C   0  0  1  0  0  0  0  0  0  0  0  0
   27.9253   39.6540   18.0093 O   0  0  0  0  0  0  0  0  0  0  0  0
   28.8563   37.5726   18.8079 C   0  0  1  0  0  0  0  0  0  0  0  0
   30.1320   37.4678   18.2131 O   0  0  0  0  0  0  0  0  0  0  0  0
   28.9377   38.2567   20.1797 C   0  0  1  0  0  0  0  0  0  0  0  0
   29.5986   39.4967   20.0593 O   0  0  0  0  0  0  0  0  0  0  0  0
   27.5691   38.4797   20.8031 C   0  0  0  0  0  0  0  0  0  0  0  0
   26.9983   39.4842   23.3816 N   0  0  0  0  0  0  0  0  0  0  0  0
   26.6696   40.0208   24.6098 C   0  0  0  0  0  0  0  0  0  0  0  0
   26.6155   41.2451   24.7565 O   0  0  0  0  0  0  0  0  0  0  0  0
   26.4117   39.1807   25.6741 N   0  0  0  0  0  0  0  0  0  0  0  0
   26.4811   37.8095   25.5145 C   0  0  0  0  0  0  0  0  0  0  0  0
   26.8073   37.2693   24.2880 C   0  0  1  0  0  0  0  0  0  0  0  0
   26.2448   37.0495   26.4521 O   0  0  0  0  0  0  0  0  0  0  0  0
   27.1895   35.3523   22.9192 C   0  0  2  0  0  0  0  0  0  0  0  0
   26.8673   35.8966   24.1456 N   0  0  0  0  0  0  0  0  0  0  0  0
   27.2526   33.9685   22.7737 C   0  0  0  0  0  0  0  0  0  0  0  0
   27.5839   33.4098   21.5433 C   0  0  1  0  0  0  0  0  0  0  0  0
   27.6371   31.9137   21.4008 C   0  0  0  0  0  0  0  0  0  0  0  0
   27.8498   34.2452   20.4525 C   0  0  1  0  0  0  0  0  0  0  0  0
   28.1952   33.6725   19.1089 C   0  0  0  0  0  0  0  0  0  0  0  0
   27.7851   35.6274   20.6019 C   0  0  0  0  0  0  0  0  0  0  0  0
   27.4567   36.1907   21.8327 C   0  0  2  0  0  0  0  0  0  0  0  0
   27.0662   38.1109   23.2122 C   0  0  2  0  0  0  0  0  0  0  0  0
   27.4013   37.5709   21.9853 N   0  0  0  0  0  0  0  0  0  0  0  0
  1  2  1  6  0  0  0
  1  3  1  0  0  0  0
  1  4  2  0  0  0  0
  1  6  1  0  0  0  0
  5  6  1  0  0  0  0
  7  5  1  1  0  0  0
  7  8  1  0  0  0  0
  7  9  1  0  0  0  0
  9 10  1  6  0  0  0
  9 11  1  0  0  0  0
 11 12  1  6  0  0  0
 11 13  1  0  0  0  0
 13 31  1  0  0  0  0
 14 15  1  0  0  0  0
 15 16  2  0  0  0  0
 15 17  1  0  0  0  0
 17 18  1  0  0  0  0
 18 20  2  0  0  0  0
 19 18  1  6  0  0  0
 19 22  1  0  0  0  0
 19 30  1  0  0  0  0
 21 23  1  1  0  0  0
 21 29  1  0  0  0  0
 21 22  1  0  0  0  0
 23 24  1  0  0  0  0
 24 25  1  6  0  0  0
 24 26  1  0  0  0  0
 26 27  1  6  0  0  0
 26 28  1  0  0  0  0
 29 28  1  1  0  0  0
 29 31  1  0  0  0  0
 30 14  1  1  0  0  0
 30 31  1  0  0  0  0
M  CHG  1   3  -1
M  END
>  <CHROM.1>
167.98470098,43.77705104,163.12651877,150.81610779,-70.52711810,110.14838643
-60.61573798,27.02765617,36.85213877,20.92847921,1.82047439,-1.35832479,-1.71970056

>  <Name>
ligand

>  <RI>
0

>  <Rbt.Current_Directory>
/home/itssahil/PROJECTS/Mol_Feturizer/New_Systems/rnas/3F2Q

>  <Rbt.Executable>
rbdock ($Id: //depot/dev/client3/rdock/2013.1/src/exe/rbdock.cxx#4 $)

>  <Rbt.Library>
libRbt.so (2013.1, Build901 2013/11/27)

>  <Rbt.Parameter_File>
/export/apps/rDock/src/rDock_2013.1_src/data/scripts/dock_solv.prm

>  <Rbt.Receptor>
prm/pocket_docking_6.prm

>  <SCORE>
-25.5313

>  <SCORE.INTER>
-25.7063

>  <SCORE.INTER.CONST>
1

>  <SCORE.INTER.POLAR>
0

>  <SCORE.INTER.ROT>
7

>  <SCORE.INTER.SOLV>
14.1268

>  <SCORE.INTER.VDW>
-30.1131

>  <SCORE.INTER.norm>
-0.829236

>  <SCORE.INTRA>
0.174997

>  <SCORE.INTRA.DIHEDRAL>
1.14391

>  <SCORE.INTRA.DIHEDRAL.0>
10.0718

>  <SCORE.INTRA.POLAR>
0

>  <SCORE.INTRA.POLAR.0>
0

>  <SCORE.INTRA.REPUL>
0

>  <SCORE.INTRA.REPUL.0>
0

>  <SCORE.INTRA.SOLV>
1.78921

>  <SCORE.INTRA.SOLV.lig_0>
-48.6963

>  <SCORE.INTRA.VDW>
-1.29156

>  <SCORE.INTRA.VDW.0>
-0.836976

>  <SCORE.INTRA.norm>
0.00564507

>  <SCORE.RESTR>
0

>  <SCORE.RESTR.CAVITY>
0

>  <SCORE.RESTR.norm>
0

>  <SCORE.SYSTEM>
0

>  <SCORE.SYSTEM.CONST>
0

>  <SCORE.SYSTEM.DIHEDRAL>
0

>  <SCORE.SYSTEM.SOLV>
0

>  <SCORE.SYSTEM.norm>
0

>  <SCORE.heavy>
31

>  <SCORE.norm>
-0.823591

>  <RMSD>
5.864

$$$$
ligand
 OpenBabel11021811473D
libRbt.so/2013.1/901 2013/11/27
 31 33  0  0  0  0  0  0  0  0999 V2000
   29.4419   43.1575   24.8032 P   0  0  1  0  0  0  0  0  0  0  0  0
   29.8238   41.6966   24.9104 O   0  0  0  0  0  0  0  0  0  0  0  0
   28.1936   43.3705   25.6166 O   0  5  0  0  0  0  0  0  0  0  0  0
   30.5471   44.0241   25.3411 O   0  0  0  0  0  0  0  0  0  0  0  0
   28.1075   43.1095   22.5674 C   0  0  0  0  0  0  0  0  0  0  0  0
   29.2498   43.5471   23.2624 O   0  0  0  0  0  0  0  0  0  0  0  0
   28.1505   41.5936   22.4429 C   0  0  1  0  0  0  0  0  0  0  0  0
   27.5934   41.0292   23.6110 O   0  0  0  0  0  0  0  0  0  0  0  0
   27.3720   41.1403   21.2078 C   0  0  1  0  0  0  0  0  0  0  0  0
   27.9132   41.7507   20.0559 O   0  0  0  0  0  0  0  0  0  0  0  0
   27.3013   39.6153   21.0470 C   0  0  1  0  0  0  0  0  0  0  0  0
   26.7070   39.2901   19.8101 O   0  0  0  0  0  0  0  0  0  0  0  0
   28.6682   38.9553   21.1321 C   0  0  0  0  0  0  0  0  0  0  0  0
   27.4782   37.3703   23.1460 N   0  0  0  0  0  0  0  0  0  0  0  0
   26.8439   36.6482   24.1362 C   0  0  0  0  0  0  0  0  0  0  0  0
   26.4945   37.2042   25.1812 O   0  0  0  0  0  0  0  0  0  0  0  0
   26.6117   35.2998   23.9546 N   0  0  0  0  0  0  0  0  0  0  0  0
   27.0106   34.6730   22.7890 C   0  0  0  0  0  0  0  0  0  0  0  0
   27.6432   35.3918   21.7962 C   0  0  1  0  0  0  0  0  0  0  0  0
   26.8018   33.4743   22.6106 O   0  0  0  0  0  0  0  0  0  0  0  0
   28.6602   35.4663   19.6387 C   0  0  2  0  0  0  0  0  0  0  0  0
   28.0307   34.7499   20.6360 N   0  0  0  0  0  0  0  0  0  0  0  0
   29.0537   34.8209   18.4689 C   0  0  0  0  0  0  0  0  0  0  0  0
   29.6960   35.5325   17.4604 C   0  0  1  0  0  0  0  0  0  0  0  0
   30.1045   34.8226   16.1993 C   0  0  0  0  0  0  0  0  0  0  0  0
   29.9412   36.9003   17.6265 C   0  0  1  0  0  0  0  0  0  0  0  0
   30.6184   37.6984   16.5508 C   0  0  0  0  0  0  0  0  0  0  0  0
   29.5459   37.5416   18.7967 C   0  0  0  0  0  0  0  0  0  0  0  0
   28.9054   36.8321   19.8098 C   0  0  2  0  0  0  0  0  0  0  0  0
   27.8778   36.7505   21.9732 C   0  0  2  0  0  0  0  0  0  0  0  0
   28.5189   37.4696   20.9827 N   0  0  0  0  0  0  0  0  0  0  0  0
  1  2  1  1  0  0  0
  1  3  1  0  0  0  0
  1  4  2  0  0  0  0
  1  6  1  0  0  0  0
  5  6  1  0  0  0  0
  7  5  1  1  0  0  0
  7  8  1  0  0  0  0
  7  9  1  0  0  0  0
  9 10  1  6  0  0  0
  9 11  1  0  0  0  0
 11 12  1  6  0  0  0
 11 13  1  0  0  0  0
 13 31  1  0  0  0  0
 14 15  1  0  0  0  0
 15 16  2  0  0  0  0
 15 17  1  0  0  0  0
 17 18  1  0  0  0  0
 18 20  2  0  0  0  0
 19 18  1  6  0  0  0
 19 22  1  0  0  0  0
 19 30  1  0  0  0  0
 21 23  1  1  0  0  0
 21 29  1  0  0  0  0
 21 22  1  0  0  0  0
 23 24  1  0  0  0  0
 24 25  1  6  0  0  0
 24 26  1  0  0  0  0
 26 27  1  6  0  0  0
 26 28  1  0  0  0  0
 29 28  1  1  0  0  0
 29 31  1  0  0  0  0
 30 14  1  1  0  0  0
 30 31  1  0  0  0  0
M  CHG  1   3  -1
M  END
>  <CHROM.1>
-66.27267476,73.95633287,85.60359870,57.86909222,-173.13262423,179.35214754
106.56228653,28.39162211,38.76351884,21.76518162,-1.50588490,-1.16108066
-2.49309516

>  <Name>
ligand

>  <RI>
0

>  <Rbt.Current_Directory>
/home/itssahil/PROJECTS/Mol_Feturizer/New_Systems/rnas/3F2Q

>  <Rbt.Executable>
rbdock ($Id: //depot/dev/client3/rdock/2013.1/src/exe/rbdock.cxx#4 $)

>  <Rbt.Library>
libRbt.so (2013.1, Build901 2013/11/27)

>  <Rbt.Parameter_File>
/export/apps/rDock/src/rDock_2013.1_src/data/scripts/dock_solv.prm

>  <Rbt.Receptor>
prm/blind_docking_60.prm

>  <SCORE>
-30.1085

>  <SCORE.INTER>
-26.4151

>  <SCORE.INTER.CONST>
1

>  <SCORE.INTER.POLAR>
0

>  <SCORE.INTER.ROT>
7

>  <SCORE.INTER.SOLV>
19.4243

>  <SCORE.INTER.VDW>
-32.3515

>  <SCORE.INTER.norm>
-0.8521

>  <SCORE.INTRA>
-3.69336

>  <SCORE.INTRA.DIHEDRAL>
-6.14324

>  <SCORE.INTRA.DIHEDRAL.0>
10.0718

>  <SCORE.INTRA.POLAR>
0

>  <SCORE.INTRA.POLAR.0>
0

>  <SCORE.INTRA.REPUL>
0

>  <SCORE.INTRA.REPUL.0>
0

>  <SCORE.INTRA.SOLV>
0.776046

>  <SCORE.INTRA.SOLV.lig_0>
-48.6963

>  <SCORE.INTRA.VDW>
-1.00977

>  <SCORE.INTRA.VDW.0>
-0.836976

>  <SCORE.INTRA.norm>
-0.119141

>  <SCORE.RESTR>
0

>  <SCORE.RESTR.CAVITY>
0

>  <SCORE.RESTR.norm>
0

>  <SCORE.SYSTEM>
0

>  <SCORE.SYSTEM.CONST>
0

>  <SCORE.SYSTEM.DIHEDRAL>
0

>  <SCORE.SYSTEM.SOLV>
0

>  <SCORE.SYSTEM.norm>
0

>  <SCORE.heavy>
31

>  <SCORE.norm>
-0.97124

>  <RMSD>
5.882

$$$$
ligand
 OpenBabel11021811473D
libRbt.so/2013.1/901 2013/11/27
 31 33  0  0  0  0  0  0  0  0999 V2000
   33.0434   34.3105   15.3127 P   0  0  1  0  0  0  0  0  0  0  0  0
   34.5368   34.0634   15.3109 O   0  0  0  0  0  0  0  0  0  0  0  0
   32.6643   34.8650   13.9659 O   0  5  0  0  0  0  0  0  0  0  0  0
   32.3041   33.0230   15.5531 O   0  0  0  0  0  0  0  0  0  0  0  0
   31.3754   35.8495   16.5899 C   0  0  0  0  0  0  0  0  0  0  0  0
   32.6673   35.2974   16.5158 O   0  0  0  0  0  0  0  0  0  0  0  0
   31.2159   36.5669   17.9223 C   0  0  1  0  0  0  0  0  0  0  0  0
   32.0905   37.6751   17.9454 O   0  0  0  0  0  0  0  0  0  0  0  0
   29.7695   37.0249   18.1087 C   0  0  1  0  0  0  0  0  0  0  0  0
   28.8961   35.9377   17.8901 O   0  0  0  0  0  0  0  0  0  0  0  0
   29.5012   37.6884   19.4667 C   0  0  1  0  0  0  0  0  0  0  0  0
   30.2975   38.8445   19.6018 O   0  0  0  0  0  0  0  0  0  0  0  0
   28.0401   38.0647   19.6540 C   0  0  0  0  0  0  0  0  0  0  0  0
   27.3823   35.6804   21.0198 N   0  0  0  0  0  0  0  0  0  0  0  0
   27.1177   34.4824   21.6517 C   0  0  0  0  0  0  0  0  0  0  0  0
   27.0577   33.4372   20.9982 O   0  0  0  0  0  0  0  0  0  0  0  0
   26.9114   34.4622   23.0164 N   0  0  0  0  0  0  0  0  0  0  0  0
   26.9687   35.6329   23.7490 C   0  0  0  0  0  0  0  0  0  0  0  0
   27.2347   36.8319   23.1212 C   0  0  1  0  0  0  0  0  0  0  0  0
   26.7957   35.6277   24.9666 O   0  0  0  0  0  0  0  0  0  0  0  0
   27.5627   39.1923   23.2463 C   0  0  2  0  0  0  0  0  0  0  0  0
   27.2929   37.9913   23.8699 N   0  0  0  0  0  0  0  0  0  0  0  0
   27.6198   40.3629   23.9987 C   0  0  0  0  0  0  0  0  0  0  0  0
   27.8837   41.5801   23.3784 C   0  0  1  0  0  0  0  0  0  0  0  0
   27.9525   42.8330   24.2072 C   0  0  0  0  0  0  0  0  0  0  0  0
   28.0947   41.6211   21.9955 C   0  0  1  0  0  0  0  0  0  0  0  0
   28.3962   42.9163   21.2996 C   0  0  0  0  0  0  0  0  0  0  0  0
   28.0373   40.4490   21.2473 C   0  0  0  0  0  0  0  0  0  0  0  0
   27.7705   39.2290   21.8641 C   0  0  2  0  0  0  0  0  0  0  0  0
   27.4452   36.8576   21.7473 C   0  0  2  0  0  0  0  0  0  0  0  0
   27.7035   38.0594   21.1164 N   0  0  0  0  0  0  0  0  0  0  0  0
  1  2  1  1  0  0  0
  1  3  1  0  0  0  0
  1  4  2  0  0  0  0
  1  6  1  0  0  0  0
  5  6  1  0  0  0  0
  7  5  1  6  0  0  0
  7  8  1  0  0  0  0
  7  9  1  0  0  0  0
  9 10  1  1  0  0  0
  9 11  1  0  0  0  0
 11 12  1  6  0  0  0
 11 13  1  0  0  0  0
 13 31  1  0  0  0  0
 14 15  1  0  0  0  0
 15 16  2  0  0  0  0
 15 17  1  0  0  0  0
 17 18  1  0  0  0  0
 18 20  2  0  0  0  0
 19 18  1  1  0  0  0
 19 22  1  0  0  0  0
 19 30  1  0  0  0  0
 21 23  1  6  0  0  0
 21 29  1  0  0  0  0
 21 22  1  0  0  0  0
 23 24  1  0  0  0  0
 24 25  1  1  0  0  0
 24 26  1  0  0  0  0
 26 27  1  1  0  0  0
 26 28  1  0  0  0  0
 29 28  1  6  0  0  0
 29 31  1  0  0  0  0
 30 14  1  6  0  0  0
 30 31  1  0  0  0  0
M  CHG  1   3  -1
M  END
>  <CHROM.1>
171.37199028,169.51285178,65.98270524,51.45465152,61.24184805,152.42526550
94.06106009,29.35979467,37.08447089,19.97530748,-0.62144284,0.89509824,0.19308825

>  <Name>
ligand

>  <RI>
0

>  <Rbt.Current_Directory>
/home/itssahil/PROJECTS/Mol_Feturizer/New_Systems/rnas/3F2Q

>  <Rbt.Executable>
rbdock ($Id: //depot/dev/client3/rdock/2013.1/src/exe/rbdock.cxx#4 $)

>  <Rbt.Library>
libRbt.so (2013.1, Build901 2013/11/27)

>  <Rbt.Parameter_File>
/export/apps/rDock/src/rDock_2013.1_src/data/scripts/dock_solv.prm

>  <Rbt.Receptor>
prm/pocket_docking_7.prm

>  <SCORE>
-28.5716

>  <SCORE.INTER>
-24.0692

>  <SCORE.INTER.CONST>
1

>  <SCORE.INTER.POLAR>
0

>  <SCORE.INTER.ROT>
7

>  <SCORE.INTER.SOLV>
12.263

>  <SCORE.INTER.VDW>
-28.4004

>  <SCORE.INTER.norm>
-0.776425

>  <SCORE.INTRA>
-4.50247

>  <SCORE.INTRA.DIHEDRAL>
-5.67253

>  <SCORE.INTRA.DIHEDRAL.0>
10.0718

>  <SCORE.INTRA.POLAR>
0

>  <SCORE.INTRA.POLAR.0>
0

>  <SCORE.INTRA.REPUL>
0

>  <SCORE.INTRA.REPUL.0>
0

>  <SCORE.INTRA.SOLV>
-0.878405

>  <SCORE.INTRA.SOLV.lig_0>
-48.6963

>  <SCORE.INTRA.VDW>
-1.227

>  <SCORE.INTRA.VDW.0>
-0.836976

>  <SCORE.INTRA.norm>
-0.145241

>  <SCORE.RESTR>
0

>  <SCORE.RESTR.CAVITY>
0

>  <SCORE.RESTR.norm>
0

>  <SCORE.SYSTEM>
0

>  <SCORE.SYSTEM.CONST>
0

>  <SCORE.SYSTEM.DIHEDRAL>
0

>  <SCORE.SYSTEM.SOLV>
0

>  <SCORE.SYSTEM.norm>
0

>  <SCORE.heavy>
31

>  <SCORE.norm>
-0.921666

>  <RMSD>
5.883

$$$$
ligand
 OpenBabel11021811473D
libRbt.so/2013.1/901 2013/11/27
 31 33  0  0  0  0  0  0  0  0999 V2000
   29.2235   42.7469   24.3306 P   0  0  1  0  0  0  0  0  0  0  0  0
   29.8520   44.1019   24.0844 O   0  0  0  0  0  0  0  0  0  0  0  0
   29.9474   41.7392   23.4788 O   0  5  0  0  0  0  0  0  0  0  0  0
   29.3561   42.3685   25.7801 O   0  0  0  0  0  0  0  0  0  0  0  0
   26.8527   41.6790   24.1889 C   0  0  0  0  0  0  0  0  0  0  0  0
   27.6574   42.8186   24.0072 O   0  0  0  0  0  0  0  0  0  0  0  0
   25.6622   41.7539   23.2441 C   0  0  1  0  0  0  0  0  0  0  0  0
   24.9938   42.9792   23.4572 O   0  0  0  0  0  0  0  0  0  0  0  0
   26.1291   41.6464   21.7925 C   0  0  1  0  0  0  0  0  0  0  0  0
   27.1984   42.5408   21.5709 O   0  0  0  0  0  0  0  0  0  0  0  0
   26.5015   40.2193   21.3670 C   0  0  1  0  0  0  0  0  0  0  0  0
   26.6585   40.1614   19.9667 O   0  0  0  0  0  0  0  0  0  0  0  0
   27.7764   39.7257   22.0323 C   0  0  0  0  0  0  0  0  0  0  0  0
   26.8353   37.6501   23.7024 N   0  0  0  0  0  0  0  0  0  0  0  0
   26.3113   36.6737   24.5250 C   0  0  0  0  0  0  0  0  0  0  0  0
   25.7590   36.9862   25.5835 O   0  0  0  0  0  0  0  0  0  0  0  0
   26.4176   35.3464   24.1614 N   0  0  0  0  0  0  0  0  0  0  0  0
   27.0443   34.9935   22.9811 C   0  0  0  0  0  0  0  0  0  0  0  0
   27.5675   35.9666   22.1553 C   0  0  1  0  0  0  0  0  0  0  0  0
   27.1378   33.8153   22.6408 O   0  0  0  0  0  0  0  0  0  0  0  0
   28.7073   36.5665   20.1465 C   0  0  2  0  0  0  0  0  0  0  0  0
   28.1861   35.5958   20.9772 N   0  0  0  0  0  0  0  0  0  0  0  0
   29.3333   36.1950   18.9591 C   0  0  0  0  0  0  0  0  0  0  0  0
   29.8688   37.1656   18.1182 C   0  0  1  0  0  0  0  0  0  0  0  0
   30.5319   36.7479   16.8347 C   0  0  0  0  0  0  0  0  0  0  0  0
   29.7719   38.5166   18.4701 C   0  0  1  0  0  0  0  0  0  0  0  0
   30.3262   39.5878   17.5768 C   0  0  0  0  0  0  0  0  0  0  0  0
   29.1450   38.8837   19.6572 C   0  0  0  0  0  0  0  0  0  0  0  0
   28.6103   37.9149   20.5031 C   0  0  2  0  0  0  0  0  0  0  0  0
   27.4615   37.3050   22.5159 C   0  0  2  0  0  0  0  0  0  0  0  0
   27.9926   38.2800   21.6934 N   0  0  0  0  0  0  0  0  0  0  0  0
  1  2  1  6  0  0  0
  1  3  1  0  0  0  0
  1  4  2  0  0  0  0
  1  6  1  0  0  0  0
  5  6  1  0  0  0  0
  7  5  1  1  0  0  0
  7  8  1  0  0  0  0
  7  9  1  0  0  0  0
  9 10  1  1  0  0  0
  9 11  1  0  0  0  0
 11 12  1  6  0  0  0
 11 13  1  0  0  0  0
 13 31  1  0  0  0  0
 14 15  1  0  0  0  0
 15 16  2  0  0  0  0
 15 17  1  0  0  0  0
 17 18  1  0  0  0  0
 18 20  2  0  0  0  0
 19 18  1  6  0  0  0
 19 22  1  0  0  0  0
 19 30  1  0  0  0  0
 21 23  1  1  0  0  0
 21 29  1  0  0  0  0
 21 22  1  0  0  0  0
 23 24  1  0  0  0  0
 24 25  1  6  0  0  0
 24 26  1  0  0  0  0
 26 27  1  6  0  0  0
 26 28  1  0  0  0  0
 29 28  1  1  0  0  0
 29 31  1  0  0  0  0
 30 14  1  1  0  0  0
 30 31  1  0  0  0  0
M  CHG  1   3  -1
M  END
>  <CHROM.1>
-152.97378276,-178.74232063,-54.71221913,-48.90608289,168.27570077,173.64013247
83.78238869,27.93819727,39.27493825,22.12780542,-1.72775480,-1.07076535,-2.76037664

>  <Name>
ligand

>  <RI>
0

>  <Rbt.Current_Directory>
/home/itssahil/PROJECTS/Mol_Feturizer/New_Systems/rnas/3F2Q

>  <Rbt.Executable>
rbdock ($Id: //depot/dev/client3/rdock/2013.1/src/exe/rbdock.cxx#4 $)

>  <Rbt.Library>
libRbt.so (2013.1, Build901 2013/11/27)

>  <Rbt.Parameter_File>
/export/apps/rDock/src/rDock_2013.1_src/data/scripts/dock_solv.prm

>  <Rbt.Receptor>
prm/blind_docking_80.prm

>  <SCORE>
-29.2804

>  <SCORE.INTER>
-27.4789

>  <SCORE.INTER.CONST>
1

>  <SCORE.INTER.POLAR>
0

>  <SCORE.INTER.ROT>
7

>  <SCORE.INTER.SOLV>
18.9496

>  <SCORE.INTER.VDW>
-32.9024

>  <SCORE.INTER.norm>
-0.886416

>  <SCORE.INTRA>
-1.80343

>  <SCORE.INTRA.DIHEDRAL>
-4.67551

>  <SCORE.INTRA.DIHEDRAL.0>
10.0718

>  <SCORE.INTRA.POLAR>
0

>  <SCORE.INTRA.POLAR.0>
0

>  <SCORE.INTRA.REPUL>
0

>  <SCORE.INTRA.REPUL.0>
0

>  <SCORE.INTRA.SOLV>
1.99582

>  <SCORE.INTRA.SOLV.lig_0>
-48.6963

>  <SCORE.INTRA.VDW>
-0.463584

>  <SCORE.INTRA.VDW.0>
-0.836976

>  <SCORE.INTRA.norm>
-0.058175

>  <SCORE.RESTR>
0.00188621

>  <SCORE.RESTR.CAVITY>
0.00188621

>  <SCORE.RESTR.norm>
6.08454e-05

>  <SCORE.SYSTEM>
0

>  <SCORE.SYSTEM.CONST>
0

>  <SCORE.SYSTEM.DIHEDRAL>
0

>  <SCORE.SYSTEM.SOLV>
0

>  <SCORE.SYSTEM.norm>
0

>  <SCORE.heavy>
31

>  <SCORE.norm>
-0.94453

>  <RMSD>
5.896

$$$$
ligand
 OpenBabel11021811473D
libRbt.so/2013.1/901 2013/11/27
 31 33  0  0  0  0  0  0  0  0999 V2000
   33.0941   34.3205   15.3357 P   0  0  1  0  0  0  0  0  0  0  0  0
   34.5916   34.0992   15.3297 O   0  0  0  0  0  0  0  0  0  0  0  0
   32.6964   34.8332   13.9777 O   0  5  0  0  0  0  0  0  0  0  0  0
   32.3790   33.0272   15.6145 O   0  0  0  0  0  0  0  0  0  0  0  0
   31.4009   35.8430   16.5995 C   0  0  0  0  0  0  0  0  0  0  0  0
   32.7089   35.3318   16.5154 O   0  0  0  0  0  0  0  0  0  0  0  0
   31.2312   36.5610   17.9303 C   0  0  1  0  0  0  0  0  0  0  0  0
   32.0840   37.6860   17.9477 O   0  0  0  0  0  0  0  0  0  0  0  0
   29.7766   36.9912   18.1195 C   0  0  1  0  0  0  0  0  0  0  0  0
   28.9221   35.8951   17.8730 O   0  0  0  0  0  0  0  0  0  0  0  0
   29.4914   37.6204   19.4903 C   0  0  1  0  0  0  0  0  0  0  0  0
   30.2534   38.7968   19.6465 O   0  0  0  0  0  0  0  0  0  0  0  0
   28.0202   37.9498   19.6867 C   0  0  0  0  0  0  0  0  0  0  0  0
   27.4258   35.6103   21.1553 N   0  0  0  0  0  0  0  0  0  0  0  0
   27.1923   34.4339   21.8379 C   0  0  0  0  0  0  0  0  0  0  0  0
   27.1398   33.3629   21.2268 O   0  0  0  0  0  0  0  0  0  0  0  0
   27.0082   34.4639   23.2056 N   0  0  0  0  0  0  0  0  0  0  0  0
   27.0570   35.6633   23.8908 C   0  0  0  0  0  0  0  0  0  0  0  0
   27.2920   36.8410   23.2124 C   0  0  1  0  0  0  0  0  0  0  0  0
   26.9037   35.7032   25.1104 O   0  0  0  0  0  0  0  0  0  0  0  0
   27.5810   39.2096   23.2396 C   0  0  2  0  0  0  0  0  0  0  0  0
   27.3421   38.0298   23.9141 N   0  0  0  0  0  0  0  0  0  0  0  0
   27.6299   40.4098   23.9447 C   0  0  0  0  0  0  0  0  0  0  0  0
   27.8626   41.6058   23.2730 C   0  0  1  0  0  0  0  0  0  0  0  0
   27.9230   42.8913   24.0510 C   0  0  0  0  0  0  0  0  0  0  0  0
   28.0506   41.5959   21.8862 C   0  0  1  0  0  0  0  0  0  0  0  0
   28.3185   42.8675   21.1354 C   0  0  0  0  0  0  0  0  0  0  0  0
   28.0016   40.3945   21.1854 C   0  0  0  0  0  0  0  0  0  0  0  0
   27.7659   39.1954   21.8538 C   0  0  2  0  0  0  0  0  0  0  0  0
   27.4799   36.8162   21.8352 C   0  0  2  0  0  0  0  0  0  0  0  0
   27.7072   37.9964   21.1536 N   0  0  0  0  0  0  0  0  0  0  0  0
  1  2  1  1  0  0  0
  1  3  1  0  0  0  0
  1  4  2  0  0  0  0
  1  6  1  0  0  0  0
  5  6  1  0  0  0  0
  7  5  1  6  0  0  0
  7  8  1  0  0  0  0
  7  9  1  0  0  0  0
  9 10  1  1  0  0  0
  9 11  1  0  0  0  0
 11 12  1  6  0  0  0
 11 13  1  0  0  0  0
 13 31  1  0  0  0  0
 14 15  1  0  0  0  0
 15 16  2  0  0  0  0
 15 17  1  0  0  0  0
 17 18  1  0  0  0  0
 18 20  2  0  0  0  0
 19 18  1  1  0  0  0
 19 22  1  0  0  0  0
 19 30  1  0  0  0  0
 21 23  1  6  0  0  0
 21 29  1  0  0  0  0
 21 22  1  0  0  0  0
 23 24  1  0  0  0  0
 24 25  1  1  0  0  0
 24 26  1  0  0  0  0
 26 27  1  1  0  0  0
 26 28  1  0  0  0  0
 29 28  1  6  0  0  0
 29 31  1  0  0  0  0
 30 14  1  6  0  0  0
 30 31  1  0  0  0  0
M  CHG  1   3  -1
M  END
>  <CHROM.1>
169.71807907,170.74938580,65.17717822,49.96041046,62.09905779,156.16533012
92.84205473,29.38421801,37.07240408,20.00329050,-0.57322246,0.91280575,0.14090405

>  <Name>
ligand

>  <RI>
0

>  <Rbt.Current_Directory>
/home/itssahil/PROJECTS/Mol_Feturizer/New_Systems/rnas/3F2Q

>  <Rbt.Executable>
rbdock ($Id: //depot/dev/client3/rdock/2013.1/src/exe/rbdock.cxx#4 $)

>  <Rbt.Library>
libRbt.so (2013.1, Build901 2013/11/27)

>  <Rbt.Parameter_File>
/export/apps/rDock/src/rDock_2013.1_src/data/scripts/dock_solv.prm

>  <Rbt.Receptor>
prm/blind_docking_60.prm

>  <SCORE>
-28.6514

>  <SCORE.INTER>
-24.0717

>  <SCORE.INTER.CONST>
1

>  <SCORE.INTER.POLAR>
0

>  <SCORE.INTER.ROT>
7

>  <SCORE.INTER.SOLV>
12.696

>  <SCORE.INTER.VDW>
-28.5465

>  <SCORE.INTER.norm>
-0.776506

>  <SCORE.INTRA>
-4.57966

>  <SCORE.INTRA.DIHEDRAL>
-5.99736

>  <SCORE.INTRA.DIHEDRAL.0>
10.0718

>  <SCORE.INTRA.POLAR>
0

>  <SCORE.INTRA.POLAR.0>
0

>  <SCORE.INTRA.REPUL>
0

>  <SCORE.INTRA.REPUL.0>
0

>  <SCORE.INTRA.SOLV>
-0.879952

>  <SCORE.INTRA.SOLV.lig_0>
-48.6963

>  <SCORE.INTRA.VDW>
-1.141

>  <SCORE.INTRA.VDW.0>
-0.836976

>  <SCORE.INTRA.norm>
-0.147731

>  <SCORE.RESTR>
0

>  <SCORE.RESTR.CAVITY>
0

>  <SCORE.RESTR.norm>
0

>  <SCORE.SYSTEM>
0

>  <SCORE.SYSTEM.CONST>
0

>  <SCORE.SYSTEM.DIHEDRAL>
0

>  <SCORE.SYSTEM.SOLV>
0

>  <SCORE.SYSTEM.norm>
0

>  <SCORE.heavy>
31

>  <SCORE.norm>
-0.924237

>  <RMSD>
5.917

$$$$
ligand
 OpenBabel11021811473D
libRbt.so/2013.1/901 2013/11/27
 31 33  0  0  0  0  0  0  0  0999 V2000
   29.1759   43.2068   24.2783 P   0  0  1  0  0  0  0  0  0  0  0  0
   30.3260   44.1352   24.6052 O   0  0  0  0  0  0  0  0  0  0  0  0
   29.3807   41.9283   25.0454 O   0  5  0  0  0  0  0  0  0  0  0  0
   27.8706   43.8338   24.6843 O   0  0  0  0  0  0  0  0  0  0  0  0
   27.9379   42.4634   22.1112 C   0  0  0  0  0  0  0  0  0  0  0  0
   29.1110   42.9746   22.6957 O   0  0  0  0  0  0  0  0  0  0  0  0
   27.6021   41.1264   22.7554 C   0  0  1  0  0  0  0  0  0  0  0  0
   26.8416   41.3655   23.9206 O   0  0  0  0  0  0  0  0  0  0  0  0
   26.8199   40.2483   21.7788 C   0  0  1  0  0  0  0  0  0  0  0  0
   25.7333   40.9782   21.2506 O   0  0  0  0  0  0  0  0  0  0  0  0
   27.6825   39.6486   20.6595 C   0  0  1  0  0  0  0  0  0  0  0  0
   28.2301   40.6809   19.8700 O   0  0  0  0  0  0  0  0  0  0  0  0
   28.8090   38.7783   21.1933 C   0  0  0  0  0  0  0  0  0  0  0  0
   27.4447   38.1946   23.5978 N   0  0  0  0  0  0  0  0  0  0  0  0
   26.7405   37.9733   24.7638 C   0  0  0  0  0  0  0  0  0  0  0  0
   26.6320   38.8724   25.6022 O   0  0  0  0  0  0  0  0  0  0  0  0
   26.1673   36.7383   24.9904 N   0  0  0  0  0  0  0  0  0  0  0  0
   26.2956   35.7268   24.0571 C   0  0  0  0  0  0  0  0  0  0  0  0
   26.9971   35.9447   22.8897 C   0  0  1  0  0  0  0  0  0  0  0  0
   25.7822   34.6247   24.2423 O   0  0  0  0  0  0  0  0  0  0  0  0
   27.8086   35.1390   20.7952 C   0  0  2  0  0  0  0  0  0  0  0  0
   27.1111   34.9238   21.9661 N   0  0  0  0  0  0  0  0  0  0  0  0
   27.9267   34.1106   19.8634 C   0  0  0  0  0  0  0  0  0  0  0  0
   28.6343   34.3150   18.6830 C   0  0  1  0  0  0  0  0  0  0  0  0
   28.7430   33.1973   17.6828 C   0  0  0  0  0  0  0  0  0  0  0  0
   29.2235   35.5601   18.4357 C   0  0  1  0  0  0  0  0  0  0  0  0
   29.9804   35.8162   17.1652 C   0  0  0  0  0  0  0  0  0  0  0  0
   29.1027   36.5854   19.3691 C   0  0  0  0  0  0  0  0  0  0  0  0
   28.3977   36.3837   20.5532 C   0  0  2  0  0  0  0  0  0  0  0  0
   27.5748   37.1873   22.6556 C   0  0  2  0  0  0  0  0  0  0  0  0
   28.2847   37.4039   21.4902 N   0  0  0  0  0  0  0  0  0  0  0  0
  1  2  1  1  0  0  0
  1  3  1  0  0  0  0
  1  4  2  0  0  0  0
  1  6  1  0  0  0  0
  5  6  1  0  0  0  0
  7  5  1  6  0  0  0
  7  8  1  0  0  0  0
  7  9  1  0  0  0  0
  9 10  1  6  0  0  0
  9 11  1  0  0  0  0
 11 12  1  1  0  0  0
 11 13  1  0  0  0  0
 13 31  1  0  0  0  0
 14 15  1  0  0  0  0
 15 16  2  0  0  0  0
 15 17  1  0  0  0  0
 17 18  1  0  0  0  0
 18 20  2  0  0  0  0
 19 18  1  6  0  0  0
 19 22  1  0  0  0  0
 19 30  1  0  0  0  0
 21 23  1  1  0  0  0
 21 29  1  0  0  0  0
 21 22  1  0  0  0  0
 23 24  1  0  0  0  0
 24 25  1  6  0  0  0
 24 26  1  0  0  0  0
 26 27  1  6  0  0  0
 26 28  1  0  0  0  0
 29 28  1  1  0  0  0
 29 31  1  0  0  0  0
 30 14  1  1  0  0  0
 30 31  1  0  0  0  0
M  CHG  1   3  -1
M  END
>  <CHROM.1>
-57.13158872,-162.55797427,86.16701165,-50.69131666,-62.40832431,82.64605674
95.15497463,27.93795126,38.75839817,22.21577442,-1.48763448,-1.09793895,-2.58545553

>  <Name>
ligand

>  <RI>
0

>  <Rbt.Current_Directory>
/home/itssahil/PROJECTS/Mol_Feturizer/New_Systems/rnas/3F2Q

>  <Rbt.Executable>
rbdock ($Id: //depot/dev/client3/rdock/2013.1/src/exe/rbdock.cxx#4 $)

>  <Rbt.Library>
libRbt.so (2013.1, Build901 2013/11/27)

>  <Rbt.Parameter_File>
/export/apps/rDock/src/rDock_2013.1_src/data/scripts/dock_solv.prm

>  <Rbt.Receptor>
prm/pocket_docking_6.prm

>  <SCORE>
-30.2843

>  <SCORE.INTER>
-29.0531

>  <SCORE.INTER.CONST>
1

>  <SCORE.INTER.POLAR>
0

>  <SCORE.INTER.ROT>
7

>  <SCORE.INTER.SOLV>
17.1802

>  <SCORE.INTER.VDW>
-33.3621

>  <SCORE.INTER.norm>
-0.937197

>  <SCORE.INTRA>
-1.2312

>  <SCORE.INTRA.DIHEDRAL>
-4.33659

>  <SCORE.INTRA.DIHEDRAL.0>
10.0718

>  <SCORE.INTRA.POLAR>
0

>  <SCORE.INTRA.POLAR.0>
0

>  <SCORE.INTRA.REPUL>
0

>  <SCORE.INTRA.REPUL.0>
0

>  <SCORE.INTRA.SOLV>
3.87657

>  <SCORE.INTRA.SOLV.lig_0>
-48.6963

>  <SCORE.INTRA.VDW>
-1.00119

>  <SCORE.INTRA.VDW.0>
-0.836976

>  <SCORE.INTRA.norm>
-0.0397163

>  <SCORE.RESTR>
0

>  <SCORE.RESTR.CAVITY>
0

>  <SCORE.RESTR.norm>
0

>  <SCORE.SYSTEM>
0

>  <SCORE.SYSTEM.CONST>
0

>  <SCORE.SYSTEM.DIHEDRAL>
0

>  <SCORE.SYSTEM.SOLV>
0

>  <SCORE.SYSTEM.norm>
0

>  <SCORE.heavy>
31

>  <SCORE.norm>
-0.976913

>  <RMSD>
5.929

$$$$
ligand
 OpenBabel11021811473D
libRbt.so/2013.1/901 2013/11/27
 31 33  0  0  0  0  0  0  0  0999 V2000
   28.0612   32.2290   14.2688 P   0  0  1  0  0  0  0  0  0  0  0  0
   26.9799   31.1696   14.2562 O   0  0  0  0  0  0  0  0  0  0  0  0
   29.3896   31.5364   14.1249 O   0  5  0  0  0  0  0  0  0  0  0  0
   27.8654   33.1847   13.1241 O   0  0  0  0  0  0  0  0  0  0  0  0
   28.8833   34.1101   15.8710 C   0  0  0  0  0  0  0  0  0  0  0  0
   27.9534   33.0855   15.6169 O   0  0  0  0  0  0  0  0  0  0  0  0
   28.5239   34.7954   17.1812 C   0  0  1  0  0  0  0  0  0  0  0  0
   28.6534   33.8592   18.2301 O   0  0  0  0  0  0  0  0  0  0  0  0
   29.4398   35.9955   17.4212 C   0  0  1  0  0  0  0  0  0  0  0  0
   29.2538   36.9466   16.3949 O   0  0  0  0  0  0  0  0  0  0  0  0
   29.2720   36.6339   18.8070 C   0  0  1  0  0  0  0  0  0  0  0  0
   30.2117   37.6721   18.9743 O   0  0  0  0  0  0  0  0  0  0  0  0
   27.8734   37.1869   19.0295 C   0  0  0  0  0  0  0  0  0  0  0  0
   27.6086   35.0668   20.8784 N   0  0  0  0  0  0  0  0  0  0  0  0
   27.5365   33.9973   21.7476 C   0  0  0  0  0  0  0  0  0  0  0  0
   27.5449   32.8428   21.3115 O   0  0  0  0  0  0  0  0  0  0  0  0
   27.4452   34.2271   23.1056 N   0  0  0  0  0  0  0  0  0  0  0  0
   27.4259   35.5194   23.5957 C   0  0  0  0  0  0  0  0  0  0  0  0
   27.4997   36.5909   22.7302 C   0  0  1  0  0  0  0  0  0  0  0  0
   27.3540   35.7381   24.8038 O   0  0  0  0  0  0  0  0  0  0  0  0
   27.5616   38.9499   22.3759 C   0  0  2  0  0  0  0  0  0  0  0  0
   27.4839   37.8754   23.2381 N   0  0  0  0  0  0  0  0  0  0  0  0
   27.5438   40.2461   22.8854 C   0  0  0  0  0  0  0  0  0  0  0  0
   27.6139   41.3365   22.0240 C   0  0  1  0  0  0  0  0  0  0  0  0
   27.6044   42.7291   22.5915 C   0  0  0  0  0  0  0  0  0  0  0  0
   27.7059   41.1238   20.6438 C   0  0  1  0  0  0  0  0  0  0  0  0
   27.7983   42.2791   19.6902 C   0  0  0  0  0  0  0  0  0  0  0  0
   27.7240   39.8271   20.1387 C   0  0  0  0  0  0  0  0  0  0  0  0
   27.6510   38.7329   20.9976 C   0  0  2  0  0  0  0  0  0  0  0  0
   27.5937   36.3650   21.3617 C   0  0  2  0  0  0  0  0  0  0  0  0
   27.6593   37.4378   20.4935 N   0  0  0  0  0  0  0  0  0  0  0  0
  1  2  1  6  0  0  0
  1  3  1  0  0  0  0
  1  4  2  0  0  0  0
  1  6  1  0  0  0  0
  5  6  1  0  0  0  0
  7  5  1  6  0  0  0
  7  8  1  0  0  0  0
  7  9  1  0  0  0  0
  9 10  1  6  0  0  0
  9 11  1  0  0  0  0
 11 12  1  6  0  0  0
 11 13  1  0  0  0  0
 13 31  1  0  0  0  0
 14 15  1  0  0  0  0
 15 16  2  0  0  0  0
 15 17  1  0  0  0  0
 17 18  1  0  0  0  0
 18 20  2  0  0  0  0
 19 18  1  1  0  0  0
 19 22  1  0  0  0  0
 19 30  1  0  0  0  0
 21 23  1  6  0  0  0
 21 29  1  0  0  0  0
 21 22  1  0  0  0  0
 23 24  1  0  0  0  0
 24 25  1  1  0  0  0
 24 26  1  0  0  0  0
 26 27  1  1  0  0  0
 26 28  1  0  0  0  0
 29 28  1  6  0  0  0
 29 31  1  0  0  0  0
 30 14  1  6  0  0  0
 30 31  1  0  0  0  0
M  CHG  1   3  -1
M  END
>  <CHROM.1>
177.79909963,178.20183386,63.98882195,62.48558516,176.16055090,164.23119101
106.24062273,28.04890771,36.12269828,19.23960596,-1.15222692,1.41549858,0.41832143

>  <Name>
ligand

>  <RI>
0

>  <Rbt.Current_Directory>
/home/itssahil/PROJECTS/Mol_Feturizer/New_Systems/rnas/3F2Q

>  <Rbt.Executable>
rbdock ($Id: //depot/dev/client3/rdock/2013.1/src/exe/rbdock.cxx#4 $)

>  <Rbt.Library>
libRbt.so (2013.1, Build901 2013/11/27)

>  <Rbt.Parameter_File>
/export/apps/rDock/src/rDock_2013.1_src/data/scripts/dock_solv.prm

>  <Rbt.Receptor>
prm/pocket_docking_8.prm

>  <SCORE>
-24.5643

>  <SCORE.INTER>
-18.7243

>  <SCORE.INTER.CONST>
1

>  <SCORE.INTER.POLAR>
0

>  <SCORE.INTER.ROT>
7

>  <SCORE.INTER.SOLV>
8.42247

>  <SCORE.INTER.VDW>
-23.557

>  <SCORE.INTER.norm>
-0.604011

>  <SCORE.INTRA>
-5.83998

>  <SCORE.INTRA.DIHEDRAL>
-7.80238

>  <SCORE.INTRA.DIHEDRAL.0>
10.0718

>  <SCORE.INTRA.POLAR>
0

>  <SCORE.INTRA.POLAR.0>
0

>  <SCORE.INTRA.REPUL>
0

>  <SCORE.INTRA.REPUL.0>
0

>  <SCORE.INTRA.SOLV>
-0.759886

>  <SCORE.INTRA.SOLV.lig_0>
-48.6963

>  <SCORE.INTRA.VDW>
-1.55885

>  <SCORE.INTRA.VDW.0>
-0.836976

>  <SCORE.INTRA.norm>
-0.188387

>  <SCORE.RESTR>
0

>  <SCORE.RESTR.CAVITY>
0

>  <SCORE.RESTR.norm>
0

>  <SCORE.SYSTEM>
0

>  <SCORE.SYSTEM.CONST>
0

>  <SCORE.SYSTEM.DIHEDRAL>
0

>  <SCORE.SYSTEM.SOLV>
0

>  <SCORE.SYSTEM.norm>
0

>  <SCORE.heavy>
31

>  <SCORE.norm>
-0.792397

>  <RMSD>
5.934

$$$$
ligand
 OpenBabel11021811473D
libRbt.so/2013.1/901 2013/11/27
 31 33  0  0  0  0  0  0  0  0999 V2000
   25.4984   32.8089   13.7588 P   0  0  1  0  0  0  0  0  0  0  0  0
   24.1030   33.2475   13.3689 O   0  0  0  0  0  0  0  0  0  0  0  0
   25.3887   31.4759   14.4488 O   0  5  0  0  0  0  0  0  0  0  0  0
   26.3611   32.6723   12.5345 O   0  0  0  0  0  0  0  0  0  0  0  0
   25.6808   34.1522   15.9823 C   0  0  0  0  0  0  0  0  0  0  0  0
   26.1714   33.9297   14.6826 O   0  0  0  0  0  0  0  0  0  0  0  0
   26.5277   35.2205   16.6583 C   0  0  1  0  0  0  0  0  0  0  0  0
   26.4314   36.4133   15.9090 O   0  0  0  0  0  0  0  0  0  0  0  0
   26.0474   35.4505   18.0912 C   0  0  1  0  0  0  0  0  0  0  0  0
   24.6423   35.5855   18.1043 O   0  0  0  0  0  0  0  0  0  0  0  0
   26.5107   34.3709   19.0792 C   0  0  1  0  0  0  0  0  0  0  0  0
   26.0883   33.1007   18.6353 O   0  0  0  0  0  0  0  0  0  0  0  0
   28.0197   34.3578   19.2643 C   0  0  0  0  0  0  0  0  0  0  0  0
   29.5340   35.9065   17.4499 N   0  0  0  0  0  0  0  0  0  0  0  0
   30.2267   36.6417   16.5097 C   0  0  0  0  0  0  0  0  0  0  0  0
   30.5411   36.1297   15.4316 O   0  0  0  0  0  0  0  0  0  0  0  0
   30.5738   37.9487   16.7863 N   0  0  0  0  0  0  0  0  0  0  0  0
   30.2311   38.5212   17.9968 C   0  0  0  0  0  0  0  0  0  0  0  0
   29.5371   37.7902   18.9384 C   0  0  1  0  0  0  0  0  0  0  0  0
   30.5262   39.6874   18.2525 O   0  0  0  0  0  0  0  0  0  0  0  0
   28.5011   37.6535   21.0837 C   0  0  2  0  0  0  0  0  0  0  0  0
   29.1989   38.3801   20.1408 N   0  0  0  0  0  0  0  0  0  0  0  0
   28.1607   38.2454   22.2977 C   0  0  0  0  0  0  0  0  0  0  0  0
   27.4638   37.5190   23.2581 C   0  0  1  0  0  0  0  0  0  0  0  0
   27.0948   38.1767   24.5592 C   0  0  0  0  0  0  0  0  0  0  0  0
   27.1039   36.1921   22.9965 C   0  0  1  0  0  0  0  0  0  0  0  0
   26.3389   35.3873   24.0064 C   0  0  0  0  0  0  0  0  0  0  0  0
   27.4454   35.6045   21.7820 C   0  0  0  0  0  0  0  0  0  0  0  0
   28.1456   36.3274   20.8192 C   0  0  2  0  0  0  0  0  0  0  0  0
   29.1834   36.4741   18.6641 C   0  0  2  0  0  0  0  0  0  0  0  0
   28.4955   35.7384   19.6100 N   0  0  0  0  0  0  0  0  0  0  0  0
  1  2  1  6  0  0  0
  1  3  1  0  0  0  0
  1  4  2  0  0  0  0
  1  6  1  0  0  0  0
  5  6  1  0  0  0  0
  7  5  1  6  0  0  0
  7  8  1  0  0  0  0
  7  9  1  0  0  0  0
  9 10  1  6  0  0  0
  9 11  1  0  0  0  0
 11 12  1  6  0  0  0
 11 13  1  0  0  0  0
 13 31  1  0  0  0  0
 14 15  1  0  0  0  0
 15 16  2  0  0  0  0
 15 17  1  0  0  0  0
 17 18  1  0  0  0  0
 18 20  2  0  0  0  0
 19 18  1  6  0  0  0
 19 22  1  0  0  0  0
 19 30  1  0  0  0  0
 21 23  1  1  0  0  0
 21 29  1  0  0  0  0
 21 22  1  0  0  0  0
 23 24  1  0  0  0  0
 24 25  1  6  0  0  0
 24 26  1  0  0  0  0
 26 27  1  6  0  0  0
 26 28  1  0  0  0  0
 29 28  1  1  0  0  0
 29 31  1  0  0  0  0
 30 14  1  1  0  0  0
 30 31  1  0  0  0  0
M  CHG  1   3  -1
M  END
>  <CHROM.1>
177.67736895,68.85681256,60.75488864,-47.28263246,-56.61938782,52.33667779
66.85271098,27.44920577,35.63526152,18.07783288,1.93500364,-0.70106030,-1.83223231

>  <Name>
ligand

>  <RI>
0

>  <Rbt.Current_Directory>
/home/itssahil/PROJECTS/Mol_Feturizer/New_Systems/rnas/3F2Q

>  <Rbt.Executable>
rbdock ($Id: //depot/dev/client3/rdock/2013.1/src/exe/rbdock.cxx#4 $)

>  <Rbt.Library>
libRbt.so (2013.1, Build901 2013/11/27)

>  <Rbt.Parameter_File>
/export/apps/rDock/src/rDock_2013.1_src/data/scripts/dock_solv.prm

>  <Rbt.Receptor>
prm/blind_docking_100.prm

>  <SCORE>
-24.6719

>  <SCORE.INTER>
-18.5892

>  <SCORE.INTER.CONST>
1

>  <SCORE.INTER.POLAR>
0

>  <SCORE.INTER.ROT>
7

>  <SCORE.INTER.SOLV>
10.4656

>  <SCORE.INTER.VDW>
-24.148

>  <SCORE.INTER.norm>
-0.599651

>  <SCORE.INTRA>
-6.08274

>  <SCORE.INTRA.DIHEDRAL>
-7.85814

>  <SCORE.INTRA.DIHEDRAL.0>
10.0718

>  <SCORE.INTRA.POLAR>
0

>  <SCORE.INTRA.POLAR.0>
0

>  <SCORE.INTRA.REPUL>
0

>  <SCORE.INTRA.REPUL.0>
0

>  <SCORE.INTRA.SOLV>
-1.32407

>  <SCORE.INTRA.SOLV.lig_0>
-48.6963

>  <SCORE.INTRA.VDW>
-1.49164

>  <SCORE.INTRA.VDW.0>
-0.836976

>  <SCORE.INTRA.norm>
-0.196218

>  <SCORE.RESTR>
0

>  <SCORE.RESTR.CAVITY>
0

>  <SCORE.RESTR.norm>
0

>  <SCORE.SYSTEM>
0

>  <SCORE.SYSTEM.CONST>
0

>  <SCORE.SYSTEM.DIHEDRAL>
0

>  <SCORE.SYSTEM.SOLV>
0

>  <SCORE.SYSTEM.norm>
0

>  <SCORE.heavy>
31

>  <SCORE.norm>
-0.795869

>  <RMSD>
5.945

$$$$
ligand
 OpenBabel11021811473D
libRbt.so/2013.1/901 2013/11/27
 31 33  0  0  0  0  0  0  0  0999 V2000
   30.7399   36.7508   15.8333 P   0  0  1  0  0  0  0  0  0  0  0  0
   29.7559   35.7066   15.3507 O   0  0  0  0  0  0  0  0  0  0  0  0
   32.1283   36.2025   15.6407 O   0  5  0  0  0  0  0  0  0  0  0  0
   30.5845   38.0178   15.0382 O   0  0  0  0  0  0  0  0  0  0  0  0
   31.1567   38.1312   18.0018 C   0  0  0  0  0  0  0  0  0  0  0  0
   30.4254   37.1151   17.3601 O   0  0  0  0  0  0  0  0  0  0  0  0
   30.5938   38.3434   19.3995 C   0  0  1  0  0  0  0  0  0  0  0  0
   31.5823   38.9634   20.1944 O   0  0  0  0  0  0  0  0  0  0  0  0
   29.3364   39.2106   19.3392 C   0  0  1  0  0  0  0  0  0  0  0  0
   28.4613   38.7089   18.3517 O   0  0  0  0  0  0  0  0  0  0  0  0
   28.6226   39.3593   20.6900 C   0  0  1  0  0  0  0  0  0  0  0  0
   28.3837   40.7228   20.9592 O   0  0  0  0  0  0  0  0  0  0  0  0
   27.3046   38.6030   20.7402 C   0  0  0  0  0  0  0  0  0  0  0  0
   26.9181   39.6383   23.3406 N   0  0  0  0  0  0  0  0  0  0  0  0
   26.6749   40.1871   24.5832 C   0  0  0  0  0  0  0  0  0  0  0  0
   26.5799   41.4109   24.7122 O   0  0  0  0  0  0  0  0  0  0  0  0
   26.5485   39.3602   25.6811 N   0  0  0  0  0  0  0  0  0  0  0  0
   26.6641   37.9900   25.5406 C   0  0  0  0  0  0  0  0  0  0  0  0
   26.9052   37.4376   24.3000 C   0  0  1  0  0  0  0  0  0  0  0  0
   26.5446   37.2413   26.5090 O   0  0  0  0  0  0  0  0  0  0  0  0
   27.2503   35.5091   22.9375 C   0  0  2  0  0  0  0  0  0  0  0  0
   27.0130   36.0659   24.1775 N   0  0  0  0  0  0  0  0  0  0  0  0
   27.3614   34.1264   22.8118 C   0  0  0  0  0  0  0  0  0  0  0  0
   27.6081   33.5555   21.5672 C   0  0  1  0  0  0  0  0  0  0  0  0
   27.7145   32.0603   21.4475 C   0  0  0  0  0  0  0  0  0  0  0  0
   27.7403   34.3775   20.4423 C   0  0  1  0  0  0  0  0  0  0  0  0
   27.9917   33.7908   19.0839 C   0  0  0  0  0  0  0  0  0  0  0  0
   27.6280   35.7586   20.5720 C   0  0  0  0  0  0  0  0  0  0  0  0
   27.3841   36.3342   21.8168 C   0  0  2  0  0  0  0  0  0  0  0  0
   27.0315   38.2658   23.1906 C   0  0  2  0  0  0  0  0  0  0  0  0
   27.2813   37.7138   21.9488 N   0  0  0  0  0  0  0  0  0  0  0  0
  1  2  1  6  0  0  0
  1  3  1  0  0  0  0
  1  4  2  0  0  0  0
  1  6  1  0  0  0  0
  5  6  1  0  0  0  0
  7  5  1  6  0  0  0
  7  8  1  0  0  0  0
  7  9  1  0  0  0  0
  9 10  1  6  0  0  0
  9 11  1  0  0  0  0
 11 12  1  6  0  0  0
 11 13  1  0  0  0  0
 13 31  1  0  0  0  0
 14 15  1  0  0  0  0
 15 16  2  0  0  0  0
 15 17  1  0  0  0  0
 17 18  1  0  0  0  0
 18 20  2  0  0  0  0
 19 18  1  6  0  0  0
 19 22  1  0  0  0  0
 19 30  1  0  0  0  0
 21 23  1  1  0  0  0
 21 29  1  0  0  0  0
 21 22  1  0  0  0  0
 23 24  1  0  0  0  0
 24 25  1  6  0  0  0
 24 26  1  0  0  0  0
 26 27  1  6  0  0  0
 26 28  1  0  0  0  0
 29 28  1  1  0  0  0
 29 31  1  0  0  0  0
 30 14  1  1  0  0  0
 30 31  1  0  0  0  0
M  CHG  1   3  -1
M  END
>  <CHROM.1>
175.86847602,-175.82880442,158.54917570,49.00941875,129.13738745,127.53320083
-108.39531693,28.49274271,37.33881195,20.68110880,-0.40737632,1.09282750
0.28906735

>  <Name>
ligand

>  <RI>
0

>  <Rbt.Current_Directory>
/home/itssahil/PROJECTS/Mol_Feturizer/New_Systems/rnas/3F2Q

>  <Rbt.Executable>
rbdock ($Id: //depot/dev/client3/rdock/2013.1/src/exe/rbdock.cxx#4 $)

>  <Rbt.Library>
libRbt.so (2013.1, Build901 2013/11/27)

>  <Rbt.Parameter_File>
/export/apps/rDock/src/rDock_2013.1_src/data/scripts/dock_solv.prm

>  <Rbt.Receptor>
prm/blind_docking_100.prm

>  <SCORE>
-22.4492

>  <SCORE.INTER>
-23.2287

>  <SCORE.INTER.CONST>
1

>  <SCORE.INTER.POLAR>
0

>  <SCORE.INTER.ROT>
7

>  <SCORE.INTER.SOLV>
18.1734

>  <SCORE.INTER.VDW>
-29.8102

>  <SCORE.INTER.norm>
-0.749313

>  <SCORE.INTRA>
0.779499

>  <SCORE.INTRA.DIHEDRAL>
3.50559

>  <SCORE.INTRA.DIHEDRAL.0>
10.0718

>  <SCORE.INTRA.POLAR>
0

>  <SCORE.INTRA.POLAR.0>
0

>  <SCORE.INTRA.REPUL>
0

>  <SCORE.INTRA.REPUL.0>
0

>  <SCORE.INTRA.SOLV>
-0.533343

>  <SCORE.INTRA.SOLV.lig_0>
-48.6963

>  <SCORE.INTRA.VDW>
-0.706627

>  <SCORE.INTRA.VDW.0>
-0.836976

>  <SCORE.INTRA.norm>
0.0251451

>  <SCORE.RESTR>
0

>  <SCORE.RESTR.CAVITY>
0

>  <SCORE.RESTR.norm>
0

>  <SCORE.SYSTEM>
0

>  <SCORE.SYSTEM.CONST>
0

>  <SCORE.SYSTEM.DIHEDRAL>
0

>  <SCORE.SYSTEM.SOLV>
0

>  <SCORE.SYSTEM.norm>
0

>  <SCORE.heavy>
31

>  <SCORE.norm>
-0.724168

>  <RMSD>
5.974

$$$$
ligand
 OpenBabel11021811473D
libRbt.so/2013.1/901 2013/11/27
 31 33  0  0  0  0  0  0  0  0999 V2000
   30.2920   37.0758   16.0474 P   0  0  1  0  0  0  0  0  0  0  0  0
   29.3875   36.5727   14.9428 O   0  0  0  0  0  0  0  0  0  0  0  0
   30.1523   36.1436   17.2207 O   0  5  0  0  0  0  0  0  0  0  0  0
   31.7222   37.0887   15.5824 O   0  0  0  0  0  0  0  0  0  0  0  0
   30.6926   39.3127   17.3193 C   0  0  0  0  0  0  0  0  0  0  0  0
   29.9039   38.5863   16.4084 O   0  0  0  0  0  0  0  0  0  0  0  0
   30.5169   38.7230   18.7110 C   0  0  1  0  0  0  0  0  0  0  0  0
   31.5913   39.1507   19.5209 O   0  0  0  0  0  0  0  0  0  0  0  0
   29.1846   39.1699   19.3125 C   0  0  1  0  0  0  0  0  0  0  0  0
   28.1202   38.6646   18.5351 O   0  0  0  0  0  0  0  0  0  0  0  0
   29.0179   38.7962   20.7920 C   0  0  1  0  0  0  0  0  0  0  0  0
   29.8814   39.5797   21.5853 O   0  0  0  0  0  0  0  0  0  0  0  0
   27.5900   38.9763   21.2823 C   0  0  0  0  0  0  0  0  0  0  0  0
   26.8210   39.8859   23.8444 N   0  0  0  0  0  0  0  0  0  0  0  0
   26.3984   40.3778   25.0626 C   0  0  0  0  0  0  0  0  0  0  0  0
   26.3403   41.5959   25.2524 O   0  0  0  0  0  0  0  0  0  0  0  0
   26.0509   39.4997   26.0692 N   0  0  0  0  0  0  0  0  0  0  0  0
   26.1243   38.1350   25.8620 C   0  0  0  0  0  0  0  0  0  0  0  0
   26.5443   37.6396   24.6453 C   0  0  1  0  0  0  0  0  0  0  0  0
   25.8090   37.3417   26.7473 O   0  0  0  0  0  0  0  0  0  0  0  0
   27.0229   35.7732   23.2373 C   0  0  2  0  0  0  0  0  0  0  0  0
   26.6070   36.2729   24.4544 N   0  0  0  0  0  0  0  0  0  0  0  0
   27.0888   34.3956   23.0431 C   0  0  0  0  0  0  0  0  0  0  0  0
   27.5141   33.8816   21.8221 C   0  0  1  0  0  0  0  0  0  0  0  0
   27.5692   32.3917   21.6258 C   0  0  0  0  0  0  0  0  0  0  0  0
   27.8717   34.7560   20.7896 C   0  0  1  0  0  0  0  0  0  0  0  0
   28.3199   34.2323   19.4564 C   0  0  0  0  0  0  0  0  0  0  0  0
   27.8038   36.1319   20.9874 C   0  0  0  0  0  0  0  0  0  0  0  0
   27.3814   36.6504   22.2092 C   0  0  2  0  0  0  0  0  0  0  0  0
   26.8937   38.5196   23.6273 C   0  0  2  0  0  0  0  0  0  0  0  0
   27.3225   38.0242   22.4109 N   0  0  0  0  0  0  0  0  0  0  0  0
  1  2  1  6  0  0  0
  1  3  1  0  0  0  0
  1  4  2  0  0  0  0
  1  6  1  0  0  0  0
  5  6  1  0  0  0  0
  7  5  1  6  0  0  0
  7  8  1  0  0  0  0
  7  9  1  0  0  0  0
  9 10  1  6  0  0  0
  9 11  1  0  0  0  0
 11 12  1  1  0  0  0
 11 13  1  0  0  0  0
 13 31  1  0  0  0  0
 14 15  1  0  0  0  0
 15 16  2  0  0  0  0
 15 17  1  0  0  0  0
 17 18  1  0  0  0  0
 18 20  2  0  0  0  0
 19 18  1  6  0  0  0
 19 22  1  0  0  0  0
 19 30  1  0  0  0  0
 21 23  1  1  0  0  0
 21 29  1  0  0  0  0
 21 22  1  0  0  0  0
 23 24  1  0  0  0  0
 24 25  1  6  0  0  0
 24 26  1  0  0  0  0
 26 27  1  6  0  0  0
 26 28  1  0  0  0  0
 29 28  1  1  0  0  0
 29 31  1  0  0  0  0
 30 14  1  1  0  0  0
 30 31  1  0  0  0  0
M  CHG  1   3  -1
M  END
>  <CHROM.1>
-68.96504933,-173.84758533,161.65318238,63.47152403,70.51823974,152.27324863
-62.46123802,28.33932212,37.55307250,20.89746647,0.40673575,-1.09646426,-2.79712715

>  <Name>
ligand

>  <RI>
0

>  <Rbt.Current_Directory>
/home/itssahil/PROJECTS/Mol_Feturizer/New_Systems/rnas/3F2Q

>  <Rbt.Executable>
rbdock ($Id: //depot/dev/client3/rdock/2013.1/src/exe/rbdock.cxx#4 $)

>  <Rbt.Library>
libRbt.so (2013.1, Build901 2013/11/27)

>  <Rbt.Parameter_File>
/export/apps/rDock/src/rDock_2013.1_src/data/scripts/dock_solv.prm

>  <Rbt.Receptor>
prm/pocket_docking_8.prm

>  <SCORE>
-28.9451

>  <SCORE.INTER>
-26.8134

>  <SCORE.INTER.CONST>
1

>  <SCORE.INTER.POLAR>
0

>  <SCORE.INTER.ROT>
7

>  <SCORE.INTER.SOLV>
16.5856

>  <SCORE.INTER.VDW>
-31.6708

>  <SCORE.INTER.norm>
-0.864947

>  <SCORE.INTRA>
-2.13174

>  <SCORE.INTRA.DIHEDRAL>
-4.41688

>  <SCORE.INTRA.DIHEDRAL.0>
10.0718

>  <SCORE.INTRA.POLAR>
0

>  <SCORE.INTRA.POLAR.0>
0

>  <SCORE.INTRA.REPUL>
0

>  <SCORE.INTRA.REPUL.0>
0

>  <SCORE.INTRA.SOLV>
2.9979

>  <SCORE.INTRA.SOLV.lig_0>
-48.6963

>  <SCORE.INTRA.VDW>
-1.42226

>  <SCORE.INTRA.VDW.0>
-0.836976

>  <SCORE.INTRA.norm>
-0.068766

>  <SCORE.RESTR>
0

>  <SCORE.RESTR.CAVITY>
0

>  <SCORE.RESTR.norm>
0

>  <SCORE.SYSTEM>
0

>  <SCORE.SYSTEM.CONST>
0

>  <SCORE.SYSTEM.DIHEDRAL>
0

>  <SCORE.SYSTEM.SOLV>
0

>  <SCORE.SYSTEM.norm>
0

>  <SCORE.heavy>
31

>  <SCORE.norm>
-0.933713

>  <RMSD>
5.990

$$$$
ligand
 OpenBabel11021811473D
libRbt.so/2013.1/901 2013/11/27
 31 33  0  0  0  0  0  0  0  0999 V2000
   27.6041   32.7427   14.7668 P   0  0  1  0  0  0  0  0  0  0  0  0
   28.8352   31.8674   14.6671 O   0  0  0  0  0  0  0  0  0  0  0  0
   27.4720   33.5046   13.4756 O   0  5  0  0  0  0  0  0  0  0  0  0
   26.3799   31.8952   14.9786 O   0  0  0  0  0  0  0  0  0  0  0  0
   28.2108   33.1876   17.2599 C   0  0  0  0  0  0  0  0  0  0  0  0
   27.7342   33.7033   16.0408 O   0  0  0  0  0  0  0  0  0  0  0  0
   28.0315   34.2358   18.3483 C   0  0  1  0  0  0  0  0  0  0  0  0
   28.3403   33.6491   19.5948 O   0  0  0  0  0  0  0  0  0  0  0  0
   28.9403   35.4362   18.0839 C   0  0  1  0  0  0  0  0  0  0  0  0
   28.5757   36.0476   16.8649 O   0  0  0  0  0  0  0  0  0  0  0  0
   28.9664   36.4563   19.2307 C   0  0  1  0  0  0  0  0  0  0  0  0
   29.9364   37.4463   18.9706 O   0  0  0  0  0  0  0  0  0  0  0  0
   27.6182   37.1245   19.4484 C   0  0  0  0  0  0  0  0  0  0  0  0
   27.2831   35.2818   21.5640 N   0  0  0  0  0  0  0  0  0  0  0  0
   27.1718   34.3391   22.5657 C   0  0  0  0  0  0  0  0  0  0  0  0
   27.0633   33.1430   22.2815 O   0  0  0  0  0  0  0  0  0  0  0  0
   27.1729   34.7430   23.8856 N   0  0  0  0  0  0  0  0  0  0  0  0
   27.2847   36.0829   24.2060 C   0  0  0  0  0  0  0  0  0  0  0  0
   27.3980   37.0279   23.2077 C   0  0  1  0  0  0  0  0  0  0  0  0
   27.2960   36.4555   25.3780 O   0  0  0  0  0  0  0  0  0  0  0  0
   27.6312   39.3103   22.5510 C   0  0  2  0  0  0  0  0  0  0  0  0
   27.5136   38.3621   23.5466 N   0  0  0  0  0  0  0  0  0  0  0  0
   27.7458   40.6563   22.8901 C   0  0  0  0  0  0  0  0  0  0  0  0
   27.8573   41.6208   21.8936 C   0  0  1  0  0  0  0  0  0  0  0  0
   27.9910   43.0687   22.2774 C   0  0  0  0  0  0  0  0  0  0  0  0
   27.8571   41.2310   20.5494 C   0  0  1  0  0  0  0  0  0  0  0  0
   27.9909   42.2463   19.4522 C   0  0  0  0  0  0  0  0  0  0  0  0
   27.7430   39.8849   20.2148 C   0  0  0  0  0  0  0  0  0  0  0  0
   27.6282   38.9166   21.2094 C   0  0  2  0  0  0  0  0  0  0  0  0
   27.3994   36.6264   21.8768 C   0  0  2  0  0  0  0  0  0  0  0  0
   27.5045   37.5731   20.8759 N   0  0  0  0  0  0  0  0  0  0  0  0
  1  2  1  6  0  0  0
  1  3  1  0  0  0  0
  1  4  2  0  0  0  0
  1  6  1  0  0  0  0
  5  6  1  0  0  0  0
  7  5  1  6  0  0  0
  7  8  1  0  0  0  0
  7  9  1  0  0  0  0
  9 10  1  6  0  0  0
  9 11  1  0  0  0  0
 11 12  1  6  0  0  0
 11 13  1  0  0  0  0
 13 31  1  0  0  0  0
 14 15  1  0  0  0  0
 15 16  2  0  0  0  0
 15 17  1  0  0  0  0
 17 18  1  0  0  0  0
 18 20  2  0  0  0  0
 19 18  1  1  0  0  0
 19 22  1  0  0  0  0
 19 30  1  0  0  0  0
 21 23  1  6  0  0  0
 21 29  1  0  0  0  0
 21 22  1  0  0  0  0
 23 24  1  0  0  0  0
 24 25  1  1  0  0  0
 24 26  1  0  0  0  0
 26 27  1  1  0  0  0
 26 28  1  0  0  0  0
 29 28  1  6  0  0  0
 29 31  1  0  0  0  0
 30 14  1  6  0  0  0
 30 31  1  0  0  0  0
M  CHG  1   3  -1
M  END
>  <CHROM.1>
-171.21906930,-43.22618388,172.09759522,62.67366471,173.43960666,153.62357057
104.97602036,27.81618393,36.28271732,19.70954104,-1.46475696,1.43638137,0.71915268

>  <Name>
ligand

>  <RI>
0

>  <Rbt.Current_Directory>
/home/itssahil/PROJECTS/Mol_Feturizer/New_Systems/rnas/3F2Q

>  <Rbt.Executable>
rbdock ($Id: //depot/dev/client3/rdock/2013.1/src/exe/rbdock.cxx#4 $)

>  <Rbt.Library>
libRbt.so (2013.1, Build901 2013/11/27)

>  <Rbt.Parameter_File>
/export/apps/rDock/src/rDock_2013.1_src/data/scripts/dock_solv.prm

>  <Rbt.Receptor>
prm/pocket_docking_4.prm

>  <SCORE>
-23.0526

>  <SCORE.INTER>
-18.3702

>  <SCORE.INTER.CONST>
1

>  <SCORE.INTER.POLAR>
0

>  <SCORE.INTER.ROT>
7

>  <SCORE.INTER.SOLV>
10.764

>  <SCORE.INTER.VDW>
-24.1015

>  <SCORE.INTER.norm>
-0.592587

>  <SCORE.INTRA>
-4.68243

>  <SCORE.INTRA.DIHEDRAL>
-5.47624

>  <SCORE.INTRA.DIHEDRAL.0>
10.0718

>  <SCORE.INTRA.POLAR>
0

>  <SCORE.INTRA.POLAR.0>
0

>  <SCORE.INTRA.REPUL>
0

>  <SCORE.INTRA.REPUL.0>
0

>  <SCORE.INTRA.SOLV>
-0.733198

>  <SCORE.INTRA.SOLV.lig_0>
-48.6963

>  <SCORE.INTRA.VDW>
-1.57771

>  <SCORE.INTRA.VDW.0>
-0.836976

>  <SCORE.INTRA.norm>
-0.151046

>  <SCORE.RESTR>
0

>  <SCORE.RESTR.CAVITY>
0

>  <SCORE.RESTR.norm>
0

>  <SCORE.SYSTEM>
0

>  <SCORE.SYSTEM.CONST>
0

>  <SCORE.SYSTEM.DIHEDRAL>
0

>  <SCORE.SYSTEM.SOLV>
0

>  <SCORE.SYSTEM.norm>
0

>  <SCORE.heavy>
31

>  <SCORE.norm>
-0.743633

>  <RMSD>
6.017

$$$$
ligand
 OpenBabel11021811473D
libRbt.so/2013.1/901 2013/11/27
 31 33  0  0  0  0  0  0  0  0999 V2000
   32.5308   33.6230   15.5556 P   0  0  1  0  0  0  0  0  0  0  0  0
   31.2424   33.2223   14.8692 O   0  0  0  0  0  0  0  0  0  0  0  0
   33.4617   32.4411   15.5191 O   0  5  0  0  0  0  0  0  0  0  0  0
   33.1626   34.7836   14.8375 O   0  0  0  0  0  0  0  0  0  0  0  0
   31.3577   35.2117   17.2532 C   0  0  0  0  0  0  0  0  0  0  0  0
   32.2114   34.1128   17.0458 O   0  0  0  0  0  0  0  0  0  0  0  0
   29.9410   34.8238   16.8561 C   0  0  1  0  0  0  0  0  0  0  0  0
   29.5521   33.6983   17.6146 O   0  0  0  0  0  0  0  0  0  0  0  0
   28.9830   35.9894   17.1017 C   0  0  1  0  0  0  0  0  0  0  0  0
   27.7080   35.6720   16.5859 O   0  0  0  0  0  0  0  0  0  0  0  0
   28.8957   36.4184   18.5730 C   0  0  1  0  0  0  0  0  0  0  0  0
   29.9979   37.2348   18.9012 O   0  0  0  0  0  0  0  0  0  0  0  0
   27.6101   37.1665   18.8877 C   0  0  0  0  0  0  0  0  0  0  0  0
   27.4537   35.0753   20.7813 N   0  0  0  0  0  0  0  0  0  0  0  0
   27.4303   34.0179   21.6678 C   0  0  0  0  0  0  0  0  0  0  0  0
   27.3673   32.8589   21.2483 O   0  0  0  0  0  0  0  0  0  0  0  0
   27.4678   34.2651   23.0253 N   0  0  0  0  0  0  0  0  0  0  0  0
   27.5287   35.5626   23.4977 C   0  0  0  0  0  0  0  0  0  0  0  0
   27.5541   36.6220   22.6147 C   0  0  1  0  0  0  0  0  0  0  0  0
   27.5717   35.7965   24.7043 O   0  0  0  0  0  0  0  0  0  0  0  0
   27.6496   38.9743   22.2245 C   0  0  2  0  0  0  0  0  0  0  0  0
   27.6198   37.9119   23.1045 N   0  0  0  0  0  0  0  0  0  0  0  0
   27.7137   40.2759   22.7160 C   0  0  0  0  0  0  0  0  0  0  0  0
   27.7365   41.3543   21.8371 C   0  0  1  0  0  0  0  0  0  0  0  0
   27.8167   42.7527   22.3844 C   0  0  0  0  0  0  0  0  0  0  0  0
   27.6981   41.1239   20.4572 C   0  0  1  0  0  0  0  0  0  0  0  0
   27.7364   42.2656   19.4837 C   0  0  0  0  0  0  0  0  0  0  0  0
   27.6346   39.8218   19.9701 C   0  0  0  0  0  0  0  0  0  0  0  0
   27.6087   38.7397   20.8467 C   0  0  2  0  0  0  0  0  0  0  0  0
   27.5184   36.3786   21.2465 C   0  0  2  0  0  0  0  0  0  0  0  0
   27.5355   37.4395   20.3614 N   0  0  0  0  0  0  0  0  0  0  0  0
  1  2  1  6  0  0  0
  1  3  1  0  0  0  0
  1  4  2  0  0  0  0
  1  6  1  0  0  0  0
  5  6  1  0  0  0  0
  7  5  1  1  0  0  0
  7  8  1  0  0  0  0
  7  9  1  0  0  0  0
  9 10  1  1  0  0  0
  9 11  1  0  0  0  0
 11 12  1  6  0  0  0
 11 13  1  0  0  0  0
 13 31  1  0  0  0  0
 14 15  1  0  0  0  0
 15 16  2  0  0  0  0
 15 17  1  0  0  0  0
 17 18  1  0  0  0  0
 18 20  2  0  0  0  0
 19 18  1  6  0  0  0
 19 22  1  0  0  0  0
 19 30  1  0  0  0  0
 21 23  1  1  0  0  0
 21 29  1  0  0  0  0
 21 22  1  0  0  0  0
 23 24  1  0  0  0  0
 24 25  1  6  0  0  0
 24 26  1  0  0  0  0
 26 27  1  6  0  0  0
 26 28  1  0  0  0  0
 29 28  1  1  0  0  0
 29 31  1  0  0  0  0
 30 14  1  1  0  0  0
 30 31  1  0  0  0  0
M  CHG  1   3  -1
M  END
>  <CHROM.1>
68.68809024,-60.04019831,57.51258498,173.19570345,80.09715879,174.73298554
113.04723932,29.06017845,36.39020187,19.43621850,-0.46207252,1.02202711,-0.18179143

>  <Name>
ligand

>  <RI>
0

>  <Rbt.Current_Directory>
/home/itssahil/PROJECTS/Mol_Feturizer/New_Systems/rnas/3F2Q

>  <Rbt.Executable>
rbdock ($Id: //depot/dev/client3/rdock/2013.1/src/exe/rbdock.cxx#4 $)

>  <Rbt.Library>
libRbt.so (2013.1, Build901 2013/11/27)

>  <Rbt.Parameter_File>
/export/apps/rDock/src/rDock_2013.1_src/data/scripts/dock_solv.prm

>  <Rbt.Receptor>
prm/blind_docking_100.prm

>  <SCORE>
-22.9304

>  <SCORE.INTER>
-19.1205

>  <SCORE.INTER.CONST>
1

>  <SCORE.INTER.POLAR>
0

>  <SCORE.INTER.ROT>
7

>  <SCORE.INTER.SOLV>
13.6095

>  <SCORE.INTER.VDW>
-25.5502

>  <SCORE.INTER.norm>
-0.61679

>  <SCORE.INTRA>
-3.80989

>  <SCORE.INTRA.DIHEDRAL>
-6.82322

>  <SCORE.INTRA.DIHEDRAL.0>
10.0718

>  <SCORE.INTRA.POLAR>
0

>  <SCORE.INTRA.POLAR.0>
0

>  <SCORE.INTRA.REPUL>
0

>  <SCORE.INTRA.REPUL.0>
0

>  <SCORE.INTRA.SOLV>
-0.106478

>  <SCORE.INTRA.SOLV.lig_0>
-48.6963

>  <SCORE.INTRA.VDW>
-0.345038

>  <SCORE.INTRA.VDW.0>
-0.836976

>  <SCORE.INTRA.norm>
-0.1229

>  <SCORE.RESTR>
0

>  <SCORE.RESTR.CAVITY>
0

>  <SCORE.RESTR.norm>
0

>  <SCORE.SYSTEM>
0

>  <SCORE.SYSTEM.CONST>
0

>  <SCORE.SYSTEM.DIHEDRAL>
0

>  <SCORE.SYSTEM.SOLV>
0

>  <SCORE.SYSTEM.norm>
0

>  <SCORE.heavy>
31

>  <SCORE.norm>
-0.73969

>  <RMSD>
6.027

$$$$
ligand
 OpenBabel11021811473D
libRbt.so/2013.1/901 2013/11/27
 31 33  0  0  0  0  0  0  0  0999 V2000
   23.2646   33.1150   16.3124 P   0  0  1  0  0  0  0  0  0  0  0  0
   24.4865   33.8541   15.8104 O   0  0  0  0  0  0  0  0  0  0  0  0
   22.3202   34.1281   16.9013 O   0  5  0  0  0  0  0  0  0  0  0  0
   22.5885   32.3975   15.1766 O   0  0  0  0  0  0  0  0  0  0  0  0
   24.4272   32.3749   18.5220 C   0  0  0  0  0  0  0  0  0  0  0  0
   23.7126   31.9996   17.3696 O   0  0  0  0  0  0  0  0  0  0  0  0
   25.9060   32.0883   18.3065 C   0  0  1  0  0  0  0  0  0  0  0  0
   26.3592   32.8554   17.2112 O   0  0  0  0  0  0  0  0  0  0  0  0
   26.7022   32.4330   19.5650 C   0  0  1  0  0  0  0  0  0  0  0  0
   27.9944   31.8717   19.4771 O   0  0  0  0  0  0  0  0  0  0  0  0
   26.7695   33.9377   19.8612 C   0  0  1  0  0  0  0  0  0  0  0  0
   25.4797   34.4276   20.1532 O   0  0  0  0  0  0  0  0  0  0  0  0
   27.7003   34.2639   21.0183 C   0  0  0  0  0  0  0  0  0  0  0  0
   29.1070   35.1976   18.7527 N   0  0  0  0  0  0  0  0  0  0  0  0
   29.7454   35.6167   17.6032 C   0  0  0  0  0  0  0  0  0  0  0  0
   30.0260   34.8030   16.7187 O   0  0  0  0  0  0  0  0  0  0  0  0
   30.0765   36.9483   17.4537 N   0  0  0  0  0  0  0  0  0  0  0  0
   29.7718   37.8597   18.4472 C   0  0  0  0  0  0  0  0  0  0  0  0
   29.1320   37.4450   19.5967 C   0  0  1  0  0  0  0  0  0  0  0  0
   30.0529   39.0505   18.3230 O   0  0  0  0  0  0  0  0  0  0  0  0
   28.1875   37.9604   21.7267 C   0  0  2  0  0  0  0  0  0  0  0  0
   28.8310   38.3705   20.5771 N   0  0  0  0  0  0  0  0  0  0  0  0
   27.8848   38.8913   22.7175 C   0  0  0  0  0  0  0  0  0  0  0  0
   27.2429   38.4868   23.8837 C   0  0  1  0  0  0  0  0  0  0  0  0
   26.9138   39.5067   24.9387 C   0  0  0  0  0  0  0  0  0  0  0  0
   26.9000   37.1407   24.0542 C   0  0  1  0  0  0  0  0  0  0  0  0
   26.1937   36.6760   25.2942 C   0  0  0  0  0  0  0  0  0  0  0  0
   27.2037   36.2137   23.0615 C   0  0  0  0  0  0  0  0  0  0  0  0
   27.8489   36.6142   21.8939 C   0  0  2  0  0  0  0  0  0  0  0  0
   28.7946   36.1053   19.7516 C   0  0  2  0  0  0  0  0  0  0  0  0
   28.1612   35.6876   20.9063 N   0  0  0  0  0  0  0  0  0  0  0  0
  1  2  1  6  0  0  0
  1  3  1  0  0  0  0
  1  4  2  0  0  0  0
  1  6  1  0  0  0  0
  5  6  1  0  0  0  0
  7  5  1  1  0  0  0
  7  8  1  0  0  0  0
  7  9  1  0  0  0  0
  9 10  1  6  0  0  0
  9 11  1  0  0  0  0
 11 12  1  1  0  0  0
 11 13  1  0  0  0  0
 13 31  1  0  0  0  0
 14 15  1  0  0  0  0
 15 16  2  0  0  0  0
 15 17  1  0  0  0  0
 17 18  1  0  0  0  0
 18 20  2  0  0  0  0
 19 18  1  6  0  0  0
 19 22  1  0  0  0  0
 19 30  1  0  0  0  0
 21 23  1  1  0  0  0
 21 29  1  0  0  0  0
 21 22  1  0  0  0  0
 23 24  1  0  0  0  0
 24 25  1  6  0  0  0
 24 26  1  0  0  0  0
 26 27  1  6  0  0  0
 26 28  1  0  0  0  0
 29 28  1  1  0  0  0
 29 31  1  0  0  0  0
 30 14  1  1  0  0  0
 30 31  1  0  0  0  0
M  CHG  1   3  -1
M  END
>  <CHROM.1>
-100.32664086,57.92521128,61.15212414,165.91080577,64.92777731,156.92914815
117.59928753,26.84610512,35.23113879,19.46137465,2.14053185,-0.52679909,-1.99945287

>  <Name>
ligand

>  <RI>
0

>  <Rbt.Current_Directory>
/home/itssahil/PROJECTS/Mol_Feturizer/New_Systems/rnas/3F2Q

>  <Rbt.Executable>
rbdock ($Id: //depot/dev/client3/rdock/2013.1/src/exe/rbdock.cxx#4 $)

>  <Rbt.Library>
libRbt.so (2013.1, Build901 2013/11/27)

>  <Rbt.Parameter_File>
/export/apps/rDock/src/rDock_2013.1_src/data/scripts/dock_solv.prm

>  <Rbt.Receptor>
prm/blind_docking_80.prm

>  <SCORE>
-23.974

>  <SCORE.INTER>
-22.5693

>  <SCORE.INTER.CONST>
1

>  <SCORE.INTER.POLAR>
0

>  <SCORE.INTER.ROT>
7

>  <SCORE.INTER.SOLV>
16.8798

>  <SCORE.INTER.VDW>
-28.9395

>  <SCORE.INTER.norm>
-0.728042

>  <SCORE.INTRA>
-1.4047

>  <SCORE.INTRA.DIHEDRAL>
-0.803497

>  <SCORE.INTRA.DIHEDRAL.0>
10.0718

>  <SCORE.INTRA.POLAR>
0

>  <SCORE.INTRA.POLAR.0>
0

>  <SCORE.INTRA.REPUL>
0

>  <SCORE.INTRA.REPUL.0>
0

>  <SCORE.INTRA.SOLV>
-0.246306

>  <SCORE.INTRA.SOLV.lig_0>
-48.6963

>  <SCORE.INTRA.VDW>
-0.879794

>  <SCORE.INTRA.VDW.0>
-0.836976

>  <SCORE.INTRA.norm>
-0.0453128

>  <SCORE.RESTR>
0

>  <SCORE.RESTR.CAVITY>
0

>  <SCORE.RESTR.norm>
0

>  <SCORE.SYSTEM>
0

>  <SCORE.SYSTEM.CONST>
0

>  <SCORE.SYSTEM.DIHEDRAL>
0

>  <SCORE.SYSTEM.SOLV>
0

>  <SCORE.SYSTEM.norm>
0

>  <SCORE.heavy>
31

>  <SCORE.norm>
-0.773355

>  <RMSD>
6.092

$$$$
ligand
 OpenBabel11021811473D
libRbt.so/2013.1/901 2013/11/27
 31 33  0  0  0  0  0  0  0  0999 V2000
   29.1861   35.2511   14.5563 P   0  0  1  0  0  0  0  0  0  0  0  0
   28.6826   36.3732   13.6737 O   0  0  0  0  0  0  0  0  0  0  0  0
   28.5050   33.9807   14.1235 O   0  5  0  0  0  0  0  0  0  0  0  0
   30.6749   35.1003   14.4060 O   0  0  0  0  0  0  0  0  0  0  0  0
   29.3275   36.8504   16.6066 C   0  0  0  0  0  0  0  0  0  0  0  0
   28.9049   35.6117   16.0904 O   0  0  0  0  0  0  0  0  0  0  0  0
   29.0486   36.8880   18.1020 C   0  0  1  0  0  0  0  0  0  0  0  0
   29.8651   35.9273   18.7374 O   0  0  0  0  0  0  0  0  0  0  0  0
   29.3328   38.2825   18.6600 C   0  0  1  0  0  0  0  0  0  0  0  0
   28.5441   39.2352   17.9796 O   0  0  0  0  0  0  0  0  0  0  0  0
   29.1457   38.3903   20.1797 C   0  0  1  0  0  0  0  0  0  0  0  0
   29.7058   39.5969   20.6480 O   0  0  0  0  0  0  0  0  0  0  0  0
   27.6843   38.3253   20.5941 C   0  0  0  0  0  0  0  0  0  0  0  0
   27.2502   39.4555   23.1471 N   0  0  0  0  0  0  0  0  0  0  0  0
   26.9880   40.0533   24.3630 C   0  0  0  0  0  0  0  0  0  0  0  0
   26.9685   41.2837   24.4570 O   0  0  0  0  0  0  0  0  0  0  0  0
   26.7577   39.2671   25.4739 N   0  0  0  0  0  0  0  0  0  0  0  0
   26.7885   37.8890   25.3730 C   0  0  0  0  0  0  0  0  0  0  0  0
   27.0483   37.2878   24.1591 C   0  0  1  0  0  0  0  0  0  0  0  0
   26.5762   37.1768   26.3529 O   0  0  0  0  0  0  0  0  0  0  0  0
   27.3260   35.3038   22.8624 C   0  0  2  0  0  0  0  0  0  0  0  0
   27.0705   35.9091   24.0758 N   0  0  0  0  0  0  0  0  0  0  0  0
   27.3509   33.9139   22.7763 C   0  0  0  0  0  0  0  0  0  0  0  0
   27.6152   33.2938   21.5592 C   0  0  1  0  0  0  0  0  0  0  0  0
   27.6277   31.7920   21.4816 C   0  0  0  0  0  0  0  0  0  0  0  0
   27.8522   34.0739   20.4217 C   0  0  1  0  0  0  0  0  0  0  0  0
   28.1252   33.4345   19.0915 C   0  0  0  0  0  0  0  0  0  0  0  0
   27.8258   35.4624   20.5117 C   0  0  0  0  0  0  0  0  0  0  0  0
   27.5646   36.0870   21.7290 C   0  0  2  0  0  0  0  0  0  0  0  0
   27.2791   38.0748   23.0366 C   0  0  2  0  0  0  0  0  0  0  0  0
   27.5476   37.4735   21.8219 N   0  0  0  0  0  0  0  0  0  0  0  0
  1  2  1  6  0  0  0
  1  3  1  0  0  0  0
  1  4  2  0  0  0  0
  1  6  1  0  0  0  0
  5  6  1  0  0  0  0
  7  5  1  6  0  0  0
  7  8  1  0  0  0  0
  7  9  1  0  0  0  0
  9 10  1  6  0  0  0
  9 11  1  0  0  0  0
 11 12  1  6  0  0  0
 11 13  1  0  0  0  0
 13 31  1  0  0  0  0
 14 15  1  0  0  0  0
 15 16  2  0  0  0  0
 15 17  1  0  0  0  0
 17 18  1  0  0  0  0
 18 20  2  0  0  0  0
 19 18  1  6  0  0  0
 19 22  1  0  0  0  0
 19 30  1  0  0  0  0
 21 23  1  1  0  0  0
 21 29  1  0  0  0  0
 21 22  1  0  0  0  0
 23 24  1  0  0  0  0
 24 25  1  6  0  0  0
 24 26  1  0  0  0  0
 26 27  1  6  0  0  0
 26 28  1  0  0  0  0
 29 28  1  1  0  0  0
 29 31  1  0  0  0  0
 30 14  1  1  0  0  0
 30 31  1  0  0  0  0
M  CHG  1   3  -1
M  END
>  <CHROM.1>
-175.08199042,-51.92216430,65.95761605,57.76124398,166.95466706,138.61485573
-78.73509760,28.16128980,36.64087522,20.15520911,-0.60266137,1.30000946,0.32653268

>  <Name>
ligand

>  <RI>
0

>  <Rbt.Current_Directory>
/home/itssahil/PROJECTS/Mol_Feturizer/New_Systems/rnas/3F2Q

>  <Rbt.Executable>
rbdock ($Id: //depot/dev/client3/rdock/2013.1/src/exe/rbdock.cxx#4 $)

>  <Rbt.Library>
libRbt.so (2013.1, Build901 2013/11/27)

>  <Rbt.Parameter_File>
/export/apps/rDock/src/rDock_2013.1_src/data/scripts/dock_solv.prm

>  <Rbt.Receptor>
prm/pocket_docking_5.prm

>  <SCORE>
-27.4116

>  <SCORE.INTER>
-23.3529

>  <SCORE.INTER.CONST>
1

>  <SCORE.INTER.POLAR>
0

>  <SCORE.INTER.ROT>
7

>  <SCORE.INTER.SOLV>
10.5712

>  <SCORE.INTER.VDW>
-27.359

>  <SCORE.INTER.norm>
-0.753321

>  <SCORE.INTRA>
-4.05869

>  <SCORE.INTRA.DIHEDRAL>
-3.49621

>  <SCORE.INTRA.DIHEDRAL.0>
10.0718

>  <SCORE.INTRA.POLAR>
0

>  <SCORE.INTRA.POLAR.0>
0

>  <SCORE.INTRA.REPUL>
0

>  <SCORE.INTRA.REPUL.0>
0

>  <SCORE.INTRA.SOLV>
-1.30403

>  <SCORE.INTRA.SOLV.lig_0>
-48.6963

>  <SCORE.INTRA.VDW>
-1.65857

>  <SCORE.INTRA.VDW.0>
-0.836976

>  <SCORE.INTRA.norm>
-0.130925

>  <SCORE.RESTR>
0

>  <SCORE.RESTR.CAVITY>
0

>  <SCORE.RESTR.norm>
0

>  <SCORE.SYSTEM>
0

>  <SCORE.SYSTEM.CONST>
0

>  <SCORE.SYSTEM.DIHEDRAL>
0

>  <SCORE.SYSTEM.SOLV>
0

>  <SCORE.SYSTEM.norm>
0

>  <SCORE.heavy>
31

>  <SCORE.norm>
-0.884246

>  <RMSD>
6.116

$$$$
ligand
 OpenBabel11021811473D
libRbt.so/2013.1/901 2013/11/27
 31 33  0  0  0  0  0  0  0  0999 V2000
   24.8641   42.7545   25.4402 P   0  0  1  0  0  0  0  0  0  0  0  0
   25.3937   43.8828   26.2993 O   0  0  0  0  0  0  0  0  0  0  0  0
   24.7730   41.5222   26.2993 O   0  5  0  0  0  0  0  0  0  0  0  0
   23.4997   43.1011   24.9110 O   0  0  0  0  0  0  0  0  0  0  0  0
   25.6032   41.4773   23.2945 C   0  0  0  0  0  0  0  0  0  0  0  0
   25.8208   42.5550   24.1724 O   0  0  0  0  0  0  0  0  0  0  0  0
   26.7403   41.4196   22.2851 C   0  0  1  0  0  0  0  0  0  0  0  0
   27.9497   41.2014   22.9801 O   0  0  0  0  0  0  0  0  0  0  0  0
   26.4963   40.2991   21.2743 C   0  0  1  0  0  0  0  0  0  0  0  0
   25.4060   40.6383   20.4444 O   0  0  0  0  0  0  0  0  0  0  0  0
   27.7347   39.9358   20.4432 C   0  0  1  0  0  0  0  0  0  0  0  0
   28.3145   41.1052   19.9091 O   0  0  0  0  0  0  0  0  0  0  0  0
   28.7809   39.1854   21.2519 C   0  0  0  0  0  0  0  0  0  0  0  0
   27.4628   38.6558   23.6943 N   0  0  0  0  0  0  0  0  0  0  0  0
   26.7807   38.4607   24.8780 C   0  0  0  0  0  0  0  0  0  0  0  0
   26.6842   39.3795   25.6962 O   0  0  0  0  0  0  0  0  0  0  0  0
   26.2162   37.2297   25.1448 N   0  0  0  0  0  0  0  0  0  0  0  0
   26.3312   36.1962   24.2342 C   0  0  0  0  0  0  0  0  0  0  0  0
   27.0105   36.3880   23.0492 C   0  0  1  0  0  0  0  0  0  0  0  0
   25.8253   35.0973   24.4554 O   0  0  0  0  0  0  0  0  0  0  0  0
   27.7867   35.5344   20.9603 C   0  0  2  0  0  0  0  0  0  0  0  0
   27.1114   35.3454   22.1486 N   0  0  0  0  0  0  0  0  0  0  0  0
   27.8916   34.4840   20.0516 C   0  0  0  0  0  0  0  0  0  0  0  0
   28.5769   34.6620   18.8539 C   0  0  1  0  0  0  0  0  0  0  0  0
   28.6714   33.5207   17.8793 C   0  0  0  0  0  0  0  0  0  0  0  0
   29.1570   35.9027   18.5658 C   0  0  1  0  0  0  0  0  0  0  0  0
   29.8896   36.1303   17.2759 C   0  0  0  0  0  0  0  0  0  0  0  0
   29.0494   36.9499   19.4762 C   0  0  0  0  0  0  0  0  0  0  0  0
   28.3668   36.7747   20.6776 C   0  0  2  0  0  0  0  0  0  0  0  0
   27.5793   37.6264   22.7746 C   0  0  2  0  0  0  0  0  0  0  0  0
   28.2671   37.8170   21.5915 N   0  0  0  0  0  0  0  0  0  0  0  0
  1  2  1  1  0  0  0
  1  3  1  0  0  0  0
  1  4  2  0  0  0  0
  1  6  1  0  0  0  0
  5  6  1  0  0  0  0
  7  5  1  1  0  0  0
  7  8  1  0  0  0  0
  7  9  1  0  0  0  0
  9 10  1  6  0  0  0
  9 11  1  0  0  0  0
 11 12  1  1  0  0  0
 11 13  1  0  0  0  0
 13 31  1  0  0  0  0
 14 15  1  0  0  0  0
 15 16  2  0  0  0  0
 15 17  1  0  0  0  0
 17 18  1  0  0  0  0
 18 20  2  0  0  0  0
 19 18  1  6  0  0  0
 19 22  1  0  0  0  0
 19 30  1  0  0  0  0
 21 23  1  1  0  0  0
 21 29  1  0  0  0  0
 21 22  1  0  0  0  0
 23 24  1  0  0  0  0
 24 25  1  6  0  0  0
 24 26  1  0  0  0  0
 26 27  1  6  0  0  0
 26 28  1  0  0  0  0
 29 28  1  1  0  0  0
 29 31  1  0  0  0  0
 30 14  1  1  0  0  0
 30 31  1  0  0  0  0
M  CHG  1   3  -1
M  END
>  <CHROM.1>
-173.16676216,173.93071072,61.59689348,69.24859565,-49.39952857,69.02173924
82.82219318,26.94506178,38.88068151,22.48234762,-2.58144436,-1.14191787,2.86451557

>  <Name>
ligand

>  <RI>
0

>  <Rbt.Current_Directory>
/home/itssahil/PROJECTS/Mol_Feturizer/New_Systems/rnas/3F2Q

>  <Rbt.Executable>
rbdock ($Id: //depot/dev/client3/rdock/2013.1/src/exe/rbdock.cxx#4 $)

>  <Rbt.Library>
libRbt.so (2013.1, Build901 2013/11/27)

>  <Rbt.Parameter_File>
/export/apps/rDock/src/rDock_2013.1_src/data/scripts/dock_solv.prm

>  <Rbt.Receptor>
prm/blind_docking_100.prm

>  <SCORE>
-28.6074

>  <SCORE.INTER>
-22.9473

>  <SCORE.INTER.CONST>
1

>  <SCORE.INTER.POLAR>
0

>  <SCORE.INTER.ROT>
7

>  <SCORE.INTER.SOLV>
15.5549

>  <SCORE.INTER.VDW>
-28.7498

>  <SCORE.INTER.norm>
-0.740236

>  <SCORE.INTRA>
-5.66147

>  <SCORE.INTRA.DIHEDRAL>
-7.65119

>  <SCORE.INTRA.DIHEDRAL.0>
10.0718

>  <SCORE.INTRA.POLAR>
0

>  <SCORE.INTRA.POLAR.0>
0

>  <SCORE.INTRA.REPUL>
0

>  <SCORE.INTRA.REPUL.0>
0

>  <SCORE.INTRA.SOLV>
1.18693

>  <SCORE.INTRA.SOLV.lig_0>
-48.6963

>  <SCORE.INTRA.VDW>
-2.42934

>  <SCORE.INTRA.VDW.0>
-0.836976

>  <SCORE.INTRA.norm>
-0.182628

>  <SCORE.RESTR>
0.00135487

>  <SCORE.RESTR.CAVITY>
0.00135487

>  <SCORE.RESTR.norm>
4.37054e-05

>  <SCORE.SYSTEM>
0

>  <SCORE.SYSTEM.CONST>
0

>  <SCORE.SYSTEM.DIHEDRAL>
0

>  <SCORE.SYSTEM.SOLV>
0

>  <SCORE.SYSTEM.norm>
0

>  <SCORE.heavy>
31

>  <SCORE.norm>
-0.92282

>  <RMSD>
6.140

$$$$
ligand
 OpenBabel11021811473D
libRbt.so/2013.1/901 2013/11/27
 31 33  0  0  0  0  0  0  0  0999 V2000
   24.1726   32.4663   13.6548 P   0  0  1  0  0  0  0  0  0  0  0  0
   22.8795   32.6821   12.8979 O   0  0  0  0  0  0  0  0  0  0  0  0
   24.2261   31.0229   14.0778 O   0  5  0  0  0  0  0  0  0  0  0  0
   25.3496   32.7756   12.7710 O   0  0  0  0  0  0  0  0  0  0  0  0
   25.4710   33.7232   15.5299 C   0  0  0  0  0  0  0  0  0  0  0  0
   24.2402   33.4768   14.8945 O   0  0  0  0  0  0  0  0  0  0  0  0
   25.2645   34.7480   16.6356 C   0  0  1  0  0  0  0  0  0  0  0  0
   24.5196   34.1474   17.6737 O   0  0  0  0  0  0  0  0  0  0  0  0
   26.6128   35.2397   17.1620 C   0  0  1  0  0  0  0  0  0  0  0  0
   27.3273   35.8698   16.1204 O   0  0  0  0  0  0  0  0  0  0  0  0
   26.5008   36.1534   18.3904 C   0  0  1  0  0  0  0  0  0  0  0  0
   25.7543   35.5112   19.4000 O   0  0  0  0  0  0  0  0  0  0  0  0
   27.8582   36.5489   18.9495 C   0  0  0  0  0  0  0  0  0  0  0  0
   27.5637   34.8710   21.2037 N   0  0  0  0  0  0  0  0  0  0  0  0
   27.4750   34.0090   22.2777 C   0  0  0  0  0  0  0  0  0  0  0  0
   27.4319   32.7897   22.0916 O   0  0  0  0  0  0  0  0  0  0  0  0
   27.4251   34.5191   23.5593 N   0  0  0  0  0  0  0  0  0  0  0  0
   27.4636   35.8847   23.7696 C   0  0  0  0  0  0  0  0  0  0  0  0
   27.5541   36.7494   22.6988 C   0  0  1  0  0  0  0  0  0  0  0  0
   27.4290   36.3521   24.9066 O   0  0  0  0  0  0  0  0  0  0  0  0
   27.6908   38.9791   21.8597 C   0  0  2  0  0  0  0  0  0  0  0  0
   27.5963   38.1109   22.9280 N   0  0  0  0  0  0  0  0  0  0  0  0
   27.7314   40.3525   22.0881 C   0  0  0  0  0  0  0  0  0  0  0  0
   27.8191   41.2366   21.0174 C   0  0  1  0  0  0  0  0  0  0  0  0
   27.8727   42.7159   21.2824 C   0  0  0  0  0  0  0  0  0  0  0  0
   27.8698   40.7386   19.7105 C   0  0  1  0  0  0  0  0  0  0  0  0
   27.9796   41.6661   18.5357 C   0  0  0  0  0  0  0  0  0  0  0  0
   27.8296   39.3656   19.4865 C   0  0  0  0  0  0  0  0  0  0  0  0
   27.7388   38.4773   20.5556 C   0  0  2  0  0  0  0  0  0  0  0  0
   27.6066   36.2408   21.4060 C   0  0  2  0  0  0  0  0  0  0  0  0
   27.6889   37.1065   20.3323 N   0  0  0  0  0  0  0  0  0  0  0  0
  1  2  1  6  0  0  0
  1  3  1  0  0  0  0
  1  4  2  0  0  0  0
  1  6  1  0  0  0  0
  5  6  1  0  0  0  0
  7  5  1  6  0  0  0
  7  8  1  0  0  0  0
  7  9  1  0  0  0  0
  9 10  1  6  0  0  0
  9 11  1  0  0  0  0
 11 12  1  1  0  0  0
 11 13  1  0  0  0  0
 13 31  1  0  0  0  0
 14 15  1  0  0  0  0
 15 16  2  0  0  0  0
 15 17  1  0  0  0  0
 17 18  1  0  0  0  0
 18 20  2  0  0  0  0
 19 18  1  1  0  0  0
 19 22  1  0  0  0  0
 19 30  1  0  0  0  0
 21 23  1  6  0  0  0
 21 29  1  0  0  0  0
 21 22  1  0  0  0  0
 23 24  1  0  0  0  0
 24 25  1  1  0  0  0
 24 26  1  0  0  0  0
 26 27  1  1  0  0  0
 26 28  1  0  0  0  0
 29 28  1  6  0  0  0
 29 31  1  0  0  0  0
 30 14  1  6  0  0  0
 30 31  1  0  0  0  0
M  CHG  1   3  -1
M  END
>  <CHROM.1>
178.09350249,-163.04112694,69.83946116,61.54349298,54.16350487,-164.46969894
-102.60445215,26.52826811,35.98095916,18.90675691,-3.10306857,1.24371519
2.45782938

>  <Name>
ligand

>  <RI>
0

>  <Rbt.Current_Directory>
/home/itssahil/PROJECTS/Mol_Feturizer/New_Systems/rnas/3F2Q

>  <Rbt.Executable>
rbdock ($Id: //depot/dev/client3/rdock/2013.1/src/exe/rbdock.cxx#4 $)

>  <Rbt.Library>
libRbt.so (2013.1, Build901 2013/11/27)

>  <Rbt.Parameter_File>
/export/apps/rDock/src/rDock_2013.1_src/data/scripts/dock_solv.prm

>  <Rbt.Receptor>
prm/pocket_docking_8.prm

>  <SCORE>
-23.485

>  <SCORE.INTER>
-19.4498

>  <SCORE.INTER.CONST>
1

>  <SCORE.INTER.POLAR>
0

>  <SCORE.INTER.ROT>
7

>  <SCORE.INTER.SOLV>
12.7973

>  <SCORE.INTER.VDW>
-25.499

>  <SCORE.INTER.norm>
-0.627414

>  <SCORE.INTRA>
-4.03726

>  <SCORE.INTRA.DIHEDRAL>
-6.82146

>  <SCORE.INTRA.DIHEDRAL.0>
10.0718

>  <SCORE.INTRA.POLAR>
0

>  <SCORE.INTRA.POLAR.0>
0

>  <SCORE.INTRA.REPUL>
0

>  <SCORE.INTRA.REPUL.0>
0

>  <SCORE.INTRA.SOLV>
-0.672453

>  <SCORE.INTRA.SOLV.lig_0>
-48.6963

>  <SCORE.INTRA.VDW>
-0.290304

>  <SCORE.INTRA.VDW.0>
-0.836976

>  <SCORE.INTRA.norm>
-0.130234

>  <SCORE.RESTR>
0.00210216

>  <SCORE.RESTR.CAVITY>
0.00210216

>  <SCORE.RESTR.norm>
6.78116e-05

>  <SCORE.SYSTEM>
0

>  <SCORE.SYSTEM.CONST>
0

>  <SCORE.SYSTEM.DIHEDRAL>
0

>  <SCORE.SYSTEM.SOLV>
0

>  <SCORE.SYSTEM.norm>
0

>  <SCORE.heavy>
31

>  <SCORE.norm>
-0.757581

>  <RMSD>
6.150

$$$$
ligand
 OpenBabel11021811473D
libRbt.so/2013.1/901 2013/11/27
 31 33  0  0  0  0  0  0  0  0999 V2000
   24.8851   42.6654   25.3574 P   0  0  1  0  0  0  0  0  0  0  0  0
   24.7513   41.4527   26.2534 O   0  0  0  0  0  0  0  0  0  0  0  0
   23.5019   43.0891   24.9422 O   0  5  0  0  0  0  0  0  0  0  0  0
   25.5538   43.7890   26.1004 O   0  0  0  0  0  0  0  0  0  0  0  0
   27.1221   41.8154   24.3302 C   0  0  0  0  0  0  0  0  0  0  0  0
   25.8221   42.3065   24.1101 O   0  0  0  0  0  0  0  0  0  0  0  0
   27.7810   41.5311   22.9884 C   0  0  1  0  0  0  0  0  0  0  0  0
   29.0935   41.0654   23.2202 O   0  0  0  0  0  0  0  0  0  0  0  0
   26.9751   40.4903   22.2113 C   0  0  1  0  0  0  0  0  0  0  0  0
   25.7324   41.0406   21.8302 O   0  0  0  0  0  0  0  0  0  0  0  0
   27.7196   39.9093   21.0012 C   0  0  1  0  0  0  0  0  0  0  0  0
   28.2339   40.9549   20.2067 O   0  0  0  0  0  0  0  0  0  0  0  0
   28.8567   38.9841   21.4044 C   0  0  0  0  0  0  0  0  0  0  0  0
   27.4875   38.2920   23.7771 N   0  0  0  0  0  0  0  0  0  0  0  0
   26.7814   38.0183   24.9307 C   0  0  0  0  0  0  0  0  0  0  0  0
   26.6795   38.8755   25.8128 O   0  0  0  0  0  0  0  0  0  0  0  0
   26.1988   36.7780   25.0957 N   0  0  0  0  0  0  0  0  0  0  0  0
   26.3197   35.8131   24.1134 C   0  0  0  0  0  0  0  0  0  0  0  0
   27.0231   36.0835   22.9581 C   0  0  1  0  0  0  0  0  0  0  0  0
   25.7980   34.7071   24.2437 O   0  0  0  0  0  0  0  0  0  0  0  0
   27.8290   35.3768   20.8260 C   0  0  2  0  0  0  0  0  0  0  0  0
   27.1296   35.1089   21.9849 N   0  0  0  0  0  0  0  0  0  0  0  0
   27.9395   34.3951   19.8442 C   0  0  0  0  0  0  0  0  0  0  0  0
   28.6489   34.6526   18.6754 C   0  0  1  0  0  0  0  0  0  0  0  0
   28.7494   33.5852   17.6209 C   0  0  0  0  0  0  0  0  0  0  0  0
   29.2476   35.9040   18.4902 C   0  0  1  0  0  0  0  0  0  0  0  0
   30.0066   36.2171   17.2339 C   0  0  0  0  0  0  0  0  0  0  0  0
   29.1343   36.8825   19.4734 C   0  0  0  0  0  0  0  0  0  0  0  0
   28.4275   36.6275   20.6462 C   0  0  2  0  0  0  0  0  0  0  0  0
   27.6102   37.3318   22.7860 C   0  0  2  0  0  0  0  0  0  0  0  0
   28.3220   37.6007   21.6327 N   0  0  0  0  0  0  0  0  0  0  0  0
  1  2  1  1  0  0  0
  1  3  1  0  0  0  0
  1  4  2  0  0  0  0
  1  6  1  0  0  0  0
  5  6  1  0  0  0  0
  7  5  1  1  0  0  0
  7  8  1  0  0  0  0
  7  9  1  0  0  0  0
  9 10  1  6  0  0  0
  9 11  1  0  0  0  0
 11 12  1  1  0  0  0
 11 13  1  0  0  0  0
 13 31  1  0  0  0  0
 14 15  1  0  0  0  0
 15 16  2  0  0  0  0
 15 17  1  0  0  0  0
 17 18  1  0  0  0  0
 18 20  2  0  0  0  0
 19 18  1  6  0  0  0
 19 22  1  0  0  0  0
 19 30  1  0  0  0  0
 21 23  1  1  0  0  0
 21 29  1  0  0  0  0
 21 22  1  0  0  0  0
 23 24  1  0  0  0  0
 24 25  1  6  0  0  0
 24 26  1  0  0  0  0
 26 27  1  6  0  0  0
 26 28  1  0  0  0  0
 29 28  1  1  0  0  0
 29 31  1  0  0  0  0
 30 14  1  1  0  0  0
 30 31  1  0  0  0  0
M  CHG  1   3  -1
M  END
>  <CHROM.1>
178.87265585,-56.09995499,178.80665628,67.87899735,-50.46939146,85.22263751
98.78214418,27.11421309,38.75863536,22.59938069,-2.33804841,-1.07298512,3.11859332

>  <Name>
ligand

>  <RI>
0

>  <Rbt.Current_Directory>
/home/itssahil/PROJECTS/Mol_Feturizer/New_Systems/rnas/3F2Q

>  <Rbt.Executable>
rbdock ($Id: //depot/dev/client3/rdock/2013.1/src/exe/rbdock.cxx#4 $)

>  <Rbt.Library>
libRbt.so (2013.1, Build901 2013/11/27)

>  <Rbt.Parameter_File>
/export/apps/rDock/src/rDock_2013.1_src/data/scripts/dock_solv.prm

>  <Rbt.Receptor>
prm/blind_docking_80.prm

>  <SCORE>
-29.4438

>  <SCORE.INTER>
-24.819

>  <SCORE.INTER.CONST>
1

>  <SCORE.INTER.POLAR>
0

>  <SCORE.INTER.ROT>
7

>  <SCORE.INTER.SOLV>
15.01

>  <SCORE.INTER.VDW>
-29.816

>  <SCORE.INTER.norm>
-0.800614

>  <SCORE.INTRA>
-4.62474

>  <SCORE.INTRA.DIHEDRAL>
-6.36198

>  <SCORE.INTRA.DIHEDRAL.0>
10.0718

>  <SCORE.INTRA.POLAR>
0

>  <SCORE.INTRA.POLAR.0>
0

>  <SCORE.INTRA.REPUL>
0.00290175

>  <SCORE.INTRA.REPUL.0>
0

>  <SCORE.INTRA.SOLV>
-0.0911342

>  <SCORE.INTRA.SOLV.lig_0>
-48.6963

>  <SCORE.INTRA.VDW>
-1.41269

>  <SCORE.INTRA.VDW.0>
-0.836976

>  <SCORE.INTRA.norm>
-0.149185

>  <SCORE.RESTR>
0

>  <SCORE.RESTR.CAVITY>
0

>  <SCORE.RESTR.norm>
0

>  <SCORE.SYSTEM>
0

>  <SCORE.SYSTEM.CONST>
0

>  <SCORE.SYSTEM.DIHEDRAL>
0

>  <SCORE.SYSTEM.SOLV>
0

>  <SCORE.SYSTEM.norm>
0

>  <SCORE.heavy>
31

>  <SCORE.norm>
-0.9498

>  <RMSD>
6.152

$$$$
ligand
 OpenBabel11021811473D
libRbt.so/2013.1/901 2013/11/27
 31 33  0  0  0  0  0  0  0  0999 V2000
   32.1504   36.7488   17.5112 P   0  0  1  0  0  0  0  0  0  0  0  0
   33.4755   37.2656   18.0295 O   0  0  0  0  0  0  0  0  0  0  0  0
   32.3209   36.4188   16.0527 O   0  5  0  0  0  0  0  0  0  0  0  0
   31.7456   35.5110   18.2632 O   0  0  0  0  0  0  0  0  0  0  0  0
   29.6569   37.4818   17.6745 C   0  0  0  0  0  0  0  0  0  0  0  0
   31.0128   37.8453   17.7681 O   0  0  0  0  0  0  0  0  0  0  0  0
   28.7962   38.7292   17.8101 C   0  0  1  0  0  0  0  0  0  0  0  0
   27.4396   38.3395   17.8450 O   0  0  0  0  0  0  0  0  0  0  0  0
   29.1648   39.4927   19.0820 C   0  0  1  0  0  0  0  0  0  0  0  0
   28.4497   40.7088   19.1292 O   0  0  0  0  0  0  0  0  0  0  0  0
   28.9657   38.6812   20.3698 C   0  0  1  0  0  0  0  0  0  0  0  0
   29.6660   39.2882   21.4328 O   0  0  0  0  0  0  0  0  0  0  0  0
   27.5007   38.5434   20.7523 C   0  0  0  0  0  0  0  0  0  0  0  0
   26.9930   39.5696   23.3354 N   0  0  0  0  0  0  0  0  0  0  0  0
   26.6939   40.1160   24.5668 C   0  0  0  0  0  0  0  0  0  0  0  0
   26.6312   41.3411   24.7023 O   0  0  0  0  0  0  0  0  0  0  0  0
   26.4751   39.2848   25.6468 N   0  0  0  0  0  0  0  0  0  0  0  0
   26.5541   37.9127   25.4996 C   0  0  0  0  0  0  0  0  0  0  0  0
   26.8510   37.3628   24.2700 C   0  0  1  0  0  0  0  0  0  0  0  0
   26.3526   37.1604   26.4514 O   0  0  0  0  0  0  0  0  0  0  0  0
   27.2140   35.4351   22.9110 C   0  0  2  0  0  0  0  0  0  0  0  0
   26.9212   35.9893   24.1402 N   0  0  0  0  0  0  0  0  0  0  0  0
   27.2874   34.0506   22.7781 C   0  0  0  0  0  0  0  0  0  0  0  0
   27.5894   33.4821   21.5447 C   0  0  1  0  0  0  0  0  0  0  0  0
   27.6541   31.9851   21.4163 C   0  0  0  0  0  0  0  0  0  0  0  0
   27.8156   34.3084   20.4380 C   0  0  1  0  0  0  0  0  0  0  0  0
   28.1286   33.7248   19.0912 C   0  0  0  0  0  0  0  0  0  0  0  0
   27.7407   35.6914   20.5748 C   0  0  0  0  0  0  0  0  0  0  0  0
   27.4415   36.2645   21.8086 C   0  0  2  0  0  0  0  0  0  0  0  0
   27.0704   38.1954   23.1785 C   0  0  2  0  0  0  0  0  0  0  0  0
   27.3761   37.6457   21.9483 N   0  0  0  0  0  0  0  0  0  0  0  0
  1  2  1  1  0  0  0
  1  3  1  0  0  0  0
  1  4  2  0  0  0  0
  1  6  1  0  0  0  0
  5  6  1  0  0  0  0
  7  5  1  1  0  0  0
  7  8  1  0  0  0  0
  7  9  1  0  0  0  0
  9 10  1  1  0  0  0
  9 11  1  0  0  0  0
 11 12  1  1  0  0  0
 11 13  1  0  0  0  0
 13 31  1  0  0  0  0
 14 15  1  0  0  0  0
 15 16  2  0  0  0  0
 15 17  1  0  0  0  0
 17 18  1  0  0  0  0
 18 20  2  0  0  0  0
 19 18  1  6  0  0  0
 19 22  1  0  0  0  0
 19 30  1  0  0  0  0
 21 23  1  1  0  0  0
 21 29  1  0  0  0  0
 21 22  1  0  0  0  0
 23 24  1  0  0  0  0
 24 25  1  6  0  0  0
 24 26  1  0  0  0  0
 26 27  1  6  0  0  0
 26 28  1  0  0  0  0
 29 28  1  1  0  0  0
 29 31  1  0  0  0  0
 30 14  1  1  0  0  0
 30 31  1  0  0  0  0
M  CHG  1   3  -1
M  END
>  <CHROM.1>
-173.83308402,-164.66230205,-174.38532847,174.47937650,163.41414465,175.24127617
-79.22356545,28.59967311,37.27555883,20.91425419,-0.21058881,0.98232433,0.08036146

>  <Name>
ligand

>  <RI>
0

>  <Rbt.Current_Directory>
/home/itssahil/PROJECTS/Mol_Feturizer/New_Systems/rnas/3F2Q

>  <Rbt.Executable>
rbdock ($Id: //depot/dev/client3/rdock/2013.1/src/exe/rbdock.cxx#4 $)

>  <Rbt.Library>
libRbt.so (2013.1, Build901 2013/11/27)

>  <Rbt.Parameter_File>
/export/apps/rDock/src/rDock_2013.1_src/data/scripts/dock_solv.prm

>  <Rbt.Receptor>
prm/pocket_docking_6.prm

>  <SCORE>
-31.0876

>  <SCORE.INTER>
-26.1415

>  <SCORE.INTER.CONST>
1

>  <SCORE.INTER.POLAR>
0

>  <SCORE.INTER.ROT>
7

>  <SCORE.INTER.SOLV>
17.6223

>  <SCORE.INTER.VDW>
-31.5684

>  <SCORE.INTER.norm>
-0.843274

>  <SCORE.INTRA>
-4.94614

>  <SCORE.INTRA.DIHEDRAL>
-6.77402

>  <SCORE.INTRA.DIHEDRAL.0>
10.0718

>  <SCORE.INTRA.POLAR>
0

>  <SCORE.INTRA.POLAR.0>
0

>  <SCORE.INTRA.REPUL>
0

>  <SCORE.INTRA.REPUL.0>
0

>  <SCORE.INTRA.SOLV>
-0.433911

>  <SCORE.INTRA.SOLV.lig_0>
-48.6963

>  <SCORE.INTRA.VDW>
-1.34218

>  <SCORE.INTRA.VDW.0>
-0.836976

>  <SCORE.INTRA.norm>
-0.159553

>  <SCORE.RESTR>
0

>  <SCORE.RESTR.CAVITY>
0

>  <SCORE.RESTR.norm>
0

>  <SCORE.SYSTEM>
0

>  <SCORE.SYSTEM.CONST>
0

>  <SCORE.SYSTEM.DIHEDRAL>
0

>  <SCORE.SYSTEM.SOLV>
0

>  <SCORE.SYSTEM.norm>
0

>  <SCORE.heavy>
31

>  <SCORE.norm>
-1.00283

>  <RMSD>
6.154

$$$$
ligand
 OpenBabel11021811473D
libRbt.so/2013.1/901 2013/11/27
 31 33  0  0  0  0  0  0  0  0999 V2000
   24.9942   43.4023   26.0462 P   0  0  1  0  0  0  0  0  0  0  0  0
   25.9002   44.4794   26.6035 O   0  0  0  0  0  0  0  0  0  0  0  0
   24.1666   42.8609   27.1806 O   0  5  0  0  0  0  0  0  0  0  0  0
   24.0886   43.9789   24.9930 O   0  0  0  0  0  0  0  0  0  0  0  0
   26.7166   42.6193   24.2567 C   0  0  0  0  0  0  0  0  0  0  0  0
   25.8807   42.2750   25.3347 O   0  0  0  0  0  0  0  0  0  0  0  0
   27.3853   41.3609   23.7233 C   0  0  1  0  0  0  0  0  0  0  0  0
   26.3835   40.4192   23.4024 O   0  0  0  0  0  0  0  0  0  0  0  0
   28.2246   41.6886   22.4884 C   0  0  1  0  0  0  0  0  0  0  0  0
   29.3516   42.4486   22.8692 O   0  0  0  0  0  0  0  0  0  0  0  0
   28.6367   40.4535   21.6754 C   0  0  1  0  0  0  0  0  0  0  0  0
   29.3012   39.5300   22.5087 O   0  0  0  0  0  0  0  0  0  0  0  0
   27.4514   39.7666   21.0159 C   0  0  0  0  0  0  0  0  0  0  0  0
   28.6823   40.2855   18.5261 N   0  0  0  0  0  0  0  0  0  0  0  0
   29.3226   40.5933   17.3431 C   0  0  0  0  0  0  0  0  0  0  0  0
   29.3997   41.7664   16.9673 O   0  0  0  0  0  0  0  0  0  0  0  0
   29.8671   39.5810   16.5788 N   0  0  0  0  0  0  0  0  0  0  0  0
   29.7736   38.2656   16.9929 C   0  0  0  0  0  0  0  0  0  0  0  0
   29.1361   37.9542   18.1757 C   0  0  1  0  0  0  0  0  0  0  0  0
   30.2622   37.3550   16.3262 O   0  0  0  0  0  0  0  0  0  0  0  0
   28.4228   36.3192   19.7610 C   0  0  2  0  0  0  0  0  0  0  0  0
   29.0563   36.6346   18.5763 N   0  0  0  0  0  0  0  0  0  0  0  0
   28.3393   34.9892   20.1660 C   0  0  0  0  0  0  0  0  0  0  0  0
   27.6961   34.6600   21.3550 C   0  0  1  0  0  0  0  0  0  0  0  0
   27.6243   33.2201   21.7828 C   0  0  0  0  0  0  0  0  0  0  0  0
   27.1369   35.6723   22.1430 C   0  0  1  0  0  0  0  0  0  0  0  0
   26.4499   35.3505   23.4381 C   0  0  0  0  0  0  0  0  0  0  0  0
   27.2230   37.0001   21.7351 C   0  0  0  0  0  0  0  0  0  0  0  0
   27.8635   37.3335   20.5440 C   0  0  2  0  0  0  0  0  0  0  0  0
   28.5876   38.9700   18.9502 C   0  0  2  0  0  0  0  0  0  0  0  0
   27.9416   38.6582   20.1311 N   0  0  0  0  0  0  0  0  0  0  0  0
  1  2  1  1  0  0  0
  1  3  1  0  0  0  0
  1  4  2  0  0  0  0
  1  6  1  0  0  0  0
  5  6  1  0  0  0  0
  7  5  1  6  0  0  0
  7  8  1  0  0  0  0
  7  9  1  0  0  0  0
  9 10  1  1  0  0  0
  9 11  1  0  0  0  0
 11 12  1  1  0  0  0
 11 13  1  0  0  0  0
 13 31  1  0  0  0  0
 14 15  1  0  0  0  0
 15 16  2  0  0  0  0
 15 17  1  0  0  0  0
 17 18  1  0  0  0  0
 18 20  2  0  0  0  0
 19 18  1  1  0  0  0
 19 22  1  0  0  0  0
 19 30  1  0  0  0  0
 21 23  1  6  0  0  0
 21 29  1  0  0  0  0
 21 22  1  0  0  0  0
 23 24  1  0  0  0  0
 24 25  1  1  0  0  0
 24 26  1  0  0  0  0
 26 27  1  1  0  0  0
 26 28  1  0  0  0  0
 29 28  1  6  0  0  0
 29 31  1  0  0  0  0
 30 14  1  6  0  0  0
 30 31  1  0  0  0  0
M  CHG  1   3  -1
M  END
>  <CHROM.1>
-177.08105865,-59.64927465,54.87146320,69.76533943,-54.80202691,174.31184240
102.44526185,27.62290017,39.65960596,21.65219759,2.46196573,1.09632709,0.04687881

>  <Name>
ligand

>  <RI>
0

>  <Rbt.Current_Directory>
/home/itssahil/PROJECTS/Mol_Feturizer/New_Systems/rnas/3F2Q

>  <Rbt.Executable>
rbdock ($Id: //depot/dev/client3/rdock/2013.1/src/exe/rbdock.cxx#4 $)

>  <Rbt.Library>
libRbt.so (2013.1, Build901 2013/11/27)

>  <Rbt.Parameter_File>
/export/apps/rDock/src/rDock_2013.1_src/data/scripts/dock_solv.prm

>  <Rbt.Receptor>
prm/pocket_docking_8.prm

>  <SCORE>
-25.1606

>  <SCORE.INTER>
-20.1686

>  <SCORE.INTER.CONST>
1

>  <SCORE.INTER.POLAR>
0

>  <SCORE.INTER.ROT>
7

>  <SCORE.INTER.SOLV>
17.1545

>  <SCORE.INTER.VDW>
-27.4306

>  <SCORE.INTER.norm>
-0.650601

>  <SCORE.INTRA>
-4.99196

>  <SCORE.INTRA.DIHEDRAL>
-8.17522

>  <SCORE.INTRA.DIHEDRAL.0>
10.0718

>  <SCORE.INTRA.POLAR>
0

>  <SCORE.INTRA.POLAR.0>
0

>  <SCORE.INTRA.REPUL>
0

>  <SCORE.INTRA.REPUL.0>
0

>  <SCORE.INTRA.SOLV>
-1.06957

>  <SCORE.INTRA.SOLV.lig_0>
-48.6963

>  <SCORE.INTRA.VDW>
-0.369559

>  <SCORE.INTRA.VDW.0>
-0.836976

>  <SCORE.INTRA.norm>
-0.161031

>  <SCORE.RESTR>
0

>  <SCORE.RESTR.CAVITY>
0

>  <SCORE.RESTR.norm>
0

>  <SCORE.SYSTEM>
0

>  <SCORE.SYSTEM.CONST>
0

>  <SCORE.SYSTEM.DIHEDRAL>
0

>  <SCORE.SYSTEM.SOLV>
0

>  <SCORE.SYSTEM.norm>
0

>  <SCORE.heavy>
31

>  <SCORE.norm>
-0.811632

>  <RMSD>
6.175

$$$$
ligand
 OpenBabel11021811473D
libRbt.so/2013.1/901 2013/11/27
 31 33  0  0  0  0  0  0  0  0999 V2000
   32.1169   36.7449   17.5509 P   0  0  1  0  0  0  0  0  0  0  0  0
   31.3465   35.7412   18.3820 O   0  0  0  0  0  0  0  0  0  0  0  0
   32.8741   37.6418   18.4929 O   0  5  0  0  0  0  0  0  0  0  0  0
   33.0847   36.0352   16.6446 O   0  0  0  0  0  0  0  0  0  0  0  0
   29.8933   38.0376   17.1430 C   0  0  0  0  0  0  0  0  0  0  0  0
   31.1017   37.5510   16.6117 O   0  0  0  0  0  0  0  0  0  0  0  0
   30.1805   39.2725   17.9844 C   0  0  1  0  0  0  0  0  0  0  0  0
   30.4766   40.3485   17.1196 O   0  0  0  0  0  0  0  0  0  0  0  0
   28.9747   39.6093   18.8615 C   0  0  1  0  0  0  0  0  0  0  0  0
   27.7952   39.5523   18.0882 O   0  0  0  0  0  0  0  0  0  0  0  0
   28.8590   38.7327   20.1164 C   0  0  1  0  0  0  0  0  0  0  0  0
   29.8818   39.0636   21.0291 O   0  0  0  0  0  0  0  0  0  0  0  0
   27.5111   38.8746   20.8053 C   0  0  0  0  0  0  0  0  0  0  0  0
   27.0825   39.7681   23.4513 N   0  0  0  0  0  0  0  0  0  0  0  0
   26.8206   40.2506   24.7174 C   0  0  0  0  0  0  0  0  0  0  0  0
   26.7533   41.4669   24.9153 O   0  0  0  0  0  0  0  0  0  0  0  0
   26.6443   39.3653   25.7617 N   0  0  0  0  0  0  0  0  0  0  0  0
   26.7288   38.0029   25.5443 C   0  0  0  0  0  0  0  0  0  0  0  0
   26.9885   37.5168   24.2799 C   0  0  1  0  0  0  0  0  0  0  0  0
   26.5649   37.2030   26.4640 O   0  0  0  0  0  0  0  0  0  0  0  0
   27.3203   35.6616   22.8161 C   0  0  2  0  0  0  0  0  0  0  0  0
   27.0646   36.1520   24.0803 N   0  0  0  0  0  0  0  0  0  0  0  0
   27.3996   34.2860   22.6127 C   0  0  0  0  0  0  0  0  0  0  0  0
   27.6644   33.7815   21.3434 C   0  0  1  0  0  0  0  0  0  0  0  0
   27.7361   32.2934   21.1391 C   0  0  0  0  0  0  0  0  0  0  0  0
   27.8471   34.6633   20.2720 C   0  0  1  0  0  0  0  0  0  0  0  0
   28.1192   34.1494   18.8884 C   0  0  0  0  0  0  0  0  0  0  0  0
   27.7665   36.0371   20.4794 C   0  0  0  0  0  0  0  0  0  0  0  0
   27.5045   36.5462   21.7491 C   0  0  2  0  0  0  0  0  0  0  0  0
   27.1649   38.4040   23.2243 C   0  0  2  0  0  0  0  0  0  0  0  0
   27.4333   37.9182   21.9590 N   0  0  0  0  0  0  0  0  0  0  0  0
  1  2  1  1  0  0  0
  1  3  1  0  0  0  0
  1  4  2  0  0  0  0
  1  6  1  0  0  0  0
  5  6  1  0  0  0  0
  7  5  1  6  0  0  0
  7  8  1  0  0  0  0
  7  9  1  0  0  0  0
  9 10  1  6  0  0  0
  9 11  1  0  0  0  0
 11 12  1  1  0  0  0
 11 13  1  0  0  0  0
 13 31  1  0  0  0  0
 14 15  1  0  0  0  0
 15 16  2  0  0  0  0
 15 17  1  0  0  0  0
 17 18  1  0  0  0  0
 18 20  2  0  0  0  0
 19 18  1  6  0  0  0
 19 22  1  0  0  0  0
 19 30  1  0  0  0  0
 21 23  1  1  0  0  0
 21 29  1  0  0  0  0
 21 22  1  0  0  0  0
 23 24  1  0  0  0  0
 24 25  1  6  0  0  0
 24 26  1  0  0  0  0
 26 27  1  6  0  0  0
 26 28  1  0  0  0  0
 29 28  1  1  0  0  0
 29 31  1  0  0  0  0
 30 14  1  1  0  0  0
 30 31  1  0  0  0  0
M  CHG  1   3  -1
M  END
>  <CHROM.1>
76.00615380,44.75842030,73.62200008,-46.31963061,70.58015229,175.85564890
-62.28064548,28.77822087,37.45892207,20.79989350,0.18309924,-1.00092556,-3.05041421

>  <Name>
ligand

>  <RI>
0

>  <Rbt.Current_Directory>
/home/itssahil/PROJECTS/Mol_Feturizer/New_Systems/rnas/3F2Q

>  <Rbt.Executable>
rbdock ($Id: //depot/dev/client3/rdock/2013.1/src/exe/rbdock.cxx#4 $)

>  <Rbt.Library>
libRbt.so (2013.1, Build901 2013/11/27)

>  <Rbt.Parameter_File>
/export/apps/rDock/src/rDock_2013.1_src/data/scripts/dock_solv.prm

>  <Rbt.Receptor>
prm/blind_docking_60.prm

>  <SCORE>
-29.7776

>  <SCORE.INTER>
-26.0681

>  <SCORE.INTER.CONST>
1

>  <SCORE.INTER.POLAR>
0

>  <SCORE.INTER.ROT>
7

>  <SCORE.INTER.SOLV>
17.6956

>  <SCORE.INTER.VDW>
-31.5439

>  <SCORE.INTER.norm>
-0.840907

>  <SCORE.INTRA>
-3.70953

>  <SCORE.INTRA.DIHEDRAL>
-5.44501

>  <SCORE.INTRA.DIHEDRAL.0>
10.0718

>  <SCORE.INTRA.POLAR>
0

>  <SCORE.INTRA.POLAR.0>
0

>  <SCORE.INTRA.REPUL>
0

>  <SCORE.INTRA.REPUL.0>
0

>  <SCORE.INTRA.SOLV>
0.179893

>  <SCORE.INTRA.SOLV.lig_0>
-48.6963

>  <SCORE.INTRA.VDW>
-1.07697

>  <SCORE.INTRA.VDW.0>
-0.836976

>  <SCORE.INTRA.norm>
-0.119662

>  <SCORE.RESTR>
0

>  <SCORE.RESTR.CAVITY>
0

>  <SCORE.RESTR.norm>
0

>  <SCORE.SYSTEM>
0

>  <SCORE.SYSTEM.CONST>
0

>  <SCORE.SYSTEM.DIHEDRAL>
0

>  <SCORE.SYSTEM.SOLV>
0

>  <SCORE.SYSTEM.norm>
0

>  <SCORE.heavy>
31

>  <SCORE.norm>
-0.960569

>  <RMSD>
6.185

$$$$
ligand
 OpenBabel11021811473D
libRbt.so/2013.1/901 2013/11/27
 31 33  0  0  0  0  0  0  0  0999 V2000
   31.6599   35.8543   17.5763 P   0  0  1  0  0  0  0  0  0  0  0  0
   32.4847   35.1317   18.6199 O   0  0  0  0  0  0  0  0  0  0  0  0
   32.4961   35.9802   16.3313 O   0  5  0  0  0  0  0  0  0  0  0  0
   30.4124   35.0730   17.2677 O   0  0  0  0  0  0  0  0  0  0  0  0
   30.7038   38.2579   17.2764 C   0  0  0  0  0  0  0  0  0  0  0  0
   31.1929   37.2725   18.1534 O   0  0  0  0  0  0  0  0  0  0  0  0
   30.3914   39.5190   18.0685 C   0  0  1  0  0  0  0  0  0  0  0  0
   30.5103   40.6326   17.2087 O   0  0  0  0  0  0  0  0  0  0  0  0
   28.9804   39.4436   18.6516 C   0  0  1  0  0  0  0  0  0  0  0  0
   28.0801   39.0006   17.6587 O   0  0  0  0  0  0  0  0  0  0  0  0
   28.8798   38.5808   19.9172 C   0  0  1  0  0  0  0  0  0  0  0  0
   29.7044   39.1147   20.9290 O   0  0  0  0  0  0  0  0  0  0  0  0
   27.4558   38.4740   20.4393 C   0  0  0  0  0  0  0  0  0  0  0  0
   27.1893   39.6218   23.0073 N   0  0  0  0  0  0  0  0  0  0  0  0
   27.0055   40.2266   24.2341 C   0  0  0  0  0  0  0  0  0  0  0  0
   26.9593   41.4571   24.3176 O   0  0  0  0  0  0  0  0  0  0  0  0
   26.8837   39.4476   25.3670 N   0  0  0  0  0  0  0  0  0  0  0  0
   26.9447   38.0697   25.2772 C   0  0  0  0  0  0  0  0  0  0  0  0
   27.1264   37.4615   24.0526 C   0  0  1  0  0  0  0  0  0  0  0  0
   26.8286   37.3635   26.2774 O   0  0  0  0  0  0  0  0  0  0  0  0
   27.3578   35.4706   22.7574 C   0  0  2  0  0  0  0  0  0  0  0  0
   27.1802   36.0830   23.9811 N   0  0  0  0  0  0  0  0  0  0  0  0
   27.4145   34.0810   22.6830 C   0  0  0  0  0  0  0  0  0  0  0  0
   27.6009   33.4540   21.4550 C   0  0  1  0  0  0  0  0  0  0  0  0
   27.6489   31.9523   21.3911 C   0  0  0  0  0  0  0  0  0  0  0  0
   27.7275   34.2269   20.2951 C   0  0  1  0  0  0  0  0  0  0  0  0
   27.9144   33.5796   18.9540 C   0  0  0  0  0  0  0  0  0  0  0  0
   27.6698   35.6152   20.3736 C   0  0  0  0  0  0  0  0  0  0  0  0
   27.4863   36.2467   21.6015 C   0  0  2  0  0  0  0  0  0  0  0  0
   27.2478   38.2413   22.9082 C   0  0  2  0  0  0  0  0  0  0  0  0
   27.4381   37.6333   21.6821 N   0  0  0  0  0  0  0  0  0  0  0  0
  1  2  1  1  0  0  0
  1  3  1  0  0  0  0
  1  4  2  0  0  0  0
  1  6  1  0  0  0  0
  5  6  1  0  0  0  0
  7  5  1  6  0  0  0
  7  8  1  0  0  0  0
  7  9  1  0  0  0  0
  9 10  1  6  0  0  0
  9 11  1  0  0  0  0
 11 12  1  1  0  0  0
 11 13  1  0  0  0  0
 13 31  1  0  0  0  0
 14 15  1  0  0  0  0
 15 16  2  0  0  0  0
 15 17  1  0  0  0  0
 17 18  1  0  0  0  0
 18 20  2  0  0  0  0
 19 18  1  6  0  0  0
 19 22  1  0  0  0  0
 19 30  1  0  0  0  0
 21 23  1  1  0  0  0
 21 29  1  0  0  0  0
 21 22  1  0  0  0  0
 23 24  1  0  0  0  0
 24 25  1  6  0  0  0
 24 26  1  0  0  0  0
 26 27  1  6  0  0  0
 26 28  1  0  0  0  0
 29 28  1  1  0  0  0
 29 31  1  0  0  0  0
 30 14  1  1  0  0  0
 30 31  1  0  0  0  0
M  CHG  1   3  -1
M  END
>  <CHROM.1>
-177.52427032,164.37414936,153.04868700,-46.15308305,60.65142676,-179.30205845
-79.09865170,28.74884459,37.16327477,20.68498585,0.26096693,-1.02489952,-3.06687412

>  <Name>
ligand

>  <RI>
0

>  <Rbt.Current_Directory>
/home/itssahil/PROJECTS/Mol_Feturizer/New_Systems/rnas/3F2Q

>  <Rbt.Executable>
rbdock ($Id: //depot/dev/client3/rdock/2013.1/src/exe/rbdock.cxx#4 $)

>  <Rbt.Library>
libRbt.so (2013.1, Build901 2013/11/27)

>  <Rbt.Parameter_File>
/export/apps/rDock/src/rDock_2013.1_src/data/scripts/dock_solv.prm

>  <Rbt.Receptor>
prm/pocket_docking_5.prm

>  <SCORE>
-29.7874

>  <SCORE.INTER>
-25.5595

>  <SCORE.INTER.CONST>
1

>  <SCORE.INTER.POLAR>
0

>  <SCORE.INTER.ROT>
7

>  <SCORE.INTER.SOLV>
13.929

>  <SCORE.INTER.VDW>
-29.9493

>  <SCORE.INTER.norm>
-0.8245

>  <SCORE.INTRA>
-4.31655

>  <SCORE.INTRA.DIHEDRAL>
-5.2746

>  <SCORE.INTRA.DIHEDRAL.0>
10.0718

>  <SCORE.INTRA.POLAR>
0

>  <SCORE.INTRA.POLAR.0>
0

>  <SCORE.INTRA.REPUL>
0

>  <SCORE.INTRA.REPUL.0>
0

>  <SCORE.INTRA.SOLV>
-0.131117

>  <SCORE.INTRA.SOLV.lig_0>
-48.6963

>  <SCORE.INTRA.VDW>
-1.61369

>  <SCORE.INTRA.VDW.0>
-0.836976

>  <SCORE.INTRA.norm>
-0.139244

>  <SCORE.RESTR>
0.0886759

>  <SCORE.RESTR.CAVITY>
0.0886759

>  <SCORE.RESTR.norm>
0.00286051

>  <SCORE.SYSTEM>
0

>  <SCORE.SYSTEM.CONST>
0

>  <SCORE.SYSTEM.DIHEDRAL>
0

>  <SCORE.SYSTEM.SOLV>
0

>  <SCORE.SYSTEM.norm>
0

>  <SCORE.heavy>
31

>  <SCORE.norm>
-0.960883

>  <RMSD>
6.200

$$$$
ligand
 OpenBabel11021811473D
libRbt.so/2013.1/901 2013/11/27
 31 33  0  0  0  0  0  0  0  0999 V2000
   26.8928   34.7101   16.0009 P   0  0  1  0  0  0  0  0  0  0  0  0
   28.3835   34.6892   16.2635 O   0  0  0  0  0  0  0  0  0  0  0  0
   26.5489   36.0425   15.3912 O   0  5  0  0  0  0  0  0  0  0  0  0
   26.5177   33.6088   15.0479 O   0  0  0  0  0  0  0  0  0  0  0  0
   26.4804   33.3508   18.1835 C   0  0  0  0  0  0  0  0  0  0  0  0
   26.1064   34.4342   17.3676 O   0  0  0  0  0  0  0  0  0  0  0  0
   26.6754   33.8449   19.6094 C   0  0  1  0  0  0  0  0  0  0  0  0
   26.9111   32.7311   20.4444 O   0  0  0  0  0  0  0  0  0  0  0  0
   27.8503   34.8204   19.6769 C   0  0  1  0  0  0  0  0  0  0  0  0
   29.0204   34.1868   19.2057 O   0  0  0  0  0  0  0  0  0  0  0  0
   27.5993   36.1427   18.9388 C   0  0  1  0  0  0  0  0  0  0  0  0
   26.4431   36.7667   19.4515 O   0  0  0  0  0  0  0  0  0  0  0  0
   28.7731   37.1031   19.0458 C   0  0  0  0  0  0  0  0  0  0  0  0
   28.8135   39.7346   18.0179 N   0  0  0  0  0  0  0  0  0  0  0  0
   28.8011   40.9940   17.4536 C   0  0  0  0  0  0  0  0  0  0  0  0
   29.2077   41.1600   16.3002 O   0  0  0  0  0  0  0  0  0  0  0  0
   28.3409   42.0668   18.1900 N   0  0  0  0  0  0  0  0  0  0  0  0
   27.8940   41.8848   19.4853 C   0  0  0  0  0  0  0  0  0  0  0  0
   27.9030   40.6273   20.0521 C   0  0  1  0  0  0  0  0  0  0  0  0
   27.4729   42.8304   20.1493 O   0  0  0  0  0  0  0  0  0  0  0  0
   27.4518   39.2063   21.9154 C   0  0  2  0  0  0  0  0  0  0  0  0
   27.4482   40.4633   21.3461 N   0  0  0  0  0  0  0  0  0  0  0  0
   26.9957   39.0387   23.2206 C   0  0  0  0  0  0  0  0  0  0  0  0
   27.0023   37.7767   23.8065 C   0  0  1  0  0  0  0  0  0  0  0  0
   26.4964   37.6116   25.2130 C   0  0  0  0  0  0  0  0  0  0  0  0
   27.4662   36.6767   23.0761 C   0  0  1  0  0  0  0  0  0  0  0  0
   27.4717   35.3005   23.6750 C   0  0  0  0  0  0  0  0  0  0  0  0
   27.9205   36.8483   21.7719 C   0  0  0  0  0  0  0  0  0  0  0  0
   27.9183   38.1105   21.1829 C   0  0  2  0  0  0  0  0  0  0  0  0
   28.3637   39.5430   19.3141 C   0  0  2  0  0  0  0  0  0  0  0  0
   28.3809   38.2844   19.8840 N   0  0  0  0  0  0  0  0  0  0  0  0
  1  2  1  1  0  0  0
  1  3  1  0  0  0  0
  1  4  2  0  0  0  0
  1  6  1  0  0  0  0
  5  6  1  0  0  0  0
  7  5  1  6  0  0  0
  7  8  1  0  0  0  0
  7  9  1  0  0  0  0
  9 10  1  6  0  0  0
  9 11  1  0  0  0  0
 11 12  1  1  0  0  0
 11 13  1  0  0  0  0
 13 31  1  0  0  0  0
 14 15  1  0  0  0  0
 15 16  2  0  0  0  0
 15 17  1  0  0  0  0
 17 18  1  0  0  0  0
 18 20  2  0  0  0  0
 19 18  1  6  0  0  0
 19 22  1  0  0  0  0
 19 30  1  0  0  0  0
 21 23  1  1  0  0  0
 21 29  1  0  0  0  0
 21 22  1  0  0  0  0
 23 24  1  0  0  0  0
 24 25  1  6  0  0  0
 24 26  1  0  0  0  0
 26 27  1  6  0  0  0
 26 28  1  0  0  0  0
 29 28  1  1  0  0  0
 29 31  1  0  0  0  0
 30 14  1  1  0  0  0
 30 31  1  0  0  0  0
M  CHG  1   3  -1
M  END
>  <CHROM.1>
129.21723063,-48.80377187,173.88325526,-57.93241924,56.99652519,-111.84433806
57.01752524,27.55478430,37.22761540,19.37833163,-2.24243041,1.39542412,1.18536830

>  <Name>
ligand

>  <RI>
0

>  <Rbt.Current_Directory>
/home/itssahil/PROJECTS/Mol_Feturizer/New_Systems/rnas/3F2Q

>  <Rbt.Executable>
rbdock ($Id: //depot/dev/client3/rdock/2013.1/src/exe/rbdock.cxx#4 $)

>  <Rbt.Library>
libRbt.so (2013.1, Build901 2013/11/27)

>  <Rbt.Parameter_File>
/export/apps/rDock/src/rDock_2013.1_src/data/scripts/dock_solv.prm

>  <Rbt.Receptor>
prm/pocket_docking_3.prm

>  <SCORE>
-13.6472

>  <SCORE.INTER>
-15.366

>  <SCORE.INTER.CONST>
1

>  <SCORE.INTER.POLAR>
0

>  <SCORE.INTER.ROT>
7

>  <SCORE.INTER.SOLV>
13.229

>  <SCORE.INTER.VDW>
-22.9204

>  <SCORE.INTER.norm>
-0.495679

>  <SCORE.INTRA>
1.65465

>  <SCORE.INTRA.DIHEDRAL>
3.46632

>  <SCORE.INTRA.DIHEDRAL.0>
10.0718

>  <SCORE.INTRA.POLAR>
0

>  <SCORE.INTRA.POLAR.0>
0

>  <SCORE.INTRA.REPUL>
0

>  <SCORE.INTRA.REPUL.0>
0

>  <SCORE.INTRA.SOLV>
1.26149

>  <SCORE.INTRA.SOLV.lig_0>
-48.6963

>  <SCORE.INTRA.VDW>
-0.709255

>  <SCORE.INTRA.VDW.0>
-0.836976

>  <SCORE.INTRA.norm>
0.0533757

>  <SCORE.RESTR>
0.0641835

>  <SCORE.RESTR.CAVITY>
0.0641835

>  <SCORE.RESTR.norm>
0.00207044

>  <SCORE.SYSTEM>
0

>  <SCORE.SYSTEM.CONST>
0

>  <SCORE.SYSTEM.DIHEDRAL>
0

>  <SCORE.SYSTEM.SOLV>
0

>  <SCORE.SYSTEM.norm>
0

>  <SCORE.heavy>
31

>  <SCORE.norm>
-0.440233

>  <RMSD>
6.222

$$$$
ligand
 OpenBabel11021811473D
libRbt.so/2013.1/901 2013/11/27
 31 33  0  0  0  0  0  0  0  0999 V2000
   29.8627   42.6889   25.6263 P   0  0  1  0  0  0  0  0  0  0  0  0
   28.5144   43.3309   25.8739 O   0  0  0  0  0  0  0  0  0  0  0  0
   30.8731   43.3825   26.4999 O   0  5  0  0  0  0  0  0  0  0  0  0
   29.8141   41.2271   25.9761 O   0  0  0  0  0  0  0  0  0  0  0  0
   29.5833   41.9334   23.1498 C   0  0  0  0  0  0  0  0  0  0  0  0
   30.2218   42.7856   24.0692 O   0  0  0  0  0  0  0  0  0  0  0  0
   28.0887   42.2191   23.1606 C   0  0  1  0  0  0  0  0  0  0  0  0
   27.8971   43.6154   23.2440 O   0  0  0  0  0  0  0  0  0  0  0  0
   27.4334   41.6653   21.8955 C   0  0  1  0  0  0  0  0  0  0  0  0
   28.1528   42.0978   20.7606 O   0  0  0  0  0  0  0  0  0  0  0  0
   27.2704   40.1389   21.9011 C   0  0  1  0  0  0  0  0  0  0  0  0
   26.5830   39.7253   20.7413 O   0  0  0  0  0  0  0  0  0  0  0  0
   28.6024   39.4099   21.9777 C   0  0  0  0  0  0  0  0  0  0  0  0
   27.4667   37.6364   23.8614 N   0  0  0  0  0  0  0  0  0  0  0  0
   26.8610   36.8224   24.7968 C   0  0  0  0  0  0  0  0  0  0  0  0
   26.5840   37.2638   25.9155 O   0  0  0  0  0  0  0  0  0  0  0  0
   26.5762   35.5103   24.4768 N   0  0  0  0  0  0  0  0  0  0  0  0
   26.8943   35.0110   23.2278 C   0  0  0  0  0  0  0  0  0  0  0  0
   27.4980   35.8220   22.2895 C   0  0  1  0  0  0  0  0  0  0  0  0
   26.6379   33.8465   22.9265 O   0  0  0  0  0  0  0  0  0  0  0  0
   28.4048   36.1166   20.1019 C   0  0  2  0  0  0  0  0  0  0  0  0
   27.8044   35.3074   21.0447 N   0  0  0  0  0  0  0  0  0  0  0  0
   28.7166   35.5995   18.8468 C   0  0  0  0  0  0  0  0  0  0  0  0
   29.3289   36.4049   17.8917 C   0  0  1  0  0  0  0  0  0  0  0  0
   29.6489   35.8338   16.5378 C   0  0  0  0  0  0  0  0  0  0  0  0
   29.6265   37.7378   18.1977 C   0  0  1  0  0  0  0  0  0  0  0  0
   30.2730   38.6358   17.1837 C   0  0  0  0  0  0  0  0  0  0  0  0
   29.3128   38.2508   19.4528 C   0  0  0  0  0  0  0  0  0  0  0  0
   28.7025   37.4469   20.4127 C   0  0  2  0  0  0  0  0  0  0  0  0
   27.7853   37.1448   22.6059 C   0  0  2  0  0  0  0  0  0  0  0  0
   28.3976   37.9556   21.6695 N   0  0  0  0  0  0  0  0  0  0  0  0
  1  2  1  1  0  0  0
  1  3  1  0  0  0  0
  1  4  2  0  0  0  0
  1  6  1  0  0  0  0
  5  6  1  0  0  0  0
  7  5  1  6  0  0  0
  7  8  1  0  0  0  0
  7  9  1  0  0  0  0
  9 10  1  6  0  0  0
  9 11  1  0  0  0  0
 11 12  1  6  0  0  0
 11 13  1  0  0  0  0
 13 31  1  0  0  0  0
 14 15  1  0  0  0  0
 15 16  2  0  0  0  0
 15 17  1  0  0  0  0
 17 18  1  0  0  0  0
 18 20  2  0  0  0  0
 19 18  1  6  0  0  0
 19 22  1  0  0  0  0
 19 30  1  0  0  0  0
 21 23  1  1  0  0  0
 21 29  1  0  0  0  0
 21 22  1  0  0  0  0
 23 24  1  0  0  0  0
 24 25  1  6  0  0  0
 24 26  1  0  0  0  0
 26 27  1  6  0  0  0
 26 28  1  0  0  0  0
 29 28  1  1  0  0  0
 29 31  1  0  0  0  0
 30 14  1  1  0  0  0
 30 31  1  0  0  0  0
M  CHG  1   3  -1
M  END
>  <CHROM.1>
62.49125372,-75.40412658,40.51962962,-50.20591860,176.22753707,-167.31848992
100.75682883,28.43960459,39.09280198,22.38072094,1.26462360,1.19363535,0.94454798

>  <Name>
ligand

>  <RI>
0

>  <Rbt.Current_Directory>
/home/itssahil/PROJECTS/Mol_Feturizer/New_Systems/rnas/3F2Q

>  <Rbt.Executable>
rbdock ($Id: //depot/dev/client3/rdock/2013.1/src/exe/rbdock.cxx#4 $)

>  <Rbt.Library>
libRbt.so (2013.1, Build901 2013/11/27)

>  <Rbt.Parameter_File>
/export/apps/rDock/src/rDock_2013.1_src/data/scripts/dock_solv.prm

>  <Rbt.Receptor>
prm/pocket_docking_7.prm

>  <SCORE>
-29.3894

>  <SCORE.INTER>
-27.2704

>  <SCORE.INTER.CONST>
1

>  <SCORE.INTER.POLAR>
0

>  <SCORE.INTER.ROT>
7

>  <SCORE.INTER.SOLV>
20.0701

>  <SCORE.INTER.VDW>
-33.1369

>  <SCORE.INTER.norm>
-0.879689

>  <SCORE.INTRA>
-2.11903

>  <SCORE.INTRA.DIHEDRAL>
-6.24387

>  <SCORE.INTRA.DIHEDRAL.0>
10.0718

>  <SCORE.INTRA.POLAR>
0

>  <SCORE.INTRA.POLAR.0>
0

>  <SCORE.INTRA.REPUL>
0

>  <SCORE.INTRA.REPUL.0>
0

>  <SCORE.INTRA.SOLV>
0.504968

>  <SCORE.INTRA.SOLV.lig_0>
-48.6963

>  <SCORE.INTRA.VDW>
0.750419

>  <SCORE.INTRA.VDW.0>
-0.836976

>  <SCORE.INTRA.norm>
-0.0683559

>  <SCORE.RESTR>
0

>  <SCORE.RESTR.CAVITY>
0

>  <SCORE.RESTR.norm>
0

>  <SCORE.SYSTEM>
0

>  <SCORE.SYSTEM.CONST>
0

>  <SCORE.SYSTEM.DIHEDRAL>
0

>  <SCORE.SYSTEM.SOLV>
0

>  <SCORE.SYSTEM.norm>
0

>  <SCORE.heavy>
31

>  <SCORE.norm>
-0.948045

>  <RMSD>
6.246

$$$$
ligand
 OpenBabel11021811473D
libRbt.so/2013.1/901 2013/11/27
 31 33  0  0  0  0  0  0  0  0999 V2000
   25.2307   32.3055   15.1208 P   0  0  1  0  0  0  0  0  0  0  0  0
   25.4883   33.7764   15.3692 O   0  0  0  0  0  0  0  0  0  0  0  0
   23.8210   32.1616   14.6138 O   0  5  0  0  0  0  0  0  0  0  0  0
   26.1919   31.7762   14.0924 O   0  0  0  0  0  0  0  0  0  0  0  0
   24.6626   31.6958   17.5881 C   0  0  0  0  0  0  0  0  0  0  0  0
   25.4894   31.4833   16.4698 O   0  0  0  0  0  0  0  0  0  0  0  0
   24.9456   33.0765   18.1617 C   0  0  1  0  0  0  0  0  0  0  0  0
   23.8878   33.4307   19.0271 O   0  0  0  0  0  0  0  0  0  0  0  0
   26.2748   33.0753   18.9166 C   0  0  1  0  0  0  0  0  0  0  0  0
   27.3211   32.7315   18.0337 O   0  0  0  0  0  0  0  0  0  0  0  0
   26.5733   34.3932   19.6449 C   0  0  1  0  0  0  0  0  0  0  0  0
   25.6034   34.6203   20.6433 O   0  0  0  0  0  0  0  0  0  0  0  0
   27.9549   34.4097   20.2793 C   0  0  0  0  0  0  0  0  0  0  0  0
   29.4532   35.6081   18.2051 N   0  0  0  0  0  0  0  0  0  0  0  0
   30.1372   36.1638   17.1431 C   0  0  0  0  0  0  0  0  0  0  0  0
   30.4311   35.4710   16.1649 O   0  0  0  0  0  0  0  0  0  0  0  0
   30.4985   37.4952   17.1862 N   0  0  0  0  0  0  0  0  0  0  0  0
   30.1788   38.2706   18.2848 C   0  0  0  0  0  0  0  0  0  0  0  0
   29.4936   37.7194   19.3474 C   0  0  1  0  0  0  0  0  0  0  0  0
   30.4867   39.4604   18.3322 O   0  0  0  0  0  0  0  0  0  0  0  0
   28.4894   37.9638   21.4983 C   0  0  2  0  0  0  0  0  0  0  0  0
   29.1782   38.5105   20.4350 N   0  0  0  0  0  0  0  0  0  0  0  0
   28.1721   38.7589   22.5970 C   0  0  0  0  0  0  0  0  0  0  0  0
   27.4844   38.2154   23.6775 C   0  0  1  0  0  0  0  0  0  0  0  0
   27.1403   39.0906   24.8510 C   0  0  0  0  0  0  0  0  0  0  0  0
   27.1103   36.8670   23.6528 C   0  0  1  0  0  0  0  0  0  0  0  0
   26.3546   36.2555   24.7963 C   0  0  0  0  0  0  0  0  0  0  0  0
   27.4287   36.0761   22.5529 C   0  0  0  0  0  0  0  0  0  0  0  0
   28.1197   36.6157   21.4705 C   0  0  2  0  0  0  0  0  0  0  0  0
   29.1256   36.3794   19.3083 C   0  0  2  0  0  0  0  0  0  0  0  0
   28.4465   35.8242   20.3759 N   0  0  0  0  0  0  0  0  0  0  0  0
  1  2  1  1  0  0  0
  1  3  1  0  0  0  0
  1  4  2  0  0  0  0
  1  6  1  0  0  0  0
  5  6  1  0  0  0  0
  7  5  1  1  0  0  0
  7  8  1  0  0  0  0
  7  9  1  0  0  0  0
  9 10  1  6  0  0  0
  9 11  1  0  0  0  0
 11 12  1  1  0  0  0
 11 13  1  0  0  0  0
 13 31  1  0  0  0  0
 14 15  1  0  0  0  0
 15 16  2  0  0  0  0
 15 17  1  0  0  0  0
 17 18  1  0  0  0  0
 18 20  2  0  0  0  0
 19 18  1  6  0  0  0
 19 22  1  0  0  0  0
 19 30  1  0  0  0  0
 21 23  1  1  0  0  0
 21 29  1  0  0  0  0
 21 22  1  0  0  0  0
 23 24  1  0  0  0  0
 24 25  1  6  0  0  0
 24 26  1  0  0  0  0
 26 27  1  6  0  0  0
 26 28  1  0  0  0  0
 29 28  1  1  0  0  0
 29 31  1  0  0  0  0
 30 14  1  1  0  0  0
 30 31  1  0  0  0  0
M  CHG  1   3  -1
M  END
>  <CHROM.1>
-69.94995039,65.22095412,164.03536298,60.45569599,63.38069050,152.96193277
86.47458490,27.29263104,35.23125689,18.98857934,2.01908745,-0.69436549,-1.99413790

>  <Name>
ligand

>  <RI>
0

>  <Rbt.Current_Directory>
/home/itssahil/PROJECTS/Mol_Feturizer/New_Systems/rnas/3F2Q

>  <Rbt.Executable>
rbdock ($Id: //depot/dev/client3/rdock/2013.1/src/exe/rbdock.cxx#4 $)

>  <Rbt.Library>
libRbt.so (2013.1, Build901 2013/11/27)

>  <Rbt.Parameter_File>
/export/apps/rDock/src/rDock_2013.1_src/data/scripts/dock_solv.prm

>  <Rbt.Receptor>
prm/pocket_docking_7.prm

>  <SCORE>
-24.5536

>  <SCORE.INTER>
-20.5988

>  <SCORE.INTER.CONST>
1

>  <SCORE.INTER.POLAR>
0

>  <SCORE.INTER.ROT>
7

>  <SCORE.INTER.SOLV>
11.5301

>  <SCORE.INTER.VDW>
-25.8425

>  <SCORE.INTER.norm>
-0.664477

>  <SCORE.INTRA>
-3.9548

>  <SCORE.INTRA.DIHEDRAL>
-5.25763

>  <SCORE.INTRA.DIHEDRAL.0>
10.0718

>  <SCORE.INTRA.POLAR>
0

>  <SCORE.INTRA.POLAR.0>
0

>  <SCORE.INTRA.REPUL>
0

>  <SCORE.INTRA.REPUL.0>
0

>  <SCORE.INTRA.SOLV>
0.393331

>  <SCORE.INTRA.SOLV.lig_0>
-48.6963

>  <SCORE.INTRA.VDW>
-1.52266

>  <SCORE.INTRA.VDW.0>
-0.836976

>  <SCORE.INTRA.norm>
-0.127574

>  <SCORE.RESTR>
0

>  <SCORE.RESTR.CAVITY>
0

>  <SCORE.RESTR.norm>
0

>  <SCORE.SYSTEM>
0

>  <SCORE.SYSTEM.CONST>
0

>  <SCORE.SYSTEM.DIHEDRAL>
0

>  <SCORE.SYSTEM.SOLV>
0

>  <SCORE.SYSTEM.norm>
0

>  <SCORE.heavy>
31

>  <SCORE.norm>
-0.792051

>  <RMSD>
6.256

$$$$
ligand
 OpenBabel11021811473D
libRbt.so/2013.1/901 2013/11/27
 31 33  0  0  0  0  0  0  0  0999 V2000
   22.1354   33.8715   16.3809 P   0  0  1  0  0  0  0  0  0  0  0  0
   21.2879   32.7380   15.8437 O   0  0  0  0  0  0  0  0  0  0  0  0
   21.3928   35.1584   16.1413 O   0  5  0  0  0  0  0  0  0  0  0  0
   22.3684   33.6920   17.8557 O   0  0  0  0  0  0  0  0  0  0  0  0
   24.4612   32.7878   15.9361 C   0  0  0  0  0  0  0  0  0  0  0  0
   23.5714   33.8455   15.6738 O   0  0  0  0  0  0  0  0  0  0  0  0
   25.1109   33.0085   17.2942 C   0  0  1  0  0  0  0  0  0  0  0  0
   25.8039   31.8337   17.6589 O   0  0  0  0  0  0  0  0  0  0  0  0
   26.0699   34.1975   17.2369 C   0  0  1  0  0  0  0  0  0  0  0  0
   25.3468   35.3767   16.9559 O   0  0  0  0  0  0  0  0  0  0  0  0
   26.9291   34.3602   18.4985 C   0  0  1  0  0  0  0  0  0  0  0  0
   27.7442   33.2228   18.6743 O   0  0  0  0  0  0  0  0  0  0  0  0
   27.8073   35.6003   18.4508 C   0  0  0  0  0  0  0  0  0  0  0  0
   27.5861   34.4248   21.0106 N   0  0  0  0  0  0  0  0  0  0  0  0
   27.5364   33.8073   22.2438 C   0  0  0  0  0  0  0  0  0  0  0  0
   27.5779   32.5764   22.3225 O   0  0  0  0  0  0  0  0  0  0  0  0
   27.4302   34.5740   23.3866 N   0  0  0  0  0  0  0  0  0  0  0  0
   27.3739   35.9524   23.3004 C   0  0  0  0  0  0  0  0  0  0  0  0
   27.4252   36.5733   22.0698 C   0  0  1  0  0  0  0  0  0  0  0  0
   27.2884   36.6477   24.3112 O   0  0  0  0  0  0  0  0  0  0  0  0
   27.4276   38.5772   20.7740 C   0  0  2  0  0  0  0  0  0  0  0  0
   27.3725   37.9520   22.0029 N   0  0  0  0  0  0  0  0  0  0  0  0
   27.3725   39.9671   20.7038 C   0  0  0  0  0  0  0  0  0  0  0  0
   27.4197   40.6068   19.4692 C   0  0  1  0  0  0  0  0  0  0  0  0
   27.3700   42.1087   19.4120 C   0  0  0  0  0  0  0  0  0  0  0  0
   27.5263   39.8465   18.2990 C   0  0  1  0  0  0  0  0  0  0  0  0
   27.5946   40.5079   16.9534 C   0  0  0  0  0  0  0  0  0  0  0  0
   27.5817   38.4579   18.3735 C   0  0  0  0  0  0  0  0  0  0  0  0
   27.5317   37.8136   19.6074 C   0  0  2  0  0  0  0  0  0  0  0  0
   27.5341   35.8059   20.9157 C   0  0  2  0  0  0  0  0  0  0  0  0
   27.5772   36.4266   19.6821 N   0  0  0  0  0  0  0  0  0  0  0  0
  1  2  1  6  0  0  0
  1  3  1  0  0  0  0
  1  4  2  0  0  0  0
  1  6  1  0  0  0  0
  5  6  1  0  0  0  0
  7  5  1  6  0  0  0
  7  8  1  0  0  0  0
  7  9  1  0  0  0  0
  9 10  1  1  0  0  0
  9 11  1  0  0  0  0
 11 12  1  6  0  0  0
 11 13  1  0  0  0  0
 13 31  1  0  0  0  0
 14 15  1  0  0  0  0
 15 16  2  0  0  0  0
 15 17  1  0  0  0  0
 17 18  1  0  0  0  0
 18 20  2  0  0  0  0
 19 18  1  1  0  0  0
 19 22  1  0  0  0  0
 19 30  1  0  0  0  0
 21 23  1  6  0  0  0
 21 29  1  0  0  0  0
 21 22  1  0  0  0  0
 23 24  1  0  0  0  0
 24 25  1  1  0  0  0
 24 26  1  0  0  0  0
 26 27  1  1  0  0  0
 26 28  1  0  0  0  0
 29 28  1  6  0  0  0
 29 31  1  0  0  0  0
 30 14  1  6  0  0  0
 30 31  1  0  0  0  0
M  CHG  1   3  -1
M  END
>  <CHROM.1>
-77.57683490,-67.84950738,169.21912661,63.66774818,61.81845814,126.56766433
-140.57564641,26.01037507,35.68121328,19.07449982,2.81815459,0.93009414,2.74061139

>  <Name>
ligand

>  <RI>
0

>  <Rbt.Current_Directory>
/home/itssahil/PROJECTS/Mol_Feturizer/New_Systems/rnas/3F2Q

>  <Rbt.Executable>
rbdock ($Id: //depot/dev/client3/rdock/2013.1/src/exe/rbdock.cxx#4 $)

>  <Rbt.Library>
libRbt.so (2013.1, Build901 2013/11/27)

>  <Rbt.Parameter_File>
/export/apps/rDock/src/rDock_2013.1_src/data/scripts/dock_solv.prm

>  <Rbt.Receptor>
prm/blind_docking_80.prm

>  <SCORE>
-17.1649

>  <SCORE.INTER>
-17.9386

>  <SCORE.INTER.CONST>
1

>  <SCORE.INTER.POLAR>
0

>  <SCORE.INTER.ROT>
7

>  <SCORE.INTER.SOLV>
16.2263

>  <SCORE.INTER.VDW>
-25.6345

>  <SCORE.INTER.norm>
-0.578664

>  <SCORE.INTRA>
0.77366

>  <SCORE.INTRA.DIHEDRAL>
-1.77921

>  <SCORE.INTRA.DIHEDRAL.0>
10.0718

>  <SCORE.INTRA.POLAR>
0

>  <SCORE.INTRA.POLAR.0>
0

>  <SCORE.INTRA.REPUL>
0

>  <SCORE.INTRA.REPUL.0>
0

>  <SCORE.INTRA.SOLV>
2.19203

>  <SCORE.INTRA.SOLV.lig_0>
-48.6963

>  <SCORE.INTRA.VDW>
0.567248

>  <SCORE.INTRA.VDW.0>
-0.836976

>  <SCORE.INTRA.norm>
0.0249568

>  <SCORE.RESTR>
0

>  <SCORE.RESTR.CAVITY>
0

>  <SCORE.RESTR.norm>
0

>  <SCORE.SYSTEM>
0

>  <SCORE.SYSTEM.CONST>
0

>  <SCORE.SYSTEM.DIHEDRAL>
0

>  <SCORE.SYSTEM.SOLV>
0

>  <SCORE.SYSTEM.norm>
0

>  <SCORE.heavy>
31

>  <SCORE.norm>
-0.553707

>  <RMSD>
6.264

$$$$
ligand
 OpenBabel11021811473D
libRbt.so/2013.1/901 2013/11/27
 31 33  0  0  0  0  0  0  0  0999 V2000
   28.1065   35.3723   14.0865 P   0  0  1  0  0  0  0  0  0  0  0  0
   26.6991   35.9140   13.9544 O   0  0  0  0  0  0  0  0  0  0  0  0
   28.0094   33.9082   14.4212 O   0  5  0  0  0  0  0  0  0  0  0  0
   28.8528   35.5442   12.7922 O   0  0  0  0  0  0  0  0  0  0  0  0
   29.0054   35.7071   16.5076 C   0  0  0  0  0  0  0  0  0  0  0  0
   28.8983   36.2094   15.1978 O   0  0  0  0  0  0  0  0  0  0  0  0
   27.6588   35.8395   17.2035 C   0  0  1  0  0  0  0  0  0  0  0  0
   26.7694   34.8936   16.6488 O   0  0  0  0  0  0  0  0  0  0  0  0
   27.8133   35.6088   18.7067 C   0  0  1  0  0  0  0  0  0  0  0  0
   28.6556   34.4987   18.9319 O   0  0  0  0  0  0  0  0  0  0  0  0
   28.3052   36.8438   19.4744 C   0  0  1  0  0  0  0  0  0  0  0  0
   29.5583   37.2529   18.9732 O   0  0  0  0  0  0  0  0  0  0  0  0
   27.3313   38.0084   19.3923 C   0  0  0  0  0  0  0  0  0  0  0  0
   27.9508   40.7150   18.8689 N   0  0  0  0  0  0  0  0  0  0  0  0
   28.1979   42.0378   18.5632 C   0  0  0  0  0  0  0  0  0  0  0  0
   28.2846   42.3957   17.3852 O   0  0  0  0  0  0  0  0  0  0  0  0
   28.3570   42.9551   19.5822 N   0  0  0  0  0  0  0  0  0  0  0  0
   28.2698   42.5547   20.9023 C   0  0  0  0  0  0  0  0  0  0  0  0
   28.0210   41.2338   21.2119 C   0  0  1  0  0  0  0  0  0  0  0  0
   28.4006   43.3632   21.8198 O   0  0  0  0  0  0  0  0  0  0  0  0
   27.6797   39.5328   22.8504 C   0  0  2  0  0  0  0  0  0  0  0  0
   27.9324   40.8525   22.5366 N   0  0  0  0  0  0  0  0  0  0  0  0
   27.5920   39.1456   24.1854 C   0  0  0  0  0  0  0  0  0  0  0  0
   27.3450   37.8160   24.5124 C   0  0  1  0  0  0  0  0  0  0  0  0
   27.2427   37.4168   25.9587 C   0  0  0  0  0  0  0  0  0  0  0  0
   27.1819   36.8710   23.4931 C   0  0  1  0  0  0  0  0  0  0  0  0
   26.8995   35.4321   23.8137 C   0  0  0  0  0  0  0  0  0  0  0  0
   27.2696   37.2621   22.1604 C   0  0  0  0  0  0  0  0  0  0  0  0
   27.5197   38.5916   21.8289 C   0  0  2  0  0  0  0  0  0  0  0  0
   27.8581   40.3062   20.1893 C   0  0  2  0  0  0  0  0  0  0  0  0
   27.6171   38.9813   20.4985 N   0  0  0  0  0  0  0  0  0  0  0  0
  1  2  1  6  0  0  0
  1  3  1  0  0  0  0
  1  4  2  0  0  0  0
  1  6  1  0  0  0  0
  5  6  1  0  0  0  0
  7  5  1  6  0  0  0
  7  8  1  0  0  0  0
  7  9  1  0  0  0  0
  9 10  1  6  0  0  0
  9 11  1  0  0  0  0
 11 12  1  6  0  0  0
 11 13  1  0  0  0  0
 13 31  1  0  0  0  0
 14 15  1  0  0  0  0
 15 16  2  0  0  0  0
 15 17  1  0  0  0  0
 17 18  1  0  0  0  0
 18 20  2  0  0  0  0
 19 18  1  6  0  0  0
 19 22  1  0  0  0  0
 19 30  1  0  0  0  0
 21 23  1  1  0  0  0
 21 29  1  0  0  0  0
 21 22  1  0  0  0  0
 23 24  1  0  0  0  0
 24 25  1  6  0  0  0
 24 26  1  0  0  0  0
 26 27  1  6  0  0  0
 26 28  1  0  0  0  0
 29 28  1  1  0  0  0
 29 31  1  0  0  0  0
 30 14  1  1  0  0  0
 30 31  1  0  0  0  0
M  CHG  1   3  -1
M  END
>  <CHROM.1>
-73.15912750,98.01325673,71.83476952,-43.55531883,-59.21458211,161.01039106
-61.02745446,27.93848843,37.96003312,19.17009332,-1.24873918,1.44353710,0.72119805

>  <Name>
ligand

>  <RI>
0

>  <Rbt.Current_Directory>
/home/itssahil/PROJECTS/Mol_Feturizer/New_Systems/rnas/3F2Q

>  <Rbt.Executable>
rbdock ($Id: //depot/dev/client3/rdock/2013.1/src/exe/rbdock.cxx#4 $)

>  <Rbt.Library>
libRbt.so (2013.1, Build901 2013/11/27)

>  <Rbt.Parameter_File>
/export/apps/rDock/src/rDock_2013.1_src/data/scripts/dock_solv.prm

>  <Rbt.Receptor>
prm/pocket_docking_7.prm

>  <SCORE>
-22.3326

>  <SCORE.INTER>
-21.0861

>  <SCORE.INTER.CONST>
1

>  <SCORE.INTER.POLAR>
0

>  <SCORE.INTER.ROT>
7

>  <SCORE.INTER.SOLV>
13.0385

>  <SCORE.INTER.VDW>
-26.6702

>  <SCORE.INTER.norm>
-0.680198

>  <SCORE.INTRA>
-1.24648

>  <SCORE.INTRA.DIHEDRAL>
-3.63485

>  <SCORE.INTRA.DIHEDRAL.0>
10.0718

>  <SCORE.INTRA.POLAR>
0

>  <SCORE.INTRA.POLAR.0>
0

>  <SCORE.INTRA.REPUL>
0

>  <SCORE.INTRA.REPUL.0>
0

>  <SCORE.INTRA.SOLV>
1.3032

>  <SCORE.INTRA.SOLV.lig_0>
-48.6963

>  <SCORE.INTRA.VDW>
-0.0806532

>  <SCORE.INTRA.VDW.0>
-0.836976

>  <SCORE.INTRA.norm>
-0.040209

>  <SCORE.RESTR>
0

>  <SCORE.RESTR.CAVITY>
0

>  <SCORE.RESTR.norm>
0

>  <SCORE.SYSTEM>
0

>  <SCORE.SYSTEM.CONST>
0

>  <SCORE.SYSTEM.DIHEDRAL>
0

>  <SCORE.SYSTEM.SOLV>
0

>  <SCORE.SYSTEM.norm>
0

>  <SCORE.heavy>
31

>  <SCORE.norm>
-0.720407

>  <RMSD>
6.291

$$$$
ligand
 OpenBabel11021811473D
libRbt.so/2013.1/901 2013/11/27
 31 33  0  0  0  0  0  0  0  0999 V2000
   27.7398   34.8171   14.0984 P   0  0  1  0  0  0  0  0  0  0  0  0
   27.0077   36.1414   14.1397 O   0  0  0  0  0  0  0  0  0  0  0  0
   27.1334   33.9870   12.9992 O   0  5  0  0  0  0  0  0  0  0  0  0
   29.1998   35.0393   13.8141 O   0  0  0  0  0  0  0  0  0  0  0  0
   28.6060   34.3961   16.5180 C   0  0  0  0  0  0  0  0  0  0  0  0
   27.6447   34.1099   15.5314 O   0  0  0  0  0  0  0  0  0  0  0  0
   28.4147   35.8266   16.9999 C   0  0  1  0  0  0  0  0  0  0  0  0
   27.0408   36.0397   17.2459 O   0  0  0  0  0  0  0  0  0  0  0  0
   29.2285   36.0720   18.2704 C   0  0  1  0  0  0  0  0  0  0  0  0
   30.5824   35.7490   18.0360 O   0  0  0  0  0  0  0  0  0  0  0  0
   29.0859   37.4939   18.8310 C   0  0  1  0  0  0  0  0  0  0  0  0
   29.4725   38.4357   17.8550 O   0  0  0  0  0  0  0  0  0  0  0  0
   27.6687   37.8021   19.2872 C   0  0  0  0  0  0  0  0  0  0  0  0
   28.1225   40.5493   18.8070 N   0  0  0  0  0  0  0  0  0  0  0  0
   28.2967   41.8868   18.5150 C   0  0  0  0  0  0  0  0  0  0  0  0
   28.5216   42.2435   17.3551 O   0  0  0  0  0  0  0  0  0  0  0  0
   28.2275   42.8208   19.5289 N   0  0  0  0  0  0  0  0  0  0  0  0
   27.9853   42.4227   20.8302 C   0  0  0  0  0  0  0  0  0  0  0  0
   27.8087   41.0870   21.1257 C   0  0  1  0  0  0  0  0  0  0  0  0
   27.9121   43.2453   21.7415 O   0  0  0  0  0  0  0  0  0  0  0  0
   27.3817   39.3730   22.7301 C   0  0  2  0  0  0  0  0  0  0  0  0
   27.5628   40.7078   22.4310 N   0  0  0  0  0  0  0  0  0  0  0  0
   27.1356   38.9879   24.0458 C   0  0  0  0  0  0  0  0  0  0  0  0
   26.9591   37.6438   24.3591 C   0  0  1  0  0  0  0  0  0  0  0  0
   26.6835   37.2464   25.7831 C   0  0  0  0  0  0  0  0  0  0  0  0
   27.0267   36.6818   23.3450 C   0  0  1  0  0  0  0  0  0  0  0  0
   26.8256   35.2258   23.6488 C   0  0  0  0  0  0  0  0  0  0  0  0
   27.2722   37.0707   22.0314 C   0  0  0  0  0  0  0  0  0  0  0  0
   27.4524   38.4149   21.7142 C   0  0  2  0  0  0  0  0  0  0  0  0
   27.8755   40.1423   20.1080 C   0  0  2  0  0  0  0  0  0  0  0  0
   27.7071   38.8033   20.4044 N   0  0  0  0  0  0  0  0  0  0  0  0
  1  2  1  1  0  0  0
  1  3  1  0  0  0  0
  1  4  2  0  0  0  0
  1  6  1  0  0  0  0
  5  6  1  0  0  0  0
  7  5  1  1  0  0  0
  7  8  1  0  0  0  0
  7  9  1  0  0  0  0
  9 10  1  6  0  0  0
  9 11  1  0  0  0  0
 11 12  1  6  0  0  0
 11 13  1  0  0  0  0
 13 31  1  0  0  0  0
 14 15  1  0  0  0  0
 15 16  2  0  0  0  0
 15 17  1  0  0  0  0
 17 18  1  0  0  0  0
 18 20  2  0  0  0  0
 19 18  1  6  0  0  0
 19 22  1  0  0  0  0
 19 30  1  0  0  0  0
 21 23  1  1  0  0  0
 21 29  1  0  0  0  0
 21 22  1  0  0  0  0
 23 24  1  0  0  0  0
 24 25  1  6  0  0  0
 24 26  1  0  0  0  0
 26 27  1  6  0  0  0
 26 28  1  0  0  0  0
 29 28  1  1  0  0  0
 29 31  1  0  0  0  0
 30 14  1  1  0  0  0
 30 31  1  0  0  0  0
M  CHG  1   3  -1
M  END
>  <CHROM.1>
69.49745576,-87.73453283,46.47943146,55.13256199,-57.76164712,150.72391464
-106.20591260,27.93545426,37.86616861,19.02994675,1.18091012,-1.40921533
-2.52267576

>  <Name>
ligand

>  <RI>
0

>  <Rbt.Current_Directory>
/home/itssahil/PROJECTS/Mol_Feturizer/New_Systems/rnas/3F2Q

>  <Rbt.Executable>
rbdock ($Id: //depot/dev/client3/rdock/2013.1/src/exe/rbdock.cxx#4 $)

>  <Rbt.Library>
libRbt.so (2013.1, Build901 2013/11/27)

>  <Rbt.Parameter_File>
/export/apps/rDock/src/rDock_2013.1_src/data/scripts/dock_solv.prm

>  <Rbt.Receptor>
prm/pocket_docking_5.prm

>  <SCORE>
-22.3066

>  <SCORE.INTER>
-20.5842

>  <SCORE.INTER.CONST>
1

>  <SCORE.INTER.POLAR>
0

>  <SCORE.INTER.ROT>
7

>  <SCORE.INTER.SOLV>
11.5486

>  <SCORE.INTER.VDW>
-25.839

>  <SCORE.INTER.norm>
-0.664006

>  <SCORE.INTRA>
-1.72237

>  <SCORE.INTRA.DIHEDRAL>
-3.80528

>  <SCORE.INTRA.DIHEDRAL.0>
10.0718

>  <SCORE.INTRA.POLAR>
0

>  <SCORE.INTRA.POLAR.0>
0

>  <SCORE.INTRA.REPUL>
0

>  <SCORE.INTRA.REPUL.0>
0

>  <SCORE.INTRA.SOLV>
0.64688

>  <SCORE.INTRA.SOLV.lig_0>
-48.6963

>  <SCORE.INTRA.VDW>
-0.143173

>  <SCORE.INTRA.VDW.0>
-0.836976

>  <SCORE.INTRA.norm>
-0.0555604

>  <SCORE.RESTR>
0

>  <SCORE.RESTR.CAVITY>
0

>  <SCORE.RESTR.norm>
0

>  <SCORE.SYSTEM>
0

>  <SCORE.SYSTEM.CONST>
0

>  <SCORE.SYSTEM.DIHEDRAL>
0

>  <SCORE.SYSTEM.SOLV>
0

>  <SCORE.SYSTEM.norm>
0

>  <SCORE.heavy>
31

>  <SCORE.norm>
-0.719566

>  <RMSD>
6.295

$$$$
ligand
 OpenBabel11021811473D
libRbt.so/2013.1/901 2013/11/27
 31 33  0  0  0  0  0  0  0  0999 V2000
   31.9552   36.0631   16.6906 P   0  0  1  0  0  0  0  0  0  0  0  0
   33.0482   36.1648   15.6482 O   0  0  0  0  0  0  0  0  0  0  0  0
   30.7572   35.4213   16.0440 O   0  5  0  0  0  0  0  0  0  0  0  0
   32.4164   35.2182   17.8461 O   0  0  0  0  0  0  0  0  0  0  0  0
   30.4728   37.7290   18.0355 C   0  0  0  0  0  0  0  0  0  0  0  0
   31.6369   37.5195   17.2738 O   0  0  0  0  0  0  0  0  0  0  0  0
   30.4050   39.1916   18.4498 C   0  0  1  0  0  0  0  0  0  0  0  0
   30.5389   39.9939   17.2957 O   0  0  0  0  0  0  0  0  0  0  0  0
   29.0787   39.4836   19.1515 C   0  0  1  0  0  0  0  0  0  0  0  0
   28.0065   39.1615   18.2918 O   0  0  0  0  0  0  0  0  0  0  0  0
   28.9308   38.7839   20.5098 C   0  0  1  0  0  0  0  0  0  0  0  0
   29.8759   39.2994   21.4208 O   0  0  0  0  0  0  0  0  0  0  0  0
   27.5369   38.9378   21.0971 C   0  0  0  0  0  0  0  0  0  0  0  0
   26.9103   39.7957   23.7152 N   0  0  0  0  0  0  0  0  0  0  0  0
   26.5545   40.2619   24.9644 C   0  0  0  0  0  0  0  0  0  0  0  0
   26.4860   41.4759   25.1763 O   0  0  0  0  0  0  0  0  0  0  0  0
   26.2856   39.3630   25.9767 N   0  0  0  0  0  0  0  0  0  0  0  0
   26.3710   38.0031   25.7444 C   0  0  0  0  0  0  0  0  0  0  0  0
   26.7245   37.5333   24.4966 C   0  0  1  0  0  0  0  0  0  0  0  0
   26.1253   37.1913   26.6349 O   0  0  0  0  0  0  0  0  0  0  0  0
   27.1496   35.6968   23.0333 C   0  0  2  0  0  0  0  0  0  0  0  0
   26.8002   36.1709   24.2812 N   0  0  0  0  0  0  0  0  0  0  0  0
   27.2286   34.3236   22.8142 C   0  0  0  0  0  0  0  0  0  0  0  0
   27.5873   33.8354   21.5617 C   0  0  1  0  0  0  0  0  0  0  0  0
   27.6575   32.3498   21.3393 C   0  0  0  0  0  0  0  0  0  0  0  0
   27.8648   34.7312   20.5228 C   0  0  1  0  0  0  0  0  0  0  0  0
   28.2397   34.2354   19.1567 C   0  0  0  0  0  0  0  0  0  0  0  0
   27.7840   36.1026   20.7457 C   0  0  0  0  0  0  0  0  0  0  0  0
   27.4282   36.5953   21.9990 C   0  0  2  0  0  0  0  0  0  0  0  0
   26.9945   38.4343   23.4730 C   0  0  2  0  0  0  0  0  0  0  0  0
   27.3567   37.9647   22.2251 N   0  0  0  0  0  0  0  0  0  0  0  0
  1  2  1  6  0  0  0
  1  3  1  0  0  0  0
  1  4  2  0  0  0  0
  1  6  1  0  0  0  0
  5  6  1  0  0  0  0
  7  5  1  6  0  0  0
  7  8  1  0  0  0  0
  7  9  1  0  0  0  0
  9 10  1  6  0  0  0
  9 11  1  0  0  0  0
 11 12  1  1  0  0  0
 11 13  1  0  0  0  0
 13 31  1  0  0  0  0
 14 15  1  0  0  0  0
 15 16  2  0  0  0  0
 15 17  1  0  0  0  0
 17 18  1  0  0  0  0
 18 20  2  0  0  0  0
 19 18  1  6  0  0  0
 19 22  1  0  0  0  0
 19 30  1  0  0  0  0
 21 23  1  1  0  0  0
 21 29  1  0  0  0  0
 21 22  1  0  0  0  0
 23 24  1  0  0  0  0
 24 25  1  6  0  0  0
 24 26  1  0  0  0  0
 26 27  1  6  0  0  0
 26 28  1  0  0  0  0
 29 28  1  1  0  0  0
 29 31  1  0  0  0  0
 30 14  1  1  0  0  0
 30 31  1  0  0  0  0
M  CHG  1   3  -1
M  END
>  <CHROM.1>
-179.37842667,166.24155461,52.83132969,-58.01069724,65.84432272,165.87056949
-61.97493048,28.69584193,37.30437856,20.84268502,0.29124448,-1.00190128,-3.01930780

>  <Name>
ligand

>  <RI>
0

>  <Rbt.Current_Directory>
/home/itssahil/PROJECTS/Mol_Feturizer/New_Systems/rnas/3F2Q

>  <Rbt.Executable>
rbdock ($Id: //depot/dev/client3/rdock/2013.1/src/exe/rbdock.cxx#4 $)

>  <Rbt.Library>
libRbt.so (2013.1, Build901 2013/11/27)

>  <Rbt.Parameter_File>
/export/apps/rDock/src/rDock_2013.1_src/data/scripts/dock_solv.prm

>  <Rbt.Receptor>
prm/blind_docking_100.prm

>  <SCORE>
-32.1062

>  <SCORE.INTER>
-27.23

>  <SCORE.INTER.CONST>
1

>  <SCORE.INTER.POLAR>
0

>  <SCORE.INTER.ROT>
7

>  <SCORE.INTER.SOLV>
15.1401

>  <SCORE.INTER.VDW>
-31.4667

>  <SCORE.INTER.norm>
-0.878388

>  <SCORE.INTRA>
-4.8762

>  <SCORE.INTRA.DIHEDRAL>
-7.42515

>  <SCORE.INTRA.DIHEDRAL.0>
10.0718

>  <SCORE.INTRA.POLAR>
0

>  <SCORE.INTRA.POLAR.0>
0

>  <SCORE.INTRA.REPUL>
0

>  <SCORE.INTRA.REPUL.0>
0

>  <SCORE.INTRA.SOLV>
-0.544773

>  <SCORE.INTRA.SOLV.lig_0>
-48.6963

>  <SCORE.INTRA.VDW>
-0.891238

>  <SCORE.INTRA.VDW.0>
-0.836976

>  <SCORE.INTRA.norm>
-0.157297

>  <SCORE.RESTR>
0

>  <SCORE.RESTR.CAVITY>
0

>  <SCORE.RESTR.norm>
0

>  <SCORE.SYSTEM>
0

>  <SCORE.SYSTEM.CONST>
0

>  <SCORE.SYSTEM.DIHEDRAL>
0

>  <SCORE.SYSTEM.SOLV>
0

>  <SCORE.SYSTEM.norm>
0

>  <SCORE.heavy>
31

>  <SCORE.norm>
-1.03569

>  <RMSD>
6.308

$$$$
ligand
 OpenBabel11021811473D
libRbt.so/2013.1/901 2013/11/27
 31 33  0  0  0  0  0  0  0  0999 V2000
   30.1050   34.3554   14.3440 P   0  0  1  0  0  0  0  0  0  0  0  0
   31.3805   35.0665   13.9454 O   0  0  0  0  0  0  0  0  0  0  0  0
   29.1988   34.3218   13.1428 O   0  5  0  0  0  0  0  0  0  0  0  0
   30.4096   32.9499   14.7840 O   0  0  0  0  0  0  0  0  0  0  0  0
   28.5560   36.1736   15.3815 C   0  0  0  0  0  0  0  0  0  0  0  0
   29.4452   35.1046   15.5954 O   0  0  0  0  0  0  0  0  0  0  0  0
   28.1275   36.7420   16.7264 C   0  0  1  0  0  0  0  0  0  0  0  0
   27.6857   35.6797   17.5448 O   0  0  0  0  0  0  0  0  0  0  0  0
   29.2936   37.4760   17.3882 C   0  0  1  0  0  0  0  0  0  0  0  0
   29.2971   38.8269   16.9790 O   0  0  0  0  0  0  0  0  0  0  0  0
   29.3088   37.3593   18.9187 C   0  0  1  0  0  0  0  0  0  0  0  0
   30.4054   38.0739   19.4438 O   0  0  0  0  0  0  0  0  0  0  0  0
   28.0277   37.8732   19.5561 C   0  0  0  0  0  0  0  0  0  0  0  0
   27.7640   39.5207   21.8364 N   0  0  0  0  0  0  0  0  0  0  0  0
   27.5869   40.3673   22.9117 C   0  0  0  0  0  0  0  0  0  0  0  0
   27.6475   41.5899   22.7542 O   0  0  0  0  0  0  0  0  0  0  0  0
   27.3515   39.8383   24.1647 N   0  0  0  0  0  0  0  0  0  0  0  0
   27.2927   38.4692   24.3451 C   0  0  0  0  0  0  0  0  0  0  0  0
   27.4673   37.6198   23.2725 C   0  0  1  0  0  0  0  0  0  0  0  0
   27.0747   37.9849   25.4544 O   0  0  0  0  0  0  0  0  0  0  0  0
   27.5707   35.4013   22.3994 C   0  0  2  0  0  0  0  0  0  0  0  0
   27.4005   36.2543   23.4706 N   0  0  0  0  0  0  0  0  0  0  0  0
   27.5059   34.0241   22.5969 C   0  0  0  0  0  0  0  0  0  0  0  0
   27.6836   33.1553   21.5248 C   0  0  1  0  0  0  0  0  0  0  0  0
   27.5998   31.6714   21.7537 C   0  0  0  0  0  0  0  0  0  0  0  0
   27.9244   33.6727   20.2469 C   0  0  1  0  0  0  0  0  0  0  0  0
   28.1053   32.7617   19.0679 C   0  0  0  0  0  0  0  0  0  0  0  0
   27.9878   35.0494   20.0536 C   0  0  0  0  0  0  0  0  0  0  0  0
   27.8133   35.9224   21.1248 C   0  0  2  0  0  0  0  0  0  0  0  0
   27.7028   38.1474   22.0081 C   0  0  2  0  0  0  0  0  0  0  0  0
   27.8861   37.2971   20.9345 N   0  0  0  0  0  0  0  0  0  0  0  0
  1  2  1  6  0  0  0
  1  3  1  0  0  0  0
  1  4  2  0  0  0  0
  1  6  1  0  0  0  0
  5  6  1  0  0  0  0
  7  5  1  6  0  0  0
  7  8  1  0  0  0  0
  7  9  1  0  0  0  0
  9 10  1  1  0  0  0
  9 11  1  0  0  0  0
 11 12  1  1  0  0  0
 11 13  1  0  0  0  0
 13 31  1  0  0  0  0
 14 15  1  0  0  0  0
 15 16  2  0  0  0  0
 15 17  1  0  0  0  0
 17 18  1  0  0  0  0
 18 20  2  0  0  0  0
 19 18  1  6  0  0  0
 19 22  1  0  0  0  0
 19 30  1  0  0  0  0
 21 23  1  1  0  0  0
 21 29  1  0  0  0  0
 21 22  1  0  0  0  0
 23 24  1  0  0  0  0
 24 25  1  6  0  0  0
 24 26  1  0  0  0  0
 26 27  1  6  0  0  0
 26 28  1  0  0  0  0
 29 28  1  1  0  0  0
 29 31  1  0  0  0  0
 30 14  1  1  0  0  0
 30 31  1  0  0  0  0
M  CHG  1   3  -1
M  END
>  <CHROM.1>
-177.48386007,87.88447161,-50.73455053,88.96038493,-179.41701849,159.60749841
-60.11256613,28.46668513,36.32773761,19.42347073,-0.60475382,1.27550797,0.22152855

>  <Name>
ligand

>  <RI>
0

>  <Rbt.Current_Directory>
/home/itssahil/PROJECTS/Mol_Feturizer/New_Systems/rnas/3F2Q

>  <Rbt.Executable>
rbdock ($Id: //depot/dev/client3/rdock/2013.1/src/exe/rbdock.cxx#4 $)

>  <Rbt.Library>
libRbt.so (2013.1, Build901 2013/11/27)

>  <Rbt.Parameter_File>
/export/apps/rDock/src/rDock_2013.1_src/data/scripts/dock_solv.prm

>  <Rbt.Receptor>
prm/pocket_docking_5.prm

>  <SCORE>
-20.5342

>  <SCORE.INTER>
-18.2279

>  <SCORE.INTER.CONST>
1

>  <SCORE.INTER.POLAR>
0

>  <SCORE.INTER.ROT>
7

>  <SCORE.INTER.SOLV>
6.77038

>  <SCORE.INTER.VDW>
-22.6754

>  <SCORE.INTER.norm>
-0.587997

>  <SCORE.INTRA>
-2.31115

>  <SCORE.INTRA.DIHEDRAL>
-3.50338

>  <SCORE.INTRA.DIHEDRAL.0>
10.0718

>  <SCORE.INTRA.POLAR>
0

>  <SCORE.INTRA.POLAR.0>
0

>  <SCORE.INTRA.REPUL>
0

>  <SCORE.INTRA.REPUL.0>
0

>  <SCORE.INTRA.SOLV>
-0.811341

>  <SCORE.INTRA.SOLV.lig_0>
-48.6963

>  <SCORE.INTRA.VDW>
-0.153788

>  <SCORE.INTRA.VDW.0>
-0.836976

>  <SCORE.INTRA.norm>
-0.0745532

>  <SCORE.RESTR>
0.00484195

>  <SCORE.RESTR.CAVITY>
0.00484195

>  <SCORE.RESTR.norm>
0.000156192

>  <SCORE.SYSTEM>
0

>  <SCORE.SYSTEM.CONST>
0

>  <SCORE.SYSTEM.DIHEDRAL>
0

>  <SCORE.SYSTEM.SOLV>
0

>  <SCORE.SYSTEM.norm>
0

>  <SCORE.heavy>
31

>  <SCORE.norm>
-0.662394

>  <RMSD>
6.312

$$$$
ligand
 OpenBabel11021811473D
libRbt.so/2013.1/901 2013/11/27
 31 33  0  0  0  0  0  0  0  0999 V2000
   24.4954   34.9294   18.1861 P   0  0  1  0  0  0  0  0  0  0  0  0
   24.1700   34.5479   16.7578 O   0  0  0  0  0  0  0  0  0  0  0  0
   24.0968   36.3672   18.3834 O   0  5  0  0  0  0  0  0  0  0  0  0
   23.7293   34.0588   19.1437 O   0  0  0  0  0  0  0  0  0  0  0  0
   26.6003   35.0053   19.7176 C   0  0  0  0  0  0  0  0  0  0  0  0
   26.0511   34.6753   18.4651 O   0  0  0  0  0  0  0  0  0  0  0  0
   28.0739   34.6265   19.7309 C   0  0  1  0  0  0  0  0  0  0  0  0
   28.1993   33.2875   19.3011 O   0  0  0  0  0  0  0  0  0  0  0  0
   28.8694   35.5572   18.8156 C   0  0  1  0  0  0  0  0  0  0  0  0
   28.2658   35.5975   17.5402 O   0  0  0  0  0  0  0  0  0  0  0  0
   29.0594   36.9700   19.3849 C   0  0  1  0  0  0  0  0  0  0  0  0
   30.1109   37.6227   18.7087 O   0  0  0  0  0  0  0  0  0  0  0  0
   27.7999   37.8153   19.2818 C   0  0  0  0  0  0  0  0  0  0  0  0
   28.1955   40.5743   18.8184 N   0  0  0  0  0  0  0  0  0  0  0  0
   28.3434   41.9164   18.5331 C   0  0  0  0  0  0  0  0  0  0  0  0
   28.5980   42.2806   17.3817 O   0  0  0  0  0  0  0  0  0  0  0  0
   28.2145   42.8469   19.5444 N   0  0  0  0  0  0  0  0  0  0  0  0
   27.9389   42.4407   20.8365 C   0  0  0  0  0  0  0  0  0  0  0  0
   27.7885   41.1003   21.1253 C   0  0  1  0  0  0  0  0  0  0  0  0
   27.8126   43.2598   21.7451 O   0  0  0  0  0  0  0  0  0  0  0  0
   27.3534   39.3732   22.7135 C   0  0  2  0  0  0  0  0  0  0  0  0
   27.5085   40.7128   22.4213 N   0  0  0  0  0  0  0  0  0  0  0  0
   27.0731   38.9799   24.0199 C   0  0  0  0  0  0  0  0  0  0  0  0
   26.9224   37.6312   24.3264 C   0  0  1  0  0  0  0  0  0  0  0  0
   26.6093   37.2245   25.7400 C   0  0  0  0  0  0  0  0  0  0  0  0
   27.0504   36.6726   23.3148 C   0  0  1  0  0  0  0  0  0  0  0  0
   26.8785   35.2114   23.6110 C   0  0  0  0  0  0  0  0  0  0  0  0
   27.3299   37.0698   22.0105 C   0  0  0  0  0  0  0  0  0  0  0  0
   27.4845   38.4188   21.7002 C   0  0  2  0  0  0  0  0  0  0  0  0
   27.9154   40.1591   20.1101 C   0  0  2  0  0  0  0  0  0  0  0  0
   27.7732   38.8157   20.4000 N   0  0  0  0  0  0  0  0  0  0  0  0
  1  2  1  6  0  0  0
  1  3  1  0  0  0  0
  1  4  2  0  0  0  0
  1  6  1  0  0  0  0
  5  6  1  0  0  0  0
  7  5  1  6  0  0  0
  7  8  1  0  0  0  0
  7  9  1  0  0  0  0
  9 10  1  6  0  0  0
  9 11  1  0  0  0  0
 11 12  1  6  0  0  0
 11 13  1  0  0  0  0
 13 31  1  0  0  0  0
 14 15  1  0  0  0  0
 15 16  2  0  0  0  0
 15 17  1  0  0  0  0
 17 18  1  0  0  0  0
 18 20  2  0  0  0  0
 19 18  1  6  0  0  0
 19 22  1  0  0  0  0
 19 30  1  0  0  0  0
 21 23  1  1  0  0  0
 21 29  1  0  0  0  0
 21 22  1  0  0  0  0
 23 24  1  0  0  0  0
 24 25  1  6  0  0  0
 24 26  1  0  0  0  0
 26 27  1  6  0  0  0
 26 28  1  0  0  0  0
 29 28  1  1  0  0  0
 29 31  1  0  0  0  0
 30 14  1  1  0  0  0
 30 31  1  0  0  0  0
M  CHG  1   3  -1
M  END
>  <CHROM.1>
178.28490270,177.65929159,-51.01103283,-51.84363712,162.26709031,150.75805856
-74.16500621,27.15206938,37.71313556,20.18592402,-2.81776089,1.25059121,1.53140006

>  <Name>
ligand

>  <RI>
0

>  <Rbt.Current_Directory>
/home/itssahil/PROJECTS/Mol_Feturizer/New_Systems/rnas/3F2Q

>  <Rbt.Executable>
rbdock ($Id: //depot/dev/client3/rdock/2013.1/src/exe/rbdock.cxx#4 $)

>  <Rbt.Library>
libRbt.so (2013.1, Build901 2013/11/27)

>  <Rbt.Parameter_File>
/export/apps/rDock/src/rDock_2013.1_src/data/scripts/dock_solv.prm

>  <Rbt.Receptor>
prm/pocket_docking_6.prm

>  <SCORE>
-24.8373

>  <SCORE.INTER>
-21.6619

>  <SCORE.INTER.CONST>
1

>  <SCORE.INTER.POLAR>
0

>  <SCORE.INTER.ROT>
7

>  <SCORE.INTER.SOLV>
17.0489

>  <SCORE.INTER.VDW>
-28.3909

>  <SCORE.INTER.norm>
-0.698772

>  <SCORE.INTRA>
-3.17535

>  <SCORE.INTRA.DIHEDRAL>
-4.43961

>  <SCORE.INTRA.DIHEDRAL.0>
10.0718

>  <SCORE.INTRA.POLAR>
0

>  <SCORE.INTRA.POLAR.0>
0

>  <SCORE.INTRA.REPUL>
0

>  <SCORE.INTRA.REPUL.0>
0

>  <SCORE.INTRA.SOLV>
0.0267583

>  <SCORE.INTRA.SOLV.lig_0>
-48.6963

>  <SCORE.INTRA.VDW>
-0.968926

>  <SCORE.INTRA.VDW.0>
-0.836976

>  <SCORE.INTRA.norm>
-0.102431

>  <SCORE.RESTR>
0

>  <SCORE.RESTR.CAVITY>
0

>  <SCORE.RESTR.norm>
0

>  <SCORE.SYSTEM>
0

>  <SCORE.SYSTEM.CONST>
0

>  <SCORE.SYSTEM.DIHEDRAL>
0

>  <SCORE.SYSTEM.SOLV>
0

>  <SCORE.SYSTEM.norm>
0

>  <SCORE.heavy>
31

>  <SCORE.norm>
-0.801203

>  <RMSD>
6.313

$$$$
ligand
 OpenBabel11021811473D
libRbt.so/2013.1/901 2013/11/27
 31 33  0  0  0  0  0  0  0  0999 V2000
   31.8754   35.1416   15.4150 P   0  0  1  0  0  0  0  0  0  0  0  0
   31.8673   36.5947   14.9909 O   0  0  0  0  0  0  0  0  0  0  0  0
   31.7217   34.2977   14.1783 O   0  5  0  0  0  0  0  0  0  0  0  0
   33.1743   34.8061   16.0949 O   0  0  0  0  0  0  0  0  0  0  0  0
   30.5055   35.8142   17.5251 C   0  0  0  0  0  0  0  0  0  0  0  0
   30.7099   34.8910   16.4833 O   0  0  0  0  0  0  0  0  0  0  0  0
   29.7390   37.0127   16.9852 C   0  0  1  0  0  0  0  0  0  0  0  0
   28.3626   36.6985   16.9707 O   0  0  0  0  0  0  0  0  0  0  0  0
   29.9961   38.2429   17.8555 C   0  0  1  0  0  0  0  0  0  0  0  0
   29.2598   39.3389   17.3565 O   0  0  0  0  0  0  0  0  0  0  0  0
   29.7118   38.0156   19.3467 C   0  0  1  0  0  0  0  0  0  0  0  0
   30.3523   39.0100   20.1146 O   0  0  0  0  0  0  0  0  0  0  0  0
   28.2251   38.0207   19.6650 C   0  0  0  0  0  0  0  0  0  0  0  0
   27.8276   39.5652   21.9973 N   0  0  0  0  0  0  0  0  0  0  0  0
   27.5878   40.3637   23.0970 C   0  0  0  0  0  0  0  0  0  0  0  0
   27.6633   41.5916   22.9995 O   0  0  0  0  0  0  0  0  0  0  0  0
   27.2728   39.7803   24.3077 N   0  0  0  0  0  0  0  0  0  0  0  0
   27.1970   38.4049   24.4216 C   0  0  0  0  0  0  0  0  0  0  0  0
   27.4342   37.6036   23.3242 C   0  0  1  0  0  0  0  0  0  0  0  0
   26.9085   37.8725   25.4921 O   0  0  0  0  0  0  0  0  0  0  0  0
   27.5819   35.4261   22.3591 C   0  0  2  0  0  0  0  0  0  0  0  0
   27.3493   36.2311   23.4554 N   0  0  0  0  0  0  0  0  0  0  0  0
   27.4990   34.0419   22.4893 C   0  0  0  0  0  0  0  0  0  0  0  0
   27.7392   33.2212   21.3918 C   0  0  1  0  0  0  0  0  0  0  0  0
   27.6349   31.7291   21.5472 C   0  0  0  0  0  0  0  0  0  0  0  0
   28.0609   33.7940   20.1560 C   0  0  1  0  0  0  0  0  0  0  0  0
   28.3107   32.9360   18.9502 C   0  0  0  0  0  0  0  0  0  0  0  0
   28.1422   35.1776   20.0299 C   0  0  0  0  0  0  0  0  0  0  0  0
   27.9054   36.0025   21.1270 C   0  0  2  0  0  0  0  0  0  0  0  0
   27.7499   38.1861   22.1021 C   0  0  2  0  0  0  0  0  0  0  0  0
   27.9958   37.3839   21.0043 N   0  0  0  0  0  0  0  0  0  0  0  0
  1  2  1  6  0  0  0
  1  3  1  0  0  0  0
  1  4  2  0  0  0  0
  1  6  1  0  0  0  0
  5  6  1  0  0  0  0
  7  5  1  1  0  0  0
  7  8  1  0  0  0  0
  7  9  1  0  0  0  0
  9 10  1  6  0  0  0
  9 11  1  0  0  0  0
 11 12  1  1  0  0  0
 11 13  1  0  0  0  0
 13 31  1  0  0  0  0
 14 15  1  0  0  0  0
 15 16  2  0  0  0  0
 15 17  1  0  0  0  0
 17 18  1  0  0  0  0
 18 20  2  0  0  0  0
 19 18  1  6  0  0  0
 19 22  1  0  0  0  0
 19 30  1  0  0  0  0
 21 23  1  1  0  0  0
 21 29  1  0  0  0  0
 21 22  1  0  0  0  0
 23 24  1  0  0  0  0
 24 25  1  6  0  0  0
 24 26  1  0  0  0  0
 26 27  1  6  0  0  0
 26 28  1  0  0  0  0
 29 28  1  1  0  0  0
 29 31  1  0  0  0  0
 30 14  1  1  0  0  0
 30 31  1  0  0  0  0
M  CHG  1   3  -1
M  END
>  <CHROM.1>
79.02328776,-43.94027775,82.51823213,-178.93732513,161.61840989,162.46740356
-83.46764911,29.02100680,36.64088279,19.78194187,-0.47425430,1.06404136,0.16130107

>  <Name>
ligand

>  <RI>
0

>  <Rbt.Current_Directory>
/home/itssahil/PROJECTS/Mol_Feturizer/New_Systems/rnas/3F2Q

>  <Rbt.Executable>
rbdock ($Id: //depot/dev/client3/rdock/2013.1/src/exe/rbdock.cxx#4 $)

>  <Rbt.Library>
libRbt.so (2013.1, Build901 2013/11/27)

>  <Rbt.Parameter_File>
/export/apps/rDock/src/rDock_2013.1_src/data/scripts/dock_solv.prm

>  <Rbt.Receptor>
prm/pocket_docking_8.prm

>  <SCORE>
-24.882

>  <SCORE.INTER>
-21.4903

>  <SCORE.INTER.CONST>
1

>  <SCORE.INTER.POLAR>
0

>  <SCORE.INTER.ROT>
7

>  <SCORE.INTER.SOLV>
10.538

>  <SCORE.INTER.VDW>
-26.1062

>  <SCORE.INTER.norm>
-0.693235

>  <SCORE.INTRA>
-3.41475

>  <SCORE.INTRA.DIHEDRAL>
-2.68968

>  <SCORE.INTRA.DIHEDRAL.0>
10.0718

>  <SCORE.INTRA.POLAR>
0

>  <SCORE.INTRA.POLAR.0>
0

>  <SCORE.INTRA.REPUL>
0

>  <SCORE.INTRA.REPUL.0>
0

>  <SCORE.INTRA.SOLV>
-0.624033

>  <SCORE.INTRA.SOLV.lig_0>
-48.6963

>  <SCORE.INTRA.VDW>
-1.75789

>  <SCORE.INTRA.VDW.0>
-0.836976

>  <SCORE.INTRA.norm>
-0.110153

>  <SCORE.RESTR>
0.0229925

>  <SCORE.RESTR.CAVITY>
0.0229925

>  <SCORE.RESTR.norm>
0.000741692

>  <SCORE.SYSTEM>
0

>  <SCORE.SYSTEM.CONST>
0

>  <SCORE.SYSTEM.DIHEDRAL>
0

>  <SCORE.SYSTEM.SOLV>
0

>  <SCORE.SYSTEM.norm>
0

>  <SCORE.heavy>
31

>  <SCORE.norm>
-0.802646

>  <RMSD>
6.346

$$$$
ligand
 OpenBabel11021811473D
libRbt.so/2013.1/901 2013/11/27
 31 33  0  0  0  0  0  0  0  0999 V2000
   28.7236   35.1843   13.4765 P   0  0  1  0  0  0  0  0  0  0  0  0
   27.2157   35.0813   13.5611 O   0  0  0  0  0  0  0  0  0  0  0  0
   29.3022   33.8591   13.8939 O   0  5  0  0  0  0  0  0  0  0  0  0
   29.1447   35.4957   12.0667 O   0  0  0  0  0  0  0  0  0  0  0  0
   29.7263   36.1359   15.6835 C   0  0  0  0  0  0  0  0  0  0  0  0
   29.2279   36.3955   14.3937 O   0  0  0  0  0  0  0  0  0  0  0  0
   28.5681   35.7741   16.6016 C   0  0  1  0  0  0  0  0  0  0  0  0
   28.0472   34.5249   16.1998 O   0  0  0  0  0  0  0  0  0  0  0  0
   29.0412   35.7126   18.0539 C   0  0  1  0  0  0  0  0  0  0  0  0
   30.2824   35.0435   18.1202 O   0  0  0  0  0  0  0  0  0  0  0  0
   29.1125   37.0842   18.7395 C   0  0  1  0  0  0  0  0  0  0  0  0
   29.9819   37.9337   18.0245 O   0  0  0  0  0  0  0  0  0  0  0  0
   27.7505   37.7496   18.8569 C   0  0  0  0  0  0  0  0  0  0  0  0
   28.0919   40.5323   18.5056 N   0  0  0  0  0  0  0  0  0  0  0  0
   28.2112   41.8879   18.2765 C   0  0  0  0  0  0  0  0  0  0  0  0
   28.4170   42.3075   17.1342 O   0  0  0  0  0  0  0  0  0  0  0  0
   28.1087   42.7698   19.3334 N   0  0  0  0  0  0  0  0  0  0  0  0
   27.8879   42.3016   20.6150 C   0  0  0  0  0  0  0  0  0  0  0  0
   27.7662   40.9475   20.8477 C   0  0  1  0  0  0  0  0  0  0  0  0
   27.7855   43.0769   21.5642 O   0  0  0  0  0  0  0  0  0  0  0  0
   27.4146   39.1442   22.3706 C   0  0  2  0  0  0  0  0  0  0  0  0
   27.5409   40.4978   22.1342 N   0  0  0  0  0  0  0  0  0  0  0  0
   27.1895   38.6883   23.6672 C   0  0  0  0  0  0  0  0  0  0  0  0
   27.0682   37.3250   23.9173 C   0  0  1  0  0  0  0  0  0  0  0  0
   26.8146   36.8504   25.3215 C   0  0  0  0  0  0  0  0  0  0  0  0
   27.1702   36.4151   22.8588 C   0  0  1  0  0  0  0  0  0  0  0  0
   27.0289   34.9395   23.0943 C   0  0  0  0  0  0  0  0  0  0  0  0
   27.3946   36.8748   21.5645 C   0  0  0  0  0  0  0  0  0  0  0  0
   27.5195   38.2386   21.3106 C   0  0  2  0  0  0  0  0  0  0  0  0
   27.8667   40.0551   19.7865 C   0  0  2  0  0  0  0  0  0  0  0  0
   27.7533   38.6980   20.0199 N   0  0  0  0  0  0  0  0  0  0  0  0
  1  2  1  1  0  0  0
  1  3  1  0  0  0  0
  1  4  2  0  0  0  0
  1  6  1  0  0  0  0
  5  6  1  0  0  0  0
  7  5  1  6  0  0  0
  7  8  1  0  0  0  0
  7  9  1  0  0  0  0
  9 10  1  6  0  0  0
  9 11  1  0  0  0  0
 11 12  1  6  0  0  0
 11 13  1  0  0  0  0
 13 31  1  0  0  0  0
 14 15  1  0  0  0  0
 15 16  2  0  0  0  0
 15 17  1  0  0  0  0
 17 18  1  0  0  0  0
 18 20  2  0  0  0  0
 19 18  1  6  0  0  0
 19 22  1  0  0  0  0
 19 30  1  0  0  0  0
 21 23  1  1  0  0  0
 21 29  1  0  0  0  0
 21 22  1  0  0  0  0
 23 24  1  0  0  0  0
 24 25  1  6  0  0  0
 24 26  1  0  0  0  0
 26 27  1  6  0  0  0
 26 28  1  0  0  0  0
 29 28  1  1  0  0  0
 29 31  1  0  0  0  0
 30 14  1  1  0  0  0
 30 31  1  0  0  0  0
M  CHG  1   3  -1
M  END
>  <CHROM.1>
-73.21371237,98.67596038,68.17474502,-43.10945509,-58.30926289,154.05213313
-83.39581427,28.23054065,37.79109083,18.62563046,-0.51657286,1.39446483,0.02156371

>  <Name>
ligand

>  <RI>
0

>  <Rbt.Current_Directory>
/home/itssahil/PROJECTS/Mol_Feturizer/New_Systems/rnas/3F2Q

>  <Rbt.Executable>
rbdock ($Id: //depot/dev/client3/rdock/2013.1/src/exe/rbdock.cxx#4 $)

>  <Rbt.Library>
libRbt.so (2013.1, Build901 2013/11/27)

>  <Rbt.Parameter_File>
/export/apps/rDock/src/rDock_2013.1_src/data/scripts/dock_solv.prm

>  <Rbt.Receptor>
prm/pocket_docking_8.prm

>  <SCORE>
-21.1827

>  <SCORE.INTER>
-20.0405

>  <SCORE.INTER.CONST>
1

>  <SCORE.INTER.POLAR>
0

>  <SCORE.INTER.ROT>
7

>  <SCORE.INTER.SOLV>
13.153

>  <SCORE.INTER.VDW>
-26.0113

>  <SCORE.INTER.norm>
-0.646468

>  <SCORE.INTRA>
-1.14216

>  <SCORE.INTRA.DIHEDRAL>
-2.72397

>  <SCORE.INTRA.DIHEDRAL.0>
10.0718

>  <SCORE.INTRA.POLAR>
0

>  <SCORE.INTRA.POLAR.0>
0

>  <SCORE.INTRA.REPUL>
0

>  <SCORE.INTRA.REPUL.0>
0

>  <SCORE.INTRA.SOLV>
1.44365

>  <SCORE.INTRA.SOLV.lig_0>
-48.6963

>  <SCORE.INTRA.VDW>
-0.501995

>  <SCORE.INTRA.VDW.0>
-0.836976

>  <SCORE.INTRA.norm>
-0.0368438

>  <SCORE.RESTR>
0

>  <SCORE.RESTR.CAVITY>
0

>  <SCORE.RESTR.norm>
0

>  <SCORE.SYSTEM>
0

>  <SCORE.SYSTEM.CONST>
0

>  <SCORE.SYSTEM.DIHEDRAL>
0

>  <SCORE.SYSTEM.SOLV>
0

>  <SCORE.SYSTEM.norm>
0

>  <SCORE.heavy>
31

>  <SCORE.norm>
-0.683312

>  <RMSD>
6.356

$$$$
ligand
 OpenBabel11021811473D
libRbt.so/2013.1/901 2013/11/27
 31 33  0  0  0  0  0  0  0  0999 V2000
   24.3075   32.2479   18.2171 P   0  0  1  0  0  0  0  0  0  0  0  0
   23.8984   31.0738   19.0807 O   0  0  0  0  0  0  0  0  0  0  0  0
   25.1950   31.7274   17.1187 O   0  5  0  0  0  0  0  0  0  0  0  0
   23.0923   32.8991   17.6163 O   0  0  0  0  0  0  0  0  0  0  0  0
   26.4265   33.5044   19.0614 C   0  0  0  0  0  0  0  0  0  0  0  0
   25.0294   33.3516   19.1245 O   0  0  0  0  0  0  0  0  0  0  0  0
   26.8536   34.5895   20.0389 C   0  0  1  0  0  0  0  0  0  0  0  0
   26.1158   35.7611   19.7628 O   0  0  0  0  0  0  0  0  0  0  0  0
   26.6113   34.1331   21.4775 C   0  0  1  0  0  0  0  0  0  0  0  0
   27.5760   33.1675   21.8375 O   0  0  0  0  0  0  0  0  0  0  0  0
   26.5717   35.2837   22.4928 C   0  0  1  0  0  0  0  0  0  0  0  0
   26.1324   34.8047   23.7444 O   0  0  0  0  0  0  0  0  0  0  0  0
   27.9234   35.9583   22.6637 C   0  0  0  0  0  0  0  0  0  0  0  0
   28.7792   36.6094   20.0509 N   0  0  0  0  0  0  0  0  0  0  0  0
   29.1620   36.8664   18.7501 C   0  0  0  0  0  0  0  0  0  0  0  0
   29.6529   35.9687   18.0599 O   0  0  0  0  0  0  0  0  0  0  0  0
   29.0014   38.1348   18.2299 N   0  0  0  0  0  0  0  0  0  0  0  0
   28.4607   39.1441   19.0042 C   0  0  0  0  0  0  0  0  0  0  0  0
   28.0752   38.8906   20.3041 C   0  0  1  0  0  0  0  0  0  0  0  0
   28.3038   40.2762   18.5502 O   0  0  0  0  0  0  0  0  0  0  0  0
   27.1417   39.6597   22.3612 C   0  0  2  0  0  0  0  0  0  0  0  0
   27.5323   39.9102   21.0617 N   0  0  0  0  0  0  0  0  0  0  0  0
   26.5959   40.6866   23.1277 C   0  0  0  0  0  0  0  0  0  0  0  0
   26.2060   40.4463   24.4415 C   0  0  1  0  0  0  0  0  0  0  0  0
   25.6086   41.5636   25.2517 C   0  0  0  0  0  0  0  0  0  0  0  0
   26.3618   39.1670   24.9871 C   0  0  1  0  0  0  0  0  0  0  0  0
   25.9368   38.8728   26.3962 C   0  0  0  0  0  0  0  0  0  0  0  0
   26.9070   38.1435   24.2176 C   0  0  0  0  0  0  0  0  0  0  0  0
   27.3014   38.3808   22.9030 C   0  0  2  0  0  0  0  0  0  0  0  0
   28.2330   37.6145   20.8323 C   0  0  2  0  0  0  0  0  0  0  0  0
   27.8548   37.3617   22.1370 N   0  0  0  0  0  0  0  0  0  0  0  0
  1  2  1  1  0  0  0
  1  3  1  0  0  0  0
  1  4  2  0  0  0  0
  1  6  1  0  0  0  0
  5  6  1  0  0  0  0
  7  5  1  6  0  0  0
  7  8  1  0  0  0  0
  7  9  1  0  0  0  0
  9 10  1  1  0  0  0
  9 11  1  0  0  0  0
 11 12  1  1  0  0  0
 11 13  1  0  0  0  0
 13 31  1  0  0  0  0
 14 15  1  0  0  0  0
 15 16  2  0  0  0  0
 15 17  1  0  0  0  0
 17 18  1  0  0  0  0
 18 20  2  0  0  0  0
 19 18  1  6  0  0  0
 19 22  1  0  0  0  0
 19 30  1  0  0  0  0
 21 23  1  1  0  0  0
 21 29  1  0  0  0  0
 21 22  1  0  0  0  0
 23 24  1  0  0  0  0
 24 25  1  6  0  0  0
 24 26  1  0  0  0  0
 26 27  1  6  0  0  0
 26 28  1  0  0  0  0
 29 28  1  1  0  0  0
 29 31  1  0  0  0  0
 30 14  1  1  0  0  0
 30 31  1  0  0  0  0
M  CHG  1   3  -1
M  END
>  <CHROM.1>
-178.70171820,105.05623712,-54.12822779,73.64671177,170.53041867,113.11342609
80.21566343,26.70948921,36.32147666,20.86263731,1.96291148,-0.95930539,-2.21462203

>  <Name>
ligand

>  <RI>
0

>  <Rbt.Current_Directory>
/home/itssahil/PROJECTS/Mol_Feturizer/New_Systems/rnas/3F2Q

>  <Rbt.Executable>
rbdock ($Id: //depot/dev/client3/rdock/2013.1/src/exe/rbdock.cxx#4 $)

>  <Rbt.Library>
libRbt.so (2013.1, Build901 2013/11/27)

>  <Rbt.Parameter_File>
/export/apps/rDock/src/rDock_2013.1_src/data/scripts/dock_solv.prm

>  <Rbt.Receptor>
prm/blind_docking_100.prm

>  <SCORE>
-22.9925

>  <SCORE.INTER>
-20.2743

>  <SCORE.INTER.CONST>
1

>  <SCORE.INTER.POLAR>
0

>  <SCORE.INTER.ROT>
7

>  <SCORE.INTER.SOLV>
17.8066

>  <SCORE.INTER.VDW>
-27.7184

>  <SCORE.INTER.norm>
-0.65401

>  <SCORE.INTRA>
-2.74528

>  <SCORE.INTRA.DIHEDRAL>
-0.663768

>  <SCORE.INTRA.DIHEDRAL.0>
10.0718

>  <SCORE.INTRA.POLAR>
0

>  <SCORE.INTRA.POLAR.0>
0

>  <SCORE.INTRA.REPUL>
0

>  <SCORE.INTRA.REPUL.0>
0

>  <SCORE.INTRA.SOLV>
-0.514229

>  <SCORE.INTRA.SOLV.lig_0>
-48.6963

>  <SCORE.INTRA.VDW>
-2.15628

>  <SCORE.INTRA.VDW.0>
-0.836976

>  <SCORE.INTRA.norm>
-0.0885573

>  <SCORE.RESTR>
0.0270913

>  <SCORE.RESTR.CAVITY>
0.0270913

>  <SCORE.RESTR.norm>
0.000873914

>  <SCORE.SYSTEM>
0

>  <SCORE.SYSTEM.CONST>
0

>  <SCORE.SYSTEM.DIHEDRAL>
0

>  <SCORE.SYSTEM.SOLV>
0

>  <SCORE.SYSTEM.norm>
0

>  <SCORE.heavy>
31

>  <SCORE.norm>
-0.741694

>  <RMSD>
6.374

$$$$
ligand
 OpenBabel11021811473D
libRbt.so/2013.1/901 2013/11/27
 31 33  0  0  0  0  0  0  0  0999 V2000
   32.7558   36.7969   18.1065 P   0  0  1  0  0  0  0  0  0  0  0  0
   32.9960   35.3551   18.5001 O   0  0  0  0  0  0  0  0  0  0  0  0
   33.9455   37.6031   18.5535 O   0  5  0  0  0  0  0  0  0  0  0  0
   32.6033   36.9096   16.6146 O   0  0  0  0  0  0  0  0  0  0  0  0
   30.8798   38.5756   18.4205 C   0  0  0  0  0  0  0  0  0  0  0  0
   31.3844   37.3061   18.7567 O   0  0  0  0  0  0  0  0  0  0  0  0
   29.6301   38.8491   19.2444 C   0  0  1  0  0  0  0  0  0  0  0  0
   30.0187   39.1406   20.5701 O   0  0  0  0  0  0  0  0  0  0  0  0
   28.8470   40.0189   18.6486 C   0  0  1  0  0  0  0  0  0  0  0  0
   28.3091   39.6420   17.3991 O   0  0  0  0  0  0  0  0  0  0  0  0
   27.7576   40.5711   19.5784 C   0  0  1  0  0  0  0  0  0  0  0  0
   27.1042   41.6573   18.9603 O   0  0  0  0  0  0  0  0  0  0  0  0
   26.7268   39.5201   19.9585 C   0  0  0  0  0  0  0  0  0  0  0  0
   27.2072   40.9439   22.3513 N   0  0  0  0  0  0  0  0  0  0  0  0
   27.3796   41.6783   23.5069 C   0  0  0  0  0  0  0  0  0  0  0  0
   27.2804   42.9082   23.4800 O   0  0  0  0  0  0  0  0  0  0  0  0
   27.6728   41.0299   24.6896 N   0  0  0  0  0  0  0  0  0  0  0  0
   27.7938   39.6533   24.7202 C   0  0  0  0  0  0  0  0  0  0  0  0
   27.6204   38.9157   23.5677 C   0  0  1  0  0  0  0  0  0  0  0  0
   28.0458   39.0624   25.7689 O   0  0  0  0  0  0  0  0  0  0  0  0
   27.5636   36.7987   22.4679 C   0  0  2  0  0  0  0  0  0  0  0  0
   27.7403   37.5405   23.6179 N   0  0  0  0  0  0  0  0  0  0  0  0
   27.6860   35.4121   22.5155 C   0  0  0  0  0  0  0  0  0  0  0  0
   27.5172   34.6556   21.3601 C   0  0  1  0  0  0  0  0  0  0  0  0
   27.6422   33.1587   21.4314 C   0  0  0  0  0  0  0  0  0  0  0  0
   27.2204   35.2950   20.1510 C   0  0  1  0  0  0  0  0  0  0  0  0
   27.0179   34.5054   18.8908 C   0  0  0  0  0  0  0  0  0  0  0  0
   27.0983   36.6807   20.1077 C   0  0  0  0  0  0  0  0  0  0  0  0
   27.2695   37.4417   21.2617 C   0  0  2  0  0  0  0  0  0  0  0  0
   27.3230   39.5636   22.3741 C   0  0  2  0  0  0  0  0  0  0  0  0
   27.1573   38.8263   21.2174 N   0  0  0  0  0  0  0  0  0  0  0  0
  1  2  1  1  0  0  0
  1  3  1  0  0  0  0
  1  4  2  0  0  0  0
  1  6  1  0  0  0  0
  5  6  1  0  0  0  0
  7  5  1  6  0  0  0
  7  8  1  0  0  0  0
  7  9  1  0  0  0  0
  9 10  1  6  0  0  0
  9 11  1  0  0  0  0
 11 12  1  6  0  0  0
 11 13  1  0  0  0  0
 13 31  1  0  0  0  0
 14 15  1  0  0  0  0
 15 16  2  0  0  0  0
 15 17  1  0  0  0  0
 17 18  1  0  0  0  0
 18 20  2  0  0  0  0
 19 18  1  1  0  0  0
 19 22  1  0  0  0  0
 19 30  1  0  0  0  0
 21 23  1  6  0  0  0
 21 29  1  0  0  0  0
 21 22  1  0  0  0  0
 23 24  1  0  0  0  0
 24 25  1  1  0  0  0
 24 26  1  0  0  0  0
 26 27  1  1  0  0  0
 26 28  1  0  0  0  0
 29 28  1  6  0  0  0
 29 31  1  0  0  0  0
 30 14  1  6  0  0  0
 30 31  1  0  0  0  0
M  CHG  1   3  -1
M  END
>  <CHROM.1>
-176.05802331,-173.52866351,74.36474088,67.99940529,178.99900317,90.63486827
-125.53500582,28.88392957,38.22500314,20.66736544,-0.47671290,0.85147755
0.01294523

>  <Name>
ligand

>  <RI>
0

>  <Rbt.Current_Directory>
/home/itssahil/PROJECTS/Mol_Feturizer/New_Systems/rnas/3F2Q

>  <Rbt.Executable>
rbdock ($Id: //depot/dev/client3/rdock/2013.1/src/exe/rbdock.cxx#4 $)

>  <Rbt.Library>
libRbt.so (2013.1, Build901 2013/11/27)

>  <Rbt.Parameter_File>
/export/apps/rDock/src/rDock_2013.1_src/data/scripts/dock_solv.prm

>  <Rbt.Receptor>
prm/blind_docking_80.prm

>  <SCORE>
-23.3462

>  <SCORE.INTER>
-18.2118

>  <SCORE.INTER.CONST>
1

>  <SCORE.INTER.POLAR>
0

>  <SCORE.INTER.ROT>
7

>  <SCORE.INTER.SOLV>
18.8546

>  <SCORE.INTER.VDW>
-26.6928

>  <SCORE.INTER.norm>
-0.587477

>  <SCORE.INTRA>
-5.13443

>  <SCORE.INTRA.DIHEDRAL>
-4.9717

>  <SCORE.INTRA.DIHEDRAL.0>
10.0718

>  <SCORE.INTRA.POLAR>
0

>  <SCORE.INTRA.POLAR.0>
0

>  <SCORE.INTRA.REPUL>
0

>  <SCORE.INTRA.REPUL.0>
0

>  <SCORE.INTRA.SOLV>
-0.910964

>  <SCORE.INTRA.SOLV.lig_0>
-48.6963

>  <SCORE.INTRA.VDW>
-2.1931

>  <SCORE.INTRA.VDW.0>
-0.836976

>  <SCORE.INTRA.norm>
-0.165627

>  <SCORE.RESTR>
0

>  <SCORE.RESTR.CAVITY>
0

>  <SCORE.RESTR.norm>
0

>  <SCORE.SYSTEM>
0

>  <SCORE.SYSTEM.CONST>
0

>  <SCORE.SYSTEM.DIHEDRAL>
0

>  <SCORE.SYSTEM.SOLV>
0

>  <SCORE.SYSTEM.norm>
0

>  <SCORE.heavy>
31

>  <SCORE.norm>
-0.753104

>  <RMSD>
6.377

$$$$
ligand
 OpenBabel11021811473D
libRbt.so/2013.1/901 2013/11/27
 31 33  0  0  0  0  0  0  0  0999 V2000
   32.4891   36.1850   17.1513 P   0  0  1  0  0  0  0  0  0  0  0  0
   32.9941   36.2208   15.7246 O   0  0  0  0  0  0  0  0  0  0  0  0
   31.3990   35.1504   17.2306 O   0  5  0  0  0  0  0  0  0  0  0  0
   33.6052   35.8129   18.0881 O   0  0  0  0  0  0  0  0  0  0  0  0
   30.8074   37.7878   18.3278 C   0  0  0  0  0  0  0  0  0  0  0  0
   31.9884   37.6447   17.5768 O   0  0  0  0  0  0  0  0  0  0  0  0
   30.5202   39.2688   18.5273 C   0  0  1  0  0  0  0  0  0  0  0  0
   30.5975   39.9158   17.2748 O   0  0  0  0  0  0  0  0  0  0  0  0
   29.1346   39.4624   19.1431 C   0  0  1  0  0  0  0  0  0  0  0  0
   28.1497   38.9738   18.2578 O   0  0  0  0  0  0  0  0  0  0  0  0
   28.9855   38.8394   20.5381 C   0  0  1  0  0  0  0  0  0  0  0  0
   29.8919   39.4443   21.4334 O   0  0  0  0  0  0  0  0  0  0  0  0
   27.5752   38.9738   21.0899 C   0  0  0  0  0  0  0  0  0  0  0  0
   26.9319   39.8284   23.7051 N   0  0  0  0  0  0  0  0  0  0  0  0
   26.5684   40.2934   24.9525 C   0  0  0  0  0  0  0  0  0  0  0  0
   26.5049   41.5071   25.1670 O   0  0  0  0  0  0  0  0  0  0  0  0
   26.2863   39.3933   25.9602 N   0  0  0  0  0  0  0  0  0  0  0  0
   26.3660   38.0336   25.7250 C   0  0  0  0  0  0  0  0  0  0  0  0
   26.7271   37.5651   24.4790 C   0  0  1  0  0  0  0  0  0  0  0  0
   26.1085   37.2209   26.6113 O   0  0  0  0  0  0  0  0  0  0  0  0
   27.1540   35.7300   23.0144 C   0  0  2  0  0  0  0  0  0  0  0  0
   26.7971   36.2028   24.2606 N   0  0  0  0  0  0  0  0  0  0  0  0
   27.2273   34.3570   22.7923 C   0  0  0  0  0  0  0  0  0  0  0  0
   27.5936   33.8701   21.5415 C   0  0  1  0  0  0  0  0  0  0  0  0
   27.6573   32.3847   21.3158 C   0  0  0  0  0  0  0  0  0  0  0  0
   27.8845   34.7670   20.5073 C   0  0  1  0  0  0  0  0  0  0  0  0
   28.2679   34.2726   19.1430 C   0  0  0  0  0  0  0  0  0  0  0  0
   27.8095   36.1382   20.7331 C   0  0  0  0  0  0  0  0  0  0  0  0
   27.4461   36.6296   21.9847 C   0  0  2  0  0  0  0  0  0  0  0  0
   27.0105   38.4672   23.4600 C   0  0  2  0  0  0  0  0  0  0  0  0
   27.3803   37.9988   22.2138 N   0  0  0  0  0  0  0  0  0  0  0  0
  1  2  1  6  0  0  0
  1  3  1  0  0  0  0
  1  4  2  0  0  0  0
  1  6  1  0  0  0  0
  5  6  1  0  0  0  0
  7  5  1  6  0  0  0
  7  8  1  0  0  0  0
  7  9  1  0  0  0  0
  9 10  1  6  0  0  0
  9 11  1  0  0  0  0
 11 12  1  1  0  0  0
 11 13  1  0  0  0  0
 13 31  1  0  0  0  0
 14 15  1  0  0  0  0
 15 16  2  0  0  0  0
 15 17  1  0  0  0  0
 17 18  1  0  0  0  0
 18 20  2  0  0  0  0
 19 18  1  6  0  0  0
 19 22  1  0  0  0  0
 19 30  1  0  0  0  0
 21 23  1  1  0  0  0
 21 29  1  0  0  0  0
 21 22  1  0  0  0  0
 23 24  1  0  0  0  0
 24 25  1  6  0  0  0
 24 26  1  0  0  0  0
 26 27  1  6  0  0  0
 26 28  1  0  0  0  0
 29 28  1  1  0  0  0
 29 31  1  0  0  0  0
 30 14  1  1  0  0  0
 30 31  1  0  0  0  0
M  CHG  1   3  -1
M  END
>  <CHROM.1>
-176.83504249,138.74715287,49.83623240,-62.78193144,61.58699886,162.19917122
-63.48244906,28.83972096,37.35027352,20.94059760,0.27797712,-0.93927735,-3.01929424

>  <Name>
ligand

>  <RI>
0

>  <Rbt.Current_Directory>
/home/itssahil/PROJECTS/Mol_Feturizer/New_Systems/rnas/3F2Q

>  <Rbt.Executable>
rbdock ($Id: //depot/dev/client3/rdock/2013.1/src/exe/rbdock.cxx#4 $)

>  <Rbt.Library>
libRbt.so (2013.1, Build901 2013/11/27)

>  <Rbt.Parameter_File>
/export/apps/rDock/src/rDock_2013.1_src/data/scripts/dock_solv.prm

>  <Rbt.Receptor>
prm/blind_docking_80.prm

>  <SCORE>
-32.3548

>  <SCORE.INTER>
-28.5223

>  <SCORE.INTER.CONST>
1

>  <SCORE.INTER.POLAR>
0

>  <SCORE.INTER.ROT>
7

>  <SCORE.INTER.SOLV>
17.7517

>  <SCORE.INTER.VDW>
-33.1987

>  <SCORE.INTER.norm>
-0.920073

>  <SCORE.INTRA>
-3.83254

>  <SCORE.INTRA.DIHEDRAL>
-5.32762

>  <SCORE.INTRA.DIHEDRAL.0>
10.0718

>  <SCORE.INTRA.POLAR>
0

>  <SCORE.INTRA.POLAR.0>
0

>  <SCORE.INTRA.REPUL>
0

>  <SCORE.INTRA.REPUL.0>
0

>  <SCORE.INTRA.SOLV>
-0.689634

>  <SCORE.INTRA.SOLV.lig_0>
-48.6963

>  <SCORE.INTRA.VDW>
-0.823907

>  <SCORE.INTRA.VDW.0>
-0.836976

>  <SCORE.INTRA.norm>
-0.12363

>  <SCORE.RESTR>
0

>  <SCORE.RESTR.CAVITY>
0

>  <SCORE.RESTR.norm>
0

>  <SCORE.SYSTEM>
0

>  <SCORE.SYSTEM.CONST>
0

>  <SCORE.SYSTEM.DIHEDRAL>
0

>  <SCORE.SYSTEM.SOLV>
0

>  <SCORE.SYSTEM.norm>
0

>  <SCORE.heavy>
31

>  <SCORE.norm>
-1.0437

>  <RMSD>
6.382

$$$$
ligand
 OpenBabel11021811473D
libRbt.so/2013.1/901 2013/11/27
 31 33  0  0  0  0  0  0  0  0999 V2000
   32.8321   37.0922   18.0142 P   0  0  1  0  0  0  0  0  0  0  0  0
   34.2081   37.5144   18.4829 O   0  0  0  0  0  0  0  0  0  0  0  0
   32.8574   37.0186   16.5112 O   0  5  0  0  0  0  0  0  0  0  0  0
   32.4826   35.7426   18.5783 O   0  0  0  0  0  0  0  0  0  0  0  0
   30.3906   37.9798   18.1960 C   0  0  0  0  0  0  0  0  0  0  0  0
   31.7406   38.1260   18.5642 O   0  0  0  0  0  0  0  0  0  0  0  0
   29.5675   39.0607   18.8813 C   0  0  1  0  0  0  0  0  0  0  0  0
   28.2200   38.9217   18.4835 O   0  0  0  0  0  0  0  0  0  0  0  0
   29.6907   38.9388   20.4001 C   0  0  1  0  0  0  0  0  0  0  0  0
   30.9764   39.3561   20.8066 O   0  0  0  0  0  0  0  0  0  0  0  0
   28.5944   39.6869   21.1713 C   0  0  1  0  0  0  0  0  0  0  0  0
   28.4332   40.9833   20.6401 O   0  0  0  0  0  0  0  0  0  0  0  0
   27.2576   38.9636   21.1348 C   0  0  0  0  0  0  0  0  0  0  0  0
   26.7083   39.8302   23.7674 N   0  0  0  0  0  0  0  0  0  0  0  0
   26.3868   40.2977   25.0254 C   0  0  0  0  0  0  0  0  0  0  0  0
   26.2687   41.5100   25.2243 O   0  0  0  0  0  0  0  0  0  0  0  0
   26.2080   39.4024   26.0606 N   0  0  0  0  0  0  0  0  0  0  0  0
   26.3492   38.0449   25.8423 C   0  0  0  0  0  0  0  0  0  0  0  0
   26.6686   37.5736   24.5860 C   0  0  1  0  0  0  0  0  0  0  0  0
   26.1838   37.2358   26.7537 O   0  0  0  0  0  0  0  0  0  0  0  0
   27.1165   35.7376   23.1289 C   0  0  2  0  0  0  0  0  0  0  0  0
   26.8010   36.2133   24.3851 N   0  0  0  0  0  0  0  0  0  0  0  0
   27.2526   34.3667   22.9244 C   0  0  0  0  0  0  0  0  0  0  0  0
   27.5780   33.8773   21.6632 C   0  0  1  0  0  0  0  0  0  0  0  0
   27.7105   32.3935   21.4573 C   0  0  0  0  0  0  0  0  0  0  0  0
   27.7643   34.7694   20.6012 C   0  0  1  0  0  0  0  0  0  0  0  0
   28.1011   34.2714   19.2260 C   0  0  0  0  0  0  0  0  0  0  0  0
   27.6268   36.1386   20.8095 C   0  0  0  0  0  0  0  0  0  0  0  0
   27.3041   36.6326   22.0712 C   0  0  2  0  0  0  0  0  0  0  0  0
   26.8479   38.4709   23.5394 C   0  0  2  0  0  0  0  0  0  0  0  0
   27.1761   38.0003   22.2824 N   0  0  0  0  0  0  0  0  0  0  0  0
  1  2  1  1  0  0  0
  1  3  1  0  0  0  0
  1  4  2  0  0  0  0
  1  6  1  0  0  0  0
  5  6  1  0  0  0  0
  7  5  1  6  0  0  0
  7  8  1  0  0  0  0
  7  9  1  0  0  0  0
  9 10  1  1  0  0  0
  9 11  1  0  0  0  0
 11 12  1  6  0  0  0
 11 13  1  0  0  0  0
 13 31  1  0  0  0  0
 14 15  1  0  0  0  0
 15 16  2  0  0  0  0
 15 17  1  0  0  0  0
 17 18  1  0  0  0  0
 18 20  2  0  0  0  0
 19 18  1  6  0  0  0
 19 22  1  0  0  0  0
 19 30  1  0  0  0  0
 21 23  1  1  0  0  0
 21 29  1  0  0  0  0
 21 22  1  0  0  0  0
 23 24  1  0  0  0  0
 24 25  1  6  0  0  0
 24 26  1  0  0  0  0
 26 27  1  6  0  0  0
 26 28  1  0  0  0  0
 29 28  1  1  0  0  0
 29 31  1  0  0  0  0
 30 14  1  1  0  0  0
 30 31  1  0  0  0  0
M  CHG  1   3  -1
M  END
>  <CHROM.1>
178.45048523,176.56247777,178.80666164,72.22767727,-46.36471916,88.78669098
-105.74932297,28.77885579,37.58578021,21.34660254,-0.27131638,0.84725044
0.18556873

>  <Name>
ligand

>  <RI>
0

>  <Rbt.Current_Directory>
/home/itssahil/PROJECTS/Mol_Feturizer/New_Systems/rnas/3F2Q

>  <Rbt.Executable>
rbdock ($Id: //depot/dev/client3/rdock/2013.1/src/exe/rbdock.cxx#4 $)

>  <Rbt.Library>
libRbt.so (2013.1, Build901 2013/11/27)

>  <Rbt.Parameter_File>
/export/apps/rDock/src/rDock_2013.1_src/data/scripts/dock_solv.prm

>  <Rbt.Receptor>
prm/blind_docking_100.prm

>  <SCORE>
-31.0126

>  <SCORE.INTER>
-26.9657

>  <SCORE.INTER.CONST>
1

>  <SCORE.INTER.POLAR>
0

>  <SCORE.INTER.ROT>
7

>  <SCORE.INTER.SOLV>
22.5135

>  <SCORE.INTER.VDW>
-33.7483

>  <SCORE.INTER.norm>
-0.869861

>  <SCORE.INTRA>
-4.04693

>  <SCORE.INTRA.DIHEDRAL>
-4.95454

>  <SCORE.INTRA.DIHEDRAL.0>
10.0718

>  <SCORE.INTRA.POLAR>
0

>  <SCORE.INTRA.POLAR.0>
0

>  <SCORE.INTRA.REPUL>
0

>  <SCORE.INTRA.REPUL.0>
0

>  <SCORE.INTRA.SOLV>
-0.238683

>  <SCORE.INTRA.SOLV.lig_0>
-48.6963

>  <SCORE.INTRA.VDW>
-1.45032

>  <SCORE.INTRA.VDW.0>
-0.836976

>  <SCORE.INTRA.norm>
-0.130546

>  <SCORE.RESTR>
0

>  <SCORE.RESTR.CAVITY>
0

>  <SCORE.RESTR.norm>
0

>  <SCORE.SYSTEM>
0

>  <SCORE.SYSTEM.CONST>
0

>  <SCORE.SYSTEM.DIHEDRAL>
0

>  <SCORE.SYSTEM.SOLV>
0

>  <SCORE.SYSTEM.norm>
0

>  <SCORE.heavy>
31

>  <SCORE.norm>
-1.00041

>  <RMSD>
6.383

$$$$
ligand
 OpenBabel11021811473D
libRbt.so/2013.1/901 2013/11/27
 31 33  0  0  0  0  0  0  0  0999 V2000
   32.3568   36.5129   17.1581 P   0  0  1  0  0  0  0  0  0  0  0  0
   32.9850   36.2318   15.8098 O   0  0  0  0  0  0  0  0  0  0  0  0
   32.0256   35.1920   17.7989 O   0  5  0  0  0  0  0  0  0  0  0  0
   33.3193   37.2690   18.0321 O   0  0  0  0  0  0  0  0  0  0  0  0
   30.2198   37.2426   15.8611 C   0  0  0  0  0  0  0  0  0  0  0  0
   31.0703   37.4454   16.9633 O   0  0  0  0  0  0  0  0  0  0  0  0
   29.0693   36.3387   16.2792 C   0  0  1  0  0  0  0  0  0  0  0  0
   29.5485   35.4076   17.2262 O   0  0  0  0  0  0  0  0  0  0  0  0
   27.9321   37.1684   16.8751 C   0  0  1  0  0  0  0  0  0  0  0  0
   26.7588   36.3864   16.9410 O   0  0  0  0  0  0  0  0  0  0  0  0
   28.2663   37.7846   18.2407 C   0  0  1  0  0  0  0  0  0  0  0  0
   29.1958   38.8329   18.0799 O   0  0  0  0  0  0  0  0  0  0  0  0
   27.0356   38.3153   18.9586 C   0  0  0  0  0  0  0  0  0  0  0  0
   27.7718   41.0431   18.9290 N   0  0  0  0  0  0  0  0  0  0  0  0
   28.0727   42.3886   18.8703 C   0  0  0  0  0  0  0  0  0  0  0  0
   28.0974   42.9710   17.7824 O   0  0  0  0  0  0  0  0  0  0  0  0
   28.3551   43.0757   20.0336 N   0  0  0  0  0  0  0  0  0  0  0  0
   28.3375   42.4233   21.2520 C   0  0  0  0  0  0  0  0  0  0  0  0
   28.0353   41.0790   21.3150 C   0  0  1  0  0  0  0  0  0  0  0  0
   28.5783   43.0255   22.2970 O   0  0  0  0  0  0  0  0  0  0  0  0
   27.7120   39.1005   22.6095 C   0  0  2  0  0  0  0  0  0  0  0  0
   28.0177   40.4444   22.5419 N   0  0  0  0  0  0  0  0  0  0  0  0
   27.6955   38.4580   23.8452 C   0  0  0  0  0  0  0  0  0  0  0  0
   27.3959   37.1016   23.9234 C   0  0  1  0  0  0  0  0  0  0  0  0
   27.3721   36.4258   25.2666 C   0  0  0  0  0  0  0  0  0  0  0  0
   27.1078   36.3875   22.7548 C   0  0  1  0  0  0  0  0  0  0  0  0
   26.7662   34.9270   22.8081 C   0  0  0  0  0  0  0  0  0  0  0  0
   27.1247   37.0334   21.5221 C   0  0  0  0  0  0  0  0  0  0  0  0
   27.4271   38.3905   21.4393 C   0  0  2  0  0  0  0  0  0  0  0  0
   27.7482   40.3826   20.1466 C   0  0  2  0  0  0  0  0  0  0  0  0
   27.4536   39.0341   20.2078 N   0  0  0  0  0  0  0  0  0  0  0  0
  1  2  1  6  0  0  0
  1  3  1  0  0  0  0
  1  4  2  0  0  0  0
  1  6  1  0  0  0  0
  5  6  1  0  0  0  0
  7  5  1  1  0  0  0
  7  8  1  0  0  0  0
  7  9  1  0  0  0  0
  9 10  1  1  0  0  0
  9 11  1  0  0  0  0
 11 12  1  6  0  0  0
 11 13  1  0  0  0  0
 13 31  1  0  0  0  0
 14 15  1  0  0  0  0
 15 16  2  0  0  0  0
 15 17  1  0  0  0  0
 17 18  1  0  0  0  0
 18 20  2  0  0  0  0
 19 18  1  1  0  0  0
 19 22  1  0  0  0  0
 19 30  1  0  0  0  0
 21 23  1  6  0  0  0
 21 29  1  0  0  0  0
 21 22  1  0  0  0  0
 23 24  1  0  0  0  0
 24 25  1  1  0  0  0
 24 26  1  0  0  0  0
 26 27  1  1  0  0  0
 26 28  1  0  0  0  0
 29 28  1  6  0  0  0
 29 31  1  0  0  0  0
 30 14  1  6  0  0  0
 30 31  1  0  0  0  0
M  CHG  1   3  -1
M  END
>  <CHROM.1>
94.57467430,38.58730410,-34.23957861,165.13714208,71.82952693,-173.78824414
-97.17634066,28.91134544,38.37991929,19.50900596,0.23351748,-1.03819884,2.85446191

>  <Name>
ligand

>  <RI>
0

>  <Rbt.Current_Directory>
/home/itssahil/PROJECTS/Mol_Feturizer/New_Systems/rnas/3F2Q

>  <Rbt.Executable>
rbdock ($Id: //depot/dev/client3/rdock/2013.1/src/exe/rbdock.cxx#4 $)

>  <Rbt.Library>
libRbt.so (2013.1, Build901 2013/11/27)

>  <Rbt.Parameter_File>
/export/apps/rDock/src/rDock_2013.1_src/data/scripts/dock_solv.prm

>  <Rbt.Receptor>
prm/blind_docking_80.prm

>  <SCORE>
-19.1757

>  <SCORE.INTER>
-19.6338

>  <SCORE.INTER.CONST>
1

>  <SCORE.INTER.POLAR>
0

>  <SCORE.INTER.ROT>
7

>  <SCORE.INTER.SOLV>
17.0343

>  <SCORE.INTER.VDW>
-27.034

>  <SCORE.INTER.norm>
-0.633349

>  <SCORE.INTRA>
0.458176

>  <SCORE.INTRA.DIHEDRAL>
-0.0110309

>  <SCORE.INTRA.DIHEDRAL.0>
10.0718

>  <SCORE.INTRA.POLAR>
0

>  <SCORE.INTRA.POLAR.0>
0

>  <SCORE.INTRA.REPUL>
0

>  <SCORE.INTRA.REPUL.0>
0

>  <SCORE.INTRA.SOLV>
1.80063

>  <SCORE.INTRA.SOLV.lig_0>
-48.6963

>  <SCORE.INTRA.VDW>
-0.436622

>  <SCORE.INTRA.VDW.0>
-0.836976

>  <SCORE.INTRA.norm>
0.0147799

>  <SCORE.RESTR>
0

>  <SCORE.RESTR.CAVITY>
0

>  <SCORE.RESTR.norm>
0

>  <SCORE.SYSTEM>
0

>  <SCORE.SYSTEM.CONST>
0

>  <SCORE.SYSTEM.DIHEDRAL>
0

>  <SCORE.SYSTEM.SOLV>
0

>  <SCORE.SYSTEM.norm>
0

>  <SCORE.heavy>
31

>  <SCORE.norm>
-0.61857

>  <RMSD>
6.394

$$$$
ligand
 OpenBabel11021811473D
libRbt.so/2013.1/901 2013/11/27
 31 33  0  0  0  0  0  0  0  0999 V2000
   27.2231   34.3914   14.2398 P   0  0  1  0  0  0  0  0  0  0  0  0
   27.2945   35.1774   12.9480 O   0  0  0  0  0  0  0  0  0  0  0  0
   25.7810   34.0399   14.4885 O   0  5  0  0  0  0  0  0  0  0  0  0
   28.0360   33.1311   14.1266 O   0  0  0  0  0  0  0  0  0  0  0  0
   29.2606   35.3601   15.5404 C   0  0  0  0  0  0  0  0  0  0  0  0
   27.8623   35.2554   15.4262 O   0  0  0  0  0  0  0  0  0  0  0  0
   29.5976   36.3054   16.6842 C   0  0  1  0  0  0  0  0  0  0  0  0
   29.1715   37.6054   16.3354 O   0  0  0  0  0  0  0  0  0  0  0  0
   28.9121   35.8467   17.9712 C   0  0  1  0  0  0  0  0  0  0  0  0
   29.4805   34.6289   18.4031 O   0  0  0  0  0  0  0  0  0  0  0  0
   28.9323   36.8969   19.0906 C   0  0  1  0  0  0  0  0  0  0  0  0
   30.1747   37.5642   19.1004 O   0  0  0  0  0  0  0  0  0  0  0  0
   27.8175   37.9211   18.9504 C   0  0  0  0  0  0  0  0  0  0  0  0
   28.1786   40.7148   18.7314 N   0  0  0  0  0  0  0  0  0  0  0  0
   28.3085   42.0787   18.5660 C   0  0  0  0  0  0  0  0  0  0  0  0
   28.5374   42.5482   17.4478 O   0  0  0  0  0  0  0  0  0  0  0  0
   28.1906   42.9127   19.6596 N   0  0  0  0  0  0  0  0  0  0  0  0
   27.9437   42.3884   20.9144 C   0  0  0  0  0  0  0  0  0  0  0  0
   27.8113   41.0259   21.0835 C   0  0  1  0  0  0  0  0  0  0  0  0
   27.8274   43.1207   21.8956 O   0  0  0  0  0  0  0  0  0  0  0  0
   27.4230   39.1578   22.5167 C   0  0  2  0  0  0  0  0  0  0  0  0
   27.5600   40.5200   22.3441 N   0  0  0  0  0  0  0  0  0  0  0  0
   27.1716   38.6452   23.7871 C   0  0  0  0  0  0  0  0  0  0  0  0
   27.0393   37.2727   23.9731 C   0  0  1  0  0  0  0  0  0  0  0  0
   26.7574   36.7367   25.3495 C   0  0  0  0  0  0  0  0  0  0  0  0
   27.1567   36.4108   22.8766 C   0  0  1  0  0  0  0  0  0  0  0  0
   27.0040   34.9270   23.0426 C   0  0  0  0  0  0  0  0  0  0  0  0
   27.4073   36.9272   21.6088 C   0  0  0  0  0  0  0  0  0  0  0  0
   27.5433   38.3003   21.4190 C   0  0  2  0  0  0  0  0  0  0  0  0
   27.9273   40.1817   19.9851 C   0  0  2  0  0  0  0  0  0  0  0  0
   27.8032   38.8161   20.1549 N   0  0  0  0  0  0  0  0  0  0  0  0
  1  2  1  6  0  0  0
  1  3  1  0  0  0  0
  1  4  2  0  0  0  0
  1  6  1  0  0  0  0
  5  6  1  0  0  0  0
  7  5  1  6  0  0  0
  7  8  1  0  0  0  0
  7  9  1  0  0  0  0
  9 10  1  1  0  0  0
  9 11  1  0  0  0  0
 11 12  1  6  0  0  0
 11 13  1  0  0  0  0
 13 31  1  0  0  0  0
 14 15  1  0  0  0  0
 15 16  2  0  0  0  0
 15 17  1  0  0  0  0
 17 18  1  0  0  0  0
 18 20  2  0  0  0  0
 19 18  1  6  0  0  0
 19 22  1  0  0  0  0
 19 30  1  0  0  0  0
 21 23  1  1  0  0  0
 21 29  1  0  0  0  0
 21 22  1  0  0  0  0
 23 24  1  0  0  0  0
 24 25  1  6  0  0  0
 24 26  1  0  0  0  0
 26 27  1  6  0  0  0
 26 28  1  0  0  0  0
 29 28  1  1  0  0  0
 29 31  1  0  0  0  0
 30 14  1  1  0  0  0
 30 31  1  0  0  0  0
M  CHG  1   3  -1
M  END
>  <CHROM.1>
176.22233186,-77.13996377,-66.57124224,67.83327960,-39.05623094,173.60440721
-63.01243392,27.95950670,37.73218956,18.94091458,-1.42962031,1.42518632,0.78959153

>  <Name>
ligand

>  <RI>
0

>  <Rbt.Current_Directory>
/home/itssahil/PROJECTS/Mol_Feturizer/New_Systems/rnas/3F2Q

>  <Rbt.Executable>
rbdock ($Id: //depot/dev/client3/rdock/2013.1/src/exe/rbdock.cxx#4 $)

>  <Rbt.Library>
libRbt.so (2013.1, Build901 2013/11/27)

>  <Rbt.Parameter_File>
/export/apps/rDock/src/rDock_2013.1_src/data/scripts/dock_solv.prm

>  <Rbt.Receptor>
prm/pocket_docking_7.prm

>  <SCORE>
-24.479

>  <SCORE.INTER>
-20.3328

>  <SCORE.INTER.CONST>
1

>  <SCORE.INTER.POLAR>
0

>  <SCORE.INTER.ROT>
7

>  <SCORE.INTER.SOLV>
11.8334

>  <SCORE.INTER.VDW>
-25.7663

>  <SCORE.INTER.norm>
-0.655895

>  <SCORE.INTRA>
-4.14624

>  <SCORE.INTRA.DIHEDRAL>
-6.26979

>  <SCORE.INTRA.DIHEDRAL.0>
10.0718

>  <SCORE.INTRA.POLAR>
0

>  <SCORE.INTRA.POLAR.0>
0

>  <SCORE.INTRA.REPUL>
0

>  <SCORE.INTRA.REPUL.0>
0

>  <SCORE.INTRA.SOLV>
-0.799543

>  <SCORE.INTRA.SOLV.lig_0>
-48.6963

>  <SCORE.INTRA.VDW>
-0.611575

>  <SCORE.INTRA.VDW.0>
-0.836976

>  <SCORE.INTRA.norm>
-0.13375

>  <SCORE.RESTR>
0

>  <SCORE.RESTR.CAVITY>
0

>  <SCORE.RESTR.norm>
0

>  <SCORE.SYSTEM>
0

>  <SCORE.SYSTEM.CONST>
0

>  <SCORE.SYSTEM.DIHEDRAL>
0

>  <SCORE.SYSTEM.SOLV>
0

>  <SCORE.SYSTEM.norm>
0

>  <SCORE.heavy>
31

>  <SCORE.norm>
-0.789645

>  <RMSD>
6.404

$$$$
ligand
 OpenBabel11021811473D
libRbt.so/2013.1/901 2013/11/27
 31 33  0  0  0  0  0  0  0  0999 V2000
   26.8119   33.6777   14.1065 P   0  0  1  0  0  0  0  0  0  0  0  0
   25.3250   33.6111   13.8304 O   0  0  0  0  0  0  0  0  0  0  0  0
   27.0639   33.0321   15.4425 O   0  5  0  0  0  0  0  0  0  0  0  0
   27.5720   32.9394   13.0393 O   0  0  0  0  0  0  0  0  0  0  0  0
   26.7097   36.1519   14.9126 C   0  0  0  0  0  0  0  0  0  0  0  0
   27.2962   35.2027   14.0557 O   0  0  0  0  0  0  0  0  0  0  0  0
   27.2375   35.9419   16.3243 C   0  0  1  0  0  0  0  0  0  0  0  0
   28.6027   36.3007   16.3533 O   0  0  0  0  0  0  0  0  0  0  0  0
   26.4425   36.7873   17.3193 C   0  0  1  0  0  0  0  0  0  0  0  0
   25.0785   36.4285   17.2627 O   0  0  0  0  0  0  0  0  0  0  0  0
   26.9764   36.7154   18.7567 C   0  0  1  0  0  0  0  0  0  0  0  0
   27.2344   35.3737   19.1064 O   0  0  0  0  0  0  0  0  0  0  0  0
   28.2432   37.5334   18.9505 C   0  0  0  0  0  0  0  0  0  0  0  0
   28.4303   40.3120   18.4733 N   0  0  0  0  0  0  0  0  0  0  0  0
   28.4823   41.6590   18.1775 C   0  0  0  0  0  0  0  0  0  0  0  0
   28.8032   42.0329   17.0460 O   0  0  0  0  0  0  0  0  0  0  0  0
   28.1831   42.5843   19.1570 N   0  0  0  0  0  0  0  0  0  0  0  0
   27.8328   42.1681   20.4277 C   0  0  0  0  0  0  0  0  0  0  0  0
   27.7778   40.8227   20.7266 C   0  0  1  0  0  0  0  0  0  0  0  0
   27.5550   42.9817   21.3071 O   0  0  0  0  0  0  0  0  0  0  0  0
   27.3612   39.0797   22.3023 C   0  0  2  0  0  0  0  0  0  0  0  0
   27.4212   40.4248   22.0004 N   0  0  0  0  0  0  0  0  0  0  0  0
   27.0038   38.6761   23.5866 C   0  0  0  0  0  0  0  0  0  0  0  0
   26.9477   37.3224   23.9033 C   0  0  1  0  0  0  0  0  0  0  0  0
   26.5497   36.9037   25.2917 C   0  0  0  0  0  0  0  0  0  0  0  0
   27.2487   36.3691   22.9239 C   0  0  1  0  0  0  0  0  0  0  0  0
   27.1825   34.9014   23.2306 C   0  0  0  0  0  0  0  0  0  0  0  0
   27.6047   36.7765   21.6417 C   0  0  0  0  0  0  0  0  0  0  0  0
   27.6649   38.1307   21.3215 C   0  0  2  0  0  0  0  0  0  0  0  0
   28.0764   39.8864   19.7433 C   0  0  2  0  0  0  0  0  0  0  0  0
   28.0297   38.5387   20.0440 N   0  0  0  0  0  0  0  0  0  0  0  0
  1  2  1  6  0  0  0
  1  3  1  0  0  0  0
  1  4  2  0  0  0  0
  1  6  1  0  0  0  0
  5  6  1  0  0  0  0
  7  5  1  6  0  0  0
  7  8  1  0  0  0  0
  7  9  1  0  0  0  0
  9 10  1  1  0  0  0
  9 11  1  0  0  0  0
 11 12  1  6  0  0  0
 11 13  1  0  0  0  0
 13 31  1  0  0  0  0
 14 15  1  0  0  0  0
 15 16  2  0  0  0  0
 15 17  1  0  0  0  0
 17 18  1  0  0  0  0
 18 20  2  0  0  0  0
 19 18  1  6  0  0  0
 19 22  1  0  0  0  0
 19 30  1  0  0  0  0
 21 23  1  1  0  0  0
 21 29  1  0  0  0  0
 21 22  1  0  0  0  0
 23 24  1  0  0  0  0
 24 25  1  6  0  0  0
 24 26  1  0  0  0  0
 26 27  1  6  0  0  0
 26 28  1  0  0  0  0
 29 28  1  1  0  0  0
 29 31  1  0  0  0  0
 30 14  1  1  0  0  0
 30 31  1  0  0  0  0
M  CHG  1   3  -1
M  END
>  <CHROM.1>
74.52472265,57.92471151,68.80745773,59.07637291,-46.08837843,122.92561644
57.91595866,27.34025773,37.45266423,18.68906948,1.99217595,-1.37187803,-1.81627819

>  <Name>
ligand

>  <RI>
0

>  <Rbt.Current_Directory>
/home/itssahil/PROJECTS/Mol_Feturizer/New_Systems/rnas/3F2Q

>  <Rbt.Executable>
rbdock ($Id: //depot/dev/client3/rdock/2013.1/src/exe/rbdock.cxx#4 $)

>  <Rbt.Library>
libRbt.so (2013.1, Build901 2013/11/27)

>  <Rbt.Parameter_File>
/export/apps/rDock/src/rDock_2013.1_src/data/scripts/dock_solv.prm

>  <Rbt.Receptor>
prm/pocket_docking_8.prm

>  <SCORE>
-23.1378

>  <SCORE.INTER>
-21.8382

>  <SCORE.INTER.CONST>
1

>  <SCORE.INTER.POLAR>
0

>  <SCORE.INTER.ROT>
7

>  <SCORE.INTER.SOLV>
10.1142

>  <SCORE.INTER.VDW>
-26.1969

>  <SCORE.INTER.norm>
-0.704459

>  <SCORE.INTRA>
-1.29952

>  <SCORE.INTRA.DIHEDRAL>
-1.60027

>  <SCORE.INTRA.DIHEDRAL.0>
10.0718

>  <SCORE.INTRA.POLAR>
0

>  <SCORE.INTRA.POLAR.0>
0

>  <SCORE.INTRA.REPUL>
0

>  <SCORE.INTRA.REPUL.0>
0

>  <SCORE.INTRA.SOLV>
0.843014

>  <SCORE.INTRA.SOLV.lig_0>
-48.6963

>  <SCORE.INTRA.VDW>
-0.920898

>  <SCORE.INTRA.VDW.0>
-0.836976

>  <SCORE.INTRA.norm>
-0.0419201

>  <SCORE.RESTR>
0

>  <SCORE.RESTR.CAVITY>
0

>  <SCORE.RESTR.norm>
0

>  <SCORE.SYSTEM>
0

>  <SCORE.SYSTEM.CONST>
0

>  <SCORE.SYSTEM.DIHEDRAL>
0

>  <SCORE.SYSTEM.SOLV>
0

>  <SCORE.SYSTEM.norm>
0

>  <SCORE.heavy>
31

>  <SCORE.norm>
-0.746379

>  <RMSD>
6.411

$$$$
ligand
 OpenBabel11021811473D
libRbt.so/2013.1/901 2013/11/27
 31 33  0  0  0  0  0  0  0  0999 V2000
   31.9638   35.7850   17.2775 P   0  0  1  0  0  0  0  0  0  0  0  0
   32.5416   35.1751   18.5367 O   0  0  0  0  0  0  0  0  0  0  0  0
   32.9836   35.6357   16.1808 O   0  5  0  0  0  0  0  0  0  0  0  0
   30.6982   35.0718   16.8884 O   0  0  0  0  0  0  0  0  0  0  0  0
   30.4326   37.6151   18.3205 C   0  0  0  0  0  0  0  0  0  0  0  0
   31.5735   37.3125   17.5550 O   0  0  0  0  0  0  0  0  0  0  0  0
   30.3737   39.1175   18.5546 C   0  0  1  0  0  0  0  0  0  0  0  0
   30.4680   39.7722   17.3073 O   0  0  0  0  0  0  0  0  0  0  0  0
   29.0697   39.4944   19.2576 C   0  0  1  0  0  0  0  0  0  0  0  0
   27.9729   39.1519   18.4378 O   0  0  0  0  0  0  0  0  0  0  0  0
   28.9256   38.8871   20.6601 C   0  0  1  0  0  0  0  0  0  0  0  0
   29.8673   39.4687   21.5341 O   0  0  0  0  0  0  0  0  0  0  0  0
   27.5307   39.0719   21.2358 C   0  0  0  0  0  0  0  0  0  0  0  0
   26.7907   39.8765   23.8412 N   0  0  0  0  0  0  0  0  0  0  0  0
   26.3806   40.3172   25.0831 C   0  0  0  0  0  0  0  0  0  0  0  0
   26.2999   41.5265   25.3158 O   0  0  0  0  0  0  0  0  0  0  0  0
   26.0712   39.3978   26.0650 N   0  0  0  0  0  0  0  0  0  0  0  0
   26.1701   38.0430   25.8097 C   0  0  0  0  0  0  0  0  0  0  0  0
   26.5777   37.5987   24.5691 C   0  0  1  0  0  0  0  0  0  0  0  0
   25.8888   37.2132   26.6726 O   0  0  0  0  0  0  0  0  0  0  0  0
   27.0697   35.7924   23.0893 C   0  0  2  0  0  0  0  0  0  0  0  0
   26.6661   36.2410   24.3302 N   0  0  0  0  0  0  0  0  0  0  0  0
   27.1616   34.4240   22.8466 C   0  0  0  0  0  0  0  0  0  0  0  0
   27.5747   33.9614   21.6012 C   0  0  1  0  0  0  0  0  0  0  0  0
   27.6582   32.4806   21.3527 C   0  0  0  0  0  0  0  0  0  0  0  0
   27.8939   34.8781   20.5930 C   0  0  1  0  0  0  0  0  0  0  0  0
   28.3281   34.4102   19.2347 C   0  0  0  0  0  0  0  0  0  0  0  0
   27.8001   36.2447   20.8393 C   0  0  0  0  0  0  0  0  0  0  0  0
   27.3897   36.7117   22.0857 C   0  0  2  0  0  0  0  0  0  0  0  0
   26.8887   38.5203   23.5760 C   0  0  2  0  0  0  0  0  0  0  0  0
   27.3051   38.0762   22.3356 N   0  0  0  0  0  0  0  0  0  0  0  0
  1  2  1  1  0  0  0
  1  3  1  0  0  0  0
  1  4  2  0  0  0  0
  1  6  1  0  0  0  0
  5  6  1  0  0  0  0
  7  5  1  6  0  0  0
  7  8  1  0  0  0  0
  7  9  1  0  0  0  0
  9 10  1  6  0  0  0
  9 11  1  0  0  0  0
 11 12  1  1  0  0  0
 11 13  1  0  0  0  0
 13 31  1  0  0  0  0
 14 15  1  0  0  0  0
 15 16  2  0  0  0  0
 15 17  1  0  0  0  0
 17 18  1  0  0  0  0
 18 20  2  0  0  0  0
 19 18  1  6  0  0  0
 19 22  1  0  0  0  0
 19 30  1  0  0  0  0
 21 23  1  1  0  0  0
 21 29  1  0  0  0  0
 21 22  1  0  0  0  0
 23 24  1  0  0  0  0
 24 25  1  6  0  0  0
 24 26  1  0  0  0  0
 26 27  1  6  0  0  0
 26 28  1  0  0  0  0
 29 28  1  1  0  0  0
 29 31  1  0  0  0  0
 30 14  1  1  0  0  0
 30 31  1  0  0  0  0
M  CHG  1   3  -1
M  END
>  <CHROM.1>
174.08743740,-74.24381123,52.93141545,-61.94659008,68.17685611,160.00976860
-59.25202170,28.63819453,37.29265957,21.04131744,0.29739125,-0.97383743,-3.07271211

>  <Name>
ligand

>  <RI>
0

>  <Rbt.Current_Directory>
/home/itssahil/PROJECTS/Mol_Feturizer/New_Systems/rnas/3F2Q

>  <Rbt.Executable>
rbdock ($Id: //depot/dev/client3/rdock/2013.1/src/exe/rbdock.cxx#4 $)

>  <Rbt.Library>
libRbt.so (2013.1, Build901 2013/11/27)

>  <Rbt.Parameter_File>
/export/apps/rDock/src/rDock_2013.1_src/data/scripts/dock_solv.prm

>  <Rbt.Receptor>
prm/pocket_docking_5.prm

>  <SCORE>
-31.4418

>  <SCORE.INTER>
-27.6193

>  <SCORE.INTER.CONST>
1

>  <SCORE.INTER.POLAR>
0

>  <SCORE.INTER.ROT>
7

>  <SCORE.INTER.SOLV>
15.4663

>  <SCORE.INTER.VDW>
-31.8349

>  <SCORE.INTER.norm>
-0.890944

>  <SCORE.INTRA>
-4.34446

>  <SCORE.INTRA.DIHEDRAL>
-6.53157

>  <SCORE.INTRA.DIHEDRAL.0>
10.0718

>  <SCORE.INTRA.POLAR>
0

>  <SCORE.INTRA.POLAR.0>
0

>  <SCORE.INTRA.REPUL>
0

>  <SCORE.INTRA.REPUL.0>
0

>  <SCORE.INTRA.SOLV>
-0.595991

>  <SCORE.INTRA.SOLV.lig_0>
-48.6963

>  <SCORE.INTRA.VDW>
-0.780673

>  <SCORE.INTRA.VDW.0>
-0.836976

>  <SCORE.INTRA.norm>
-0.140144

>  <SCORE.RESTR>
0.521956

>  <SCORE.RESTR.CAVITY>
0.521956

>  <SCORE.RESTR.norm>
0.0168373

>  <SCORE.SYSTEM>
0

>  <SCORE.SYSTEM.CONST>
0

>  <SCORE.SYSTEM.DIHEDRAL>
0

>  <SCORE.SYSTEM.SOLV>
0

>  <SCORE.SYSTEM.norm>
0

>  <SCORE.heavy>
31

>  <SCORE.norm>
-1.01425

>  <RMSD>
6.428

$$$$
ligand
 OpenBabel11021811473D
libRbt.so/2013.1/901 2013/11/27
 31 33  0  0  0  0  0  0  0  0999 V2000
   31.4065   35.1571   16.3667 P   0  0  1  0  0  0  0  0  0  0  0  0
   31.2360   33.7785   16.9683 O   0  0  0  0  0  0  0  0  0  0  0  0
   32.0553   36.0366   17.4015 O   0  5  0  0  0  0  0  0  0  0  0  0
   32.2819   35.0865   15.1459 O   0  0  0  0  0  0  0  0  0  0  0  0
   28.9142   35.7730   16.8032 C   0  0  0  0  0  0  0  0  0  0  0  0
   29.9823   35.7109   15.8897 O   0  0  0  0  0  0  0  0  0  0  0  0
   27.7072   36.3954   16.1169 C   0  0  1  0  0  0  0  0  0  0  0  0
   27.2897   35.5392   15.0748 O   0  0  0  0  0  0  0  0  0  0  0  0
   26.5744   36.6043   17.1218 C   0  0  1  0  0  0  0  0  0  0  0  0
   26.3839   35.4249   17.8735 O   0  0  0  0  0  0  0  0  0  0  0  0
   26.7765   37.8198   18.0373 C   0  0  1  0  0  0  0  0  0  0  0  0
   25.6288   38.0179   18.8325 O   0  0  0  0  0  0  0  0  0  0  0  0
   27.9902   37.6743   18.9413 C   0  0  0  0  0  0  0  0  0  0  0  0
   28.2531   40.4627   18.5681 N   0  0  0  0  0  0  0  0  0  0  0  0
   28.3380   41.8185   18.3254 C   0  0  0  0  0  0  0  0  0  0  0  0
   28.6031   42.2297   17.1923 O   0  0  0  0  0  0  0  0  0  0  0  0
   28.1344   42.7104   19.3589 N   0  0  0  0  0  0  0  0  0  0  0  0
   27.8467   42.2520   20.6308 C   0  0  0  0  0  0  0  0  0  0  0  0
   27.7591   40.8977   20.8769 C   0  0  1  0  0  0  0  0  0  0  0  0
   27.6542   43.0359   21.5586 O   0  0  0  0  0  0  0  0  0  0  0  0
   27.3736   39.1037   22.4026 C   0  0  2  0  0  0  0  0  0  0  0  0
   27.4661   40.4576   22.1531 N   0  0  0  0  0  0  0  0  0  0  0  0
   27.0803   38.6575   23.6889 C   0  0  0  0  0  0  0  0  0  0  0  0
   26.9923   37.2942   23.9526 C   0  0  1  0  0  0  0  0  0  0  0  0
   26.6642   36.8298   25.3447 C   0  0  0  0  0  0  0  0  0  0  0  0
   27.1966   36.3743   22.9178 C   0  0  1  0  0  0  0  0  0  0  0  0
   27.0936   34.8979   23.1674 C   0  0  0  0  0  0  0  0  0  0  0  0
   27.4889   36.8242   21.6337 C   0  0  0  0  0  0  0  0  0  0  0  0
   27.5808   38.1881   21.3664 C   0  0  2  0  0  0  0  0  0  0  0  0
   27.9615   39.9951   19.8391 C   0  0  2  0  0  0  0  0  0  0  0  0
   27.8821   38.6380   20.0865 N   0  0  0  0  0  0  0  0  0  0  0  0
  1  2  1  1  0  0  0
  1  3  1  0  0  0  0
  1  4  2  0  0  0  0
  1  6  1  0  0  0  0
  5  6  1  0  0  0  0
  7  5  1  1  0  0  0
  7  8  1  0  0  0  0
  7  9  1  0  0  0  0
  9 10  1  1  0  0  0
  9 11  1  0  0  0  0
 11 12  1  1  0  0  0
 11 13  1  0  0  0  0
 13 31  1  0  0  0  0
 14 15  1  0  0  0  0
 15 16  2  0  0  0  0
 15 17  1  0  0  0  0
 17 18  1  0  0  0  0
 18 20  2  0  0  0  0
 19 18  1  6  0  0  0
 19 22  1  0  0  0  0
 19 30  1  0  0  0  0
 21 23  1  1  0  0  0
 21 29  1  0  0  0  0
 21 22  1  0  0  0  0
 23 24  1  0  0  0  0
 24 25  1  6  0  0  0
 24 26  1  0  0  0  0
 26 27  1  6  0  0  0
 26 28  1  0  0  0  0
 29 28  1  1  0  0  0
 29 31  1  0  0  0  0
 30 14  1  1  0  0  0
 30 31  1  0  0  0  0
M  CHG  1   3  -1
M  END
>  <CHROM.1>
177.24144814,55.01177161,64.45542481,-47.95179884,173.96249109,-161.60828768
106.82767777,28.30268718,37.85964001,19.21319982,0.34579236,-1.16897876,2.85599003

>  <Name>
ligand

>  <RI>
0

>  <Rbt.Current_Directory>
/home/itssahil/PROJECTS/Mol_Feturizer/New_Systems/rnas/3F2Q

>  <Rbt.Executable>
rbdock ($Id: //depot/dev/client3/rdock/2013.1/src/exe/rbdock.cxx#4 $)

>  <Rbt.Library>
libRbt.so (2013.1, Build901 2013/11/27)

>  <Rbt.Parameter_File>
/export/apps/rDock/src/rDock_2013.1_src/data/scripts/dock_solv.prm

>  <Rbt.Receptor>
prm/blind_docking_100.prm

>  <SCORE>
-24.57

>  <SCORE.INTER>
-20.422

>  <SCORE.INTER.CONST>
1

>  <SCORE.INTER.POLAR>
0

>  <SCORE.INTER.ROT>
7

>  <SCORE.INTER.SOLV>
11.2944

>  <SCORE.INTER.VDW>
-25.6462

>  <SCORE.INTER.norm>
-0.658775

>  <SCORE.INTRA>
-4.14795

>  <SCORE.INTRA.DIHEDRAL>
-6.89997

>  <SCORE.INTRA.DIHEDRAL.0>
10.0718

>  <SCORE.INTRA.POLAR>
0

>  <SCORE.INTRA.POLAR.0>
0

>  <SCORE.INTRA.REPUL>
0

>  <SCORE.INTRA.REPUL.0>
0

>  <SCORE.INTRA.SOLV>
-1.52483

>  <SCORE.INTRA.SOLV.lig_0>
-48.6963

>  <SCORE.INTRA.VDW>
0.0644467

>  <SCORE.INTRA.VDW.0>
-0.836976

>  <SCORE.INTRA.norm>
-0.133805

>  <SCORE.RESTR>
0

>  <SCORE.RESTR.CAVITY>
0

>  <SCORE.RESTR.norm>
0

>  <SCORE.SYSTEM>
0

>  <SCORE.SYSTEM.CONST>
0

>  <SCORE.SYSTEM.DIHEDRAL>
0

>  <SCORE.SYSTEM.SOLV>
0

>  <SCORE.SYSTEM.norm>
0

>  <SCORE.heavy>
31

>  <SCORE.norm>
-0.79258

>  <RMSD>
6.429

$$$$
ligand
 OpenBabel11021811473D
libRbt.so/2013.1/901 2013/11/27
 31 33  0  0  0  0  0  0  0  0999 V2000
   25.8734   33.5979   15.3059 P   0  0  1  0  0  0  0  0  0  0  0  0
   25.8174   33.4270   16.8089 O   0  0  0  0  0  0  0  0  0  0  0  0
   26.9528   32.6921   14.7770 O   0  5  0  0  0  0  0  0  0  0  0  0
   24.5539   33.2209   14.6907 O   0  0  0  0  0  0  0  0  0  0  0  0
   27.3761   35.7239   15.2457 C   0  0  0  0  0  0  0  0  0  0  0  0
   26.1310   35.1380   14.9532 O   0  0  0  0  0  0  0  0  0  0  0  0
   27.5574   35.7812   16.7554 C   0  0  1  0  0  0  0  0  0  0  0  0
   28.9040   36.0995   17.0362 O   0  0  0  0  0  0  0  0  0  0  0  0
   26.6240   36.8285   17.3626 C   0  0  1  0  0  0  0  0  0  0  0  0
   25.2827   36.4831   17.0901 O   0  0  0  0  0  0  0  0  0  0  0  0
   26.8445   37.0566   18.8645 C   0  0  1  0  0  0  0  0  0  0  0  0
   26.8126   35.8230   19.5472 O   0  0  0  0  0  0  0  0  0  0  0  0
   28.1609   37.7568   19.1616 C   0  0  0  0  0  0  0  0  0  0  0  0
   28.3514   40.5422   18.7272 N   0  0  0  0  0  0  0  0  0  0  0  0
   28.4043   41.8937   18.4528 C   0  0  0  0  0  0  0  0  0  0  0  0
   28.7120   42.2850   17.3235 O   0  0  0  0  0  0  0  0  0  0  0  0
   28.1205   42.8038   19.4509 N   0  0  0  0  0  0  0  0  0  0  0  0
   27.7850   42.3680   20.7190 C   0  0  0  0  0  0  0  0  0  0  0  0
   27.7292   41.0181   20.9966 C   0  0  1  0  0  0  0  0  0  0  0  0
   27.5211   43.1681   21.6150 O   0  0  0  0  0  0  0  0  0  0  0  0
   27.3266   39.2510   22.5490 C   0  0  2  0  0  0  0  0  0  0  0  0
   27.3874   40.6006   22.2683 N   0  0  0  0  0  0  0  0  0  0  0  0
   26.9842   38.8276   23.8309 C   0  0  0  0  0  0  0  0  0  0  0  0
   26.9275   37.4691   24.1263 C   0  0  1  0  0  0  0  0  0  0  0  0
   26.5457   37.0291   25.5127 C   0  0  0  0  0  0  0  0  0  0  0  0
   27.2128   36.5310   23.1278 C   0  0  1  0  0  0  0  0  0  0  0  0
   27.1455   35.0586   23.4113 C   0  0  0  0  0  0  0  0  0  0  0  0
   27.5540   36.9581   21.8479 C   0  0  0  0  0  0  0  0  0  0  0  0
   27.6147   38.3172   21.5491 C   0  0  2  0  0  0  0  0  0  0  0  0
   28.0122   40.0971   19.9945 C   0  0  2  0  0  0  0  0  0  0  0  0
   27.9647   38.7448   20.2739 N   0  0  0  0  0  0  0  0  0  0  0  0
  1  2  1  1  0  0  0
  1  3  1  0  0  0  0
  1  4  2  0  0  0  0
  1  6  1  0  0  0  0
  5  6  1  0  0  0  0
  7  5  1  6  0  0  0
  7  8  1  0  0  0  0
  7  9  1  0  0  0  0
  9 10  1  1  0  0  0
  9 11  1  0  0  0  0
 11 12  1  1  0  0  0
 11 13  1  0  0  0  0
 13 31  1  0  0  0  0
 14 15  1  0  0  0  0
 15 16  2  0  0  0  0
 15 17  1  0  0  0  0
 17 18  1  0  0  0  0
 18 20  2  0  0  0  0
 19 18  1  6  0  0  0
 19 22  1  0  0  0  0
 19 30  1  0  0  0  0
 21 23  1  1  0  0  0
 21 29  1  0  0  0  0
 21 22  1  0  0  0  0
 23 24  1  0  0  0  0
 24 25  1  6  0  0  0
 24 26  1  0  0  0  0
 26 27  1  6  0  0  0
 26 28  1  0  0  0  0
 29 28  1  1  0  0  0
 29 31  1  0  0  0  0
 30 14  1  1  0  0  0
 30 31  1  0  0  0  0
M  CHG  1   3  -1
M  END
>  <CHROM.1>
-66.57390583,69.05948790,167.68322830,60.82753092,-51.96599378,140.95641955
64.29857503,27.14630219,37.54743625,19.14574203,2.31890055,-1.33041046,-1.62572250

>  <Name>
ligand

>  <RI>
0

>  <Rbt.Current_Directory>
/home/itssahil/PROJECTS/Mol_Feturizer/New_Systems/rnas/3F2Q

>  <Rbt.Executable>
rbdock ($Id: //depot/dev/client3/rdock/2013.1/src/exe/rbdock.cxx#4 $)

>  <Rbt.Library>
libRbt.so (2013.1, Build901 2013/11/27)

>  <Rbt.Parameter_File>
/export/apps/rDock/src/rDock_2013.1_src/data/scripts/dock_solv.prm

>  <Rbt.Receptor>
prm/blind_docking_100.prm

>  <SCORE>
-22.9378

>  <SCORE.INTER>
-20.8836

>  <SCORE.INTER.CONST>
1

>  <SCORE.INTER.POLAR>
0

>  <SCORE.INTER.ROT>
7

>  <SCORE.INTER.SOLV>
11.3096

>  <SCORE.INTER.VDW>
-25.959

>  <SCORE.INTER.norm>
-0.673666

>  <SCORE.INTRA>
-2.05413

>  <SCORE.INTRA.DIHEDRAL>
-3.87882

>  <SCORE.INTRA.DIHEDRAL.0>
10.0718

>  <SCORE.INTRA.POLAR>
0

>  <SCORE.INTRA.POLAR.0>
0

>  <SCORE.INTRA.REPUL>
0

>  <SCORE.INTRA.REPUL.0>
0

>  <SCORE.INTRA.SOLV>
0.881751

>  <SCORE.INTRA.SOLV.lig_0>
-48.6963

>  <SCORE.INTRA.VDW>
-0.555591

>  <SCORE.INTRA.VDW.0>
-0.836976

>  <SCORE.INTRA.norm>
-0.0662622

>  <SCORE.RESTR>
0

>  <SCORE.RESTR.CAVITY>
0

>  <SCORE.RESTR.norm>
0

>  <SCORE.SYSTEM>
0

>  <SCORE.SYSTEM.CONST>
0

>  <SCORE.SYSTEM.DIHEDRAL>
0

>  <SCORE.SYSTEM.SOLV>
0

>  <SCORE.SYSTEM.norm>
0

>  <SCORE.heavy>
31

>  <SCORE.norm>
-0.739928

>  <RMSD>
6.433

$$$$
ligand
 OpenBabel11021811473D
libRbt.so/2013.1/901 2013/11/27
 31 33  0  0  0  0  0  0  0  0999 V2000
   24.6568   34.1608   18.1086 P   0  0  1  0  0  0  0  0  0  0  0  0
   24.3464   34.1655   16.6270 O   0  0  0  0  0  0  0  0  0  0  0  0
   24.0457   35.3960   18.7135 O   0  5  0  0  0  0  0  0  0  0  0  0
   24.0691   32.9385   18.7586 O   0  0  0  0  0  0  0  0  0  0  0  0
   27.0527   35.1627   17.9148 C   0  0  0  0  0  0  0  0  0  0  0  0
   26.2418   34.0874   18.3214 O   0  0  0  0  0  0  0  0  0  0  0  0
   28.5022   34.8508   18.2571 C   0  0  1  0  0  0  0  0  0  0  0  0
   28.9308   33.7675   17.4596 O   0  0  0  0  0  0  0  0  0  0  0  0
   29.3816   36.0763   18.0093 C   0  0  1  0  0  0  0  0  0  0  0  0
   29.1085   36.6049   16.7292 O   0  0  0  0  0  0  0  0  0  0  0  0
   29.2576   37.1557   19.0937 C   0  0  1  0  0  0  0  0  0  0  0  0
   30.2559   38.1352   18.9126 O   0  0  0  0  0  0  0  0  0  0  0  0
   27.8940   37.8281   19.0949 C   0  0  0  0  0  0  0  0  0  0  0  0
   28.2281   40.6153   18.7733 N   0  0  0  0  0  0  0  0  0  0  0  0
   28.3481   41.9727   18.5554 C   0  0  0  0  0  0  0  0  0  0  0  0
   28.6316   42.3971   17.4317 O   0  0  0  0  0  0  0  0  0  0  0  0
   28.1588   42.8510   19.6032 N   0  0  0  0  0  0  0  0  0  0  0  0
   27.8506   42.3774   20.8646 C   0  0  0  0  0  0  0  0  0  0  0  0
   27.7279   41.0215   21.0860 C   0  0  1  0  0  0  0  0  0  0  0  0
   27.6705   43.1494   21.8049 O   0  0  0  0  0  0  0  0  0  0  0  0
   27.2872   39.2110   22.5767 C   0  0  2  0  0  0  0  0  0  0  0  0
   27.4148   40.5665   22.3521 N   0  0  0  0  0  0  0  0  0  0  0  0
   26.9735   38.7496   23.8529 C   0  0  0  0  0  0  0  0  0  0  0  0
   26.8501   37.3845   24.0916 C   0  0  1  0  0  0  0  0  0  0  0  0
   26.5004   36.9039   25.4730 C   0  0  0  0  0  0  0  0  0  0  0  0
   27.0393   36.4781   23.0421 C   0  0  1  0  0  0  0  0  0  0  0  0
   26.8983   35.0006   23.2646 C   0  0  0  0  0  0  0  0  0  0  0  0
   27.3521   36.9433   21.7682 C   0  0  0  0  0  0  0  0  0  0  0  0
   27.4794   38.3090   21.5259 C   0  0  2  0  0  0  0  0  0  0  0  0
   27.9157   40.1327   20.0337 C   0  0  2  0  0  0  0  0  0  0  0  0
   27.8012   38.7738   20.2563 N   0  0  0  0  0  0  0  0  0  0  0  0
  1  2  1  6  0  0  0
  1  3  1  0  0  0  0
  1  4  2  0  0  0  0
  1  6  1  0  0  0  0
  5  6  1  0  0  0  0
  7  5  1  6  0  0  0
  7  8  1  0  0  0  0
  7  9  1  0  0  0  0
  9 10  1  6  0  0  0
  9 11  1  0  0  0  0
 11 12  1  6  0  0  0
 11 13  1  0  0  0  0
 13 31  1  0  0  0  0
 14 15  1  0  0  0  0
 15 16  2  0  0  0  0
 15 17  1  0  0  0  0
 17 18  1  0  0  0  0
 18 20  2  0  0  0  0
 19 18  1  6  0  0  0
 19 22  1  0  0  0  0
 19 30  1  0  0  0  0
 21 23  1  1  0  0  0
 21 29  1  0  0  0  0
 21 22  1  0  0  0  0
 23 24  1  0  0  0  0
 24 25  1  6  0  0  0
 24 26  1  0  0  0  0
 26 27  1  6  0  0  0
 26 28  1  0  0  0  0
 29 28  1  1  0  0  0
 29 31  1  0  0  0  0
 30 14  1  1  0  0  0
 30 31  1  0  0  0  0
M  CHG  1   3  -1
M  END
>  <CHROM.1>
178.76854131,65.99212073,66.79833884,-48.81294089,170.08571047,174.69794590
-82.16137316,27.27844329,37.60067655,19.88695045,2.30248435,-1.15554634,-2.09980222

>  <Name>
ligand

>  <RI>
0

>  <Rbt.Current_Directory>
/home/itssahil/PROJECTS/Mol_Feturizer/New_Systems/rnas/3F2Q

>  <Rbt.Executable>
rbdock ($Id: //depot/dev/client3/rdock/2013.1/src/exe/rbdock.cxx#4 $)

>  <Rbt.Library>
libRbt.so (2013.1, Build901 2013/11/27)

>  <Rbt.Parameter_File>
/export/apps/rDock/src/rDock_2013.1_src/data/scripts/dock_solv.prm

>  <Rbt.Receptor>
prm/pocket_docking_5.prm

>  <SCORE>
-24.6894

>  <SCORE.INTER>
-19.761

>  <SCORE.INTER.CONST>
1

>  <SCORE.INTER.POLAR>
0

>  <SCORE.INTER.ROT>
7

>  <SCORE.INTER.SOLV>
13.7186

>  <SCORE.INTER.VDW>
-26.0135

>  <SCORE.INTER.norm>
-0.637451

>  <SCORE.INTRA>
-4.92841

>  <SCORE.INTRA.DIHEDRAL>
-7.42573

>  <SCORE.INTRA.DIHEDRAL.0>
10.0718

>  <SCORE.INTRA.POLAR>
0

>  <SCORE.INTRA.POLAR.0>
0

>  <SCORE.INTRA.REPUL>
0

>  <SCORE.INTRA.REPUL.0>
0

>  <SCORE.INTRA.SOLV>
-1.53205

>  <SCORE.INTRA.SOLV.lig_0>
-48.6963

>  <SCORE.INTRA.VDW>
-0.449518

>  <SCORE.INTRA.VDW.0>
-0.836976

>  <SCORE.INTRA.norm>
-0.158981

>  <SCORE.RESTR>
0

>  <SCORE.RESTR.CAVITY>
0

>  <SCORE.RESTR.norm>
0

>  <SCORE.SYSTEM>
0

>  <SCORE.SYSTEM.CONST>
0

>  <SCORE.SYSTEM.DIHEDRAL>
0

>  <SCORE.SYSTEM.SOLV>
0

>  <SCORE.SYSTEM.norm>
0

>  <SCORE.heavy>
31

>  <SCORE.norm>
-0.796432

>  <RMSD>
6.439

$$$$
ligand
 OpenBabel11021811473D
libRbt.so/2013.1/901 2013/11/27
 31 33  0  0  0  0  0  0  0  0999 V2000
   32.3600   36.1061   17.3630 P   0  0  1  0  0  0  0  0  0  0  0  0
   31.0637   35.3914   17.6796 O   0  0  0  0  0  0  0  0  0  0  0  0
   33.2494   36.0096   18.5733 O   0  5  0  0  0  0  0  0  0  0  0  0
   33.0374   35.4570   16.1876 O   0  0  0  0  0  0  0  0  0  0  0  0
   30.8262   38.2102   17.3200 C   0  0  0  0  0  0  0  0  0  0  0  0
   32.0467   37.6194   16.9452 O   0  0  0  0  0  0  0  0  0  0  0  0
   30.7402   38.2553   18.8386 C   0  0  1  0  0  0  0  0  0  0  0  0
   31.7383   39.1296   19.3211 O   0  0  0  0  0  0  0  0  0  0  0  0
   29.3558   38.7320   19.2778 C   0  0  1  0  0  0  0  0  0  0  0  0
   28.3632   37.9542   18.6435 O   0  0  0  0  0  0  0  0  0  0  0  0
   29.1612   38.7464   20.8004 C   0  0  1  0  0  0  0  0  0  0  0  0
   29.8749   39.8235   21.3654 O   0  0  0  0  0  0  0  0  0  0  0  0
   27.6984   38.8528   21.2011 C   0  0  0  0  0  0  0  0  0  0  0  0
   26.9328   39.7456   23.7701 N   0  0  0  0  0  0  0  0  0  0  0  0
   26.5128   40.2303   24.9920 C   0  0  0  0  0  0  0  0  0  0  0  0
   26.4721   41.4470   25.1951 O   0  0  0  0  0  0  0  0  0  0  0  0
   26.1483   39.3465   25.9876 N   0  0  0  0  0  0  0  0  0  0  0  0
   26.2022   37.9833   25.7657 C   0  0  0  0  0  0  0  0  0  0  0  0
   26.6196   37.4950   24.5451 C   0  0  1  0  0  0  0  0  0  0  0  0
   25.8716   37.1850   26.6409 O   0  0  0  0  0  0  0  0  0  0  0  0
   27.0759   35.6373   23.1185 C   0  0  2  0  0  0  0  0  0  0  0  0
   26.6627   36.1297   24.3394 N   0  0  0  0  0  0  0  0  0  0  0  0
   27.1222   34.2610   22.9094 C   0  0  0  0  0  0  0  0  0  0  0  0
   27.5446   33.7542   21.6844 C   0  0  1  0  0  0  0  0  0  0  0  0
   27.5783   32.2659   21.4718 C   0  0  0  0  0  0  0  0  0  0  0  0
   27.9192   34.6344   20.6629 C   0  0  1  0  0  0  0  0  0  0  0  0
   28.3649   34.1188   19.3257 C   0  0  0  0  0  0  0  0  0  0  0  0
   27.8710   36.0090   20.8756 C   0  0  0  0  0  0  0  0  0  0  0  0
   27.4516   36.5202   22.1015 C   0  0  2  0  0  0  0  0  0  0  0  0
   26.9861   38.3808   23.5383 C   0  0  2  0  0  0  0  0  0  0  0  0
   27.4123   37.8924   22.3181 N   0  0  0  0  0  0  0  0  0  0  0  0
  1  2  1  1  0  0  0
  1  3  1  0  0  0  0
  1  4  2  0  0  0  0
  1  6  1  0  0  0  0
  5  6  1  0  0  0  0
  7  5  1  6  0  0  0
  7  8  1  0  0  0  0
  7  9  1  0  0  0  0
  9 10  1  6  0  0  0
  9 11  1  0  0  0  0
 11 12  1  6  0  0  0
 11 13  1  0  0  0  0
 13 31  1  0  0  0  0
 14 15  1  0  0  0  0
 15 16  2  0  0  0  0
 15 17  1  0  0  0  0
 17 18  1  0  0  0  0
 18 20  2  0  0  0  0
 19 18  1  6  0  0  0
 19 22  1  0  0  0  0
 19 30  1  0  0  0  0
 21 23  1  1  0  0  0
 21 29  1  0  0  0  0
 21 22  1  0  0  0  0
 23 24  1  0  0  0  0
 24 25  1  6  0  0  0
 24 26  1  0  0  0  0
 26 27  1  6  0  0  0
 26 28  1  0  0  0  0
 29 28  1  1  0  0  0
 29 31  1  0  0  0  0
 30 14  1  1  0  0  0
 30 31  1  0  0  0  0
M  CHG  1   3  -1
M  END
>  <CHROM.1>
62.05396652,20.52156577,65.81799320,52.18015847,73.66333280,136.19822265
-67.63667662,28.85042416,37.18987444,21.10836639,-0.39991718,0.88763450,0.25711172

>  <Name>
ligand

>  <RI>
0

>  <Rbt.Current_Directory>
/home/itssahil/PROJECTS/Mol_Feturizer/New_Systems/rnas/3F2Q

>  <Rbt.Executable>
rbdock ($Id: //depot/dev/client3/rdock/2013.1/src/exe/rbdock.cxx#4 $)

>  <Rbt.Library>
libRbt.so (2013.1, Build901 2013/11/27)

>  <Rbt.Parameter_File>
/export/apps/rDock/src/rDock_2013.1_src/data/scripts/dock_solv.prm

>  <Rbt.Receptor>
prm/pocket_docking_7.prm

>  <SCORE>
-30.5408

>  <SCORE.INTER>
-28.7458

>  <SCORE.INTER.CONST>
1

>  <SCORE.INTER.POLAR>
0

>  <SCORE.INTER.ROT>
7

>  <SCORE.INTER.SOLV>
19.5499

>  <SCORE.INTER.VDW>
-33.9472

>  <SCORE.INTER.norm>
-0.927285

>  <SCORE.INTRA>
-1.80249

>  <SCORE.INTRA.DIHEDRAL>
-1.55843

>  <SCORE.INTRA.DIHEDRAL.0>
10.0718

>  <SCORE.INTRA.POLAR>
0

>  <SCORE.INTRA.POLAR.0>
0

>  <SCORE.INTRA.REPUL>
0

>  <SCORE.INTRA.REPUL.0>
0

>  <SCORE.INTRA.SOLV>
0.309289

>  <SCORE.INTRA.SOLV.lig_0>
-48.6963

>  <SCORE.INTRA.VDW>
-1.17792

>  <SCORE.INTRA.VDW.0>
-0.836976

>  <SCORE.INTRA.norm>
-0.0581449

>  <SCORE.RESTR>
0.00751666

>  <SCORE.RESTR.CAVITY>
0.00751666

>  <SCORE.RESTR.norm>
0.000242473

>  <SCORE.SYSTEM>
0

>  <SCORE.SYSTEM.CONST>
0

>  <SCORE.SYSTEM.DIHEDRAL>
0

>  <SCORE.SYSTEM.SOLV>
0

>  <SCORE.SYSTEM.norm>
0

>  <SCORE.heavy>
31

>  <SCORE.norm>
-0.985187

>  <RMSD>
6.439

$$$$
ligand
 OpenBabel11021811473D
libRbt.so/2013.1/901 2013/11/27
 31 33  0  0  0  0  0  0  0  0999 V2000
   33.0021   36.3081   17.8756 P   0  0  1  0  0  0  0  0  0  0  0  0
   32.1881   35.2347   18.5660 O   0  0  0  0  0  0  0  0  0  0  0  0
   34.4083   36.2364   18.4072 O   0  5  0  0  0  0  0  0  0  0  0  0
   33.0134   36.0763   16.3897 O   0  0  0  0  0  0  0  0  0  0  0  0
   30.9285   37.8234   18.3061 C   0  0  0  0  0  0  0  0  0  0  0  0
   32.3204   37.7355   18.1212 O   0  0  0  0  0  0  0  0  0  0  0  0
   30.5407   39.2842   18.4827 C   0  0  1  0  0  0  0  0  0  0  0  0
   30.6281   39.9286   17.2295 O   0  0  0  0  0  0  0  0  0  0  0  0
   29.1216   39.3928   19.0406 C   0  0  1  0  0  0  0  0  0  0  0  0
   28.2068   38.8354   18.1214 O   0  0  0  0  0  0  0  0  0  0  0  0
   28.9562   38.7718   20.4346 C   0  0  1  0  0  0  0  0  0  0  0  0
   29.7416   39.4763   21.3704 O   0  0  0  0  0  0  0  0  0  0  0  0
   27.5097   38.7649   20.9027 C   0  0  0  0  0  0  0  0  0  0  0  0
   26.9702   39.7467   23.4966 N   0  0  0  0  0  0  0  0  0  0  0  0
   26.6559   40.2721   24.7334 C   0  0  0  0  0  0  0  0  0  0  0  0
   26.5942   41.4947   24.8897 O   0  0  0  0  0  0  0  0  0  0  0  0
   26.4211   39.4225   25.7956 N   0  0  0  0  0  0  0  0  0  0  0  0
   26.4991   38.0530   25.6253 C   0  0  0  0  0  0  0  0  0  0  0  0
   26.8110   37.5241   24.3902 C   0  0  1  0  0  0  0  0  0  0  0  0
   26.2833   37.2846   26.5609 O   0  0  0  0  0  0  0  0  0  0  0  0
   27.1877   35.6197   23.0023 C   0  0  2  0  0  0  0  0  0  0  0  0
   26.8799   36.1529   24.2372 N   0  0  0  0  0  0  0  0  0  0  0  0
   27.2598   34.2376   22.8460 C   0  0  0  0  0  0  0  0  0  0  0  0
   27.5769   33.6902   21.6068 C   0  0  1  0  0  0  0  0  0  0  0  0
   27.6399   32.1956   21.4529 C   0  0  0  0  0  0  0  0  0  0  0  0
   27.8194   34.5354   20.5180 C   0  0  1  0  0  0  0  0  0  0  0  0
   28.1489   33.9748   19.1653 C   0  0  0  0  0  0  0  0  0  0  0  0
   27.7458   35.9159   20.6782 C   0  0  0  0  0  0  0  0  0  0  0  0
   27.4316   36.4679   21.9178 C   0  0  2  0  0  0  0  0  0  0  0  0
   27.0466   38.3752   23.3166 C   0  0  2  0  0  0  0  0  0  0  0  0
   27.3673   37.8465   22.0809 N   0  0  0  0  0  0  0  0  0  0  0  0
  1  2  1  1  0  0  0
  1  3  1  0  0  0  0
  1  4  2  0  0  0  0
  1  6  1  0  0  0  0
  5  6  1  0  0  0  0
  7  5  1  6  0  0  0
  7  8  1  0  0  0  0
  7  9  1  0  0  0  0
  9 10  1  6  0  0  0
  9 11  1  0  0  0  0
 11 12  1  1  0  0  0
 11 13  1  0  0  0  0
 13 31  1  0  0  0  0
 14 15  1  0  0  0  0
 15 16  2  0  0  0  0
 15 17  1  0  0  0  0
 17 18  1  0  0  0  0
 18 20  2  0  0  0  0
 19 18  1  6  0  0  0
 19 22  1  0  0  0  0
 19 30  1  0  0  0  0
 21 23  1  1  0  0  0
 21 29  1  0  0  0  0
 21 22  1  0  0  0  0
 23 24  1  0  0  0  0
 24 25  1  6  0  0  0
 24 26  1  0  0  0  0
 26 27  1  6  0  0  0
 26 28  1  0  0  0  0
 29 28  1  1  0  0  0
 29 31  1  0  0  0  0
 30 14  1  1  0  0  0
 30 31  1  0  0  0  0
M  CHG  1   3  -1
M  END
>  <CHROM.1>
-178.59508538,-29.29619920,73.52210162,-62.62940981,64.06561853,165.48858124
-72.28257827,28.96245615,37.30913256,21.03254714,0.22369218,-0.87507843,-3.05389063

>  <Name>
ligand

>  <RI>
0

>  <Rbt.Current_Directory>
/home/itssahil/PROJECTS/Mol_Feturizer/New_Systems/rnas/3F2Q

>  <Rbt.Executable>
rbdock ($Id: //depot/dev/client3/rdock/2013.1/src/exe/rbdock.cxx#4 $)

>  <Rbt.Library>
libRbt.so (2013.1, Build901 2013/11/27)

>  <Rbt.Parameter_File>
/export/apps/rDock/src/rDock_2013.1_src/data/scripts/dock_solv.prm

>  <Rbt.Receptor>
prm/blind_docking_100.prm

>  <SCORE>
-33.0002

>  <SCORE.INTER>
-28.0653

>  <SCORE.INTER.CONST>
1

>  <SCORE.INTER.POLAR>
0

>  <SCORE.INTER.ROT>
7

>  <SCORE.INTER.SOLV>
20.4194

>  <SCORE.INTER.VDW>
-33.7833

>  <SCORE.INTER.norm>
-0.905333

>  <SCORE.INTRA>
-4.94464

>  <SCORE.INTRA.DIHEDRAL>
-5.97125

>  <SCORE.INTRA.DIHEDRAL.0>
10.0718

>  <SCORE.INTRA.POLAR>
0

>  <SCORE.INTRA.POLAR.0>
0

>  <SCORE.INTRA.REPUL>
0

>  <SCORE.INTRA.REPUL.0>
0

>  <SCORE.INTRA.SOLV>
-1.91198

>  <SCORE.INTRA.SOLV.lig_0>
-48.6963

>  <SCORE.INTRA.VDW>
-1.00303

>  <SCORE.INTRA.VDW.0>
-0.836976

>  <SCORE.INTRA.norm>
-0.159504

>  <SCORE.RESTR>
0.00979753

>  <SCORE.RESTR.CAVITY>
0.00979753

>  <SCORE.RESTR.norm>
0.000316049

>  <SCORE.SYSTEM>
0

>  <SCORE.SYSTEM.CONST>
0

>  <SCORE.SYSTEM.DIHEDRAL>
0

>  <SCORE.SYSTEM.SOLV>
0

>  <SCORE.SYSTEM.norm>
0

>  <SCORE.heavy>
31

>  <SCORE.norm>
-1.06452

>  <RMSD>
6.449

$$$$
ligand
 OpenBabel11021811473D
libRbt.so/2013.1/901 2013/11/27
 31 33  0  0  0  0  0  0  0  0999 V2000
   30.3369   34.5701   16.7287 P   0  0  1  0  0  0  0  0  0  0  0  0
   30.8722   35.3798   17.8903 O   0  0  0  0  0  0  0  0  0  0  0  0
   31.2172   34.8329   15.5366 O   0  5  0  0  0  0  0  0  0  0  0  0
   30.3646   33.1036   17.0612 O   0  0  0  0  0  0  0  0  0  0  0  0
   28.4870   36.2374   15.9674 C   0  0  0  0  0  0  0  0  0  0  0  0
   28.8070   34.9612   16.4657 O   0  0  0  0  0  0  0  0  0  0  0  0
   26.9861   36.3176   15.7303 C   0  0  1  0  0  0  0  0  0  0  0  0
   26.5850   35.1830   14.9918 O   0  0  0  0  0  0  0  0  0  0  0  0
   26.2405   36.3772   17.0634 C   0  0  1  0  0  0  0  0  0  0  0  0
   26.5693   35.2463   17.8415 O   0  0  0  0  0  0  0  0  0  0  0  0
   26.4758   37.6769   17.8457 C   0  0  1  0  0  0  0  0  0  0  0  0
   25.5193   37.7976   18.8750 O   0  0  0  0  0  0  0  0  0  0  0  0
   27.8694   37.7510   18.4491 C   0  0  0  0  0  0  0  0  0  0  0  0
   28.1481   40.5591   18.3065 N   0  0  0  0  0  0  0  0  0  0  0  0
   28.2374   41.9303   18.1788 C   0  0  0  0  0  0  0  0  0  0  0  0
   28.4433   42.4374   17.0726 O   0  0  0  0  0  0  0  0  0  0  0  0
   28.1048   42.7294   19.2964 N   0  0  0  0  0  0  0  0  0  0  0  0
   27.8838   42.1632   20.5378 C   0  0  0  0  0  0  0  0  0  0  0  0
   27.7920   40.7932   20.6692 C   0  0  1  0  0  0  0  0  0  0  0  0
   27.7548   42.8639   21.5402 O   0  0  0  0  0  0  0  0  0  0  0  0
   27.4697   38.8751   22.0518 C   0  0  2  0  0  0  0  0  0  0  0  0
   27.5661   40.2450   21.9168 N   0  0  0  0  0  0  0  0  0  0  0  0
   27.2439   38.3199   23.3091 C   0  0  0  0  0  0  0  0  0  0  0  0
   27.1527   36.9395   23.4571 C   0  0  1  0  0  0  0  0  0  0  0  0
   26.8979   36.3571   24.8200 C   0  0  0  0  0  0  0  0  0  0  0  0
   27.2854   36.1125   22.3358 C   0  0  1  0  0  0  0  0  0  0  0  0
   27.1769   34.6208   22.4608 C   0  0  0  0  0  0  0  0  0  0  0  0
   27.5103   36.6713   21.0812 C   0  0  0  0  0  0  0  0  0  0  0  0
   27.6053   38.0526   20.9294 C   0  0  2  0  0  0  0  0  0  0  0  0
   27.9229   39.9838   19.5465 C   0  0  2  0  0  0  0  0  0  0  0  0
   27.8395   38.6110   19.6784 N   0  0  0  0  0  0  0  0  0  0  0  0
  1  2  1  1  0  0  0
  1  3  1  0  0  0  0
  1  4  2  0  0  0  0
  1  6  1  0  0  0  0
  5  6  1  0  0  0  0
  7  5  1  1  0  0  0
  7  8  1  0  0  0  0
  7  9  1  0  0  0  0
  9 10  1  1  0  0  0
  9 11  1  0  0  0  0
 11 12  1  1  0  0  0
 11 13  1  0  0  0  0
 13 31  1  0  0  0  0
 14 15  1  0  0  0  0
 15 16  2  0  0  0  0
 15 17  1  0  0  0  0
 17 18  1  0  0  0  0
 18 20  2  0  0  0  0
 19 18  1  6  0  0  0
 19 22  1  0  0  0  0
 19 30  1  0  0  0  0
 21 23  1  1  0  0  0
 21 29  1  0  0  0  0
 21 22  1  0  0  0  0
 23 24  1  0  0  0  0
 24 25  1  6  0  0  0
 24 26  1  0  0  0  0
 26 27  1  6  0  0  0
 26 28  1  0  0  0  0
 29 28  1  1  0  0  0
 29 31  1  0  0  0  0
 30 14  1  1  0  0  0
 30 31  1  0  0  0  0
M  CHG  1   3  -1
M  END
>  <CHROM.1>
176.57553520,68.57975286,-49.32263125,-57.51082932,165.58312447,-152.40508900
90.86652087,28.01566985,37.64307377,19.05958206,-0.54131343,1.32405764,-0.32591996

>  <Name>
ligand

>  <RI>
0

>  <Rbt.Current_Directory>
/home/itssahil/PROJECTS/Mol_Feturizer/New_Systems/rnas/3F2Q

>  <Rbt.Executable>
rbdock ($Id: //depot/dev/client3/rdock/2013.1/src/exe/rbdock.cxx#4 $)

>  <Rbt.Library>
libRbt.so (2013.1, Build901 2013/11/27)

>  <Rbt.Parameter_File>
/export/apps/rDock/src/rDock_2013.1_src/data/scripts/dock_solv.prm

>  <Rbt.Receptor>
prm/pocket_docking_7.prm

>  <SCORE>
-23.4622

>  <SCORE.INTER>
-20.3348

>  <SCORE.INTER.CONST>
1

>  <SCORE.INTER.POLAR>
0

>  <SCORE.INTER.ROT>
7

>  <SCORE.INTER.SOLV>
11.3801

>  <SCORE.INTER.VDW>
-25.6166

>  <SCORE.INTER.norm>
-0.655963

>  <SCORE.INTRA>
-3.12734

>  <SCORE.INTRA.DIHEDRAL>
-5.28841

>  <SCORE.INTRA.DIHEDRAL.0>
10.0718

>  <SCORE.INTRA.POLAR>
0

>  <SCORE.INTRA.POLAR.0>
0

>  <SCORE.INTRA.REPUL>
0

>  <SCORE.INTRA.REPUL.0>
0

>  <SCORE.INTRA.SOLV>
-0.619735

>  <SCORE.INTRA.SOLV.lig_0>
-48.6963

>  <SCORE.INTRA.VDW>
-0.173271

>  <SCORE.INTRA.VDW.0>
-0.836976

>  <SCORE.INTRA.norm>
-0.100882

>  <SCORE.RESTR>
0

>  <SCORE.RESTR.CAVITY>
0

>  <SCORE.RESTR.norm>
0

>  <SCORE.SYSTEM>
0

>  <SCORE.SYSTEM.CONST>
0

>  <SCORE.SYSTEM.DIHEDRAL>
0

>  <SCORE.SYSTEM.SOLV>
0

>  <SCORE.SYSTEM.norm>
0

>  <SCORE.heavy>
31

>  <SCORE.norm>
-0.756845

>  <RMSD>
6.454

$$$$
ligand
 OpenBabel11021811473D
libRbt.so/2013.1/901 2013/11/27
 31 33  0  0  0  0  0  0  0  0999 V2000
   24.7729   33.3172   15.8614 P   0  0  1  0  0  0  0  0  0  0  0  0
   25.2632   31.9432   16.2655 O   0  0  0  0  0  0  0  0  0  0  0  0
   23.6816   33.1376   14.8408 O   0  5  0  0  0  0  0  0  0  0  0  0
   24.2277   34.0469   17.0581 O   0  0  0  0  0  0  0  0  0  0  0  0
   27.2168   34.2035   16.0162 C   0  0  0  0  0  0  0  0  0  0  0  0
   26.0019   34.1804   15.3071 O   0  0  0  0  0  0  0  0  0  0  0  0
   27.0600   35.0879   17.2444 C   0  0  1  0  0  0  0  0  0  0  0  0
   28.0682   34.7517   18.1739 O   0  0  0  0  0  0  0  0  0  0  0  0
   27.1647   36.5621   16.8538 C   0  0  1  0  0  0  0  0  0  0  0  0
   26.2366   36.8482   15.8294 O   0  0  0  0  0  0  0  0  0  0  0  0
   27.0023   37.5279   18.0358 C   0  0  1  0  0  0  0  0  0  0  0  0
   25.8374   37.2057   18.7625 O   0  0  0  0  0  0  0  0  0  0  0  0
   28.1975   37.5071   18.9752 C   0  0  0  0  0  0  0  0  0  0  0  0
   28.4338   40.2836   18.5078 N   0  0  0  0  0  0  0  0  0  0  0  0
   28.5100   41.6304   18.2165 C   0  0  0  0  0  0  0  0  0  0  0  0
   28.8445   42.0023   17.0883 O   0  0  0  0  0  0  0  0  0  0  0  0
   28.2196   42.5576   19.1968 N   0  0  0  0  0  0  0  0  0  0  0  0
   27.8540   42.1435   20.4639 C   0  0  0  0  0  0  0  0  0  0  0  0
   27.7748   40.7983   20.7582 C   0  0  1  0  0  0  0  0  0  0  0  0
   27.5839   42.9590   21.3439 O   0  0  0  0  0  0  0  0  0  0  0  0
   27.3189   39.0577   22.3259 C   0  0  2  0  0  0  0  0  0  0  0  0
   27.4032   40.4025   22.0285 N   0  0  0  0  0  0  0  0  0  0  0  0
   26.9465   38.6563   23.6065 C   0  0  0  0  0  0  0  0  0  0  0  0
   26.8658   37.3028   23.9186 C   0  0  1  0  0  0  0  0  0  0  0  0
   26.4517   36.8866   25.3031 C   0  0  0  0  0  0  0  0  0  0  0  0
   27.1575   36.3475   22.9383 C   0  0  1  0  0  0  0  0  0  0  0  0
   27.0650   34.8802   23.2400 C   0  0  0  0  0  0  0  0  0  0  0  0
   27.5287   36.7528   21.6597 C   0  0  0  0  0  0  0  0  0  0  0  0
   27.6135   38.1068   21.3441 C   0  0  2  0  0  0  0  0  0  0  0  0
   28.0645   39.8602   19.7740 C   0  0  2  0  0  0  0  0  0  0  0  0
   27.9934   38.5125   20.0703 N   0  0  0  0  0  0  0  0  0  0  0  0
  1  2  1  1  0  0  0
  1  3  1  0  0  0  0
  1  4  2  0  0  0  0
  1  6  1  0  0  0  0
  5  6  1  0  0  0  0
  7  5  1  6  0  0  0
  7  8  1  0  0  0  0
  7  9  1  0  0  0  0
  9 10  1  6  0  0  0
  9 11  1  0  0  0  0
 11 12  1  1  0  0  0
 11 13  1  0  0  0  0
 13 31  1  0  0  0  0
 14 15  1  0  0  0  0
 15 16  2  0  0  0  0
 15 17  1  0  0  0  0
 17 18  1  0  0  0  0
 18 20  2  0  0  0  0
 19 18  1  6  0  0  0
 19 22  1  0  0  0  0
 19 30  1  0  0  0  0
 21 23  1  1  0  0  0
 21 29  1  0  0  0  0
 21 22  1  0  0  0  0
 23 24  1  0  0  0  0
 24 25  1  6  0  0  0
 24 26  1  0  0  0  0
 26 27  1  6  0  0  0
 26 28  1  0  0  0  0
 29 28  1  1  0  0  0
 29 31  1  0  0  0  0
 30 14  1  1  0  0  0
 30 31  1  0  0  0  0
M  CHG  1   3  -1
M  END
>  <CHROM.1>
-75.30583817,-46.30989381,159.73406410,54.18740122,-50.64894006,177.68543804
103.15760316,26.89932189,37.31788043,19.10725992,2.62379070,-1.25389821,-1.44620512

>  <Name>
ligand

>  <RI>
0

>  <Rbt.Current_Directory>
/home/itssahil/PROJECTS/Mol_Feturizer/New_Systems/rnas/3F2Q

>  <Rbt.Executable>
rbdock ($Id: //depot/dev/client3/rdock/2013.1/src/exe/rbdock.cxx#4 $)

>  <Rbt.Library>
libRbt.so (2013.1, Build901 2013/11/27)

>  <Rbt.Parameter_File>
/export/apps/rDock/src/rDock_2013.1_src/data/scripts/dock_solv.prm

>  <Rbt.Receptor>
prm/blind_docking_100.prm

>  <SCORE>
-23.6846

>  <SCORE.INTER>
-20.2735

>  <SCORE.INTER.CONST>
1

>  <SCORE.INTER.POLAR>
0

>  <SCORE.INTER.ROT>
7

>  <SCORE.INTER.SOLV>
12.0093

>  <SCORE.INTER.VDW>
-25.7854

>  <SCORE.INTER.norm>
-0.653984

>  <SCORE.INTRA>
-3.41108

>  <SCORE.INTRA.DIHEDRAL>
-5.69253

>  <SCORE.INTRA.DIHEDRAL.0>
10.0718

>  <SCORE.INTRA.POLAR>
0

>  <SCORE.INTRA.POLAR.0>
0

>  <SCORE.INTRA.REPUL>
0

>  <SCORE.INTRA.REPUL.0>
0

>  <SCORE.INTRA.SOLV>
1.64399

>  <SCORE.INTRA.SOLV.lig_0>
-48.6963

>  <SCORE.INTRA.VDW>
-1.38681

>  <SCORE.INTRA.VDW.0>
-0.836976

>  <SCORE.INTRA.norm>
-0.110035

>  <SCORE.RESTR>
0

>  <SCORE.RESTR.CAVITY>
0

>  <SCORE.RESTR.norm>
0

>  <SCORE.SYSTEM>
0

>  <SCORE.SYSTEM.CONST>
0

>  <SCORE.SYSTEM.DIHEDRAL>
0

>  <SCORE.SYSTEM.SOLV>
0

>  <SCORE.SYSTEM.norm>
0

>  <SCORE.heavy>
31

>  <SCORE.norm>
-0.764019

>  <RMSD>
6.455

$$$$
ligand
 OpenBabel11021811473D
libRbt.so/2013.1/901 2013/11/27
 31 33  0  0  0  0  0  0  0  0999 V2000
   29.8241   34.0794   15.9772 P   0  0  1  0  0  0  0  0  0  0  0  0
   30.1460   32.6387   15.6424 O   0  0  0  0  0  0  0  0  0  0  0  0
   30.6599   34.4767   17.1641 O   0  5  0  0  0  0  0  0  0  0  0  0
   30.1521   34.9696   14.8102 O   0  0  0  0  0  0  0  0  0  0  0  0
   27.7483   35.4137   16.8093 C   0  0  0  0  0  0  0  0  0  0  0  0
   28.2536   34.2257   16.2501 O   0  0  0  0  0  0  0  0  0  0  0  0
   26.2410   35.2855   16.9731 C   0  0  1  0  0  0  0  0  0  0  0  0
   25.9690   34.1573   17.7772 O   0  0  0  0  0  0  0  0  0  0  0  0
   25.6676   36.5488   17.6150 C   0  0  1  0  0  0  0  0  0  0  0  0
   24.2579   36.4764   17.6273 O   0  0  0  0  0  0  0  0  0  0  0  0
   26.2211   36.8353   19.0178 C   0  0  1  0  0  0  0  0  0  0  0  0
   26.2968   35.6373   19.7580 O   0  0  0  0  0  0  0  0  0  0  0  0
   27.5945   37.4865   18.9817 C   0  0  0  0  0  0  0  0  0  0  0  0
   27.9350   40.2238   18.3696 N   0  0  0  0  0  0  0  0  0  0  0  0
   28.0500   41.5530   18.0169 C   0  0  0  0  0  0  0  0  0  0  0  0
   28.1816   41.8703   16.8315 O   0  0  0  0  0  0  0  0  0  0  0  0
   28.0266   42.5234   18.9982 N   0  0  0  0  0  0  0  0  0  0  0  0
   27.8889   42.1697   20.3273 C   0  0  0  0  0  0  0  0  0  0  0  0
   27.7718   40.8424   20.6835 C   0  0  1  0  0  0  0  0  0  0  0  0
   27.8575   43.0248   21.2107 O   0  0  0  0  0  0  0  0  0  0  0  0
   27.5087   39.1812   22.3764 C   0  0  2  0  0  0  0  0  0  0  0  0
   27.6301   40.5076   22.0162 N   0  0  0  0  0  0  0  0  0  0  0  0
   27.3678   38.8410   23.7196 C   0  0  0  0  0  0  0  0  0  0  0  0
   27.2522   37.5060   24.0939 C   0  0  1  0  0  0  0  0  0  0  0  0
   27.0900   37.1568   25.5476 C   0  0  0  0  0  0  0  0  0  0  0  0
   27.2747   36.5075   23.1135 C   0  0  1  0  0  0  0  0  0  0  0  0
   27.1372   35.0597   23.4843 C   0  0  0  0  0  0  0  0  0  0  0  0
   27.4150   36.8516   21.7723 C   0  0  0  0  0  0  0  0  0  0  0  0
   27.5340   38.1868   21.3938 C   0  0  2  0  0  0  0  0  0  0  0  0
   27.7928   39.8611   19.6990 C   0  0  2  0  0  0  0  0  0  0  0  0
   27.6839   38.5307   20.0557 N   0  0  0  0  0  0  0  0  0  0  0  0
  1  2  1  6  0  0  0
  1  3  1  0  0  0  0
  1  4  2  0  0  0  0
  1  6  1  0  0  0  0
  5  6  1  0  0  0  0
  7  5  1  1  0  0  0
  7  8  1  0  0  0  0
  7  9  1  0  0  0  0
  9 10  1  1  0  0  0
  9 11  1  0  0  0  0
 11 12  1  1  0  0  0
 11 13  1  0  0  0  0
 13 31  1  0  0  0  0
 14 15  1  0  0  0  0
 15 16  2  0  0  0  0
 15 17  1  0  0  0  0
 17 18  1  0  0  0  0
 18 20  2  0  0  0  0
 19 18  1  6  0  0  0
 19 22  1  0  0  0  0
 19 30  1  0  0  0  0
 21 23  1  1  0  0  0
 21 29  1  0  0  0  0
 21 22  1  0  0  0  0
 23 24  1  0  0  0  0
 24 25  1  6  0  0  0
 24 26  1  0  0  0  0
 26 27  1  6  0  0  0
 26 28  1  0  0  0  0
 29 28  1  1  0  0  0
 29 31  1  0  0  0  0
 30 14  1  1  0  0  0
 30 31  1  0  0  0  0
M  CHG  1   3  -1
M  END
>  <CHROM.1>
-179.53421983,168.73430034,57.29314132,173.66451757,-42.07272000,141.07180771
60.64564962,27.73381472,37.44595766,19.27887737,-0.86506288,1.33403619,0.05812314

>  <Name>
ligand

>  <RI>
0

>  <Rbt.Current_Directory>
/home/itssahil/PROJECTS/Mol_Feturizer/New_Systems/rnas/3F2Q

>  <Rbt.Executable>
rbdock ($Id: //depot/dev/client3/rdock/2013.1/src/exe/rbdock.cxx#4 $)

>  <Rbt.Library>
libRbt.so (2013.1, Build901 2013/11/27)

>  <Rbt.Parameter_File>
/export/apps/rDock/src/rDock_2013.1_src/data/scripts/dock_solv.prm

>  <Rbt.Receptor>
prm/pocket_docking_5.prm

>  <SCORE>
-18.4622

>  <SCORE.INTER>
-17.5903

>  <SCORE.INTER.CONST>
1

>  <SCORE.INTER.POLAR>
0

>  <SCORE.INTER.ROT>
7

>  <SCORE.INTER.SOLV>
9.8484

>  <SCORE.INTER.VDW>
-23.2763

>  <SCORE.INTER.norm>
-0.567429

>  <SCORE.INTRA>
-0.871879

>  <SCORE.INTRA.DIHEDRAL>
-3.52082

>  <SCORE.INTRA.DIHEDRAL.0>
10.0718

>  <SCORE.INTRA.POLAR>
0

>  <SCORE.INTRA.POLAR.0>
0

>  <SCORE.INTRA.REPUL>
0

>  <SCORE.INTRA.REPUL.0>
0

>  <SCORE.INTRA.SOLV>
-0.262714

>  <SCORE.INTRA.SOLV.lig_0>
-48.6963

>  <SCORE.INTRA.VDW>
1.01989

>  <SCORE.INTRA.VDW.0>
-0.836976

>  <SCORE.INTRA.norm>
-0.0281251

>  <SCORE.RESTR>
0

>  <SCORE.RESTR.CAVITY>
0

>  <SCORE.RESTR.norm>
0

>  <SCORE.SYSTEM>
0

>  <SCORE.SYSTEM.CONST>
0

>  <SCORE.SYSTEM.DIHEDRAL>
0

>  <SCORE.SYSTEM.SOLV>
0

>  <SCORE.SYSTEM.norm>
0

>  <SCORE.heavy>
31

>  <SCORE.norm>
-0.595554

>  <RMSD>
6.458

$$$$
ligand
 OpenBabel11021811473D
libRbt.so/2013.1/901 2013/11/27
 31 33  0  0  0  0  0  0  0  0999 V2000
   25.2715   33.5815   15.9196 P   0  0  1  0  0  0  0  0  0  0  0  0
   23.8209   33.5369   16.3502 O   0  0  0  0  0  0  0  0  0  0  0  0
   25.9541   32.3560   16.4649 O   0  5  0  0  0  0  0  0  0  0  0  0
   25.3680   33.5855   14.4188 O   0  0  0  0  0  0  0  0  0  0  0  0
   27.1529   35.3815   15.8750 C   0  0  0  0  0  0  0  0  0  0  0  0
   25.9394   34.9420   16.4350 O   0  0  0  0  0  0  0  0  0  0  0  0
   27.6704   36.5675   16.6756 C   0  0  1  0  0  0  0  0  0  0  0  0
   26.6561   37.5477   16.7364 O   0  0  0  0  0  0  0  0  0  0  0  0
   28.0688   36.1242   18.0833 C   0  0  1  0  0  0  0  0  0  0  0  0
   29.1485   35.2181   18.0072 O   0  0  0  0  0  0  0  0  0  0  0  0
   28.3872   37.2889   19.0312 C   0  0  1  0  0  0  0  0  0  0  0  0
   29.2885   38.1793   18.4120 O   0  0  0  0  0  0  0  0  0  0  0  0
   27.1432   38.0534   19.4550 C   0  0  0  0  0  0  0  0  0  0  0  0
   27.8298   40.7432   18.9286 N   0  0  0  0  0  0  0  0  0  0  0  0
   28.1082   42.0599   18.6232 C   0  0  0  0  0  0  0  0  0  0  0  0
   28.1702   42.4229   17.4453 O   0  0  0  0  0  0  0  0  0  0  0  0
   28.3264   42.9649   19.6423 N   0  0  0  0  0  0  0  0  0  0  0  0
   28.2671   42.5585   20.9621 C   0  0  0  0  0  0  0  0  0  0  0  0
   27.9871   41.2438   21.2713 C   0  0  1  0  0  0  0  0  0  0  0  0
   28.4505   43.3564   21.8798 O   0  0  0  0  0  0  0  0  0  0  0  0
   27.6434   39.5431   22.9096 C   0  0  2  0  0  0  0  0  0  0  0  0
   27.9271   40.8565   22.5960 N   0  0  0  0  0  0  0  0  0  0  0  0
   27.5843   39.1497   24.2444 C   0  0  0  0  0  0  0  0  0  0  0  0
   27.3065   37.8261   24.5711 C   0  0  1  0  0  0  0  0  0  0  0  0
   27.2358   37.4205   26.0175 C   0  0  0  0  0  0  0  0  0  0  0  0
   27.0833   36.8934   23.5518 C   0  0  1  0  0  0  0  0  0  0  0  0
   26.7666   35.4618   23.8724 C   0  0  0  0  0  0  0  0  0  0  0  0
   27.1426   37.2907   22.2193 C   0  0  0  0  0  0  0  0  0  0  0  0
   27.4235   38.6141   21.8881 C   0  0  2  0  0  0  0  0  0  0  0  0
   27.7647   40.3286   20.2489 C   0  0  2  0  0  0  0  0  0  0  0  0
   27.4924   39.0096   20.5575 N   0  0  0  0  0  0  0  0  0  0  0  0
  1  2  1  1  0  0  0
  1  3  1  0  0  0  0
  1  4  2  0  0  0  0
  1  6  1  0  0  0  0
  5  6  1  0  0  0  0
  7  5  1  6  0  0  0
  7  8  1  0  0  0  0
  7  9  1  0  0  0  0
  9 10  1  6  0  0  0
  9 11  1  0  0  0  0
 11 12  1  6  0  0  0
 11 13  1  0  0  0  0
 13 31  1  0  0  0  0
 14 15  1  0  0  0  0
 15 16  2  0  0  0  0
 15 17  1  0  0  0  0
 17 18  1  0  0  0  0
 18 20  2  0  0  0  0
 19 18  1  1  0  0  0
 19 22  1  0  0  0  0
 19 30  1  0  0  0  0
 21 23  1  6  0  0  0
 21 29  1  0  0  0  0
 21 22  1  0  0  0  0
 23 24  1  0  0  0  0
 24 25  1  1  0  0  0
 24 26  1  0  0  0  0
 26 27  1  1  0  0  0
 26 28  1  0  0  0  0
 29 28  1  6  0  0  0
 29 31  1  0  0  0  0
 30 14  1  6  0  0  0
 30 31  1  0  0  0  0
M  CHG  1   3  -1
M  END
>  <CHROM.1>
-171.54545773,-163.22912424,-54.14283502,64.14478417,-49.58868938,170.01531349
-89.53341725,27.25424492,37.78286983,19.47490390,2.51485306,-1.29325971,-1.47336710

>  <Name>
ligand

>  <RI>
0

>  <Rbt.Current_Directory>
/home/itssahil/PROJECTS/Mol_Feturizer/New_Systems/rnas/3F2Q

>  <Rbt.Executable>
rbdock ($Id: //depot/dev/client3/rdock/2013.1/src/exe/rbdock.cxx#4 $)

>  <Rbt.Library>
libRbt.so (2013.1, Build901 2013/11/27)

>  <Rbt.Parameter_File>
/export/apps/rDock/src/rDock_2013.1_src/data/scripts/dock_solv.prm

>  <Rbt.Receptor>
prm/blind_docking_80.prm

>  <SCORE>
-23.5749

>  <SCORE.INTER>
-19.0302

>  <SCORE.INTER.CONST>
1

>  <SCORE.INTER.POLAR>
0

>  <SCORE.INTER.ROT>
7

>  <SCORE.INTER.SOLV>
12.8847

>  <SCORE.INTER.VDW>
-25.2484

>  <SCORE.INTER.norm>
-0.613879

>  <SCORE.INTRA>
-4.54468

>  <SCORE.INTRA.DIHEDRAL>
-6.875

>  <SCORE.INTRA.DIHEDRAL.0>
10.0718

>  <SCORE.INTRA.POLAR>
0

>  <SCORE.INTRA.POLAR.0>
0

>  <SCORE.INTRA.REPUL>
0

>  <SCORE.INTRA.REPUL.0>
0

>  <SCORE.INTRA.SOLV>
-0.346668

>  <SCORE.INTRA.SOLV.lig_0>
-48.6963

>  <SCORE.INTRA.VDW>
-0.933844

>  <SCORE.INTRA.VDW.0>
-0.836976

>  <SCORE.INTRA.norm>
-0.146603

>  <SCORE.RESTR>
0

>  <SCORE.RESTR.CAVITY>
0

>  <SCORE.RESTR.norm>
0

>  <SCORE.SYSTEM>
0

>  <SCORE.SYSTEM.CONST>
0

>  <SCORE.SYSTEM.DIHEDRAL>
0

>  <SCORE.SYSTEM.SOLV>
0

>  <SCORE.SYSTEM.norm>
0

>  <SCORE.heavy>
31

>  <SCORE.norm>
-0.760481

>  <RMSD>
6.489

$$$$
ligand
 OpenBabel11021811473D
libRbt.so/2013.1/901 2013/11/27
 31 33  0  0  0  0  0  0  0  0999 V2000
   26.5401   37.8304   26.0811 P   0  0  1  0  0  0  0  0  0  0  0  0
   25.2134   37.1222   26.2538 O   0  0  0  0  0  0  0  0  0  0  0  0
   26.9384   38.3994   27.4163 O   0  5  0  0  0  0  0  0  0  0  0  0
   27.5900   36.8600   25.6142 O   0  0  0  0  0  0  0  0  0  0  0  0
   27.5576   39.5512   24.4122 C   0  0  0  0  0  0  0  0  0  0  0  0
   26.4026   38.9520   24.9472 O   0  0  0  0  0  0  0  0  0  0  0  0
   27.1457   40.6345   23.4262 C   0  0  1  0  0  0  0  0  0  0  0  0
   26.6408   41.7358   24.1512 O   0  0  0  0  0  0  0  0  0  0  0  0
   28.3418   41.0596   22.5745 C   0  0  1  0  0  0  0  0  0  0  0  0
   29.4173   41.4207   23.4143 O   0  0  0  0  0  0  0  0  0  0  0  0
   28.7716   40.0069   21.5433 C   0  0  1  0  0  0  0  0  0  0  0  0
   29.2806   38.8689   22.2025 O   0  0  0  0  0  0  0  0  0  0  0  0
   27.6320   39.5855   20.6294 C   0  0  0  0  0  0  0  0  0  0  0  0
   28.8368   39.9872   18.1054 N   0  0  0  0  0  0  0  0  0  0  0  0
   29.4665   40.2376   16.9032 C   0  0  0  0  0  0  0  0  0  0  0  0
   29.5727   41.3952   16.4888 O   0  0  0  0  0  0  0  0  0  0  0  0
   29.9674   39.1854   16.1636 N   0  0  0  0  0  0  0  0  0  0  0  0
   29.8411   37.8872   16.6211 C   0  0  0  0  0  0  0  0  0  0  0  0
   29.2141   37.6331   17.8231 C   0  0  1  0  0  0  0  0  0  0  0  0
   30.2909   36.9414   15.9765 O   0  0  0  0  0  0  0  0  0  0  0  0
   28.4780   36.0718   19.4710 C   0  0  2  0  0  0  0  0  0  0  0  0
   29.1011   36.3299   18.2671 N   0  0  0  0  0  0  0  0  0  0  0  0
   28.3611   34.7586   19.9198 C   0  0  0  0  0  0  0  0  0  0  0  0
   27.7279   34.4870   21.1286 C   0  0  1  0  0  0  0  0  0  0  0  0
   27.6198   33.0643   21.6036 C   0  0  0  0  0  0  0  0  0  0  0  0
   27.2126   35.5405   21.8923 C   0  0  1  0  0  0  0  0  0  0  0  0
   26.5377   35.2811   23.2075 C   0  0  0  0  0  0  0  0  0  0  0  0
   27.3321   36.8515   21.4406 C   0  0  0  0  0  0  0  0  0  0  0  0
   27.9626   37.1271   20.2296 C   0  0  2  0  0  0  0  0  0  0  0  0
   28.7094   38.6894   18.5729 C   0  0  2  0  0  0  0  0  0  0  0  0
   28.0738   38.4351   19.7731 N   0  0  0  0  0  0  0  0  0  0  0  0
  1  2  1  1  0  0  0
  1  3  1  0  0  0  0
  1  4  2  0  0  0  0
  1  6  1  0  0  0  0
  5  6  1  0  0  0  0
  7  5  1  1  0  0  0
  7  8  1  0  0  0  0
  7  9  1  0  0  0  0
  9 10  1  1  0  0  0
  9 11  1  0  0  0  0
 11 12  1  1  0  0  0
 11 13  1  0  0  0  0
 13 31  1  0  0  0  0
 14 15  1  0  0  0  0
 15 16  2  0  0  0  0
 15 17  1  0  0  0  0
 17 18  1  0  0  0  0
 18 20  2  0  0  0  0
 19 18  1  1  0  0  0
 19 22  1  0  0  0  0
 19 30  1  0  0  0  0
 21 23  1  6  0  0  0
 21 29  1  0  0  0  0
 21 22  1  0  0  0  0
 23 24  1  0  0  0  0
 24 25  1  1  0  0  0
 24 26  1  0  0  0  0
 26 27  1  1  0  0  0
 26 28  1  0  0  0  0
 29 28  1  6  0  0  0
 29 31  1  0  0  0  0
 30 14  1  6  0  0  0
 30 31  1  0  0  0  0
M  CHG  1   3  -1
M  END
>  <CHROM.1>
-176.48069506,-166.80981902,73.04003570,-53.43293805,-66.76270209,-172.67305586
86.63862064,28.03586588,38.17281400,21.50191657,2.81985357,1.23781288,0.36835549

>  <Name>
ligand

>  <RI>
0

>  <Rbt.Current_Directory>
/home/itssahil/PROJECTS/Mol_Feturizer/New_Systems/rnas/3F2Q

>  <Rbt.Executable>
rbdock ($Id: //depot/dev/client3/rdock/2013.1/src/exe/rbdock.cxx#4 $)

>  <Rbt.Library>
libRbt.so (2013.1, Build901 2013/11/27)

>  <Rbt.Parameter_File>
/export/apps/rDock/src/rDock_2013.1_src/data/scripts/dock_solv.prm

>  <Rbt.Receptor>
prm/blind_docking_80.prm

>  <SCORE>
-28.3141

>  <SCORE.INTER>
-23.4846

>  <SCORE.INTER.CONST>
1

>  <SCORE.INTER.POLAR>
0

>  <SCORE.INTER.ROT>
7

>  <SCORE.INTER.SOLV>
21.1007

>  <SCORE.INTER.VDW>
-30.9566

>  <SCORE.INTER.norm>
-0.757567

>  <SCORE.INTRA>
-4.82955

>  <SCORE.INTRA.DIHEDRAL>
-7.48109

>  <SCORE.INTRA.DIHEDRAL.0>
10.0718

>  <SCORE.INTRA.POLAR>
0

>  <SCORE.INTRA.POLAR.0>
0

>  <SCORE.INTRA.REPUL>
0

>  <SCORE.INTRA.REPUL.0>
0

>  <SCORE.INTRA.SOLV>
0.591078

>  <SCORE.INTRA.SOLV.lig_0>
-48.6963

>  <SCORE.INTRA.VDW>
-1.38454

>  <SCORE.INTRA.VDW.0>
-0.836976

>  <SCORE.INTRA.norm>
-0.155792

>  <SCORE.RESTR>
0

>  <SCORE.RESTR.CAVITY>
0

>  <SCORE.RESTR.norm>
0

>  <SCORE.SYSTEM>
0

>  <SCORE.SYSTEM.CONST>
0

>  <SCORE.SYSTEM.DIHEDRAL>
0

>  <SCORE.SYSTEM.SOLV>
0

>  <SCORE.SYSTEM.norm>
0

>  <SCORE.heavy>
31

>  <SCORE.norm>
-0.913358

>  <RMSD>
6.500

$$$$
ligand
 OpenBabel11021811473D
libRbt.so/2013.1/901 2013/11/27
 31 33  0  0  0  0  0  0  0  0999 V2000
   26.6554   34.9407   15.3514 P   0  0  1  0  0  0  0  0  0  0  0  0
   27.2454   35.6317   14.1406 O   0  0  0  0  0  0  0  0  0  0  0  0
   25.6627   33.9199   14.8638 O   0  5  0  0  0  0  0  0  0  0  0  0
   27.7386   34.2541   16.1369 O   0  0  0  0  0  0  0  0  0  0  0  0
   26.8000   37.0276   16.9025 C   0  0  0  0  0  0  0  0  0  0  0  0
   25.9954   36.0316   16.3194 O   0  0  0  0  0  0  0  0  0  0  0  0
   27.5067   36.4481   18.1191 C   0  0  1  0  0  0  0  0  0  0  0  0
   28.6887   37.1856   18.3478 O   0  0  0  0  0  0  0  0  0  0  0  0
   26.5935   36.5109   19.3433 C   0  0  1  0  0  0  0  0  0  0  0  0
   25.4851   35.6580   19.1523 O   0  0  0  0  0  0  0  0  0  0  0  0
   27.3099   36.2028   20.6655 C   0  0  1  0  0  0  0  0  0  0  0  0
   28.0278   34.9942   20.5522 O   0  0  0  0  0  0  0  0  0  0  0  0
   28.2624   37.3109   21.0854 C   0  0  0  0  0  0  0  0  0  0  0  0
   27.6499   37.5738   23.8311 N   0  0  0  0  0  0  0  0  0  0  0  0
   27.4210   37.6823   25.1877 C   0  0  0  0  0  0  0  0  0  0  0  0
   27.7705   36.7763   25.9494 O   0  0  0  0  0  0  0  0  0  0  0  0
   26.7908   38.8049   25.6853 N   0  0  0  0  0  0  0  0  0  0  0  0
   26.3899   39.8166   24.8331 C   0  0  0  0  0  0  0  0  0  0  0  0
   26.6186   39.7127   23.4769 C   0  0  1  0  0  0  0  0  0  0  0  0
   25.8355   40.8262   25.2643 O   0  0  0  0  0  0  0  0  0  0  0  0
   26.4461   40.6373   21.2837 C   0  0  2  0  0  0  0  0  0  0  0  0
   26.2155   40.7356   22.6406 N   0  0  0  0  0  0  0  0  0  0  0  0
   26.0387   41.6664   20.4382 C   0  0  0  0  0  0  0  0  0  0  0  0
   26.2596   41.5736   19.0677 C   0  0  1  0  0  0  0  0  0  0  0  0
   25.8231   42.6986   18.1703 C   0  0  0  0  0  0  0  0  0  0  0  0
   26.8963   40.4426   18.5440 C   0  0  1  0  0  0  0  0  0  0  0  0
   27.1623   40.3199   17.0720 C   0  0  0  0  0  0  0  0  0  0  0  0
   27.3024   39.4167   19.3922 C   0  0  0  0  0  0  0  0  0  0  0  0
   27.0803   39.5046   20.7645 C   0  0  2  0  0  0  0  0  0  0  0  0
   27.2548   38.5850   22.9706 C   0  0  2  0  0  0  0  0  0  0  0  0
   27.4769   38.4763   21.6112 N   0  0  0  0  0  0  0  0  0  0  0  0
  1  2  1  6  0  0  0
  1  3  1  0  0  0  0
  1  4  2  0  0  0  0
  1  6  1  0  0  0  0
  5  6  1  0  0  0  0
  7  5  1  6  0  0  0
  7  8  1  0  0  0  0
  7  9  1  0  0  0  0
  9 10  1  6  0  0  0
  9 11  1  0  0  0  0
 11 12  1  6  0  0  0
 11 13  1  0  0  0  0
 13 31  1  0  0  0  0
 14 15  1  0  0  0  0
 15 16  2  0  0  0  0
 15 17  1  0  0  0  0
 17 18  1  0  0  0  0
 18 20  2  0  0  0  0
 19 18  1  1  0  0  0
 19 22  1  0  0  0  0
 19 30  1  0  0  0  0
 21 23  1  6  0  0  0
 21 29  1  0  0  0  0
 21 22  1  0  0  0  0
 23 24  1  0  0  0  0
 24 25  1  1  0  0  0
 24 26  1  0  0  0  0
 26 27  1  1  0  0  0
 26 28  1  0  0  0  0
 29 28  1  6  0  0  0
 29 31  1  0  0  0  0
 30 14  1  6  0  0  0
 30 31  1  0  0  0  0
M  CHG  1   3  -1
M  END
>  <CHROM.1>
-80.85535617,-62.29397122,154.94852969,65.99045545,-51.07077034,74.87719394
-91.50686423,26.91042034,37.85693527,19.92869794,-1.59463028,-1.40323189
1.10650391

>  <Name>
ligand

>  <RI>
0

>  <Rbt.Current_Directory>
/home/itssahil/PROJECTS/Mol_Feturizer/New_Systems/rnas/3F2Q

>  <Rbt.Executable>
rbdock ($Id: //depot/dev/client3/rdock/2013.1/src/exe/rbdock.cxx#4 $)

>  <Rbt.Library>
libRbt.so (2013.1, Build901 2013/11/27)

>  <Rbt.Parameter_File>
/export/apps/rDock/src/rDock_2013.1_src/data/scripts/dock_solv.prm

>  <Rbt.Receptor>
prm/blind_docking_100.prm

>  <SCORE>
-17.8102

>  <SCORE.INTER>
-15.0002

>  <SCORE.INTER.CONST>
1

>  <SCORE.INTER.POLAR>
0

>  <SCORE.INTER.ROT>
7

>  <SCORE.INTER.SOLV>
12.0006

>  <SCORE.INTER.VDW>
-22.267

>  <SCORE.INTER.norm>
-0.483877

>  <SCORE.INTRA>
-2.81

>  <SCORE.INTRA.DIHEDRAL>
-3.48203

>  <SCORE.INTRA.DIHEDRAL.0>
10.0718

>  <SCORE.INTRA.POLAR>
0

>  <SCORE.INTRA.POLAR.0>
0

>  <SCORE.INTRA.REPUL>
0

>  <SCORE.INTRA.REPUL.0>
0

>  <SCORE.INTRA.SOLV>
1.30452

>  <SCORE.INTRA.SOLV.lig_0>
-48.6963

>  <SCORE.INTRA.VDW>
-1.72125

>  <SCORE.INTRA.VDW.0>
-0.836976

>  <SCORE.INTRA.norm>
-0.0906452

>  <SCORE.RESTR>
0

>  <SCORE.RESTR.CAVITY>
0

>  <SCORE.RESTR.norm>
0

>  <SCORE.SYSTEM>
0

>  <SCORE.SYSTEM.CONST>
0

>  <SCORE.SYSTEM.DIHEDRAL>
0

>  <SCORE.SYSTEM.SOLV>
0

>  <SCORE.SYSTEM.norm>
0

>  <SCORE.heavy>
31

>  <SCORE.norm>
-0.574522

>  <RMSD>
6.519

$$$$
ligand
 OpenBabel11021811473D
libRbt.so/2013.1/901 2013/11/27
 31 33  0  0  0  0  0  0  0  0999 V2000
   23.5039   43.7858   26.4440 P   0  0  1  0  0  0  0  0  0  0  0  0
   24.0851   43.1762   27.7019 O   0  0  0  0  0  0  0  0  0  0  0  0
   22.0151   43.9020   26.6313 O   0  5  0  0  0  0  0  0  0  0  0  0
   24.0897   45.1510   26.2098 O   0  0  0  0  0  0  0  0  0  0  0  0
   25.2530   42.6003   24.9219 C   0  0  0  0  0  0  0  0  0  0  0  0
   23.8998   42.8841   25.1820 O   0  0  0  0  0  0  0  0  0  0  0  0
   25.3428   41.6308   23.7526 C   0  0  1  0  0  0  0  0  0  0  0  0
   24.8800   42.2832   22.5892 O   0  0  0  0  0  0  0  0  0  0  0  0
   26.7849   41.1607   23.5626 C   0  0  1  0  0  0  0  0  0  0  0  0
   27.3032   40.7105   24.7959 O   0  0  0  0  0  0  0  0  0  0  0  0
   26.9490   40.0956   22.4693 C   0  0  1  0  0  0  0  0  0  0  0  0
   26.6216   40.6439   21.2119 O   0  0  0  0  0  0  0  0  0  0  0  0
   28.3584   39.5281   22.4140 C   0  0  0  0  0  0  0  0  0  0  0  0
   27.1735   37.4314   23.8915 N   0  0  0  0  0  0  0  0  0  0  0  0
   26.5380   36.4532   24.6290 C   0  0  0  0  0  0  0  0  0  0  0  0
   26.1009   36.7113   25.7540 O   0  0  0  0  0  0  0  0  0  0  0  0
   26.4034   35.1834   24.1049 N   0  0  0  0  0  0  0  0  0  0  0  0
   26.9006   34.8896   22.8492 C   0  0  0  0  0  0  0  0  0  0  0  0
   27.5346   35.8651   22.1083 C   0  0  1  0  0  0  0  0  0  0  0  0
   26.7794   33.7649   22.3667 O   0  0  0  0  0  0  0  0  0  0  0  0
   28.6525   36.5289   20.1072 C   0  0  2  0  0  0  0  0  0  0  0  0
   28.0212   35.5548   20.8532 N   0  0  0  0  0  0  0  0  0  0  0  0
   29.1457   36.2179   18.8423 C   0  0  0  0  0  0  0  0  0  0  0  0
   29.7906   37.1909   18.0851 C   0  0  1  0  0  0  0  0  0  0  0  0
   30.3076   36.8411   16.7170 C   0  0  0  0  0  0  0  0  0  0  0  0
   29.9378   38.4840   18.5998 C   0  0  1  0  0  0  0  0  0  0  0  0
   30.6153   39.5591   17.8012 C   0  0  0  0  0  0  0  0  0  0  0  0
   29.4430   38.7908   19.8639 C   0  0  0  0  0  0  0  0  0  0  0  0
   28.7995   37.8188   20.6262 C   0  0  2  0  0  0  0  0  0  0  0  0
   27.6713   37.1461   22.6306 C   0  0  2  0  0  0  0  0  0  0  0  0
   28.3136   38.1218   21.8925 N   0  0  0  0  0  0  0  0  0  0  0  0
  1  2  1  1  0  0  0
  1  3  1  0  0  0  0
  1  4  2  0  0  0  0
  1  6  1  0  0  0  0
  5  6  1  0  0  0  0
  7  5  1  1  0  0  0
  7  8  1  0  0  0  0
  7  9  1  0  0  0  0
  9 10  1  1  0  0  0
  9 11  1  0  0  0  0
 11 12  1  6  0  0  0
 11 13  1  0  0  0  0
 13 31  1  0  0  0  0
 14 15  1  0  0  0  0
 15 16  2  0  0  0  0
 15 17  1  0  0  0  0
 17 18  1  0  0  0  0
 18 20  2  0  0  0  0
 19 18  1  6  0  0  0
 19 22  1  0  0  0  0
 19 30  1  0  0  0  0
 21 23  1  1  0  0  0
 21 29  1  0  0  0  0
 21 22  1  0  0  0  0
 23 24  1  0  0  0  0
 24 25  1  6  0  0  0
 24 26  1  0  0  0  0
 26 27  1  6  0  0  0
 26 28  1  0  0  0  0
 29 28  1  1  0  0  0
 29 31  1  0  0  0  0
 30 14  1  1  0  0  0
 30 31  1  0  0  0  0
M  CHG  1   3  -1
M  END
>  <CHROM.1>
174.90551768,-55.55850402,66.24068139,50.39108081,64.91893834,151.68941902
109.29298276,26.75373488,39.37202504,22.84902691,-2.64261686,-0.98899943
2.89616260

>  <Name>
ligand

>  <RI>
0

>  <Rbt.Current_Directory>
/home/itssahil/PROJECTS/Mol_Feturizer/New_Systems/rnas/3F2Q

>  <Rbt.Executable>
rbdock ($Id: //depot/dev/client3/rdock/2013.1/src/exe/rbdock.cxx#4 $)

>  <Rbt.Library>
libRbt.so (2013.1, Build901 2013/11/27)

>  <Rbt.Parameter_File>
/export/apps/rDock/src/rDock_2013.1_src/data/scripts/dock_solv.prm

>  <Rbt.Receptor>
prm/pocket_docking_8.prm

>  <SCORE>
-31.0115

>  <SCORE.INTER>
-26.4474

>  <SCORE.INTER.CONST>
1

>  <SCORE.INTER.POLAR>
0

>  <SCORE.INTER.ROT>
7

>  <SCORE.INTER.SOLV>
11.595

>  <SCORE.INTER.VDW>
-29.7632

>  <SCORE.INTER.norm>
-0.853142

>  <SCORE.INTRA>
-4.56411

>  <SCORE.INTRA.DIHEDRAL>
-5.70952

>  <SCORE.INTRA.DIHEDRAL.0>
10.0718

>  <SCORE.INTRA.POLAR>
0

>  <SCORE.INTRA.POLAR.0>
0

>  <SCORE.INTRA.REPUL>
0

>  <SCORE.INTRA.REPUL.0>
0

>  <SCORE.INTRA.SOLV>
-1.47529

>  <SCORE.INTRA.SOLV.lig_0>
-48.6963

>  <SCORE.INTRA.VDW>
-0.971699

>  <SCORE.INTRA.VDW.0>
-0.836976

>  <SCORE.INTRA.norm>
-0.147229

>  <SCORE.RESTR>
0

>  <SCORE.RESTR.CAVITY>
0

>  <SCORE.RESTR.norm>
0

>  <SCORE.SYSTEM>
0

>  <SCORE.SYSTEM.CONST>
0

>  <SCORE.SYSTEM.DIHEDRAL>
0

>  <SCORE.SYSTEM.SOLV>
0

>  <SCORE.SYSTEM.norm>
0

>  <SCORE.heavy>
31

>  <SCORE.norm>
-1.00037

>  <RMSD>
6.521

$$$$
ligand
 OpenBabel11021811473D
libRbt.so/2013.1/901 2013/11/27
 31 33  0  0  0  0  0  0  0  0999 V2000
   29.3805   34.5245   13.6644 P   0  0  1  0  0  0  0  0  0  0  0  0
   28.9734   35.4717   12.5559 O   0  0  0  0  0  0  0  0  0  0  0  0
   28.6557   33.2230   13.4506 O   0  5  0  0  0  0  0  0  0  0  0  0
   30.8649   34.2863   13.6250 O   0  0  0  0  0  0  0  0  0  0  0  0
   29.3585   34.4981   16.2683 C   0  0  0  0  0  0  0  0  0  0  0  0
   29.0510   35.1900   15.0826 O   0  0  0  0  0  0  0  0  0  0  0  0
   28.9076   35.3285   17.4610 C   0  0  1  0  0  0  0  0  0  0  0  0
   29.0145   34.5390   18.6265 O   0  0  0  0  0  0  0  0  0  0  0  0
   29.7676   36.5860   17.5877 C   0  0  1  0  0  0  0  0  0  0  0  0
   29.6055   37.3890   16.4382 O   0  0  0  0  0  0  0  0  0  0  0  0
   29.5026   37.3897   18.8684 C   0  0  1  0  0  0  0  0  0  0  0  0
   30.3670   38.5026   18.9242 O   0  0  0  0  0  0  0  0  0  0  0  0
   28.0638   37.8705   18.9686 C   0  0  0  0  0  0  0  0  0  0  0  0
   28.2910   40.6779   18.7437 N   0  0  0  0  0  0  0  0  0  0  0  0
   28.3599   42.0455   18.5722 C   0  0  0  0  0  0  0  0  0  0  0  0
   28.6418   42.5180   17.4675 O   0  0  0  0  0  0  0  0  0  0  0  0
   28.1213   42.8802   19.6453 N   0  0  0  0  0  0  0  0  0  0  0  0
   27.8148   42.3531   20.8857 C   0  0  0  0  0  0  0  0  0  0  0  0
   27.7432   40.9868   21.0606 C   0  0  1  0  0  0  0  0  0  0  0  0
   27.5911   43.0856   21.8480 O   0  0  0  0  0  0  0  0  0  0  0  0
   27.3543   39.1116   22.4843 C   0  0  2  0  0  0  0  0  0  0  0  0
   27.4308   40.4777   22.3062 N   0  0  0  0  0  0  0  0  0  0  0  0
   27.0415   38.5958   23.7397 C   0  0  0  0  0  0  0  0  0  0  0  0
   26.9693   37.2197   23.9316 C   0  0  1  0  0  0  0  0  0  0  0  0
   26.6199   36.6799   25.2910 C   0  0  0  0  0  0  0  0  0  0  0  0
   27.2090   36.3571   22.8560 C   0  0  1  0  0  0  0  0  0  0  0  0
   27.1238   34.8685   23.0277 C   0  0  0  0  0  0  0  0  0  0  0  0
   27.5205   36.8764   21.6029 C   0  0  0  0  0  0  0  0  0  0  0  0
   27.5968   38.2534   21.4075 C   0  0  2  0  0  0  0  0  0  0  0  0
   27.9807   40.1416   19.9827 C   0  0  2  0  0  0  0  0  0  0  0  0
   27.9173   38.7726   20.1589 N   0  0  0  0  0  0  0  0  0  0  0  0
  1  2  1  6  0  0  0
  1  3  1  0  0  0  0
  1  4  2  0  0  0  0
  1  6  1  0  0  0  0
  5  6  1  0  0  0  0
  7  5  1  6  0  0  0
  7  8  1  0  0  0  0
  7  9  1  0  0  0  0
  9 10  1  6  0  0  0
  9 11  1  0  0  0  0
 11 12  1  6  0  0  0
 11 13  1  0  0  0  0
 13 31  1  0  0  0  0
 14 15  1  0  0  0  0
 15 16  2  0  0  0  0
 15 17  1  0  0  0  0
 17 18  1  0  0  0  0
 18 20  2  0  0  0  0
 19 18  1  6  0  0  0
 19 22  1  0  0  0  0
 19 30  1  0  0  0  0
 21 23  1  1  0  0  0
 21 29  1  0  0  0  0
 21 22  1  0  0  0  0
 23 24  1  0  0  0  0
 24 25  1  6  0  0  0
 24 26  1  0  0  0  0
 26 27  1  6  0  0  0
 26 28  1  0  0  0  0
 29 28  1  1  0  0  0
 29 31  1  0  0  0  0
 30 14  1  1  0  0  0
 30 31  1  0  0  0  0
M  CHG  1   3  -1
M  END
>  <CHROM.1>
-178.29215455,-179.24693461,170.37756144,62.31713346,178.02867772,-173.68502031
-89.18159130,28.44410456,37.73999856,18.84349318,-0.60172460,1.31963439,0.02746100

>  <Name>
ligand

>  <RI>
0

>  <Rbt.Current_Directory>
/home/itssahil/PROJECTS/Mol_Feturizer/New_Systems/rnas/3F2Q

>  <Rbt.Executable>
rbdock ($Id: //depot/dev/client3/rdock/2013.1/src/exe/rbdock.cxx#4 $)

>  <Rbt.Library>
libRbt.so (2013.1, Build901 2013/11/27)

>  <Rbt.Parameter_File>
/export/apps/rDock/src/rDock_2013.1_src/data/scripts/dock_solv.prm

>  <Rbt.Receptor>
prm/pocket_docking_7.prm

>  <SCORE>
-25.3689

>  <SCORE.INTER>
-19.8155

>  <SCORE.INTER.CONST>
1

>  <SCORE.INTER.POLAR>
0

>  <SCORE.INTER.ROT>
7

>  <SCORE.INTER.SOLV>
9.49746

>  <SCORE.INTER.VDW>
-24.6428

>  <SCORE.INTER.norm>
-0.639209

>  <SCORE.INTRA>
-5.55346

>  <SCORE.INTRA.DIHEDRAL>
-8.02435

>  <SCORE.INTRA.DIHEDRAL.0>
10.0718

>  <SCORE.INTRA.POLAR>
0

>  <SCORE.INTRA.POLAR.0>
0

>  <SCORE.INTRA.REPUL>
0

>  <SCORE.INTRA.REPUL.0>
0

>  <SCORE.INTRA.SOLV>
-0.551607

>  <SCORE.INTRA.SOLV.lig_0>
-48.6963

>  <SCORE.INTRA.VDW>
-1.26548

>  <SCORE.INTRA.VDW.0>
-0.836976

>  <SCORE.INTRA.norm>
-0.179144

>  <SCORE.RESTR>
0

>  <SCORE.RESTR.CAVITY>
0

>  <SCORE.RESTR.norm>
0

>  <SCORE.SYSTEM>
0

>  <SCORE.SYSTEM.CONST>
0

>  <SCORE.SYSTEM.DIHEDRAL>
0

>  <SCORE.SYSTEM.SOLV>
0

>  <SCORE.SYSTEM.norm>
0

>  <SCORE.heavy>
31

>  <SCORE.norm>
-0.818353

>  <RMSD>
6.534

$$$$
ligand
 OpenBabel11021811473D
libRbt.so/2013.1/901 2013/11/27
 31 33  0  0  0  0  0  0  0  0999 V2000
   31.9086   34.8848   15.6726 P   0  0  1  0  0  0  0  0  0  0  0  0
   33.3239   35.0252   15.1541 O   0  0  0  0  0  0  0  0  0  0  0  0
   30.9678   35.1651   14.5318 O   0  5  0  0  0  0  0  0  0  0  0  0
   31.6786   33.4891   16.1833 O   0  0  0  0  0  0  0  0  0  0  0  0
   31.7384   37.2686   16.7071 C   0  0  0  0  0  0  0  0  0  0  0  0
   31.6928   35.8772   16.9100 O   0  0  0  0  0  0  0  0  0  0  0  0
   31.5156   37.9736   18.0371 C   0  0  1  0  0  0  0  0  0  0  0  0
   31.6119   39.3669   17.8306 O   0  0  0  0  0  0  0  0  0  0  0  0
   30.1436   37.6122   18.6060 C   0  0  1  0  0  0  0  0  0  0  0  0
   30.0376   38.0921   19.9292 O   0  0  0  0  0  0  0  0  0  0  0  0
   28.9696   38.0970   17.7439 C   0  0  1  0  0  0  0  0  0  0  0  0
   28.9079   37.3469   16.5513 O   0  0  0  0  0  0  0  0  0  0  0  0
   27.6351   37.9968   18.4653 C   0  0  0  0  0  0  0  0  0  0  0  0
   28.0379   40.7934   18.4849 N   0  0  0  0  0  0  0  0  0  0  0  0
   28.1854   42.1648   18.4387 C   0  0  0  0  0  0  0  0  0  0  0  0
   28.3684   42.7321   17.3580 O   0  0  0  0  0  0  0  0  0  0  0  0
   28.1367   42.8958   19.6084 N   0  0  0  0  0  0  0  0  0  0  0  0
   27.9413   42.2616   20.8209 C   0  0  0  0  0  0  0  0  0  0  0  0
   27.7916   40.8913   20.8710 C   0  0  1  0  0  0  0  0  0  0  0  0
   27.8868   42.9017   21.8696 O   0  0  0  0  0  0  0  0  0  0  0  0
   27.4382   38.9047   22.1450 C   0  0  2  0  0  0  0  0  0  0  0  0
   27.5924   40.2748   22.0911 N   0  0  0  0  0  0  0  0  0  0  0  0
   27.2393   38.2806   23.3742 C   0  0  0  0  0  0  0  0  0  0  0  0
   27.0903   36.8988   23.4403 C   0  0  1  0  0  0  0  0  0  0  0  0
   26.8656   36.2422   24.7744 C   0  0  0  0  0  0  0  0  0  0  0  0
   27.1378   36.1403   22.2651 C   0  0  1  0  0  0  0  0  0  0  0  0
   26.9653   34.6498   22.3021 C   0  0  0  0  0  0  0  0  0  0  0  0
   27.3360   36.7678   21.0388 C   0  0  0  0  0  0  0  0  0  0  0  0
   27.4887   38.1505   20.9688 C   0  0  2  0  0  0  0  0  0  0  0  0
   27.8379   40.1505   19.6956 C   0  0  2  0  0  0  0  0  0  0  0  0
   27.6963   38.7769   19.7457 N   0  0  0  0  0  0  0  0  0  0  0  0
  1  2  1  6  0  0  0
  1  3  1  0  0  0  0
  1  4  2  0  0  0  0
  1  6  1  0  0  0  0
  5  6  1  0  0  0  0
  7  5  1  6  0  0  0
  7  8  1  0  0  0  0
  7  9  1  0  0  0  0
  9 10  1  1  0  0  0
  9 11  1  0  0  0  0
 11 12  1  6  0  0  0
 11 13  1  0  0  0  0
 13 31  1  0  0  0  0
 14 15  1  0  0  0  0
 15 16  2  0  0  0  0
 15 17  1  0  0  0  0
 17 18  1  0  0  0  0
 18 20  2  0  0  0  0
 19 18  1  6  0  0  0
 19 22  1  0  0  0  0
 19 30  1  0  0  0  0
 21 23  1  1  0  0  0
 21 29  1  0  0  0  0
 21 22  1  0  0  0  0
 23 24  1  0  0  0  0
 24 25  1  6  0  0  0
 24 26  1  0  0  0  0
 26 27  1  6  0  0  0
 26 28  1  0  0  0  0
 29 28  1  1  0  0  0
 29 31  1  0  0  0  0
 30 14  1  1  0  0  0
 30 31  1  0  0  0  0
M  CHG  1   3  -1
M  END
>  <CHROM.1>
-179.54787588,65.66140252,177.88101984,170.50949190,70.53340303,56.92435840
-120.19727764,29.15985833,38.12964035,19.12672385,0.32441567,-1.00606200
2.85718336

>  <Name>
ligand

>  <RI>
0

>  <Rbt.Current_Directory>
/home/itssahil/PROJECTS/Mol_Feturizer/New_Systems/rnas/3F2Q

>  <Rbt.Executable>
rbdock ($Id: //depot/dev/client3/rdock/2013.1/src/exe/rbdock.cxx#4 $)

>  <Rbt.Library>
libRbt.so (2013.1, Build901 2013/11/27)

>  <Rbt.Parameter_File>
/export/apps/rDock/src/rDock_2013.1_src/data/scripts/dock_solv.prm

>  <Rbt.Receptor>
prm/pocket_docking_7.prm

>  <SCORE>
-25.6156

>  <SCORE.INTER>
-21.0711

>  <SCORE.INTER.CONST>
1

>  <SCORE.INTER.POLAR>
0

>  <SCORE.INTER.ROT>
7

>  <SCORE.INTER.SOLV>
12.3983

>  <SCORE.INTER.VDW>
-26.4468

>  <SCORE.INTER.norm>
-0.679713

>  <SCORE.INTRA>
-4.5445

>  <SCORE.INTRA.DIHEDRAL>
-7.92377

>  <SCORE.INTRA.DIHEDRAL.0>
10.0718

>  <SCORE.INTRA.POLAR>
0

>  <SCORE.INTRA.POLAR.0>
0

>  <SCORE.INTRA.REPUL>
0

>  <SCORE.INTRA.REPUL.0>
0

>  <SCORE.INTRA.SOLV>
-0.186346

>  <SCORE.INTRA.SOLV.lig_0>
-48.6963

>  <SCORE.INTRA.VDW>
-0.48944

>  <SCORE.INTRA.VDW.0>
-0.836976

>  <SCORE.INTRA.norm>
-0.146597

>  <SCORE.RESTR>
0

>  <SCORE.RESTR.CAVITY>
0

>  <SCORE.RESTR.norm>
0

>  <SCORE.SYSTEM>
0

>  <SCORE.SYSTEM.CONST>
0

>  <SCORE.SYSTEM.DIHEDRAL>
0

>  <SCORE.SYSTEM.SOLV>
0

>  <SCORE.SYSTEM.norm>
0

>  <SCORE.heavy>
31

>  <SCORE.norm>
-0.82631

>  <RMSD>
6.555

$$$$
ligand
 OpenBabel11021811473D
libRbt.so/2013.1/901 2013/11/27
 31 33  0  0  0  0  0  0  0  0999 V2000
   29.4323   34.5685   13.8665 P   0  0  1  0  0  0  0  0  0  0  0  0
   28.8497   35.5478   12.8699 O   0  0  0  0  0  0  0  0  0  0  0  0
   28.4494   33.4416   14.0370 O   0  5  0  0  0  0  0  0  0  0  0  0
   30.7385   34.0243   13.3571 O   0  0  0  0  0  0  0  0  0  0  0  0
   30.2042   34.6004   16.3534 C   0  0  0  0  0  0  0  0  0  0  0  0
   29.7461   35.3283   15.2401 O   0  0  0  0  0  0  0  0  0  0  0  0
   30.3062   35.5334   17.5511 C   0  0  1  0  0  0  0  0  0  0  0  0
   31.3119   36.4901   17.2932 O   0  0  0  0  0  0  0  0  0  0  0  0
   28.9653   36.2232   17.8021 C   0  0  1  0  0  0  0  0  0  0  0  0
   27.9701   35.2517   18.0433 O   0  0  0  0  0  0  0  0  0  0  0  0
   29.0078   37.2661   18.9277 C   0  0  1  0  0  0  0  0  0  0  0  0
   29.9596   38.2614   18.6244 O   0  0  0  0  0  0  0  0  0  0  0  0
   27.6577   37.9235   19.1657 C   0  0  0  0  0  0  0  0  0  0  0  0
   28.1271   40.6862   18.8047 N   0  0  0  0  0  0  0  0  0  0  0  0
   28.3064   42.0348   18.5729 C   0  0  0  0  0  0  0  0  0  0  0  0
   28.4872   42.4472   17.4238 O   0  0  0  0  0  0  0  0  0  0  0  0
   28.2921   42.9170   19.6343 N   0  0  0  0  0  0  0  0  0  0  0  0
   28.0994   42.4563   20.9231 C   0  0  0  0  0  0  0  0  0  0  0  0
   27.9179   41.1094   21.1587 C   0  0  1  0  0  0  0  0  0  0  0  0
   28.0754   43.2325   21.8768 O   0  0  0  0  0  0  0  0  0  0  0  0
   27.5359   39.3212   22.6920 C   0  0  2  0  0  0  0  0  0  0  0  0
   27.7219   40.6674   22.4526 N   0  0  0  0  0  0  0  0  0  0  0  0
   27.3402   38.8729   23.9960 C   0  0  0  0  0  0  0  0  0  0  0  0
   27.1593   37.5167   24.2489 C   0  0  1  0  0  0  0  0  0  0  0  0
   26.9385   37.0508   25.6616 C   0  0  0  0  0  0  0  0  0  0  0  0
   27.1717   36.6065   23.1859 C   0  0  1  0  0  0  0  0  0  0  0  0
   26.9644   35.1393   23.4247 C   0  0  0  0  0  0  0  0  0  0  0  0
   27.3669   37.0586   21.8842 C   0  0  0  0  0  0  0  0  0  0  0  0
   27.5514   38.4151   21.6273 C   0  0  2  0  0  0  0  0  0  0  0  0
   27.9295   40.2167   20.0930 C   0  0  2  0  0  0  0  0  0  0  0  0
   27.7561   38.8664   20.3289 N   0  0  0  0  0  0  0  0  0  0  0  0
  1  2  1  6  0  0  0
  1  3  1  0  0  0  0
  1  4  2  0  0  0  0
  1  6  1  0  0  0  0
  5  6  1  0  0  0  0
  7  5  1  6  0  0  0
  7  8  1  0  0  0  0
  7  9  1  0  0  0  0
  9 10  1  1  0  0  0
  9 11  1  0  0  0  0
 11 12  1  6  0  0  0
 11 13  1  0  0  0  0
 13 31  1  0  0  0  0
 14 15  1  0  0  0  0
 15 16  2  0  0  0  0
 15 17  1  0  0  0  0
 17 18  1  0  0  0  0
 18 20  2  0  0  0  0
 19 18  1  6  0  0  0
 19 22  1  0  0  0  0
 19 30  1  0  0  0  0
 21 23  1  1  0  0  0
 21 29  1  0  0  0  0
 21 22  1  0  0  0  0
 23 24  1  0  0  0  0
 24 25  1  6  0  0  0
 24 26  1  0  0  0  0
 26 27  1  6  0  0  0
 26 28  1  0  0  0  0
 29 28  1  1  0  0  0
 29 31  1  0  0  0  0
 30 14  1  1  0  0  0
 30 31  1  0  0  0  0
M  CHG  1   3  -1
M  END
>  <CHROM.1>
-175.07826353,175.33979292,-65.74567753,59.27170156,58.79492034,176.62728593
-87.57347212,28.52450119,37.80976136,18.99051798,-0.56191077,1.31794732,-0.01063703

>  <Name>
ligand

>  <RI>
0

>  <Rbt.Current_Directory>
/home/itssahil/PROJECTS/Mol_Feturizer/New_Systems/rnas/3F2Q

>  <Rbt.Executable>
rbdock ($Id: //depot/dev/client3/rdock/2013.1/src/exe/rbdock.cxx#4 $)

>  <Rbt.Library>
libRbt.so (2013.1, Build901 2013/11/27)

>  <Rbt.Parameter_File>
/export/apps/rDock/src/rDock_2013.1_src/data/scripts/dock_solv.prm

>  <Rbt.Receptor>
prm/pocket_docking_6.prm

>  <SCORE>
-25.0606

>  <SCORE.INTER>
-19.6534

>  <SCORE.INTER.CONST>
1

>  <SCORE.INTER.POLAR>
0

>  <SCORE.INTER.ROT>
7

>  <SCORE.INTER.SOLV>
8.37502

>  <SCORE.INTER.VDW>
-24.1606

>  <SCORE.INTER.norm>
-0.63398

>  <SCORE.INTRA>
-5.40722

>  <SCORE.INTRA.DIHEDRAL>
-8.22022

>  <SCORE.INTRA.DIHEDRAL.0>
10.0718

>  <SCORE.INTRA.POLAR>
0

>  <SCORE.INTRA.POLAR.0>
0

>  <SCORE.INTRA.REPUL>
0

>  <SCORE.INTRA.REPUL.0>
0

>  <SCORE.INTRA.SOLV>
-0.500334

>  <SCORE.INTRA.SOLV.lig_0>
-48.6963

>  <SCORE.INTRA.VDW>
-1.04695

>  <SCORE.INTRA.VDW.0>
-0.836976

>  <SCORE.INTRA.norm>
-0.174427

>  <SCORE.RESTR>
0

>  <SCORE.RESTR.CAVITY>
0

>  <SCORE.RESTR.norm>
0

>  <SCORE.SYSTEM>
0

>  <SCORE.SYSTEM.CONST>
0

>  <SCORE.SYSTEM.DIHEDRAL>
0

>  <SCORE.SYSTEM.SOLV>
0

>  <SCORE.SYSTEM.norm>
0

>  <SCORE.heavy>
31

>  <SCORE.norm>
-0.808406

>  <RMSD>
6.564

$$$$
ligand
 OpenBabel11021811473D
libRbt.so/2013.1/901 2013/11/27
 31 33  0  0  0  0  0  0  0  0999 V2000
   27.8919   32.8245   16.0947 P   0  0  1  0  0  0  0  0  0  0  0  0
   26.9125   31.9519   15.3391 O   0  0  0  0  0  0  0  0  0  0  0  0
   29.1430   32.0211   16.3283 O   0  5  0  0  0  0  0  0  0  0  0  0
   28.2240   34.0503   15.2892 O   0  0  0  0  0  0  0  0  0  0  0  0
   26.0904   34.1689   17.4095 C   0  0  0  0  0  0  0  0  0  0  0  0
   27.2173   33.3280   17.4563 O   0  0  0  0  0  0  0  0  0  0  0  0
   25.7734   34.6559   18.8158 C   0  0  1  0  0  0  0  0  0  0  0  0
   25.4171   33.5433   19.6087 O   0  0  0  0  0  0  0  0  0  0  0  0
   26.9837   35.3721   19.4149 C   0  0  1  0  0  0  0  0  0  0  0  0
   27.9559   34.4223   19.7961 O   0  0  0  0  0  0  0  0  0  0  0  0
   27.5853   36.4440   18.4954 C   0  0  1  0  0  0  0  0  0  0  0  0
   26.6247   37.4413   18.2280 O   0  0  0  0  0  0  0  0  0  0  0  0
   28.8256   37.0929   19.0887 C   0  0  0  0  0  0  0  0  0  0  0  0
   28.8856   39.7264   18.0665 N   0  0  0  0  0  0  0  0  0  0  0  0
   28.8837   40.9868   17.5045 C   0  0  0  0  0  0  0  0  0  0  0  0
   29.3064   41.1542   16.3572 O   0  0  0  0  0  0  0  0  0  0  0  0
   28.4156   42.0592   18.2366 N   0  0  0  0  0  0  0  0  0  0  0  0
   27.9506   41.8756   19.5252 C   0  0  0  0  0  0  0  0  0  0  0  0
   27.9491   40.6171   20.0897 C   0  0  1  0  0  0  0  0  0  0  0  0
   27.5224   42.8209   20.1852 O   0  0  0  0  0  0  0  0  0  0  0  0
   27.4694   39.1935   21.9439 C   0  0  2  0  0  0  0  0  0  0  0  0
   27.4763   40.4515   21.3770 N   0  0  0  0  0  0  0  0  0  0  0  0
   26.9951   39.0243   23.2424 C   0  0  0  0  0  0  0  0  0  0  0  0
   26.9909   37.7612   23.8258 C   0  0  1  0  0  0  0  0  0  0  0  0
   26.4653   37.5945   25.2249 C   0  0  0  0  0  0  0  0  0  0  0  0
   27.4626   36.6616   23.0998 C   0  0  1  0  0  0  0  0  0  0  0  0
   27.4570   35.2843   23.6960 C   0  0  0  0  0  0  0  0  0  0  0  0
   27.9351   36.8348   21.8023 C   0  0  0  0  0  0  0  0  0  0  0  0
   27.9437   38.0981   21.2158 C   0  0  2  0  0  0  0  0  0  0  0  0
   28.4177   39.5332   19.3561 C   0  0  2  0  0  0  0  0  0  0  0  0
   28.4244   38.2735   19.9236 N   0  0  0  0  0  0  0  0  0  0  0  0
  1  2  1  6  0  0  0
  1  3  1  0  0  0  0
  1  4  2  0  0  0  0
  1  6  1  0  0  0  0
  5  6  1  0  0  0  0
  7  5  1  6  0  0  0
  7  8  1  0  0  0  0
  7  9  1  0  0  0  0
  9 10  1  6  0  0  0
  9 11  1  0  0  0  0
 11 12  1  1  0  0  0
 11 13  1  0  0  0  0
 13 31  1  0  0  0  0
 14 15  1  0  0  0  0
 15 16  2  0  0  0  0
 15 17  1  0  0  0  0
 17 18  1  0  0  0  0
 18 20  2  0  0  0  0
 19 18  1  6  0  0  0
 19 22  1  0  0  0  0
 19 30  1  0  0  0  0
 21 23  1  1  0  0  0
 21 29  1  0  0  0  0
 21 22  1  0  0  0  0
 23 24  1  0  0  0  0
 24 25  1  6  0  0  0
 24 26  1  0  0  0  0
 26 27  1  6  0  0  0
 26 28  1  0  0  0  0
 29 28  1  1  0  0  0
 29 31  1  0  0  0  0
 30 14  1  1  0  0  0
 30 31  1  0  0  0  0
M  CHG  1   3  -1
M  END
>  <CHROM.1>
-171.98165332,-64.19965971,-64.03074847,-75.18881493,60.83707775,-88.86286553
79.75444991,27.63539715,36.96137474,19.29657757,-1.75227780,1.32333500,0.68718554

>  <Name>
ligand

>  <RI>
0

>  <Rbt.Current_Directory>
/home/itssahil/PROJECTS/Mol_Feturizer/New_Systems/rnas/3F2Q

>  <Rbt.Executable>
rbdock ($Id: //depot/dev/client3/rdock/2013.1/src/exe/rbdock.cxx#4 $)

>  <Rbt.Library>
libRbt.so (2013.1, Build901 2013/11/27)

>  <Rbt.Parameter_File>
/export/apps/rDock/src/rDock_2013.1_src/data/scripts/dock_solv.prm

>  <Rbt.Receptor>
prm/pocket_docking_3.prm

>  <SCORE>
-19.5014

>  <SCORE.INTER>
-15.7625

>  <SCORE.INTER.CONST>
1

>  <SCORE.INTER.POLAR>
0

>  <SCORE.INTER.ROT>
7

>  <SCORE.INTER.SOLV>
10.8231

>  <SCORE.INTER.VDW>
-22.3827

>  <SCORE.INTER.norm>
-0.508469

>  <SCORE.INTRA>
-3.82114

>  <SCORE.INTRA.DIHEDRAL>
-5.23885

>  <SCORE.INTRA.DIHEDRAL.0>
10.0718

>  <SCORE.INTRA.POLAR>
0

>  <SCORE.INTRA.POLAR.0>
0

>  <SCORE.INTRA.REPUL>
0

>  <SCORE.INTRA.REPUL.0>
0

>  <SCORE.INTRA.SOLV>
0.0435434

>  <SCORE.INTRA.SOLV.lig_0>
-48.6963

>  <SCORE.INTRA.VDW>
-1.22348

>  <SCORE.INTRA.VDW.0>
-0.836976

>  <SCORE.INTRA.norm>
-0.123263

>  <SCORE.RESTR>
0.0822723

>  <SCORE.RESTR.CAVITY>
0.0822723

>  <SCORE.RESTR.norm>
0.00265394

>  <SCORE.SYSTEM>
0

>  <SCORE.SYSTEM.CONST>
0

>  <SCORE.SYSTEM.DIHEDRAL>
0

>  <SCORE.SYSTEM.SOLV>
0

>  <SCORE.SYSTEM.norm>
0

>  <SCORE.heavy>
31

>  <SCORE.norm>
-0.629078

>  <RMSD>
6.571

$$$$
ligand
 OpenBabel11021811473D
libRbt.so/2013.1/901 2013/11/27
 31 33  0  0  0  0  0  0  0  0999 V2000
   26.8556   33.3562   15.5998 P   0  0  1  0  0  0  0  0  0  0  0  0
   27.8803   32.3335   16.0421 O   0  0  0  0  0  0  0  0  0  0  0  0
   25.9507   32.6991   14.5926 O   0  5  0  0  0  0  0  0  0  0  0  0
   26.0440   33.8212   16.7775 O   0  0  0  0  0  0  0  0  0  0  0  0
   28.7866   35.1033   15.6202 C   0  0  0  0  0  0  0  0  0  0  0  0
   27.6051   34.6424   15.0111 O   0  0  0  0  0  0  0  0  0  0  0  0
   28.4485   35.6893   16.9832 C   0  0  1  0  0  0  0  0  0  0  0  0
   28.3536   34.6344   17.9167 O   0  0  0  0  0  0  0  0  0  0  0  0
   29.5237   36.6872   17.4133 C   0  0  1  0  0  0  0  0  0  0  0  0
   29.6609   37.6899   16.4294 O   0  0  0  0  0  0  0  0  0  0  0  0
   29.2798   37.2993   18.7997 C   0  0  1  0  0  0  0  0  0  0  0  0
   30.2736   38.2593   19.0822 O   0  0  0  0  0  0  0  0  0  0  0  0
   27.9107   37.9496   18.9181 C   0  0  0  0  0  0  0  0  0  0  0  0
   28.2193   40.7534   18.7544 N   0  0  0  0  0  0  0  0  0  0  0  0
   28.3240   42.1225   18.6157 C   0  0  0  0  0  0  0  0  0  0  0  0
   28.5503   42.6175   17.5080 O   0  0  0  0  0  0  0  0  0  0  0  0
   28.1838   42.9329   19.7241 N   0  0  0  0  0  0  0  0  0  0  0  0
   27.9398   42.3802   20.9673 C   0  0  0  0  0  0  0  0  0  0  0  0
   27.8327   41.0125   21.1097 C   0  0  1  0  0  0  0  0  0  0  0  0
   27.8039   43.0913   21.9615 O   0  0  0  0  0  0  0  0  0  0  0  0
   27.4720   39.1103   22.5048 C   0  0  2  0  0  0  0  0  0  0  0  0
   27.5839   40.4779   22.3589 N   0  0  0  0  0  0  0  0  0  0  0  0
   27.2232   38.5688   23.7636 C   0  0  0  0  0  0  0  0  0  0  0  0
   27.1162   37.1907   23.9227 C   0  0  1  0  0  0  0  0  0  0  0  0
   26.8366   36.6232   25.2870 C   0  0  0  0  0  0  0  0  0  0  0  0
   27.2563   36.3524   22.8109 C   0  0  1  0  0  0  0  0  0  0  0  0
   27.1312   34.8630   22.9477 C   0  0  0  0  0  0  0  0  0  0  0  0
   27.5043   36.8975   21.5546 C   0  0  0  0  0  0  0  0  0  0  0  0
   27.6150   38.2763   21.3917 C   0  0  2  0  0  0  0  0  0  0  0  0
   27.9711   40.1917   19.9962 C   0  0  2  0  0  0  0  0  0  0  0  0
   27.8722   38.8210   20.1392 N   0  0  0  0  0  0  0  0  0  0  0  0
  1  2  1  1  0  0  0
  1  3  1  0  0  0  0
  1  4  2  0  0  0  0
  1  6  1  0  0  0  0
  5  6  1  0  0  0  0
  7  5  1  6  0  0  0
  7  8  1  0  0  0  0
  7  9  1  0  0  0  0
  9 10  1  6  0  0  0
  9 11  1  0  0  0  0
 11 12  1  6  0  0  0
 11 13  1  0  0  0  0
 13 31  1  0  0  0  0
 14 15  1  0  0  0  0
 15 16  2  0  0  0  0
 15 17  1  0  0  0  0
 17 18  1  0  0  0  0
 18 20  2  0  0  0  0
 19 18  1  6  0  0  0
 19 22  1  0  0  0  0
 19 30  1  0  0  0  0
 21 23  1  1  0  0  0
 21 29  1  0  0  0  0
 21 22  1  0  0  0  0
 23 24  1  0  0  0  0
 24 25  1  6  0  0  0
 24 26  1  0  0  0  0
 26 27  1  6  0  0  0
 26 28  1  0  0  0  0
 29 28  1  1  0  0  0
 29 31  1  0  0  0  0
 30 14  1  1  0  0  0
 30 31  1  0  0  0  0
M  CHG  1   3  -1
M  END
>  <CHROM.1>
-69.52294069,-38.59383378,82.32385784,56.38309432,-176.70031281,-165.41683116
-82.78717518,27.86865474,37.54163259,19.19912388,1.77670700,-1.33784402,-2.25251234

>  <Name>
ligand

>  <RI>
0

>  <Rbt.Current_Directory>
/home/itssahil/PROJECTS/Mol_Feturizer/New_Systems/rnas/3F2Q

>  <Rbt.Executable>
rbdock ($Id: //depot/dev/client3/rdock/2013.1/src/exe/rbdock.cxx#4 $)

>  <Rbt.Library>
libRbt.so (2013.1, Build901 2013/11/27)

>  <Rbt.Parameter_File>
/export/apps/rDock/src/rDock_2013.1_src/data/scripts/dock_solv.prm

>  <Rbt.Receptor>
prm/pocket_docking_8.prm

>  <SCORE>
-21.7542

>  <SCORE.INTER>
-18.7773

>  <SCORE.INTER.CONST>
1

>  <SCORE.INTER.POLAR>
0

>  <SCORE.INTER.ROT>
7

>  <SCORE.INTER.SOLV>
8.72895

>  <SCORE.INTER.VDW>
-23.6945

>  <SCORE.INTER.norm>
-0.60572

>  <SCORE.INTRA>
-2.97687

>  <SCORE.INTRA.DIHEDRAL>
-5.07426

>  <SCORE.INTRA.DIHEDRAL.0>
10.0718

>  <SCORE.INTRA.POLAR>
0

>  <SCORE.INTRA.POLAR.0>
0

>  <SCORE.INTRA.REPUL>
0

>  <SCORE.INTRA.REPUL.0>
0

>  <SCORE.INTRA.SOLV>
1.15537

>  <SCORE.INTRA.SOLV.lig_0>
-48.6963

>  <SCORE.INTRA.VDW>
-1.01743

>  <SCORE.INTRA.VDW.0>
-0.836976

>  <SCORE.INTRA.norm>
-0.0960281

>  <SCORE.RESTR>
0

>  <SCORE.RESTR.CAVITY>
0

>  <SCORE.RESTR.norm>
0

>  <SCORE.SYSTEM>
0

>  <SCORE.SYSTEM.CONST>
0

>  <SCORE.SYSTEM.DIHEDRAL>
0

>  <SCORE.SYSTEM.SOLV>
0

>  <SCORE.SYSTEM.norm>
0

>  <SCORE.heavy>
31

>  <SCORE.norm>
-0.701748

>  <RMSD>
6.573

$$$$
ligand
 OpenBabel11021811473D
libRbt.so/2013.1/901 2013/11/27
 31 33  0  0  0  0  0  0  0  0999 V2000
   24.7424   32.7466   15.6794 P   0  0  1  0  0  0  0  0  0  0  0  0
   26.0061   31.9185   15.5858 O   0  0  0  0  0  0  0  0  0  0  0  0
   24.2220   32.9566   14.2829 O   0  5  0  0  0  0  0  0  0  0  0  0
   23.7081   32.0249   16.4987 O   0  0  0  0  0  0  0  0  0  0  0  0
   25.6401   34.0991   17.7157 C   0  0  0  0  0  0  0  0  0  0  0  0
   25.0605   34.1221   16.4340 O   0  0  0  0  0  0  0  0  0  0  0  0
   25.7163   35.5205   18.2536 C   0  0  1  0  0  0  0  0  0  0  0  0
   26.1379   35.4711   19.6001 O   0  0  0  0  0  0  0  0  0  0  0  0
   26.6910   36.3519   17.4196 C   0  0  1  0  0  0  0  0  0  0  0  0
   26.1695   36.5317   16.1203 O   0  0  0  0  0  0  0  0  0  0  0  0
   27.0616   37.6967   18.0603 C   0  0  1  0  0  0  0  0  0  0  0  0
   25.9293   38.2589   18.6854 O   0  0  0  0  0  0  0  0  0  0  0  0
   28.1818   37.5686   19.0801 C   0  0  0  0  0  0  0  0  0  0  0  0
   28.4103   40.3415   18.5880 N   0  0  0  0  0  0  0  0  0  0  0  0
   28.4822   41.6860   18.2852 C   0  0  0  0  0  0  0  0  0  0  0  0
   28.8045   42.0491   17.1505 O   0  0  0  0  0  0  0  0  0  0  0  0
   28.2011   42.6208   19.2610 N   0  0  0  0  0  0  0  0  0  0  0  0
   27.8492   42.2165   20.5350 C   0  0  0  0  0  0  0  0  0  0  0  0
   27.7744   40.8736   20.8410 C   0  0  1  0  0  0  0  0  0  0  0  0
   27.5874   43.0388   21.4113 O   0  0  0  0  0  0  0  0  0  0  0  0
   27.3367   39.1454   22.4272 C   0  0  2  0  0  0  0  0  0  0  0  0
   27.4165   40.4878   22.1182 N   0  0  0  0  0  0  0  0  0  0  0  0
   26.9780   38.7538   23.7148 C   0  0  0  0  0  0  0  0  0  0  0  0
   26.9020   37.4029   24.0387 C   0  0  1  0  0  0  0  0  0  0  0  0
   26.5027   36.9974   25.4307 C   0  0  0  0  0  0  0  0  0  0  0  0
   27.1844   36.4400   23.0631 C   0  0  1  0  0  0  0  0  0  0  0  0
   27.0965   34.9751   23.3775 C   0  0  0  0  0  0  0  0  0  0  0  0
   27.5418   36.8353   21.7775 C   0  0  0  0  0  0  0  0  0  0  0  0
   27.6219   38.1868   21.4502 C   0  0  2  0  0  0  0  0  0  0  0  0
   28.0547   39.9279   19.8614 C   0  0  2  0  0  0  0  0  0  0  0  0
   27.9881   38.5826   20.1693 N   0  0  0  0  0  0  0  0  0  0  0  0
  1  2  1  6  0  0  0
  1  3  1  0  0  0  0
  1  4  2  0  0  0  0
  1  6  1  0  0  0  0
  5  6  1  0  0  0  0
  7  5  1  6  0  0  0
  7  8  1  0  0  0  0
  7  9  1  0  0  0  0
  9 10  1  6  0  0  0
  9 11  1  0  0  0  0
 11 12  1  1  0  0  0
 11 13  1  0  0  0  0
 13 31  1  0  0  0  0
 14 15  1  0  0  0  0
 15 16  2  0  0  0  0
 15 17  1  0  0  0  0
 17 18  1  0  0  0  0
 18 20  2  0  0  0  0
 19 18  1  6  0  0  0
 19 22  1  0  0  0  0
 19 30  1  0  0  0  0
 21 23  1  1  0  0  0
 21 29  1  0  0  0  0
 21 22  1  0  0  0  0
 23 24  1  0  0  0  0
 24 25  1  6  0  0  0
 24 26  1  0  0  0  0
 26 27  1  6  0  0  0
 26 28  1  0  0  0  0
 29 28  1  1  0  0  0
 29 31  1  0  0  0  0
 30 14  1  1  0  0  0
 30 31  1  0  0  0  0
M  CHG  1   3  -1
M  END
>  <CHROM.1>
-174.79497129,-55.59450127,172.59009221,67.25717982,-38.44689750,-147.66973468
110.00375586,26.72481670,37.30066003,19.28261465,-2.74218821,1.24195880,1.76766430

>  <Name>
ligand

>  <RI>
0

>  <Rbt.Current_Directory>
/home/itssahil/PROJECTS/Mol_Feturizer/New_Systems/rnas/3F2Q

>  <Rbt.Executable>
rbdock ($Id: //depot/dev/client3/rdock/2013.1/src/exe/rbdock.cxx#4 $)

>  <Rbt.Library>
libRbt.so (2013.1, Build901 2013/11/27)

>  <Rbt.Parameter_File>
/export/apps/rDock/src/rDock_2013.1_src/data/scripts/dock_solv.prm

>  <Rbt.Receptor>
prm/blind_docking_80.prm

>  <SCORE>
-23.9244

>  <SCORE.INTER>
-20.5678

>  <SCORE.INTER.CONST>
1

>  <SCORE.INTER.POLAR>
0

>  <SCORE.INTER.ROT>
7

>  <SCORE.INTER.SOLV>
14.9208

>  <SCORE.INTER.VDW>
-26.9522

>  <SCORE.INTER.norm>
-0.663479

>  <SCORE.INTRA>
-3.35652

>  <SCORE.INTRA.DIHEDRAL>
-3.84168

>  <SCORE.INTRA.DIHEDRAL.0>
10.0718

>  <SCORE.INTRA.POLAR>
0

>  <SCORE.INTRA.POLAR.0>
0

>  <SCORE.INTRA.REPUL>
0

>  <SCORE.INTRA.REPUL.0>
0

>  <SCORE.INTRA.SOLV>
-0.388818

>  <SCORE.INTRA.SOLV.lig_0>
-48.6963

>  <SCORE.INTRA.VDW>
-1.24127

>  <SCORE.INTRA.VDW.0>
-0.836976

>  <SCORE.INTRA.norm>
-0.108275

>  <SCORE.RESTR>
0

>  <SCORE.RESTR.CAVITY>
0

>  <SCORE.RESTR.norm>
0

>  <SCORE.SYSTEM>
0

>  <SCORE.SYSTEM.CONST>
0

>  <SCORE.SYSTEM.DIHEDRAL>
0

>  <SCORE.SYSTEM.SOLV>
0

>  <SCORE.SYSTEM.norm>
0

>  <SCORE.heavy>
31

>  <SCORE.norm>
-0.771754

>  <RMSD>
6.600

$$$$
ligand
 OpenBabel11021811473D
libRbt.so/2013.1/901 2013/11/27
 31 33  0  0  0  0  0  0  0  0999 V2000
   23.6079   42.7645   25.8240 P   0  0  1  0  0  0  0  0  0  0  0  0
   22.7752   41.7581   26.5890 O   0  0  0  0  0  0  0  0  0  0  0  0
   23.2984   42.6040   24.3599 O   0  5  0  0  0  0  0  0  0  0  0  0
   23.2644   44.1620   26.2607 O   0  0  0  0  0  0  0  0  0  0  0  0
   26.1343   43.3041   25.4950 C   0  0  0  0  0  0  0  0  0  0  0  0
   25.1573   42.5379   26.1568 O   0  0  0  0  0  0  0  0  0  0  0  0
   26.3720   42.7197   24.1104 C   0  0  1  0  0  0  0  0  0  0  0  0
   27.3253   43.5180   23.4415 O   0  0  0  0  0  0  0  0  0  0  0  0
   26.8671   41.2777   24.2208 C   0  0  1  0  0  0  0  0  0  0  0  0
   25.9266   40.5071   24.9379 O   0  0  0  0  0  0  0  0  0  0  0  0
   27.1977   40.6323   22.8678 C   0  0  1  0  0  0  0  0  0  0  0  0
   27.3258   41.6294   21.8787 O   0  0  0  0  0  0  0  0  0  0  0  0
   28.4736   39.8065   22.9111 C   0  0  0  0  0  0  0  0  0  0  0  0
   27.0781   38.2083   24.7771 N   0  0  0  0  0  0  0  0  0  0  0  0
   26.3498   37.4850   25.6995 C   0  0  0  0  0  0  0  0  0  0  0  0
   26.0558   37.9869   26.7880 O   0  0  0  0  0  0  0  0  0  0  0  0
   25.9611   36.1946   25.4011 N   0  0  0  0  0  0  0  0  0  0  0  0
   26.2974   35.6270   24.1865 C   0  0  0  0  0  0  0  0  0  0  0  0
   27.0236   36.3475   23.2612 C   0  0  1  0  0  0  0  0  0  0  0  0
   25.9498   34.4816   23.9042 O   0  0  0  0  0  0  0  0  0  0  0  0
   28.0696   36.4847   21.1207 C   0  0  2  0  0  0  0  0  0  0  0  0
   27.3467   35.7659   22.0506 N   0  0  0  0  0  0  0  0  0  0  0  0
   28.3982   35.8997   19.9002 C   0  0  0  0  0  0  0  0  0  0  0  0
   29.1333   36.6133   18.9588 C   0  0  1  0  0  0  0  0  0  0  0  0
   29.4705   35.9705   17.6417 C   0  0  0  0  0  0  0  0  0  0  0  0
   29.5374   37.9227   19.2434 C   0  0  1  0  0  0  0  0  0  0  0  0
   30.3183   38.7233   18.2426 C   0  0  0  0  0  0  0  0  0  0  0  0
   29.2064   38.5038   20.4639 C   0  0  0  0  0  0  0  0  0  0  0  0
   28.4732   37.7916   21.4102 C   0  0  2  0  0  0  0  0  0  0  0  0
   27.4159   37.6482   23.5560 C   0  0  2  0  0  0  0  0  0  0  0  0
   28.1505   38.3677   22.6331 N   0  0  0  0  0  0  0  0  0  0  0  0
  1  2  1  1  0  0  0
  1  3  1  0  0  0  0
  1  4  2  0  0  0  0
  1  6  1  0  0  0  0
  5  6  1  0  0  0  0
  7  5  1  1  0  0  0
  7  8  1  0  0  0  0
  7  9  1  0  0  0  0
  9 10  1  6  0  0  0
  9 11  1  0  0  0  0
 11 12  1  6  0  0  0
 11 13  1  0  0  0  0
 13 31  1  0  0  0  0
 14 15  1  0  0  0  0
 15 16  2  0  0  0  0
 15 17  1  0  0  0  0
 17 18  1  0  0  0  0
 18 20  2  0  0  0  0
 19 18  1  6  0  0  0
 19 22  1  0  0  0  0
 19 30  1  0  0  0  0
 21 23  1  1  0  0  0
 21 29  1  0  0  0  0
 21 22  1  0  0  0  0
 23 24  1  0  0  0  0
 24 25  1  6  0  0  0
 24 26  1  0  0  0  0
 26 27  1  6  0  0  0
 26 28  1  0  0  0  0
 29 28  1  1  0  0  0
 29 31  1  0  0  0  0
 30 14  1  1  0  0  0
 30 31  1  0  0  0  0
M  CHG  1   3  -1
M  END
>  <CHROM.1>
-79.71436477,176.00670229,178.34435002,57.59619435,16.47335706,116.74385612
106.04795369,26.67633723,39.41935598,23.37560985,-2.55047043,-0.96496517
2.99171765

>  <Name>
ligand

>  <RI>
0

>  <Rbt.Current_Directory>
/home/itssahil/PROJECTS/Mol_Feturizer/New_Systems/rnas/3F2Q

>  <Rbt.Executable>
rbdock ($Id: //depot/dev/client3/rdock/2013.1/src/exe/rbdock.cxx#4 $)

>  <Rbt.Library>
libRbt.so (2013.1, Build901 2013/11/27)

>  <Rbt.Parameter_File>
/export/apps/rDock/src/rDock_2013.1_src/data/scripts/dock_solv.prm

>  <Rbt.Receptor>
prm/blind_docking_60.prm

>  <SCORE>
-24.7796

>  <SCORE.INTER>
-27.4734

>  <SCORE.INTER.CONST>
1

>  <SCORE.INTER.POLAR>
0

>  <SCORE.INTER.ROT>
7

>  <SCORE.INTER.SOLV>
14.3915

>  <SCORE.INTER.VDW>
-31.3795

>  <SCORE.INTER.norm>
-0.88624

>  <SCORE.INTRA>
2.69379

>  <SCORE.INTRA.DIHEDRAL>
2.60129

>  <SCORE.INTRA.DIHEDRAL.0>
10.0718

>  <SCORE.INTRA.POLAR>
0

>  <SCORE.INTRA.POLAR.0>
0

>  <SCORE.INTRA.REPUL>
0

>  <SCORE.INTRA.REPUL.0>
0

>  <SCORE.INTRA.SOLV>
2.80541

>  <SCORE.INTRA.SOLV.lig_0>
-48.6963

>  <SCORE.INTRA.VDW>
-0.00955595

>  <SCORE.INTRA.VDW.0>
-0.836976

>  <SCORE.INTRA.norm>
0.0868965

>  <SCORE.RESTR>
0

>  <SCORE.RESTR.CAVITY>
0

>  <SCORE.RESTR.norm>
0

>  <SCORE.SYSTEM>
0

>  <SCORE.SYSTEM.CONST>
0

>  <SCORE.SYSTEM.DIHEDRAL>
0

>  <SCORE.SYSTEM.SOLV>
0

>  <SCORE.SYSTEM.norm>
0

>  <SCORE.heavy>
31

>  <SCORE.norm>
-0.799343

>  <RMSD>
6.634

$$$$
ligand
 OpenBabel11021811473D
libRbt.so/2013.1/901 2013/11/27
 31 33  0  0  0  0  0  0  0  0999 V2000
   24.6745   32.5510   17.6071 P   0  0  1  0  0  0  0  0  0  0  0  0
   24.3974   31.2266   18.2858 O   0  0  0  0  0  0  0  0  0  0  0  0
   23.9829   32.5399   16.2705 O   0  5  0  0  0  0  0  0  0  0  0  0
   24.1408   33.6834   18.4405 O   0  0  0  0  0  0  0  0  0  0  0  0
   26.7577   33.9263   16.8650 C   0  0  0  0  0  0  0  0  0  0  0  0
   26.2559   32.7664   17.4832 O   0  0  0  0  0  0  0  0  0  0  0  0
   26.5465   35.1153   17.7908 C   0  0  1  0  0  0  0  0  0  0  0  0
   27.2396   34.8761   18.9974 O   0  0  0  0  0  0  0  0  0  0  0  0
   27.0518   36.3982   17.1307 C   0  0  1  0  0  0  0  0  0  0  0  0
   26.2972   36.6617   15.9673 O   0  0  0  0  0  0  0  0  0  0  0  0
   27.0664   37.6123   18.0699 C   0  0  1  0  0  0  0  0  0  0  0  0
   25.8679   37.6600   18.8116 O   0  0  0  0  0  0  0  0  0  0  0  0
   28.2458   37.5941   19.0292 C   0  0  0  0  0  0  0  0  0  0  0  0
   28.4389   40.3739   18.5610 N   0  0  0  0  0  0  0  0  0  0  0  0
   28.4946   41.7215   18.2693 C   0  0  0  0  0  0  0  0  0  0  0  0
   28.8288   42.0982   17.1425 O   0  0  0  0  0  0  0  0  0  0  0  0
   28.1839   42.6445   19.2474 N   0  0  0  0  0  0  0  0  0  0  0  0
   27.8187   42.2252   20.5128 C   0  0  0  0  0  0  0  0  0  0  0  0
   27.7600   40.8791   20.8077 C   0  0  1  0  0  0  0  0  0  0  0  0
   27.5307   43.0367   21.3909 O   0  0  0  0  0  0  0  0  0  0  0  0
   27.3246   39.1323   22.3742 C   0  0  2  0  0  0  0  0  0  0  0  0
   27.3884   40.4781   22.0763 N   0  0  0  0  0  0  0  0  0  0  0  0
   26.9522   38.7255   23.6532 C   0  0  0  0  0  0  0  0  0  0  0  0
   26.8922   37.3711   23.9659 C   0  0  1  0  0  0  0  0  0  0  0  0
   26.4778   36.9490   25.3485 C   0  0  0  0  0  0  0  0  0  0  0  0
   27.2045   36.4201   22.9878 C   0  0  1  0  0  0  0  0  0  0  0  0
   27.1345   34.9517   23.2900 C   0  0  0  0  0  0  0  0  0  0  0  0
   27.5756   36.8306   21.7108 C   0  0  0  0  0  0  0  0  0  0  0  0
   27.6398   38.1857   21.3947 C   0  0  2  0  0  0  0  0  0  0  0  0
   28.0700   39.9452   19.8257 C   0  0  2  0  0  0  0  0  0  0  0  0
   28.0196   38.5967   20.1226 N   0  0  0  0  0  0  0  0  0  0  0  0
  1  2  1  1  0  0  0
  1  3  1  0  0  0  0
  1  4  2  0  0  0  0
  1  6  1  0  0  0  0
  5  6  1  0  0  0  0
  7  5  1  6  0  0  0
  7  8  1  0  0  0  0
  7  9  1  0  0  0  0
  9 10  1  6  0  0  0
  9 11  1  0  0  0  0
 11 12  1  1  0  0  0
 11 13  1  0  0  0  0
 13 31  1  0  0  0  0
 14 15  1  0  0  0  0
 15 16  2  0  0  0  0
 15 17  1  0  0  0  0
 17 18  1  0  0  0  0
 18 20  2  0  0  0  0
 19 18  1  6  0  0  0
 19 22  1  0  0  0  0
 19 30  1  0  0  0  0
 21 23  1  1  0  0  0
 21 29  1  0  0  0  0
 21 22  1  0  0  0  0
 23 24  1  0  0  0  0
 24 25  1  6  0  0  0
 24 26  1  0  0  0  0
 26 27  1  6  0  0  0
 26 28  1  0  0  0  0
 29 28  1  1  0  0  0
 29 31  1  0  0  0  0
 30 14  1  1  0  0  0
 30 31  1  0  0  0  0
M  CHG  1   3  -1
M  END
>  <CHROM.1>
72.84293799,179.09765700,60.21753167,63.21605321,-44.22789899,-166.00803358
104.15430684,26.82560044,37.20323379,19.59370492,-2.84334762,1.24704810,1.62620065

>  <Name>
ligand

>  <RI>
0

>  <Rbt.Current_Directory>
/home/itssahil/PROJECTS/Mol_Feturizer/New_Systems/rnas/3F2Q

>  <Rbt.Executable>
rbdock ($Id: //depot/dev/client3/rdock/2013.1/src/exe/rbdock.cxx#4 $)

>  <Rbt.Library>
libRbt.so (2013.1, Build901 2013/11/27)

>  <Rbt.Parameter_File>
/export/apps/rDock/src/rDock_2013.1_src/data/scripts/dock_solv.prm

>  <Rbt.Receptor>
prm/pocket_docking_7.prm

>  <SCORE>
-25.8229

>  <SCORE.INTER>
-22.1671

>  <SCORE.INTER.CONST>
1

>  <SCORE.INTER.POLAR>
0

>  <SCORE.INTER.ROT>
7

>  <SCORE.INTER.SOLV>
13.1761

>  <SCORE.INTER.VDW>
-27.4367

>  <SCORE.INTER.norm>
-0.715067

>  <SCORE.INTRA>
-3.65582

>  <SCORE.INTRA.DIHEDRAL>
-6.54091

>  <SCORE.INTRA.DIHEDRAL.0>
10.0718

>  <SCORE.INTRA.POLAR>
0

>  <SCORE.INTRA.POLAR.0>
0

>  <SCORE.INTRA.REPUL>
0

>  <SCORE.INTRA.REPUL.0>
0

>  <SCORE.INTRA.SOLV>
2.0066

>  <SCORE.INTRA.SOLV.lig_0>
-48.6963

>  <SCORE.INTRA.VDW>
-1.38867

>  <SCORE.INTRA.VDW.0>
-0.836976

>  <SCORE.INTRA.norm>
-0.11793

>  <SCORE.RESTR>
0

>  <SCORE.RESTR.CAVITY>
0

>  <SCORE.RESTR.norm>
0

>  <SCORE.SYSTEM>
0

>  <SCORE.SYSTEM.CONST>
0

>  <SCORE.SYSTEM.DIHEDRAL>
0

>  <SCORE.SYSTEM.SOLV>
0

>  <SCORE.SYSTEM.norm>
0

>  <SCORE.heavy>
31

>  <SCORE.norm>
-0.832997

>  <RMSD>
6.669

$$$$
ligand
 OpenBabel11021811473D
libRbt.so/2013.1/901 2013/11/27
 31 33  0  0  0  0  0  0  0  0999 V2000
   26.9817   39.5306   18.7943 P   0  0  1  0  0  0  0  0  0  0  0  0
   26.7046   38.7809   17.5088 O   0  0  0  0  0  0  0  0  0  0  0  0
   27.8026   40.7453   18.4541 O   0  5  0  0  0  0  0  0  0  0  0  0
   25.6901   39.9593   19.4345 O   0  0  0  0  0  0  0  0  0  0  0  0
   27.1827   37.2836   20.0953 C   0  0  0  0  0  0  0  0  0  0  0  0
   27.7174   38.5579   19.8313 O   0  0  0  0  0  0  0  0  0  0  0  0
   28.1466   36.5137   20.9861 C   0  0  1  0  0  0  0  0  0  0  0  0
   27.9080   36.8776   22.3292 O   0  0  0  0  0  0  0  0  0  0  0  0
   27.9551   35.0087   20.7990 C   0  0  1  0  0  0  0  0  0  0  0  0
   26.6858   34.6282   21.2853 O   0  0  0  0  0  0  0  0  0  0  0  0
   28.1611   34.5342   19.3538 C   0  0  1  0  0  0  0  0  0  0  0  0
   29.4002   35.0002   18.8675 O   0  0  0  0  0  0  0  0  0  0  0  0
   28.1123   33.0201   19.2239 C   0  0  0  0  0  0  0  0  0  0  0  0
   25.4055   32.4211   18.6781 N   0  0  0  0  0  0  0  0  0  0  0  0
   24.0641   32.1874   18.4532 C   0  0  0  0  0  0  0  0  0  0  0  0
   23.2692   32.1830   19.3973 O   0  0  0  0  0  0  0  0  0  0  0  0
   23.6194   31.9491   17.1685 N   0  0  0  0  0  0  0  0  0  0  0  0
   24.5093   31.9440   16.1108 C   0  0  0  0  0  0  0  0  0  0  0  0
   25.8505   32.1791   16.3314 C   0  0  1  0  0  0  0  0  0  0  0  0
   24.1251   31.7421   14.9601 O   0  0  0  0  0  0  0  0  0  0  0  0
   28.0665   32.4136   15.4778 C   0  0  2  0  0  0  0  0  0  0  0  0
   26.7247   32.1749   15.2619 N   0  0  0  0  0  0  0  0  0  0  0  0
   28.9503   32.4078   14.4013 C   0  0  0  0  0  0  0  0  0  0  0  0
   30.3063   32.6399   14.6093 C   0  0  1  0  0  0  0  0  0  0  0  0
   31.2452   32.6408   13.4345 C   0  0  0  0  0  0  0  0  0  0  0  0
   30.7766   32.8824   15.9049 C   0  0  1  0  0  0  0  0  0  0  0  0
   32.2311   33.1509   16.1595 C   0  0  0  0  0  0  0  0  0  0  0  0
   29.8901   32.8879   16.9778 C   0  0  0  0  0  0  0  0  0  0  0  0
   28.5324   32.6531   16.7741 C   0  0  2  0  0  0  0  0  0  0  0  0
   26.3034   32.4215   17.6231 C   0  0  2  0  0  0  0  0  0  0  0  0
   27.6479   32.6488   17.8461 N   0  0  0  0  0  0  0  0  0  0  0  0
  1  2  1  6  0  0  0
  1  3  1  0  0  0  0
  1  4  2  0  0  0  0
  1  6  1  0  0  0  0
  5  6  1  0  0  0  0
  7  5  1  6  0  0  0
  7  8  1  0  0  0  0
  7  9  1  0  0  0  0
  9 10  1  6  0  0  0
  9 11  1  0  0  0  0
 11 12  1  1  0  0  0
 11 13  1  0  0  0  0
 13 31  1  0  0  0  0
 14 15  1  0  0  0  0
 15 16  2  0  0  0  0
 15 17  1  0  0  0  0
 17 18  1  0  0  0  0
 18 20  2  0  0  0  0
 19 18  1  6  0  0  0
 19 22  1  0  0  0  0
 19 30  1  0  0  0  0
 21 23  1  1  0  0  0
 21 29  1  0  0  0  0
 21 22  1  0  0  0  0
 23 24  1  0  0  0  0
 24 25  1  6  0  0  0
 24 26  1  0  0  0  0
 26 27  1  6  0  0  0
 26 28  1  0  0  0  0
 29 28  1  1  0  0  0
 29 31  1  0  0  0  0
 30 14  1  1  0  0  0
 30 31  1  0  0  0  0
M  CHG  1   3  -1
M  END
>  <CHROM.1>
173.78646793,-50.11827572,83.89302667,-66.78478058,51.96142018,152.37107794
80.87340980,27.37032071,34.67526855,17.95090834,-1.62667138,-0.42505420,-2.62830856

>  <Name>
ligand

>  <RI>
0

>  <Rbt.Current_Directory>
/home/itssahil/PROJECTS/Mol_Feturizer/New_Systems/rnas/3F2Q

>  <Rbt.Executable>
rbdock ($Id: //depot/dev/client3/rdock/2013.1/src/exe/rbdock.cxx#4 $)

>  <Rbt.Library>
libRbt.so (2013.1, Build901 2013/11/27)

>  <Rbt.Parameter_File>
/export/apps/rDock/src/rDock_2013.1_src/data/scripts/dock_solv.prm

>  <Rbt.Receptor>
prm/pocket_docking_8.prm

>  <SCORE>
-14.4308

>  <SCORE.INTER>
-10.4785

>  <SCORE.INTER.CONST>
1

>  <SCORE.INTER.POLAR>
0

>  <SCORE.INTER.ROT>
7

>  <SCORE.INTER.SOLV>
13.3125

>  <SCORE.INTER.VDW>
-19.6898

>  <SCORE.INTER.norm>
-0.338016

>  <SCORE.INTRA>
-3.95234

>  <SCORE.INTRA.DIHEDRAL>
-4.04483

>  <SCORE.INTRA.DIHEDRAL.0>
10.0718

>  <SCORE.INTRA.POLAR>
0

>  <SCORE.INTRA.POLAR.0>
0

>  <SCORE.INTRA.REPUL>
0

>  <SCORE.INTRA.REPUL.0>
0

>  <SCORE.INTRA.SOLV>
-1.65345

>  <SCORE.INTRA.SOLV.lig_0>
-48.6963

>  <SCORE.INTRA.VDW>
-1.10321

>  <SCORE.INTRA.VDW.0>
-0.836976

>  <SCORE.INTRA.norm>
-0.127495

>  <SCORE.RESTR>
0

>  <SCORE.RESTR.CAVITY>
0

>  <SCORE.RESTR.norm>
0

>  <SCORE.SYSTEM>
0

>  <SCORE.SYSTEM.CONST>
0

>  <SCORE.SYSTEM.DIHEDRAL>
0

>  <SCORE.SYSTEM.SOLV>
0

>  <SCORE.SYSTEM.norm>
0

>  <SCORE.heavy>
31

>  <SCORE.norm>
-0.465511

>  <RMSD>
6.677

$$$$
ligand
 OpenBabel11021811473D
libRbt.so/2013.1/901 2013/11/27
 31 33  0  0  0  0  0  0  0  0999 V2000
   25.2873   33.2777   14.7155 P   0  0  1  0  0  0  0  0  0  0  0  0
   26.2931   34.1503   13.9954 O   0  0  0  0  0  0  0  0  0  0  0  0
   24.1895   32.9381   13.7436 O   0  5  0  0  0  0  0  0  0  0  0  0
   25.9453   32.0127   15.1935 O   0  0  0  0  0  0  0  0  0  0  0  0
   25.5872   34.1995   17.1325 C   0  0  0  0  0  0  0  0  0  0  0  0
   24.7487   34.0442   16.0135 O   0  0  0  0  0  0  0  0  0  0  0  0
   26.7749   35.0694   16.7481 C   0  0  1  0  0  0  0  0  0  0  0  0
   26.2922   36.3130   16.2858 O   0  0  0  0  0  0  0  0  0  0  0  0
   27.6978   35.2688   17.9502 C   0  0  1  0  0  0  0  0  0  0  0  0
   28.9621   35.7150   17.5086 O   0  0  0  0  0  0  0  0  0  0  0  0
   27.1225   36.2042   19.0228 C   0  0  1  0  0  0  0  0  0  0  0  0
   25.9598   35.6351   19.5824 O   0  0  0  0  0  0  0  0  0  0  0  0
   28.1171   36.4999   20.1340 C   0  0  0  0  0  0  0  0  0  0  0  0
   27.2482   36.5469   22.8222 N   0  0  0  0  0  0  0  0  0  0  0  0
   26.8790   36.5224   24.1517 C   0  0  0  0  0  0  0  0  0  0  0  0
   26.7619   35.4452   24.7424 O   0  0  0  0  0  0  0  0  0  0  0  0
   26.6323   37.7086   24.8129 N   0  0  0  0  0  0  0  0  0  0  0  0
   26.7535   38.9158   24.1507 C   0  0  0  0  0  0  0  0  0  0  0  0
   27.1241   38.9445   22.8225 C   0  0  1  0  0  0  0  0  0  0  0  0
   26.5455   39.9804   24.7304 O   0  0  0  0  0  0  0  0  0  0  0  0
   27.6194   40.1935   20.8503 C   0  0  2  0  0  0  0  0  0  0  0  0
   27.2449   40.1603   22.1779 N   0  0  0  0  0  0  0  0  0  0  0  0
   27.7398   41.4180   20.1977 C   0  0  0  0  0  0  0  0  0  0  0  0
   28.1094   41.4619   18.8571 C   0  0  1  0  0  0  0  0  0  0  0  0
   28.2453   42.7930   18.1706 C   0  0  0  0  0  0  0  0  0  0  0  0
   28.3627   40.2697   18.1692 C   0  0  1  0  0  0  0  0  0  0  0  0
   28.7778   40.2850   16.7270 C   0  0  0  0  0  0  0  0  0  0  0  0
   28.2419   39.0482   18.8251 C   0  0  0  0  0  0  0  0  0  0  0  0
   27.8692   38.9999   20.1663 C   0  0  2  0  0  0  0  0  0  0  0  0
   27.3756   37.7528   22.1522 C   0  0  2  0  0  0  0  0  0  0  0  0
   27.7388   37.7801   20.8194 N   0  0  0  0  0  0  0  0  0  0  0  0
  1  2  1  6  0  0  0
  1  3  1  0  0  0  0
  1  4  2  0  0  0  0
  1  6  1  0  0  0  0
  5  6  1  0  0  0  0
  7  5  1  1  0  0  0
  7  8  1  0  0  0  0
  7  9  1  0  0  0  0
  9 10  1  6  0  0  0
  9 11  1  0  0  0  0
 11 12  1  1  0  0  0
 11 13  1  0  0  0  0
 13 31  1  0  0  0  0
 14 15  1  0  0  0  0
 15 16  2  0  0  0  0
 15 17  1  0  0  0  0
 17 18  1  0  0  0  0
 18 20  2  0  0  0  0
 19 18  1  1  0  0  0
 19 22  1  0  0  0  0
 19 30  1  0  0  0  0
 21 23  1  6  0  0  0
 21 29  1  0  0  0  0
 21 22  1  0  0  0  0
 23 24  1  0  0  0  0
 24 25  1  1  0  0  0
 24 26  1  0  0  0  0
 26 27  1  1  0  0  0
 26 28  1  0  0  0  0
 29 28  1  6  0  0  0
 29 31  1  0  0  0  0
 30 14  1  6  0  0  0
 30 31  1  0  0  0  0
M  CHG  1   3  -1
M  END
>  <CHROM.1>
64.21671780,-72.42603567,58.22263336,162.46860189,64.13758148,157.68697349
-69.60648897,26.92023285,36.97759583,19.15546624,2.15593462,-1.24458609,-1.64381178

>  <Name>
ligand

>  <RI>
0

>  <Rbt.Current_Directory>
/home/itssahil/PROJECTS/Mol_Feturizer/New_Systems/rnas/3F2Q

>  <Rbt.Executable>
rbdock ($Id: //depot/dev/client3/rdock/2013.1/src/exe/rbdock.cxx#4 $)

>  <Rbt.Library>
libRbt.so (2013.1, Build901 2013/11/27)

>  <Rbt.Parameter_File>
/export/apps/rDock/src/rDock_2013.1_src/data/scripts/dock_solv.prm

>  <Rbt.Receptor>
prm/blind_docking_100.prm

>  <SCORE>
-16.1979

>  <SCORE.INTER>
-12.6558

>  <SCORE.INTER.CONST>
1

>  <SCORE.INTER.POLAR>
0

>  <SCORE.INTER.ROT>
7

>  <SCORE.INTER.SOLV>
12.685

>  <SCORE.INTER.VDW>
-20.9322

>  <SCORE.INTER.norm>
-0.408252

>  <SCORE.INTRA>
-3.54208

>  <SCORE.INTRA.DIHEDRAL>
-5.6327

>  <SCORE.INTRA.DIHEDRAL.0>
10.0718

>  <SCORE.INTRA.POLAR>
0

>  <SCORE.INTRA.POLAR.0>
0

>  <SCORE.INTRA.REPUL>
0

>  <SCORE.INTRA.REPUL.0>
0

>  <SCORE.INTRA.SOLV>
0.231842

>  <SCORE.INTRA.SOLV.lig_0>
-48.6963

>  <SCORE.INTRA.VDW>
-0.841657

>  <SCORE.INTRA.VDW.0>
-0.836976

>  <SCORE.INTRA.norm>
-0.114261

>  <SCORE.RESTR>
0

>  <SCORE.RESTR.CAVITY>
0

>  <SCORE.RESTR.norm>
0

>  <SCORE.SYSTEM>
0

>  <SCORE.SYSTEM.CONST>
0

>  <SCORE.SYSTEM.DIHEDRAL>
0

>  <SCORE.SYSTEM.SOLV>
0

>  <SCORE.SYSTEM.norm>
0

>  <SCORE.heavy>
31

>  <SCORE.norm>
-0.522512

>  <RMSD>
6.688

$$$$
ligand
 OpenBabel11021811473D
libRbt.so/2013.1/901 2013/11/27
 31 33  0  0  0  0  0  0  0  0999 V2000
   27.1496   33.0773   18.8841 P   0  0  1  0  0  0  0  0  0  0  0  0
   26.6773   32.2680   17.6952 O   0  0  0  0  0  0  0  0  0  0  0  0
   25.9420   33.4428   19.7045 O   0  5  0  0  0  0  0  0  0  0  0  0
   28.0995   32.2652   19.7208 O   0  0  0  0  0  0  0  0  0  0  0  0
   28.9891   34.2033   17.4246 C   0  0  0  0  0  0  0  0  0  0  0  0
   27.9585   34.3593   18.3694 O   0  0  0  0  0  0  0  0  0  0  0  0
   29.5432   35.5730   17.0611 C   0  0  1  0  0  0  0  0  0  0  0  0
   28.4958   36.3570   16.5304 O   0  0  0  0  0  0  0  0  0  0  0  0
   30.1421   36.2478   18.2951 C   0  0  1  0  0  0  0  0  0  0  0  0
   31.5511   36.2050   18.2220 O   0  0  0  0  0  0  0  0  0  0  0  0
   29.6410   37.6812   18.5203 C   0  0  1  0  0  0  0  0  0  0  0  0
   29.8473   38.4503   17.3563 O   0  0  0  0  0  0  0  0  0  0  0  0
   28.1690   37.7326   18.8972 C   0  0  0  0  0  0  0  0  0  0  0  0
   28.3456   40.5352   18.5849 N   0  0  0  0  0  0  0  0  0  0  0  0
   28.3912   41.8977   18.3701 C   0  0  0  0  0  0  0  0  0  0  0  0
   28.6876   42.3397   17.2566 O   0  0  0  0  0  0  0  0  0  0  0  0
   28.1129   42.7617   19.4099 N   0  0  0  0  0  0  0  0  0  0  0  0
   27.7901   42.2690   20.6603 C   0  0  0  0  0  0  0  0  0  0  0  0
   27.7416   40.9079   20.8784 C   0  0  1  0  0  0  0  0  0  0  0  0
   27.5312   43.0275   21.5930 O   0  0  0  0  0  0  0  0  0  0  0  0
   27.3591   39.0723   22.3545 C   0  0  2  0  0  0  0  0  0  0  0  0
   27.4125   40.4332   22.1332 N   0  0  0  0  0  0  0  0  0  0  0  0
   27.0295   38.5913   23.6194 C   0  0  0  0  0  0  0  0  0  0  0  0
   26.9803   37.2209   23.8548 C   0  0  1  0  0  0  0  0  0  0  0  0
   26.6122   36.7184   25.2236 C   0  0  0  0  0  0  0  0  0  0  0  0
   27.2602   36.3289   22.8134 C   0  0  1  0  0  0  0  0  0  0  0  0
   27.2007   34.8452   23.0321 C   0  0  0  0  0  0  0  0  0  0  0  0
   27.5885   36.8135   21.5508 C   0  0  0  0  0  0  0  0  0  0  0  0
   27.6418   38.1847   21.3118 C   0  0  2  0  0  0  0  0  0  0  0  0
   28.0191   40.0332   19.8341 C   0  0  2  0  0  0  0  0  0  0  0  0
   27.9790   38.6696   20.0538 N   0  0  0  0  0  0  0  0  0  0  0  0
  1  2  1  6  0  0  0
  1  3  1  0  0  0  0
  1  4  2  0  0  0  0
  1  6  1  0  0  0  0
  5  6  1  0  0  0  0
  7  5  1  1  0  0  0
  7  8  1  0  0  0  0
  7  9  1  0  0  0  0
  9 10  1  6  0  0  0
  9 11  1  0  0  0  0
 11 12  1  6  0  0  0
 11 13  1  0  0  0  0
 13 31  1  0  0  0  0
 14 15  1  0  0  0  0
 15 16  2  0  0  0  0
 15 17  1  0  0  0  0
 17 18  1  0  0  0  0
 18 20  2  0  0  0  0
 19 18  1  6  0  0  0
 19 22  1  0  0  0  0
 19 30  1  0  0  0  0
 21 23  1  1  0  0  0
 21 29  1  0  0  0  0
 21 22  1  0  0  0  0
 23 24  1  0  0  0  0
 24 25  1  6  0  0  0
 24 26  1  0  0  0  0
 26 27  1  6  0  0  0
 26 28  1  0  0  0  0
 29 28  1  1  0  0  0
 29 31  1  0  0  0  0
 30 14  1  1  0  0  0
 30 31  1  0  0  0  0
M  CHG  1   3  -1
M  END
>  <CHROM.1>
177.33510413,-50.17655659,-59.29280721,105.22520908,-54.04506623,134.41630195
-109.96338433,28.04121647,37.40734825,19.83738783,1.64231390,-1.19521579
-2.88983115

>  <Name>
ligand

>  <RI>
0

>  <Rbt.Current_Directory>
/home/itssahil/PROJECTS/Mol_Feturizer/New_Systems/rnas/3F2Q

>  <Rbt.Executable>
rbdock ($Id: //depot/dev/client3/rdock/2013.1/src/exe/rbdock.cxx#4 $)

>  <Rbt.Library>
libRbt.so (2013.1, Build901 2013/11/27)

>  <Rbt.Parameter_File>
/export/apps/rDock/src/rDock_2013.1_src/data/scripts/dock_solv.prm

>  <Rbt.Receptor>
prm/pocket_docking_4.prm

>  <SCORE>
-19.5894

>  <SCORE.INTER>
-19.3928

>  <SCORE.INTER.CONST>
1

>  <SCORE.INTER.POLAR>
0

>  <SCORE.INTER.ROT>
7

>  <SCORE.INTER.SOLV>
16.3192

>  <SCORE.INTER.VDW>
-26.635

>  <SCORE.INTER.norm>
-0.625575

>  <SCORE.INTRA>
-0.196596

>  <SCORE.INTRA.DIHEDRAL>
0.751179

>  <SCORE.INTRA.DIHEDRAL.0>
10.0718

>  <SCORE.INTRA.POLAR>
0

>  <SCORE.INTRA.POLAR.0>
0

>  <SCORE.INTRA.REPUL>
0

>  <SCORE.INTRA.REPUL.0>
0

>  <SCORE.INTRA.SOLV>
0.136131

>  <SCORE.INTRA.SOLV.lig_0>
-48.6963

>  <SCORE.INTRA.VDW>
-0.640251

>  <SCORE.INTRA.VDW.0>
-0.836976

>  <SCORE.INTRA.norm>
-0.0063418

>  <SCORE.RESTR>
0

>  <SCORE.RESTR.CAVITY>
0

>  <SCORE.RESTR.norm>
0

>  <SCORE.SYSTEM>
0

>  <SCORE.SYSTEM.CONST>
0

>  <SCORE.SYSTEM.DIHEDRAL>
0

>  <SCORE.SYSTEM.SOLV>
0

>  <SCORE.SYSTEM.norm>
0

>  <SCORE.heavy>
31

>  <SCORE.norm>
-0.631917

>  <RMSD>
6.691

$$$$
ligand
 OpenBabel11021811473D
libRbt.so/2013.1/901 2013/11/27
 31 33  0  0  0  0  0  0  0  0999 V2000
   24.9227   32.9806   18.2173 P   0  0  1  0  0  0  0  0  0  0  0  0
   23.9812   32.0298   18.9251 O   0  0  0  0  0  0  0  0  0  0  0  0
   25.7794   32.1721   17.2806 O   0  5  0  0  0  0  0  0  0  0  0  0
   24.1407   33.9978   17.4327 O   0  0  0  0  0  0  0  0  0  0  0  0
   26.8761   34.5674   18.8867 C   0  0  0  0  0  0  0  0  0  0  0  0
   25.7821   33.7860   19.3014 O   0  0  0  0  0  0  0  0  0  0  0  0
   27.4690   35.2759   20.0958 C   0  0  1  0  0  0  0  0  0  0  0  0
   27.9773   34.3034   20.9840 O   0  0  0  0  0  0  0  0  0  0  0  0
   28.5792   36.2318   19.6591 C   0  0  1  0  0  0  0  0  0  0  0  0
   29.5813   35.5125   18.9728 O   0  0  0  0  0  0  0  0  0  0  0  0
   28.0795   37.4203   18.8260 C   0  0  1  0  0  0  0  0  0  0  0  0
   27.7237   36.9843   17.5329 O   0  0  0  0  0  0  0  0  0  0  0  0
   26.8882   38.1190   19.4617 C   0  0  0  0  0  0  0  0  0  0  0  0
   27.6501   40.7861   18.9234 N   0  0  0  0  0  0  0  0  0  0  0  0
   27.9619   42.0950   18.6168 C   0  0  0  0  0  0  0  0  0  0  0  0
   27.9467   42.4770   17.4434 O   0  0  0  0  0  0  0  0  0  0  0  0
   28.2999   42.9705   19.6289 N   0  0  0  0  0  0  0  0  0  0  0  0
   28.3269   42.5424   20.9429 C   0  0  0  0  0  0  0  0  0  0  0  0
   28.0141   41.2354   21.2535 C   0  0  1  0  0  0  0  0  0  0  0  0
   28.6176   43.3143   21.8552 O   0  0  0  0  0  0  0  0  0  0  0  0
   27.7254   39.5207   22.8878 C   0  0  2  0  0  0  0  0  0  0  0  0
   28.0416   40.8263   22.5726 N   0  0  0  0  0  0  0  0  0  0  0  0
   27.7545   39.1053   24.2169 C   0  0  0  0  0  0  0  0  0  0  0  0
   27.4447   37.7891   24.5445 C   0  0  1  0  0  0  0  0  0  0  0  0
   27.4705   37.3599   25.9855 C   0  0  0  0  0  0  0  0  0  0  0  0
   27.1005   36.8862   23.5321 C   0  0  1  0  0  0  0  0  0  0  0  0
   26.7466   35.4638   23.8551 C   0  0  0  0  0  0  0  0  0  0  0  0
   27.0720   37.3054   22.2053 C   0  0  0  0  0  0  0  0  0  0  0  0
   27.3844   38.6214   21.8730 C   0  0  2  0  0  0  0  0  0  0  0  0
   27.6711   40.3500   20.2381 C   0  0  2  0  0  0  0  0  0  0  0  0
   27.3656   39.0384   20.5474 N   0  0  0  0  0  0  0  0  0  0  0  0
  1  2  1  1  0  0  0
  1  3  1  0  0  0  0
  1  4  2  0  0  0  0
  1  6  1  0  0  0  0
  5  6  1  0  0  0  0
  7  5  1  6  0  0  0
  7  8  1  0  0  0  0
  7  9  1  0  0  0  0
  9 10  1  6  0  0  0
  9 11  1  0  0  0  0
 11 12  1  6  0  0  0
 11 13  1  0  0  0  0
 13 31  1  0  0  0  0
 14 15  1  0  0  0  0
 15 16  2  0  0  0  0
 15 17  1  0  0  0  0
 17 18  1  0  0  0  0
 18 20  2  0  0  0  0
 19 18  1  1  0  0  0
 19 22  1  0  0  0  0
 19 30  1  0  0  0  0
 21 23  1  6  0  0  0
 21 29  1  0  0  0  0
 21 22  1  0  0  0  0
 23 24  1  0  0  0  0
 24 25  1  1  0  0  0
 24 26  1  0  0  0  0
 26 27  1  1  0  0  0
 26 28  1  0  0  0  0
 29 28  1  6  0  0  0
 29 31  1  0  0  0  0
 30 14  1  6  0  0  0
 30 31  1  0  0  0  0
M  CHG  1   3  -1
M  END
>  <CHROM.1>
177.15927686,169.60993057,63.98885725,-58.34477092,-72.99894161,80.04825632
-95.62367146,27.17259518,37.45093660,20.34379508,3.12430921,1.28967257,1.88392894

>  <Name>
ligand

>  <RI>
0

>  <Rbt.Current_Directory>
/home/itssahil/PROJECTS/Mol_Feturizer/New_Systems/rnas/3F2Q

>  <Rbt.Executable>
rbdock ($Id: //depot/dev/client3/rdock/2013.1/src/exe/rbdock.cxx#4 $)

>  <Rbt.Library>
libRbt.so (2013.1, Build901 2013/11/27)

>  <Rbt.Parameter_File>
/export/apps/rDock/src/rDock_2013.1_src/data/scripts/dock_solv.prm

>  <Rbt.Receptor>
prm/pocket_docking_6.prm

>  <SCORE>
-26.0738

>  <SCORE.INTER>
-21.4709

>  <SCORE.INTER.CONST>
1

>  <SCORE.INTER.POLAR>
0

>  <SCORE.INTER.ROT>
7

>  <SCORE.INTER.SOLV>
13.2747

>  <SCORE.INTER.VDW>
-27.0055

>  <SCORE.INTER.norm>
-0.692609

>  <SCORE.INTRA>
-4.60297

>  <SCORE.INTRA.DIHEDRAL>
-6.33141

>  <SCORE.INTRA.DIHEDRAL.0>
10.0718

>  <SCORE.INTRA.POLAR>
0

>  <SCORE.INTRA.POLAR.0>
0

>  <SCORE.INTRA.REPUL>
0

>  <SCORE.INTRA.REPUL.0>
0

>  <SCORE.INTRA.SOLV>
-0.712684

>  <SCORE.INTRA.SOLV.lig_0>
-48.6963

>  <SCORE.INTRA.VDW>
-1.08093

>  <SCORE.INTRA.VDW.0>
-0.836976

>  <SCORE.INTRA.norm>
-0.148483

>  <SCORE.RESTR>
0

>  <SCORE.RESTR.CAVITY>
0

>  <SCORE.RESTR.norm>
0

>  <SCORE.SYSTEM>
0

>  <SCORE.SYSTEM.CONST>
0

>  <SCORE.SYSTEM.DIHEDRAL>
0

>  <SCORE.SYSTEM.SOLV>
0

>  <SCORE.SYSTEM.norm>
0

>  <SCORE.heavy>
31

>  <SCORE.norm>
-0.841092

>  <RMSD>
6.718

$$$$
ligand
 OpenBabel11021811473D
libRbt.so/2013.1/901 2013/11/27
 31 33  0  0  0  0  0  0  0  0999 V2000
   25.3495   33.2234   18.2711 P   0  0  1  0  0  0  0  0  0  0  0  0
   25.8428   31.8809   18.7668 O   0  0  0  0  0  0  0  0  0  0  0  0
   24.4356   32.9775   17.1008 O   0  5  0  0  0  0  0  0  0  0  0  0
   24.5928   33.9331   19.3600 O   0  0  0  0  0  0  0  0  0  0  0  0
   27.2622   33.9616   16.6655 C   0  0  0  0  0  0  0  0  0  0  0  0
   26.6021   34.1461   17.8941 O   0  0  0  0  0  0  0  0  0  0  0  0
   28.4423   34.9188   16.5853 C   0  0  1  0  0  0  0  0  0  0  0  0
   29.0952   34.7273   15.3481 O   0  0  0  0  0  0  0  0  0  0  0  0
   27.9631   36.3643   16.7174 C   0  0  1  0  0  0  0  0  0  0  0  0
   26.6842   36.4950   16.1345 O   0  0  0  0  0  0  0  0  0  0  0  0
   27.9721   36.8892   18.1599 C   0  0  1  0  0  0  0  0  0  0  0  0
   29.2947   37.1710   18.5600 O   0  0  0  0  0  0  0  0  0  0  0  0
   27.1224   38.1382   18.3320 C   0  0  0  0  0  0  0  0  0  0  0  0
   27.7435   40.8918   18.4552 N   0  0  0  0  0  0  0  0  0  0  0  0
   27.9889   42.2498   18.4701 C   0  0  0  0  0  0  0  0  0  0  0  0
   28.0193   42.8855   17.4127 O   0  0  0  0  0  0  0  0  0  0  0  0
   28.2096   42.8898   19.6729 N   0  0  0  0  0  0  0  0  0  0  0  0
   28.1856   42.1782   20.8576 C   0  0  0  0  0  0  0  0  0  0  0  0
   27.9387   40.8212   20.8470 C   0  0  1  0  0  0  0  0  0  0  0  0
   28.3716   42.7376   21.9369 O   0  0  0  0  0  0  0  0  0  0  0  0
   27.6631   38.7700   22.0350 C   0  0  2  0  0  0  0  0  0  0  0  0
   27.9137   40.1269   22.0410 N   0  0  0  0  0  0  0  0  0  0  0  0
   27.6394   38.0674   23.2373 C   0  0  0  0  0  0  0  0  0  0  0  0
   27.3952   36.6976   23.2415 C   0  0  1  0  0  0  0  0  0  0  0  0
   27.3625   35.9562   24.5495 C   0  0  0  0  0  0  0  0  0  0  0  0
   27.1701   36.0307   22.0319 C   0  0  1  0  0  0  0  0  0  0  0  0
   26.8891   34.5567   22.0049 C   0  0  0  0  0  0  0  0  0  0  0  0
   27.1940   36.7365   20.8326 C   0  0  0  0  0  0  0  0  0  0  0  0
   27.4411   38.1073   20.8240 C   0  0  2  0  0  0  0  0  0  0  0  0
   27.7139   40.1720   19.6385 C   0  0  2  0  0  0  0  0  0  0  0  0
   27.4748   38.8112   19.6262 N   0  0  0  0  0  0  0  0  0  0  0  0
  1  2  1  1  0  0  0
  1  3  1  0  0  0  0
  1  4  2  0  0  0  0
  1  6  1  0  0  0  0
  5  6  1  0  0  0  0
  7  5  1  6  0  0  0
  7  8  1  0  0  0  0
  7  9  1  0  0  0  0
  9 10  1  1  0  0  0
  9 11  1  0  0  0  0
 11 12  1  6  0  0  0
 11 13  1  0  0  0  0
 13 31  1  0  0  0  0
 14 15  1  0  0  0  0
 15 16  2  0  0  0  0
 15 17  1  0  0  0  0
 17 18  1  0  0  0  0
 18 20  2  0  0  0  0
 19 18  1  1  0  0  0
 19 22  1  0  0  0  0
 19 30  1  0  0  0  0
 21 23  1  6  0  0  0
 21 29  1  0  0  0  0
 21 22  1  0  0  0  0
 23 24  1  0  0  0  0
 24 25  1  1  0  0  0
 24 26  1  0  0  0  0
 26 27  1  1  0  0  0
 26 28  1  0  0  0  0
 29 28  1  6  0  0  0
 29 31  1  0  0  0  0
 30 14  1  6  0  0  0
 30 31  1  0  0  0  0
M  CHG  1   3  -1
M  END
>  <CHROM.1>
-177.60223803,79.50321322,-179.86649463,-33.17862695,75.35187897,-164.05431516
-54.02736643,27.27633193,37.25598907,19.38733940,2.59145397,-1.30968218,-1.82718867

>  <Name>
ligand

>  <RI>
0

>  <Rbt.Current_Directory>
/home/itssahil/PROJECTS/Mol_Feturizer/New_Systems/rnas/3F2Q

>  <Rbt.Executable>
rbdock ($Id: //depot/dev/client3/rdock/2013.1/src/exe/rbdock.cxx#4 $)

>  <Rbt.Library>
libRbt.so (2013.1, Build901 2013/11/27)

>  <Rbt.Parameter_File>
/export/apps/rDock/src/rDock_2013.1_src/data/scripts/dock_solv.prm

>  <Rbt.Receptor>
prm/pocket_docking_5.prm

>  <SCORE>
-20.2406

>  <SCORE.INTER>
-18.161

>  <SCORE.INTER.CONST>
1

>  <SCORE.INTER.POLAR>
0

>  <SCORE.INTER.ROT>
7

>  <SCORE.INTER.SOLV>
11.1604

>  <SCORE.INTER.VDW>
-24.0941

>  <SCORE.INTER.norm>
-0.585838

>  <SCORE.INTRA>
-2.07959

>  <SCORE.INTRA.DIHEDRAL>
-4.39192

>  <SCORE.INTRA.DIHEDRAL.0>
10.0718

>  <SCORE.INTRA.POLAR>
0

>  <SCORE.INTRA.POLAR.0>
0

>  <SCORE.INTRA.REPUL>
0

>  <SCORE.INTRA.REPUL.0>
0

>  <SCORE.INTRA.SOLV>
-0.075575

>  <SCORE.INTRA.SOLV.lig_0>
-48.6963

>  <SCORE.INTRA.VDW>
0.154153

>  <SCORE.INTRA.VDW.0>
-0.836976

>  <SCORE.INTRA.norm>
-0.0670837

>  <SCORE.RESTR>
0

>  <SCORE.RESTR.CAVITY>
0

>  <SCORE.RESTR.norm>
0

>  <SCORE.SYSTEM>
0

>  <SCORE.SYSTEM.CONST>
0

>  <SCORE.SYSTEM.DIHEDRAL>
0

>  <SCORE.SYSTEM.SOLV>
0

>  <SCORE.SYSTEM.norm>
0

>  <SCORE.heavy>
31

>  <SCORE.norm>
-0.652922

>  <RMSD>
6.723

$$$$
ligand
 OpenBabel11021811473D
libRbt.so/2013.1/901 2013/11/27
 31 33  0  0  0  0  0  0  0  0999 V2000
   24.5835   42.2321   25.8832 P   0  0  1  0  0  0  0  0  0  0  0  0
   24.2984   40.9105   26.5642 O   0  0  0  0  0  0  0  0  0  0  0  0
   23.5644   42.4197   24.7917 O   0  5  0  0  0  0  0  0  0  0  0  0
   24.4750   43.3600   26.8721 O   0  0  0  0  0  0  0  0  0  0  0  0
   26.8034   43.4440   25.2629 C   0  0  0  0  0  0  0  0  0  0  0  0
   26.0867   42.2354   25.3329 O   0  0  0  0  0  0  0  0  0  0  0  0
   28.1194   43.2015   24.5386 C   0  0  1  0  0  0  0  0  0  0  0  0
   28.8709   42.2579   25.2723 O   0  0  0  0  0  0  0  0  0  0  0  0
   27.8591   42.6905   23.1216 C   0  0  1  0  0  0  0  0  0  0  0  0
   28.9937   42.9278   22.3161 O   0  0  0  0  0  0  0  0  0  0  0  0
   27.4358   41.2161   23.0642 C   0  0  1  0  0  0  0  0  0  0  0  0
   26.9694   40.9005   21.7713 O   0  0  0  0  0  0  0  0  0  0  0  0
   28.5674   40.2692   23.4307 C   0  0  0  0  0  0  0  0  0  0  0  0
   27.0647   38.7956   25.3158 N   0  0  0  0  0  0  0  0  0  0  0  0
   26.2882   38.1363   26.2470 C   0  0  0  0  0  0  0  0  0  0  0  0
   26.0321   38.6704   27.3297 O   0  0  0  0  0  0  0  0  0  0  0  0
   25.8086   36.8735   25.9637 N   0  0  0  0  0  0  0  0  0  0  0  0
   26.1021   36.2695   24.7555 C   0  0  0  0  0  0  0  0  0  0  0  0
   26.8762   36.9259   23.8216 C   0  0  1  0  0  0  0  0  0  0  0  0
   25.6737   35.1484   24.4867 O   0  0  0  0  0  0  0  0  0  0  0  0
   27.9263   36.9640   21.6790 C   0  0  2  0  0  0  0  0  0  0  0  0
   27.1556   36.3090   22.6176 N   0  0  0  0  0  0  0  0  0  0  0  0
   28.2110   36.3432   20.4652 C   0  0  0  0  0  0  0  0  0  0  0  0
   28.9936   36.9920   19.5152 C   0  0  1  0  0  0  0  0  0  0  0  0
   29.2824   36.3118   18.2055 C   0  0  0  0  0  0  0  0  0  0  0  0
   29.4899   38.2726   19.7845 C   0  0  1  0  0  0  0  0  0  0  0  0
   30.3243   39.0043   18.7740 C   0  0  0  0  0  0  0  0  0  0  0  0
   29.2026   38.8897   20.9984 C   0  0  0  0  0  0  0  0  0  0  0  0
   28.4221   38.2423   21.9532 C   0  0  2  0  0  0  0  0  0  0  0  0
   27.3603   38.1988   24.1011 C   0  0  2  0  0  0  0  0  0  0  0  0
   28.1427   38.8538   23.1695 N   0  0  0  0  0  0  0  0  0  0  0  0
  1  2  1  1  0  0  0
  1  3  1  0  0  0  0
  1  4  2  0  0  0  0
  1  6  1  0  0  0  0
  5  6  1  0  0  0  0
  7  5  1  1  0  0  0
  7  8  1  0  0  0  0
  7  9  1  0  0  0  0
  9 10  1  6  0  0  0
  9 11  1  0  0  0  0
 11 12  1  6  0  0  0
 11 13  1  0  0  0  0
 13 31  1  0  0  0  0
 14 15  1  0  0  0  0
 15 16  2  0  0  0  0
 15 17  1  0  0  0  0
 17 18  1  0  0  0  0
 18 20  2  0  0  0  0
 19 18  1  6  0  0  0
 19 22  1  0  0  0  0
 19 30  1  0  0  0  0
 21 23  1  1  0  0  0
 21 29  1  0  0  0  0
 21 22  1  0  0  0  0
 23 24  1  0  0  0  0
 24 25  1  6  0  0  0
 24 26  1  0  0  0  0
 26 27  1  6  0  0  0
 26 28  1  0  0  0  0
 29 28  1  1  0  0  0
 29 31  1  0  0  0  0
 30 14  1  1  0  0  0
 30 31  1  0  0  0  0
M  CHG  1   3  -1
M  END
>  <CHROM.1>
-172.45173095,-149.19710572,-61.04590464,158.78072646,168.66879042,-172.16022393
92.95341273,27.09034953,39.68491371,23.64343839,2.37366828,0.95561190,0.14185975

>  <Name>
ligand

>  <RI>
0

>  <Rbt.Current_Directory>
/home/itssahil/PROJECTS/Mol_Feturizer/New_Systems/rnas/3F2Q

>  <Rbt.Executable>
rbdock ($Id: //depot/dev/client3/rdock/2013.1/src/exe/rbdock.cxx#4 $)

>  <Rbt.Library>
libRbt.so (2013.1, Build901 2013/11/27)

>  <Rbt.Parameter_File>
/export/apps/rDock/src/rDock_2013.1_src/data/scripts/dock_solv.prm

>  <Rbt.Receptor>
prm/pocket_docking_8.prm

>  <SCORE>
-32.4507

>  <SCORE.INTER>
-28.8005

>  <SCORE.INTER.CONST>
1

>  <SCORE.INTER.POLAR>
0

>  <SCORE.INTER.ROT>
7

>  <SCORE.INTER.SOLV>
18.3656

>  <SCORE.INTER.VDW>
-33.5889

>  <SCORE.INTER.norm>
-0.929049

>  <SCORE.INTRA>
-3.65017

>  <SCORE.INTRA.DIHEDRAL>
-5.25309

>  <SCORE.INTRA.DIHEDRAL.0>
10.0718

>  <SCORE.INTRA.POLAR>
0

>  <SCORE.INTRA.POLAR.0>
0

>  <SCORE.INTRA.REPUL>
0

>  <SCORE.INTRA.REPUL.0>
0

>  <SCORE.INTRA.SOLV>
0.148188

>  <SCORE.INTRA.SOLV.lig_0>
-48.6963

>  <SCORE.INTRA.VDW>
-1.09772

>  <SCORE.INTRA.VDW.0>
-0.836976

>  <SCORE.INTRA.norm>
-0.117747

>  <SCORE.RESTR>
0

>  <SCORE.RESTR.CAVITY>
0

>  <SCORE.RESTR.norm>
0

>  <SCORE.SYSTEM>
0

>  <SCORE.SYSTEM.CONST>
0

>  <SCORE.SYSTEM.DIHEDRAL>
0

>  <SCORE.SYSTEM.SOLV>
0

>  <SCORE.SYSTEM.norm>
0

>  <SCORE.heavy>
31

>  <SCORE.norm>
-1.0468

>  <RMSD>
6.724

$$$$
ligand
 OpenBabel11021811473D
libRbt.so/2013.1/901 2013/11/27
 31 33  0  0  0  0  0  0  0  0999 V2000
   24.5401   32.7724   14.9845 P   0  0  1  0  0  0  0  0  0  0  0  0
   23.1969   33.0080   14.3273 O   0  0  0  0  0  0  0  0  0  0  0  0
   24.3119   31.9440   16.2201 O   0  5  0  0  0  0  0  0  0  0  0  0
   25.4553   32.0351   14.0462 O   0  0  0  0  0  0  0  0  0  0  0  0
   26.5602   34.2179   15.7665 C   0  0  0  0  0  0  0  0  0  0  0  0
   25.2323   34.1802   15.3032 O   0  0  0  0  0  0  0  0  0  0  0  0
   26.9222   35.6517   16.1251 C   0  0  1  0  0  0  0  0  0  0  0  0
   26.6506   36.4772   15.0123 O   0  0  0  0  0  0  0  0  0  0  0  0
   26.1189   36.1137   17.3408 C   0  0  1  0  0  0  0  0  0  0  0  0
   26.2555   35.1734   18.3846 O   0  0  0  0  0  0  0  0  0  0  0  0
   26.4772   37.5282   17.8173 C   0  0  1  0  0  0  0  0  0  0  0  0
   25.5532   37.9543   18.7938 O   0  0  0  0  0  0  0  0  0  0  0  0
   27.8828   37.6126   18.3906 C   0  0  0  0  0  0  0  0  0  0  0  0
   28.1761   40.4118   18.1417 N   0  0  0  0  0  0  0  0  0  0  0  0
   28.2713   41.7769   17.9630 C   0  0  0  0  0  0  0  0  0  0  0  0
   28.4578   42.2427   16.8354 O   0  0  0  0  0  0  0  0  0  0  0  0
   28.1665   42.6164   19.0536 N   0  0  0  0  0  0  0  0  0  0  0  0
   27.9673   42.0965   20.3188 C   0  0  0  0  0  0  0  0  0  0  0  0
   27.8697   40.7328   20.5011 C   0  0  1  0  0  0  0  0  0  0  0  0
   27.8631   42.8336   21.2977 O   0  0  0  0  0  0  0  0  0  0  0  0
   27.5636   38.8677   21.9580 C   0  0  2  0  0  0  0  0  0  0  0  0
   27.6658   40.2312   21.7719 N   0  0  0  0  0  0  0  0  0  0  0  0
   27.3601   38.3594   23.2386 C   0  0  0  0  0  0  0  0  0  0  0  0
   27.2633   36.9859   23.4379 C   0  0  1  0  0  0  0  0  0  0  0  0
   27.0327   36.4544   24.8257 C   0  0  0  0  0  0  0  0  0  0  0  0
   27.3680   36.1184   22.3447 C   0  0  1  0  0  0  0  0  0  0  0  0
   27.2527   34.6329   22.5253 C   0  0  0  0  0  0  0  0  0  0  0  0
   27.5708   36.6304   21.0665 C   0  0  0  0  0  0  0  0  0  0  0  0
   27.6712   38.0047   20.8633 C   0  0  2  0  0  0  0  0  0  0  0  0
   27.9726   39.8829   19.4058 C   0  0  2  0  0  0  0  0  0  0  0  0
   27.8833   38.5163   19.5886 N   0  0  0  0  0  0  0  0  0  0  0  0
  1  2  1  6  0  0  0
  1  3  1  0  0  0  0
  1  4  2  0  0  0  0
  1  6  1  0  0  0  0
  5  6  1  0  0  0  0
  7  5  1  6  0  0  0
  7  8  1  0  0  0  0
  7  9  1  0  0  0  0
  9 10  1  1  0  0  0
  9 11  1  0  0  0  0
 11 12  1  1  0  0  0
 11 13  1  0  0  0  0
 13 31  1  0  0  0  0
 14 15  1  0  0  0  0
 15 16  2  0  0  0  0
 15 17  1  0  0  0  0
 17 18  1  0  0  0  0
 18 20  2  0  0  0  0
 19 18  1  6  0  0  0
 19 22  1  0  0  0  0
 19 30  1  0  0  0  0
 21 23  1  1  0  0  0
 21 29  1  0  0  0  0
 21 22  1  0  0  0  0
 23 24  1  0  0  0  0
 24 25  1  6  0  0  0
 24 26  1  0  0  0  0
 26 27  1  6  0  0  0
 26 28  1  0  0  0  0
 29 28  1  1  0  0  0
 29 31  1  0  0  0  0
 30 14  1  1  0  0  0
 30 31  1  0  0  0  0
M  CHG  1   3  -1
M  END
>  <CHROM.1>
-174.23376266,-172.25558881,-53.70675252,51.73659209,170.64865118,-140.80087791
90.94596622,26.75857694,37.18922381,18.65338679,-2.88154815,1.25043704,1.97206926

>  <Name>
ligand

>  <RI>
0

>  <Rbt.Current_Directory>
/home/itssahil/PROJECTS/Mol_Feturizer/New_Systems/rnas/3F2Q

>  <Rbt.Executable>
rbdock ($Id: //depot/dev/client3/rdock/2013.1/src/exe/rbdock.cxx#4 $)

>  <Rbt.Library>
libRbt.so (2013.1, Build901 2013/11/27)

>  <Rbt.Parameter_File>
/export/apps/rDock/src/rDock_2013.1_src/data/scripts/dock_solv.prm

>  <Rbt.Receptor>
prm/pocket_docking_7.prm

>  <SCORE>
-24.6225

>  <SCORE.INTER>
-21.2666

>  <SCORE.INTER.CONST>
1

>  <SCORE.INTER.POLAR>
0

>  <SCORE.INTER.ROT>
7

>  <SCORE.INTER.SOLV>
13.4342

>  <SCORE.INTER.VDW>
-26.9225

>  <SCORE.INTER.norm>
-0.68602

>  <SCORE.INTRA>
-3.35594

>  <SCORE.INTRA.DIHEDRAL>
-4.12122

>  <SCORE.INTRA.DIHEDRAL.0>
10.0718

>  <SCORE.INTRA.POLAR>
0

>  <SCORE.INTRA.POLAR.0>
0

>  <SCORE.INTRA.REPUL>
0

>  <SCORE.INTRA.REPUL.0>
0

>  <SCORE.INTRA.SOLV>
-0.454814

>  <SCORE.INTRA.SOLV.lig_0>
-48.6963

>  <SCORE.INTRA.VDW>
-1.06792

>  <SCORE.INTRA.VDW.0>
-0.836976

>  <SCORE.INTRA.norm>
-0.108256

>  <SCORE.RESTR>
0

>  <SCORE.RESTR.CAVITY>
0

>  <SCORE.RESTR.norm>
0

>  <SCORE.SYSTEM>
0

>  <SCORE.SYSTEM.CONST>
0

>  <SCORE.SYSTEM.DIHEDRAL>
0

>  <SCORE.SYSTEM.SOLV>
0

>  <SCORE.SYSTEM.norm>
0

>  <SCORE.heavy>
31

>  <SCORE.norm>
-0.794276

>  <RMSD>
6.733

$$$$
ligand
 OpenBabel11021811473D
libRbt.so/2013.1/901 2013/11/27
 31 33  0  0  0  0  0  0  0  0999 V2000
   22.6318   34.3422   17.2812 P   0  0  1  0  0  0  0  0  0  0  0  0
   21.6414   33.2942   16.8204 O   0  0  0  0  0  0  0  0  0  0  0  0
   21.9514   35.6830   17.2145 O   0  5  0  0  0  0  0  0  0  0  0  0
   23.0607   34.0653   18.6958 O   0  0  0  0  0  0  0  0  0  0  0  0
   24.7716   33.1317   16.4224 C   0  0  0  0  0  0  0  0  0  0  0  0
   23.9468   34.2703   16.3711 O   0  0  0  0  0  0  0  0  0  0  0  0
   25.8503   33.2496   15.3556 C   0  0  1  0  0  0  0  0  0  0  0  0
   25.2279   33.3132   14.0900 O   0  0  0  0  0  0  0  0  0  0  0  0
   26.6999   34.4975   15.5956 C   0  0  1  0  0  0  0  0  0  0  0  0
   27.2276   34.4673   16.9045 O   0  0  0  0  0  0  0  0  0  0  0  0
   27.8094   34.6997   14.5542 C   0  0  1  0  0  0  0  0  0  0  0  0
   27.2733   34.5905   13.2543 O   0  0  0  0  0  0  0  0  0  0  0  0
   28.5045   36.0444   14.6954 C   0  0  0  0  0  0  0  0  0  0  0  0
   30.7957   34.3928   14.6164 N   0  0  0  0  0  0  0  0  0  0  0  0
   31.9261   33.6087   14.5075 C   0  0  0  0  0  0  0  0  0  0  0  0
   32.0824   32.8802   13.5236 O   0  0  0  0  0  0  0  0  0  0  0  0
   32.8748   33.6371   15.5096 N   0  0  0  0  0  0  0  0  0  0  0  0
   32.6973   34.4449   16.6170 C   0  0  0  0  0  0  0  0  0  0  0  0
   31.5697   35.2315   16.7285 C   0  0  1  0  0  0  0  0  0  0  0  0
   33.5390   34.4866   17.5127 O   0  0  0  0  0  0  0  0  0  0  0  0
   30.2865   36.8277   17.9534 C   0  0  2  0  0  0  0  0  0  0  0  0
   31.4112   36.0363   17.8400 N   0  0  0  0  0  0  0  0  0  0  0  0
   30.1234   37.6384   19.0740 C   0  0  0  0  0  0  0  0  0  0  0  0
   28.9894   38.4344   19.2015 C   0  0  1  0  0  0  0  0  0  0  0  0
   28.8342   39.3120   20.4128 C   0  0  0  0  0  0  0  0  0  0  0  0
   28.0157   38.4185   18.1964 C   0  0  1  0  0  0  0  0  0  0  0  0
   26.7888   39.2770   18.2979 C   0  0  0  0  0  0  0  0  0  0  0  0
   28.1827   37.6074   17.0779 C   0  0  0  0  0  0  0  0  0  0  0  0
   29.3151   36.8069   16.9480 C   0  0  2  0  0  0  0  0  0  0  0  0
   30.6119   35.2081   15.7212 C   0  0  2  0  0  0  0  0  0  0  0  0
   29.4781   35.9894   15.8359 N   0  0  0  0  0  0  0  0  0  0  0  0
  1  2  1  6  0  0  0
  1  3  1  0  0  0  0
  1  4  2  0  0  0  0
  1  6  1  0  0  0  0
  5  6  1  0  0  0  0
  7  5  1  1  0  0  0
  7  8  1  0  0  0  0
  7  9  1  0  0  0  0
  9 10  1  1  0  0  0
  9 11  1  0  0  0  0
 11 12  1  6  0  0  0
 11 13  1  0  0  0  0
 13 31  1  0  0  0  0
 14 15  1  0  0  0  0
 15 16  2  0  0  0  0
 15 17  1  0  0  0  0
 17 18  1  0  0  0  0
 18 20  2  0  0  0  0
 19 18  1  6  0  0  0
 19 22  1  0  0  0  0
 19 30  1  0  0  0  0
 21 23  1  1  0  0  0
 21 29  1  0  0  0  0
 21 22  1  0  0  0  0
 23 24  1  0  0  0  0
 24 25  1  6  0  0  0
 24 26  1  0  0  0  0
 26 27  1  6  0  0  0
 26 28  1  0  0  0  0
 29 28  1  1  0  0  0
 29 31  1  0  0  0  0
 30 14  1  1  0  0  0
 30 31  1  0  0  0  0
M  CHG  1   3  -1
M  END
>  <CHROM.1>
173.54801944,-66.10554808,-61.13712602,55.26367569,49.73602793,78.05005400
-117.17225107,27.82699553,35.24185943,16.54335834,3.11123849,-0.11210785
-2.39357531

>  <Name>
ligand

>  <RI>
0

>  <Rbt.Current_Directory>
/home/itssahil/PROJECTS/Mol_Feturizer/New_Systems/rnas/3F2Q

>  <Rbt.Executable>
rbdock ($Id: //depot/dev/client3/rdock/2013.1/src/exe/rbdock.cxx#4 $)

>  <Rbt.Library>
libRbt.so (2013.1, Build901 2013/11/27)

>  <Rbt.Parameter_File>
/export/apps/rDock/src/rDock_2013.1_src/data/scripts/dock_solv.prm

>  <Rbt.Receptor>
prm/pocket_docking_7.prm

>  <SCORE>
-9.16133

>  <SCORE.INTER>
-4.0409

>  <SCORE.INTER.CONST>
1

>  <SCORE.INTER.POLAR>
0

>  <SCORE.INTER.ROT>
7

>  <SCORE.INTER.SOLV>
12.854

>  <SCORE.INTER.VDW>
-15.2452

>  <SCORE.INTER.norm>
-0.130351

>  <SCORE.INTRA>
-5.12043

>  <SCORE.INTRA.DIHEDRAL>
-6.85021

>  <SCORE.INTRA.DIHEDRAL.0>
10.0718

>  <SCORE.INTRA.POLAR>
0

>  <SCORE.INTRA.POLAR.0>
0

>  <SCORE.INTRA.REPUL>
0

>  <SCORE.INTRA.REPUL.0>
0

>  <SCORE.INTRA.SOLV>
-0.893451

>  <SCORE.INTRA.SOLV.lig_0>
-48.6963

>  <SCORE.INTRA.VDW>
-1.2486

>  <SCORE.INTRA.VDW.0>
-0.836976

>  <SCORE.INTRA.norm>
-0.165175

>  <SCORE.RESTR>
0

>  <SCORE.RESTR.CAVITY>
0

>  <SCORE.RESTR.norm>
0

>  <SCORE.SYSTEM>
0

>  <SCORE.SYSTEM.CONST>
0

>  <SCORE.SYSTEM.DIHEDRAL>
0

>  <SCORE.SYSTEM.SOLV>
0

>  <SCORE.SYSTEM.norm>
0

>  <SCORE.heavy>
31

>  <SCORE.norm>
-0.295527

>  <RMSD>
6.737

$$$$
ligand
 OpenBabel11021811473D
libRbt.so/2013.1/901 2013/11/27
 31 33  0  0  0  0  0  0  0  0999 V2000
   24.1907   32.4498   15.2170 P   0  0  1  0  0  0  0  0  0  0  0  0
   25.4267   31.7497   14.6940 O   0  0  0  0  0  0  0  0  0  0  0  0
   23.1463   32.4161   14.1338 O   0  5  0  0  0  0  0  0  0  0  0  0
   23.6714   31.7434   16.4389 O   0  0  0  0  0  0  0  0  0  0  0  0
   25.7069   34.1623   16.4620 C   0  0  0  0  0  0  0  0  0  0  0  0
   24.5700   33.9395   15.6638 O   0  0  0  0  0  0  0  0  0  0  0  0
   25.7702   35.6353   16.8387 C   0  0  1  0  0  0  0  0  0  0  0  0
   24.6158   35.9601   17.5839 O   0  0  0  0  0  0  0  0  0  0  0  0
   27.0303   35.9204   17.6558 C   0  0  1  0  0  0  0  0  0  0  0  0
   28.1735   35.6821   16.8628 O   0  0  0  0  0  0  0  0  0  0  0  0
   27.0638   37.3269   18.2698 C   0  0  1  0  0  0  0  0  0  0  0  0
   25.9596   37.5018   19.1295 O   0  0  0  0  0  0  0  0  0  0  0  0
   28.3449   37.5960   19.0430 C   0  0  0  0  0  0  0  0  0  0  0  0
   28.4657   40.3758   18.5517 N   0  0  0  0  0  0  0  0  0  0  0  0
   28.4871   41.7219   18.2483 C   0  0  0  0  0  0  0  0  0  0  0  0
   28.8243   42.0978   17.1221 O   0  0  0  0  0  0  0  0  0  0  0  0
   28.1388   42.6443   19.2141 N   0  0  0  0  0  0  0  0  0  0  0  0
   27.7700   42.2261   20.4789 C   0  0  0  0  0  0  0  0  0  0  0  0
   27.7456   40.8815   20.7854 C   0  0  1  0  0  0  0  0  0  0  0  0
   27.4487   43.0369   21.3460 O   0  0  0  0  0  0  0  0  0  0  0  0
   27.3403   39.1370   22.3625 C   0  0  2  0  0  0  0  0  0  0  0  0
   27.3699   40.4814   22.0531 N   0  0  0  0  0  0  0  0  0  0  0  0
   26.9638   38.7313   23.6406 C   0  0  0  0  0  0  0  0  0  0  0  0
   26.9380   37.3786   23.9650 C   0  0  1  0  0  0  0  0  0  0  0  0
   26.5188   36.9572   25.3464 C   0  0  0  0  0  0  0  0  0  0  0  0
   27.2888   36.4281   22.9994 C   0  0  1  0  0  0  0  0  0  0  0  0
   27.2563   34.9610   23.3143 C   0  0  0  0  0  0  0  0  0  0  0  0
   27.6637   36.8376   21.7233 C   0  0  0  0  0  0  0  0  0  0  0  0
   27.6938   38.1911   21.3956 C   0  0  2  0  0  0  0  0  0  0  0  0
   28.0936   39.9481   19.8158 C   0  0  2  0  0  0  0  0  0  0  0  0
   28.0774   38.6014   20.1244 N   0  0  0  0  0  0  0  0  0  0  0  0
  1  2  1  6  0  0  0
  1  3  1  0  0  0  0
  1  4  2  0  0  0  0
  1  6  1  0  0  0  0
  5  6  1  0  0  0  0
  7  5  1  1  0  0  0
  7  8  1  0  0  0  0
  7  9  1  0  0  0  0
  9 10  1  6  0  0  0
  9 11  1  0  0  0  0
 11 12  1  1  0  0  0
 11 13  1  0  0  0  0
 13 31  1  0  0  0  0
 14 15  1  0  0  0  0
 15 16  2  0  0  0  0
 15 17  1  0  0  0  0
 17 18  1  0  0  0  0
 18 20  2  0  0  0  0
 19 18  1  6  0  0  0
 19 22  1  0  0  0  0
 19 30  1  0  0  0  0
 21 23  1  1  0  0  0
 21 29  1  0  0  0  0
 21 22  1  0  0  0  0
 23 24  1  0  0  0  0
 24 25  1  6  0  0  0
 24 26  1  0  0  0  0
 26 27  1  6  0  0  0
 26 28  1  0  0  0  0
 29 28  1  1  0  0  0
 29 31  1  0  0  0  0
 30 14  1  1  0  0  0
 30 31  1  0  0  0  0
M  CHG  1   3  -1
M  END
>  <CHROM.1>
-175.19936737,-47.14758500,61.34096684,64.12815629,59.75027023,-152.21377099
90.66146871,26.65548694,37.18368271,19.05588888,-2.73118817,1.21021787,1.78822366

>  <Name>
ligand

>  <RI>
0

>  <Rbt.Current_Directory>
/home/itssahil/PROJECTS/Mol_Feturizer/New_Systems/rnas/3F2Q

>  <Rbt.Executable>
rbdock ($Id: //depot/dev/client3/rdock/2013.1/src/exe/rbdock.cxx#4 $)

>  <Rbt.Library>
libRbt.so (2013.1, Build901 2013/11/27)

>  <Rbt.Parameter_File>
/export/apps/rDock/src/rDock_2013.1_src/data/scripts/dock_solv.prm

>  <Rbt.Receptor>
prm/blind_docking_100.prm

>  <SCORE>
-23.6389

>  <SCORE.INTER>
-19.2139

>  <SCORE.INTER.CONST>
1

>  <SCORE.INTER.POLAR>
0

>  <SCORE.INTER.ROT>
7

>  <SCORE.INTER.SOLV>
15.6628

>  <SCORE.INTER.VDW>
-26.2969

>  <SCORE.INTER.norm>
-0.619802

>  <SCORE.INTRA>
-4.42502

>  <SCORE.INTRA.DIHEDRAL>
-6.17072

>  <SCORE.INTRA.DIHEDRAL.0>
10.0718

>  <SCORE.INTRA.POLAR>
0

>  <SCORE.INTRA.POLAR.0>
0

>  <SCORE.INTRA.REPUL>
0

>  <SCORE.INTRA.REPUL.0>
0

>  <SCORE.INTRA.SOLV>
-1.19149

>  <SCORE.INTRA.SOLV.lig_0>
-48.6963

>  <SCORE.INTRA.VDW>
-0.743917

>  <SCORE.INTRA.VDW.0>
-0.836976

>  <SCORE.INTRA.norm>
-0.142743

>  <SCORE.RESTR>
0

>  <SCORE.RESTR.CAVITY>
0

>  <SCORE.RESTR.norm>
0

>  <SCORE.SYSTEM>
0

>  <SCORE.SYSTEM.CONST>
0

>  <SCORE.SYSTEM.DIHEDRAL>
0

>  <SCORE.SYSTEM.SOLV>
0

>  <SCORE.SYSTEM.norm>
0

>  <SCORE.heavy>
31

>  <SCORE.norm>
-0.762545

>  <RMSD>
6.747

$$$$
ligand
 OpenBabel11021811473D
libRbt.so/2013.1/901 2013/11/27
 31 33  0  0  0  0  0  0  0  0999 V2000
   23.3386   43.0474   26.3266 P   0  0  1  0  0  0  0  0  0  0  0  0
   23.0911   41.6663   26.8949 O   0  0  0  0  0  0  0  0  0  0  0  0
   22.1210   43.4486   25.5382 O   0  5  0  0  0  0  0  0  0  0  0  0
   23.5654   44.0338   27.4390 O   0  0  0  0  0  0  0  0  0  0  0  0
   24.7504   42.1873   24.3144 C   0  0  0  0  0  0  0  0  0  0  0  0
   24.6710   43.0283   25.4394 O   0  0  0  0  0  0  0  0  0  0  0  0
   26.1441   42.2905   23.7126 C   0  0  1  0  0  0  0  0  0  0  0  0
   27.0921   42.0030   24.7186 O   0  0  0  0  0  0  0  0  0  0  0  0
   26.2919   41.3143   22.5456 C   0  0  1  0  0  0  0  0  0  0  0  0
   25.4190   41.6882   21.5012 O   0  0  0  0  0  0  0  0  0  0  0  0
   27.7338   41.1700   22.0392 C   0  0  1  0  0  0  0  0  0  0  0  0
   28.3300   42.4423   21.9188 O   0  0  0  0  0  0  0  0  0  0  0  0
   28.5885   40.3032   22.9502 C   0  0  0  0  0  0  0  0  0  0  0  0
   27.1585   38.8669   24.9188 N   0  0  0  0  0  0  0  0  0  0  0  0
   26.4153   38.2246   25.8881 C   0  0  0  0  0  0  0  0  0  0  0  0
   26.1452   38.8013   26.9453 O   0  0  0  0  0  0  0  0  0  0  0  0
   25.9848   36.9311   25.6718 N   0  0  0  0  0  0  0  0  0  0  0  0
   26.2942   36.2799   24.4926 C   0  0  0  0  0  0  0  0  0  0  0  0
   27.0352   36.9192   23.5206 C   0  0  1  0  0  0  0  0  0  0  0  0
   25.9093   35.1307   24.2833 O   0  0  0  0  0  0  0  0  0  0  0  0
   28.0687   36.8921   21.3699 C   0  0  2  0  0  0  0  0  0  0  0  0
   27.3310   36.2546   22.3463 N   0  0  0  0  0  0  0  0  0  0  0  0
   28.3699   36.2234   20.1858 C   0  0  0  0  0  0  0  0  0  0  0  0
   29.1195   36.8547   19.1982 C   0  0  1  0  0  0  0  0  0  0  0  0
   29.4267   36.1221   17.9213 C   0  0  0  0  0  0  0  0  0  0  0  0
   29.5660   38.1657   19.3994 C   0  0  1  0  0  0  0  0  0  0  0  0
   30.3636   38.8787   18.3468 C   0  0  0  0  0  0  0  0  0  0  0  0
   29.2623   38.8306   20.5837 C   0  0  0  0  0  0  0  0  0  0  0  0
   28.5146   38.2011   21.5761 C   0  0  2  0  0  0  0  0  0  0  0  0
   27.4697   38.2226   23.7326 C   0  0  2  0  0  0  0  0  0  0  0  0
   28.2191   38.8609   22.7630 N   0  0  0  0  0  0  0  0  0  0  0  0
  1  2  1  1  0  0  0
  1  3  1  0  0  0  0
  1  4  2  0  0  0  0
  1  6  1  0  0  0  0
  5  6  1  0  0  0  0
  7  5  1  1  0  0  0
  7  8  1  0  0  0  0
  7  9  1  0  0  0  0
  9 10  1  6  0  0  0
  9 11  1  0  0  0  0
 11 12  1  1  0  0  0
 11 13  1  0  0  0  0
 13 31  1  0  0  0  0
 14 15  1  0  0  0  0
 15 16  2  0  0  0  0
 15 17  1  0  0  0  0
 17 18  1  0  0  0  0
 18 20  2  0  0  0  0
 19 18  1  6  0  0  0
 19 22  1  0  0  0  0
 19 30  1  0  0  0  0
 21 23  1  1  0  0  0
 21 29  1  0  0  0  0
 21 22  1  0  0  0  0
 23 24  1  0  0  0  0
 24 25  1  6  0  0  0
 24 26  1  0  0  0  0
 26 27  1  6  0  0  0
 26 28  1  0  0  0  0
 29 28  1  1  0  0  0
 29 31  1  0  0  0  0
 30 14  1  1  0  0  0
 30 31  1  0  0  0  0
M  CHG  1   3  -1
M  END
>  <CHROM.1>
-176.13901394,60.58805122,54.91290267,65.06022723,-45.12888572,74.79210730
68.83920464,26.59464246,39.73772219,23.39984317,-2.77855165,-0.96548098,2.82418949

>  <Name>
ligand

>  <RI>
0

>  <Rbt.Current_Directory>
/home/itssahil/PROJECTS/Mol_Feturizer/New_Systems/rnas/3F2Q

>  <Rbt.Executable>
rbdock ($Id: //depot/dev/client3/rdock/2013.1/src/exe/rbdock.cxx#4 $)

>  <Rbt.Library>
libRbt.so (2013.1, Build901 2013/11/27)

>  <Rbt.Parameter_File>
/export/apps/rDock/src/rDock_2013.1_src/data/scripts/dock_solv.prm

>  <Rbt.Receptor>
prm/pocket_docking_7.prm

>  <SCORE>
-33.6233

>  <SCORE.INTER>
-27.7582

>  <SCORE.INTER.CONST>
1

>  <SCORE.INTER.POLAR>
0

>  <SCORE.INTER.ROT>
7

>  <SCORE.INTER.SOLV>
14.2384

>  <SCORE.INTER.VDW>
-31.5183

>  <SCORE.INTER.norm>
-0.895425

>  <SCORE.INTRA>
-5.86514

>  <SCORE.INTRA.DIHEDRAL>
-7.10801

>  <SCORE.INTRA.DIHEDRAL.0>
10.0718

>  <SCORE.INTRA.POLAR>
0

>  <SCORE.INTRA.POLAR.0>
0

>  <SCORE.INTRA.REPUL>
0

>  <SCORE.INTRA.REPUL.0>
0

>  <SCORE.INTRA.SOLV>
-1.2085

>  <SCORE.INTRA.SOLV.lig_0>
-48.6963

>  <SCORE.INTRA.VDW>
-1.70689

>  <SCORE.INTRA.VDW.0>
-0.836976

>  <SCORE.INTRA.norm>
-0.189198

>  <SCORE.RESTR>
0

>  <SCORE.RESTR.CAVITY>
0

>  <SCORE.RESTR.norm>
0

>  <SCORE.SYSTEM>
0

>  <SCORE.SYSTEM.CONST>
0

>  <SCORE.SYSTEM.DIHEDRAL>
0

>  <SCORE.SYSTEM.SOLV>
0

>  <SCORE.SYSTEM.norm>
0

>  <SCORE.heavy>
31

>  <SCORE.norm>
-1.08462

>  <RMSD>
6.762

$$$$
ligand
 OpenBabel11021811473D
libRbt.so/2013.1/901 2013/11/27
 31 33  0  0  0  0  0  0  0  0999 V2000
   28.2060   40.5009   22.9919 P   0  0  1  0  0  0  0  0  0  0  0  0
   29.4967   41.2189   22.6599 O   0  0  0  0  0  0  0  0  0  0  0  0
   28.3967   39.7890   24.3041 O   0  5  0  0  0  0  0  0  0  0  0  0
   27.0787   41.4888   23.1144 O   0  0  0  0  0  0  0  0  0  0  0  0
   28.8475   38.8690   21.0665 C   0  0  0  0  0  0  0  0  0  0  0  0
   27.8272   39.5047   21.7974 O   0  0  0  0  0  0  0  0  0  0  0  0
   28.2194   37.9982   19.9882 C   0  0  1  0  0  0  0  0  0  0  0  0
   29.1569   37.8231   18.9472 O   0  0  0  0  0  0  0  0  0  0  0  0
   27.8098   36.6454   20.5704 C   0  0  1  0  0  0  0  0  0  0  0  0
   26.9440   36.8439   21.6674 O   0  0  0  0  0  0  0  0  0  0  0  0
   27.1906   35.6909   19.5399 C   0  0  1  0  0  0  0  0  0  0  0  0
   26.8290   34.4793   20.1644 O   0  0  0  0  0  0  0  0  0  0  0  0
   25.9688   36.2831   18.8559 C   0  0  0  0  0  0  0  0  0  0  0  0
   23.5007   34.9092   18.7876 N   0  0  0  0  0  0  0  0  0  0  0  0
   22.2624   34.3002   18.7799 C   0  0  0  0  0  0  0  0  0  0  0  0
   21.5260   34.3810   19.7670 O   0  0  0  0  0  0  0  0  0  0  0  0
   21.8573   33.5928   17.6660 N   0  0  0  0  0  0  0  0  0  0  0  0
   22.6843   33.4929   16.5630 C   0  0  0  0  0  0  0  0  0  0  0  0
   23.9219   34.1019   16.5663 C   0  0  1  0  0  0  0  0  0  0  0  0
   22.3320   32.8734   15.5607 O   0  0  0  0  0  0  0  0  0  0  0  0
   25.9703   34.6067   15.4510 C   0  0  2  0  0  0  0  0  0  0  0  0
   24.7332   33.9956   15.4533 N   0  0  0  0  0  0  0  0  0  0  0  0
   26.7910   34.4993   14.3308 C   0  0  0  0  0  0  0  0  0  0  0  0
   28.0433   35.1054   14.3214 C   0  0  1  0  0  0  0  0  0  0  0  0
   28.9123   34.9885   13.0996 C   0  0  0  0  0  0  0  0  0  0  0  0
   28.4722   35.8261   15.4417 C   0  0  1  0  0  0  0  0  0  0  0  0
   29.8114   36.5037   15.4562 C   0  0  0  0  0  0  0  0  0  0  0  0
   27.6490   35.9317   16.5589 C   0  0  0  0  0  0  0  0  0  0  0  0
   26.3958   35.3238   16.5733 C   0  0  2  0  0  0  0  0  0  0  0  0
   24.3340   34.8172   17.6848 C   0  0  2  0  0  0  0  0  0  0  0  0
   25.5770   35.4206   17.6921 N   0  0  0  0  0  0  0  0  0  0  0  0
  1  2  1  6  0  0  0
  1  3  1  0  0  0  0
  1  4  2  0  0  0  0
  1  6  1  0  0  0  0
  5  6  1  0  0  0  0
  7  5  1  1  0  0  0
  7  8  1  0  0  0  0
  7  9  1  0  0  0  0
  9 10  1  1  0  0  0
  9 11  1  0  0  0  0
 11 12  1  1  0  0  0
 11 13  1  0  0  0  0
 13 31  1  0  0  0  0
 14 15  1  0  0  0  0
 15 16  2  0  0  0  0
 15 17  1  0  0  0  0
 17 18  1  0  0  0  0
 18 20  2  0  0  0  0
 19 18  1  6  0  0  0
 19 22  1  0  0  0  0
 19 30  1  0  0  0  0
 21 23  1  1  0  0  0
 21 29  1  0  0  0  0
 21 22  1  0  0  0  0
 23 24  1  0  0  0  0
 24 25  1  6  0  0  0
 24 26  1  0  0  0  0
 26 27  1  6  0  0  0
 26 28  1  0  0  0  0
 29 28  1  1  0  0  0
 29 31  1  0  0  0  0
 30 14  1  1  0  0  0
 30 31  1  0  0  0  0
M  CHG  1   3  -1
M  END
>  <CHROM.1>
-179.31202508,33.30673972,155.70489643,55.94685242,-179.28113162,169.24857968
-67.55558683,26.46359401,36.46300514,18.77240144,1.11682917,0.46006793,1.05369645

>  <Name>
ligand

>  <RI>
0

>  <Rbt.Current_Directory>
/home/itssahil/PROJECTS/Mol_Feturizer/New_Systems/rnas/3F2Q

>  <Rbt.Executable>
rbdock ($Id: //depot/dev/client3/rdock/2013.1/src/exe/rbdock.cxx#4 $)

>  <Rbt.Library>
libRbt.so (2013.1, Build901 2013/11/27)

>  <Rbt.Parameter_File>
/export/apps/rDock/src/rDock_2013.1_src/data/scripts/dock_solv.prm

>  <Rbt.Receptor>
prm/blind_docking_60.prm

>  <SCORE>
-17.2651

>  <SCORE.INTER>
-12.7338

>  <SCORE.INTER.CONST>
1

>  <SCORE.INTER.POLAR>
0

>  <SCORE.INTER.ROT>
7

>  <SCORE.INTER.SOLV>
11.7882

>  <SCORE.INTER.VDW>
-20.6852

>  <SCORE.INTER.norm>
-0.410767

>  <SCORE.INTRA>
-4.53129

>  <SCORE.INTRA.DIHEDRAL>
-5.34106

>  <SCORE.INTRA.DIHEDRAL.0>
10.0718

>  <SCORE.INTRA.POLAR>
0

>  <SCORE.INTRA.POLAR.0>
0

>  <SCORE.INTRA.REPUL>
0

>  <SCORE.INTRA.REPUL.0>
0

>  <SCORE.INTRA.SOLV>
-1.29093

>  <SCORE.INTRA.SOLV.lig_0>
-48.6963

>  <SCORE.INTRA.VDW>
-1.21529

>  <SCORE.INTRA.VDW.0>
-0.836976

>  <SCORE.INTRA.norm>
-0.146171

>  <SCORE.RESTR>
0

>  <SCORE.RESTR.CAVITY>
0

>  <SCORE.RESTR.norm>
0

>  <SCORE.SYSTEM>
0

>  <SCORE.SYSTEM.CONST>
0

>  <SCORE.SYSTEM.DIHEDRAL>
0

>  <SCORE.SYSTEM.SOLV>
0

>  <SCORE.SYSTEM.norm>
0

>  <SCORE.heavy>
31

>  <SCORE.norm>
-0.556937

>  <RMSD>
6.763

$$$$
ligand
 OpenBabel11021811473D
libRbt.so/2013.1/901 2013/11/27
 31 33  0  0  0  0  0  0  0  0999 V2000
   28.6640   32.8480   17.1138 P   0  0  1  0  0  0  0  0  0  0  0  0
   27.2594   32.3295   16.8909 O   0  0  0  0  0  0  0  0  0  0  0  0
   29.6273   31.7998   16.6254 O   0  5  0  0  0  0  0  0  0  0  0  0
   28.8753   34.1230   16.3448 O   0  0  0  0  0  0  0  0  0  0  0  0
   27.8223   33.8121   19.3818 C   0  0  0  0  0  0  0  0  0  0  0  0
   28.8641   33.1976   18.6631 O   0  0  0  0  0  0  0  0  0  0  0  0
   27.5308   35.1743   18.7696 C   0  0  1  0  0  0  0  0  0  0  0  0
   26.2872   35.6312   19.2576 O   0  0  0  0  0  0  0  0  0  0  0  0
   28.6397   36.1644   19.1254 C   0  0  1  0  0  0  0  0  0  0  0  0
   29.8935   35.6169   18.7778 O   0  0  0  0  0  0  0  0  0  0  0  0
   28.4496   37.5551   18.5042 C   0  0  1  0  0  0  0  0  0  0  0  0
   28.3605   37.4460   17.1010 O   0  0  0  0  0  0  0  0  0  0  0  0
   27.2112   38.2643   19.0286 C   0  0  0  0  0  0  0  0  0  0  0  0
   27.8945   41.0057   18.9886 N   0  0  0  0  0  0  0  0  0  0  0  0
   28.1715   42.3560   18.9219 C   0  0  0  0  0  0  0  0  0  0  0  0
   28.2377   42.9214   17.8269 O   0  0  0  0  0  0  0  0  0  0  0  0
   28.3836   43.0670   20.0857 N   0  0  0  0  0  0  0  0  0  0  0  0
   28.3194   42.4339   21.3127 C   0  0  0  0  0  0  0  0  0  0  0  0
   28.0409   41.0848   21.3837 C   0  0  1  0  0  0  0  0  0  0  0  0
   28.4973   43.0573   22.3578 O   0  0  0  0  0  0  0  0  0  0  0  0
   27.6936   39.1210   22.6942 C   0  0  2  0  0  0  0  0  0  0  0  0
   27.9760   40.4695   22.6187 N   0  0  0  0  0  0  0  0  0  0  0  0
   27.6297   38.4980   23.9382 C   0  0  0  0  0  0  0  0  0  0  0  0
   27.3532   37.1371   24.0247 C   0  0  1  0  0  0  0  0  0  0  0  0
   27.2772   36.4824   25.3764 C   0  0  0  0  0  0  0  0  0  0  0  0
   27.1363   36.3989   22.8557 C   0  0  1  0  0  0  0  0  0  0  0  0
   26.8211   34.9328   22.9170 C   0  0  0  0  0  0  0  0  0  0  0  0
   27.2004   37.0253   21.6146 C   0  0  0  0  0  0  0  0  0  0  0  0
   27.4799   38.3868   21.5236 C   0  0  2  0  0  0  0  0  0  0  0  0
   27.8246   40.3643   20.2146 C   0  0  2  0  0  0  0  0  0  0  0  0
   27.5537   39.0112   20.2842 N   0  0  0  0  0  0  0  0  0  0  0  0
  1  2  1  6  0  0  0
  1  3  1  0  0  0  0
  1  4  2  0  0  0  0
  1  6  1  0  0  0  0
  5  6  1  0  0  0  0
  7  5  1  1  0  0  0
  7  8  1  0  0  0  0
  7  9  1  0  0  0  0
  9 10  1  6  0  0  0
  9 11  1  0  0  0  0
 11 12  1  6  0  0  0
 11 13  1  0  0  0  0
 13 31  1  0  0  0  0
 14 15  1  0  0  0  0
 15 16  2  0  0  0  0
 15 17  1  0  0  0  0
 17 18  1  0  0  0  0
 18 20  2  0  0  0  0
 19 18  1  1  0  0  0
 19 22  1  0  0  0  0
 19 30  1  0  0  0  0
 21 23  1  6  0  0  0
 21 29  1  0  0  0  0
 21 22  1  0  0  0  0
 23 24  1  0  0  0  0
 24 25  1  1  0  0  0
 24 26  1  0  0  0  0
 26 27  1  1  0  0  0
 26 28  1  0  0  0  0
 29 28  1  6  0  0  0
 29 31  1  0  0  0  0
 30 14  1  6  0  0  0
 30 31  1  0  0  0  0
M  CHG  1   3  -1
M  END
>  <CHROM.1>
-62.33949832,-39.85073892,165.16204714,52.73101965,-57.32977825,87.06453591
-87.90035326,28.01872510,37.35662858,19.90486232,-1.30053274,1.37800053,0.15217883

>  <Name>
ligand

>  <RI>
0

>  <Rbt.Current_Directory>
/home/itssahil/PROJECTS/Mol_Feturizer/New_Systems/rnas/3F2Q

>  <Rbt.Executable>
rbdock ($Id: //depot/dev/client3/rdock/2013.1/src/exe/rbdock.cxx#4 $)

>  <Rbt.Library>
libRbt.so (2013.1, Build901 2013/11/27)

>  <Rbt.Parameter_File>
/export/apps/rDock/src/rDock_2013.1_src/data/scripts/dock_solv.prm

>  <Rbt.Receptor>
prm/blind_docking_60.prm

>  <SCORE>
-22.6694

>  <SCORE.INTER>
-20.0871

>  <SCORE.INTER.CONST>
1

>  <SCORE.INTER.POLAR>
0

>  <SCORE.INTER.ROT>
7

>  <SCORE.INTER.SOLV>
13.2261

>  <SCORE.INTER.VDW>
-26.0668

>  <SCORE.INTER.norm>
-0.647971

>  <SCORE.INTRA>
-2.58232

>  <SCORE.INTRA.DIHEDRAL>
-4.75511

>  <SCORE.INTRA.DIHEDRAL.0>
10.0718

>  <SCORE.INTRA.POLAR>
0

>  <SCORE.INTRA.POLAR.0>
0

>  <SCORE.INTRA.REPUL>
0

>  <SCORE.INTRA.REPUL.0>
0

>  <SCORE.INTRA.SOLV>
2.91648

>  <SCORE.INTRA.SOLV.lig_0>
-48.6963

>  <SCORE.INTRA.VDW>
-1.66301

>  <SCORE.INTRA.VDW.0>
-0.836976

>  <SCORE.INTRA.norm>
-0.0833007

>  <SCORE.RESTR>
0

>  <SCORE.RESTR.CAVITY>
0

>  <SCORE.RESTR.norm>
0

>  <SCORE.SYSTEM>
0

>  <SCORE.SYSTEM.CONST>
0

>  <SCORE.SYSTEM.DIHEDRAL>
0

>  <SCORE.SYSTEM.SOLV>
0

>  <SCORE.SYSTEM.norm>
0

>  <SCORE.heavy>
31

>  <SCORE.norm>
-0.731272

>  <RMSD>
6.783

$$$$
ligand
 OpenBabel11021811473D
libRbt.so/2013.1/901 2013/11/27
 31 33  0  0  0  0  0  0  0  0999 V2000
   28.3792   33.0177   17.5028 P   0  0  1  0  0  0  0  0  0  0  0  0
   29.4236   31.9699   17.1818 O   0  0  0  0  0  0  0  0  0  0  0  0
   27.0395   32.4825   17.0738 O   0  5  0  0  0  0  0  0  0  0  0  0
   28.3601   33.2963   18.9806 O   0  0  0  0  0  0  0  0  0  0  0  0
   29.9512   35.0566   17.1114 C   0  0  0  0  0  0  0  0  0  0  0  0
   28.7590   34.3908   16.7728 O   0  0  0  0  0  0  0  0  0  0  0  0
   30.0280   36.3650   16.3383 C   0  0  1  0  0  0  0  0  0  0  0  0
   29.9966   36.0751   14.9569 O   0  0  0  0  0  0  0  0  0  0  0  0
   28.8607   37.2756   16.7190 C   0  0  1  0  0  0  0  0  0  0  0  0
   27.6414   36.6500   16.3804 O   0  0  0  0  0  0  0  0  0  0  0  0
   28.8712   37.7116   18.1907 C   0  0  1  0  0  0  0  0  0  0  0  0
   29.8939   38.6591   18.4035 O   0  0  0  0  0  0  0  0  0  0  0  0
   27.5429   38.3040   18.6336 C   0  0  0  0  0  0  0  0  0  0  0  0
   28.0645   41.0706   18.8736 N   0  0  0  0  0  0  0  0  0  0  0  0
   28.2673   42.4341   18.9386 C   0  0  0  0  0  0  0  0  0  0  0  0
   28.4142   43.0887   17.9027 O   0  0  0  0  0  0  0  0  0  0  0  0
   28.3145   43.0586   20.1685 N   0  0  0  0  0  0  0  0  0  0  0  0
   28.1597   42.3261   21.3304 C   0  0  0  0  0  0  0  0  0  0  0  0
   27.9550   40.9634   21.2695 C   0  0  1  0  0  0  0  0  0  0  0  0
   28.1906   42.8714   22.4323 O   0  0  0  0  0  0  0  0  0  0  0  0
   27.5885   38.8853   22.3837 C   0  0  2  0  0  0  0  0  0  0  0  0
   27.7976   40.2480   22.4406 N   0  0  0  0  0  0  0  0  0  0  0  0
   27.4316   38.1614   23.5633 C   0  0  0  0  0  0  0  0  0  0  0  0
   27.2279   36.7859   23.5171 C   0  0  1  0  0  0  0  0  0  0  0  0
   27.0497   36.0212   24.7997 C   0  0  0  0  0  0  0  0  0  0  0  0
   27.1781   36.1344   22.2795 C   0  0  1  0  0  0  0  0  0  0  0  0
   26.9448   34.6541   22.1963 C   0  0  0  0  0  0  0  0  0  0  0  0
   27.3347   36.8614   21.1031 C   0  0  0  0  0  0  0  0  0  0  0  0
   27.5418   38.2381   21.1452 C   0  0  2  0  0  0  0  0  0  0  0  0
   27.9047   40.3296   20.0332 C   0  0  2  0  0  0  0  0  0  0  0  0
   27.7079   38.9634   19.9714 N   0  0  0  0  0  0  0  0  0  0  0  0
  1  2  1  6  0  0  0
  1  3  1  0  0  0  0
  1  4  2  0  0  0  0
  1  6  1  0  0  0  0
  5  6  1  0  0  0  0
  7  5  1  1  0  0  0
  7  8  1  0  0  0  0
  7  9  1  0  0  0  0
  9 10  1  1  0  0  0
  9 11  1  0  0  0  0
 11 12  1  6  0  0  0
 11 13  1  0  0  0  0
 13 31  1  0  0  0  0
 14 15  1  0  0  0  0
 15 16  2  0  0  0  0
 15 17  1  0  0  0  0
 17 18  1  0  0  0  0
 18 20  2  0  0  0  0
 19 18  1  6  0  0  0
 19 22  1  0  0  0  0
 19 30  1  0  0  0  0
 21 23  1  1  0  0  0
 21 29  1  0  0  0  0
 21 22  1  0  0  0  0
 23 24  1  0  0  0  0
 24 25  1  6  0  0  0
 24 26  1  0  0  0  0
 26 27  1  6  0  0  0
 26 28  1  0  0  0  0
 29 28  1  1  0  0  0
 29 31  1  0  0  0  0
 30 14  1  1  0  0  0
 30 31  1  0  0  0  0
M  CHG  1   3  -1
M  END
>  <CHROM.1>
-176.65324767,-62.96875232,-59.37803057,-61.65417925,72.89804704,-168.23923367
-88.31392075,28.22400539,37.52324289,19.42642303,1.28195409,-1.29579317,-2.95473069

>  <Name>
ligand

>  <RI>
0

>  <Rbt.Current_Directory>
/home/itssahil/PROJECTS/Mol_Feturizer/New_Systems/rnas/3F2Q

>  <Rbt.Executable>
rbdock ($Id: //depot/dev/client3/rdock/2013.1/src/exe/rbdock.cxx#4 $)

>  <Rbt.Library>
libRbt.so (2013.1, Build901 2013/11/27)

>  <Rbt.Parameter_File>
/export/apps/rDock/src/rDock_2013.1_src/data/scripts/dock_solv.prm

>  <Rbt.Receptor>
prm/blind_docking_80.prm

>  <SCORE>
-23.2811

>  <SCORE.INTER>
-18.6984

>  <SCORE.INTER.CONST>
1

>  <SCORE.INTER.POLAR>
0

>  <SCORE.INTER.ROT>
7

>  <SCORE.INTER.SOLV>
13.4293

>  <SCORE.INTER.VDW>
-25.2087

>  <SCORE.INTER.norm>
-0.603174

>  <SCORE.INTRA>
-4.58269

>  <SCORE.INTRA.DIHEDRAL>
-7.44254

>  <SCORE.INTRA.DIHEDRAL.0>
10.0718

>  <SCORE.INTRA.POLAR>
0

>  <SCORE.INTRA.POLAR.0>
0

>  <SCORE.INTRA.REPUL>
0

>  <SCORE.INTRA.REPUL.0>
0

>  <SCORE.INTRA.SOLV>
-0.038091

>  <SCORE.INTRA.SOLV.lig_0>
-48.6963

>  <SCORE.INTRA.VDW>
-0.842375

>  <SCORE.INTRA.VDW.0>
-0.836976

>  <SCORE.INTRA.norm>
-0.147829

>  <SCORE.RESTR>
0

>  <SCORE.RESTR.CAVITY>
0

>  <SCORE.RESTR.norm>
0

>  <SCORE.SYSTEM>
0

>  <SCORE.SYSTEM.CONST>
0

>  <SCORE.SYSTEM.DIHEDRAL>
0

>  <SCORE.SYSTEM.SOLV>
0

>  <SCORE.SYSTEM.norm>
0

>  <SCORE.heavy>
31

>  <SCORE.norm>
-0.751003

>  <RMSD>
6.783

$$$$
ligand
 OpenBabel11021811473D
libRbt.so/2013.1/901 2013/11/27
 31 33  0  0  0  0  0  0  0  0999 V2000
   28.9161   32.5642   14.4436 P   0  0  1  0  0  0  0  0  0  0  0  0
   29.9307   33.3346   13.6259 O   0  0  0  0  0  0  0  0  0  0  0  0
   27.7491   32.2425   13.5493 O   0  5  0  0  0  0  0  0  0  0  0  0
   29.5238   31.2877   14.9567 O   0  0  0  0  0  0  0  0  0  0  0  0
   28.0441   34.7513   15.5562 C   0  0  0  0  0  0  0  0  0  0  0  0
   28.4946   33.4289   15.7231 O   0  0  0  0  0  0  0  0  0  0  0  0
   27.7704   35.3606   16.9234 C   0  0  1  0  0  0  0  0  0  0  0  0
   28.9397   35.2530   17.7073 O   0  0  0  0  0  0  0  0  0  0  0  0
   27.3581   36.8254   16.7787 C   0  0  1  0  0  0  0  0  0  0  0  0
   26.2460   36.9218   15.9147 O   0  0  0  0  0  0  0  0  0  0  0  0
   27.0839   37.5256   18.1169 C   0  0  1  0  0  0  0  0  0  0  0  0
   26.1496   36.7806   18.8659 O   0  0  0  0  0  0  0  0  0  0  0  0
   28.3450   37.7190   18.9438 C   0  0  0  0  0  0  0  0  0  0  0  0
   28.4535   40.5257   18.6372 N   0  0  0  0  0  0  0  0  0  0  0  0
   28.4696   41.8889   18.4229 C   0  0  0  0  0  0  0  0  0  0  0  0
   28.8167   42.3398   17.3277 O   0  0  0  0  0  0  0  0  0  0  0  0
   28.1050   42.7440   19.4432 N   0  0  0  0  0  0  0  0  0  0  0  0
   27.7251   42.2416   20.6735 C   0  0  0  0  0  0  0  0  0  0  0  0
   27.7059   40.8797   20.8909 C   0  0  1  0  0  0  0  0  0  0  0  0
   27.3892   42.9919   21.5882 O   0  0  0  0  0  0  0  0  0  0  0  0
   27.2945   39.0332   22.3456 C   0  0  2  0  0  0  0  0  0  0  0  0
   27.3189   40.3952   22.1254 N   0  0  0  0  0  0  0  0  0  0  0  0
   26.9067   38.5424   23.5900 C   0  0  0  0  0  0  0  0  0  0  0  0
   26.8859   37.1711   23.8247 C   0  0  1  0  0  0  0  0  0  0  0  0
   26.4543   36.6577   25.1707 C   0  0  0  0  0  0  0  0  0  0  0  0
   27.2532   36.2881   22.8030 C   0  0  1  0  0  0  0  0  0  0  0  0
   27.2266   34.8033   23.0206 C   0  0  0  0  0  0  0  0  0  0  0  0
   27.6395   36.7826   21.5607 C   0  0  0  0  0  0  0  0  0  0  0  0
   27.6645   38.1547   21.3228 C   0  0  2  0  0  0  0  0  0  0  0  0
   28.0704   40.0139   19.8662 C   0  0  2  0  0  0  0  0  0  0  0  0
   28.0593   38.6498   20.0856 N   0  0  0  0  0  0  0  0  0  0  0  0
  1  2  1  6  0  0  0
  1  3  1  0  0  0  0
  1  4  2  0  0  0  0
  1  6  1  0  0  0  0
  5  6  1  0  0  0  0
  7  5  1  6  0  0  0
  7  8  1  0  0  0  0
  7  9  1  0  0  0  0
  9 10  1  6  0  0  0
  9 11  1  0  0  0  0
 11 12  1  1  0  0  0
 11 13  1  0  0  0  0
 13 31  1  0  0  0  0
 14 15  1  0  0  0  0
 15 16  2  0  0  0  0
 15 17  1  0  0  0  0
 17 18  1  0  0  0  0
 18 20  2  0  0  0  0
 19 18  1  6  0  0  0
 19 22  1  0  0  0  0
 19 30  1  0  0  0  0
 21 23  1  1  0  0  0
 21 29  1  0  0  0  0
 21 22  1  0  0  0  0
 23 24  1  0  0  0  0
 24 25  1  6  0  0  0
 24 26  1  0  0  0  0
 26 27  1  6  0  0  0
 26 28  1  0  0  0  0
 29 28  1  1  0  0  0
 29 31  1  0  0  0  0
 30 14  1  1  0  0  0
 30 31  1  0  0  0  0
M  CHG  1   3  -1
M  END
>  <CHROM.1>
-177.53308710,52.88891788,55.49584223,55.72135733,-53.25285122,168.22691051
92.28012102,27.87055377,37.23239576,18.80298780,0.93755124,-1.37644248,-3.00523004

>  <Name>
ligand

>  <RI>
0

>  <Rbt.Current_Directory>
/home/itssahil/PROJECTS/Mol_Feturizer/New_Systems/rnas/3F2Q

>  <Rbt.Executable>
rbdock ($Id: //depot/dev/client3/rdock/2013.1/src/exe/rbdock.cxx#4 $)

>  <Rbt.Library>
libRbt.so (2013.1, Build901 2013/11/27)

>  <Rbt.Parameter_File>
/export/apps/rDock/src/rDock_2013.1_src/data/scripts/dock_solv.prm

>  <Rbt.Receptor>
prm/pocket_docking_7.prm

>  <SCORE>
-23.2669

>  <SCORE.INTER>
-17.7401

>  <SCORE.INTER.CONST>
1

>  <SCORE.INTER.POLAR>
0

>  <SCORE.INTER.ROT>
7

>  <SCORE.INTER.SOLV>
10.5993

>  <SCORE.INTER.VDW>
-23.6265

>  <SCORE.INTER.norm>
-0.572261

>  <SCORE.INTRA>
-5.52684

>  <SCORE.INTRA.DIHEDRAL>
-8.01898

>  <SCORE.INTRA.DIHEDRAL.0>
10.0718

>  <SCORE.INTRA.POLAR>
0

>  <SCORE.INTRA.POLAR.0>
0

>  <SCORE.INTRA.REPUL>
0

>  <SCORE.INTRA.REPUL.0>
0

>  <SCORE.INTRA.SOLV>
-1.26483

>  <SCORE.INTRA.SOLV.lig_0>
-48.6963

>  <SCORE.INTRA.VDW>
-0.884941

>  <SCORE.INTRA.VDW.0>
-0.836976

>  <SCORE.INTRA.norm>
-0.178285

>  <SCORE.RESTR>
0

>  <SCORE.RESTR.CAVITY>
0

>  <SCORE.RESTR.norm>
0

>  <SCORE.SYSTEM>
0

>  <SCORE.SYSTEM.CONST>
0

>  <SCORE.SYSTEM.DIHEDRAL>
0

>  <SCORE.SYSTEM.SOLV>
0

>  <SCORE.SYSTEM.norm>
0

>  <SCORE.heavy>
31

>  <SCORE.norm>
-0.750547

>  <RMSD>
6.786

$$$$
ligand
 OpenBabel11021811473D
libRbt.so/2013.1/901 2013/11/27
 31 33  0  0  0  0  0  0  0  0999 V2000
   31.8644   35.6582   16.5309 P   0  0  1  0  0  0  0  0  0  0  0  0
   33.2620   35.0863   16.4256 O   0  0  0  0  0  0  0  0  0  0  0  0
   31.6686   36.6156   15.3862 O   0  5  0  0  0  0  0  0  0  0  0  0
   30.8445   34.5563   16.4454 O   0  0  0  0  0  0  0  0  0  0  0  0
   30.5906   37.2191   18.1810 C   0  0  0  0  0  0  0  0  0  0  0  0
   31.6799   36.3566   17.9595 O   0  0  0  0  0  0  0  0  0  0  0  0
   29.2972   36.4237   18.0819 C   0  0  1  0  0  0  0  0  0  0  0  0
   29.3962   35.2950   18.9243 O   0  0  0  0  0  0  0  0  0  0  0  0
   28.1076   37.2920   18.4911 C   0  0  1  0  0  0  0  0  0  0  0  0
   26.9037   36.6185   18.1914 O   0  0  0  0  0  0  0  0  0  0  0  0
   28.1437   37.7378   19.9596 C   0  0  1  0  0  0  0  0  0  0  0  0
   28.4852   36.6461   20.7845 O   0  0  0  0  0  0  0  0  0  0  0  0
   29.1269   38.8719   20.2013 C   0  0  0  0  0  0  0  0  0  0  0  0
   29.2521   40.2565   17.7415 N   0  0  0  0  0  0  0  0  0  0  0  0
   29.3013   40.8678   16.5052 C   0  0  0  0  0  0  0  0  0  0  0  0
   29.9937   40.3872   15.6036 O   0  0  0  0  0  0  0  0  0  0  0  0
   28.5799   42.0241   16.2869 N   0  0  0  0  0  0  0  0  0  0  0  0
   27.8114   42.5694   17.2981 C   0  0  0  0  0  0  0  0  0  0  0  0
   27.7581   41.9603   18.5345 C   0  0  1  0  0  0  0  0  0  0  0  0
   27.1567   43.5941   17.1143 O   0  0  0  0  0  0  0  0  0  0  0  0
   26.9219   41.9083   20.7689 C   0  0  2  0  0  0  0  0  0  0  0  0
   26.9811   42.5167   19.5319 N   0  0  0  0  0  0  0  0  0  0  0  0
   26.1408   42.4685   21.7768 C   0  0  0  0  0  0  0  0  0  0  0  0
   26.0804   41.8669   23.0299 C   0  0  1  0  0  0  0  0  0  0  0  0
   25.2236   42.4791   24.1036 C   0  0  0  0  0  0  0  0  0  0  0  0
   26.8056   40.6945   23.2709 C   0  0  1  0  0  0  0  0  0  0  0  0
   26.7490   40.0139   24.6074 C   0  0  0  0  0  0  0  0  0  0  0  0
   27.5845   40.1375   22.2609 C   0  0  0  0  0  0  0  0  0  0  0  0
   27.6500   40.7384   21.0060 C   0  0  2  0  0  0  0  0  0  0  0  0
   28.4813   40.7945   18.7591 C   0  0  2  0  0  0  0  0  0  0  0  0
   28.4351   40.1882   19.9999 N   0  0  0  0  0  0  0  0  0  0  0  0
  1  2  1  6  0  0  0
  1  3  1  0  0  0  0
  1  4  2  0  0  0  0
  1  6  1  0  0  0  0
  5  6  1  0  0  0  0
  7  5  1  1  0  0  0
  7  8  1  0  0  0  0
  7  9  1  0  0  0  0
  9 10  1  1  0  0  0
  9 11  1  0  0  0  0
 11 12  1  1  0  0  0
 11 13  1  0  0  0  0
 13 31  1  0  0  0  0
 14 15  1  0  0  0  0
 15 16  2  0  0  0  0
 15 17  1  0  0  0  0
 17 18  1  0  0  0  0
 18 20  2  0  0  0  0
 19 18  1  6  0  0  0
 19 22  1  0  0  0  0
 19 30  1  0  0  0  0
 21 23  1  1  0  0  0
 21 29  1  0  0  0  0
 21 22  1  0  0  0  0
 23 24  1  0  0  0  0
 24 25  1  6  0  0  0
 24 26  1  0  0  0  0
 26 27  1  6  0  0  0
 26 28  1  0  0  0  0
 29 28  1  1  0  0  0
 29 31  1  0  0  0  0
 30 14  1  1  0  0  0
 30 31  1  0  0  0  0
M  CHG  1   3  -1
M  END
>  <CHROM.1>
64.65193721,165.41029547,51.69758645,170.62257977,-44.98945234,89.13967771
81.06455270,28.80649363,39.05743246,18.95916320,0.12134341,-1.02222604,2.40845496

>  <Name>
ligand

>  <RI>
0

>  <Rbt.Current_Directory>
/home/itssahil/PROJECTS/Mol_Feturizer/New_Systems/rnas/3F2Q

>  <Rbt.Executable>
rbdock ($Id: //depot/dev/client3/rdock/2013.1/src/exe/rbdock.cxx#4 $)

>  <Rbt.Library>
libRbt.so (2013.1, Build901 2013/11/27)

>  <Rbt.Parameter_File>
/export/apps/rDock/src/rDock_2013.1_src/data/scripts/dock_solv.prm

>  <Rbt.Receptor>
prm/blind_docking_80.prm

>  <SCORE>
-14.8939

>  <SCORE.INTER>
-13.6666

>  <SCORE.INTER.CONST>
1

>  <SCORE.INTER.POLAR>
0

>  <SCORE.INTER.ROT>
7

>  <SCORE.INTER.SOLV>
13.5629

>  <SCORE.INTER.VDW>
-21.8987

>  <SCORE.INTER.norm>
-0.440858

>  <SCORE.INTRA>
-1.22727

>  <SCORE.INTRA.DIHEDRAL>
-4.67196

>  <SCORE.INTRA.DIHEDRAL.0>
10.0718

>  <SCORE.INTRA.POLAR>
0

>  <SCORE.INTRA.POLAR.0>
0

>  <SCORE.INTRA.REPUL>
0.0234729

>  <SCORE.INTRA.REPUL.0>
0

>  <SCORE.INTRA.SOLV>
2.5003

>  <SCORE.INTRA.SOLV.lig_0>
-48.6963

>  <SCORE.INTRA.VDW>
-0.258797

>  <SCORE.INTRA.VDW.0>
-0.836976

>  <SCORE.INTRA.norm>
-0.0395892

>  <SCORE.RESTR>
0

>  <SCORE.RESTR.CAVITY>
0

>  <SCORE.RESTR.norm>
0

>  <SCORE.SYSTEM>
0

>  <SCORE.SYSTEM.CONST>
0

>  <SCORE.SYSTEM.DIHEDRAL>
0

>  <SCORE.SYSTEM.SOLV>
0

>  <SCORE.SYSTEM.norm>
0

>  <SCORE.heavy>
31

>  <SCORE.norm>
-0.480447

>  <RMSD>
6.798

$$$$
ligand
 OpenBabel11021811473D
libRbt.so/2013.1/901 2013/11/27
 31 33  0  0  0  0  0  0  0  0999 V2000
   30.6492   33.5599   15.1751 P   0  0  1  0  0  0  0  0  0  0  0  0
   29.3617   33.4285   14.3898 O   0  0  0  0  0  0  0  0  0  0  0  0
   30.5245   32.7136   16.4134 O   0  5  0  0  0  0  0  0  0  0  0  0
   31.8116   33.0782   14.3514 O   0  0  0  0  0  0  0  0  0  0  0  0
   29.9439   35.8510   16.1925 C   0  0  0  0  0  0  0  0  0  0  0  0
   30.9175   35.1031   15.5054 O   0  0  0  0  0  0  0  0  0  0  0  0
   29.8511   35.3501   17.6263 C   0  0  1  0  0  0  0  0  0  0  0  0
   30.9995   35.7765   18.3282 O   0  0  0  0  0  0  0  0  0  0  0  0
   28.5865   35.8882   18.2956 C   0  0  1  0  0  0  0  0  0  0  0  0
   28.1885   35.0136   19.3297 O   0  0  0  0  0  0  0  0  0  0  0  0
   28.7235   37.3285   18.8085 C   0  0  1  0  0  0  0  0  0  0  0  0
   29.2535   38.1513   17.7932 O   0  0  0  0  0  0  0  0  0  0  0  0
   27.3996   37.9087   19.2800 C   0  0  0  0  0  0  0  0  0  0  0  0
   27.9803   40.6245   18.7594 N   0  0  0  0  0  0  0  0  0  0  0  0
   28.2094   41.9506   18.4540 C   0  0  0  0  0  0  0  0  0  0  0  0
   28.3118   42.3066   17.2768 O   0  0  0  0  0  0  0  0  0  0  0  0
   28.3330   42.8736   19.4729 N   0  0  0  0  0  0  0  0  0  0  0  0
   28.2282   42.4756   20.7925 C   0  0  0  0  0  0  0  0  0  0  0  0
   27.9973   41.1513   21.1016 C   0  0  1  0  0  0  0  0  0  0  0  0
   28.3273   43.2890   21.7096 O   0  0  0  0  0  0  0  0  0  0  0  0
   27.6559   39.4493   22.7389 C   0  0  2  0  0  0  0  0  0  0  0  0
   27.8908   40.7724   22.4257 N   0  0  0  0  0  0  0  0  0  0  0  0
   27.5501   39.0644   24.0733 C   0  0  0  0  0  0  0  0  0  0  0  0
   27.3208   37.7315   24.4000 C   0  0  1  0  0  0  0  0  0  0  0  0
   27.1986   37.3349   25.8454 C   0  0  0  0  0  0  0  0  0  0  0  0
   27.1938   36.7808   23.3809 C   0  0  1  0  0  0  0  0  0  0  0  0
   26.9313   35.3381   23.7009 C   0  0  0  0  0  0  0  0  0  0  0  0
   27.2995   37.1695   22.0488 C   0  0  0  0  0  0  0  0  0  0  0  0
   27.5319   38.5024   21.7177 C   0  0  2  0  0  0  0  0  0  0  0  0
   27.8702   40.2180   20.0792 C   0  0  2  0  0  0  0  0  0  0  0  0
   27.6472   38.8898   20.3881 N   0  0  0  0  0  0  0  0  0  0  0  0
  1  2  1  6  0  0  0
  1  3  1  0  0  0  0
  1  4  2  0  0  0  0
  1  6  1  0  0  0  0
  5  6  1  0  0  0  0
  7  5  1  6  0  0  0
  7  8  1  0  0  0  0
  7  9  1  0  0  0  0
  9 10  1  1  0  0  0
  9 11  1  0  0  0  0
 11 12  1  6  0  0  0
 11 13  1  0  0  0  0
 13 31  1  0  0  0  0
 14 15  1  0  0  0  0
 15 16  2  0  0  0  0
 15 17  1  0  0  0  0
 17 18  1  0  0  0  0
 18 20  2  0  0  0  0
 19 18  1  6  0  0  0
 19 22  1  0  0  0  0
 19 30  1  0  0  0  0
 21 23  1  1  0  0  0
 21 29  1  0  0  0  0
 21 22  1  0  0  0  0
 23 24  1  0  0  0  0
 24 25  1  6  0  0  0
 24 26  1  0  0  0  0
 26 27  1  6  0  0  0
 26 28  1  0  0  0  0
 29 28  1  1  0  0  0
 29 31  1  0  0  0  0
 30 14  1  1  0  0  0
 30 31  1  0  0  0  0
M  CHG  1   3  -1
M  END
>  <CHROM.1>
68.84012483,56.22295203,72.83988721,154.13460772,49.59261579,149.07653420
-96.49047993,28.72551437,37.62181000,19.33934120,0.44909507,-1.23722365,2.84513555

>  <Name>
ligand

>  <RI>
0

>  <Rbt.Current_Directory>
/home/itssahil/PROJECTS/Mol_Feturizer/New_Systems/rnas/3F2Q

>  <Rbt.Executable>
rbdock ($Id: //depot/dev/client3/rdock/2013.1/src/exe/rbdock.cxx#4 $)

>  <Rbt.Library>
libRbt.so (2013.1, Build901 2013/11/27)

>  <Rbt.Parameter_File>
/export/apps/rDock/src/rDock_2013.1_src/data/scripts/dock_solv.prm

>  <Rbt.Receptor>
prm/pocket_docking_5.prm

>  <SCORE>
-20.0104

>  <SCORE.INTER>
-17.918

>  <SCORE.INTER.CONST>
1

>  <SCORE.INTER.POLAR>
0

>  <SCORE.INTER.ROT>
7

>  <SCORE.INTER.SOLV>
9.45798

>  <SCORE.INTER.VDW>
-23.3647

>  <SCORE.INTER.norm>
-0.578

>  <SCORE.INTRA>
-2.09237

>  <SCORE.INTRA.DIHEDRAL>
-2.34817

>  <SCORE.INTRA.DIHEDRAL.0>
10.0718

>  <SCORE.INTRA.POLAR>
0

>  <SCORE.INTRA.POLAR.0>
0

>  <SCORE.INTRA.REPUL>
0

>  <SCORE.INTRA.REPUL.0>
0

>  <SCORE.INTRA.SOLV>
1.01808

>  <SCORE.INTRA.SOLV.lig_0>
-48.6963

>  <SCORE.INTRA.VDW>
-1.42732

>  <SCORE.INTRA.VDW.0>
-0.836976

>  <SCORE.INTRA.norm>
-0.0674958

>  <SCORE.RESTR>
0

>  <SCORE.RESTR.CAVITY>
0

>  <SCORE.RESTR.norm>
0

>  <SCORE.SYSTEM>
0

>  <SCORE.SYSTEM.CONST>
0

>  <SCORE.SYSTEM.DIHEDRAL>
0

>  <SCORE.SYSTEM.SOLV>
0

>  <SCORE.SYSTEM.norm>
0

>  <SCORE.heavy>
31

>  <SCORE.norm>
-0.645495

>  <RMSD>
6.799

$$$$
ligand
 OpenBabel11021811473D
libRbt.so/2013.1/901 2013/11/27
 31 33  0  0  0  0  0  0  0  0999 V2000
   23.5677   43.8539   26.4035 P   0  0  1  0  0  0  0  0  0  0  0  0
   23.1691   42.5530   27.0671 O   0  0  0  0  0  0  0  0  0  0  0  0
   22.3088   44.5656   25.9866 O   0  5  0  0  0  0  0  0  0  0  0  0
   24.3366   44.7146   27.3677 O   0  0  0  0  0  0  0  0  0  0  0  0
   25.4245   42.4536   25.2317 C   0  0  0  0  0  0  0  0  0  0  0  0
   24.5418   43.5474   25.1707 O   0  0  0  0  0  0  0  0  0  0  0  0
   26.2911   42.4425   23.9810 C   0  0  1  0  0  0  0  0  0  0  0  0
   27.2228   43.4996   24.0685 O   0  0  0  0  0  0  0  0  0  0  0  0
   27.0153   41.1027   23.8490 C   0  0  1  0  0  0  0  0  0  0  0  0
   26.0717   40.0529   23.8372 O   0  0  0  0  0  0  0  0  0  0  0  0
   27.9505   41.0225   22.6344 C   0  0  1  0  0  0  0  0  0  0  0  0
   28.5561   42.2764   22.4112 O   0  0  0  0  0  0  0  0  0  0  0  0
   29.0335   39.9684   22.8001 C   0  0  0  0  0  0  0  0  0  0  0  0
   27.7660   38.3840   24.7665 N   0  0  0  0  0  0  0  0  0  0  0  0
   27.1112   37.6715   25.7504 C   0  0  0  0  0  0  0  0  0  0  0  0
   27.0796   38.0988   26.9078 O   0  0  0  0  0  0  0  0  0  0  0  0
   26.5011   36.4745   25.4340 N   0  0  0  0  0  0  0  0  0  0  0  0
   26.5434   35.9893   24.1405 C   0  0  0  0  0  0  0  0  0  0  0  0
   27.1953   36.6995   23.1540 C   0  0  1  0  0  0  0  0  0  0  0  0
   25.9963   34.9287   23.8431 O   0  0  0  0  0  0  0  0  0  0  0  0
   27.8710   36.9112   20.8751 C   0  0  2  0  0  0  0  0  0  0  0  0
   27.2234   36.2017   21.8657 N   0  0  0  0  0  0  0  0  0  0  0  0
   27.9025   36.4104   19.5759 C   0  0  0  0  0  0  0  0  0  0  0  0
   28.5594   37.1143   18.5714 C   0  0  1  0  0  0  0  0  0  0  0  0
   28.5746   36.5646   17.1717 C   0  0  0  0  0  0  0  0  0  0  0  0
   29.1849   38.3295   18.8729 C   0  0  1  0  0  0  0  0  0  0  0  0
   29.8884   39.1194   17.8081 C   0  0  0  0  0  0  0  0  0  0  0  0
   29.1505   38.8268   20.1722 C   0  0  0  0  0  0  0  0  0  0  0  0
   28.4966   38.1236   21.1812 C   0  0  2  0  0  0  0  0  0  0  0  0
   27.8098   37.9066   23.4668 C   0  0  2  0  0  0  0  0  0  0  0  0
   28.4701   38.6147   22.4810 N   0  0  0  0  0  0  0  0  0  0  0  0
  1  2  1  1  0  0  0
  1  3  1  0  0  0  0
  1  4  2  0  0  0  0
  1  6  1  0  0  0  0
  5  6  1  0  0  0  0
  7  5  1  1  0  0  0
  7  8  1  0  0  0  0
  7  9  1  0  0  0  0
  9 10  1  6  0  0  0
  9 11  1  0  0  0  0
 11 12  1  1  0  0  0
 11 13  1  0  0  0  0
 13 31  1  0  0  0  0
 14 15  1  0  0  0  0
 15 16  2  0  0  0  0
 15 17  1  0  0  0  0
 17 18  1  0  0  0  0
 18 20  2  0  0  0  0
 19 18  1  6  0  0  0
 19 22  1  0  0  0  0
 19 30  1  0  0  0  0
 21 23  1  1  0  0  0
 21 29  1  0  0  0  0
 21 22  1  0  0  0  0
 23 24  1  0  0  0  0
 24 25  1  6  0  0  0
 24 26  1  0  0  0  0
 26 27  1  6  0  0  0
 26 28  1  0  0  0  0
 29 28  1  1  0  0  0
 29 31  1  0  0  0  0
 30 14  1  1  0  0  0
 30 31  1  0  0  0  0
M  CHG  1   3  -1
M  END
>  <CHROM.1>
-176.37268976,-32.79132739,72.45160522,56.70082378,35.66045041,80.61315026
88.98946062,26.76923411,39.81840916,23.37140701,-2.67358432,-1.05974871,2.85364918

>  <Name>
ligand

>  <RI>
0

>  <Rbt.Current_Directory>
/home/itssahil/PROJECTS/Mol_Feturizer/New_Systems/rnas/3F2Q

>  <Rbt.Executable>
rbdock ($Id: //depot/dev/client3/rdock/2013.1/src/exe/rbdock.cxx#4 $)

>  <Rbt.Library>
libRbt.so (2013.1, Build901 2013/11/27)

>  <Rbt.Parameter_File>
/export/apps/rDock/src/rDock_2013.1_src/data/scripts/dock_solv.prm

>  <Rbt.Receptor>
prm/pocket_docking_8.prm

>  <SCORE>
-27.2953

>  <SCORE.INTER>
-24.3414

>  <SCORE.INTER.CONST>
1

>  <SCORE.INTER.POLAR>
0

>  <SCORE.INTER.ROT>
7

>  <SCORE.INTER.SOLV>
12.5065

>  <SCORE.INTER.VDW>
-28.6631

>  <SCORE.INTER.norm>
-0.785206

>  <SCORE.INTRA>
-2.95391

>  <SCORE.INTRA.DIHEDRAL>
-3.97434

>  <SCORE.INTRA.DIHEDRAL.0>
10.0718

>  <SCORE.INTRA.POLAR>
0

>  <SCORE.INTRA.POLAR.0>
0

>  <SCORE.INTRA.REPUL>
0

>  <SCORE.INTRA.REPUL.0>
0

>  <SCORE.INTRA.SOLV>
-1.01614

>  <SCORE.INTRA.SOLV.lig_0>
-48.6963

>  <SCORE.INTRA.VDW>
-0.458676

>  <SCORE.INTRA.VDW.0>
-0.836976

>  <SCORE.INTRA.norm>
-0.0952875

>  <SCORE.RESTR>
0

>  <SCORE.RESTR.CAVITY>
0

>  <SCORE.RESTR.norm>
0

>  <SCORE.SYSTEM>
0

>  <SCORE.SYSTEM.CONST>
0

>  <SCORE.SYSTEM.DIHEDRAL>
0

>  <SCORE.SYSTEM.SOLV>
0

>  <SCORE.SYSTEM.norm>
0

>  <SCORE.heavy>
31

>  <SCORE.norm>
-0.880493

>  <RMSD>
6.820

$$$$
ligand
 OpenBabel11021811473D
libRbt.so/2013.1/901 2013/11/27
 31 33  0  0  0  0  0  0  0  0999 V2000
   32.7346   34.5417   16.4303 P   0  0  1  0  0  0  0  0  0  0  0  0
   32.9502   34.6659   17.9234 O   0  0  0  0  0  0  0  0  0  0  0  0
   34.0381   34.1192   15.8078 O   0  5  0  0  0  0  0  0  0  0  0  0
   31.6809   33.5080   16.1419 O   0  0  0  0  0  0  0  0  0  0  0  0
   31.2523   36.6773   16.5838 C   0  0  0  0  0  0  0  0  0  0  0  0
   32.1954   35.9334   15.8514 O   0  0  0  0  0  0  0  0  0  0  0  0
   29.9417   35.9060   16.6365 C   0  0  1  0  0  0  0  0  0  0  0  0
   30.0418   34.9145   17.6366 O   0  0  0  0  0  0  0  0  0  0  0  0
   28.7803   36.8529   16.9385 C   0  0  1  0  0  0  0  0  0  0  0  0
   27.5556   36.1824   16.7314 O   0  0  0  0  0  0  0  0  0  0  0  0
   28.8409   37.4786   18.3389 C   0  0  1  0  0  0  0  0  0  0  0  0
   29.7901   38.5215   18.3581 O   0  0  0  0  0  0  0  0  0  0  0  0
   27.4957   38.0207   18.7949 C   0  0  0  0  0  0  0  0  0  0  0  0
   28.0024   40.7983   18.6876 N   0  0  0  0  0  0  0  0  0  0  0  0
   28.1969   42.1605   18.5828 C   0  0  0  0  0  0  0  0  0  0  0  0
   28.3215   42.6850   17.4726 O   0  0  0  0  0  0  0  0  0  0  0  0
   28.2611   42.9302   19.7267 N   0  0  0  0  0  0  0  0  0  0  0  0
   28.1314   42.3437   20.9716 C   0  0  0  0  0  0  0  0  0  0  0  0
   27.9350   40.9828   21.0803 C   0  0  1  0  0  0  0  0  0  0  0  0
   28.1776   43.0190   21.9984 O   0  0  0  0  0  0  0  0  0  0  0  0
   27.6021   39.0538   22.4452 C   0  0  2  0  0  0  0  0  0  0  0  0
   27.8028   40.4143   22.3323 N   0  0  0  0  0  0  0  0  0  0  0  0
   27.4706   38.4780   23.7066 C   0  0  0  0  0  0  0  0  0  0  0  0
   27.2756   37.1061   23.8315 C   0  0  1  0  0  0  0  0  0  0  0  0
   27.1248   36.5022   25.2005 C   0  0  0  0  0  0  0  0  0  0  0  0
   27.2088   36.3088   22.6833 C   0  0  1  0  0  0  0  0  0  0  0  0
   26.9843   34.8282   22.7847 C   0  0  0  0  0  0  0  0  0  0  0  0
   27.3401   36.8880   21.4247 C   0  0  0  0  0  0  0  0  0  0  0  0
   27.5384   38.2607   21.2955 C   0  0  2  0  0  0  0  0  0  0  0  0
   27.8677   40.2031   19.9313 C   0  0  2  0  0  0  0  0  0  0  0  0
   27.6793   38.8386   20.0395 N   0  0  0  0  0  0  0  0  0  0  0  0
  1  2  1  1  0  0  0
  1  3  1  0  0  0  0
  1  4  2  0  0  0  0
  1  6  1  0  0  0  0
  5  6  1  0  0  0  0
  7  5  1  1  0  0  0
  7  8  1  0  0  0  0
  7  9  1  0  0  0  0
  9 10  1  1  0  0  0
  9 11  1  0  0  0  0
 11 12  1  6  0  0  0
 11 13  1  0  0  0  0
 13 31  1  0  0  0  0
 14 15  1  0  0  0  0
 15 16  2  0  0  0  0
 15 17  1  0  0  0  0
 17 18  1  0  0  0  0
 18 20  2  0  0  0  0
 19 18  1  6  0  0  0
 19 22  1  0  0  0  0
 19 30  1  0  0  0  0
 21 23  1  1  0  0  0
 21 29  1  0  0  0  0
 21 22  1  0  0  0  0
 23 24  1  0  0  0  0
 24 25  1  6  0  0  0
 24 26  1  0  0  0  0
 26 27  1  6  0  0  0
 26 28  1  0  0  0  0
 29 28  1  1  0  0  0
 29 31  1  0  0  0  0
 30 14  1  1  0  0  0
 30 31  1  0  0  0  0
M  CHG  1   3  -1
M  END
>  <CHROM.1>
-66.57491429,-39.94795497,80.05287426,168.77838912,77.40552822,-169.37084426
-92.93747332,29.16523849,37.81168809,19.30571641,0.31696440,-1.01132621,2.70952292

>  <Name>
ligand

>  <RI>
0

>  <Rbt.Current_Directory>
/home/itssahil/PROJECTS/Mol_Feturizer/New_Systems/rnas/3F2Q

>  <Rbt.Executable>
rbdock ($Id: //depot/dev/client3/rdock/2013.1/src/exe/rbdock.cxx#4 $)

>  <Rbt.Library>
libRbt.so (2013.1, Build901 2013/11/27)

>  <Rbt.Parameter_File>
/export/apps/rDock/src/rDock_2013.1_src/data/scripts/dock_solv.prm

>  <Rbt.Receptor>
prm/pocket_docking_8.prm

>  <SCORE>
-22.5829

>  <SCORE.INTER>
-20.5897

>  <SCORE.INTER.CONST>
1

>  <SCORE.INTER.POLAR>
0

>  <SCORE.INTER.ROT>
7

>  <SCORE.INTER.SOLV>
13.0554

>  <SCORE.INTER.VDW>
-26.3449

>  <SCORE.INTER.norm>
-0.664183

>  <SCORE.INTRA>
-1.9932

>  <SCORE.INTRA.DIHEDRAL>
-4.6153

>  <SCORE.INTRA.DIHEDRAL.0>
10.0718

>  <SCORE.INTRA.POLAR>
0

>  <SCORE.INTRA.POLAR.0>
0

>  <SCORE.INTRA.REPUL>
0

>  <SCORE.INTRA.REPUL.0>
0

>  <SCORE.INTRA.SOLV>
1.54213

>  <SCORE.INTRA.SOLV.lig_0>
-48.6963

>  <SCORE.INTRA.VDW>
-0.45661

>  <SCORE.INTRA.VDW.0>
-0.836976

>  <SCORE.INTRA.norm>
-0.0642966

>  <SCORE.RESTR>
0

>  <SCORE.RESTR.CAVITY>
0

>  <SCORE.RESTR.norm>
0

>  <SCORE.SYSTEM>
0

>  <SCORE.SYSTEM.CONST>
0

>  <SCORE.SYSTEM.DIHEDRAL>
0

>  <SCORE.SYSTEM.SOLV>
0

>  <SCORE.SYSTEM.norm>
0

>  <SCORE.heavy>
31

>  <SCORE.norm>
-0.728479

>  <RMSD>
6.830

$$$$
ligand
 OpenBabel11021811473D
libRbt.so/2013.1/901 2013/11/27
 31 33  0  0  0  0  0  0  0  0999 V2000
   23.3409   43.0679   26.4099 P   0  0  1  0  0  0  0  0  0  0  0  0
   24.0728   43.0876   27.7348 O   0  0  0  0  0  0  0  0  0  0  0  0
   21.8649   43.0057   26.6974 O   0  5  0  0  0  0  0  0  0  0  0  0
   23.6492   44.3148   25.6276 O   0  0  0  0  0  0  0  0  0  0  0  0
   25.2269   41.5291   25.4842 C   0  0  0  0  0  0  0  0  0  0  0  0
   23.8533   41.8286   25.5357 O   0  0  0  0  0  0  0  0  0  0  0  0
   25.9343   42.5788   24.6396 C   0  0  1  0  0  0  0  0  0  0  0  0
   26.2251   43.6934   25.4559 O   0  0  0  0  0  0  0  0  0  0  0  0
   27.2195   42.0034   24.0448 C   0  0  1  0  0  0  0  0  0  0  0  0
   28.1877   41.8554   25.0613 O   0  0  0  0  0  0  0  0  0  0  0  0
   27.0122   40.6887   23.2798 C   0  0  1  0  0  0  0  0  0  0  0  0
   26.3543   40.9426   22.0585 O   0  0  0  0  0  0  0  0  0  0  0  0
   28.3189   39.9634   23.0007 C   0  0  0  0  0  0  0  0  0  0  0  0
   26.8607   38.3562   24.8102 N   0  0  0  0  0  0  0  0  0  0  0  0
   26.1001   37.6276   25.7018 C   0  0  0  0  0  0  0  0  0  0  0  0
   25.7395   38.1349   26.7676 O   0  0  0  0  0  0  0  0  0  0  0  0
   25.7541   36.3262   25.3988 N   0  0  0  0  0  0  0  0  0  0  0  0
   26.1650   35.7529   24.2101 C   0  0  0  0  0  0  0  0  0  0  0  0
   26.9237   36.4785   23.3155 C   0  0  1  0  0  0  0  0  0  0  0  0
   25.8562   34.5974   23.9236 O   0  0  0  0  0  0  0  0  0  0  0  0
   28.0771   36.6149   21.2309 C   0  0  2  0  0  0  0  0  0  0  0  0
   27.3215   35.8910   22.1303 N   0  0  0  0  0  0  0  0  0  0  0  0
   28.4811   36.0240   20.0361 C   0  0  0  0  0  0  0  0  0  0  0  0
   29.2497   36.7428   19.1259 C   0  0  1  0  0  0  0  0  0  0  0  0
   29.6683   36.0932   17.8359 C   0  0  0  0  0  0  0  0  0  0  0  0
   29.6114   38.0633   19.4158 C   0  0  1  0  0  0  0  0  0  0  0  0
   30.4271   38.8695   18.4476 C   0  0  0  0  0  0  0  0  0  0  0  0
   29.2052   38.6503   20.6105 C   0  0  0  0  0  0  0  0  0  0  0  0
   28.4383   37.9331   21.5256 C   0  0  2  0  0  0  0  0  0  0  0  0
   27.2734   37.7903   23.6149 C   0  0  2  0  0  0  0  0  0  0  0  0
   28.0403   38.5153   22.7231 N   0  0  0  0  0  0  0  0  0  0  0  0
  1  2  1  1  0  0  0
  1  3  1  0  0  0  0
  1  4  2  0  0  0  0
  1  6  1  0  0  0  0
  5  6  1  0  0  0  0
  7  5  1  1  0  0  0
  7  8  1  0  0  0  0
  7  9  1  0  0  0  0
  9 10  1  1  0  0  0
  9 11  1  0  0  0  0
 11 12  1  6  0  0  0
 11 13  1  0  0  0  0
 13 31  1  0  0  0  0
 14 15  1  0  0  0  0
 15 16  2  0  0  0  0
 15 17  1  0  0  0  0
 17 18  1  0  0  0  0
 18 20  2  0  0  0  0
 19 18  1  6  0  0  0
 19 22  1  0  0  0  0
 19 30  1  0  0  0  0
 21 23  1  1  0  0  0
 21 29  1  0  0  0  0
 21 22  1  0  0  0  0
 23 24  1  0  0  0  0
 24 25  1  6  0  0  0
 24 26  1  0  0  0  0
 26 27  1  6  0  0  0
 26 28  1  0  0  0  0
 29 28  1  1  0  0  0
 29 31  1  0  0  0  0
 30 14  1  1  0  0  0
 30 31  1  0  0  0  0
M  CHG  1   3  -1
M  END
>  <CHROM.1>
-72.61727735,-42.50649190,84.06219350,-72.21520900,72.40971707,159.53906675
122.32348493,26.55386897,39.55207507,23.64911277,-2.51004565,-0.92597282
3.08259741

>  <Name>
ligand

>  <RI>
0

>  <Rbt.Current_Directory>
/home/itssahil/PROJECTS/Mol_Feturizer/New_Systems/rnas/3F2Q

>  <Rbt.Executable>
rbdock ($Id: //depot/dev/client3/rdock/2013.1/src/exe/rbdock.cxx#4 $)

>  <Rbt.Library>
libRbt.so (2013.1, Build901 2013/11/27)

>  <Rbt.Parameter_File>
/export/apps/rDock/src/rDock_2013.1_src/data/scripts/dock_solv.prm

>  <Rbt.Receptor>
prm/blind_docking_60.prm

>  <SCORE>
-29.8513

>  <SCORE.INTER>
-28.2985

>  <SCORE.INTER.CONST>
1

>  <SCORE.INTER.POLAR>
0

>  <SCORE.INTER.ROT>
7

>  <SCORE.INTER.SOLV>
13.6806

>  <SCORE.INTER.VDW>
-31.6925

>  <SCORE.INTER.norm>
-0.912855

>  <SCORE.INTRA>
-1.5711

>  <SCORE.INTRA.DIHEDRAL>
-3.23965

>  <SCORE.INTRA.DIHEDRAL.0>
10.0718

>  <SCORE.INTRA.POLAR>
0

>  <SCORE.INTRA.POLAR.0>
0

>  <SCORE.INTRA.REPUL>
0

>  <SCORE.INTRA.REPUL.0>
0

>  <SCORE.INTRA.SOLV>
1.14721

>  <SCORE.INTRA.SOLV.lig_0>
-48.6963

>  <SCORE.INTRA.VDW>
-0.524887

>  <SCORE.INTRA.VDW.0>
-0.836976

>  <SCORE.INTRA.norm>
-0.0506808

>  <SCORE.RESTR>
0.0182714

>  <SCORE.RESTR.CAVITY>
0.0182714

>  <SCORE.RESTR.norm>
0.000589399

>  <SCORE.SYSTEM>
0

>  <SCORE.SYSTEM.CONST>
0

>  <SCORE.SYSTEM.DIHEDRAL>
0

>  <SCORE.SYSTEM.SOLV>
0

>  <SCORE.SYSTEM.norm>
0

>  <SCORE.heavy>
31

>  <SCORE.norm>
-0.962946

>  <RMSD>
6.882

$$$$
ligand
 OpenBabel11021811473D
libRbt.so/2013.1/901 2013/11/27
 31 33  0  0  0  0  0  0  0  0999 V2000
   25.0890   32.3991   17.8975 P   0  0  1  0  0  0  0  0  0  0  0  0
   24.9065   31.2257   18.8363 O   0  0  0  0  0  0  0  0  0  0  0  0
   25.9803   31.9548   16.7690 O   0  5  0  0  0  0  0  0  0  0  0  0
   23.7593   32.8353   17.3466 O   0  0  0  0  0  0  0  0  0  0  0  0
   26.7411   33.4395   19.6207 C   0  0  0  0  0  0  0  0  0  0  0  0
   25.6902   33.6420   18.7076 O   0  0  0  0  0  0  0  0  0  0  0  0
   27.1427   34.7779   20.2229 C   0  0  1  0  0  0  0  0  0  0  0  0
   27.8389   34.5396   21.4279 O   0  0  0  0  0  0  0  0  0  0  0  0
   28.0209   35.5580   19.2447 C   0  0  1  0  0  0  0  0  0  0  0  0
   27.3623   35.6691   18.0011 O   0  0  0  0  0  0  0  0  0  0  0  0
   28.4568   36.9340   19.7671 C   0  0  1  0  0  0  0  0  0  0  0  0
   29.5398   37.4165   19.0034 O   0  0  0  0  0  0  0  0  0  0  0  0
   27.3302   37.9544   19.7347 C   0  0  0  0  0  0  0  0  0  0  0  0
   27.9646   40.6264   19.0701 N   0  0  0  0  0  0  0  0  0  0  0  0
   28.2212   41.9289   18.6931 C   0  0  0  0  0  0  0  0  0  0  0  0
   28.3580   42.2130   17.4999 O   0  0  0  0  0  0  0  0  0  0  0  0
   28.3335   42.9087   19.6587 N   0  0  0  0  0  0  0  0  0  0  0  0
   28.1902   42.5911   20.9963 C   0  0  0  0  0  0  0  0  0  0  0  0
   27.9318   41.2908   21.3768 C   0  0  1  0  0  0  0  0  0  0  0  0
   28.2789   43.4560   21.8662 O   0  0  0  0  0  0  0  0  0  0  0  0
   27.5242   39.6935   23.1024 C   0  0  2  0  0  0  0  0  0  0  0  0
   27.7868   40.9924   22.7178 N   0  0  0  0  0  0  0  0  0  0  0  0
   27.3797   39.3899   24.4539 C   0  0  0  0  0  0  0  0  0  0  0  0
   27.1224   38.0820   24.8526 C   0  0  1  0  0  0  0  0  0  0  0  0
   26.9585   37.7734   26.3153 C   0  0  0  0  0  0  0  0  0  0  0  0
   27.0061   37.0743   23.8884 C   0  0  1  0  0  0  0  0  0  0  0  0
   26.7140   35.6568   24.2859 C   0  0  0  0  0  0  0  0  0  0  0  0
   27.1506   37.3820   22.5388 C   0  0  0  0  0  0  0  0  0  0  0  0
   27.4112   38.6896   22.1359 C   0  0  2  0  0  0  0  0  0  0  0  0
   27.8158   40.3003   20.4083 C   0  0  2  0  0  0  0  0  0  0  0  0
   27.5652   38.9960   20.7890 N   0  0  0  0  0  0  0  0  0  0  0  0
  1  2  1  1  0  0  0
  1  3  1  0  0  0  0
  1  4  2  0  0  0  0
  1  6  1  0  0  0  0
  5  6  1  0  0  0  0
  7  5  1  6  0  0  0
  7  8  1  0  0  0  0
  7  9  1  0  0  0  0
  9 10  1  6  0  0  0
  9 11  1  0  0  0  0
 11 12  1  6  0  0  0
 11 13  1  0  0  0  0
 13 31  1  0  0  0  0
 14 15  1  0  0  0  0
 15 16  2  0  0  0  0
 15 17  1  0  0  0  0
 17 18  1  0  0  0  0
 18 20  2  0  0  0  0
 19 18  1  6  0  0  0
 19 22  1  0  0  0  0
 19 30  1  0  0  0  0
 21 23  1  1  0  0  0
 21 29  1  0  0  0  0
 21 22  1  0  0  0  0
 23 24  1  0  0  0  0
 24 25  1  6  0  0  0
 24 26  1  0  0  0  0
 26 27  1  6  0  0  0
 26 28  1  0  0  0  0
 29 28  1  1  0  0  0
 29 31  1  0  0  0  0
 30 14  1  1  0  0  0
 30 31  1  0  0  0  0
M  CHG  1   3  -1
M  END
>  <CHROM.1>
178.64608357,43.86406680,160.11471720,54.00395764,163.50381581,153.29510917
-71.46927379,27.15760822,37.30746863,20.46288137,-2.77146979,1.29590501,1.53571928

>  <Name>
ligand

>  <RI>
0

>  <Rbt.Current_Directory>
/home/itssahil/PROJECTS/Mol_Feturizer/New_Systems/rnas/3F2Q

>  <Rbt.Executable>
rbdock ($Id: //depot/dev/client3/rdock/2013.1/src/exe/rbdock.cxx#4 $)

>  <Rbt.Library>
libRbt.so (2013.1, Build901 2013/11/27)

>  <Rbt.Parameter_File>
/export/apps/rDock/src/rDock_2013.1_src/data/scripts/dock_solv.prm

>  <Rbt.Receptor>
prm/blind_docking_80.prm

>  <SCORE>
-26.8847

>  <SCORE.INTER>
-22.9225

>  <SCORE.INTER.CONST>
1

>  <SCORE.INTER.POLAR>
0

>  <SCORE.INTER.ROT>
7

>  <SCORE.INTER.SOLV>
15.3752

>  <SCORE.INTER.VDW>
-28.6734

>  <SCORE.INTER.norm>
-0.739436

>  <SCORE.INTRA>
-3.96215

>  <SCORE.INTRA.DIHEDRAL>
-3.63832

>  <SCORE.INTRA.DIHEDRAL.0>
10.0718

>  <SCORE.INTRA.POLAR>
0

>  <SCORE.INTRA.POLAR.0>
0

>  <SCORE.INTRA.REPUL>
0

>  <SCORE.INTRA.REPUL.0>
0

>  <SCORE.INTRA.SOLV>
-1.03942

>  <SCORE.INTRA.SOLV.lig_0>
-48.6963

>  <SCORE.INTRA.VDW>
-1.62329

>  <SCORE.INTRA.VDW.0>
-0.836976

>  <SCORE.INTRA.norm>
-0.127811

>  <SCORE.RESTR>
0

>  <SCORE.RESTR.CAVITY>
0

>  <SCORE.RESTR.norm>
0

>  <SCORE.SYSTEM>
0

>  <SCORE.SYSTEM.CONST>
0

>  <SCORE.SYSTEM.DIHEDRAL>
0

>  <SCORE.SYSTEM.SOLV>
0

>  <SCORE.SYSTEM.norm>
0

>  <SCORE.heavy>
31

>  <SCORE.norm>
-0.867248

>  <RMSD>
6.918

$$$$
ligand
 OpenBabel11021811473D
libRbt.so/2013.1/901 2013/11/27
 31 33  0  0  0  0  0  0  0  0999 V2000
   24.8954   41.7967   19.1081 P   0  0  1  0  0  0  0  0  0  0  0  0
   24.6558   43.1168   18.4070 O   0  0  0  0  0  0  0  0  0  0  0  0
   25.3774   42.0940   20.5026 O   0  5  0  0  0  0  0  0  0  0  0  0
   23.6186   41.0049   19.1752 O   0  0  0  0  0  0  0  0  0  0  0  0
   26.2325   39.6078   18.6583 C   0  0  0  0  0  0  0  0  0  0  0  0
   25.9416   40.9268   18.2647 O   0  0  0  0  0  0  0  0  0  0  0  0
   27.3138   39.0435   17.7485 C   0  0  1  0  0  0  0  0  0  0  0  0
   28.5320   39.6962   18.0372 O   0  0  0  0  0  0  0  0  0  0  0  0
   27.4529   37.5361   17.9612 C   0  0  1  0  0  0  0  0  0  0  0  0
   27.5903   37.2624   19.3391 O   0  0  0  0  0  0  0  0  0  0  0  0
   26.3113   36.7167   17.3434 C   0  0  1  0  0  0  0  0  0  0  0  0
   26.3071   36.8793   15.9425 O   0  0  0  0  0  0  0  0  0  0  0  0
   26.4109   35.2358   17.6729 C   0  0  0  0  0  0  0  0  0  0  0  0
   23.6864   34.7399   18.2336 N   0  0  0  0  0  0  0  0  0  0  0  0
   22.3492   34.5689   18.5288 C   0  0  0  0  0  0  0  0  0  0  0  0
   21.8964   34.9684   19.6052 O   0  0  0  0  0  0  0  0  0  0  0  0
   21.5246   33.9403   17.6178 N   0  0  0  0  0  0  0  0  0  0  0  0
   22.0315   33.4835   16.4157 C   0  0  0  0  0  0  0  0  0  0  0  0
   23.3670   33.6543   16.1162 C   0  0  1  0  0  0  0  0  0  0  0  0
   21.3060   32.9299   15.5913 O   0  0  0  0  0  0  0  0  0  0  0  0
   25.1900   33.3681   14.6030 C   0  0  2  0  0  0  0  0  0  0  0  0
   23.8554   33.1957   14.9081 N   0  0  0  0  0  0  0  0  0  0  0  0
   25.6851   32.9048   13.3865 C   0  0  0  0  0  0  0  0  0  0  0  0
   27.0308   33.0670   13.0724 C   0  0  1  0  0  0  0  0  0  0  0  0
   27.5467   32.5704   11.7500 C   0  0  0  0  0  0  0  0  0  0  0  0
   27.8830   33.7010   13.9838 C   0  0  1  0  0  0  0  0  0  0  0  0
   29.3360   33.9042   13.6676 C   0  0  0  0  0  0  0  0  0  0  0  0
   27.3842   34.1631   15.1981 C   0  0  0  0  0  0  0  0  0  0  0  0
   26.0382   34.0000   15.5174 C   0  0  2  0  0  0  0  0  0  0  0  0
   24.2016   34.2884   17.0294 C   0  0  2  0  0  0  0  0  0  0  0  0
   25.5413   34.4525   16.7338 N   0  0  0  0  0  0  0  0  0  0  0  0
  1  2  1  6  0  0  0
  1  3  1  0  0  0  0
  1  4  2  0  0  0  0
  1  6  1  0  0  0  0
  5  6  1  0  0  0  0
  7  5  1  1  0  0  0
  7  8  1  0  0  0  0
  7  9  1  0  0  0  0
  9 10  1  1  0  0  0
  9 11  1  0  0  0  0
 11 12  1  6  0  0  0
 11 13  1  0  0  0  0
 13 31  1  0  0  0  0
 14 15  1  0  0  0  0
 15 16  2  0  0  0  0
 15 17  1  0  0  0  0
 17 18  1  0  0  0  0
 18 20  2  0  0  0  0
 19 18  1  6  0  0  0
 19 22  1  0  0  0  0
 19 30  1  0  0  0  0
 21 23  1  1  0  0  0
 21 29  1  0  0  0  0
 21 22  1  0  0  0  0
 23 24  1  0  0  0  0
 24 25  1  6  0  0  0
 24 26  1  0  0  0  0
 26 27  1  6  0  0  0
 26 28  1  0  0  0  0
 29 28  1  1  0  0  0
 29 31  1  0  0  0  0
 30 14  1  1  0  0  0
 30 31  1  0  0  0  0
M  CHG  1   3  -1
M  END
>  <CHROM.1>
-176.38264425,-174.41903713,70.25884529,-50.72662183,63.10887780,-163.20659895
88.58035859,25.35347941,36.49532575,16.96535487,1.55322565,0.43345453,0.51283271

>  <Name>
ligand

>  <RI>
0

>  <Rbt.Current_Directory>
/home/itssahil/PROJECTS/Mol_Feturizer/New_Systems/rnas/3F2Q

>  <Rbt.Executable>
rbdock ($Id: //depot/dev/client3/rdock/2013.1/src/exe/rbdock.cxx#4 $)

>  <Rbt.Library>
libRbt.so (2013.1, Build901 2013/11/27)

>  <Rbt.Parameter_File>
/export/apps/rDock/src/rDock_2013.1_src/data/scripts/dock_solv.prm

>  <Rbt.Receptor>
prm/blind_docking_100.prm

>  <SCORE>
-13.5904

>  <SCORE.INTER>
-8.72032

>  <SCORE.INTER.CONST>
1

>  <SCORE.INTER.POLAR>
0

>  <SCORE.INTER.ROT>
7

>  <SCORE.INTER.SOLV>
18.262

>  <SCORE.INTER.VDW>
-20.1676

>  <SCORE.INTER.norm>
-0.281301

>  <SCORE.INTRA>
-4.87388

>  <SCORE.INTRA.DIHEDRAL>
-7.1618

>  <SCORE.INTRA.DIHEDRAL.0>
10.0718

>  <SCORE.INTRA.POLAR>
0

>  <SCORE.INTRA.POLAR.0>
0

>  <SCORE.INTRA.REPUL>
0

>  <SCORE.INTRA.REPUL.0>
0

>  <SCORE.INTRA.SOLV>
-0.987124

>  <SCORE.INTRA.SOLV.lig_0>
-48.6963

>  <SCORE.INTRA.VDW>
-0.799419

>  <SCORE.INTRA.VDW.0>
-0.836976

>  <SCORE.INTRA.norm>
-0.157222

>  <SCORE.RESTR>
0.00378571

>  <SCORE.RESTR.CAVITY>
0.00378571

>  <SCORE.RESTR.norm>
0.00012212

>  <SCORE.SYSTEM>
0

>  <SCORE.SYSTEM.CONST>
0

>  <SCORE.SYSTEM.DIHEDRAL>
0

>  <SCORE.SYSTEM.SOLV>
0

>  <SCORE.SYSTEM.norm>
0

>  <SCORE.heavy>
31

>  <SCORE.norm>
-0.4384

>  <RMSD>
6.947

$$$$
ligand
 OpenBabel11021811473D
libRbt.so/2013.1/901 2013/11/27
 31 33  0  0  0  0  0  0  0  0999 V2000
   27.6605   33.0345   16.1731 P   0  0  1  0  0  0  0  0  0  0  0  0
   26.8490   34.2872   15.9203 O   0  0  0  0  0  0  0  0  0  0  0  0
   27.4189   32.0877   15.0284 O   0  5  0  0  0  0  0  0  0  0  0  0
   29.1246   33.3703   16.2480 O   0  0  0  0  0  0  0  0  0  0  0  0
   27.3986   33.1752   18.7602 C   0  0  0  0  0  0  0  0  0  0  0  0
   27.2508   32.4100   17.5889 O   0  0  0  0  0  0  0  0  0  0  0  0
   26.3840   34.3091   18.7458 C   0  0  1  0  0  0  0  0  0  0  0  0
   25.3966   34.0432   19.7193 O   0  0  0  0  0  0  0  0  0  0  0  0
   27.0737   35.6421   19.0358 C   0  0  1  0  0  0  0  0  0  0  0  0
   26.2831   36.7023   18.5423 O   0  0  0  0  0  0  0  0  0  0  0  0
   27.4193   35.8500   20.5169 C   0  0  1  0  0  0  0  0  0  0  0  0
   27.9811   34.6709   21.0489 O   0  0  0  0  0  0  0  0  0  0  0  0
   28.3845   37.0043   20.7348 C   0  0  0  0  0  0  0  0  0  0  0  0
   27.6991   37.1334   23.4728 N   0  0  0  0  0  0  0  0  0  0  0  0
   27.4329   37.1718   24.8264 C   0  0  0  0  0  0  0  0  0  0  0  0
   27.7101   36.2038   25.5401 O   0  0  0  0  0  0  0  0  0  0  0  0
   26.8465   38.2947   25.3745 N   0  0  0  0  0  0  0  0  0  0  0  0
   26.5265   39.3763   24.5756 C   0  0  0  0  0  0  0  0  0  0  0  0
   26.7927   39.3424   23.2226 C   0  0  1  0  0  0  0  0  0  0  0  0
   26.0120   40.3864   25.0526 O   0  0  0  0  0  0  0  0  0  0  0  0
   26.7388   40.4059   21.0871 C   0  0  2  0  0  0  0  0  0  0  0  0
   26.4704   40.4343   22.4403 N   0  0  0  0  0  0  0  0  0  0  0  0
   26.4129   41.5048   20.2958 C   0  0  0  0  0  0  0  0  0  0  0  0
   26.6724   41.4832   18.9291 C   0  0  1  0  0  0  0  0  0  0  0  0
   26.3241   42.6824   18.0911 C   0  0  0  0  0  0  0  0  0  0  0  0
   27.2656   40.3533   18.3546 C   0  0  1  0  0  0  0  0  0  0  0  0
   27.5717   40.3057   16.8861 C   0  0  0  0  0  0  0  0  0  0  0  0
   27.5903   39.2575   19.1489 C   0  0  0  0  0  0  0  0  0  0  0  0
   27.3293   39.2741   20.5170 C   0  0  2  0  0  0  0  0  0  0  0  0
   27.3849   38.2147   22.6658 C   0  0  2  0  0  0  0  0  0  0  0  0
   27.6444   38.1765   21.3092 N   0  0  0  0  0  0  0  0  0  0  0  0
  1  2  1  6  0  0  0
  1  3  1  0  0  0  0
  1  4  2  0  0  0  0
  1  6  1  0  0  0  0
  5  6  1  0  0  0  0
  7  5  1  1  0  0  0
  7  8  1  0  0  0  0
  7  9  1  0  0  0  0
  9 10  1  1  0  0  0
  9 11  1  0  0  0  0
 11 12  1  6  0  0  0
 11 13  1  0  0  0  0
 13 31  1  0  0  0  0
 14 15  1  0  0  0  0
 15 16  2  0  0  0  0
 15 17  1  0  0  0  0
 17 18  1  0  0  0  0
 18 20  2  0  0  0  0
 19 18  1  1  0  0  0
 19 22  1  0  0  0  0
 19 30  1  0  0  0  0
 21 23  1  6  0  0  0
 21 29  1  0  0  0  0
 21 22  1  0  0  0  0
 23 24  1  0  0  0  0
 24 25  1  1  0  0  0
 24 26  1  0  0  0  0
 26 27  1  1  0  0  0
 26 28  1  0  0  0  0
 29 28  1  6  0  0  0
 29 31  1  0  0  0  0
 30 14  1  6  0  0  0
 30 31  1  0  0  0  0
M  CHG  1   3  -1
M  END
>  <CHROM.1>
69.19300243,-59.06484394,109.13738280,158.14276760,44.40353744,105.70647686
-104.51399773,27.15554637,36.98016908,20.07093968,0.65301922,1.48517731,-1.44869753

>  <Name>
ligand

>  <RI>
0

>  <Rbt.Current_Directory>
/home/itssahil/PROJECTS/Mol_Feturizer/New_Systems/rnas/3F2Q

>  <Rbt.Executable>
rbdock ($Id: //depot/dev/client3/rdock/2013.1/src/exe/rbdock.cxx#4 $)

>  <Rbt.Library>
libRbt.so (2013.1, Build901 2013/11/27)

>  <Rbt.Parameter_File>
/export/apps/rDock/src/rDock_2013.1_src/data/scripts/dock_solv.prm

>  <Rbt.Receptor>
prm/pocket_docking_3.prm

>  <SCORE>
-11.5498

>  <SCORE.INTER>
-12.1299

>  <SCORE.INTER.CONST>
1

>  <SCORE.INTER.POLAR>
0

>  <SCORE.INTER.ROT>
7

>  <SCORE.INTER.SOLV>
11.7971

>  <SCORE.INTER.VDW>
-20.2856

>  <SCORE.INTER.norm>
-0.391287

>  <SCORE.INTRA>
0.580099

>  <SCORE.INTRA.DIHEDRAL>
3.62588

>  <SCORE.INTRA.DIHEDRAL.0>
10.0718

>  <SCORE.INTRA.POLAR>
0

>  <SCORE.INTRA.POLAR.0>
0

>  <SCORE.INTRA.REPUL>
0

>  <SCORE.INTRA.REPUL.0>
0

>  <SCORE.INTRA.SOLV>
0.252007

>  <SCORE.INTRA.SOLV.lig_0>
-48.6963

>  <SCORE.INTRA.VDW>
-1.35884

>  <SCORE.INTRA.VDW.0>
-0.836976

>  <SCORE.INTRA.norm>
0.0187129

>  <SCORE.RESTR>
0

>  <SCORE.RESTR.CAVITY>
0

>  <SCORE.RESTR.norm>
0

>  <SCORE.SYSTEM>
0

>  <SCORE.SYSTEM.CONST>
0

>  <SCORE.SYSTEM.DIHEDRAL>
0

>  <SCORE.SYSTEM.SOLV>
0

>  <SCORE.SYSTEM.norm>
0

>  <SCORE.heavy>
31

>  <SCORE.norm>
-0.372574

>  <RMSD>
6.980

$$$$
ligand
 OpenBabel11021811473D
libRbt.so/2013.1/901 2013/11/27
 31 33  0  0  0  0  0  0  0  0999 V2000
   31.2869   33.2597   14.5024 P   0  0  1  0  0  0  0  0  0  0  0  0
   31.8131   34.1546   13.4007 O   0  0  0  0  0  0  0  0  0  0  0  0
   30.4149   32.2094   13.8687 O   0  5  0  0  0  0  0  0  0  0  0  0
   32.4286   32.5978   15.2237 O   0  0  0  0  0  0  0  0  0  0  0  0
   31.0529   35.3651   16.0171 C   0  0  0  0  0  0  0  0  0  0  0  0
   30.5030   34.1458   15.5808 O   0  0  0  0  0  0  0  0  0  0  0  0
   30.1389   35.9755   17.0695 C   0  0  1  0  0  0  0  0  0  0  0  0
   30.1009   35.1146   18.1879 O   0  0  0  0  0  0  0  0  0  0  0  0
   30.6483   37.3578   17.4775 C   0  0  1  0  0  0  0  0  0  0  0  0
   30.3933   38.2819   16.4414 O   0  0  0  0  0  0  0  0  0  0  0  0
   30.0839   37.8544   18.8158 C   0  0  1  0  0  0  0  0  0  0  0  0
   30.7097   39.0642   19.1814 O   0  0  0  0  0  0  0  0  0  0  0  0
   28.5788   38.0650   18.7725 C   0  0  0  0  0  0  0  0  0  0  0  0
   28.4067   40.8826   18.8951 N   0  0  0  0  0  0  0  0  0  0  0  0
   28.2905   42.2577   18.8876 C   0  0  0  0  0  0  0  0  0  0  0  0
   28.6469   42.9042   17.8986 O   0  0  0  0  0  0  0  0  0  0  0  0
   27.7827   42.9052   19.9958 N   0  0  0  0  0  0  0  0  0  0  0  0
   27.3919   42.1840   21.1082 C   0  0  0  0  0  0  0  0  0  0  0  0
   27.5048   40.8093   21.1188 C   0  0  1  0  0  0  0  0  0  0  0  0
   26.9295   42.7476   22.0987 O   0  0  0  0  0  0  0  0  0  0  0  0
   27.2124   38.7288   22.2504 C   0  0  2  0  0  0  0  0  0  0  0  0
   27.1048   40.1044   22.2374 N   0  0  0  0  0  0  0  0  0  0  0  0
   26.8116   38.0160   23.3779 C   0  0  0  0  0  0  0  0  0  0  0  0
   26.9231   36.6294   23.4040 C   0  0  1  0  0  0  0  0  0  0  0  0
   26.4758   35.8743   24.6252 C   0  0  0  0  0  0  0  0  0  0  0  0
   27.4365   35.9549   22.2903 C   0  0  1  0  0  0  0  0  0  0  0  0
   27.5551   34.4587   22.2823 C   0  0  0  0  0  0  0  0  0  0  0  0
   27.8352   36.6708   21.1654 C   0  0  0  0  0  0  0  0  0  0  0  0
   27.7280   38.0592   21.1366 C   0  0  2  0  0  0  0  0  0  0  0  0
   28.0137   40.1520   20.0046 C   0  0  2  0  0  0  0  0  0  0  0  0
   28.1349   38.7757   20.0174 N   0  0  0  0  0  0  0  0  0  0  0  0
  1  2  1  6  0  0  0
  1  3  1  0  0  0  0
  1  4  2  0  0  0  0
  1  6  1  0  0  0  0
  5  6  1  0  0  0  0
  7  5  1  6  0  0  0
  7  8  1  0  0  0  0
  7  9  1  0  0  0  0
  9 10  1  6  0  0  0
  9 11  1  0  0  0  0
 11 12  1  6  0  0  0
 11 13  1  0  0  0  0
 13 31  1  0  0  0  0
 14 15  1  0  0  0  0
 15 16  2  0  0  0  0
 15 17  1  0  0  0  0
 17 18  1  0  0  0  0
 18 20  2  0  0  0  0
 19 18  1  6  0  0  0
 19 22  1  0  0  0  0
 19 30  1  0  0  0  0
 21 23  1  1  0  0  0
 21 29  1  0  0  0  0
 21 22  1  0  0  0  0
 23 24  1  0  0  0  0
 24 25  1  6  0  0  0
 24 26  1  0  0  0  0
 26 27  1  6  0  0  0
 26 28  1  0  0  0  0
 29 28  1  1  0  0  0
 29 31  1  0  0  0  0
 30 14  1  1  0  0  0
 30 31  1  0  0  0  0
M  CHG  1   3  -1
M  END
>  <CHROM.1>
-177.97063984,-44.01754975,63.61249882,73.34321086,173.84725579,-169.95085597
-91.73823618,29.03807166,37.52242475,18.92328488,-0.55044205,1.10918085,-0.17990434

>  <Name>
ligand

>  <RI>
0

>  <Rbt.Current_Directory>
/home/itssahil/PROJECTS/Mol_Feturizer/New_Systems/rnas/3F2Q

>  <Rbt.Executable>
rbdock ($Id: //depot/dev/client3/rdock/2013.1/src/exe/rbdock.cxx#4 $)

>  <Rbt.Library>
libRbt.so (2013.1, Build901 2013/11/27)

>  <Rbt.Parameter_File>
/export/apps/rDock/src/rDock_2013.1_src/data/scripts/dock_solv.prm

>  <Rbt.Receptor>
prm/pocket_docking_6.prm

>  <SCORE>
-22.61

>  <SCORE.INTER>
-17.088

>  <SCORE.INTER.CONST>
1

>  <SCORE.INTER.POLAR>
0

>  <SCORE.INTER.ROT>
7

>  <SCORE.INTER.SOLV>
10.0111

>  <SCORE.INTER.VDW>
-22.9957

>  <SCORE.INTER.norm>
-0.551225

>  <SCORE.INTRA>
-5.52199

>  <SCORE.INTRA.DIHEDRAL>
-6.96873

>  <SCORE.INTRA.DIHEDRAL.0>
10.0718

>  <SCORE.INTRA.POLAR>
0

>  <SCORE.INTRA.POLAR.0>
0

>  <SCORE.INTRA.REPUL>
0

>  <SCORE.INTRA.REPUL.0>
0

>  <SCORE.INTRA.SOLV>
-1.48988

>  <SCORE.INTRA.SOLV.lig_0>
-48.6963

>  <SCORE.INTRA.VDW>
-1.29269

>  <SCORE.INTRA.VDW.0>
-0.836976

>  <SCORE.INTRA.norm>
-0.178129

>  <SCORE.RESTR>
0

>  <SCORE.RESTR.CAVITY>
0

>  <SCORE.RESTR.norm>
0

>  <SCORE.SYSTEM>
0

>  <SCORE.SYSTEM.CONST>
0

>  <SCORE.SYSTEM.DIHEDRAL>
0

>  <SCORE.SYSTEM.SOLV>
0

>  <SCORE.SYSTEM.norm>
0

>  <SCORE.heavy>
31

>  <SCORE.norm>
-0.729354

>  <RMSD>
6.986

$$$$
ligand
 OpenBabel11021811473D
libRbt.so/2013.1/901 2013/11/27
 31 33  0  0  0  0  0  0  0  0999 V2000
   24.4732   32.0898   18.2281 P   0  0  1  0  0  0  0  0  0  0  0  0
   25.3932   31.2521   17.3660 O   0  0  0  0  0  0  0  0  0  0  0  0
   23.4706   32.7553   17.3242 O   0  5  0  0  0  0  0  0  0  0  0  0
   23.7548   31.2179   19.2209 O   0  0  0  0  0  0  0  0  0  0  0  0
   26.4510   33.7658   18.4746 C   0  0  0  0  0  0  0  0  0  0  0  0
   25.3401   33.1403   19.0694 O   0  0  0  0  0  0  0  0  0  0  0  0
   26.9097   34.9145   19.3610 C   0  0  1  0  0  0  0  0  0  0  0  0
   27.3024   34.3900   20.6117 O   0  0  0  0  0  0  0  0  0  0  0  0
   28.0730   35.6588   18.7057 C   0  0  1  0  0  0  0  0  0  0  0  0
   27.7568   35.9412   17.3593 O   0  0  0  0  0  0  0  0  0  0  0  0
   28.4943   36.9302   19.4556 C   0  0  1  0  0  0  0  0  0  0  0  0
   29.6758   37.4521   18.8895 O   0  0  0  0  0  0  0  0  0  0  0  0
   27.4169   38.0027   19.4376 C   0  0  0  0  0  0  0  0  0  0  0  0
   28.0018   40.7234   18.9482 N   0  0  0  0  0  0  0  0  0  0  0  0
   28.2334   42.0524   18.6577 C   0  0  0  0  0  0  0  0  0  0  0  0
   28.3456   42.4198   17.4848 O   0  0  0  0  0  0  0  0  0  0  0  0
   28.3484   42.9654   19.6865 N   0  0  0  0  0  0  0  0  0  0  0  0
   28.2326   42.5547   21.0011 C   0  0  0  0  0  0  0  0  0  0  0  0
   27.9992   41.2275   21.2955 C   0  0  1  0  0  0  0  0  0  0  0  0
   28.3239   43.3591   21.9269 O   0  0  0  0  0  0  0  0  0  0  0  0
   27.6440   39.5097   22.9133 C   0  0  2  0  0  0  0  0  0  0  0  0
   27.8815   40.8358   22.6149 N   0  0  0  0  0  0  0  0  0  0  0  0
   27.5271   39.1119   24.2430 C   0  0  0  0  0  0  0  0  0  0  0  0
   27.2952   37.7759   24.5548 C   0  0  1  0  0  0  0  0  0  0  0  0
   27.1608   37.3653   25.9953 C   0  0  0  0  0  0  0  0  0  0  0  0
   27.1767   36.8351   23.5255 C   0  0  1  0  0  0  0  0  0  0  0  0
   26.9116   35.3894   23.8293 C   0  0  0  0  0  0  0  0  0  0  0  0
   27.2936   37.2367   22.1982 C   0  0  0  0  0  0  0  0  0  0  0  0
   27.5287   38.5727   21.8820 C   0  0  2  0  0  0  0  0  0  0  0  0
   27.8807   40.3041   20.2630 C   0  0  2  0  0  0  0  0  0  0  0  0
   27.6552   38.9731   20.5572 N   0  0  0  0  0  0  0  0  0  0  0  0
  1  2  1  6  0  0  0
  1  3  1  0  0  0  0
  1  4  2  0  0  0  0
  1  6  1  0  0  0  0
  5  6  1  0  0  0  0
  7  5  1  6  0  0  0
  7  8  1  0  0  0  0
  7  9  1  0  0  0  0
  9 10  1  6  0  0  0
  9 11  1  0  0  0  0
 11 12  1  6  0  0  0
 11 13  1  0  0  0  0
 13 31  1  0  0  0  0
 14 15  1  0  0  0  0
 15 16  2  0  0  0  0
 15 17  1  0  0  0  0
 17 18  1  0  0  0  0
 18 20  2  0  0  0  0
 19 18  1  6  0  0  0
 19 22  1  0  0  0  0
 19 30  1  0  0  0  0
 21 23  1  1  0  0  0
 21 29  1  0  0  0  0
 21 22  1  0  0  0  0
 23 24  1  0  0  0  0
 24 25  1  6  0  0  0
 24 26  1  0  0  0  0
 26 27  1  6  0  0  0
 26 28  1  0  0  0  0
 29 28  1  1  0  0  0
 29 31  1  0  0  0  0
 30 14  1  1  0  0  0
 30 31  1  0  0  0  0
M  CHG  1   3  -1
M  END
>  <CHROM.1>
168.00035268,38.47802845,61.69541797,48.20513943,172.23662099,159.52388338
-66.66336005,27.06977228,37.21132157,20.29282489,-2.88027307,1.23980530,1.58726609

>  <Name>
ligand

>  <RI>
0

>  <Rbt.Current_Directory>
/home/itssahil/PROJECTS/Mol_Feturizer/New_Systems/rnas/3F2Q

>  <Rbt.Executable>
rbdock ($Id: //depot/dev/client3/rdock/2013.1/src/exe/rbdock.cxx#4 $)

>  <Rbt.Library>
libRbt.so (2013.1, Build901 2013/11/27)

>  <Rbt.Parameter_File>
/export/apps/rDock/src/rDock_2013.1_src/data/scripts/dock_solv.prm

>  <Rbt.Receptor>
prm/pocket_docking_7.prm

>  <SCORE>
-26.3542

>  <SCORE.INTER>
-21.9133

>  <SCORE.INTER.CONST>
1

>  <SCORE.INTER.POLAR>
0

>  <SCORE.INTER.ROT>
7

>  <SCORE.INTER.SOLV>
19.4034

>  <SCORE.INTER.VDW>
-29.3434

>  <SCORE.INTER.norm>
-0.706882

>  <SCORE.INTRA>
-4.44084

>  <SCORE.INTRA.DIHEDRAL>
-5.20648

>  <SCORE.INTRA.DIHEDRAL.0>
10.0718

>  <SCORE.INTRA.POLAR>
0

>  <SCORE.INTRA.POLAR.0>
0

>  <SCORE.INTRA.REPUL>
0

>  <SCORE.INTRA.REPUL.0>
0

>  <SCORE.INTRA.SOLV>
-1.59597

>  <SCORE.INTRA.SOLV.lig_0>
-48.6963

>  <SCORE.INTRA.VDW>
-1.03962

>  <SCORE.INTRA.VDW.0>
-0.836976

>  <SCORE.INTRA.norm>
-0.143253

>  <SCORE.RESTR>
0

>  <SCORE.RESTR.CAVITY>
0

>  <SCORE.RESTR.norm>
0

>  <SCORE.SYSTEM>
0

>  <SCORE.SYSTEM.CONST>
0

>  <SCORE.SYSTEM.DIHEDRAL>
0

>  <SCORE.SYSTEM.SOLV>
0

>  <SCORE.SYSTEM.norm>
0

>  <SCORE.heavy>
31

>  <SCORE.norm>
-0.850135

>  <RMSD>
6.987

$$$$
ligand
 OpenBabel11021811473D
libRbt.so/2013.1/901 2013/11/27
 31 33  0  0  0  0  0  0  0  0999 V2000
   26.3563   34.9527   16.7925 P   0  0  1  0  0  0  0  0  0  0  0  0
   26.4624   36.4458   17.0180 O   0  0  0  0  0  0  0  0  0  0  0  0
   24.9286   34.5471   17.0421 O   0  5  0  0  0  0  0  0  0  0  0  0
   26.7359   34.6128   15.3775 O   0  0  0  0  0  0  0  0  0  0  0  0
   27.0044   33.8368   19.0544 C   0  0  0  0  0  0  0  0  0  0  0  0
   27.3909   34.1937   17.7496 O   0  0  0  0  0  0  0  0  0  0  0  0
   27.0485   35.0717   19.9424 C   0  0  1  0  0  0  0  0  0  0  0  0
   26.0184   35.9510   19.5434 O   0  0  0  0  0  0  0  0  0  0  0  0
   26.8748   34.6772   21.4090 C   0  0  1  0  0  0  0  0  0  0  0  0
   27.9564   33.8650   21.8128 O   0  0  0  0  0  0  0  0  0  0  0  0
   26.6958   35.8736   22.3540 C   0  0  1  0  0  0  0  0  0  0  0  0
   26.4957   35.4175   23.6734 O   0  0  0  0  0  0  0  0  0  0  0  0
   27.8850   36.8205   22.3288 C   0  0  0  0  0  0  0  0  0  0  0  0
   26.7903   37.7762   24.7520 N   0  0  0  0  0  0  0  0  0  0  0  0
   26.3109   38.2084   25.9718 C   0  0  0  0  0  0  0  0  0  0  0  0
   26.1828   37.4108   26.9049 O   0  0  0  0  0  0  0  0  0  0  0  0
   25.9669   39.5347   26.1383 N   0  0  0  0  0  0  0  0  0  0  0  0
   26.1006   40.4277   25.0918 C   0  0  0  0  0  0  0  0  0  0  0  0
   26.5812   40.0000   23.8717 C   0  0  1  0  0  0  0  0  0  0  0  0
   25.8063   41.6139   25.2293 O   0  0  0  0  0  0  0  0  0  0  0  0
   27.1968   40.4843   21.6176 C   0  0  2  0  0  0  0  0  0  0  0  0
   26.7126   40.9074   22.8385 N   0  0  0  0  0  0  0  0  0  0  0  0
   27.3283   41.3969   20.5737 C   0  0  0  0  0  0  0  0  0  0  0  0
   27.8083   40.9789   19.3365 C   0  0  1  0  0  0  0  0  0  0  0  0
   27.9542   41.9795   18.2233 C   0  0  0  0  0  0  0  0  0  0  0  0
   28.1614   39.6379   19.1479 C   0  0  1  0  0  0  0  0  0  0  0  0
   28.6964   39.1595   17.8297 C   0  0  0  0  0  0  0  0  0  0  0  0
   28.0291   38.7293   20.1937 C   0  0  0  0  0  0  0  0  0  0  0  0
   27.5461   39.1432   21.4328 C   0  0  2  0  0  0  0  0  0  0  0  0
   26.9309   38.6657   23.6992 C   0  0  2  0  0  0  0  0  0  0  0  0
   27.4046   38.2346   22.4749 N   0  0  0  0  0  0  0  0  0  0  0  0
  1  2  1  1  0  0  0
  1  3  1  0  0  0  0
  1  4  2  0  0  0  0
  1  6  1  0  0  0  0
  5  6  1  0  0  0  0
  7  5  1  6  0  0  0
  7  8  1  0  0  0  0
  7  9  1  0  0  0  0
  9 10  1  1  0  0  0
  9 11  1  0  0  0  0
 11 12  1  1  0  0  0
 11 13  1  0  0  0  0
 13 31  1  0  0  0  0
 14 15  1  0  0  0  0
 15 16  2  0  0  0  0
 15 17  1  0  0  0  0
 17 18  1  0  0  0  0
 18 20  2  0  0  0  0
 19 18  1  1  0  0  0
 19 22  1  0  0  0  0
 19 30  1  0  0  0  0
 21 23  1  6  0  0  0
 21 29  1  0  0  0  0
 21 22  1  0  0  0  0
 23 24  1  0  0  0  0
 24 25  1  1  0  0  0
 24 26  1  0  0  0  0
 26 27  1  1  0  0  0
 26 28  1  0  0  0  0
 29 28  1  6  0  0  0
 29 31  1  0  0  0  0
 30 14  1  6  0  0  0
 30 31  1  0  0  0  0
M  CHG  1   3  -1
M  END
>  <CHROM.1>
-77.32025340,87.59094993,68.76898362,63.47583162,177.92285576,143.91757242
-113.90405723,26.90018203,37.52359141,21.01942101,1.43116029,-1.41813477
-2.24658166

>  <Name>
ligand

>  <RI>
0

>  <Rbt.Current_Directory>
/home/itssahil/PROJECTS/Mol_Feturizer/New_Systems/rnas/3F2Q

>  <Rbt.Executable>
rbdock ($Id: //depot/dev/client3/rdock/2013.1/src/exe/rbdock.cxx#4 $)

>  <Rbt.Library>
libRbt.so (2013.1, Build901 2013/11/27)

>  <Rbt.Parameter_File>
/export/apps/rDock/src/rDock_2013.1_src/data/scripts/dock_solv.prm

>  <Rbt.Receptor>
prm/pocket_docking_7.prm

>  <SCORE>
-19.9517

>  <SCORE.INTER>
-17.6469

>  <SCORE.INTER.CONST>
1

>  <SCORE.INTER.POLAR>
0

>  <SCORE.INTER.ROT>
7

>  <SCORE.INTER.SOLV>
13.6147

>  <SCORE.INTER.VDW>
-24.5695

>  <SCORE.INTER.norm>
-0.569255

>  <SCORE.INTRA>
-2.30478

>  <SCORE.INTRA.DIHEDRAL>
-2.42999

>  <SCORE.INTRA.DIHEDRAL.0>
10.0718

>  <SCORE.INTRA.POLAR>
0

>  <SCORE.INTRA.POLAR.0>
0

>  <SCORE.INTRA.REPUL>
0

>  <SCORE.INTRA.REPUL.0>
0

>  <SCORE.INTRA.SOLV>
0.94816

>  <SCORE.INTRA.SOLV.lig_0>
-48.6963

>  <SCORE.INTRA.VDW>
-1.56386

>  <SCORE.INTRA.VDW.0>
-0.836976

>  <SCORE.INTRA.norm>
-0.0743477

>  <SCORE.RESTR>
0

>  <SCORE.RESTR.CAVITY>
0

>  <SCORE.RESTR.norm>
0

>  <SCORE.SYSTEM>
0

>  <SCORE.SYSTEM.CONST>
0

>  <SCORE.SYSTEM.DIHEDRAL>
0

>  <SCORE.SYSTEM.SOLV>
0

>  <SCORE.SYSTEM.norm>
0

>  <SCORE.heavy>
31

>  <SCORE.norm>
-0.643603

>  <RMSD>
7.029

$$$$
ligand
 OpenBabel11021811473D
libRbt.so/2013.1/901 2013/11/27
 31 33  0  0  0  0  0  0  0  0999 V2000
   24.7247   42.9607   25.5374 P   0  0  1  0  0  0  0  0  0  0  0  0
   23.7993   43.5154   24.4755 O   0  0  0  0  0  0  0  0  0  0  0  0
   25.4641   44.1161   26.1565 O   0  5  0  0  0  0  0  0  0  0  0  0
   23.9310   42.2458   26.5961 O   0  0  0  0  0  0  0  0  0  0  0  0
   25.9848   41.9371   23.5011 C   0  0  0  0  0  0  0  0  0  0  0  0
   25.7056   41.8804   24.8789 O   0  0  0  0  0  0  0  0  0  0  0  0
   26.8463   40.7428   23.1179 C   0  0  1  0  0  0  0  0  0  0  0  0
   26.4001   39.6147   23.8401 O   0  0  0  0  0  0  0  0  0  0  0  0
   26.7555   40.4837   21.6141 C   0  0  1  0  0  0  0  0  0  0  0  0
   27.2196   41.6151   20.9092 O   0  0  0  0  0  0  0  0  0  0  0  0
   27.4831   39.2102   21.1612 C   0  0  1  0  0  0  0  0  0  0  0  0
   27.4008   38.2263   22.1682 O   0  0  0  0  0  0  0  0  0  0  0  0
   26.9212   38.6461   19.8660 C   0  0  0  0  0  0  0  0  0  0  0  0
   29.2569   38.2668   18.3220 N   0  0  0  0  0  0  0  0  0  0  0  0
   30.3824   38.0084   17.5664 C   0  0  0  0  0  0  0  0  0  0  0  0
   31.1490   37.0964   17.8885 O   0  0  0  0  0  0  0  0  0  0  0  0
   30.6501   38.7820   16.4551 N   0  0  0  0  0  0  0  0  0  0  0  0
   29.7981   39.8101   16.0979 C   0  0  0  0  0  0  0  0  0  0  0  0
   28.6712   40.0702   16.8495 C   0  0  1  0  0  0  0  0  0  0  0  0
   30.0200   40.5012   15.1051 O   0  0  0  0  0  0  0  0  0  0  0  0
   26.6979   41.3595   17.2220 C   0  0  2  0  0  0  0  0  0  0  0  0
   27.8284   41.0987   16.4750 N   0  0  0  0  0  0  0  0  0  0  0  0
   25.8478   42.3972   16.8476 C   0  0  0  0  0  0  0  0  0  0  0  0
   24.7093   42.6732   17.5983 C   0  0  1  0  0  0  0  0  0  0  0  0
   23.7964   43.7903   17.1739 C   0  0  0  0  0  0  0  0  0  0  0  0
   24.4215   41.9005   18.7291 C   0  0  1  0  0  0  0  0  0  0  0  0
   23.1933   42.1639   19.5506 C   0  0  0  0  0  0  0  0  0  0  0  0
   25.2732   40.8641   19.0995 C   0  0  0  0  0  0  0  0  0  0  0  0
   26.4154   40.5866   18.3523 C   0  0  2  0  0  0  0  0  0  0  0  0
   28.3959   39.2929   17.9687 C   0  0  2  0  0  0  0  0  0  0  0  0
   27.2717   39.5580   18.7270 N   0  0  0  0  0  0  0  0  0  0  0  0
  1  2  1  6  0  0  0
  1  3  1  0  0  0  0
  1  4  2  0  0  0  0
  1  6  1  0  0  0  0
  5  6  1  0  0  0  0
  7  5  1  6  0  0  0
  7  8  1  0  0  0  0
  7  9  1  0  0  0  0
  9 10  1  6  0  0  0
  9 11  1  0  0  0  0
 11 12  1  1  0  0  0
 11 13  1  0  0  0  0
 13 31  1  0  0  0  0
 14 15  1  0  0  0  0
 15 16  2  0  0  0  0
 15 17  1  0  0  0  0
 17 18  1  0  0  0  0
 18 20  2  0  0  0  0
 19 18  1  6  0  0  0
 19 22  1  0  0  0  0
 19 30  1  0  0  0  0
 21 23  1  1  0  0  0
 21 29  1  0  0  0  0
 21 22  1  0  0  0  0
 23 24  1  0  0  0  0
 24 25  1  6  0  0  0
 24 26  1  0  0  0  0
 26 27  1  6  0  0  0
 26 28  1  0  0  0  0
 29 28  1  1  0  0  0
 29 31  1  0  0  0  0
 30 14  1  1  0  0  0
 30 31  1  0  0  0  0
M  CHG  1   3  -1
M  END
>  <CHROM.1>
-175.56874126,24.20224342,38.53500263,60.58611768,33.48634888,69.96919107
-90.83478800,26.74307651,40.86452708,20.38783323,-2.20223622,0.74129849,-1.47326239

>  <Name>
ligand

>  <RI>
0

>  <Rbt.Current_Directory>
/home/itssahil/PROJECTS/Mol_Feturizer/New_Systems/rnas/3F2Q

>  <Rbt.Executable>
rbdock ($Id: //depot/dev/client3/rdock/2013.1/src/exe/rbdock.cxx#4 $)

>  <Rbt.Library>
libRbt.so (2013.1, Build901 2013/11/27)

>  <Rbt.Parameter_File>
/export/apps/rDock/src/rDock_2013.1_src/data/scripts/dock_solv.prm

>  <Rbt.Receptor>
prm/blind_docking_60.prm

>  <SCORE>
-13.7085

>  <SCORE.INTER>
-11.8891

>  <SCORE.INTER.CONST>
1

>  <SCORE.INTER.POLAR>
0

>  <SCORE.INTER.ROT>
7

>  <SCORE.INTER.SOLV>
18.2579

>  <SCORE.INTER.VDW>
-22.2787

>  <SCORE.INTER.norm>
-0.38352

>  <SCORE.INTRA>
-1.81938

>  <SCORE.INTRA.DIHEDRAL>
-2.81269

>  <SCORE.INTRA.DIHEDRAL.0>
10.0718

>  <SCORE.INTRA.POLAR>
0

>  <SCORE.INTRA.POLAR.0>
0

>  <SCORE.INTRA.REPUL>
0

>  <SCORE.INTRA.REPUL.0>
0

>  <SCORE.INTRA.SOLV>
-1.11441

>  <SCORE.INTRA.SOLV.lig_0>
-48.6963

>  <SCORE.INTRA.VDW>
0.144172

>  <SCORE.INTRA.VDW.0>
-0.836976

>  <SCORE.INTRA.norm>
-0.0586897

>  <SCORE.RESTR>
0

>  <SCORE.RESTR.CAVITY>
0

>  <SCORE.RESTR.norm>
0

>  <SCORE.SYSTEM>
0

>  <SCORE.SYSTEM.CONST>
0

>  <SCORE.SYSTEM.DIHEDRAL>
0

>  <SCORE.SYSTEM.SOLV>
0

>  <SCORE.SYSTEM.norm>
0

>  <SCORE.heavy>
31

>  <SCORE.norm>
-0.44221

>  <RMSD>
7.038

$$$$
ligand
 OpenBabel11021811473D
libRbt.so/2013.1/901 2013/11/27
 31 33  0  0  0  0  0  0  0  0999 V2000
   31.7530   30.8459   15.1940 P   0  0  1  0  0  0  0  0  0  0  0  0
   33.1864   31.1872   14.8468 O   0  0  0  0  0  0  0  0  0  0  0  0
   31.0420   30.4815   13.9185 O   0  5  0  0  0  0  0  0  0  0  0  0
   31.7120   29.6804   16.1436 O   0  0  0  0  0  0  0  0  0  0  0  0
   30.8105   33.2731   15.2391 C   0  0  0  0  0  0  0  0  0  0  0  0
   31.0764   32.0863   15.9463 O   0  0  0  0  0  0  0  0  0  0  0  0
   30.3157   34.3329   16.2124 C   0  0  1  0  0  0  0  0  0  0  0  0
   30.2346   35.5673   15.5320 O   0  0  0  0  0  0  0  0  0  0  0  0
   28.9484   33.9418   16.7728 C   0  0  1  0  0  0  0  0  0  0  0  0
   29.0513   32.7127   17.4594 O   0  0  0  0  0  0  0  0  0  0  0  0
   28.3118   35.0213   17.6592 C   0  0  1  0  0  0  0  0  0  0  0  0
   27.1007   34.5442   18.2019 O   0  0  0  0  0  0  0  0  0  0  0  0
   29.2262   35.4612   18.7913 C   0  0  0  0  0  0  0  0  0  0  0  0
   28.0569   34.1358   20.9957 N   0  0  0  0  0  0  0  0  0  0  0  0
   27.5495   33.4505   22.0808 C   0  0  0  0  0  0  0  0  0  0  0  0
   27.6644   32.2235   22.1475 O   0  0  0  0  0  0  0  0  0  0  0  0
   26.9049   34.1443   23.0849 N   0  0  0  0  0  0  0  0  0  0  0  0
   26.7667   35.5174   23.0077 C   0  0  0  0  0  0  0  0  0  0  0  0
   27.2741   36.2061   21.9257 C   0  0  1  0  0  0  0  0  0  0  0  0
   26.2026   36.1488   23.8997 O   0  0  0  0  0  0  0  0  0  0  0  0
   27.6407   38.2719   20.7887 C   0  0  2  0  0  0  0  0  0  0  0  0
   27.1309   37.5788   21.8675 N   0  0  0  0  0  0  0  0  0  0  0  0
   27.4958   39.6557   20.7268 C   0  0  0  0  0  0  0  0  0  0  0  0
   27.9996   40.3631   19.6397 C   0  0  1  0  0  0  0  0  0  0  0  0
   27.8439   41.8581   19.5938 C   0  0  0  0  0  0  0  0  0  0  0  0
   28.6554   39.6772   18.6111 C   0  0  1  0  0  0  0  0  0  0  0  0
   29.2228   40.4136   17.4328 C   0  0  0  0  0  0  0  0  0  0  0  0
   28.7986   38.2944   18.6770 C   0  0  0  0  0  0  0  0  0  0  0  0
   28.2931   37.5824   19.7622 C   0  0  2  0  0  0  0  0  0  0  0  0
   27.9259   35.5124   20.9125 C   0  0  2  0  0  0  0  0  0  0  0  0
   28.4272   36.2005   19.8242 N   0  0  0  0  0  0  0  0  0  0  0  0
  1  2  1  6  0  0  0
  1  3  1  0  0  0  0
  1  4  2  0  0  0  0
  1  6  1  0  0  0  0
  5  6  1  0  0  0  0
  7  5  1  6  0  0  0
  7  8  1  0  0  0  0
  7  9  1  0  0  0  0
  9 10  1  1  0  0  0
  9 11  1  0  0  0  0
 11 12  1  1  0  0  0
 11 13  1  0  0  0  0
 13 31  1  0  0  0  0
 14 15  1  0  0  0  0
 15 16  2  0  0  0  0
 15 17  1  0  0  0  0
 17 18  1  0  0  0  0
 18 20  2  0  0  0  0
 19 18  1  1  0  0  0
 19 22  1  0  0  0  0
 19 30  1  0  0  0  0
 21 23  1  6  0  0  0
 21 29  1  0  0  0  0
 21 22  1  0  0  0  0
 23 24  1  0  0  0  0
 24 25  1  1  0  0  0
 24 26  1  0  0  0  0
 26 27  1  1  0  0  0
 26 28  1  0  0  0  0
 29 28  1  6  0  0  0
 29 31  1  0  0  0  0
 30 14  1  6  0  0  0
 30 31  1  0  0  0  0
M  CHG  1   3  -1
M  END
>  <CHROM.1>
-173.78817751,69.06236042,171.73383366,60.45041705,-176.14008998,-163.95836455
-91.80060437,28.98112349,35.03010046,18.67260959,0.56134127,-1.07112676,2.90814973

>  <Name>
ligand

>  <RI>
0

>  <Rbt.Current_Directory>
/home/itssahil/PROJECTS/Mol_Feturizer/New_Systems/rnas/3F2Q

>  <Rbt.Executable>
rbdock ($Id: //depot/dev/client3/rdock/2013.1/src/exe/rbdock.cxx#4 $)

>  <Rbt.Library>
libRbt.so (2013.1, Build901 2013/11/27)

>  <Rbt.Parameter_File>
/export/apps/rDock/src/rDock_2013.1_src/data/scripts/dock_solv.prm

>  <Rbt.Receptor>
prm/pocket_docking_8.prm

>  <SCORE>
-21.2434

>  <SCORE.INTER>
-16.2979

>  <SCORE.INTER.CONST>
1

>  <SCORE.INTER.POLAR>
0

>  <SCORE.INTER.ROT>
7

>  <SCORE.INTER.SOLV>
15.0182

>  <SCORE.INTER.VDW>
-24.138

>  <SCORE.INTER.norm>
-0.52574

>  <SCORE.INTRA>
-4.94546

>  <SCORE.INTRA.DIHEDRAL>
-7.07585

>  <SCORE.INTRA.DIHEDRAL.0>
10.0718

>  <SCORE.INTRA.POLAR>
0

>  <SCORE.INTRA.POLAR.0>
0

>  <SCORE.INTRA.REPUL>
0

>  <SCORE.INTRA.REPUL.0>
0

>  <SCORE.INTRA.SOLV>
-0.964416

>  <SCORE.INTRA.SOLV.lig_0>
-48.6963

>  <SCORE.INTRA.VDW>
-0.925327

>  <SCORE.INTRA.VDW.0>
-0.836976

>  <SCORE.INTRA.norm>
-0.159531

>  <SCORE.RESTR>
0

>  <SCORE.RESTR.CAVITY>
0

>  <SCORE.RESTR.norm>
0

>  <SCORE.SYSTEM>
0

>  <SCORE.SYSTEM.CONST>
0

>  <SCORE.SYSTEM.DIHEDRAL>
0

>  <SCORE.SYSTEM.SOLV>
0

>  <SCORE.SYSTEM.norm>
0

>  <SCORE.heavy>
31

>  <SCORE.norm>
-0.685271

>  <RMSD>
7.077

$$$$
ligand
 OpenBabel11021811473D
libRbt.so/2013.1/901 2013/11/27
 31 33  0  0  0  0  0  0  0  0999 V2000
   30.6825   32.3157   15.7587 P   0  0  1  0  0  0  0  0  0  0  0  0
   31.6676   31.3830   16.4303 O   0  0  0  0  0  0  0  0  0  0  0  0
   31.4150   33.0606   14.6753 O   0  5  0  0  0  0  0  0  0  0  0  0
   29.5526   31.5293   15.1530 O   0  0  0  0  0  0  0  0  0  0  0  0
   28.8916   34.0394   16.5353 C   0  0  0  0  0  0  0  0  0  0  0  0
   30.0395   33.2908   16.8534 O   0  0  0  0  0  0  0  0  0  0  0  0
   28.5739   34.9788   17.6895 C   0  0  1  0  0  0  0  0  0  0  0  0
   28.5398   34.2288   18.8851 O   0  0  0  0  0  0  0  0  0  0  0  0
   29.6282   36.0818   17.7816 C   0  0  1  0  0  0  0  0  0  0  0  0
   29.6963   36.7763   16.5546 O   0  0  0  0  0  0  0  0  0  0  0  0
   29.4116   37.0476   18.9549 C   0  0  1  0  0  0  0  0  0  0  0  0
   30.4440   38.0080   18.9831 O   0  0  0  0  0  0  0  0  0  0  0  0
   28.0702   37.7597   18.8850 C   0  0  0  0  0  0  0  0  0  0  0  0
   28.3104   40.5600   18.5947 N   0  0  0  0  0  0  0  0  0  0  0  0
   28.3854   41.9229   18.3916 C   0  0  0  0  0  0  0  0  0  0  0  0
   28.6649   42.3685   17.2751 O   0  0  0  0  0  0  0  0  0  0  0  0
   28.1556   42.7832   19.4462 N   0  0  0  0  0  0  0  0  0  0  0  0
   27.8518   42.2862   20.6997 C   0  0  0  0  0  0  0  0  0  0  0  0
   27.7741   40.9247   20.9062 C   0  0  1  0  0  0  0  0  0  0  0  0
   27.6359   43.0417   21.6458 O   0  0  0  0  0  0  0  0  0  0  0  0
   27.3820   39.0846   22.3742 C   0  0  2  0  0  0  0  0  0  0  0  0
   27.4646   40.4459   22.1644 N   0  0  0  0  0  0  0  0  0  0  0  0
   27.0721   38.5994   23.6424 C   0  0  0  0  0  0  0  0  0  0  0  0
   26.9938   37.2284   23.8661 C   0  0  1  0  0  0  0  0  0  0  0  0
   26.6475   36.7217   25.2390 C   0  0  0  0  0  0  0  0  0  0  0  0
   27.2246   36.3401   22.8095 C   0  0  1  0  0  0  0  0  0  0  0  0
   27.1327   34.8563   23.0157 C   0  0  0  0  0  0  0  0  0  0  0  0
   27.5333   36.8290   21.5436 C   0  0  0  0  0  0  0  0  0  0  0  0
   27.6156   38.2007   21.3163 C   0  0  2  0  0  0  0  0  0  0  0  0
   28.0028   40.0538   19.8470 C   0  0  2  0  0  0  0  0  0  0  0  0
   27.9333   38.6896   20.0548 N   0  0  0  0  0  0  0  0  0  0  0  0
  1  2  1  1  0  0  0
  1  3  1  0  0  0  0
  1  4  2  0  0  0  0
  1  6  1  0  0  0  0
  5  6  1  0  0  0  0
  7  5  1  6  0  0  0
  7  8  1  0  0  0  0
  7  9  1  0  0  0  0
  9 10  1  6  0  0  0
  9 11  1  0  0  0  0
 11 12  1  6  0  0  0
 11 13  1  0  0  0  0
 13 31  1  0  0  0  0
 14 15  1  0  0  0  0
 15 16  2  0  0  0  0
 15 17  1  0  0  0  0
 17 18  1  0  0  0  0
 18 20  2  0  0  0  0
 19 18  1  6  0  0  0
 19 22  1  0  0  0  0
 19 30  1  0  0  0  0
 21 23  1  1  0  0  0
 21 29  1  0  0  0  0
 21 22  1  0  0  0  0
 23 24  1  0  0  0  0
 24 25  1  6  0  0  0
 24 26  1  0  0  0  0
 26 27  1  6  0  0  0
 26 28  1  0  0  0  0
 29 28  1  1  0  0  0
 29 31  1  0  0  0  0
 30 14  1  1  0  0  0
 30 31  1  0  0  0  0
M  CHG  1   3  -1
M  END
>  <CHROM.1>
-174.33768591,-165.91785338,-51.37224449,56.90703802,178.54271985,-179.64274228
-77.47243049,28.68885743,37.13750920,19.25895540,-0.72909204,1.18837806,-0.20711841

>  <Name>
ligand

>  <RI>
0

>  <Rbt.Current_Directory>
/home/itssahil/PROJECTS/Mol_Feturizer/New_Systems/rnas/3F2Q

>  <Rbt.Executable>
rbdock ($Id: //depot/dev/client3/rdock/2013.1/src/exe/rbdock.cxx#4 $)

>  <Rbt.Library>
libRbt.so (2013.1, Build901 2013/11/27)

>  <Rbt.Parameter_File>
/export/apps/rDock/src/rDock_2013.1_src/data/scripts/dock_solv.prm

>  <Rbt.Receptor>
prm/pocket_docking_7.prm

>  <SCORE>
-25.4557

>  <SCORE.INTER>
-20.0477

>  <SCORE.INTER.CONST>
1

>  <SCORE.INTER.POLAR>
0

>  <SCORE.INTER.ROT>
7

>  <SCORE.INTER.SOLV>
10.3195

>  <SCORE.INTER.VDW>
-25.0716

>  <SCORE.INTER.norm>
-0.646699

>  <SCORE.INTRA>
-5.40803

>  <SCORE.INTRA.DIHEDRAL>
-7.83928

>  <SCORE.INTRA.DIHEDRAL.0>
10.0718

>  <SCORE.INTRA.POLAR>
0

>  <SCORE.INTRA.POLAR.0>
0

>  <SCORE.INTRA.REPUL>
0

>  <SCORE.INTRA.REPUL.0>
0

>  <SCORE.INTRA.SOLV>
-0.709826

>  <SCORE.INTRA.SOLV.lig_0>
-48.6963

>  <SCORE.INTRA.VDW>
-1.13348

>  <SCORE.INTRA.VDW.0>
-0.836976

>  <SCORE.INTRA.norm>
-0.174452

>  <SCORE.RESTR>
0

>  <SCORE.RESTR.CAVITY>
0

>  <SCORE.RESTR.norm>
0

>  <SCORE.SYSTEM>
0

>  <SCORE.SYSTEM.CONST>
0

>  <SCORE.SYSTEM.DIHEDRAL>
0

>  <SCORE.SYSTEM.SOLV>
0

>  <SCORE.SYSTEM.norm>
0

>  <SCORE.heavy>
31

>  <SCORE.norm>
-0.821152

>  <RMSD>
7.081

$$$$
ligand
 OpenBabel11021811473D
libRbt.so/2013.1/901 2013/11/27
 31 33  0  0  0  0  0  0  0  0999 V2000
   30.3231   32.1382   15.2585 P   0  0  1  0  0  0  0  0  0  0  0  0
   30.1120   31.1345   16.3719 O   0  0  0  0  0  0  0  0  0  0  0  0
   31.7931   32.1705   14.9370 O   0  5  0  0  0  0  0  0  0  0  0  0
   29.5495   31.7279   14.0358 O   0  0  0  0  0  0  0  0  0  0  0  0
   30.2466   34.1706   16.8848 C   0  0  0  0  0  0  0  0  0  0  0  0
   29.7580   33.5654   15.7125 O   0  0  0  0  0  0  0  0  0  0  0  0
   29.6021   35.5398   17.0444 C   0  0  1  0  0  0  0  0  0  0  0  0
   28.2069   35.3689   17.1767 O   0  0  0  0  0  0  0  0  0  0  0  0
   30.1707   36.2543   18.2704 C   0  0  1  0  0  0  0  0  0  0  0  0
   31.5811   36.2381   18.2169 O   0  0  0  0  0  0  0  0  0  0  0  0
   29.6383   37.6820   18.4560 C   0  0  1  0  0  0  0  0  0  0  0  0
   29.8197   38.4202   17.2681 O   0  0  0  0  0  0  0  0  0  0  0  0
   28.1680   37.7114   18.8415 C   0  0  0  0  0  0  0  0  0  0  0  0
   28.3341   40.5186   18.5673 N   0  0  0  0  0  0  0  0  0  0  0  0
   28.3746   41.8840   18.3710 C   0  0  0  0  0  0  0  0  0  0  0  0
   28.6703   42.3423   17.2639 O   0  0  0  0  0  0  0  0  0  0  0  0
   28.0921   42.7328   19.4221 N   0  0  0  0  0  0  0  0  0  0  0  0
   27.7700   42.2220   20.6654 C   0  0  0  0  0  0  0  0  0  0  0  0
   27.7266   40.8579   20.8651 C   0  0  1  0  0  0  0  0  0  0  0  0
   27.5074   42.9669   21.6081 O   0  0  0  0  0  0  0  0  0  0  0  0
   27.3498   39.0010   22.3158 C   0  0  2  0  0  0  0  0  0  0  0  0
   27.3982   40.3650   22.1130 N   0  0  0  0  0  0  0  0  0  0  0  0
   27.0209   38.5017   23.5738 C   0  0  0  0  0  0  0  0  0  0  0  0
   26.9768   37.1280   23.7906 C   0  0  1  0  0  0  0  0  0  0  0  0
   26.6094   36.6057   25.1521 C   0  0  0  0  0  0  0  0  0  0  0  0
   27.2611   36.2513   22.7374 C   0  0  1  0  0  0  0  0  0  0  0  0
   27.2071   34.7646   22.9360 C   0  0  0  0  0  0  0  0  0  0  0  0
   27.5887   36.7542   21.4818 C   0  0  0  0  0  0  0  0  0  0  0  0
   27.6369   38.1287   21.2615 C   0  0  2  0  0  0  0  0  0  0  0  0
   28.0084   39.9985   19.8093 C   0  0  2  0  0  0  0  0  0  0  0  0
   27.9733   38.6319   20.0105 N   0  0  0  0  0  0  0  0  0  0  0  0
  1  2  1  1  0  0  0
  1  3  1  0  0  0  0
  1  4  2  0  0  0  0
  1  6  1  0  0  0  0
  5  6  1  0  0  0  0
  7  5  1  1  0  0  0
  7  8  1  0  0  0  0
  7  9  1  0  0  0  0
  9 10  1  6  0  0  0
  9 11  1  0  0  0  0
 11 12  1  6  0  0  0
 11 13  1  0  0  0  0
 13 31  1  0  0  0  0
 14 15  1  0  0  0  0
 15 16  2  0  0  0  0
 15 17  1  0  0  0  0
 17 18  1  0  0  0  0
 18 20  2  0  0  0  0
 19 18  1  6  0  0  0
 19 22  1  0  0  0  0
 19 30  1  0  0  0  0
 21 23  1  1  0  0  0
 21 29  1  0  0  0  0
 21 22  1  0  0  0  0
 23 24  1  0  0  0  0
 24 25  1  6  0  0  0
 24 26  1  0  0  0  0
 26 27  1  6  0  0  0
 26 28  1  0  0  0  0
 29 28  1  1  0  0  0
 29 31  1  0  0  0  0
 30 14  1  1  0  0  0
 30 31  1  0  0  0  0
M  CHG  1   3  -1
M  END
>  <CHROM.1>
177.06728451,57.04377934,61.89764206,51.15178081,-52.81406546,131.91291688
-110.55393673,28.73410328,37.14234104,19.05275496,-0.72337781,1.19859641
-0.17313264

>  <Name>
ligand

>  <RI>
0

>  <Rbt.Current_Directory>
/home/itssahil/PROJECTS/Mol_Feturizer/New_Systems/rnas/3F2Q

>  <Rbt.Executable>
rbdock ($Id: //depot/dev/client3/rdock/2013.1/src/exe/rbdock.cxx#4 $)

>  <Rbt.Library>
libRbt.so (2013.1, Build901 2013/11/27)

>  <Rbt.Parameter_File>
/export/apps/rDock/src/rDock_2013.1_src/data/scripts/dock_solv.prm

>  <Rbt.Receptor>
prm/pocket_docking_7.prm

>  <SCORE>
-22.4618

>  <SCORE.INTER>
-19.38

>  <SCORE.INTER.CONST>
1

>  <SCORE.INTER.POLAR>
0

>  <SCORE.INTER.ROT>
7

>  <SCORE.INTER.SOLV>
8.98721

>  <SCORE.INTER.VDW>
-24.1824

>  <SCORE.INTER.norm>
-0.625161

>  <SCORE.INTRA>
-3.08182

>  <SCORE.INTRA.DIHEDRAL>
-3.3415

>  <SCORE.INTRA.DIHEDRAL.0>
10.0718

>  <SCORE.INTRA.POLAR>
0

>  <SCORE.INTRA.POLAR.0>
0

>  <SCORE.INTRA.REPUL>
0

>  <SCORE.INTRA.REPUL.0>
0

>  <SCORE.INTRA.SOLV>
-1.29762

>  <SCORE.INTRA.SOLV.lig_0>
-48.6963

>  <SCORE.INTRA.VDW>
-0.76226

>  <SCORE.INTRA.VDW.0>
-0.836976

>  <SCORE.INTRA.norm>
-0.0994135

>  <SCORE.RESTR>
0

>  <SCORE.RESTR.CAVITY>
0

>  <SCORE.RESTR.norm>
0

>  <SCORE.SYSTEM>
0

>  <SCORE.SYSTEM.CONST>
0

>  <SCORE.SYSTEM.DIHEDRAL>
0

>  <SCORE.SYSTEM.SOLV>
0

>  <SCORE.SYSTEM.norm>
0

>  <SCORE.heavy>
31

>  <SCORE.norm>
-0.724574

>  <RMSD>
7.096

$$$$
ligand
 OpenBabel11021811473D
libRbt.so/2013.1/901 2013/11/27
 31 33  0  0  0  0  0  0  0  0999 V2000
   30.8686   32.4080   15.8671 P   0  0  1  0  0  0  0  0  0  0  0  0
   30.0600   31.2211   16.3456 O   0  0  0  0  0  0  0  0  0  0  0  0
   32.2779   31.9398   15.6227 O   0  5  0  0  0  0  0  0  0  0  0  0
   30.2895   32.9498   14.5892 O   0  0  0  0  0  0  0  0  0  0  0  0
   31.5649   34.7422   16.7880 C   0  0  0  0  0  0  0  0  0  0  0  0
   30.7865   33.5819   16.9524 O   0  0  0  0  0  0  0  0  0  0  0  0
   31.3372   35.6671   17.9747 C   0  0  1  0  0  0  0  0  0  0  0  0
   32.2855   36.7117   17.9209 O   0  0  0  0  0  0  0  0  0  0  0  0
   29.9176   36.2331   17.9418 C   0  0  1  0  0  0  0  0  0  0  0  0
   28.9845   35.1796   18.0506 O   0  0  0  0  0  0  0  0  0  0  0  0
   29.6589   37.3154   18.9991 C   0  0  1  0  0  0  0  0  0  0  0  0
   30.5711   38.3779   18.8317 O   0  0  0  0  0  0  0  0  0  0  0  0
   28.2413   37.8617   18.9407 C   0  0  0  0  0  0  0  0  0  0  0  0
   28.3163   40.6792   18.7418 N   0  0  0  0  0  0  0  0  0  0  0  0
   28.3136   42.0498   18.5813 C   0  0  0  0  0  0  0  0  0  0  0  0
   28.6141   42.5467   17.4922 O   0  0  0  0  0  0  0  0  0  0  0  0
   27.9827   42.8607   19.6481 N   0  0  0  0  0  0  0  0  0  0  0  0
   27.6552   42.3068   20.8714 C   0  0  0  0  0  0  0  0  0  0  0  0
   27.6549   40.9373   21.0352 C   0  0  1  0  0  0  0  0  0  0  0  0
   27.3497   43.0174   21.8276 O   0  0  0  0  0  0  0  0  0  0  0  0
   27.3149   39.0313   22.4303 C   0  0  2  0  0  0  0  0  0  0  0  0
   27.3203   40.4010   22.2635 N   0  0  0  0  0  0  0  0  0  0  0  0
   26.9799   38.4883   23.6683 C   0  0  0  0  0  0  0  0  0  0  0  0
   26.9788   37.1087   23.8490 C   0  0  1  0  0  0  0  0  0  0  0  0
   26.6042   36.5387   25.1893 C   0  0  0  0  0  0  0  0  0  0  0  0
   27.3125   36.2700   22.7795 C   0  0  1  0  0  0  0  0  0  0  0  0
   27.3058   34.7776   22.9388 C   0  0  0  0  0  0  0  0  0  0  0  0
   27.6460   36.8165   21.5438 C   0  0  0  0  0  0  0  0  0  0  0  0
   27.6512   38.1972   21.3597 C   0  0  2  0  0  0  0  0  0  0  0  0
   27.9855   40.1159   19.9634 C   0  0  2  0  0  0  0  0  0  0  0  0
   27.9935   38.7441   20.1288 N   0  0  0  0  0  0  0  0  0  0  0  0
  1  2  1  1  0  0  0
  1  3  1  0  0  0  0
  1  4  2  0  0  0  0
  1  6  1  0  0  0  0
  5  6  1  0  0  0  0
  7  5  1  6  0  0  0
  7  8  1  0  0  0  0
  7  9  1  0  0  0  0
  9 10  1  1  0  0  0
  9 11  1  0  0  0  0
 11 12  1  6  0  0  0
 11 13  1  0  0  0  0
 13 31  1  0  0  0  0
 14 15  1  0  0  0  0
 15 16  2  0  0  0  0
 15 17  1  0  0  0  0
 17 18  1  0  0  0  0
 18 20  2  0  0  0  0
 19 18  1  6  0  0  0
 19 22  1  0  0  0  0
 19 30  1  0  0  0  0
 21 23  1  1  0  0  0
 21 29  1  0  0  0  0
 21 22  1  0  0  0  0
 23 24  1  0  0  0  0
 24 25  1  6  0  0  0
 24 26  1  0  0  0  0
 26 27  1  6  0  0  0
 26 28  1  0  0  0  0
 29 28  1  1  0  0  0
 29 31  1  0  0  0  0
 30 14  1  1  0  0  0
 30 31  1  0  0  0  0
M  CHG  1   3  -1
M  END
>  <CHROM.1>
-178.00594955,173.92412531,169.97310015,62.25581314,57.98872959,170.97698760
-81.71580596,29.00105379,37.26056514,19.36275658,-0.68616489,1.09854820,-0.22381769

>  <Name>
ligand

>  <RI>
0

>  <Rbt.Current_Directory>
/home/itssahil/PROJECTS/Mol_Feturizer/New_Systems/rnas/3F2Q

>  <Rbt.Executable>
rbdock ($Id: //depot/dev/client3/rdock/2013.1/src/exe/rbdock.cxx#4 $)

>  <Rbt.Library>
libRbt.so (2013.1, Build901 2013/11/27)

>  <Rbt.Parameter_File>
/export/apps/rDock/src/rDock_2013.1_src/data/scripts/dock_solv.prm

>  <Rbt.Receptor>
prm/pocket_docking_6.prm

>  <SCORE>
-25.9797

>  <SCORE.INTER>
-20.9151

>  <SCORE.INTER.CONST>
1

>  <SCORE.INTER.POLAR>
0

>  <SCORE.INTER.ROT>
7

>  <SCORE.INTER.SOLV>
12.3221

>  <SCORE.INTER.VDW>
-26.3175

>  <SCORE.INTER.norm>
-0.674681

>  <SCORE.INTRA>
-5.06456

>  <SCORE.INTRA.DIHEDRAL>
-7.79878

>  <SCORE.INTRA.DIHEDRAL.0>
10.0718

>  <SCORE.INTRA.POLAR>
0

>  <SCORE.INTRA.POLAR.0>
0

>  <SCORE.INTRA.REPUL>
0

>  <SCORE.INTRA.REPUL.0>
0

>  <SCORE.INTRA.SOLV>
-0.376888

>  <SCORE.INTRA.SOLV.lig_0>
-48.6963

>  <SCORE.INTRA.VDW>
-0.976722

>  <SCORE.INTRA.VDW.0>
-0.836976

>  <SCORE.INTRA.norm>
-0.163373

>  <SCORE.RESTR>
0

>  <SCORE.RESTR.CAVITY>
0

>  <SCORE.RESTR.norm>
0

>  <SCORE.SYSTEM>
0

>  <SCORE.SYSTEM.CONST>
0

>  <SCORE.SYSTEM.DIHEDRAL>
0

>  <SCORE.SYSTEM.SOLV>
0

>  <SCORE.SYSTEM.norm>
0

>  <SCORE.heavy>
31

>  <SCORE.norm>
-0.838054

>  <RMSD>
7.132

$$$$
ligand
 OpenBabel11021811473D
libRbt.so/2013.1/901 2013/11/27
 31 33  0  0  0  0  0  0  0  0999 V2000
   31.5775   32.5412   15.5205 P   0  0  1  0  0  0  0  0  0  0  0  0
   33.0048   32.0420   15.5921 O   0  0  0  0  0  0  0  0  0  0  0  0
   31.3511   33.0995   14.1413 O   0  5  0  0  0  0  0  0  0  0  0  0
   30.6184   31.4098   15.7691 O   0  0  0  0  0  0  0  0  0  0  0  0
   32.0798   34.8161   16.6842 C   0  0  0  0  0  0  0  0  0  0  0  0
   31.3326   33.6241   16.6737 O   0  0  0  0  0  0  0  0  0  0  0  0
   31.6972   35.6331   17.9096 C   0  0  1  0  0  0  0  0  0  0  0  0
   32.6529   36.6574   18.0850 O   0  0  0  0  0  0  0  0  0  0  0  0
   30.3010   36.2303   17.7345 C   0  0  1  0  0  0  0  0  0  0  0  0
   29.3510   35.1918   17.6284 O   0  0  0  0  0  0  0  0  0  0  0  0
   29.9128   37.2277   18.8350 C   0  0  1  0  0  0  0  0  0  0  0  0
   30.7723   38.3451   18.7951 O   0  0  0  0  0  0  0  0  0  0  0  0
   28.4734   37.7014   18.7122 C   0  0  0  0  0  0  0  0  0  0  0  0
   28.4777   40.5160   18.4645 N   0  0  0  0  0  0  0  0  0  0  0  0
   28.4440   41.8830   18.2784 C   0  0  0  0  0  0  0  0  0  0  0  0
   28.7866   42.3697   17.1972 O   0  0  0  0  0  0  0  0  0  0  0  0
   28.0347   42.7020   19.3112 N   0  0  0  0  0  0  0  0  0  0  0  0
   27.6598   42.1599   20.5261 C   0  0  0  0  0  0  0  0  0  0  0  0
   27.6902   40.7939   20.7154 C   0  0  1  0  0  0  0  0  0  0  0  0
   27.2844   42.8775   21.4517 O   0  0  0  0  0  0  0  0  0  0  0  0
   27.3327   38.9031   22.1266 C   0  0  2  0  0  0  0  0  0  0  0  0
   27.3075   40.2693   21.9346 N   0  0  0  0  0  0  0  0  0  0  0  0
   26.9492   38.3719   23.3557 C   0  0  0  0  0  0  0  0  0  0  0  0
   26.9783   36.9962   23.5619 C   0  0  1  0  0  0  0  0  0  0  0  0
   26.5508   36.4386   24.8915 C   0  0  0  0  0  0  0  0  0  0  0  0
   27.3914   36.1494   22.5271 C   0  0  1  0  0  0  0  0  0  0  0  0
   27.4192   34.6605   22.7139 C   0  0  0  0  0  0  0  0  0  0  0  0
   27.7732   36.6842   21.3002 C   0  0  0  0  0  0  0  0  0  0  0  0
   27.7483   38.0610   21.0908 C   0  0  2  0  0  0  0  0  0  0  0  0
   28.0999   39.9643   19.6778 C   0  0  2  0  0  0  0  0  0  0  0  0
   28.1386   38.5965   19.8691 N   0  0  0  0  0  0  0  0  0  0  0  0
  1  2  1  1  0  0  0
  1  3  1  0  0  0  0
  1  4  2  0  0  0  0
  1  6  1  0  0  0  0
  5  6  1  0  0  0  0
  7  5  1  6  0  0  0
  7  8  1  0  0  0  0
  7  9  1  0  0  0  0
  9 10  1  1  0  0  0
  9 11  1  0  0  0  0
 11 12  1  6  0  0  0
 11 13  1  0  0  0  0
 13 31  1  0  0  0  0
 14 15  1  0  0  0  0
 15 16  2  0  0  0  0
 15 17  1  0  0  0  0
 17 18  1  0  0  0  0
 18 20  2  0  0  0  0
 19 18  1  6  0  0  0
 19 22  1  0  0  0  0
 19 30  1  0  0  0  0
 21 23  1  1  0  0  0
 21 29  1  0  0  0  0
 21 22  1  0  0  0  0
 23 24  1  0  0  0  0
 24 25  1  6  0  0  0
 24 26  1  0  0  0  0
 26 27  1  6  0  0  0
 26 28  1  0  0  0  0
 29 28  1  1  0  0  0
 29 31  1  0  0  0  0
 30 14  1  1  0  0  0
 30 31  1  0  0  0  0
M  CHG  1   3  -1
M  END
>  <CHROM.1>
-177.52023932,61.73133739,166.47967108,62.85574200,63.73256755,176.17683607
-83.18858997,29.27103554,37.20431182,19.10026359,-0.58365207,1.04497860,-0.28397058

>  <Name>
ligand

>  <RI>
0

>  <Rbt.Current_Directory>
/home/itssahil/PROJECTS/Mol_Feturizer/New_Systems/rnas/3F2Q

>  <Rbt.Executable>
rbdock ($Id: //depot/dev/client3/rdock/2013.1/src/exe/rbdock.cxx#4 $)

>  <Rbt.Library>
libRbt.so (2013.1, Build901 2013/11/27)

>  <Rbt.Parameter_File>
/export/apps/rDock/src/rDock_2013.1_src/data/scripts/dock_solv.prm

>  <Rbt.Receptor>
prm/pocket_docking_8.prm

>  <SCORE>
-26.3768

>  <SCORE.INTER>
-20.8182

>  <SCORE.INTER.CONST>
1

>  <SCORE.INTER.POLAR>
0

>  <SCORE.INTER.ROT>
7

>  <SCORE.INTER.SOLV>
11.6513

>  <SCORE.INTER.VDW>
-26.0293

>  <SCORE.INTER.norm>
-0.671556

>  <SCORE.INTRA>
-5.55857

>  <SCORE.INTRA.DIHEDRAL>
-7.76825

>  <SCORE.INTRA.DIHEDRAL.0>
10.0718

>  <SCORE.INTRA.POLAR>
0

>  <SCORE.INTRA.POLAR.0>
0

>  <SCORE.INTRA.REPUL>
0

>  <SCORE.INTRA.REPUL.0>
0

>  <SCORE.INTRA.SOLV>
-1.01883

>  <SCORE.INTRA.SOLV.lig_0>
-48.6963

>  <SCORE.INTRA.VDW>
-1.16503

>  <SCORE.INTRA.VDW.0>
-0.836976

>  <SCORE.INTRA.norm>
-0.179309

>  <SCORE.RESTR>
0

>  <SCORE.RESTR.CAVITY>
0

>  <SCORE.RESTR.norm>
0

>  <SCORE.SYSTEM>
0

>  <SCORE.SYSTEM.CONST>
0

>  <SCORE.SYSTEM.DIHEDRAL>
0

>  <SCORE.SYSTEM.SOLV>
0

>  <SCORE.SYSTEM.norm>
0

>  <SCORE.heavy>
31

>  <SCORE.norm>
-0.850865

>  <RMSD>
7.190

$$$$
ligand
 OpenBabel11021811473D
libRbt.so/2013.1/901 2013/11/27
 31 33  0  0  0  0  0  0  0  0999 V2000
   25.8423   33.5173   15.6224 P   0  0  1  0  0  0  0  0  0  0  0  0
   26.4361   32.1298   15.7397 O   0  0  0  0  0  0  0  0  0  0  0  0
   26.3808   34.1466   14.3658 O   0  5  0  0  0  0  0  0  0  0  0  0
   24.3427   33.4354   15.5415 O   0  0  0  0  0  0  0  0  0  0  0  0
   25.9400   33.8150   18.2077 C   0  0  0  0  0  0  0  0  0  0  0  0
   26.1944   34.3612   16.9364 O   0  0  0  0  0  0  0  0  0  0  0  0
   26.3726   34.8111   19.2735 C   0  0  1  0  0  0  0  0  0  0  0  0
   25.5436   35.9508   19.1886 O   0  0  0  0  0  0  0  0  0  0  0  0
   26.2713   34.1800   20.6621 C   0  0  1  0  0  0  0  0  0  0  0  0
   27.1338   33.0653   20.7403 O   0  0  0  0  0  0  0  0  0  0  0  0
   26.5323   35.1656   21.8096 C   0  0  1  0  0  0  0  0  0  0  0  0
   26.1559   34.5832   23.0376 O   0  0  0  0  0  0  0  0  0  0  0  0
   27.9878   35.5978   21.8883 C   0  0  0  0  0  0  0  0  0  0  0  0
   27.2929   37.9476   23.2951 N   0  0  0  0  0  0  0  0  0  0  0  0
   26.9874   39.0669   24.0423 C   0  0  0  0  0  0  0  0  0  0  0  0
   26.4949   38.9452   25.1674 O   0  0  0  0  0  0  0  0  0  0  0  0
   27.2268   40.3219   23.5199 N   0  0  0  0  0  0  0  0  0  0  0  0
   27.7694   40.4607   22.2563 C   0  0  0  0  0  0  0  0  0  0  0  0
   28.0778   39.3444   21.5071 C   0  0  1  0  0  0  0  0  0  0  0  0
   27.9961   41.5727   21.7825 O   0  0  0  0  0  0  0  0  0  0  0  0
   28.9375   38.3877   19.4971 C   0  0  2  0  0  0  0  0  0  0  0  0
   28.6239   39.5020   20.2481 N   0  0  0  0  0  0  0  0  0  0  0  0
   29.4863   38.5441   18.2265 C   0  0  0  0  0  0  0  0  0  0  0  0
   29.7991   37.4271   17.4582 C   0  0  1  0  0  0  0  0  0  0  0  0
   30.4009   37.6136   16.0928 C   0  0  0  0  0  0  0  0  0  0  0  0
   29.5627   36.1462   17.9702 C   0  0  1  0  0  0  0  0  0  0  0  0
   29.9033   34.9218   17.1718 C   0  0  0  0  0  0  0  0  0  0  0  0
   29.0148   35.9942   19.2405 C   0  0  0  0  0  0  0  0  0  0  0  0
   28.6975   37.1100   20.0115 C   0  0  2  0  0  0  0  0  0  0  0  0
   27.8405   38.0780   22.0292 C   0  0  2  0  0  0  0  0  0  0  0  0
   28.1414   36.9593   21.2762 N   0  0  0  0  0  0  0  0  0  0  0  0
  1  2  1  1  0  0  0
  1  3  1  0  0  0  0
  1  4  2  0  0  0  0
  1  6  1  0  0  0  0
  5  6  1  0  0  0  0
  7  5  1  6  0  0  0
  7  8  1  0  0  0  0
  7  9  1  0  0  0  0
  9 10  1  6  0  0  0
  9 11  1  0  0  0  0
 11 12  1  1  0  0  0
 11 13  1  0  0  0  0
 13 31  1  0  0  0  0
 14 15  1  0  0  0  0
 15 16  2  0  0  0  0
 15 17  1  0  0  0  0
 17 18  1  0  0  0  0
 18 20  2  0  0  0  0
 19 18  1  1  0  0  0
 19 22  1  0  0  0  0
 19 30  1  0  0  0  0
 21 23  1  6  0  0  0
 21 29  1  0  0  0  0
 21 22  1  0  0  0  0
 23 24  1  0  0  0  0
 24 25  1  1  0  0  0
 24 26  1  0  0  0  0
 26 27  1  1  0  0  0
 26 28  1  0  0  0  0
 29 28  1  6  0  0  0
 29 31  1  0  0  0  0
 30 14  1  6  0  0  0
 30 31  1  0  0  0  0
M  CHG  1   3  -1
M  END
>  <CHROM.1>
179.60588775,-50.46867434,65.86311862,61.53025063,168.07259792,101.03009032
-103.98804094,27.38654073,36.33262466,19.57819250,1.80162937,-0.93406856
-2.06675997

>  <Name>
ligand

>  <RI>
0

>  <Rbt.Current_Directory>
/home/itssahil/PROJECTS/Mol_Feturizer/New_Systems/rnas/3F2Q

>  <Rbt.Executable>
rbdock ($Id: //depot/dev/client3/rdock/2013.1/src/exe/rbdock.cxx#4 $)

>  <Rbt.Library>
libRbt.so (2013.1, Build901 2013/11/27)

>  <Rbt.Parameter_File>
/export/apps/rDock/src/rDock_2013.1_src/data/scripts/dock_solv.prm

>  <Rbt.Receptor>
prm/blind_docking_100.prm

>  <SCORE>
-17.2006

>  <SCORE.INTER>
-12.0769

>  <SCORE.INTER.CONST>
1

>  <SCORE.INTER.POLAR>
0

>  <SCORE.INTER.ROT>
7

>  <SCORE.INTER.SOLV>
12.0395

>  <SCORE.INTER.VDW>
-20.3311

>  <SCORE.INTER.norm>
-0.389577

>  <SCORE.INTRA>
-5.12375

>  <SCORE.INTRA.DIHEDRAL>
-3.72673

>  <SCORE.INTRA.DIHEDRAL.0>
10.0718

>  <SCORE.INTRA.POLAR>
0

>  <SCORE.INTRA.POLAR.0>
0

>  <SCORE.INTRA.REPUL>
0

>  <SCORE.INTRA.REPUL.0>
0

>  <SCORE.INTRA.SOLV>
-1.26439

>  <SCORE.INTRA.SOLV.lig_0>
-48.6963

>  <SCORE.INTRA.VDW>
-2.62819

>  <SCORE.INTRA.VDW.0>
-0.836976

>  <SCORE.INTRA.norm>
-0.165282

>  <SCORE.RESTR>
0

>  <SCORE.RESTR.CAVITY>
0

>  <SCORE.RESTR.norm>
0

>  <SCORE.SYSTEM>
0

>  <SCORE.SYSTEM.CONST>
0

>  <SCORE.SYSTEM.DIHEDRAL>
0

>  <SCORE.SYSTEM.SOLV>
0

>  <SCORE.SYSTEM.norm>
0

>  <SCORE.heavy>
31

>  <SCORE.norm>
-0.554859

>  <RMSD>
7.216

$$$$
ligand
 OpenBabel11021811473D
libRbt.so/2013.1/901 2013/11/27
 31 33  0  0  0  0  0  0  0  0999 V2000
   29.9822   33.9426   16.1533 P   0  0  1  0  0  0  0  0  0  0  0  0
   30.2214   32.7914   15.1998 O   0  0  0  0  0  0  0  0  0  0  0  0
   31.1748   34.0432   17.0659 O   0  5  0  0  0  0  0  0  0  0  0  0
   29.8248   35.2273   15.3874 O   0  0  0  0  0  0  0  0  0  0  0  0
   28.6381   33.5190   18.3432 C   0  0  0  0  0  0  0  0  0  0  0  0
   28.6139   33.7013   16.9484 O   0  0  0  0  0  0  0  0  0  0  0  0
   27.2099   33.4020   18.8551 C   0  0  1  0  0  0  0  0  0  0  0  0
   26.8376   32.0401   18.8455 O   0  0  0  0  0  0  0  0  0  0  0  0
   27.1044   33.9739   20.2688 C   0  0  1  0  0  0  0  0  0  0  0  0
   28.0525   33.3471   21.1059 O   0  0  0  0  0  0  0  0  0  0  0  0
   27.2351   35.5022   20.3288 C   0  0  1  0  0  0  0  0  0  0  0  0
   26.0073   36.1030   19.9818 O   0  0  0  0  0  0  0  0  0  0  0  0
   27.6625   35.9981   21.7009 C   0  0  0  0  0  0  0  0  0  0  0  0
   26.6848   37.2646   24.0298 N   0  0  0  0  0  0  0  0  0  0  0  0
   26.2523   37.8393   25.2076 C   0  0  0  0  0  0  0  0  0  0  0  0
   25.9168   37.1269   26.1579 O   0  0  0  0  0  0  0  0  0  0  0  0
   26.1883   39.2141   25.3123 N   0  0  0  0  0  0  0  0  0  0  0  0
   26.5546   40.0137   24.2461 C   0  0  0  0  0  0  0  0  0  0  0  0
   26.9892   39.4431   23.0679 C   0  0  1  0  0  0  0  0  0  0  0  0
   26.5109   41.2400   24.3291 O   0  0  0  0  0  0  0  0  0  0  0  0
   27.7948   39.6910   20.8354 C   0  0  2  0  0  0  0  0  0  0  0  0
   27.3557   40.2578   22.0143 N   0  0  0  0  0  0  0  0  0  0  0  0
   28.1629   40.5103   19.7710 C   0  0  0  0  0  0  0  0  0  0  0  0
   28.5998   39.9485   18.5754 C   0  0  1  0  0  0  0  0  0  0  0  0
   29.0037   40.8478   17.4398 C   0  0  0  0  0  0  0  0  0  0  0  0
   28.6706   38.5564   18.4496 C   0  0  1  0  0  0  0  0  0  0  0  0
   29.1521   37.9208   17.1780 C   0  0  0  0  0  0  0  0  0  0  0  0
   28.3025   37.7413   19.5158 C   0  0  0  0  0  0  0  0  0  0  0  0
   27.8617   38.2998   20.7132 C   0  0  2  0  0  0  0  0  0  0  0  0
   27.0574   38.0590   22.9577 C   0  0  2  0  0  0  0  0  0  0  0  0
   27.4847   37.4863   21.7751 N   0  0  0  0  0  0  0  0  0  0  0  0
  1  2  1  6  0  0  0
  1  3  1  0  0  0  0
  1  4  2  0  0  0  0
  1  6  1  0  0  0  0
  5  6  1  0  0  0  0
  7  5  1  1  0  0  0
  7  8  1  0  0  0  0
  7  9  1  0  0  0  0
  9 10  1  1  0  0  0
  9 11  1  0  0  0  0
 11 12  1  1  0  0  0
 11 13  1  0  0  0  0
 13 31  1  0  0  0  0
 14 15  1  0  0  0  0
 15 16  2  0  0  0  0
 15 17  1  0  0  0  0
 17 18  1  0  0  0  0
 18 20  2  0  0  0  0
 19 18  1  1  0  0  0
 19 22  1  0  0  0  0
 19 30  1  0  0  0  0
 21 23  1  6  0  0  0
 21 29  1  0  0  0  0
 21 22  1  0  0  0  0
 23 24  1  0  0  0  0
 24 25  1  1  0  0  0
 24 26  1  0  0  0  0
 26 27  1  1  0  0  0
 26 28  1  0  0  0  0
 29 28  1  6  0  0  0
 29 31  1  0  0  0  0
 30 14  1  6  0  0  0
 30 31  1  0  0  0  0
M  CHG  1   3  -1
M  END
>  <CHROM.1>
176.35191879,115.91724710,90.58142939,-54.46639052,80.29224676,-167.87198519
-42.92032071,27.95438419,36.68527329,20.12921339,-0.76361690,1.15336130,0.17522010

>  <Name>
ligand

>  <RI>
0

>  <Rbt.Current_Directory>
/home/itssahil/PROJECTS/Mol_Feturizer/New_Systems/rnas/3F2Q

>  <Rbt.Executable>
rbdock ($Id: //depot/dev/client3/rdock/2013.1/src/exe/rbdock.cxx#4 $)

>  <Rbt.Library>
libRbt.so (2013.1, Build901 2013/11/27)

>  <Rbt.Parameter_File>
/export/apps/rDock/src/rDock_2013.1_src/data/scripts/dock_solv.prm

>  <Rbt.Receptor>
prm/pocket_docking_7.prm

>  <SCORE>
-10.56

>  <SCORE.INTER>
-11.5646

>  <SCORE.INTER.CONST>
1

>  <SCORE.INTER.POLAR>
0

>  <SCORE.INTER.ROT>
7

>  <SCORE.INTER.SOLV>
12.3406

>  <SCORE.INTER.VDW>
-20.0899

>  <SCORE.INTER.norm>
-0.373052

>  <SCORE.INTRA>
1.00461

>  <SCORE.INTRA.DIHEDRAL>
-1.81498

>  <SCORE.INTRA.DIHEDRAL.0>
10.0718

>  <SCORE.INTRA.POLAR>
0

>  <SCORE.INTRA.POLAR.0>
0

>  <SCORE.INTRA.REPUL>
0

>  <SCORE.INTRA.REPUL.0>
0

>  <SCORE.INTRA.SOLV>
-0.0517883

>  <SCORE.INTRA.SOLV.lig_0>
-48.6963

>  <SCORE.INTRA.VDW>
1.93799

>  <SCORE.INTRA.VDW.0>
-0.836976

>  <SCORE.INTRA.norm>
0.0324067

>  <SCORE.RESTR>
0

>  <SCORE.RESTR.CAVITY>
0

>  <SCORE.RESTR.norm>
0

>  <SCORE.SYSTEM>
0

>  <SCORE.SYSTEM.CONST>
0

>  <SCORE.SYSTEM.DIHEDRAL>
0

>  <SCORE.SYSTEM.SOLV>
0

>  <SCORE.SYSTEM.norm>
0

>  <SCORE.heavy>
31

>  <SCORE.norm>
-0.340645

>  <RMSD>
7.246

$$$$
ligand
 OpenBabel11021811473D
libRbt.so/2013.1/901 2013/11/27
 31 33  0  0  0  0  0  0  0  0999 V2000
   27.7844   32.9158   15.9230 P   0  0  1  0  0  0  0  0  0  0  0  0
   28.8141   31.9123   15.4495 O   0  0  0  0  0  0  0  0  0  0  0  0
   28.0228   34.2063   15.1860 O   0  5  0  0  0  0  0  0  0  0  0  0
   26.3973   32.4159   15.6266 O   0  0  0  0  0  0  0  0  0  0  0  0
   27.0635   34.0041   18.1763 C   0  0  0  0  0  0  0  0  0  0  0  0
   27.8923   33.0820   17.5115 O   0  0  0  0  0  0  0  0  0  0  0  0
   27.3882   33.9843   19.6628 C   0  0  1  0  0  0  0  0  0  0  0  0
   28.7263   34.3995   19.8377 O   0  0  0  0  0  0  0  0  0  0  0  0
   26.4389   34.9082   20.4257 C   0  0  1  0  0  0  0  0  0  0  0  0
   25.1027   34.5802   20.1102 O   0  0  0  0  0  0  0  0  0  0  0  0
   26.6664   34.9111   21.9438 C   0  0  1  0  0  0  0  0  0  0  0  0
   26.8094   33.5879   22.4104 O   0  0  0  0  0  0  0  0  0  0  0  0
   27.8899   35.7175   22.3492 C   0  0  0  0  0  0  0  0  0  0  0  0
   26.8462   37.1801   24.5298 N   0  0  0  0  0  0  0  0  0  0  0  0
   26.3859   37.8600   25.6390 C   0  0  0  0  0  0  0  0  0  0  0  0
   26.1308   37.2473   26.6795 O   0  0  0  0  0  0  0  0  0  0  0  0
   26.2036   39.2267   25.5741 N   0  0  0  0  0  0  0  0  0  0  0  0
   26.4795   39.9136   24.4068 C   0  0  0  0  0  0  0  0  0  0  0  0
   26.9415   39.2378   23.2967 C   0  0  1  0  0  0  0  0  0  0  0  0
   26.3300   41.1324   24.3382 O   0  0  0  0  0  0  0  0  0  0  0  0
   27.6828   39.2695   21.0287 C   0  0  2  0  0  0  0  0  0  0  0  0
   27.2166   39.9412   22.1401 N   0  0  0  0  0  0  0  0  0  0  0  0
   27.9590   39.9762   19.8607 C   0  0  0  0  0  0  0  0  0  0  0  0
   28.4222   39.3072   18.7322 C   0  0  1  0  0  0  0  0  0  0  0  0
   28.7257   40.0870   17.4827 C   0  0  0  0  0  0  0  0  0  0  0  0
   28.6125   37.9214   18.7781 C   0  0  1  0  0  0  0  0  0  0  0  0
   29.1253   37.1735   17.5821 C   0  0  0  0  0  0  0  0  0  0  0  0
   28.3360   37.2190   19.9473 C   0  0  0  0  0  0  0  0  0  0  0  0
   27.8692   37.8847   21.0782 C   0  0  2  0  0  0  0  0  0  0  0  0
   27.1288   37.8616   23.3573 C   0  0  2  0  0  0  0  0  0  0  0  0
   27.5837   37.1827   22.2432 N   0  0  0  0  0  0  0  0  0  0  0  0
  1  2  1  6  0  0  0
  1  3  1  0  0  0  0
  1  4  2  0  0  0  0
  1  6  1  0  0  0  0
  5  6  1  0  0  0  0
  7  5  1  6  0  0  0
  7  8  1  0  0  0  0
  7  9  1  0  0  0  0
  9 10  1  1  0  0  0
  9 11  1  0  0  0  0
 11 12  1  6  0  0  0
 11 13  1  0  0  0  0
 13 31  1  0  0  0  0
 14 15  1  0  0  0  0
 15 16  2  0  0  0  0
 15 17  1  0  0  0  0
 17 18  1  0  0  0  0
 18 20  2  0  0  0  0
 19 18  1  1  0  0  0
 19 22  1  0  0  0  0
 19 30  1  0  0  0  0
 21 23  1  6  0  0  0
 21 29  1  0  0  0  0
 21 22  1  0  0  0  0
 23 24  1  0  0  0  0
 24 25  1  1  0  0  0
 24 26  1  0  0  0  0
 26 27  1  1  0  0  0
 26 28  1  0  0  0  0
 29 28  1  6  0  0  0
 29 31  1  0  0  0  0
 30 14  1  6  0  0  0
 30 31  1  0  0  0  0
M  CHG  1   3  -1
M  END
>  <CHROM.1>
-178.78576369,177.66366011,62.63393525,52.81344153,-45.62043571,74.88799528
-92.74295327,27.39340214,36.36848023,20.41120318,1.19816120,-1.25907443,-2.54339331

>  <Name>
ligand

>  <RI>
0

>  <Rbt.Current_Directory>
/home/itssahil/PROJECTS/Mol_Feturizer/New_Systems/rnas/3F2Q

>  <Rbt.Executable>
rbdock ($Id: //depot/dev/client3/rdock/2013.1/src/exe/rbdock.cxx#4 $)

>  <Rbt.Library>
libRbt.so (2013.1, Build901 2013/11/27)

>  <Rbt.Parameter_File>
/export/apps/rDock/src/rDock_2013.1_src/data/scripts/dock_solv.prm

>  <Rbt.Receptor>
prm/pocket_docking_7.prm

>  <SCORE>
-20.9442

>  <SCORE.INTER>
-15.3395

>  <SCORE.INTER.CONST>
1

>  <SCORE.INTER.POLAR>
0

>  <SCORE.INTER.ROT>
7

>  <SCORE.INTER.SOLV>
12.6428

>  <SCORE.INTER.VDW>
-22.7072

>  <SCORE.INTER.norm>
-0.494821

>  <SCORE.INTRA>
-5.6047

>  <SCORE.INTRA.DIHEDRAL>
-6.89221

>  <SCORE.INTRA.DIHEDRAL.0>
10.0718

>  <SCORE.INTRA.POLAR>
0

>  <SCORE.INTRA.POLAR.0>
0

>  <SCORE.INTRA.REPUL>
0

>  <SCORE.INTRA.REPUL.0>
0

>  <SCORE.INTRA.SOLV>
-0.109897

>  <SCORE.INTRA.SOLV.lig_0>
-48.6963

>  <SCORE.INTRA.VDW>
-2.10364

>  <SCORE.INTRA.VDW.0>
-0.836976

>  <SCORE.INTRA.norm>
-0.180797

>  <SCORE.RESTR>
0

>  <SCORE.RESTR.CAVITY>
0

>  <SCORE.RESTR.norm>
0

>  <SCORE.SYSTEM>
0

>  <SCORE.SYSTEM.CONST>
0

>  <SCORE.SYSTEM.DIHEDRAL>
0

>  <SCORE.SYSTEM.SOLV>
0

>  <SCORE.SYSTEM.norm>
0

>  <SCORE.heavy>
31

>  <SCORE.norm>
-0.675618

>  <RMSD>
7.255

$$$$
ligand
 OpenBabel11021811473D
libRbt.so/2013.1/901 2013/11/27
 31 33  0  0  0  0  0  0  0  0999 V2000
   26.8275   31.8583   14.0562 P   0  0  1  0  0  0  0  0  0  0  0  0
   28.3034   31.5491   14.1897 O   0  0  0  0  0  0  0  0  0  0  0  0
   26.6011   32.4555   12.6934 O   0  5  0  0  0  0  0  0  0  0  0  0
   26.0182   30.5982   14.1943 O   0  0  0  0  0  0  0  0  0  0  0  0
   26.8250   32.5952   16.5539 C   0  0  0  0  0  0  0  0  0  0  0  0
   26.3777   32.8353   15.2418 O   0  0  0  0  0  0  0  0  0  0  0  0
   26.2870   33.6840   17.4707 C   0  0  1  0  0  0  0  0  0  0  0  0
   24.9041   33.4716   17.6600 O   0  0  0  0  0  0  0  0  0  0  0  0
   27.0193   33.6580   18.8123 C   0  0  1  0  0  0  0  0  0  0  0  0
   28.4134   33.6797   18.5920 O   0  0  0  0  0  0  0  0  0  0  0  0
   26.5913   34.7768   19.7721 C   0  0  1  0  0  0  0  0  0  0  0  0
   25.2409   34.6033   20.1400 O   0  0  0  0  0  0  0  0  0  0  0  0
   27.4473   34.8283   21.0275 C   0  0  0  0  0  0  0  0  0  0  0  0
   26.5693   36.0549   23.4167 N   0  0  0  0  0  0  0  0  0  0  0  0
   26.1600   36.5919   24.6202 C   0  0  0  0  0  0  0  0  0  0  0  0
   25.4394   35.9364   25.3780 O   0  0  0  0  0  0  0  0  0  0  0  0
   26.5532   37.8690   24.9661 N   0  0  0  0  0  0  0  0  0  0  0  0
   27.3523   38.6086   24.1147 C   0  0  0  0  0  0  0  0  0  0  0  0
   27.7651   38.0746   22.9118 C   0  0  1  0  0  0  0  0  0  0  0  0
   27.7173   39.7440   24.4147 O   0  0  0  0  0  0  0  0  0  0  0  0
   28.9858   38.2942   20.8731 C   0  0  2  0  0  0  0  0  0  0  0  0
   28.5674   38.8263   22.0756 N   0  0  0  0  0  0  0  0  0  0  0  0
   29.7931   39.0510   20.0273 C   0  0  0  0  0  0  0  0  0  0  0  0
   30.2140   38.5266   18.8093 C   0  0  1  0  0  0  0  0  0  0  0  0
   31.0942   39.3531   17.9129 C   0  0  0  0  0  0  0  0  0  0  0  0
   29.8249   37.2338   18.4404 C   0  0  1  0  0  0  0  0  0  0  0  0
   30.2750   36.6347   17.1400 C   0  0  0  0  0  0  0  0  0  0  0  0
   29.0186   36.4807   19.2887 C   0  0  0  0  0  0  0  0  0  0  0  0
   28.5927   37.0032   20.5075 C   0  0  2  0  0  0  0  0  0  0  0  0
   27.3735   36.7881   22.5594 C   0  0  2  0  0  0  0  0  0  0  0  0
   27.7796   36.2555   21.3509 N   0  0  0  0  0  0  0  0  0  0  0  0
  1  2  1  1  0  0  0
  1  3  1  0  0  0  0
  1  4  2  0  0  0  0
  1  6  1  0  0  0  0
  5  6  1  0  0  0  0
  7  5  1  6  0  0  0
  7  8  1  0  0  0  0
  7  9  1  0  0  0  0
  9 10  1  6  0  0  0
  9 11  1  0  0  0  0
 11 12  1  1  0  0  0
 11 13  1  0  0  0  0
 13 31  1  0  0  0  0
 14 15  1  0  0  0  0
 15 16  2  0  0  0  0
 15 17  1  0  0  0  0
 17 18  1  0  0  0  0
 18 20  2  0  0  0  0
 19 18  1  1  0  0  0
 19 22  1  0  0  0  0
 19 30  1  0  0  0  0
 21 23  1  6  0  0  0
 21 29  1  0  0  0  0
 21 22  1  0  0  0  0
 23 24  1  0  0  0  0
 24 25  1  1  0  0  0
 24 26  1  0  0  0  0
 26 27  1  1  0  0  0
 26 28  1  0  0  0  0
 29 28  1  6  0  0  0
 29 31  1  0  0  0  0
 30 14  1  6  0  0  0
 30 31  1  0  0  0  0
M  CHG  1   3  -1
M  END
>  <CHROM.1>
178.45978365,-43.56015946,72.76962606,51.59020407,64.92708500,137.12937778
-66.39701177,27.51947909,35.45350694,19.30328920,1.66974253,-0.78570914,-2.08918656

>  <Name>
ligand

>  <RI>
0

>  <Rbt.Current_Directory>
/home/itssahil/PROJECTS/Mol_Feturizer/New_Systems/rnas/3F2Q

>  <Rbt.Executable>
rbdock ($Id: //depot/dev/client3/rdock/2013.1/src/exe/rbdock.cxx#4 $)

>  <Rbt.Library>
libRbt.so (2013.1, Build901 2013/11/27)

>  <Rbt.Parameter_File>
/export/apps/rDock/src/rDock_2013.1_src/data/scripts/dock_solv.prm

>  <Rbt.Receptor>
prm/blind_docking_100.prm

>  <SCORE>
-20.6701

>  <SCORE.INTER>
-17.3587

>  <SCORE.INTER.CONST>
1

>  <SCORE.INTER.POLAR>
0

>  <SCORE.INTER.ROT>
7

>  <SCORE.INTER.SOLV>
12.3591

>  <SCORE.INTER.VDW>
-23.9588

>  <SCORE.INTER.norm>
-0.559958

>  <SCORE.INTRA>
-3.31146

>  <SCORE.INTRA.DIHEDRAL>
-3.12016

>  <SCORE.INTRA.DIHEDRAL.0>
10.0718

>  <SCORE.INTRA.POLAR>
0

>  <SCORE.INTRA.POLAR.0>
0

>  <SCORE.INTRA.REPUL>
0

>  <SCORE.INTRA.REPUL.0>
0

>  <SCORE.INTRA.SOLV>
-1.43936

>  <SCORE.INTRA.SOLV.lig_0>
-48.6963

>  <SCORE.INTRA.VDW>
-1.0317

>  <SCORE.INTRA.VDW.0>
-0.836976

>  <SCORE.INTRA.norm>
-0.106821

>  <SCORE.RESTR>
0

>  <SCORE.RESTR.CAVITY>
0

>  <SCORE.RESTR.norm>
0

>  <SCORE.SYSTEM>
0

>  <SCORE.SYSTEM.CONST>
0

>  <SCORE.SYSTEM.DIHEDRAL>
0

>  <SCORE.SYSTEM.SOLV>
0

>  <SCORE.SYSTEM.norm>
0

>  <SCORE.heavy>
31

>  <SCORE.norm>
-0.666779

>  <RMSD>
7.298

$$$$
ligand
 OpenBabel11021811473D
libRbt.so/2013.1/901 2013/11/27
 31 33  0  0  0  0  0  0  0  0999 V2000
   28.8312   33.5086   17.6315 P   0  0  1  0  0  0  0  0  0  0  0  0
   29.3481   34.7245   18.3705 O   0  0  0  0  0  0  0  0  0  0  0  0
   28.2416   33.9754   16.3278 O   0  5  0  0  0  0  0  0  0  0  0  0
   29.9566   32.5486   17.3598 O   0  0  0  0  0  0  0  0  0  0  0  0
   26.5065   33.3085   18.7879 C   0  0  0  0  0  0  0  0  0  0  0  0
   27.7700   32.7377   18.5491 O   0  0  0  0  0  0  0  0  0  0  0  0
   26.6652   34.4941   19.7284 C   0  0  1  0  0  0  0  0  0  0  0  0
   25.5627   35.3587   19.5543 O   0  0  0  0  0  0  0  0  0  0  0  0
   26.7436   34.0149   21.1779 C   0  0  1  0  0  0  0  0  0  0  0  0
   27.9150   33.2490   21.3614 O   0  0  0  0  0  0  0  0  0  0  0  0
   26.6538   35.1482   22.2094 C   0  0  1  0  0  0  0  0  0  0  0  0
   26.4792   34.6092   23.5008 O   0  0  0  0  0  0  0  0  0  0  0  0
   27.8844   36.0411   22.2042 C   0  0  0  0  0  0  0  0  0  0  0  0
   27.0872   37.4227   24.5364 N   0  0  0  0  0  0  0  0  0  0  0  0
   26.7559   38.0667   25.7111 C   0  0  0  0  0  0  0  0  0  0  0  0
   26.7093   37.4366   26.7712 O   0  0  0  0  0  0  0  0  0  0  0  0
   26.4677   39.4165   25.6910 N   0  0  0  0  0  0  0  0  0  0  0  0
   26.5100   40.1222   24.5033 C   0  0  0  0  0  0  0  0  0  0  0  0
   26.8426   39.4825   23.3275 C   0  0  1  0  0  0  0  0  0  0  0  0
   26.2644   41.3269   24.4728 O   0  0  0  0  0  0  0  0  0  0  0  0
   27.2207   39.5691   20.9729 C   0  0  2  0  0  0  0  0  0  0  0  0
   26.8845   40.2046   22.1506 N   0  0  0  0  0  0  0  0  0  0  0  0
   27.2616   40.2947   19.7847 C   0  0  0  0  0  0  0  0  0  0  0  0
   27.5921   39.6618   18.5905 C   0  0  1  0  0  0  0  0  0  0  0  0
   27.6421   40.4622   17.3184 C   0  0  0  0  0  0  0  0  0  0  0  0
   27.8864   38.2935   18.5904 C   0  0  1  0  0  0  0  0  0  0  0  0
   28.2610   37.5856   17.3211 C   0  0  0  0  0  0  0  0  0  0  0  0
   27.8451   37.5723   19.7799 C   0  0  0  0  0  0  0  0  0  0  0  0
   27.5117   38.2016   20.9769 C   0  0  2  0  0  0  0  0  0  0  0  0
   27.1355   38.1236   23.3424 C   0  0  2  0  0  0  0  0  0  0  0  0
   27.4608   37.4801   22.1637 N   0  0  0  0  0  0  0  0  0  0  0  0
  1  2  1  1  0  0  0
  1  3  1  0  0  0  0
  1  4  2  0  0  0  0
  1  6  1  0  0  0  0
  5  6  1  0  0  0  0
  7  5  1  6  0  0  0
  7  8  1  0  0  0  0
  7  9  1  0  0  0  0
  9 10  1  6  0  0  0
  9 11  1  0  0  0  0
 11 12  1  1  0  0  0
 11 13  1  0  0  0  0
 13 31  1  0  0  0  0
 14 15  1  0  0  0  0
 15 16  2  0  0  0  0
 15 17  1  0  0  0  0
 17 18  1  0  0  0  0
 18 20  2  0  0  0  0
 19 18  1  1  0  0  0
 19 22  1  0  0  0  0
 19 30  1  0  0  0  0
 21 23  1  6  0  0  0
 21 29  1  0  0  0  0
 21 22  1  0  0  0  0
 23 24  1  0  0  0  0
 24 25  1  1  0  0  0
 24 26  1  0  0  0  0
 26 27  1  1  0  0  0
 26 28  1  0  0  0  0
 29 28  1  6  0  0  0
 29 31  1  0  0  0  0
 30 14  1  6  0  0  0
 30 31  1  0  0  0  0
M  CHG  1   3  -1
M  END
>  <CHROM.1>
-72.03715772,70.88785770,157.00950273,65.05824164,168.94804515,131.61070311
-101.86526179,27.42813611,36.65113473,20.87357475,0.41680511,-1.36155872
2.87255432

>  <Name>
ligand

>  <RI>
0

>  <Rbt.Current_Directory>
/home/itssahil/PROJECTS/Mol_Feturizer/New_Systems/rnas/3F2Q

>  <Rbt.Executable>
rbdock ($Id: //depot/dev/client3/rdock/2013.1/src/exe/rbdock.cxx#4 $)

>  <Rbt.Library>
libRbt.so (2013.1, Build901 2013/11/27)

>  <Rbt.Parameter_File>
/export/apps/rDock/src/rDock_2013.1_src/data/scripts/dock_solv.prm

>  <Rbt.Receptor>
prm/blind_docking_60.prm

>  <SCORE>
-20.6149

>  <SCORE.INTER>
-17.3957

>  <SCORE.INTER.CONST>
1

>  <SCORE.INTER.POLAR>
0

>  <SCORE.INTER.ROT>
7

>  <SCORE.INTER.SOLV>
14.8428

>  <SCORE.INTER.VDW>
-24.8114

>  <SCORE.INTER.norm>
-0.561153

>  <SCORE.INTRA>
-3.2192

>  <SCORE.INTRA.DIHEDRAL>
-0.648844

>  <SCORE.INTRA.DIHEDRAL.0>
10.0718

>  <SCORE.INTRA.POLAR>
0

>  <SCORE.INTRA.POLAR.0>
0

>  <SCORE.INTRA.REPUL>
0

>  <SCORE.INTRA.REPUL.0>
0

>  <SCORE.INTRA.SOLV>
0.716016

>  <SCORE.INTRA.SOLV.lig_0>
-48.6963

>  <SCORE.INTRA.VDW>
-3.25279

>  <SCORE.INTRA.VDW.0>
-0.836976

>  <SCORE.INTRA.norm>
-0.103845

>  <SCORE.RESTR>
0

>  <SCORE.RESTR.CAVITY>
0

>  <SCORE.RESTR.norm>
0

>  <SCORE.SYSTEM>
0

>  <SCORE.SYSTEM.CONST>
0

>  <SCORE.SYSTEM.DIHEDRAL>
0

>  <SCORE.SYSTEM.SOLV>
0

>  <SCORE.SYSTEM.norm>
0

>  <SCORE.heavy>
31

>  <SCORE.norm>
-0.664998

>  <RMSD>
7.322

$$$$
ligand
 OpenBabel11021811473D
libRbt.so/2013.1/901 2013/11/27
 31 33  0  0  0  0  0  0  0  0999 V2000
   25.4508   32.1181   18.2619 P   0  0  1  0  0  0  0  0  0  0  0  0
   26.5519   32.7984   19.0470 O   0  0  0  0  0  0  0  0  0  0  0  0
   25.0592   30.8676   19.0021 O   0  5  0  0  0  0  0  0  0  0  0  0
   24.2587   33.0275   18.1443 O   0  0  0  0  0  0  0  0  0  0  0  0
   26.3470   32.8878   15.9411 C   0  0  0  0  0  0  0  0  0  0  0  0
   25.9615   31.8215   16.7740 O   0  0  0  0  0  0  0  0  0  0  0  0
   26.6901   32.3438   14.5620 C   0  0  1  0  0  0  0  0  0  0  0  0
   25.6133   31.5507   14.1094 O   0  0  0  0  0  0  0  0  0  0  0  0
   26.9526   33.4928   13.5886 C   0  0  1  0  0  0  0  0  0  0  0  0
   25.8880   34.4177   13.6486 O   0  0  0  0  0  0  0  0  0  0  0  0
   28.3046   34.1876   13.8025 C   0  0  1  0  0  0  0  0  0  0  0  0
   28.8668   34.5376   12.5573 O   0  0  0  0  0  0  0  0  0  0  0  0
   28.1903   35.4339   14.6657 C   0  0  0  0  0  0  0  0  0  0  0  0
   30.9861   35.0985   14.4327 N   0  0  0  0  0  0  0  0  0  0  0  0
   32.3517   34.9883   14.2669 C   0  0  0  0  0  0  0  0  0  0  0  0
   32.8334   34.9035   13.1338 O   0  0  0  0  0  0  0  0  0  0  0  0
   33.1735   34.9637   15.3756 N   0  0  0  0  0  0  0  0  0  0  0  0
   32.6356   35.0489   16.6460 C   0  0  0  0  0  0  0  0  0  0  0  0
   31.2714   35.1612   16.8157 C   0  0  1  0  0  0  0  0  0  0  0  0
   33.3571   35.0373   17.6419 O   0  0  0  0  0  0  0  0  0  0  0  0
   29.3878   35.3664   18.2664 C   0  0  2  0  0  0  0  0  0  0  0  0
   30.7517   35.2500   18.0925 N   0  0  0  0  0  0  0  0  0  0  0  0
   28.8612   35.4541   19.5528 C   0  0  0  0  0  0  0  0  0  0  0  0
   27.4868   35.5642   19.7392 C   0  0  1  0  0  0  0  0  0  0  0  0
   26.9358   35.6687   21.1346 C   0  0  0  0  0  0  0  0  0  0  0  0
   26.6371   35.5897   18.6275 C   0  0  1  0  0  0  0  0  0  0  0  0
   25.1516   35.7227   18.7954 C   0  0  0  0  0  0  0  0  0  0  0  0
   27.1673   35.5025   17.3437 C   0  0  0  0  0  0  0  0  0  0  0  0
   28.5424   35.3892   17.1530 C   0  0  2  0  0  0  0  0  0  0  0  0
   30.4392   35.1883   15.7024 C   0  0  2  0  0  0  0  0  0  0  0  0
   29.0719   35.2923   15.8717 N   0  0  0  0  0  0  0  0  0  0  0  0
  1  2  1  1  0  0  0
  1  3  1  0  0  0  0
  1  4  2  0  0  0  0
  1  6  1  0  0  0  0
  5  6  1  0  0  0  0
  7  5  1  1  0  0  0
  7  8  1  0  0  0  0
  7  9  1  0  0  0  0
  9 10  1  1  0  0  0
  9 11  1  0  0  0  0
 11 12  1  6  0  0  0
 11 13  1  0  0  0  0
 13 31  1  0  0  0  0
 14 15  1  0  0  0  0
 15 16  2  0  0  0  0
 15 17  1  0  0  0  0
 17 18  1  0  0  0  0
 18 20  2  0  0  0  0
 19 18  1  6  0  0  0
 19 22  1  0  0  0  0
 19 30  1  0  0  0  0
 21 23  1  1  0  0  0
 21 29  1  0  0  0  0
 21 22  1  0  0  0  0
 23 24  1  0  0  0  0
 24 25  1  6  0  0  0
 24 26  1  0  0  0  0
 26 27  1  6  0  0  0
 26 28  1  0  0  0  0
 29 28  1  1  0  0  0
 29 31  1  0  0  0  0
 30 14  1  1  0  0  0
 30 31  1  0  0  0  0
M  CHG  1   3  -1
M  END
>  <CHROM.1>
-175.94117944,-60.83820122,52.14461453,-50.69928402,142.20981563,121.77399306
-122.74995059,28.22884413,34.18415686,16.57615711,2.80703296,0.40308361,1.35057671

>  <Name>
ligand

>  <RI>
0

>  <Rbt.Current_Directory>
/home/itssahil/PROJECTS/Mol_Feturizer/New_Systems/rnas/3F2Q

>  <Rbt.Executable>
rbdock ($Id: //depot/dev/client3/rdock/2013.1/src/exe/rbdock.cxx#4 $)

>  <Rbt.Library>
libRbt.so (2013.1, Build901 2013/11/27)

>  <Rbt.Parameter_File>
/export/apps/rDock/src/rDock_2013.1_src/data/scripts/dock_solv.prm

>  <Rbt.Receptor>
prm/blind_docking_60.prm

>  <SCORE>
-6.92604

>  <SCORE.INTER>
-5.72346

>  <SCORE.INTER.CONST>
1

>  <SCORE.INTER.POLAR>
0

>  <SCORE.INTER.ROT>
7

>  <SCORE.INTER.SOLV>
17.5142

>  <SCORE.INTER.VDW>
-17.9204

>  <SCORE.INTER.norm>
-0.184628

>  <SCORE.INTRA>
-1.20442

>  <SCORE.INTRA.DIHEDRAL>
0.877018

>  <SCORE.INTRA.DIHEDRAL.0>
10.0718

>  <SCORE.INTRA.POLAR>
0

>  <SCORE.INTRA.POLAR.0>
0

>  <SCORE.INTRA.REPUL>
0

>  <SCORE.INTRA.REPUL.0>
0

>  <SCORE.INTRA.SOLV>
0.239306

>  <SCORE.INTRA.SOLV.lig_0>
-48.6963

>  <SCORE.INTRA.VDW>
-1.76258

>  <SCORE.INTRA.VDW.0>
-0.836976

>  <SCORE.INTRA.norm>
-0.0388523

>  <SCORE.RESTR>
0.00184247

>  <SCORE.RESTR.CAVITY>
0.00184247

>  <SCORE.RESTR.norm>
5.94347e-05

>  <SCORE.SYSTEM>
0

>  <SCORE.SYSTEM.CONST>
0

>  <SCORE.SYSTEM.DIHEDRAL>
0

>  <SCORE.SYSTEM.SOLV>
0

>  <SCORE.SYSTEM.norm>
0

>  <SCORE.heavy>
31

>  <SCORE.norm>
-0.223421

>  <RMSD>
7.374

$$$$
ligand
 OpenBabel11021811473D
libRbt.so/2013.1/901 2013/11/27
 31 33  0  0  0  0  0  0  0  0999 V2000
   27.5327   33.0627   16.5043 P   0  0  1  0  0  0  0  0  0  0  0  0
   26.3428   32.1270   16.4930 O   0  0  0  0  0  0  0  0  0  0  0  0
   28.7806   32.2240   16.5688 O   0  5  0  0  0  0  0  0  0  0  0  0
   27.5503   33.8956   15.2521 O   0  0  0  0  0  0  0  0  0  0  0  0
   27.1572   33.5758   19.0296 C   0  0  0  0  0  0  0  0  0  0  0  0
   27.4037   34.0751   17.7376 O   0  0  0  0  0  0  0  0  0  0  0  0
   27.1078   34.7372   20.0115 C   0  0  1  0  0  0  0  0  0  0  0  0
   26.1265   35.6542   19.5763 O   0  0  0  0  0  0  0  0  0  0  0  0
   26.7796   34.2311   21.4161 C   0  0  1  0  0  0  0  0  0  0  0  0
   27.7872   33.3414   21.8470 O   0  0  0  0  0  0  0  0  0  0  0  0
   26.5537   35.3522   22.4400 C   0  0  1  0  0  0  0  0  0  0  0  0
   26.1416   34.8019   23.6714 O   0  0  0  0  0  0  0  0  0  0  0  0
   27.7971   36.1982   22.6633 C   0  0  0  0  0  0  0  0  0  0  0  0
   26.7270   37.5707   24.8892 N   0  0  0  0  0  0  0  0  0  0  0  0
   26.2555   38.2076   26.0191 C   0  0  0  0  0  0  0  0  0  0  0  0
   26.0373   37.5625   27.0483 O   0  0  0  0  0  0  0  0  0  0  0  0
   26.0207   39.5674   25.9876 N   0  0  0  0  0  0  0  0  0  0  0  0
   26.2553   40.2903   24.8331 C   0  0  0  0  0  0  0  0  0  0  0  0
   26.7283   39.6577   23.7024 C   0  0  1  0  0  0  0  0  0  0  0  0
   26.0589   41.5037   24.7942 O   0  0  0  0  0  0  0  0  0  0  0  0
   27.4386   39.7684   21.4269 C   0  0  2  0  0  0  0  0  0  0  0  0
   26.9616   40.3968   22.5590 N   0  0  0  0  0  0  0  0  0  0  0  0
   27.6726   40.5111   20.2722 C   0  0  0  0  0  0  0  0  0  0  0  0
   28.1463   39.8857   19.1231 C   0  0  1  0  0  0  0  0  0  0  0  0
   28.4039   40.7044   17.8882 C   0  0  0  0  0  0  0  0  0  0  0  0
   28.3895   38.5075   19.1351 C   0  0  1  0  0  0  0  0  0  0  0  0
   28.9148   37.8068   17.9162 C   0  0  0  0  0  0  0  0  0  0  0  0
   28.1549   37.7690   20.2911 C   0  0  0  0  0  0  0  0  0  0  0  0
   27.6779   38.3909   21.4425 C   0  0  2  0  0  0  0  0  0  0  0  0
   26.9683   38.2886   23.7292 C   0  0  2  0  0  0  0  0  0  0  0  0
   27.4342   37.6526   22.5945 N   0  0  0  0  0  0  0  0  0  0  0  0
  1  2  1  6  0  0  0
  1  3  1  0  0  0  0
  1  4  2  0  0  0  0
  1  6  1  0  0  0  0
  5  6  1  0  0  0  0
  7  5  1  6  0  0  0
  7  8  1  0  0  0  0
  7  9  1  0  0  0  0
  9 10  1  1  0  0  0
  9 11  1  0  0  0  0
 11 12  1  1  0  0  0
 11 13  1  0  0  0  0
 13 31  1  0  0  0  0
 14 15  1  0  0  0  0
 15 16  2  0  0  0  0
 15 17  1  0  0  0  0
 17 18  1  0  0  0  0
 18 20  2  0  0  0  0
 19 18  1  1  0  0  0
 19 22  1  0  0  0  0
 19 30  1  0  0  0  0
 21 23  1  6  0  0  0
 21 29  1  0  0  0  0
 21 22  1  0  0  0  0
 23 24  1  0  0  0  0
 24 25  1  1  0  0  0
 24 26  1  0  0  0  0
 26 27  1  1  0  0  0
 26 28  1  0  0  0  0
 29 28  1  6  0  0  0
 29 31  1  0  0  0  0
 30 14  1  6  0  0  0
 30 31  1  0  0  0  0
M  CHG  1   3  -1
M  END
>  <CHROM.1>
178.90441322,50.89121711,56.33355190,61.32281482,174.80220550,132.18856706
-100.40403428,27.20624125,36.71186887,20.92576884,1.12825341,-1.32471347
-2.65824961

>  <Name>
ligand

>  <RI>
0

>  <Rbt.Current_Directory>
/home/itssahil/PROJECTS/Mol_Feturizer/New_Systems/rnas/3F2Q

>  <Rbt.Executable>
rbdock ($Id: //depot/dev/client3/rdock/2013.1/src/exe/rbdock.cxx#4 $)

>  <Rbt.Library>
libRbt.so (2013.1, Build901 2013/11/27)

>  <Rbt.Parameter_File>
/export/apps/rDock/src/rDock_2013.1_src/data/scripts/dock_solv.prm

>  <Rbt.Receptor>
prm/pocket_docking_6.prm

>  <SCORE>
-22.6476

>  <SCORE.INTER>
-17.9311

>  <SCORE.INTER.CONST>
1

>  <SCORE.INTER.POLAR>
0

>  <SCORE.INTER.ROT>
7

>  <SCORE.INTER.SOLV>
14.0465

>  <SCORE.INTER.VDW>
-24.9029

>  <SCORE.INTER.norm>
-0.578424

>  <SCORE.INTRA>
-4.71646

>  <SCORE.INTRA.DIHEDRAL>
-3.49885

>  <SCORE.INTRA.DIHEDRAL.0>
10.0718

>  <SCORE.INTRA.POLAR>
0

>  <SCORE.INTRA.POLAR.0>
0

>  <SCORE.INTRA.REPUL>
0

>  <SCORE.INTRA.REPUL.0>
0

>  <SCORE.INTRA.SOLV>
-1.4523

>  <SCORE.INTRA.SOLV.lig_0>
-48.6963

>  <SCORE.INTRA.VDW>
-2.24089

>  <SCORE.INTRA.VDW.0>
-0.836976

>  <SCORE.INTRA.norm>
-0.152144

>  <SCORE.RESTR>
0

>  <SCORE.RESTR.CAVITY>
0

>  <SCORE.RESTR.norm>
0

>  <SCORE.SYSTEM>
0

>  <SCORE.SYSTEM.CONST>
0

>  <SCORE.SYSTEM.DIHEDRAL>
0

>  <SCORE.SYSTEM.SOLV>
0

>  <SCORE.SYSTEM.norm>
0

>  <SCORE.heavy>
31

>  <SCORE.norm>
-0.730568

>  <RMSD>
7.388

$$$$
ligand
 OpenBabel11021811473D
libRbt.so/2013.1/901 2013/11/27
 31 33  0  0  0  0  0  0  0  0999 V2000
   28.6205   33.7224   17.6190 P   0  0  1  0  0  0  0  0  0  0  0  0
   29.2651   34.7394   18.5364 O   0  0  0  0  0  0  0  0  0  0  0  0
   28.5389   34.3264   16.2429 O   0  5  0  0  0  0  0  0  0  0  0  0
   29.4493   32.4683   17.5698 O   0  0  0  0  0  0  0  0  0  0  0  0
   27.0353   33.0603   19.5761 C   0  0  0  0  0  0  0  0  0  0  0  0
   27.1863   33.3127   18.2003 O   0  0  0  0  0  0  0  0  0  0  0  0
   27.1029   34.3777   20.3346 C   0  0  1  0  0  0  0  0  0  0  0  0
   26.1757   35.2756   19.7625 O   0  0  0  0  0  0  0  0  0  0  0  0
   26.7871   34.1553   21.8137 C   0  0  1  0  0  0  0  0  0  0  0  0
   27.7834   33.3409   22.3939 O   0  0  0  0  0  0  0  0  0  0  0  0
   26.6003   35.4554   22.6082 C   0  0  1  0  0  0  0  0  0  0  0  0
   26.2218   35.1577   23.9337 O   0  0  0  0  0  0  0  0  0  0  0  0
   27.8559   36.3124   22.6289 C   0  0  0  0  0  0  0  0  0  0  0  0
   26.7720   37.6218   24.8859 N   0  0  0  0  0  0  0  0  0  0  0  0
   26.2944   38.2276   26.0302 C   0  0  0  0  0  0  0  0  0  0  0  0
   26.0860   37.5572   27.0453 O   0  0  0  0  0  0  0  0  0  0  0  0
   26.0422   39.5846   26.0291 N   0  0  0  0  0  0  0  0  0  0  0  0
   26.2658   40.3357   24.8906 C   0  0  0  0  0  0  0  0  0  0  0  0
   26.7450   39.7343   23.7455 C   0  0  1  0  0  0  0  0  0  0  0  0
   26.0539   41.5471   24.8787 O   0  0  0  0  0  0  0  0  0  0  0  0
   27.4502   39.9042   21.4721 C   0  0  2  0  0  0  0  0  0  0  0  0
   26.9670   40.5014   22.6183 N   0  0  0  0  0  0  0  0  0  0  0  0
   27.6729   40.6751   20.3337 C   0  0  0  0  0  0  0  0  0  0  0  0
   28.1527   40.0813   19.1705 C   0  0  1  0  0  0  0  0  0  0  0  0
   28.3979   40.9302   17.9537 C   0  0  0  0  0  0  0  0  0  0  0  0
   28.4134   38.7064   19.1517 C   0  0  1  0  0  0  0  0  0  0  0  0
   28.9456   38.0394   17.9170 C   0  0  0  0  0  0  0  0  0  0  0  0
   28.1901   37.9396   20.2915 C   0  0  0  0  0  0  0  0  0  0  0  0
   27.7070   38.5299   21.4570 C   0  0  2  0  0  0  0  0  0  0  0  0
   27.0024   38.3682   23.7418 C   0  0  2  0  0  0  0  0  0  0  0  0
   27.4745   37.7633   22.5927 N   0  0  0  0  0  0  0  0  0  0  0  0
  1  2  1  1  0  0  0
  1  3  1  0  0  0  0
  1  4  2  0  0  0  0
  1  6  1  0  0  0  0
  5  6  1  0  0  0  0
  7  5  1  6  0  0  0
  7  8  1  0  0  0  0
  7  9  1  0  0  0  0
  9 10  1  1  0  0  0
  9 11  1  0  0  0  0
 11 12  1  1  0  0  0
 11 13  1  0  0  0  0
 13 31  1  0  0  0  0
 14 15  1  0  0  0  0
 15 16  2  0  0  0  0
 15 17  1  0  0  0  0
 17 18  1  0  0  0  0
 18 20  2  0  0  0  0
 19 18  1  1  0  0  0
 19 22  1  0  0  0  0
 19 30  1  0  0  0  0
 21 23  1  6  0  0  0
 21 29  1  0  0  0  0
 21 22  1  0  0  0  0
 23 24  1  0  0  0  0
 24 25  1  1  0  0  0
 24 26  1  0  0  0  0
 26 27  1  1  0  0  0
 26 28  1  0  0  0  0
 29 28  1  6  0  0  0
 29 31  1  0  0  0  0
 30 14  1  6  0  0  0
 30 31  1  0  0  0  0
M  CHG  1   3  -1
M  END
>  <CHROM.1>
72.74924218,-43.62303188,52.55175874,64.53316287,175.91008461,144.54629599
-109.24047437,27.45247146,36.88297017,21.25710909,0.77654975,-1.27359644
-3.02560303

>  <Name>
ligand

>  <RI>
0

>  <Rbt.Current_Directory>
/home/itssahil/PROJECTS/Mol_Feturizer/New_Systems/rnas/3F2Q

>  <Rbt.Executable>
rbdock ($Id: //depot/dev/client3/rdock/2013.1/src/exe/rbdock.cxx#4 $)

>  <Rbt.Library>
libRbt.so (2013.1, Build901 2013/11/27)

>  <Rbt.Parameter_File>
/export/apps/rDock/src/rDock_2013.1_src/data/scripts/dock_solv.prm

>  <Rbt.Receptor>
prm/pocket_docking_6.prm

>  <SCORE>
-22.5497

>  <SCORE.INTER>
-18.8483

>  <SCORE.INTER.CONST>
1

>  <SCORE.INTER.POLAR>
0

>  <SCORE.INTER.ROT>
7

>  <SCORE.INTER.SOLV>
15.7866

>  <SCORE.INTER.VDW>
-26.0944

>  <SCORE.INTER.norm>
-0.60801

>  <SCORE.INTRA>
-3.70138

>  <SCORE.INTRA.DIHEDRAL>
-3.70237

>  <SCORE.INTRA.DIHEDRAL.0>
10.0718

>  <SCORE.INTRA.POLAR>
0

>  <SCORE.INTRA.POLAR.0>
0

>  <SCORE.INTRA.REPUL>
0

>  <SCORE.INTRA.REPUL.0>
0

>  <SCORE.INTRA.SOLV>
0.264897

>  <SCORE.INTRA.SOLV.lig_0>
-48.6963

>  <SCORE.INTRA.VDW>
-1.98264

>  <SCORE.INTRA.VDW.0>
-0.836976

>  <SCORE.INTRA.norm>
-0.119399

>  <SCORE.RESTR>
0

>  <SCORE.RESTR.CAVITY>
0

>  <SCORE.RESTR.norm>
0

>  <SCORE.SYSTEM>
0

>  <SCORE.SYSTEM.CONST>
0

>  <SCORE.SYSTEM.DIHEDRAL>
0

>  <SCORE.SYSTEM.SOLV>
0

>  <SCORE.SYSTEM.norm>
0

>  <SCORE.heavy>
31

>  <SCORE.norm>
-0.72741

>  <RMSD>
7.409

$$$$
ligand
 OpenBabel11021811473D
libRbt.so/2013.1/901 2013/11/27
 31 33  0  0  0  0  0  0  0  0999 V2000
   27.9781   33.8637   18.0493 P   0  0  1  0  0  0  0  0  0  0  0  0
   27.3353   34.9939   17.2739 O   0  0  0  0  0  0  0  0  0  0  0  0
   27.3484   32.5743   17.5955 O   0  5  0  0  0  0  0  0  0  0  0  0
   29.4570   33.8239   17.7793 O   0  0  0  0  0  0  0  0  0  0  0  0
   26.5059   34.1357   20.1801 C   0  0  0  0  0  0  0  0  0  0  0  0
   27.7958   34.1221   19.6186 O   0  0  0  0  0  0  0  0  0  0  0  0
   26.5878   34.6679   21.6033 C   0  0  1  0  0  0  0  0  0  0  0  0
   27.3180   33.7484   22.3873 O   0  0  0  0  0  0  0  0  0  0  0  0
   27.2649   36.0383   21.6193 C   0  0  1  0  0  0  0  0  0  0  0  0
   26.8122   36.8037   20.5231 O   0  0  0  0  0  0  0  0  0  0  0  0
   27.0869   36.8004   22.9399 C   0  0  1  0  0  0  0  0  0  0  0  0
   27.3618   35.9463   24.0279 O   0  0  0  0  0  0  0  0  0  0  0  0
   27.9805   38.0271   23.0311 C   0  0  0  0  0  0  0  0  0  0  0  0
   26.5225   38.9104   25.2844 N   0  0  0  0  0  0  0  0  0  0  0  0
   25.8704   39.3274   26.4269 C   0  0  0  0  0  0  0  0  0  0  0  0
   25.8979   38.6307   27.4452 O   0  0  0  0  0  0  0  0  0  0  0  0
   25.1800   40.5226   26.4204 N   0  0  0  0  0  0  0  0  0  0  0  0
   25.1399   41.3000   25.2782 C   0  0  0  0  0  0  0  0  0  0  0  0
   25.7920   40.8875   24.1349 C   0  0  1  0  0  0  0  0  0  0  0  0
   24.5361   42.3712   25.2614 O   0  0  0  0  0  0  0  0  0  0  0  0
   26.3995   41.2722   21.8594 C   0  0  2  0  0  0  0  0  0  0  0  0
   25.7451   41.6794   23.0040 N   0  0  0  0  0  0  0  0  0  0  0  0
   26.3520   42.0680   20.7173 C   0  0  0  0  0  0  0  0  0  0  0  0
   27.0021   41.6628   19.5559 C   0  0  1  0  0  0  0  0  0  0  0  0
   26.9497   42.5391   18.3349 C   0  0  0  0  0  0  0  0  0  0  0  0
   27.7065   40.4535   19.5426 C   0  0  1  0  0  0  0  0  0  0  0  0
   28.4304   39.9965   18.3098 C   0  0  0  0  0  0  0  0  0  0  0  0
   27.7521   39.6616   20.6860 C   0  0  0  0  0  0  0  0  0  0  0  0
   27.1001   40.0623   21.8498 C   0  0  2  0  0  0  0  0  0  0  0  0
   26.4904   39.6855   24.1366 C   0  0  2  0  0  0  0  0  0  0  0  0
   27.1370   39.2674   22.9893 N   0  0  0  0  0  0  0  0  0  0  0  0
  1  2  1  6  0  0  0
  1  3  1  0  0  0  0
  1  4  2  0  0  0  0
  1  6  1  0  0  0  0
  5  6  1  0  0  0  0
  7  5  1  6  0  0  0
  7  8  1  0  0  0  0
  7  9  1  0  0  0  0
  9 10  1  6  0  0  0
  9 11  1  0  0  0  0
 11 12  1  1  0  0  0
 11 13  1  0  0  0  0
 13 31  1  0  0  0  0
 14 15  1  0  0  0  0
 15 16  2  0  0  0  0
 15 17  1  0  0  0  0
 17 18  1  0  0  0  0
 18 20  2  0  0  0  0
 19 18  1  1  0  0  0
 19 22  1  0  0  0  0
 19 30  1  0  0  0  0
 21 23  1  6  0  0  0
 21 29  1  0  0  0  0
 21 22  1  0  0  0  0
 23 24  1  0  0  0  0
 24 25  1  1  0  0  0
 24 26  1  0  0  0  0
 26 27  1  1  0  0  0
 26 28  1  0  0  0  0
 29 28  1  6  0  0  0
 29 31  1  0  0  0  0
 30 14  1  6  0  0  0
 30 31  1  0  0  0  0
M  CHG  1   3  -1
M  END
>  <CHROM.1>
-168.87771695,64.05966492,-66.05203319,40.60632089,47.12045399,111.79228195
-106.17885780,26.93364439,37.91579089,21.65831341,-0.41507881,1.33370941
-0.42630287

>  <Name>
ligand

>  <RI>
0

>  <Rbt.Current_Directory>
/home/itssahil/PROJECTS/Mol_Feturizer/New_Systems/rnas/3F2Q

>  <Rbt.Executable>
rbdock ($Id: //depot/dev/client3/rdock/2013.1/src/exe/rbdock.cxx#4 $)

>  <Rbt.Library>
libRbt.so (2013.1, Build901 2013/11/27)

>  <Rbt.Parameter_File>
/export/apps/rDock/src/rDock_2013.1_src/data/scripts/dock_solv.prm

>  <Rbt.Receptor>
prm/pocket_docking_7.prm

>  <SCORE>
-19.0903

>  <SCORE.INTER>
-17.0817

>  <SCORE.INTER.CONST>
1

>  <SCORE.INTER.POLAR>
0

>  <SCORE.INTER.ROT>
7

>  <SCORE.INTER.SOLV>
15.4806

>  <SCORE.INTER.VDW>
-24.8147

>  <SCORE.INTER.norm>
-0.551024

>  <SCORE.INTRA>
-2.00855

>  <SCORE.INTRA.DIHEDRAL>
-0.988479

>  <SCORE.INTRA.DIHEDRAL.0>
10.0718

>  <SCORE.INTRA.POLAR>
0

>  <SCORE.INTRA.POLAR.0>
0

>  <SCORE.INTRA.REPUL>
0

>  <SCORE.INTRA.REPUL.0>
0

>  <SCORE.INTRA.SOLV>
-0.720752

>  <SCORE.INTRA.SOLV.lig_0>
-48.6963

>  <SCORE.INTRA.VDW>
-1.15393

>  <SCORE.INTRA.VDW.0>
-0.836976

>  <SCORE.INTRA.norm>
-0.0647919

>  <SCORE.RESTR>
0

>  <SCORE.RESTR.CAVITY>
0

>  <SCORE.RESTR.norm>
0

>  <SCORE.SYSTEM>
0

>  <SCORE.SYSTEM.CONST>
0

>  <SCORE.SYSTEM.DIHEDRAL>
0

>  <SCORE.SYSTEM.SOLV>
0

>  <SCORE.SYSTEM.norm>
0

>  <SCORE.heavy>
31

>  <SCORE.norm>
-0.615816

>  <RMSD>
7.720

$$$$
ligand
 OpenBabel11021811473D
libRbt.so/2013.1/901 2013/11/27
 31 33  0  0  0  0  0  0  0  0999 V2000
   28.3109   35.3798   15.4315 P   0  0  1  0  0  0  0  0  0  0  0  0
   28.0380   33.9363   15.7967 O   0  0  0  0  0  0  0  0  0  0  0  0
   29.5541   35.4158   14.5841 O   0  5  0  0  0  0  0  0  0  0  0  0
   27.1550   35.9463   14.6537 O   0  0  0  0  0  0  0  0  0  0  0  0
   29.0840   37.5053   16.7223 C   0  0  0  0  0  0  0  0  0  0  0  0
   28.4477   36.2514   16.7673 O   0  0  0  0  0  0  0  0  0  0  0  0
   28.9278   38.1919   18.0712 C   0  0  1  0  0  0  0  0  0  0  0  0
   29.8277   37.6013   18.9848 O   0  0  0  0  0  0  0  0  0  0  0  0
   29.2067   39.6892   17.9400 C   0  0  1  0  0  0  0  0  0  0  0  0
   30.5568   39.8903   17.5805 O   0  0  0  0  0  0  0  0  0  0  0  0
   28.2605   40.4117   16.9710 C   0  0  1  0  0  0  0  0  0  0  0  0
   27.0107   39.7589   16.9441 O   0  0  0  0  0  0  0  0  0  0  0  0
   28.0521   41.8722   17.3386 C   0  0  0  0  0  0  0  0  0  0  0  0
   27.9392   40.8294   19.9622 N   0  0  0  0  0  0  0  0  0  0  0  0
   27.9524   40.3477   21.2554 C   0  0  0  0  0  0  0  0  0  0  0  0
   28.9303   39.7216   21.6734 O   0  0  0  0  0  0  0  0  0  0  0  0
   26.8620   40.5620   22.0741 N   0  0  0  0  0  0  0  0  0  0  0  0
   25.7616   41.2547   21.6051 C   0  0  0  0  0  0  0  0  0  0  0  0
   25.7455   41.7393   20.3138 C   0  0  1  0  0  0  0  0  0  0  0  0
   24.7873   41.4605   22.3268 O   0  0  0  0  0  0  0  0  0  0  0  0
   24.6209   42.9233   18.5737 C   0  0  2  0  0  0  0  0  0  0  0  0
   24.6393   42.4334   19.8635 N   0  0  0  0  0  0  0  0  0  0  0  0
   23.5059   43.6217   18.1167 C   0  0  0  0  0  0  0  0  0  0  0  0
   23.4742   44.1131   16.8154 C   0  0  1  0  0  0  0  0  0  0  0  0
   22.2669   44.8743   16.3415 C   0  0  0  0  0  0  0  0  0  0  0  0
   24.5698   43.9050   15.9698 C   0  0  1  0  0  0  0  0  0  0  0  0
   24.5719   44.4358   14.5659 C   0  0  0  0  0  0  0  0  0  0  0  0
   25.6823   43.2072   16.4305 C   0  0  0  0  0  0  0  0  0  0  0  0
   25.7166   42.7110   17.7315 C   0  0  2  0  0  0  0  0  0  0  0  0
   26.8418   41.5279   19.4856 C   0  0  2  0  0  0  0  0  0  0  0  0
   26.8232   42.0057   18.1893 N   0  0  0  0  0  0  0  0  0  0  0  0
  1  2  1  1  0  0  0
  1  3  1  0  0  0  0
  1  4  2  0  0  0  0
  1  6  1  0  0  0  0
  5  6  1  0  0  0  0
  7  5  1  6  0  0  0
  7  8  1  0  0  0  0
  7  9  1  0  0  0  0
  9 10  1  6  0  0  0
  9 11  1  0  0  0  0
 11 12  1  1  0  0  0
 11 13  1  0  0  0  0
 13 31  1  0  0  0  0
 14 15  1  0  0  0  0
 15 16  2  0  0  0  0
 15 17  1  0  0  0  0
 17 18  1  0  0  0  0
 18 20  2  0  0  0  0
 19 18  1  1  0  0  0
 19 22  1  0  0  0  0
 19 30  1  0  0  0  0
 21 23  1  6  0  0  0
 21 29  1  0  0  0  0
 21 22  1  0  0  0  0
 23 24  1  0  0  0  0
 24 25  1  1  0  0  0
 24 26  1  0  0  0  0
 26 27  1  1  0  0  0
 26 28  1  0  0  0  0
 29 28  1  6  0  0  0
 29 31  1  0  0  0  0
 30 14  1  6  0  0  0
 30 31  1  0  0  0  0
M  CHG  1   3  -1
M  END
>  <CHROM.1>
173.06851636,160.99840255,76.44807121,-64.78410730,29.30130747,-93.97183640
-115.28317706,27.02238920,40.07091905,17.88701933,0.58810006,0.95019434,-1.96581497

>  <Name>
ligand

>  <RI>
0

>  <Rbt.Current_Directory>
/home/itssahil/PROJECTS/Mol_Feturizer/New_Systems/rnas/3F2Q

>  <Rbt.Executable>
rbdock ($Id: //depot/dev/client3/rdock/2013.1/src/exe/rbdock.cxx#4 $)

>  <Rbt.Library>
libRbt.so (2013.1, Build901 2013/11/27)

>  <Rbt.Parameter_File>
/export/apps/rDock/src/rDock_2013.1_src/data/scripts/dock_solv.prm

>  <Rbt.Receptor>
prm/blind_docking_80.prm

>  <SCORE>
-12.3722

>  <SCORE.INTER>
-11.2603

>  <SCORE.INTER.CONST>
1

>  <SCORE.INTER.POLAR>
0

>  <SCORE.INTER.ROT>
7

>  <SCORE.INTER.SOLV>
14.3698

>  <SCORE.INTER.VDW>
-20.5635

>  <SCORE.INTER.norm>
-0.363236

>  <SCORE.INTRA>
-1.13663

>  <SCORE.INTRA.DIHEDRAL>
-0.895514

>  <SCORE.INTRA.DIHEDRAL.0>
10.0718

>  <SCORE.INTRA.POLAR>
0

>  <SCORE.INTRA.POLAR.0>
0

>  <SCORE.INTRA.REPUL>
0

>  <SCORE.INTRA.REPUL.0>
0

>  <SCORE.INTRA.SOLV>
-0.410631

>  <SCORE.INTRA.SOLV.lig_0>
-48.6963

>  <SCORE.INTRA.VDW>
-0.483559

>  <SCORE.INTRA.VDW.0>
-0.836976

>  <SCORE.INTRA.norm>
-0.0366655

>  <SCORE.RESTR>
0.0247294

>  <SCORE.RESTR.CAVITY>
0.0247294

>  <SCORE.RESTR.norm>
0.000797723

>  <SCORE.SYSTEM>
0

>  <SCORE.SYSTEM.CONST>
0

>  <SCORE.SYSTEM.DIHEDRAL>
0

>  <SCORE.SYSTEM.SOLV>
0

>  <SCORE.SYSTEM.norm>
0

>  <SCORE.heavy>
31

>  <SCORE.norm>
-0.399104

>  <RMSD>
7.759

$$$$
ligand
 OpenBabel11021811473D
libRbt.so/2013.1/901 2013/11/27
 31 33  0  0  0  0  0  0  0  0999 V2000
   27.1862   37.1808   25.3412 P   0  0  1  0  0  0  0  0  0  0  0  0
   25.8505   36.7434   25.9036 O   0  0  0  0  0  0  0  0  0  0  0  0
   27.0797   38.6366   24.9746 O   0  5  0  0  0  0  0  0  0  0  0  0
   28.2678   36.9988   26.3702 O   0  0  0  0  0  0  0  0  0  0  0  0
   26.8582   36.3820   22.8844 C   0  0  0  0  0  0  0  0  0  0  0  0
   27.5682   36.2550   24.0923 O   0  0  0  0  0  0  0  0  0  0  0  0
   27.4518   35.4311   21.8554 C   0  0  1  0  0  0  0  0  0  0  0  0
   27.1320   34.1072   22.2274 O   0  0  0  0  0  0  0  0  0  0  0  0
   26.8996   35.7424   20.4644 C   0  0  1  0  0  0  0  0  0  0  0  0
   27.2442   37.0624   20.1020 O   0  0  0  0  0  0  0  0  0  0  0  0
   27.3355   34.7392   19.3874 C   0  0  1  0  0  0  0  0  0  0  0  0
   28.7086   34.4501   19.5282 O   0  0  0  0  0  0  0  0  0  0  0  0
   26.5447   33.4418   19.4438 C   0  0  0  0  0  0  0  0  0  0  0  0
   23.7868   33.4964   18.8322 N   0  0  0  0  0  0  0  0  0  0  0  0
   22.4348   33.5875   18.5708 C   0  0  0  0  0  0  0  0  0  0  0  0
   21.6434   33.8435   19.4826 O   0  0  0  0  0  0  0  0  0  0  0  0
   21.9731   33.3812   17.2865 N   0  0  0  0  0  0  0  0  0  0  0  0
   22.8566   33.0850   16.2657 C   0  0  0  0  0  0  0  0  0  0  0  0
   24.2088   32.9949   16.5226 C   0  0  1  0  0  0  0  0  0  0  0  0
   22.4596   32.9077   15.1152 O   0  0  0  0  0  0  0  0  0  0  0  0
   26.4315   32.6156   15.7414 C   0  0  2  0  0  0  0  0  0  0  0  0
   25.0777   32.7027   15.4892 N   0  0  0  0  0  0  0  0  0  0  0  0
   27.3094   32.3191   14.7015 C   0  0  0  0  0  0  0  0  0  0  0  0
   28.6754   32.2216   14.9467 C   0  0  1  0  0  0  0  0  0  0  0  0
   29.6104   31.9113   13.8105 C   0  0  0  0  0  0  0  0  0  0  0  0
   29.1627   32.4265   16.2426 C   0  0  1  0  0  0  0  0  0  0  0  0
   30.6323   32.3430   16.5358 C   0  0  0  0  0  0  0  0  0  0  0  0
   28.2823   32.7232   17.2788 C   0  0  0  0  0  0  0  0  0  0  0  0
   26.9137   32.8187   17.0379 C   0  0  2  0  0  0  0  0  0  0  0  0
   24.6794   33.2037   17.8139 C   0  0  2  0  0  0  0  0  0  0  0  0
   26.0328   33.1055   18.0739 N   0  0  0  0  0  0  0  0  0  0  0  0
  1  2  1  1  0  0  0
  1  3  1  0  0  0  0
  1  4  2  0  0  0  0
  1  6  1  0  0  0  0
  5  6  1  0  0  0  0
  7  5  1  1  0  0  0
  7  8  1  0  0  0  0
  7  9  1  0  0  0  0
  9 10  1  6  0  0  0
  9 11  1  0  0  0  0
 11 12  1  1  0  0  0
 11 13  1  0  0  0  0
 13 31  1  0  0  0  0
 14 15  1  0  0  0  0
 15 16  2  0  0  0  0
 15 17  1  0  0  0  0
 17 18  1  0  0  0  0
 18 20  2  0  0  0  0
 19 18  1  6  0  0  0
 19 22  1  0  0  0  0
 19 30  1  0  0  0  0
 21 23  1  1  0  0  0
 21 29  1  0  0  0  0
 21 22  1  0  0  0  0
 23 24  1  0  0  0  0
 24 25  1  6  0  0  0
 24 26  1  0  0  0  0
 26 27  1  6  0  0  0
 26 28  1  0  0  0  0
 29 28  1  1  0  0  0
 29 31  1  0  0  0  0
 30 14  1  1  0  0  0
 30 31  1  0  0  0  0
M  CHG  1   3  -1
M  END
>  <CHROM.1>
177.91228379,71.02659398,70.34649936,60.71011938,-43.78388643,130.19520328
64.23603948,26.38192754,34.37519251,19.54598864,-1.45854931,0.00187936,-2.02380218

>  <Name>
ligand

>  <RI>
0

>  <Rbt.Current_Directory>
/home/itssahil/PROJECTS/Mol_Feturizer/New_Systems/rnas/3F2Q

>  <Rbt.Executable>
rbdock ($Id: //depot/dev/client3/rdock/2013.1/src/exe/rbdock.cxx#4 $)

>  <Rbt.Library>
libRbt.so (2013.1, Build901 2013/11/27)

>  <Rbt.Parameter_File>
/export/apps/rDock/src/rDock_2013.1_src/data/scripts/dock_solv.prm

>  <Rbt.Receptor>
prm/blind_docking_60.prm

>  <SCORE>
-21.9964

>  <SCORE.INTER>
-19.3371

>  <SCORE.INTER.CONST>
1

>  <SCORE.INTER.POLAR>
0

>  <SCORE.INTER.ROT>
7

>  <SCORE.INTER.SOLV>
20.0014

>  <SCORE.INTER.VDW>
-27.8252

>  <SCORE.INTER.norm>
-0.623777

>  <SCORE.INTRA>
-2.65933

>  <SCORE.INTRA.DIHEDRAL>
-2.45853

>  <SCORE.INTRA.DIHEDRAL.0>
10.0718

>  <SCORE.INTRA.POLAR>
0

>  <SCORE.INTRA.POLAR.0>
0

>  <SCORE.INTRA.REPUL>
0

>  <SCORE.INTRA.REPUL.0>
0

>  <SCORE.INTRA.SOLV>
-1.16004

>  <SCORE.INTRA.SOLV.lig_0>
-48.6963

>  <SCORE.INTRA.VDW>
-0.850047

>  <SCORE.INTRA.VDW.0>
-0.836976

>  <SCORE.INTRA.norm>
-0.0857849

>  <SCORE.RESTR>
0

>  <SCORE.RESTR.CAVITY>
0

>  <SCORE.RESTR.norm>
0

>  <SCORE.SYSTEM>
0

>  <SCORE.SYSTEM.CONST>
0

>  <SCORE.SYSTEM.DIHEDRAL>
0

>  <SCORE.SYSTEM.SOLV>
0

>  <SCORE.SYSTEM.norm>
0

>  <SCORE.heavy>
31

>  <SCORE.norm>
-0.709562

>  <RMSD>
7.859

$$$$
ligand
 OpenBabel11021811473D
libRbt.so/2013.1/901 2013/11/27
 31 33  0  0  0  0  0  0  0  0999 V2000
   27.1664   36.6032   24.7758 P   0  0  1  0  0  0  0  0  0  0  0  0
   28.1087   36.0970   25.8470 O   0  0  0  0  0  0  0  0  0  0  0  0
   25.7725   36.1704   25.1433 O   0  5  0  0  0  0  0  0  0  0  0  0
   27.2238   38.1042   24.7005 O   0  0  0  0  0  0  0  0  0  0  0  0
   27.0300   36.5368   22.1761 C   0  0  0  0  0  0  0  0  0  0  0  0
   27.6311   36.0452   23.3492 O   0  0  0  0  0  0  0  0  0  0  0  0
   27.6129   35.8076   20.9744 C   0  0  1  0  0  0  0  0  0  0  0  0
   27.4693   34.4177   21.1771 O   0  0  0  0  0  0  0  0  0  0  0  0
   26.8962   36.2369   19.6943 C   0  0  1  0  0  0  0  0  0  0  0  0
   26.9874   37.6377   19.5468 O   0  0  0  0  0  0  0  0  0  0  0  0
   27.3927   35.5125   18.4352 C   0  0  1  0  0  0  0  0  0  0  0  0
   27.1161   34.1332   18.5343 O   0  0  0  0  0  0  0  0  0  0  0  0
   26.7640   36.0568   17.1624 C   0  0  0  0  0  0  0  0  0  0  0  0
   29.3977   36.4344   16.2113 N   0  0  0  0  0  0  0  0  0  0  0  0
   30.7077   36.6173   15.8177 C   0  0  0  0  0  0  0  0  0  0  0  0
   31.4073   37.4706   16.3705 O   0  0  0  0  0  0  0  0  0  0  0  0
   31.2267   35.8476   14.7963 N   0  0  0  0  0  0  0  0  0  0  0  0
   30.4421   34.8980   14.1692 C   0  0  0  0  0  0  0  0  0  0  0  0
   29.1330   34.7108   14.5612 C   0  0  1  0  0  0  0  0  0  0  0  0
   30.8947   34.1992   13.2640 O   0  0  0  0  0  0  0  0  0  0  0  0
   27.0561   33.5609   14.3183 C   0  0  2  0  0  0  0  0  0  0  0  0
   28.3650   33.7540   13.9265 N   0  0  0  0  0  0  0  0  0  0  0  0
   26.2791   32.5982   13.6785 C   0  0  0  0  0  0  0  0  0  0  0  0
   24.9560   32.4010   14.0610 C   0  0  1  0  0  0  0  0  0  0  0  0
   24.1344   31.3499   13.3670 C   0  0  0  0  0  0  0  0  0  0  0  0
   24.4115   33.1724   15.0939 C   0  0  1  0  0  0  0  0  0  0  0  0
   22.9922   32.9729   15.5393 C   0  0  0  0  0  0  0  0  0  0  0  0
   25.1913   34.1330   15.7311 C   0  0  0  0  0  0  0  0  0  0  0  0
   26.5154   34.3355   15.3491 C   0  0  2  0  0  0  0  0  0  0  0  0
   28.6058   35.4821   15.5906 C   0  0  2  0  0  0  0  0  0  0  0  0
   27.2920   35.3011   15.9783 N   0  0  0  0  0  0  0  0  0  0  0  0
  1  2  1  1  0  0  0
  1  3  1  0  0  0  0
  1  4  2  0  0  0  0
  1  6  1  0  0  0  0
  5  6  1  0  0  0  0
  7  5  1  1  0  0  0
  7  8  1  0  0  0  0
  7  9  1  0  0  0  0
  9 10  1  6  0  0  0
  9 11  1  0  0  0  0
 11 12  1  1  0  0  0
 11 13  1  0  0  0  0
 13 31  1  0  0  0  0
 14 15  1  0  0  0  0
 15 16  2  0  0  0  0
 15 17  1  0  0  0  0
 17 18  1  0  0  0  0
 18 20  2  0  0  0  0
 19 18  1  1  0  0  0
 19 22  1  0  0  0  0
 19 30  1  0  0  0  0
 21 23  1  6  0  0  0
 21 29  1  0  0  0  0
 21 22  1  0  0  0  0
 23 24  1  0  0  0  0
 24 25  1  1  0  0  0
 24 26  1  0  0  0  0
 26 27  1  1  0  0  0
 26 28  1  0  0  0  0
 29 28  1  6  0  0  0
 29 31  1  0  0  0  0
 30 14  1  6  0  0  0
 30 31  1  0  0  0  0
M  CHG  1   3  -1
M  END
>  <CHROM.1>
-177.87939573,-170.64816097,54.11662202,56.69788419,63.90023983,-179.85165547
103.59486659,27.49086329,35.23182215,18.21462626,1.60536583,0.46604842,1.29332200

>  <Name>
ligand

>  <RI>
0

>  <Rbt.Current_Directory>
/home/itssahil/PROJECTS/Mol_Feturizer/New_Systems/rnas/3F2Q

>  <Rbt.Executable>
rbdock ($Id: //depot/dev/client3/rdock/2013.1/src/exe/rbdock.cxx#4 $)

>  <Rbt.Library>
libRbt.so (2013.1, Build901 2013/11/27)

>  <Rbt.Parameter_File>
/export/apps/rDock/src/rDock_2013.1_src/data/scripts/dock_solv.prm

>  <Rbt.Receptor>
prm/blind_docking_60.prm

>  <SCORE>
-18.4127

>  <SCORE.INTER>
-12.9112

>  <SCORE.INTER.CONST>
1

>  <SCORE.INTER.POLAR>
0

>  <SCORE.INTER.ROT>
7

>  <SCORE.INTER.SOLV>
17.7868

>  <SCORE.INTER.VDW>
-22.8031

>  <SCORE.INTER.norm>
-0.41649

>  <SCORE.INTRA>
-5.50371

>  <SCORE.INTRA.DIHEDRAL>
-8.48858

>  <SCORE.INTRA.DIHEDRAL.0>
10.0718

>  <SCORE.INTRA.POLAR>
0

>  <SCORE.INTRA.POLAR.0>
0

>  <SCORE.INTRA.REPUL>
0

>  <SCORE.INTRA.REPUL.0>
0

>  <SCORE.INTRA.SOLV>
-0.76582

>  <SCORE.INTRA.SOLV.lig_0>
-48.6963

>  <SCORE.INTRA.VDW>
-0.876512

>  <SCORE.INTRA.VDW.0>
-0.836976

>  <SCORE.INTRA.norm>
-0.177539

>  <SCORE.RESTR>
0.00220002

>  <SCORE.RESTR.CAVITY>
0.00220002

>  <SCORE.RESTR.norm>
7.09685e-05

>  <SCORE.SYSTEM>
0

>  <SCORE.SYSTEM.CONST>
0

>  <SCORE.SYSTEM.DIHEDRAL>
0

>  <SCORE.SYSTEM.SOLV>
0

>  <SCORE.SYSTEM.norm>
0

>  <SCORE.heavy>
31

>  <SCORE.norm>
-0.593959

>  <RMSD>
7.979

$$$$
ligand
 OpenBabel11021811473D
libRbt.so/2013.1/901 2013/11/27
 31 33  0  0  0  0  0  0  0  0999 V2000
   25.2530   42.5395   24.8182 P   0  0  1  0  0  0  0  0  0  0  0  0
   25.9901   43.5431   25.6791 O   0  0  0  0  0  0  0  0  0  0  0  0
   25.3797   41.1889   25.4701 O   0  5  0  0  0  0  0  0  0  0  0  0
   23.8001   42.9133   24.7131 O   0  0  0  0  0  0  0  0  0  0  0  0
   27.2215   42.3213   23.1273 C   0  0  0  0  0  0  0  0  0  0  0  0
   25.8520   42.5681   23.3339 O   0  0  0  0  0  0  0  0  0  0  0  0
   27.5303   42.4384   21.6419 C   0  0  1  0  0  0  0  0  0  0  0  0
   28.9247   42.5908   21.4818 O   0  0  0  0  0  0  0  0  0  0  0  0
   27.0407   41.1956   20.8986 C   0  0  1  0  0  0  0  0  0  0  0  0
   27.5002   40.0361   21.5594 O   0  0  0  0  0  0  0  0  0  0  0  0
   25.5193   41.1544   20.6982 C   0  0  1  0  0  0  0  0  0  0  0  0
   25.0186   42.4647   20.5527 O   0  0  0  0  0  0  0  0  0  0  0  0
   25.1119   40.3280   19.4888 C   0  0  0  0  0  0  0  0  0  0  0  0
   24.3831   42.5487   17.9012 N   0  0  0  0  0  0  0  0  0  0  0  0
   24.0132   43.6712   17.1886 C   0  0  0  0  0  0  0  0  0  0  0  0
   22.9674   44.2646   17.4664 O   0  0  0  0  0  0  0  0  0  0  0  0
   24.8146   44.1195   16.1581 N   0  0  0  0  0  0  0  0  0  0  0  0
   25.9814   43.4508   15.8389 C   0  0  0  0  0  0  0  0  0  0  0  0
   26.3554   42.3297   16.5500 C   0  0  1  0  0  0  0  0  0  0  0  0
   26.7091   43.8448   14.9291 O   0  0  0  0  0  0  0  0  0  0  0  0
   27.9070   40.5572   16.9318 C   0  0  2  0  0  0  0  0  0  0  0  0
   27.5273   41.6768   16.2202 N   0  0  0  0  0  0  0  0  0  0  0  0
   29.0871   39.8961   16.5999 C   0  0  0  0  0  0  0  0  0  0  0  0
   29.4750   38.7619   17.3062 C   0  0  1  0  0  0  0  0  0  0  0  0
   30.7575   38.0663   16.9418 C   0  0  0  0  0  0  0  0  0  0  0  0
   28.6751   38.2913   18.3538 C   0  0  1  0  0  0  0  0  0  0  0  0
   29.0743   37.0795   19.1442 C   0  0  0  0  0  0  0  0  0  0  0  0
   27.4970   38.9552   18.6828 C   0  0  0  0  0  0  0  0  0  0  0  0
   27.1037   40.0892   17.9761 C   0  0  2  0  0  0  0  0  0  0  0  0
   25.5530   41.8750   17.5901 C   0  0  2  0  0  0  0  0  0  0  0  0
   25.9226   40.7472   18.2976 N   0  0  0  0  0  0  0  0  0  0  0  0
  1  2  1  1  0  0  0
  1  3  1  0  0  0  0
  1  4  2  0  0  0  0
  1  6  1  0  0  0  0
  5  6  1  0  0  0  0
  7  5  1  1  0  0  0
  7  8  1  0  0  0  0
  7  9  1  0  0  0  0
  9 10  1  1  0  0  0
  9 11  1  0  0  0  0
 11 12  1  6  0  0  0
 11 13  1  0  0  0  0
 13 31  1  0  0  0  0
 14 15  1  0  0  0  0
 15 16  2  0  0  0  0
 15 17  1  0  0  0  0
 17 18  1  0  0  0  0
 18 20  2  0  0  0  0
 19 18  1  1  0  0  0
 19 22  1  0  0  0  0
 19 30  1  0  0  0  0
 21 23  1  6  0  0  0
 21 29  1  0  0  0  0
 21 22  1  0  0  0  0
 23 24  1  0  0  0  0
 24 25  1  1  0  0  0
 24 26  1  0  0  0  0
 26 27  1  1  0  0  0
 26 28  1  0  0  0  0
 29 28  1  6  0  0  0
 29 31  1  0  0  0  0
 30 14  1  6  0  0  0
 30 31  1  0  0  0  0
M  CHG  1   3  -1
M  END
>  <CHROM.1>
-178.76466688,57.46798454,162.64043448,-49.74710024,32.16414759,-49.25785962
93.02110429,26.48569964,41.56545634,19.83970940,1.91491625,-0.81188669,1.63010914

>  <Name>
ligand

>  <RI>
0

>  <Rbt.Current_Directory>
/home/itssahil/PROJECTS/Mol_Feturizer/New_Systems/rnas/3F2Q

>  <Rbt.Executable>
rbdock ($Id: //depot/dev/client3/rdock/2013.1/src/exe/rbdock.cxx#4 $)

>  <Rbt.Library>
libRbt.so (2013.1, Build901 2013/11/27)

>  <Rbt.Parameter_File>
/export/apps/rDock/src/rDock_2013.1_src/data/scripts/dock_solv.prm

>  <Rbt.Receptor>
prm/blind_docking_100.prm

>  <SCORE>
-19.3798

>  <SCORE.INTER>
-14.6625

>  <SCORE.INTER.CONST>
1

>  <SCORE.INTER.POLAR>
0

>  <SCORE.INTER.ROT>
7

>  <SCORE.INTER.SOLV>
17.6034

>  <SCORE.INTER.VDW>
-23.9095

>  <SCORE.INTER.norm>
-0.472983

>  <SCORE.INTRA>
-4.71732

>  <SCORE.INTRA.DIHEDRAL>
-4.6964

>  <SCORE.INTRA.DIHEDRAL.0>
10.0718

>  <SCORE.INTRA.POLAR>
0

>  <SCORE.INTRA.POLAR.0>
0

>  <SCORE.INTRA.REPUL>
0

>  <SCORE.INTRA.REPUL.0>
0

>  <SCORE.INTRA.SOLV>
-0.768937

>  <SCORE.INTRA.SOLV.lig_0>
-48.6963

>  <SCORE.INTRA.VDW>
-1.98465

>  <SCORE.INTRA.VDW.0>
-0.836976

>  <SCORE.INTRA.norm>
-0.152172

>  <SCORE.RESTR>
0

>  <SCORE.RESTR.CAVITY>
0

>  <SCORE.RESTR.norm>
0

>  <SCORE.SYSTEM>
0

>  <SCORE.SYSTEM.CONST>
0

>  <SCORE.SYSTEM.DIHEDRAL>
0

>  <SCORE.SYSTEM.SOLV>
0

>  <SCORE.SYSTEM.norm>
0

>  <SCORE.heavy>
31

>  <SCORE.norm>
-0.625155

>  <RMSD>
8.045

$$$$
ligand
 OpenBabel11021811473D
libRbt.so/2013.1/901 2013/11/27
 31 33  0  0  0  0  0  0  0  0999 V2000
   19.4999   41.7348   33.7233 P   0  0  1  0  0  0  0  0  0  0  0  0
   20.8660   41.2475   33.2896 O   0  0  0  0  0  0  0  0  0  0  0  0
   19.6316   42.3096   35.1080 O   0  5  0  0  0  0  0  0  0  0  0  0
   19.0047   42.7981   32.7820 O   0  0  0  0  0  0  0  0  0  0  0  0
   18.8369   39.2436   34.0924 C   0  0  0  0  0  0  0  0  0  0  0  0
   18.4547   40.5243   33.6531 O   0  0  0  0  0  0  0  0  0  0  0  0
   17.6227   38.3268   34.0713 C   0  0  1  0  0  0  0  0  0  0  0  0
   16.5619   38.9675   34.7478 O   0  0  0  0  0  0  0  0  0  0  0  0
   17.2223   38.0094   32.6306 C   0  0  1  0  0  0  0  0  0  0  0  0
   16.7373   39.1781   32.0049 O   0  0  0  0  0  0  0  0  0  0  0  0
   18.3435   37.3623   31.8057 C   0  0  1  0  0  0  0  0  0  0  0  0
   18.7181   36.1327   32.3860 O   0  0  0  0  0  0  0  0  0  0  0  0
   17.9425   37.1285   30.3579 C   0  0  0  0  0  0  0  0  0  0  0  0
   19.0017   34.5223   30.0946 N   0  0  0  0  0  0  0  0  0  0  0  0
   19.4494   33.2243   29.9562 C   0  0  0  0  0  0  0  0  0  0  0  0
   18.9080   32.3117   30.5864 O   0  0  0  0  0  0  0  0  0  0  0  0
   20.5115   32.9550   29.1168 N   0  0  0  0  0  0  0  0  0  0  0  0
   21.1255   33.9768   28.4173 C   0  0  0  0  0  0  0  0  0  0  0  0
   20.6797   35.2752   28.5515 C   0  0  1  0  0  0  0  0  0  0  0  0
   22.0669   33.7496   27.6592 O   0  0  0  0  0  0  0  0  0  0  0  0
   20.8568   37.5827   27.9695 C   0  0  2  0  0  0  0  0  0  0  0  0
   21.3023   36.2831   27.8410 N   0  0  0  0  0  0  0  0  0  0  0  0
   21.4842   38.6009   27.2558 C   0  0  0  0  0  0  0  0  0  0  0  0
   21.0475   39.9157   27.3841 C   0  0  1  0  0  0  0  0  0  0  0  0
   21.7292   41.0015   26.5980 C   0  0  0  0  0  0  0  0  0  0  0  0
   19.9726   40.2088   28.2311 C   0  0  1  0  0  0  0  0  0  0  0  0
   19.4688   41.6148   28.3791 C   0  0  0  0  0  0  0  0  0  0  0  0
   19.3480   39.1884   28.9421 C   0  0  0  0  0  0  0  0  0  0  0  0
   19.7842   37.8713   28.8186 C   0  0  2  0  0  0  0  0  0  0  0  0
   19.6091   35.5516   29.3941 C   0  0  2  0  0  0  0  0  0  0  0  0
   19.1672   36.8531   29.5356 N   0  0  0  0  0  0  0  0  0  0  0  0
  1  2  1  6  0  0  0
  1  3  1  0  0  0  0
  1  4  2  0  0  0  0
  1  6  1  0  0  0  0
  5  6  1  0  0  0  0
  7  5  1  6  0  0  0
  7  8  1  0  0  0  0
  7  9  1  0  0  0  0
  9 10  1  6  0  0  0
  9 11  1  0  0  0  0
 11 12  1  1  0  0  0
 11 13  1  0  0  0  0
 13 31  1  0  0  0  0
 14 15  1  0  0  0  0
 15 16  2  0  0  0  0
 15 17  1  0  0  0  0
 17 18  1  0  0  0  0
 18 20  2  0  0  0  0
 19 18  1  6  0  0  0
 19 22  1  0  0  0  0
 19 30  1  0  0  0  0
 21 23  1  1  0  0  0
 21 29  1  0  0  0  0
 21 22  1  0  0  0  0
 23 24  1  0  0  0  0
 24 25  1  6  0  0  0
 24 26  1  0  0  0  0
 26 27  1  6  0  0  0
 26 28  1  0  0  0  0
 29 28  1  1  0  0  0
 29 31  1  0  0  0  0
 30 14  1  1  0  0  0
 30 31  1  0  0  0  0
M  CHG  1   3  -1
M  END
>  <CHROM.1>
173.45445003,41.30733884,-50.27550538,-67.69911114,61.28730889,164.74054271
-96.42134164,19.47341671,38.08280801,30.75742025,-2.01907377,-1.10138593
-2.89234330

>  <Name>
ligand

>  <RI>
0

>  <Rbt.Current_Directory>
/home/itssahil/PROJECTS/Mol_Feturizer/New_Systems/rnas/3F2Q

>  <Rbt.Executable>
rbdock ($Id: //depot/dev/client3/rdock/2013.1/src/exe/rbdock.cxx#4 $)

>  <Rbt.Library>
libRbt.so (2013.1, Build901 2013/11/27)

>  <Rbt.Parameter_File>
/export/apps/rDock/src/rDock_2013.1_src/data/scripts/dock_solv.prm

>  <Rbt.Receptor>
prm/blind_docking_60.prm

>  <SCORE>
-20.087

>  <SCORE.INTER>
-15.5459

>  <SCORE.INTER.CONST>
1

>  <SCORE.INTER.POLAR>
0

>  <SCORE.INTER.ROT>
7

>  <SCORE.INTER.SOLV>
14.7609

>  <SCORE.INTER.VDW>
-23.5509

>  <SCORE.INTER.norm>
-0.501479

>  <SCORE.INTRA>
-4.88907

>  <SCORE.INTRA.DIHEDRAL>
-6.45198

>  <SCORE.INTRA.DIHEDRAL.0>
10.0718

>  <SCORE.INTRA.POLAR>
0

>  <SCORE.INTRA.POLAR.0>
0

>  <SCORE.INTRA.REPUL>
0

>  <SCORE.INTRA.REPUL.0>
0

>  <SCORE.INTRA.SOLV>
-0.946574

>  <SCORE.INTRA.SOLV.lig_0>
-48.6963

>  <SCORE.INTRA.VDW>
-1.18979

>  <SCORE.INTRA.VDW.0>
-0.836976

>  <SCORE.INTRA.norm>
-0.157712

>  <SCORE.RESTR>
0.347936

>  <SCORE.RESTR.CAVITY>
0.347936

>  <SCORE.RESTR.norm>
0.0112237

>  <SCORE.SYSTEM>
0

>  <SCORE.SYSTEM.CONST>
0

>  <SCORE.SYSTEM.DIHEDRAL>
0

>  <SCORE.SYSTEM.SOLV>
0

>  <SCORE.SYSTEM.norm>
0

>  <SCORE.heavy>
31

>  <SCORE.norm>
-0.647967

>  <RMSD>
14.254

$$$$
ligand
 OpenBabel11021811473D
libRbt.so/2013.1/901 2013/11/27
 31 33  0  0  0  0  0  0  0  0999 V2000
   12.8582   27.8235   17.8451 P   0  0  1  0  0  0  0  0  0  0  0  0
   12.8157   28.4542   19.2206 O   0  0  0  0  0  0  0  0  0  0  0  0
   12.1738   26.4857   17.9280 O   0  5  0  0  0  0  0  0  0  0  0  0
   12.1407   28.6952   16.8516 O   0  0  0  0  0  0  0  0  0  0  0  0
   14.7783   26.6231   16.5590 C   0  0  0  0  0  0  0  0  0  0  0  0
   14.3785   27.7110   17.3565 O   0  0  0  0  0  0  0  0  0  0  0  0
   16.2819   26.6945   16.3366 C   0  0  1  0  0  0  0  0  0  0  0  0
   16.9246   26.6873   17.5937 O   0  0  0  0  0  0  0  0  0  0  0  0
   16.7502   25.5100   15.4914 C   0  0  1  0  0  0  0  0  0  0  0  0
   15.6410   24.9166   14.8510 O   0  0  0  0  0  0  0  0  0  0  0  0
   17.8489   25.8678   14.4808 C   0  0  1  0  0  0  0  0  0  0  0  0
   19.1177   25.7175   15.0778 O   0  0  0  0  0  0  0  0  0  0  0  0
   17.7856   25.0154   13.2235 C   0  0  0  0  0  0  0  0  0  0  0  0
   15.7103   24.9684   11.3066 N   0  0  0  0  0  0  0  0  0  0  0  0
   14.6475   24.9441   10.4266 C   0  0  0  0  0  0  0  0  0  0  0  0
   13.7357   24.1264   10.5787 O   0  0  0  0  0  0  0  0  0  0  0  0
   14.6158   25.8327    9.3709 N   0  0  0  0  0  0  0  0  0  0  0  0
   15.6406   26.7430    9.1930 C   0  0  0  0  0  0  0  0  0  0  0  0
   16.7036   26.7716   10.0715 C   0  0  1  0  0  0  0  0  0  0  0  0
   15.6204   27.5462    8.2619 O   0  0  0  0  0  0  0  0  0  0  0  0
   18.7797   27.7258   10.7600 C   0  0  2  0  0  0  0  0  0  0  0  0
   17.7165   27.6913    9.8810 N   0  0  0  0  0  0  0  0  0  0  0  0
   19.8032   28.6509   10.5688 C   0  0  0  0  0  0  0  0  0  0  0  0
   20.8833   28.6888   11.4450 C   0  0  1  0  0  0  0  0  0  0  0  0
   21.9746   29.7010   11.2303 C   0  0  0  0  0  0  0  0  0  0  0  0
   20.9339   27.7952   12.5209 C   0  0  1  0  0  0  0  0  0  0  0  0
   22.0781   27.8214   13.4918 C   0  0  0  0  0  0  0  0  0  0  0  0
   19.9088   26.8728   12.7088 C   0  0  0  0  0  0  0  0  0  0  0  0
   18.8273   26.8297   11.8321 C   0  0  2  0  0  0  0  0  0  0  0  0
   16.7395   25.8801   11.1376 C   0  0  2  0  0  0  0  0  0  0  0  0
   17.8080   25.9025   12.0134 N   0  0  0  0  0  0  0  0  0  0  0  0
  1  2  1  1  0  0  0
  1  3  1  0  0  0  0
  1  4  2  0  0  0  0
  1  6  1  0  0  0  0
  5  6  1  0  0  0  0
  7  5  1  1  0  0  0
  7  8  1  0  0  0  0
  7  9  1  0  0  0  0
  9 10  1  6  0  0  0
  9 11  1  0  0  0  0
 11 12  1  1  0  0  0
 11 13  1  0  0  0  0
 13 31  1  0  0  0  0
 14 15  1  0  0  0  0
 15 16  2  0  0  0  0
 15 17  1  0  0  0  0
 17 18  1  0  0  0  0
 18 20  2  0  0  0  0
 19 18  1  1  0  0  0
 19 22  1  0  0  0  0
 19 30  1  0  0  0  0
 21 23  1  6  0  0  0
 21 29  1  0  0  0  0
 21 22  1  0  0  0  0
 23 24  1  0  0  0  0
 24 25  1  1  0  0  0
 24 26  1  0  0  0  0
 26 27  1  1  0  0  0
 26 28  1  0  0  0  0
 29 28  1  6  0  0  0
 29 31  1  0  0  0  0
 30 14  1  6  0  0  0
 30 31  1  0  0  0  0
M  CHG  1   3  -1
M  END
>  <CHROM.1>
-175.22312392,146.16696660,57.88455378,16.59889285,89.13384232,129.27296499
54.74875887,16.55024246,26.83271451,13.54938852,2.24993171,0.22184167,1.39069977

>  <Name>
ligand

>  <RI>
0

>  <Rbt.Current_Directory>
/home/itssahil/PROJECTS/Mol_Feturizer/New_Systems/rnas/3F2Q

>  <Rbt.Executable>
rbdock ($Id: //depot/dev/client3/rdock/2013.1/src/exe/rbdock.cxx#4 $)

>  <Rbt.Library>
libRbt.so (2013.1, Build901 2013/11/27)

>  <Rbt.Parameter_File>
/export/apps/rDock/src/rDock_2013.1_src/data/scripts/dock_solv.prm

>  <Rbt.Receptor>
prm/blind_docking_40.prm

>  <SCORE>
3.5989

>  <SCORE.INTER>
-4.36558

>  <SCORE.INTER.CONST>
1

>  <SCORE.INTER.POLAR>
0

>  <SCORE.INTER.ROT>
7

>  <SCORE.INTER.SOLV>
20.7333

>  <SCORE.INTER.VDW>
-18.0882

>  <SCORE.INTER.norm>
-0.140825

>  <SCORE.INTRA>
3.89882

>  <SCORE.INTRA.DIHEDRAL>
4.62237

>  <SCORE.INTRA.DIHEDRAL.0>
10.0718

>  <SCORE.INTRA.POLAR>
0

>  <SCORE.INTRA.POLAR.0>
0

>  <SCORE.INTRA.REPUL>
0

>  <SCORE.INTRA.REPUL.0>
0

>  <SCORE.INTRA.SOLV>
-0.930957

>  <SCORE.INTRA.SOLV.lig_0>
-48.6963

>  <SCORE.INTRA.VDW>
2.05311

>  <SCORE.INTRA.VDW.0>
-0.836976

>  <SCORE.INTRA.norm>
0.125768

>  <SCORE.RESTR>
4.06566

>  <SCORE.RESTR.CAVITY>
4.06566

>  <SCORE.RESTR.norm>
0.13115

>  <SCORE.SYSTEM>
0

>  <SCORE.SYSTEM.CONST>
0

>  <SCORE.SYSTEM.DIHEDRAL>
0

>  <SCORE.SYSTEM.SOLV>
0

>  <SCORE.SYSTEM.norm>
0

>  <SCORE.heavy>
31

>  <SCORE.norm>
0.116094

>  <RMSD>
17.817

$$$$
ligand
 OpenBabel11021811473D
libRbt.so/2013.1/901 2013/11/27
 31 33  0  0  0  0  0  0  0  0999 V2000
   11.9528   27.2059   17.4050 P   0  0  1  0  0  0  0  0  0  0  0  0
   12.3317   28.6701   17.3398 O   0  0  0  0  0  0  0  0  0  0  0  0
   11.3573   26.9418   18.7617 O   0  5  0  0  0  0  0  0  0  0  0  0
   10.9412   26.8832   16.3399 O   0  0  0  0  0  0  0  0  0  0  0  0
   14.3937   26.8953   16.5522 C   0  0  0  0  0  0  0  0  0  0  0  0
   13.2444   26.3070   17.1111 O   0  0  0  0  0  0  0  0  0  0  0  0
   15.4869   25.8430   16.4386 C   0  0  1  0  0  0  0  0  0  0  0  0
   15.2183   25.0332   15.3136 O   0  0  0  0  0  0  0  0  0  0  0  0
   16.8547   26.5114   16.3004 C   0  0  1  0  0  0  0  0  0  0  0  0
   17.8552   25.6526   16.8043 O   0  0  0  0  0  0  0  0  0  0  0  0
   17.1800   26.9637   14.8700 C   0  0  1  0  0  0  0  0  0  0  0  0
   18.2471   27.8856   14.8890 O   0  0  0  0  0  0  0  0  0  0  0  0
   17.5411   25.8020   13.9582 C   0  0  0  0  0  0  0  0  0  0  0  0
   15.4985   25.4499   12.0380 N   0  0  0  0  0  0  0  0  0  0  0  0
   14.4513   25.2985   11.1520 C   0  0  0  0  0  0  0  0  0  0  0  0
   13.4427   24.6708   11.4864 O   0  0  0  0  0  0  0  0  0  0  0  0
   14.5432   25.8446    9.8877 N   0  0  0  0  0  0  0  0  0  0  0  0
   15.6758   26.5398    9.5077 C   0  0  0  0  0  0  0  0  0  0  0  0
   16.7238   26.6949   10.3910 C   0  0  1  0  0  0  0  0  0  0  0  0
   15.7670   27.0391    8.3875 O   0  0  0  0  0  0  0  0  0  0  0  0
   18.8948   27.5576   10.8778 C   0  0  2  0  0  0  0  0  0  0  0  0
   17.8460   27.3968    9.9958 N   0  0  0  0  0  0  0  0  0  0  0  0
   20.0282   28.2632   10.4809 C   0  0  0  0  0  0  0  0  0  0  0  0
   21.0944   28.4244   11.3602 C   0  0  1  0  0  0  0  0  0  0  0  0
   22.3061   29.1982   10.9192 C   0  0  0  0  0  0  0  0  0  0  0  0
   21.0203   27.8771   12.6461 C   0  0  1  0  0  0  0  0  0  0  0  0
   22.1475   28.0469   13.6224 C   0  0  0  0  0  0  0  0  0  0  0  0
   19.8858   27.1733   13.0391 C   0  0  0  0  0  0  0  0  0  0  0  0
   18.8176   27.0071   12.1607 C   0  0  2  0  0  0  0  0  0  0  0  0
   16.6356   26.1485   11.6663 C   0  0  2  0  0  0  0  0  0  0  0  0
   17.6883   26.2962   12.5490 N   0  0  0  0  0  0  0  0  0  0  0  0
  1  2  1  6  0  0  0
  1  3  1  0  0  0  0
  1  4  2  0  0  0  0
  1  6  1  0  0  0  0
  5  6  1  0  0  0  0
  7  5  1  6  0  0  0
  7  8  1  0  0  0  0
  7  9  1  0  0  0  0
  9 10  1  6  0  0  0
  9 11  1  0  0  0  0
 11 12  1  1  0  0  0
 11 13  1  0  0  0  0
 13 31  1  0  0  0  0
 14 15  1  0  0  0  0
 15 16  2  0  0  0  0
 15 17  1  0  0  0  0
 17 18  1  0  0  0  0
 18 20  2  0  0  0  0
 19 18  1  1  0  0  0
 19 22  1  0  0  0  0
 19 30  1  0  0  0  0
 21 23  1  6  0  0  0
 21 29  1  0  0  0  0
 21 22  1  0  0  0  0
 23 24  1  0  0  0  0
 24 25  1  1  0  0  0
 24 26  1  0  0  0  0
 26 27  1  1  0  0  0
 26 28  1  0  0  0  0
 29 28  1  6  0  0  0
 29 31  1  0  0  0  0
 30 14  1  6  0  0  0
 30 31  1  0  0  0  0
M  CHG  1   3  -1
M  END
>  <CHROM.1>
177.33962394,-14.56589281,78.18728316,152.95428516,163.34891246,173.42807026
75.61688935,16.29515265,26.82591667,13.65699007,-2.46422130,-0.20968255,-1.68931028

>  <Name>
ligand

>  <RI>
0

>  <Rbt.Current_Directory>
/home/itssahil/PROJECTS/Mol_Feturizer/New_Systems/rnas/3F2Q

>  <Rbt.Executable>
rbdock ($Id: //depot/dev/client3/rdock/2013.1/src/exe/rbdock.cxx#4 $)

>  <Rbt.Library>
libRbt.so (2013.1, Build901 2013/11/27)

>  <Rbt.Parameter_File>
/export/apps/rDock/src/rDock_2013.1_src/data/scripts/dock_solv.prm

>  <Rbt.Receptor>
prm/blind_docking_40.prm

>  <SCORE>
-4.95777

>  <SCORE.INTER>
-7.31619

>  <SCORE.INTER.CONST>
1

>  <SCORE.INTER.POLAR>
0

>  <SCORE.INTER.ROT>
7

>  <SCORE.INTER.SOLV>
14.5944

>  <SCORE.INTER.VDW>
-18.0089

>  <SCORE.INTER.norm>
-0.236006

>  <SCORE.INTRA>
-1.62874

>  <SCORE.INTRA.DIHEDRAL>
-2.34538

>  <SCORE.INTRA.DIHEDRAL.0>
10.0718

>  <SCORE.INTRA.POLAR>
0

>  <SCORE.INTRA.POLAR.0>
0

>  <SCORE.INTRA.REPUL>
0

>  <SCORE.INTRA.REPUL.0>
0

>  <SCORE.INTRA.SOLV>
-1.43694

>  <SCORE.INTRA.SOLV.lig_0>
-48.6963

>  <SCORE.INTRA.VDW>
0.262418

>  <SCORE.INTRA.VDW.0>
-0.836976

>  <SCORE.INTRA.norm>
-0.05254

>  <SCORE.RESTR>
3.98716

>  <SCORE.RESTR.CAVITY>
3.98716

>  <SCORE.RESTR.norm>
0.128618

>  <SCORE.SYSTEM>
0

>  <SCORE.SYSTEM.CONST>
0

>  <SCORE.SYSTEM.DIHEDRAL>
0

>  <SCORE.SYSTEM.SOLV>
0

>  <SCORE.SYSTEM.norm>
0

>  <SCORE.heavy>
31

>  <SCORE.norm>
-0.159928

>  <RMSD>
17.896

$$$$
ligand
 OpenBabel11021811473D
libRbt.so/2013.1/901 2013/11/27
 31 33  0  0  0  0  0  0  0  0999 V2000
   12.7280   26.9067   16.8405 P   0  0  1  0  0  0  0  0  0  0  0  0
   12.2231   27.0709   15.4229 O   0  0  0  0  0  0  0  0  0  0  0  0
   12.0515   27.9440   17.6958 O   0  5  0  0  0  0  0  0  0  0  0  0
   12.3935   25.5338   17.3553 O   0  0  0  0  0  0  0  0  0  0  0  0
   15.1104   26.0750   16.1971 C   0  0  0  0  0  0  0  0  0  0  0  0
   14.3235   27.0365   16.8570 O   0  0  0  0  0  0  0  0  0  0  0  0
   16.5675   26.5119   16.2362 C   0  0  1  0  0  0  0  0  0  0  0  0
   17.2383   25.7569   17.2229 O   0  0  0  0  0  0  0  0  0  0  0  0
   17.2207   26.3042   14.8699 C   0  0  1  0  0  0  0  0  0  0  0  0
   18.6174   26.4759   14.9810 O   0  0  0  0  0  0  0  0  0  0  0  0
   16.8769   24.9573   14.2186 C   0  0  1  0  0  0  0  0  0  0  0  0
   15.5658   24.9953   13.7006 O   0  0  0  0  0  0  0  0  0  0  0  0
   17.8422   24.5841   13.1049 C   0  0  0  0  0  0  0  0  0  0  0  0
   15.7206   24.7278   11.2443 N   0  0  0  0  0  0  0  0  0  0  0  0
   14.6368   24.7868   10.3921 C   0  0  0  0  0  0  0  0  0  0  0  0
   13.7586   23.9213   10.4457 O   0  0  0  0  0  0  0  0  0  0  0  0
   14.5464   25.8134    9.4738 N   0  0  0  0  0  0  0  0  0  0  0  0
   15.5335   26.7784    9.4055 C   0  0  0  0  0  0  0  0  0  0  0  0
   16.6173   26.7239   10.2569 C   0  0  1  0  0  0  0  0  0  0  0  0
   15.4608   27.7034    8.5982 O   0  0  0  0  0  0  0  0  0  0  0  0
   18.6758   27.6508   11.0303 C   0  0  2  0  0  0  0  0  0  0  0  0
   17.5920   27.6996   10.1776 N   0  0  0  0  0  0  0  0  0  0  0  0
   19.6609   28.6323   10.9509 C   0  0  0  0  0  0  0  0  0  0  0  0
   20.7614   28.5880   11.8010 C   0  0  1  0  0  0  0  0  0  0  0  0
   21.8105   29.6616   11.7092 C   0  0  0  0  0  0  0  0  0  0  0  0
   20.8714   27.5543   12.7381 C   0  0  1  0  0  0  0  0  0  0  0  0
   22.0389   27.4876   13.6788 C   0  0  0  0  0  0  0  0  0  0  0  0
   19.8846   26.5759   12.8146 C   0  0  0  0  0  0  0  0  0  0  0  0
   18.7828   26.6151   11.9633 C   0  0  2  0  0  0  0  0  0  0  0  0
   16.7124   25.6932   11.1849 C   0  0  2  0  0  0  0  0  0  0  0  0
   17.8018   25.6331   12.0325 N   0  0  0  0  0  0  0  0  0  0  0  0
  1  2  1  6  0  0  0
  1  3  1  0  0  0  0
  1  4  2  0  0  0  0
  1  6  1  0  0  0  0
  5  6  1  0  0  0  0
  7  5  1  6  0  0  0
  7  8  1  0  0  0  0
  7  9  1  0  0  0  0
  9 10  1  1  0  0  0
  9 11  1  0  0  0  0
 11 12  1  6  0  0  0
 11 13  1  0  0  0  0
 13 31  1  0  0  0  0
 14 15  1  0  0  0  0
 15 16  2  0  0  0  0
 15 17  1  0  0  0  0
 17 18  1  0  0  0  0
 18 20  2  0  0  0  0
 19 18  1  1  0  0  0
 19 22  1  0  0  0  0
 19 30  1  0  0  0  0
 21 23  1  6  0  0  0
 21 29  1  0  0  0  0
 21 22  1  0  0  0  0
 23 24  1  0  0  0  0
 24 25  1  1  0  0  0
 24 26  1  0  0  0  0
 26 27  1  1  0  0  0
 26 28  1  0  0  0  0
 29 28  1  6  0  0  0
 29 31  1  0  0  0  0
 30 14  1  6  0  0  0
 30 31  1  0  0  0  0
M  CHG  1   3  -1
M  END
>  <CHROM.1>
173.87291538,-65.11023587,102.83307673,-169.24260201,75.89672810,-60.17678678
99.96868677,16.48213168,26.52706277,13.32584991,-2.43544161,-0.24420657,-1.67239061

>  <Name>
ligand

>  <RI>
0

>  <Rbt.Current_Directory>
/home/itssahil/PROJECTS/Mol_Feturizer/New_Systems/rnas/3F2Q

>  <Rbt.Executable>
rbdock ($Id: //depot/dev/client3/rdock/2013.1/src/exe/rbdock.cxx#4 $)

>  <Rbt.Library>
libRbt.so (2013.1, Build901 2013/11/27)

>  <Rbt.Parameter_File>
/export/apps/rDock/src/rDock_2013.1_src/data/scripts/dock_solv.prm

>  <Rbt.Receptor>
prm/blind_docking_40.prm

>  <SCORE>
-5.56503

>  <SCORE.INTER>
-7.60006

>  <SCORE.INTER.CONST>
1

>  <SCORE.INTER.POLAR>
0

>  <SCORE.INTER.ROT>
7

>  <SCORE.INTER.SOLV>
16.2776

>  <SCORE.INTER.VDW>
-18.7592

>  <SCORE.INTER.norm>
-0.245163

>  <SCORE.INTRA>
-0.345041

>  <SCORE.INTRA.DIHEDRAL>
-3.13065

>  <SCORE.INTRA.DIHEDRAL.0>
10.0718

>  <SCORE.INTRA.POLAR>
0

>  <SCORE.INTRA.POLAR.0>
0

>  <SCORE.INTRA.REPUL>
0

>  <SCORE.INTRA.REPUL.0>
0

>  <SCORE.INTRA.SOLV>
-0.696587

>  <SCORE.INTRA.SOLV.lig_0>
-48.6963

>  <SCORE.INTRA.VDW>
1.56858

>  <SCORE.INTRA.VDW.0>
-0.836976

>  <SCORE.INTRA.norm>
-0.0111304

>  <SCORE.RESTR>
2.38008

>  <SCORE.RESTR.CAVITY>
2.38008

>  <SCORE.RESTR.norm>
0.0767767

>  <SCORE.SYSTEM>
0

>  <SCORE.SYSTEM.CONST>
0

>  <SCORE.SYSTEM.DIHEDRAL>
0

>  <SCORE.SYSTEM.SOLV>
0

>  <SCORE.SYSTEM.norm>
0

>  <SCORE.heavy>
31

>  <SCORE.norm>
-0.179517

>  <RMSD>
17.986

$$$$
ligand
 OpenBabel11021811473D
libRbt.so/2013.1/901 2013/11/27
 31 33  0  0  0  0  0  0  0  0999 V2000
   12.5615   27.5275   17.2052 P   0  0  1  0  0  0  0  0  0  0  0  0
   12.1890   28.8154   16.5024 O   0  0  0  0  0  0  0  0  0  0  0  0
   13.0972   27.8813   18.5665 O   0  5  0  0  0  0  0  0  0  0  0  0
   11.3508   26.6479   17.3539 O   0  0  0  0  0  0  0  0  0  0  0  0
   14.0042   25.4210   16.6923 C   0  0  0  0  0  0  0  0  0  0  0  0
   13.6195   26.7206   16.3151 O   0  0  0  0  0  0  0  0  0  0  0  0
   15.1900   24.9864   15.8435 C   0  0  1  0  0  0  0  0  0  0  0  0
   14.7551   24.8252   14.5100 O   0  0  0  0  0  0  0  0  0  0  0  0
   16.3063   26.0280   15.9184 C   0  0  1  0  0  0  0  0  0  0  0  0
   16.8854   26.0106   17.2056 O   0  0  0  0  0  0  0  0  0  0  0  0
   17.3740   25.8693   14.8270 C   0  0  1  0  0  0  0  0  0  0  0  0
   17.1022   24.7225   14.0525 O   0  0  0  0  0  0  0  0  0  0  0  0
   17.4577   27.0805   13.9117 C   0  0  0  0  0  0  0  0  0  0  0  0
   15.6265   26.0273   12.0353 N   0  0  0  0  0  0  0  0  0  0  0  0
   14.6845   25.5672   11.1379 C   0  0  0  0  0  0  0  0  0  0  0  0
   13.5120   25.4173   11.4928 O   0  0  0  0  0  0  0  0  0  0  0  0
   15.0637   25.2668    9.8452 N   0  0  0  0  0  0  0  0  0  0  0  0
   16.3782   25.4248    9.4481 C   0  0  0  0  0  0  0  0  0  0  0  0
   17.3223   25.8862   10.3417 C   0  0  1  0  0  0  0  0  0  0  0  0
   16.7277   25.1694    8.2970 O   0  0  0  0  0  0  0  0  0  0  0  0
   19.5769   26.5077   10.8159 C   0  0  2  0  0  0  0  0  0  0  0  0
   18.6304   26.0425    9.9262 N   0  0  0  0  0  0  0  0  0  0  0  0
   20.8969   26.6641   10.3999 C   0  0  0  0  0  0  0  0  0  0  0  0
   21.8605   27.1253   11.2913 C   0  0  1  0  0  0  0  0  0  0  0  0
   23.2789   27.2987   10.8227 C   0  0  0  0  0  0  0  0  0  0  0  0
   21.4956   27.4342   12.6066 C   0  0  1  0  0  0  0  0  0  0  0  0
   22.5089   27.9479   13.5874 C   0  0  0  0  0  0  0  0  0  0  0  0
   20.1755   27.2771   13.0182 C   0  0  0  0  0  0  0  0  0  0  0  0
   19.2085   26.8128   12.1296 C   0  0  2  0  0  0  0  0  0  0  0  0
   16.9453   26.1920   11.6444 C   0  0  2  0  0  0  0  0  0  0  0  0
   17.8919   26.6464   12.5425 N   0  0  0  0  0  0  0  0  0  0  0  0
  1  2  1  6  0  0  0
  1  3  1  0  0  0  0
  1  4  2  0  0  0  0
  1  6  1  0  0  0  0
  5  6  1  0  0  0  0
  7  5  1  1  0  0  0
  7  8  1  0  0  0  0
  7  9  1  0  0  0  0
  9 10  1  1  0  0  0
  9 11  1  0  0  0  0
 11 12  1  6  0  0  0
 11 13  1  0  0  0  0
 13 31  1  0  0  0  0
 14 15  1  0  0  0  0
 15 16  2  0  0  0  0
 15 17  1  0  0  0  0
 17 18  1  0  0  0  0
 18 20  2  0  0  0  0
 19 18  1  6  0  0  0
 19 22  1  0  0  0  0
 19 30  1  0  0  0  0
 21 23  1  1  0  0  0
 21 29  1  0  0  0  0
 21 22  1  0  0  0  0
 23 24  1  0  0  0  0
 24 25  1  6  0  0  0
 24 26  1  0  0  0  0
 26 27  1  6  0  0  0
 26 28  1  0  0  0  0
 29 28  1  1  0  0  0
 29 31  1  0  0  0  0
 30 14  1  1  0  0  0
 30 31  1  0  0  0  0
M  CHG  1   3  -1
M  END
>  <CHROM.1>
-169.60372397,-173.04596525,-67.92005260,70.00381199,-3.72007308,-149.71985665
-101.05925650,16.57160022,26.40711395,13.51999638,-2.46574040,-0.16733699
-1.81979518

>  <Name>
ligand

>  <RI>
0

>  <Rbt.Current_Directory>
/home/itssahil/PROJECTS/Mol_Feturizer/New_Systems/rnas/3F2Q

>  <Rbt.Executable>
rbdock ($Id: //depot/dev/client3/rdock/2013.1/src/exe/rbdock.cxx#4 $)

>  <Rbt.Library>
libRbt.so (2013.1, Build901 2013/11/27)

>  <Rbt.Parameter_File>
/export/apps/rDock/src/rDock_2013.1_src/data/scripts/dock_solv.prm

>  <Rbt.Receptor>
prm/blind_docking_40.prm

>  <SCORE>
0.960301

>  <SCORE.INTER>
-5.54085

>  <SCORE.INTER.CONST>
1

>  <SCORE.INTER.POLAR>
0

>  <SCORE.INTER.ROT>
7

>  <SCORE.INTER.SOLV>
14.6256

>  <SCORE.INTER.VDW>
-16.8358

>  <SCORE.INTER.norm>
-0.178737

>  <SCORE.INTRA>
0.600399

>  <SCORE.INTRA.DIHEDRAL>
0.510075

>  <SCORE.INTRA.DIHEDRAL.0>
10.0718

>  <SCORE.INTRA.POLAR>
0

>  <SCORE.INTRA.POLAR.0>
0

>  <SCORE.INTRA.REPUL>
0

>  <SCORE.INTRA.REPUL.0>
0

>  <SCORE.INTRA.SOLV>
0.239077

>  <SCORE.INTRA.SOLV.lig_0>
-48.6963

>  <SCORE.INTRA.VDW>
0.225823

>  <SCORE.INTRA.VDW.0>
-0.836976

>  <SCORE.INTRA.norm>
0.0193677

>  <SCORE.RESTR>
5.90075

>  <SCORE.RESTR.CAVITY>
5.90075

>  <SCORE.RESTR.norm>
0.190347

>  <SCORE.SYSTEM>
0

>  <SCORE.SYSTEM.CONST>
0

>  <SCORE.SYSTEM.DIHEDRAL>
0

>  <SCORE.SYSTEM.SOLV>
0

>  <SCORE.SYSTEM.norm>
0

>  <SCORE.heavy>
31

>  <SCORE.norm>
0.0309774

>  <RMSD>
18.017

$$$$
ligand
 OpenBabel11021811473D
libRbt.so/2013.1/901 2013/11/27
 31 33  0  0  0  0  0  0  0  0999 V2000
   12.1488   26.2400   16.2550 P   0  0  1  0  0  0  0  0  0  0  0  0
   12.6417   27.3314   15.3290 O   0  0  0  0  0  0  0  0  0  0  0  0
   11.1250   26.8437   17.1783 O   0  5  0  0  0  0  0  0  0  0  0  0
   11.5175   25.1303   15.4602 O   0  0  0  0  0  0  0  0  0  0  0  0
   14.6293   25.4582   16.3884 C   0  0  0  0  0  0  0  0  0  0  0  0
   13.3911   25.6050   17.0400 O   0  0  0  0  0  0  0  0  0  0  0  0
   15.3261   26.8098   16.3323 C   0  0  1  0  0  0  0  0  0  0  0  0
   14.8097   27.6264   17.3619 O   0  0  0  0  0  0  0  0  0  0  0  0
   16.8359   26.6358   16.4961 C   0  0  1  0  0  0  0  0  0  0  0  0
   17.0987   25.7764   17.5846 O   0  0  0  0  0  0  0  0  0  0  0  0
   17.5441   26.1520   15.2231 C   0  0  1  0  0  0  0  0  0  0  0  0
   16.8359   25.0694   14.6616 O   0  0  0  0  0  0  0  0  0  0  0  0
   17.6853   27.2496   14.1806 C   0  0  0  0  0  0  0  0  0  0  0  0
   20.4016   27.5237   13.4524 N   0  0  0  0  0  0  0  0  0  0  0  0
   21.7467   27.6412   13.1672 C   0  0  0  0  0  0  0  0  0  0  0  0
   22.4799   28.3084   13.9024 O   0  0  0  0  0  0  0  0  0  0  0  0
   22.2642   27.0166   12.0504 N   0  0  0  0  0  0  0  0  0  0  0  0
   21.4431   26.2768   11.2203 C   0  0  0  0  0  0  0  0  0  0  0  0
   20.0985   26.1554   11.5031 C   0  0  1  0  0  0  0  0  0  0  0  0
   21.8929   25.7078   10.2272 O   0  0  0  0  0  0  0  0  0  0  0  0
   17.9490   25.2810   10.9466 C   0  0  2  0  0  0  0  0  0  0  0  0
   19.2938   25.4082   10.6650 N   0  0  0  0  0  0  0  0  0  0  0  0
   17.1352   24.5298   10.1020 C   0  0  0  0  0  0  0  0  0  0  0  0
   15.7766   24.4016   10.3729 C   0  0  1  0  0  0  0  0  0  0  0  0
   14.9143   23.5781    9.4566 C   0  0  0  0  0  0  0  0  0  0  0  0
   15.2331   25.0285   11.5000 C   0  0  1  0  0  0  0  0  0  0  0  0
   13.7742   24.8965   11.8272 C   0  0  0  0  0  0  0  0  0  0  0  0
   16.0497   25.7777   12.3418 C   0  0  0  0  0  0  0  0  0  0  0  0
   17.4098   25.9108   12.0724 C   0  0  2  0  0  0  0  0  0  0  0  0
   19.5725   26.7809   12.6277 C   0  0  2  0  0  0  0  0  0  0  0  0
   18.2242   26.6668   12.9071 N   0  0  0  0  0  0  0  0  0  0  0  0
  1  2  1  6  0  0  0
  1  3  1  0  0  0  0
  1  4  2  0  0  0  0
  1  6  1  0  0  0  0
  5  6  1  0  0  0  0
  7  5  1  1  0  0  0
  7  8  1  0  0  0  0
  7  9  1  0  0  0  0
  9 10  1  1  0  0  0
  9 11  1  0  0  0  0
 11 12  1  6  0  0  0
 11 13  1  0  0  0  0
 13 31  1  0  0  0  0
 14 15  1  0  0  0  0
 15 16  2  0  0  0  0
 15 17  1  0  0  0  0
 17 18  1  0  0  0  0
 18 20  2  0  0  0  0
 19 18  1  1  0  0  0
 19 22  1  0  0  0  0
 19 30  1  0  0  0  0
 21 23  1  6  0  0  0
 21 29  1  0  0  0  0
 21 22  1  0  0  0  0
 23 24  1  0  0  0  0
 24 25  1  1  0  0  0
 24 26  1  0  0  0  0
 26 27  1  1  0  0  0
 26 28  1  0  0  0  0
 29 28  1  6  0  0  0
 29 31  1  0  0  0  0
 30 14  1  6  0  0  0
 30 31  1  0  0  0  0
M  CHG  1   3  -1
M  END
>  <CHROM.1>
77.47109785,-36.16665569,22.94545907,-47.16806059,-46.87177282,-172.87916005
75.25707648,16.70964409,26.11053164,13.77825221,2.66798506,0.23463025,1.20469138

>  <Name>
ligand

>  <RI>
0

>  <Rbt.Current_Directory>
/home/itssahil/PROJECTS/Mol_Feturizer/New_Systems/rnas/3F2Q

>  <Rbt.Executable>
rbdock ($Id: //depot/dev/client3/rdock/2013.1/src/exe/rbdock.cxx#4 $)

>  <Rbt.Library>
libRbt.so (2013.1, Build901 2013/11/27)

>  <Rbt.Parameter_File>
/export/apps/rDock/src/rDock_2013.1_src/data/scripts/dock_solv.prm

>  <Rbt.Receptor>
prm/blind_docking_40.prm

>  <SCORE>
8.30573

>  <SCORE.INTER>
3.30241

>  <SCORE.INTER.CONST>
1

>  <SCORE.INTER.POLAR>
0

>  <SCORE.INTER.ROT>
7

>  <SCORE.INTER.SOLV>
13.7847

>  <SCORE.INTER.VDW>
-10.66

>  <SCORE.INTER.norm>
0.106529

>  <SCORE.INTRA>
0.12268

>  <SCORE.INTRA.DIHEDRAL>
-1.75353

>  <SCORE.INTRA.DIHEDRAL.0>
10.0718

>  <SCORE.INTRA.POLAR>
0

>  <SCORE.INTRA.POLAR.0>
0

>  <SCORE.INTRA.REPUL>
0

>  <SCORE.INTRA.REPUL.0>
0

>  <SCORE.INTRA.SOLV>
0.652792

>  <SCORE.INTRA.SOLV.lig_0>
-48.6963

>  <SCORE.INTRA.VDW>
0.673051

>  <SCORE.INTRA.VDW.0>
-0.836976

>  <SCORE.INTRA.norm>
0.00395743

>  <SCORE.RESTR>
4.88064

>  <SCORE.RESTR.CAVITY>
4.88064

>  <SCORE.RESTR.norm>
0.15744

>  <SCORE.SYSTEM>
0

>  <SCORE.SYSTEM.CONST>
0

>  <SCORE.SYSTEM.DIHEDRAL>
0

>  <SCORE.SYSTEM.SOLV>
0

>  <SCORE.SYSTEM.norm>
0

>  <SCORE.heavy>
31

>  <SCORE.norm>
0.267927

>  <RMSD>
18.063

$$$$
ligand
 OpenBabel11021811473D
libRbt.so/2013.1/901 2013/11/27
 31 33  0  0  0  0  0  0  0  0999 V2000
   12.9005   28.2975   17.7665 P   0  0  1  0  0  0  0  0  0  0  0  0
   11.7435   29.1458   17.2836 O   0  0  0  0  0  0  0  0  0  0  0  0
   14.0944   29.1977   17.9383 O   0  5  0  0  0  0  0  0  0  0  0  0
   12.5602   27.6562   19.0836 O   0  0  0  0  0  0  0  0  0  0  0  0
   14.4666   26.6057   16.5554 C   0  0  0  0  0  0  0  0  0  0  0  0
   13.1649   27.1122   16.7235 O   0  0  0  0  0  0  0  0  0  0  0  0
   14.3826   25.1848   16.0175 C   0  0  1  0  0  0  0  0  0  0  0  0
   13.5539   25.1836   14.8744 O   0  0  0  0  0  0  0  0  0  0  0  0
   15.7773   24.6672   15.6658 C   0  0  1  0  0  0  0  0  0  0  0  0
   15.6769   23.3728   15.1116 O   0  0  0  0  0  0  0  0  0  0  0  0
   16.5709   25.6051   14.7456 C   0  0  1  0  0  0  0  0  0  0  0  0
   17.4904   26.3579   15.5051 O   0  0  0  0  0  0  0  0  0  0  0  0
   17.3203   24.8565   13.6550 C   0  0  0  0  0  0  0  0  0  0  0  0
   15.3122   24.8660   11.6673 N   0  0  0  0  0  0  0  0  0  0  0  0
   14.2803   24.8725   10.7510 C   0  0  0  0  0  0  0  0  0  0  0  0
   13.3287   24.0979   10.8841 O   0  0  0  0  0  0  0  0  0  0  0  0
   14.3241   25.7429    9.6807 N   0  0  0  0  0  0  0  0  0  0  0  0
   15.3935   26.6046    9.5243 C   0  0  0  0  0  0  0  0  0  0  0  0
   16.4258   26.6024   10.4391 C   0  0  1  0  0  0  0  0  0  0  0  0
   15.4407   27.3914    8.5803 O   0  0  0  0  0  0  0  0  0  0  0  0
   18.5170   27.4775   11.1848 C   0  0  2  0  0  0  0  0  0  0  0  0
   17.4842   27.4738   10.2697 N   0  0  0  0  0  0  0  0  0  0  0  0
   19.5862   28.3537   11.0150 C   0  0  0  0  0  0  0  0  0  0  0  0
   20.6361   28.3601   11.9279 C   0  0  1  0  0  0  0  0  0  0  0  0
   21.7776   29.3200   11.7355 C   0  0  0  0  0  0  0  0  0  0  0  0
   20.6103   27.4841   13.0191 C   0  0  1  0  0  0  0  0  0  0  0  0
   21.7204   27.4777   14.0291 C   0  0  0  0  0  0  0  0  0  0  0  0
   19.5397   26.6106   13.1856 C   0  0  0  0  0  0  0  0  0  0  0  0
   18.4882   26.5991   12.2722 C   0  0  2  0  0  0  0  0  0  0  0  0
   16.3858   25.7291   11.5200 C   0  0  2  0  0  0  0  0  0  0  0  0
   17.4234   25.7204   12.4323 N   0  0  0  0  0  0  0  0  0  0  0  0
  1  2  1  6  0  0  0
  1  3  1  0  0  0  0
  1  4  2  0  0  0  0
  1  6  1  0  0  0  0
  5  6  1  0  0  0  0
  7  5  1  6  0  0  0
  7  8  1  0  0  0  0
  7  9  1  0  0  0  0
  9 10  1  6  0  0  0
  9 11  1  0  0  0  0
 11 12  1  1  0  0  0
 11 13  1  0  0  0  0
 13 31  1  0  0  0  0
 14 15  1  0  0  0  0
 15 16  2  0  0  0  0
 15 17  1  0  0  0  0
 17 18  1  0  0  0  0
 18 20  2  0  0  0  0
 19 18  1  1  0  0  0
 19 22  1  0  0  0  0
 19 30  1  0  0  0  0
 21 23  1  6  0  0  0
 21 29  1  0  0  0  0
 21 22  1  0  0  0  0
 23 24  1  0  0  0  0
 24 25  1  1  0  0  0
 24 26  1  0  0  0  0
 26 27  1  1  0  0  0
 26 28  1  0  0  0  0
 29 28  1  6  0  0  0
 29 31  1  0  0  0  0
 30 14  1  6  0  0  0
 30 31  1  0  0  0  0
M  CHG  1   3  -1
M  END
>  <CHROM.1>
156.15693474,149.54160665,52.05052811,-177.32935645,100.24377498,149.17448731
88.44659016,16.07228995,26.65260288,13.69189927,-2.33523178,-0.29380125,-1.88537285

>  <Name>
ligand

>  <RI>
0

>  <Rbt.Current_Directory>
/home/itssahil/PROJECTS/Mol_Feturizer/New_Systems/rnas/3F2Q

>  <Rbt.Executable>
rbdock ($Id: //depot/dev/client3/rdock/2013.1/src/exe/rbdock.cxx#4 $)

>  <Rbt.Library>
libRbt.so (2013.1, Build901 2013/11/27)

>  <Rbt.Parameter_File>
/export/apps/rDock/src/rDock_2013.1_src/data/scripts/dock_solv.prm

>  <Rbt.Receptor>
prm/blind_docking_40.prm

>  <SCORE>
-4.62853

>  <SCORE.INTER>
-7.65137

>  <SCORE.INTER.CONST>
1

>  <SCORE.INTER.POLAR>
0

>  <SCORE.INTER.ROT>
7

>  <SCORE.INTER.SOLV>
22.7621

>  <SCORE.INTER.VDW>
-20.9549

>  <SCORE.INTER.norm>
-0.246818

>  <SCORE.INTRA>
0.393522

>  <SCORE.INTRA.DIHEDRAL>
1.75682

>  <SCORE.INTRA.DIHEDRAL.0>
10.0718

>  <SCORE.INTRA.POLAR>
0

>  <SCORE.INTRA.POLAR.0>
0

>  <SCORE.INTRA.REPUL>
0

>  <SCORE.INTRA.REPUL.0>
0

>  <SCORE.INTRA.SOLV>
-0.7713

>  <SCORE.INTRA.SOLV.lig_0>
-48.6963

>  <SCORE.INTRA.VDW>
-0.0992383

>  <SCORE.INTRA.VDW.0>
-0.836976

>  <SCORE.INTRA.norm>
0.0126943

>  <SCORE.RESTR>
2.62932

>  <SCORE.RESTR.CAVITY>
2.62932

>  <SCORE.RESTR.norm>
0.0848167

>  <SCORE.SYSTEM>
0

>  <SCORE.SYSTEM.CONST>
0

>  <SCORE.SYSTEM.DIHEDRAL>
0

>  <SCORE.SYSTEM.SOLV>
0

>  <SCORE.SYSTEM.norm>
0

>  <SCORE.heavy>
31

>  <SCORE.norm>
-0.149307

>  <RMSD>
18.117

$$$$
ligand
 OpenBabel11021811473D
libRbt.so/2013.1/901 2013/11/27
 31 33  0  0  0  0  0  0  0  0999 V2000
   12.7162   28.3611   17.9267 P   0  0  1  0  0  0  0  0  0  0  0  0
   12.1918   29.2548   16.8231 O   0  0  0  0  0  0  0  0  0  0  0  0
   13.9174   29.0335   18.5353 O   0  5  0  0  0  0  0  0  0  0  0  0
   11.6618   28.1643   18.9808 O   0  0  0  0  0  0  0  0  0  0  0  0
   14.2222   26.7299   16.5656 C   0  0  0  0  0  0  0  0  0  0  0  0
   13.0542   26.9157   17.3275 O   0  0  0  0  0  0  0  0  0  0  0  0
   14.2908   25.2816   16.1041 C   0  0  1  0  0  0  0  0  0  0  0  0
   13.5879   25.1628   14.8854 O   0  0  0  0  0  0  0  0  0  0  0  0
   15.7463   24.8501   15.9246 C   0  0  1  0  0  0  0  0  0  0  0  0
   15.7953   23.4878   15.5582 O   0  0  0  0  0  0  0  0  0  0  0  0
   16.5313   25.7203   14.9331 C   0  0  1  0  0  0  0  0  0  0  0  0
   17.5137   26.4634   15.6198 O   0  0  0  0  0  0  0  0  0  0  0  0
   17.1991   24.9019   13.8397 C   0  0  0  0  0  0  0  0  0  0  0  0
   15.1459   24.8962   11.8986 N   0  0  0  0  0  0  0  0  0  0  0  0
   14.0934   24.8984   11.0061 C   0  0  0  0  0  0  0  0  0  0  0  0
   13.1262   24.1534   11.1869 O   0  0  0  0  0  0  0  0  0  0  0  0
   14.1338   25.7310    9.9060 N   0  0  0  0  0  0  0  0  0  0  0  0
   15.2203   26.5593    9.6962 C   0  0  0  0  0  0  0  0  0  0  0  0
   16.2734   26.5613   10.5871 C   0  0  1  0  0  0  0  0  0  0  0  0
   15.2650   27.3125    8.7251 O   0  0  0  0  0  0  0  0  0  0  0  0
   18.4025   27.4071   11.2552 C   0  0  2  0  0  0  0  0  0  0  0  0
   17.3489   27.3991   10.3642 N   0  0  0  0  0  0  0  0  0  0  0  0
   19.4889   28.2494   11.0315 C   0  0  0  0  0  0  0  0  0  0  0  0
   20.5597   28.2594   11.9197 C   0  0  1  0  0  0  0  0  0  0  0  0
   21.7199   29.1828   11.6690 C   0  0  0  0  0  0  0  0  0  0  0  0
   20.5376   27.4216   13.0405 C   0  0  1  0  0  0  0  0  0  0  0  0
   21.6706   27.4205   14.0248 C   0  0  0  0  0  0  0  0  0  0  0  0
   19.4499   26.5818   13.2608 C   0  0  0  0  0  0  0  0  0  0  0  0
   18.3773   26.5667   12.3723 C   0  0  2  0  0  0  0  0  0  0  0  0
   16.2369   25.7261   11.6978 C   0  0  2  0  0  0  0  0  0  0  0  0
   17.2950   25.7214   12.5863 N   0  0  0  0  0  0  0  0  0  0  0  0
  1  2  1  6  0  0  0
  1  3  1  0  0  0  0
  1  4  2  0  0  0  0
  1  6  1  0  0  0  0
  5  6  1  0  0  0  0
  7  5  1  6  0  0  0
  7  8  1  0  0  0  0
  7  9  1  0  0  0  0
  9 10  1  6  0  0  0
  9 11  1  0  0  0  0
 11 12  1  1  0  0  0
 11 13  1  0  0  0  0
 13 31  1  0  0  0  0
 14 15  1  0  0  0  0
 15 16  2  0  0  0  0
 15 17  1  0  0  0  0
 17 18  1  0  0  0  0
 18 20  2  0  0  0  0
 19 18  1  1  0  0  0
 19 22  1  0  0  0  0
 19 30  1  0  0  0  0
 21 23  1  6  0  0  0
 21 29  1  0  0  0  0
 21 22  1  0  0  0  0
 23 24  1  0  0  0  0
 24 25  1  1  0  0  0
 24 26  1  0  0  0  0
 26 27  1  1  0  0  0
 26 28  1  0  0  0  0
 29 28  1  6  0  0  0
 29 31  1  0  0  0  0
 30 14  1  6  0  0  0
 30 31  1  0  0  0  0
M  CHG  1   3  -1
M  END
>  <CHROM.1>
-179.15026425,76.20833294,87.47912577,177.23655322,111.84703513,149.96005172
86.78187809,15.95408427,26.66857433,13.83090032,-2.33851201,-0.25983641,-1.87612870

>  <Name>
ligand

>  <RI>
0

>  <Rbt.Current_Directory>
/home/itssahil/PROJECTS/Mol_Feturizer/New_Systems/rnas/3F2Q

>  <Rbt.Executable>
rbdock ($Id: //depot/dev/client3/rdock/2013.1/src/exe/rbdock.cxx#4 $)

>  <Rbt.Library>
libRbt.so (2013.1, Build901 2013/11/27)

>  <Rbt.Parameter_File>
/export/apps/rDock/src/rDock_2013.1_src/data/scripts/dock_solv.prm

>  <Rbt.Receptor>
prm/blind_docking_40.prm

>  <SCORE>
-5.14079

>  <SCORE.INTER>
-7.20729

>  <SCORE.INTER.CONST>
1

>  <SCORE.INTER.POLAR>
0

>  <SCORE.INTER.ROT>
7

>  <SCORE.INTER.SOLV>
21.3957

>  <SCORE.INTER.VDW>
-20.2034

>  <SCORE.INTER.norm>
-0.232493

>  <SCORE.INTRA>
-0.395355

>  <SCORE.INTRA.DIHEDRAL>
1.47606

>  <SCORE.INTRA.DIHEDRAL.0>
10.0718

>  <SCORE.INTRA.POLAR>
0

>  <SCORE.INTRA.POLAR.0>
0

>  <SCORE.INTRA.REPUL>
0

>  <SCORE.INTRA.REPUL.0>
0

>  <SCORE.INTRA.SOLV>
-1.32919

>  <SCORE.INTRA.SOLV.lig_0>
-48.6963

>  <SCORE.INTRA.VDW>
-0.468789

>  <SCORE.INTRA.VDW.0>
-0.836976

>  <SCORE.INTRA.norm>
-0.0127534

>  <SCORE.RESTR>
2.46186

>  <SCORE.RESTR.CAVITY>
2.46186

>  <SCORE.RESTR.norm>
0.0794149

>  <SCORE.SYSTEM>
0

>  <SCORE.SYSTEM.CONST>
0

>  <SCORE.SYSTEM.DIHEDRAL>
0

>  <SCORE.SYSTEM.SOLV>
0

>  <SCORE.SYSTEM.norm>
0

>  <SCORE.heavy>
31

>  <SCORE.norm>
-0.165832

>  <RMSD>
18.140

$$$$
ligand
 OpenBabel11021811473D
libRbt.so/2013.1/901 2013/11/27
 31 33  0  0  0  0  0  0  0  0999 V2000
   12.4533   28.2596   18.1002 P   0  0  1  0  0  0  0  0  0  0  0  0
   12.7349   27.7205   19.4864 O   0  0  0  0  0  0  0  0  0  0  0  0
   11.0090   28.6799   18.0516 O   0  5  0  0  0  0  0  0  0  0  0  0
   13.3326   29.4461   17.8158 O   0  0  0  0  0  0  0  0  0  0  0  0
   14.1521   26.9019   16.6675 C   0  0  0  0  0  0  0  0  0  0  0  0
   12.8090   27.1420   17.0106 O   0  0  0  0  0  0  0  0  0  0  0  0
   14.3018   25.4542   16.2237 C   0  0  1  0  0  0  0  0  0  0  0  0
   13.6654   25.2978   14.9731 O   0  0  0  0  0  0  0  0  0  0  0  0
   15.7806   25.0810   16.1200 C   0  0  1  0  0  0  0  0  0  0  0  0
   15.9058   23.6880   15.9291 O   0  0  0  0  0  0  0  0  0  0  0  0
   16.5404   25.8604   15.0377 C   0  0  1  0  0  0  0  0  0  0  0  0
   17.5984   26.5867   15.6225 O   0  0  0  0  0  0  0  0  0  0  0  0
   17.0981   24.9561   13.9501 C   0  0  0  0  0  0  0  0  0  0  0  0
   15.0403   24.9080   12.0145 N   0  0  0  0  0  0  0  0  0  0  0  0
   13.9857   24.8926   11.1244 C   0  0  0  0  0  0  0  0  0  0  0  0
   13.0064   24.1721   11.3366 O   0  0  0  0  0  0  0  0  0  0  0  0
   14.0376   25.6797    9.9918 N   0  0  0  0  0  0  0  0  0  0  0  0
   15.1376   26.4802    9.7472 C   0  0  0  0  0  0  0  0  0  0  0  0
   16.1927   26.4999   10.6354 C   0  0  1  0  0  0  0  0  0  0  0  0
   15.1927   27.1932    8.7467 O   0  0  0  0  0  0  0  0  0  0  0  0
   18.3376   27.3350   11.2653 C   0  0  2  0  0  0  0  0  0  0  0  0
   17.2818   27.3095   10.3772 N   0  0  0  0  0  0  0  0  0  0  0  0
   19.4376   28.1490   11.0062 C   0  0  0  0  0  0  0  0  0  0  0  0
   20.5107   28.1762   11.8915 C   0  0  1  0  0  0  0  0  0  0  0  0
   21.6858   29.0688   11.6019 C   0  0  0  0  0  0  0  0  0  0  0  0
   20.4770   27.3843   13.0449 C   0  0  1  0  0  0  0  0  0  0  0  0
   21.6122   27.4032   14.0264 C   0  0  0  0  0  0  0  0  0  0  0  0
   19.3756   26.5728   13.3005 C   0  0  0  0  0  0  0  0  0  0  0  0
   18.3008   26.5405   12.4152 C   0  0  2  0  0  0  0  0  0  0  0  0
   16.1447   25.7104   11.7787 C   0  0  2  0  0  0  0  0  0  0  0  0
   17.2048   25.7231   12.6647 N   0  0  0  0  0  0  0  0  0  0  0  0
  1  2  1  1  0  0  0
  1  3  1  0  0  0  0
  1  4  2  0  0  0  0
  1  6  1  0  0  0  0
  5  6  1  0  0  0  0
  7  5  1  6  0  0  0
  7  8  1  0  0  0  0
  7  9  1  0  0  0  0
  9 10  1  6  0  0  0
  9 11  1  0  0  0  0
 11 12  1  1  0  0  0
 11 13  1  0  0  0  0
 13 31  1  0  0  0  0
 14 15  1  0  0  0  0
 15 16  2  0  0  0  0
 15 17  1  0  0  0  0
 17 18  1  0  0  0  0
 18 20  2  0  0  0  0
 19 18  1  1  0  0  0
 19 22  1  0  0  0  0
 19 30  1  0  0  0  0
 21 23  1  6  0  0  0
 21 29  1  0  0  0  0
 21 22  1  0  0  0  0
 23 24  1  0  0  0  0
 24 25  1  1  0  0  0
 24 26  1  0  0  0  0
 26 27  1  1  0  0  0
 26 28  1  0  0  0  0
 29 28  1  6  0  0  0
 29 31  1  0  0  0  0
 30 14  1  6  0  0  0
 30 31  1  0  0  0  0
M  CHG  1   3  -1
M  END
>  <CHROM.1>
151.70207640,-77.23364356,70.42502032,170.22166762,120.34184330,152.27067278
82.69437967,15.86734377,26.66212100,13.92532712,-2.33165833,-0.22670045,-1.84890656

>  <Name>
ligand

>  <RI>
0

>  <Rbt.Current_Directory>
/home/itssahil/PROJECTS/Mol_Feturizer/New_Systems/rnas/3F2Q

>  <Rbt.Executable>
rbdock ($Id: //depot/dev/client3/rdock/2013.1/src/exe/rbdock.cxx#4 $)

>  <Rbt.Library>
libRbt.so (2013.1, Build901 2013/11/27)

>  <Rbt.Parameter_File>
/export/apps/rDock/src/rDock_2013.1_src/data/scripts/dock_solv.prm

>  <Rbt.Receptor>
prm/blind_docking_40.prm

>  <SCORE>
-2.894

>  <SCORE.INTER>
-5.76594

>  <SCORE.INTER.CONST>
1

>  <SCORE.INTER.POLAR>
0

>  <SCORE.INTER.ROT>
7

>  <SCORE.INTER.SOLV>
19.2694

>  <SCORE.INTER.VDW>
-18.5337

>  <SCORE.INTER.norm>
-0.185998

>  <SCORE.INTRA>
0.572365

>  <SCORE.INTRA.DIHEDRAL>
3.17081

>  <SCORE.INTRA.DIHEDRAL.0>
10.0718

>  <SCORE.INTRA.POLAR>
0

>  <SCORE.INTRA.POLAR.0>
0

>  <SCORE.INTRA.REPUL>
0

>  <SCORE.INTRA.REPUL.0>
0

>  <SCORE.INTRA.SOLV>
-1.16473

>  <SCORE.INTRA.SOLV.lig_0>
-48.6963

>  <SCORE.INTRA.VDW>
-0.430674

>  <SCORE.INTRA.VDW.0>
-0.836976

>  <SCORE.INTRA.norm>
0.0184634

>  <SCORE.RESTR>
2.29957

>  <SCORE.RESTR.CAVITY>
2.29957

>  <SCORE.RESTR.norm>
0.0741797

>  <SCORE.SYSTEM>
0

>  <SCORE.SYSTEM.CONST>
0

>  <SCORE.SYSTEM.DIHEDRAL>
0

>  <SCORE.SYSTEM.SOLV>
0

>  <SCORE.SYSTEM.norm>
0

>  <SCORE.heavy>
31

>  <SCORE.norm>
-0.0933548

>  <RMSD>
18.173

$$$$
ligand
 OpenBabel11021811473D
libRbt.so/2013.1/901 2013/11/27
 31 33  0  0  0  0  0  0  0  0999 V2000
   12.9312   28.2167   18.2223 P   0  0  1  0  0  0  0  0  0  0  0  0
   12.8662   28.1046   19.7305 O   0  0  0  0  0  0  0  0  0  0  0  0
   11.5617   28.5964   17.7268 O   0  5  0  0  0  0  0  0  0  0  0  0
   13.9223   29.2748   17.8223 O   0  0  0  0  0  0  0  0  0  0  0  0
   13.5119   26.6684   16.2105 C   0  0  0  0  0  0  0  0  0  0  0  0
   13.4499   26.8331   17.6063 O   0  0  0  0  0  0  0  0  0  0  0  0
   14.0733   25.2895   15.8961 C   0  0  1  0  0  0  0  0  0  0  0  0
   13.8464   25.0108   14.5307 O   0  0  0  0  0  0  0  0  0  0  0  0
   15.5687   25.2413   16.2091 C   0  0  1  0  0  0  0  0  0  0  0  0
   15.9700   23.9016   16.4011 O   0  0  0  0  0  0  0  0  0  0  0  0
   16.4433   25.9376   15.1571 C   0  0  1  0  0  0  0  0  0  0  0  0
   17.5299   26.5804   15.7855 O   0  0  0  0  0  0  0  0  0  0  0  0
   16.9735   24.9734   14.1079 C   0  0  0  0  0  0  0  0  0  0  0  0
   14.9242   24.9114   12.1638 N   0  0  0  0  0  0  0  0  0  0  0  0
   13.8737   24.8927   11.2690 C   0  0  0  0  0  0  0  0  0  0  0  0
   12.8720   24.2111   11.5036 O   0  0  0  0  0  0  0  0  0  0  0  0
   13.9547   25.6327   10.1067 N   0  0  0  0  0  0  0  0  0  0  0  0
   15.0797   26.3893    9.8372 C   0  0  0  0  0  0  0  0  0  0  0  0
   16.1308   26.4121   10.7300 C   0  0  1  0  0  0  0  0  0  0  0  0
   15.1610   27.0604    8.8098 O   0  0  0  0  0  0  0  0  0  0  0  0
   18.2972   27.2062   11.3391 C   0  0  2  0  0  0  0  0  0  0  0  0
   17.2452   27.1776   10.4466 N   0  0  0  0  0  0  0  0  0  0  0  0
   19.4227   27.9757   11.0546 C   0  0  0  0  0  0  0  0  0  0  0  0
   20.4920   28.0053   11.9443 C   0  0  1  0  0  0  0  0  0  0  0  0
   21.6950   28.8498   11.6268 C   0  0  0  0  0  0  0  0  0  0  0  0
   20.4289   27.2608   13.1277 C   0  0  1  0  0  0  0  0  0  0  0  0
   21.5597   27.2841   14.1143 C   0  0  0  0  0  0  0  0  0  0  0  0
   19.3022   26.4937   13.4086 C   0  0  0  0  0  0  0  0  0  0  0  0
   18.2310   26.4590   12.5190 C   0  0  2  0  0  0  0  0  0  0  0  0
   16.0536   25.6701   11.9031 C   0  0  2  0  0  0  0  0  0  0  0  0
   17.1095   25.6856   12.7941 N   0  0  0  0  0  0  0  0  0  0  0  0
  1  2  1  1  0  0  0
  1  3  1  0  0  0  0
  1  4  2  0  0  0  0
  1  6  1  0  0  0  0
  5  6  1  0  0  0  0
  7  5  1  6  0  0  0
  7  8  1  0  0  0  0
  7  9  1  0  0  0  0
  9 10  1  6  0  0  0
  9 11  1  0  0  0  0
 11 12  1  1  0  0  0
 11 13  1  0  0  0  0
 13 31  1  0  0  0  0
 14 15  1  0  0  0  0
 15 16  2  0  0  0  0
 15 17  1  0  0  0  0
 17 18  1  0  0  0  0
 18 20  2  0  0  0  0
 19 18  1  1  0  0  0
 19 22  1  0  0  0  0
 19 30  1  0  0  0  0
 21 23  1  6  0  0  0
 21 29  1  0  0  0  0
 21 22  1  0  0  0  0
 23 24  1  0  0  0  0
 24 25  1  1  0  0  0
 24 26  1  0  0  0  0
 26 27  1  1  0  0  0
 26 28  1  0  0  0  0
 29 28  1  6  0  0  0
 29 31  1  0  0  0  0
 30 14  1  6  0  0  0
 30 31  1  0  0  0  0
M  CHG  1   3  -1
M  END
>  <CHROM.1>
178.34024657,175.98239971,166.57801897,158.20740344,143.69076435,148.06173232
82.49827099,15.90197256,26.59774899,13.99762248,-2.28471331,-0.23688306,-1.84139270

>  <Name>
ligand

>  <RI>
0

>  <Rbt.Current_Directory>
/home/itssahil/PROJECTS/Mol_Feturizer/New_Systems/rnas/3F2Q

>  <Rbt.Executable>
rbdock ($Id: //depot/dev/client3/rdock/2013.1/src/exe/rbdock.cxx#4 $)

>  <Rbt.Library>
libRbt.so (2013.1, Build901 2013/11/27)

>  <Rbt.Parameter_File>
/export/apps/rDock/src/rDock_2013.1_src/data/scripts/dock_solv.prm

>  <Rbt.Receptor>
prm/blind_docking_40.prm

>  <SCORE>
-2.77414

>  <SCORE.INTER>
-3.61619

>  <SCORE.INTER.CONST>
1

>  <SCORE.INTER.POLAR>
0

>  <SCORE.INTER.ROT>
7

>  <SCORE.INTER.SOLV>
21.6342

>  <SCORE.INTER.VDW>
-17.8889

>  <SCORE.INTER.norm>
-0.116651

>  <SCORE.INTRA>
-1.72228

>  <SCORE.INTRA.DIHEDRAL>
-0.261017

>  <SCORE.INTRA.DIHEDRAL.0>
10.0718

>  <SCORE.INTRA.POLAR>
0

>  <SCORE.INTRA.POLAR.0>
0

>  <SCORE.INTRA.REPUL>
0

>  <SCORE.INTRA.REPUL.0>
0

>  <SCORE.INTRA.SOLV>
-0.362856

>  <SCORE.INTRA.SOLV.lig_0>
-48.6963

>  <SCORE.INTRA.VDW>
-1.41034

>  <SCORE.INTRA.VDW.0>
-0.836976

>  <SCORE.INTRA.norm>
-0.0555573

>  <SCORE.RESTR>
2.56433

>  <SCORE.RESTR.CAVITY>
2.56433

>  <SCORE.RESTR.norm>
0.0827203

>  <SCORE.SYSTEM>
0

>  <SCORE.SYSTEM.CONST>
0

>  <SCORE.SYSTEM.DIHEDRAL>
0

>  <SCORE.SYSTEM.SOLV>
0

>  <SCORE.SYSTEM.norm>
0

>  <SCORE.heavy>
31

>  <SCORE.norm>
-0.0894883

>  <RMSD>
18.179

$$$$
ligand
 OpenBabel11021811473D
libRbt.so/2013.1/901 2013/11/27
 31 33  0  0  0  0  0  0  0  0999 V2000
   12.7147   27.6143   17.6631 P   0  0  1  0  0  0  0  0  0  0  0  0
   13.2140   29.0337   17.8289 O   0  0  0  0  0  0  0  0  0  0  0  0
   12.5796   27.0081   19.0340 O   0  5  0  0  0  0  0  0  0  0  0  0
   11.3761   27.6113   16.9774 O   0  0  0  0  0  0  0  0  0  0  0  0
   13.7517   25.3947   16.7803 C   0  0  0  0  0  0  0  0  0  0  0  0
   13.7233   26.8002   16.7238 O   0  0  0  0  0  0  0  0  0  0  0  0
   14.7827   24.8770   15.7881 C   0  0  1  0  0  0  0  0  0  0  0  0
   14.2449   24.9752   14.4864 O   0  0  0  0  0  0  0  0  0  0  0  0
   16.0747   25.6871   15.8940 C   0  0  1  0  0  0  0  0  0  0  0  0
   16.7097   25.4083   17.1234 O   0  0  0  0  0  0  0  0  0  0  0  0
   17.0338   25.4783   14.7137 C   0  0  1  0  0  0  0  0  0  0  0  0
   16.5053   24.5143   13.8304 O   0  0  0  0  0  0  0  0  0  0  0  0
   17.3034   26.7628   13.9463 C   0  0  0  0  0  0  0  0  0  0  0  0
   15.4503   25.8391   12.0237 N   0  0  0  0  0  0  0  0  0  0  0  0
   14.4977   25.4405   11.1083 C   0  0  0  0  0  0  0  0  0  0  0  0
   13.3310   25.2589   11.4675 O   0  0  0  0  0  0  0  0  0  0  0  0
   14.8598   25.2369    9.7920 N   0  0  0  0  0  0  0  0  0  0  0  0
   16.1679   25.4303    9.3894 C   0  0  0  0  0  0  0  0  0  0  0  0
   17.1225   25.8306   10.3010 C   0  0  1  0  0  0  0  0  0  0  0  0
   16.5021   25.2613    8.2180 O   0  0  0  0  0  0  0  0  0  0  0  0
   19.3809   26.4280   10.7880 C   0  0  2  0  0  0  0  0  0  0  0  0
   18.4238   26.0237    9.8799 N   0  0  0  0  0  0  0  0  0  0  0  0
   20.6942   26.6213   10.3663 C   0  0  0  0  0  0  0  0  0  0  0  0
   21.6683   27.0216   11.2755 C   0  0  1  0  0  0  0  0  0  0  0  0
   23.0791   27.2361   10.8012 C   0  0  0  0  0  0  0  0  0  0  0  0
   21.3208   27.2320   12.6147 C   0  0  1  0  0  0  0  0  0  0  0  0
   22.3456   27.6785   13.6162 C   0  0  0  0  0  0  0  0  0  0  0  0
   20.0073   27.0384   13.0320 C   0  0  0  0  0  0  0  0  0  0  0  0
   19.0298   26.6348   12.1254 C   0  0  2  0  0  0  0  0  0  0  0  0
   16.7627   26.0389   11.6276 C   0  0  2  0  0  0  0  0  0  0  0  0
   17.7200   26.4318   12.5432 N   0  0  0  0  0  0  0  0  0  0  0  0
  1  2  1  1  0  0  0
  1  3  1  0  0  0  0
  1  4  2  0  0  0  0
  1  6  1  0  0  0  0
  5  6  1  0  0  0  0
  7  5  1  1  0  0  0
  7  8  1  0  0  0  0
  7  9  1  0  0  0  0
  9 10  1  1  0  0  0
  9 11  1  0  0  0  0
 11 12  1  6  0  0  0
 11 13  1  0  0  0  0
 13 31  1  0  0  0  0
 14 15  1  0  0  0  0
 15 16  2  0  0  0  0
 15 17  1  0  0  0  0
 17 18  1  0  0  0  0
 18 20  2  0  0  0  0
 19 18  1  6  0  0  0
 19 22  1  0  0  0  0
 19 30  1  0  0  0  0
 21 23  1  1  0  0  0
 21 29  1  0  0  0  0
 21 22  1  0  0  0  0
 23 24  1  0  0  0  0
 24 25  1  6  0  0  0
 24 26  1  0  0  0  0
 26 27  1  6  0  0  0
 26 28  1  0  0  0  0
 29 28  1  1  0  0  0
 29 31  1  0  0  0  0
 30 14  1  1  0  0  0
 30 31  1  0  0  0  0
M  CHG  1   3  -1
M  END
>  <CHROM.1>
179.62632599,158.27372739,-75.85347544,69.27837638,-3.01485714,-155.83376790
-109.56615979,16.41685977,26.30909222,13.59091508,-2.39683296,-0.17245238
-1.82215836

>  <Name>
ligand

>  <RI>
0

>  <Rbt.Current_Directory>
/home/itssahil/PROJECTS/Mol_Feturizer/New_Systems/rnas/3F2Q

>  <Rbt.Executable>
rbdock ($Id: //depot/dev/client3/rdock/2013.1/src/exe/rbdock.cxx#4 $)

>  <Rbt.Library>
libRbt.so (2013.1, Build901 2013/11/27)

>  <Rbt.Parameter_File>
/export/apps/rDock/src/rDock_2013.1_src/data/scripts/dock_solv.prm

>  <Rbt.Receptor>
prm/blind_docking_40.prm

>  <SCORE>
3.46693

>  <SCORE.INTER>
-3.38073

>  <SCORE.INTER.CONST>
1

>  <SCORE.INTER.POLAR>
0

>  <SCORE.INTER.ROT>
7

>  <SCORE.INTER.SOLV>
14.7097

>  <SCORE.INTER.VDW>
-15.4237

>  <SCORE.INTER.norm>
-0.109056

>  <SCORE.INTRA>
1.53958

>  <SCORE.INTRA.DIHEDRAL>
0.355314

>  <SCORE.INTRA.DIHEDRAL.0>
10.0718

>  <SCORE.INTRA.POLAR>
0

>  <SCORE.INTRA.POLAR.0>
0

>  <SCORE.INTRA.REPUL>
0

>  <SCORE.INTRA.REPUL.0>
0

>  <SCORE.INTRA.SOLV>
0.256683

>  <SCORE.INTRA.SOLV.lig_0>
-48.6963

>  <SCORE.INTRA.VDW>
1.23359

>  <SCORE.INTRA.VDW.0>
-0.836976

>  <SCORE.INTRA.norm>
0.049664

>  <SCORE.RESTR>
5.30808

>  <SCORE.RESTR.CAVITY>
5.30808

>  <SCORE.RESTR.norm>
0.171228

>  <SCORE.SYSTEM>
0

>  <SCORE.SYSTEM.CONST>
0

>  <SCORE.SYSTEM.DIHEDRAL>
0

>  <SCORE.SYSTEM.SOLV>
0

>  <SCORE.SYSTEM.norm>
0

>  <SCORE.heavy>
31

>  <SCORE.norm>
0.111836

>  <RMSD>
18.187

$$$$
ligand
 OpenBabel11021811473D
libRbt.so/2013.1/901 2013/11/27
 31 33  0  0  0  0  0  0  0  0999 V2000
   11.7755   28.1908   17.9330 P   0  0  1  0  0  0  0  0  0  0  0  0
   12.2717   29.3930   17.1583 O   0  0  0  0  0  0  0  0  0  0  0  0
   12.1976   28.3584   19.3679 O   0  5  0  0  0  0  0  0  0  0  0  0
   10.2759   28.1062   17.8561 O   0  0  0  0  0  0  0  0  0  0  0  0
   13.7240   26.7605   16.9640 C   0  0  0  0  0  0  0  0  0  0  0  0
   12.3541   26.8533   17.2706 O   0  0  0  0  0  0  0  0  0  0  0  0
   14.0421   25.3371   16.5302 C   0  0  1  0  0  0  0  0  0  0  0  0
   13.4020   25.0878   15.2968 O   0  0  0  0  0  0  0  0  0  0  0  0
   15.5530   25.1486   16.3948 C   0  0  1  0  0  0  0  0  0  0  0  0
   15.8315   23.8249   15.9914 O   0  0  0  0  0  0  0  0  0  0  0  0
   16.2216   26.1663   15.4601 C   0  0  1  0  0  0  0  0  0  0  0  0
   16.1657   27.4536   16.0333 O   0  0  0  0  0  0  0  0  0  0  0  0
   17.6703   25.8177   15.1580 C   0  0  0  0  0  0  0  0  0  0  0  0
   20.0879   26.8642   14.1365 N   0  0  0  0  0  0  0  0  0  0  0  0
   21.3054   27.3344   13.6881 C   0  0  0  0  0  0  0  0  0  0  0  0
   22.1436   27.7500   14.4931 O   0  0  0  0  0  0  0  0  0  0  0  0
   21.5754   27.3460   12.3346 N   0  0  0  0  0  0  0  0  0  0  0  0
   20.6345   26.8900   11.4306 C   0  0  0  0  0  0  0  0  0  0  0  0
   19.4173   26.4175   11.8750 C   0  0  1  0  0  0  0  0  0  0  0  0
   20.8657   26.8864   10.2227 O   0  0  0  0  0  0  0  0  0  0  0  0
   17.2734   25.4840   11.3984 C   0  0  2  0  0  0  0  0  0  0  0  0
   18.4907   25.9612   10.9576 N   0  0  0  0  0  0  0  0  0  0  0  0
   16.3368   25.0254   10.4753 C   0  0  0  0  0  0  0  0  0  0  0  0
   15.1035   24.5492   10.9089 C   0  0  1  0  0  0  0  0  0  0  0  0
   14.1079   24.0478    9.8996 C   0  0  0  0  0  0  0  0  0  0  0  0
   14.8107   24.5305   12.2773 C   0  0  1  0  0  0  0  0  0  0  0  0
   13.4951   24.0090   12.7772 C   0  0  0  0  0  0  0  0  0  0  0  0
   15.7495   24.9891   13.1966 C   0  0  0  0  0  0  0  0  0  0  0  0
   16.9842   25.4693   12.7663 C   0  0  2  0  0  0  0  0  0  0  0  0
   19.1409   26.4018   13.2373 C   0  0  2  0  0  0  0  0  0  0  0  0
   17.9186   25.9364   13.6829 N   0  0  0  0  0  0  0  0  0  0  0  0
  1  2  1  6  0  0  0
  1  3  1  0  0  0  0
  1  4  2  0  0  0  0
  1  6  1  0  0  0  0
  5  6  1  0  0  0  0
  7  5  1  6  0  0  0
  7  8  1  0  0  0  0
  7  9  1  0  0  0  0
  9 10  1  6  0  0  0
  9 11  1  0  0  0  0
 11 12  1  1  0  0  0
 11 13  1  0  0  0  0
 13 31  1  0  0  0  0
 14 15  1  0  0  0  0
 15 16  2  0  0  0  0
 15 17  1  0  0  0  0
 17 18  1  0  0  0  0
 18 20  2  0  0  0  0
 19 18  1  1  0  0  0
 19 22  1  0  0  0  0
 19 30  1  0  0  0  0
 21 23  1  6  0  0  0
 21 29  1  0  0  0  0
 21 22  1  0  0  0  0
 23 24  1  0  0  0  0
 24 25  1  1  0  0  0
 24 26  1  0  0  0  0
 26 27  1  1  0  0  0
 26 28  1  0  0  0  0
 29 28  1  6  0  0  0
 29 31  1  0  0  0  0
 30 14  1  6  0  0  0
 30 31  1  0  0  0  0
M  CHG  1   3  -1
M  END
>  <CHROM.1>
172.25418453,48.31203979,67.40458273,-179.95751247,67.82917930,133.10580364
-41.86021978,16.06383891,26.33267847,14.38399532,-2.54745427,-0.24157534
-2.09960905

>  <Name>
ligand

>  <RI>
0

>  <Rbt.Current_Directory>
/home/itssahil/PROJECTS/Mol_Feturizer/New_Systems/rnas/3F2Q

>  <Rbt.Executable>
rbdock ($Id: //depot/dev/client3/rdock/2013.1/src/exe/rbdock.cxx#4 $)

>  <Rbt.Library>
libRbt.so (2013.1, Build901 2013/11/27)

>  <Rbt.Parameter_File>
/export/apps/rDock/src/rDock_2013.1_src/data/scripts/dock_solv.prm

>  <Rbt.Receptor>
prm/blind_docking_40.prm

>  <SCORE>
14.1954

>  <SCORE.INTER>
8.03356

>  <SCORE.INTER.CONST>
1

>  <SCORE.INTER.POLAR>
0

>  <SCORE.INTER.ROT>
7

>  <SCORE.INTER.SOLV>
14.406

>  <SCORE.INTER.VDW>
-7.71295

>  <SCORE.INTER.norm>
0.259147

>  <SCORE.INTRA>
1.39146

>  <SCORE.INTRA.DIHEDRAL>
-3.31987

>  <SCORE.INTRA.DIHEDRAL.0>
10.0718

>  <SCORE.INTRA.POLAR>
0

>  <SCORE.INTRA.POLAR.0>
0

>  <SCORE.INTRA.REPUL>
0

>  <SCORE.INTRA.REPUL.0>
0

>  <SCORE.INTRA.SOLV>
-0.9477

>  <SCORE.INTRA.SOLV.lig_0>
-48.6963

>  <SCORE.INTRA.VDW>
3.52524

>  <SCORE.INTRA.VDW.0>
-0.836976

>  <SCORE.INTRA.norm>
0.0448858

>  <SCORE.RESTR>
4.77035

>  <SCORE.RESTR.CAVITY>
4.77035

>  <SCORE.RESTR.norm>
0.153882

>  <SCORE.SYSTEM>
0

>  <SCORE.SYSTEM.CONST>
0

>  <SCORE.SYSTEM.DIHEDRAL>
0

>  <SCORE.SYSTEM.SOLV>
0

>  <SCORE.SYSTEM.norm>
0

>  <SCORE.heavy>
31

>  <SCORE.norm>
0.457915

>  <RMSD>
18.198

$$$$
ligand
 OpenBabel11021811473D
libRbt.so/2013.1/901 2013/11/27
 31 33  0  0  0  0  0  0  0  0999 V2000
   11.9041   27.4039   17.6111 P   0  0  1  0  0  0  0  0  0  0  0  0
   12.4179   28.4950   16.6961 O   0  0  0  0  0  0  0  0  0  0  0  0
   12.6051   27.5425   18.9357 O   0  5  0  0  0  0  0  0  0  0  0  0
   10.4203   27.5483   17.8095 O   0  0  0  0  0  0  0  0  0  0  0  0
   13.4021   25.3497   17.0475 C   0  0  0  0  0  0  0  0  0  0  0  0
   12.1482   25.9765   16.9289 O   0  0  0  0  0  0  0  0  0  0  0  0
   14.4216   26.1134   16.2151 C   0  0  1  0  0  0  0  0  0  0  0  0
   14.8062   27.2718   16.9247 O   0  0  0  0  0  0  0  0  0  0  0  0
   15.6389   25.2341   15.9292 C   0  0  1  0  0  0  0  0  0  0  0  0
   15.2159   23.9983   15.3940 O   0  0  0  0  0  0  0  0  0  0  0  0
   16.6850   25.9016   15.0256 C   0  0  1  0  0  0  0  0  0  0  0  0
   17.7902   26.3174   15.7968 O   0  0  0  0  0  0  0  0  0  0  0  0
   17.1694   24.9825   13.9156 C   0  0  0  0  0  0  0  0  0  0  0  0
   15.1188   24.9164   11.9728 N   0  0  0  0  0  0  0  0  0  0  0  0
   14.0676   24.8914   11.0792 C   0  0  0  0  0  0  0  0  0  0  0  0
   13.0959   24.1590   11.2859 O   0  0  0  0  0  0  0  0  0  0  0  0
   14.1142   25.6824    9.9490 N   0  0  0  0  0  0  0  0  0  0  0  0
   15.2057   26.4962    9.7105 C   0  0  0  0  0  0  0  0  0  0  0  0
   16.2575   26.5254   10.6023 C   0  0  1  0  0  0  0  0  0  0  0  0
   15.2560   27.2128    8.7122 O   0  0  0  0  0  0  0  0  0  0  0  0
   18.3904   27.3834   11.2420 C   0  0  2  0  0  0  0  0  0  0  0  0
   17.3380   27.3483   10.3503 N   0  0  0  0  0  0  0  0  0  0  0  0
   19.4819   28.2107   10.9890 C   0  0  0  0  0  0  0  0  0  0  0  0
   20.5516   28.2477   11.8780 C   0  0  1  0  0  0  0  0  0  0  0  0
   21.7173   29.1546   11.5951 C   0  0  0  0  0  0  0  0  0  0  0  0
   20.5231   27.4520   13.0290 C   0  0  1  0  0  0  0  0  0  0  0  0
   21.6548   27.4811   14.0145 C   0  0  0  0  0  0  0  0  0  0  0  0
   19.4303   26.6271   13.2785 C   0  0  0  0  0  0  0  0  0  0  0  0
   18.3589   26.5851   12.3894 C   0  0  2  0  0  0  0  0  0  0  0  0
   16.2148   25.7321   11.7431 C   0  0  2  0  0  0  0  0  0  0  0  0
   17.2716   25.7544   12.6329 N   0  0  0  0  0  0  0  0  0  0  0  0
  1  2  1  6  0  0  0
  1  3  1  0  0  0  0
  1  4  2  0  0  0  0
  1  6  1  0  0  0  0
  5  6  1  0  0  0  0
  7  5  1  1  0  0  0
  7  8  1  0  0  0  0
  7  9  1  0  0  0  0
  9 10  1  6  0  0  0
  9 11  1  0  0  0  0
 11 12  1  1  0  0  0
 11 13  1  0  0  0  0
 13 31  1  0  0  0  0
 14 15  1  0  0  0  0
 15 16  2  0  0  0  0
 15 17  1  0  0  0  0
 17 18  1  0  0  0  0
 18 20  2  0  0  0  0
 19 18  1  1  0  0  0
 19 22  1  0  0  0  0
 19 30  1  0  0  0  0
 21 23  1  6  0  0  0
 21 29  1  0  0  0  0
 21 22  1  0  0  0  0
 23 24  1  0  0  0  0
 24 25  1  1  0  0  0
 24 26  1  0  0  0  0
 26 27  1  1  0  0  0
 26 28  1  0  0  0  0
 29 28  1  6  0  0  0
 29 31  1  0  0  0  0
 30 14  1  6  0  0  0
 30 31  1  0  0  0  0
M  CHG  1   3  -1
M  END
>  <CHROM.1>
-70.39775640,83.25252213,78.08089903,51.54099315,104.47099313,137.81854055
78.96136946,15.78499521,26.54892536,13.86647630,-2.42997143,-0.21980108,-1.74851812

>  <Name>
ligand

>  <RI>
0

>  <Rbt.Current_Directory>
/home/itssahil/PROJECTS/Mol_Feturizer/New_Systems/rnas/3F2Q

>  <Rbt.Executable>
rbdock ($Id: //depot/dev/client3/rdock/2013.1/src/exe/rbdock.cxx#4 $)

>  <Rbt.Library>
libRbt.so (2013.1, Build901 2013/11/27)

>  <Rbt.Parameter_File>
/export/apps/rDock/src/rDock_2013.1_src/data/scripts/dock_solv.prm

>  <Rbt.Receptor>
prm/blind_docking_40.prm

>  <SCORE>
-2.59357

>  <SCORE.INTER>
-5.9811

>  <SCORE.INTER.CONST>
1

>  <SCORE.INTER.POLAR>
0

>  <SCORE.INTER.ROT>
7

>  <SCORE.INTER.SOLV>
14.5894

>  <SCORE.INTER.VDW>
-17.1172

>  <SCORE.INTER.norm>
-0.192939

>  <SCORE.INTRA>
1.35106

>  <SCORE.INTRA.DIHEDRAL>
2.36375

>  <SCORE.INTRA.DIHEDRAL.0>
10.0718

>  <SCORE.INTRA.POLAR>
0

>  <SCORE.INTRA.POLAR.0>
0

>  <SCORE.INTRA.REPUL>
0

>  <SCORE.INTRA.REPUL.0>
0

>  <SCORE.INTRA.SOLV>
0.927858

>  <SCORE.INTRA.SOLV.lig_0>
-48.6963

>  <SCORE.INTRA.VDW>
-0.294746

>  <SCORE.INTRA.VDW.0>
-0.836976

>  <SCORE.INTRA.norm>
0.0435825

>  <SCORE.RESTR>
2.03648

>  <SCORE.RESTR.CAVITY>
2.03648

>  <SCORE.RESTR.norm>
0.0656928

>  <SCORE.SYSTEM>
0

>  <SCORE.SYSTEM.CONST>
0

>  <SCORE.SYSTEM.DIHEDRAL>
0

>  <SCORE.SYSTEM.SOLV>
0

>  <SCORE.SYSTEM.norm>
0

>  <SCORE.heavy>
31

>  <SCORE.norm>
-0.0836635

>  <RMSD>
18.286

$$$$
ligand
 OpenBabel11021811473D
libRbt.so/2013.1/901 2013/11/27
 31 33  0  0  0  0  0  0  0  0999 V2000
   11.9081   27.3206   17.4398 P   0  0  1  0  0  0  0  0  0  0  0  0
   12.4128   28.3696   16.4721 O   0  0  0  0  0  0  0  0  0  0  0  0
   12.5843   27.5495   18.7647 O   0  5  0  0  0  0  0  0  0  0  0  0
   10.4184   27.4423   17.6074 O   0  0  0  0  0  0  0  0  0  0  0  0
   13.4658   25.2811   16.9974 C   0  0  0  0  0  0  0  0  0  0  0  0
   12.1941   25.8628   16.8434 O   0  0  0  0  0  0  0  0  0  0  0  0
   14.4774   26.0716   16.1806 C   0  0  1  0  0  0  0  0  0  0  0  0
   14.8027   27.2512   16.8849 O   0  0  0  0  0  0  0  0  0  0  0  0
   15.7322   25.2337   15.9352 C   0  0  1  0  0  0  0  0  0  0  0  0
   15.3636   23.9533   15.4689 O   0  0  0  0  0  0  0  0  0  0  0  0
   16.7444   25.8981   14.9916 C   0  0  1  0  0  0  0  0  0  0  0  0
   17.8796   26.3112   15.7193 O   0  0  0  0  0  0  0  0  0  0  0  0
   17.1831   24.9773   13.8641 C   0  0  0  0  0  0  0  0  0  0  0  0
   15.1406   24.9230   11.9125 N   0  0  0  0  0  0  0  0  0  0  0  0
   14.0930   24.9032   11.0144 C   0  0  0  0  0  0  0  0  0  0  0  0
   13.1222   24.1670   11.2111 O   0  0  0  0  0  0  0  0  0  0  0  0
   14.1425   25.7038    9.8912 N   0  0  0  0  0  0  0  0  0  0  0  0
   15.2331   26.5220    9.6639 C   0  0  0  0  0  0  0  0  0  0  0  0
   16.2812   26.5460   10.5603 C   0  0  1  0  0  0  0  0  0  0  0  0
   15.2858   27.2470    8.6719 O   0  0  0  0  0  0  0  0  0  0  0  0
   18.4096   27.4033   11.2158 C   0  0  2  0  0  0  0  0  0  0  0  0
   17.3609   27.3734   10.3195 N   0  0  0  0  0  0  0  0  0  0  0  0
   19.5003   28.2351   10.9742 C   0  0  0  0  0  0  0  0  0  0  0  0
   20.5662   28.2670   11.8678 C   0  0  1  0  0  0  0  0  0  0  0  0
   21.7311   29.1788   11.5972 C   0  0  0  0  0  0  0  0  0  0  0  0
   20.5349   27.4616   13.0119 C   0  0  1  0  0  0  0  0  0  0  0  0
   21.6625   27.4849   14.0022 C   0  0  0  0  0  0  0  0  0  0  0  0
   19.4430   26.6322   13.2500 C   0  0  0  0  0  0  0  0  0  0  0  0
   18.3753   26.5953   12.3563 C   0  0  2  0  0  0  0  0  0  0  0  0
   16.2356   25.7430   11.6942 C   0  0  2  0  0  0  0  0  0  0  0  0
   17.2888   25.7602   12.5883 N   0  0  0  0  0  0  0  0  0  0  0  0
  1  2  1  6  0  0  0
  1  3  1  0  0  0  0
  1  4  2  0  0  0  0
  1  6  1  0  0  0  0
  5  6  1  0  0  0  0
  7  5  1  1  0  0  0
  7  8  1  0  0  0  0
  7  9  1  0  0  0  0
  9 10  1  6  0  0  0
  9 11  1  0  0  0  0
 11 12  1  1  0  0  0
 11 13  1  0  0  0  0
 13 31  1  0  0  0  0
 14 15  1  0  0  0  0
 15 16  2  0  0  0  0
 15 17  1  0  0  0  0
 17 18  1  0  0  0  0
 18 20  2  0  0  0  0
 19 18  1  1  0  0  0
 19 22  1  0  0  0  0
 19 30  1  0  0  0  0
 21 23  1  6  0  0  0
 21 29  1  0  0  0  0
 21 22  1  0  0  0  0
 23 24  1  0  0  0  0
 24 25  1  1  0  0  0
 24 26  1  0  0  0  0
 26 27  1  1  0  0  0
 26 28  1  0  0  0  0
 29 28  1  6  0  0  0
 29 31  1  0  0  0  0
 30 14  1  6  0  0  0
 30 31  1  0  0  0  0
M  CHG  1   3  -1
M  END
>  <CHROM.1>
-67.24874960,82.23149917,77.93515049,48.60479565,108.99789019,139.98163018
76.76792989,15.81336648,26.53340773,13.80438022,-2.44287636,-0.21443774,-1.72707800

>  <Name>
ligand

>  <RI>
0

>  <Rbt.Current_Directory>
/home/itssahil/PROJECTS/Mol_Feturizer/New_Systems/rnas/3F2Q

>  <Rbt.Executable>
rbdock ($Id: //depot/dev/client3/rdock/2013.1/src/exe/rbdock.cxx#4 $)

>  <Rbt.Library>
libRbt.so (2013.1, Build901 2013/11/27)

>  <Rbt.Parameter_File>
/export/apps/rDock/src/rDock_2013.1_src/data/scripts/dock_solv.prm

>  <Rbt.Receptor>
prm/blind_docking_40.prm

>  <SCORE>
-2.59858

>  <SCORE.INTER>
-6.39988

>  <SCORE.INTER.CONST>
1

>  <SCORE.INTER.POLAR>
0

>  <SCORE.INTER.ROT>
7

>  <SCORE.INTER.SOLV>
14.4472

>  <SCORE.INTER.VDW>
-17.349

>  <SCORE.INTER.norm>
-0.206448

>  <SCORE.INTRA>
1.78536

>  <SCORE.INTRA.DIHEDRAL>
2.39441

>  <SCORE.INTRA.DIHEDRAL.0>
10.0718

>  <SCORE.INTRA.POLAR>
0

>  <SCORE.INTRA.POLAR.0>
0

>  <SCORE.INTRA.REPUL>
0

>  <SCORE.INTRA.REPUL.0>
0

>  <SCORE.INTRA.SOLV>
1.02078

>  <SCORE.INTRA.SOLV.lig_0>
-48.6963

>  <SCORE.INTRA.VDW>
0.0777651

>  <SCORE.INTRA.VDW.0>
-0.836976

>  <SCORE.INTRA.norm>
0.0575922

>  <SCORE.RESTR>
2.01594

>  <SCORE.RESTR.CAVITY>
2.01594

>  <SCORE.RESTR.norm>
0.0650304

>  <SCORE.SYSTEM>
0

>  <SCORE.SYSTEM.CONST>
0

>  <SCORE.SYSTEM.DIHEDRAL>
0

>  <SCORE.SYSTEM.SOLV>
0

>  <SCORE.SYSTEM.norm>
0

>  <SCORE.heavy>
31

>  <SCORE.norm>
-0.083825

>  <RMSD>
18.290

$$$$
ligand
 OpenBabel11021811473D
libRbt.so/2013.1/901 2013/11/27
 31 33  0  0  0  0  0  0  0  0999 V2000
   12.7242   25.4884   16.4298 P   0  0  1  0  0  0  0  0  0  0  0  0
   12.4051   24.3921   15.4359 O   0  0  0  0  0  0  0  0  0  0  0  0
   13.1148   26.7173   15.6538 O   0  5  0  0  0  0  0  0  0  0  0  0
   11.5178   25.7898   17.2758 O   0  0  0  0  0  0  0  0  0  0  0  0
   14.8215   24.0454   16.9781 C   0  0  0  0  0  0  0  0  0  0  0  0
   13.8782   24.9905   17.4212 O   0  0  0  0  0  0  0  0  0  0  0  0
   15.7038   24.6830   15.9148 C   0  0  1  0  0  0  0  0  0  0  0  0
   14.9027   25.0052   14.7978 O   0  0  0  0  0  0  0  0  0  0  0  0
   16.3780   25.9386   16.4677 C   0  0  1  0  0  0  0  0  0  0  0  0
   17.1239   25.6081   17.6196 O   0  0  0  0  0  0  0  0  0  0  0  0
   17.2438   26.6793   15.4391 C   0  0  1  0  0  0  0  0  0  0  0  0
   18.2546   27.4088   16.0987 O   0  0  0  0  0  0  0  0  0  0  0  0
   17.8848   25.7393   14.4306 C   0  0  0  0  0  0  0  0  0  0  0  0
   19.9997   27.3482   13.4702 N   0  0  0  0  0  0  0  0  0  0  0  0
   21.0806   28.0835   13.0282 C   0  0  0  0  0  0  0  0  0  0  0  0
   22.0268   28.3115   13.7870 O   0  0  0  0  0  0  0  0  0  0  0  0
   21.0921   28.5701   11.7366 N   0  0  0  0  0  0  0  0  0  0  0  0
   20.0292   28.3242   10.8879 C   0  0  0  0  0  0  0  0  0  0  0  0
   18.9479   27.5880   11.3254 C   0  0  1  0  0  0  0  0  0  0  0  0
   20.0307   28.7441    9.7320 O   0  0  0  0  0  0  0  0  0  0  0  0
   16.8149   26.6085   10.8946 C   0  0  2  0  0  0  0  0  0  0  0  0
   17.8966   27.3480   10.4621 N   0  0  0  0  0  0  0  0  0  0  0  0
   15.7528   26.3669   10.0267 C   0  0  0  0  0  0  0  0  0  0  0  0
   14.6540   25.6289   10.4554 C   0  0  1  0  0  0  0  0  0  0  0  0
   13.5206   25.3682    9.5020 C   0  0  0  0  0  0  0  0  0  0  0  0
   14.6234   25.1280   11.7619 C   0  0  1  0  0  0  0  0  0  0  0  0
   13.4592   24.3158   12.2491 C   0  0  0  0  0  0  0  0  0  0  0  0
   15.6870   25.3711   12.6259 C   0  0  0  0  0  0  0  0  0  0  0  0
   16.7875   26.1120   12.2014 C   0  0  2  0  0  0  0  0  0  0  0  0
   18.9321   27.0940   12.6248 C   0  0  2  0  0  0  0  0  0  0  0  0
   17.8457   26.3635   13.0665 N   0  0  0  0  0  0  0  0  0  0  0  0
  1  2  1  6  0  0  0
  1  3  1  0  0  0  0
  1  4  2  0  0  0  0
  1  6  1  0  0  0  0
  5  6  1  0  0  0  0
  7  5  1  1  0  0  0
  7  8  1  0  0  0  0
  7  9  1  0  0  0  0
  9 10  1  1  0  0  0
  9 11  1  0  0  0  0
 11 12  1  1  0  0  0
 11 13  1  0  0  0  0
 13 31  1  0  0  0  0
 14 15  1  0  0  0  0
 15 16  2  0  0  0  0
 15 17  1  0  0  0  0
 17 18  1  0  0  0  0
 18 20  2  0  0  0  0
 19 18  1  6  0  0  0
 19 22  1  0  0  0  0
 19 30  1  0  0  0  0
 21 23  1  1  0  0  0
 21 29  1  0  0  0  0
 21 22  1  0  0  0  0
 23 24  1  0  0  0  0
 24 25  1  6  0  0  0
 24 26  1  0  0  0  0
 26 27  1  6  0  0  0
 26 28  1  0  0  0  0
 29 28  1  1  0  0  0
 29 31  1  0  0  0  0
 30 14  1  1  0  0  0
 30 31  1  0  0  0  0
M  CHG  1   3  -1
M  END
>  <CHROM.1>
67.94335007,28.67502741,-64.24099394,57.20031317,-153.92125030,140.00434239
-92.32010260,16.39689196,26.24810427,13.78145755,-2.55706377,-0.35496335
-1.50796894

>  <Name>
ligand

>  <RI>
0

>  <Rbt.Current_Directory>
/home/itssahil/PROJECTS/Mol_Feturizer/New_Systems/rnas/3F2Q

>  <Rbt.Executable>
rbdock ($Id: //depot/dev/client3/rdock/2013.1/src/exe/rbdock.cxx#4 $)

>  <Rbt.Library>
libRbt.so (2013.1, Build901 2013/11/27)

>  <Rbt.Parameter_File>
/export/apps/rDock/src/rDock_2013.1_src/data/scripts/dock_solv.prm

>  <Rbt.Receptor>
prm/blind_docking_40.prm

>  <SCORE>
49.6545

>  <SCORE.INTER>
40.1156

>  <SCORE.INTER.CONST>
1

>  <SCORE.INTER.POLAR>
0

>  <SCORE.INTER.ROT>
7

>  <SCORE.INTER.SOLV>
16.0621

>  <SCORE.INTER.VDW>
13.123

>  <SCORE.INTER.norm>
1.29405

>  <SCORE.INTRA>
4.67833

>  <SCORE.INTRA.DIHEDRAL>
-0.832764

>  <SCORE.INTRA.DIHEDRAL.0>
10.0718

>  <SCORE.INTRA.POLAR>
0

>  <SCORE.INTRA.POLAR.0>
0

>  <SCORE.INTRA.REPUL>
0

>  <SCORE.INTRA.REPUL.0>
0

>  <SCORE.INTRA.SOLV>
3.14332

>  <SCORE.INTRA.SOLV.lig_0>
-48.6963

>  <SCORE.INTRA.VDW>
3.52305

>  <SCORE.INTRA.VDW.0>
-0.836976

>  <SCORE.INTRA.norm>
0.150914

>  <SCORE.RESTR>
4.86059

>  <SCORE.RESTR.CAVITY>
4.86059

>  <SCORE.RESTR.norm>
0.156793

>  <SCORE.SYSTEM>
0

>  <SCORE.SYSTEM.CONST>
0

>  <SCORE.SYSTEM.DIHEDRAL>
0

>  <SCORE.SYSTEM.SOLV>
0

>  <SCORE.SYSTEM.norm>
0

>  <SCORE.heavy>
31

>  <SCORE.norm>
1.60176

>  <RMSD>
18.306

$$$$
ligand
 OpenBabel11021811473D
libRbt.so/2013.1/901 2013/11/27
 31 33  0  0  0  0  0  0  0  0999 V2000
   11.7149   27.1010   16.8760 P   0  0  1  0  0  0  0  0  0  0  0  0
   12.4949   28.3358   16.4778 O   0  0  0  0  0  0  0  0  0  0  0  0
   10.5414   27.5431   17.7083 O   0  5  0  0  0  0  0  0  0  0  0  0
   11.2206   26.3815   15.6513 O   0  0  0  0  0  0  0  0  0  0  0  0
   13.5162   25.2211   16.9303 C   0  0  0  0  0  0  0  0  0  0  0  0
   12.6795   26.0890   17.6557 O   0  0  0  0  0  0  0  0  0  0  0  0
   14.5402   26.0432   16.1616 C   0  0  1  0  0  0  0  0  0  0  0  0
   14.8409   27.2025   16.9093 O   0  0  0  0  0  0  0  0  0  0  0  0
   15.8062   25.2216   15.9190 C   0  0  1  0  0  0  0  0  0  0  0  0
   15.4547   23.9300   15.4709 O   0  0  0  0  0  0  0  0  0  0  0  0
   16.8025   25.8896   14.9611 C   0  0  1  0  0  0  0  0  0  0  0  0
   17.9483   26.3030   15.6718 O   0  0  0  0  0  0  0  0  0  0  0  0
   17.2250   24.9718   13.8249 C   0  0  0  0  0  0  0  0  0  0  0  0
   15.1901   24.9159   11.8654 N   0  0  0  0  0  0  0  0  0  0  0  0
   14.1460   24.8946   10.9633 C   0  0  0  0  0  0  0  0  0  0  0  0
   13.1788   24.1517   11.1524 O   0  0  0  0  0  0  0  0  0  0  0  0
   14.1950   25.7014    9.8444 N   0  0  0  0  0  0  0  0  0  0  0  0
   15.2816   26.5272    9.6255 C   0  0  0  0  0  0  0  0  0  0  0  0
   16.3262   26.5526   10.5259 C   0  0  1  0  0  0  0  0  0  0  0  0
   15.3338   27.2576    8.6375 O   0  0  0  0  0  0  0  0  0  0  0  0
   18.4471   27.4188   11.1939 C   0  0  2  0  0  0  0  0  0  0  0  0
   17.4019   27.3875   10.2936 N   0  0  0  0  0  0  0  0  0  0  0  0
   19.5337   28.2583   10.9608 C   0  0  0  0  0  0  0  0  0  0  0  0
   20.5961   28.2917   11.8585 C   0  0  1  0  0  0  0  0  0  0  0  0
   21.7566   29.2117   11.5972 C   0  0  0  0  0  0  0  0  0  0  0  0
   20.5653   27.4802   12.9983 C   0  0  1  0  0  0  0  0  0  0  0  0
   21.6889   27.5049   13.9930 C   0  0  0  0  0  0  0  0  0  0  0  0
   19.4773   26.6432   13.2280 C   0  0  0  0  0  0  0  0  0  0  0  0
   18.4132   26.6047   12.3301 C   0  0  2  0  0  0  0  0  0  0  0  0
   16.2811   25.7434   11.6554 C   0  0  2  0  0  0  0  0  0  0  0  0
   17.3308   25.7621   12.5537 N   0  0  0  0  0  0  0  0  0  0  0  0
  1  2  1  6  0  0  0
  1  3  1  0  0  0  0
  1  4  2  0  0  0  0
  1  6  1  0  0  0  0
  5  6  1  0  0  0  0
  7  5  1  1  0  0  0
  7  8  1  0  0  0  0
  7  9  1  0  0  0  0
  9 10  1  6  0  0  0
  9 11  1  0  0  0  0
 11 12  1  1  0  0  0
 11 13  1  0  0  0  0
 13 31  1  0  0  0  0
 14 15  1  0  0  0  0
 15 16  2  0  0  0  0
 15 17  1  0  0  0  0
 17 18  1  0  0  0  0
 18 20  2  0  0  0  0
 19 18  1  1  0  0  0
 19 22  1  0  0  0  0
 19 30  1  0  0  0  0
 21 23  1  6  0  0  0
 21 29  1  0  0  0  0
 21 22  1  0  0  0  0
 23 24  1  0  0  0  0
 24 25  1  1  0  0  0
 24 26  1  0  0  0  0
 26 27  1  1  0  0  0
 26 28  1  0  0  0  0
 29 28  1  6  0  0  0
 29 31  1  0  0  0  0
 30 14  1  6  0  0  0
 30 31  1  0  0  0  0
M  CHG  1   3  -1
M  END
>  <CHROM.1>
65.12165365,-82.65590028,32.22677308,45.58322749,110.27423031,140.88239316
75.68733345,15.81345124,26.48533489,13.66543781,-2.51348886,-0.19819767,-1.68094762

>  <Name>
ligand

>  <RI>
0

>  <Rbt.Current_Directory>
/home/itssahil/PROJECTS/Mol_Feturizer/New_Systems/rnas/3F2Q

>  <Rbt.Executable>
rbdock ($Id: //depot/dev/client3/rdock/2013.1/src/exe/rbdock.cxx#4 $)

>  <Rbt.Library>
libRbt.so (2013.1, Build901 2013/11/27)

>  <Rbt.Parameter_File>
/export/apps/rDock/src/rDock_2013.1_src/data/scripts/dock_solv.prm

>  <Rbt.Receptor>
prm/blind_docking_40.prm

>  <SCORE>
-1.36719

>  <SCORE.INTER>
-6.51002

>  <SCORE.INTER.CONST>
1

>  <SCORE.INTER.POLAR>
0

>  <SCORE.INTER.ROT>
7

>  <SCORE.INTER.SOLV>
13.4086

>  <SCORE.INTER.VDW>
-17.0762

>  <SCORE.INTER.norm>
-0.210001

>  <SCORE.INTRA>
3.08215

>  <SCORE.INTRA.DIHEDRAL>
3.83132

>  <SCORE.INTRA.DIHEDRAL.0>
10.0718

>  <SCORE.INTRA.POLAR>
0

>  <SCORE.INTRA.POLAR.0>
0

>  <SCORE.INTRA.REPUL>
0

>  <SCORE.INTRA.REPUL.0>
0

>  <SCORE.INTRA.SOLV>
0.573129

>  <SCORE.INTRA.SOLV.lig_0>
-48.6963

>  <SCORE.INTRA.VDW>
0.879919

>  <SCORE.INTRA.VDW.0>
-0.836976

>  <SCORE.INTRA.norm>
0.0994241

>  <SCORE.RESTR>
2.06068

>  <SCORE.RESTR.CAVITY>
2.06068

>  <SCORE.RESTR.norm>
0.0664737

>  <SCORE.SYSTEM>
0

>  <SCORE.SYSTEM.CONST>
0

>  <SCORE.SYSTEM.DIHEDRAL>
0

>  <SCORE.SYSTEM.SOLV>
0

>  <SCORE.SYSTEM.norm>
0

>  <SCORE.heavy>
31

>  <SCORE.norm>
-0.0441028

>  <RMSD>
18.324

$$$$
ligand
 OpenBabel11021811473D
libRbt.so/2013.1/901 2013/11/27
 31 33  0  0  0  0  0  0  0  0999 V2000
   12.3437   26.9866   17.4942 P   0  0  1  0  0  0  0  0  0  0  0  0
   12.0636   26.0014   18.6089 O   0  0  0  0  0  0  0  0  0  0  0  0
   11.2418   26.8600   16.4769 O   0  5  0  0  0  0  0  0  0  0  0  0
   12.3703   28.3895   18.0354 O   0  0  0  0  0  0  0  0  0  0  0  0
   14.0595   25.4519   16.2766 C   0  0  0  0  0  0  0  0  0  0  0  0
   13.7917   26.6959   16.8766 O   0  0  0  0  0  0  0  0  0  0  0  0
   15.5298   25.3918   15.8893 C   0  0  1  0  0  0  0  0  0  0  0  0
   16.2662   24.9012   16.9895 O   0  0  0  0  0  0  0  0  0  0  0  0
   15.7216   24.4865   14.6726 C   0  0  1  0  0  0  0  0  0  0  0  0
   14.6091   24.6069   13.8121 O   0  0  0  0  0  0  0  0  0  0  0  0
   17.0359   24.7339   13.9191 C   0  0  1  0  0  0  0  0  0  0  0  0
   16.9830   24.1238   12.6487 O   0  0  0  0  0  0  0  0  0  0  0  0
   17.3418   26.2134   13.7491 C   0  0  0  0  0  0  0  0  0  0  0  0
   15.4004   25.8249   11.7333 N   0  0  0  0  0  0  0  0  0  0  0  0
   14.4019   25.6672   10.7938 C   0  0  0  0  0  0  0  0  0  0  0  0
   13.3108   25.1935   11.1229 O   0  0  0  0  0  0  0  0  0  0  0  0
   14.6346   26.0330    9.4834 N   0  0  0  0  0  0  0  0  0  0  0  0
   15.8591   26.5548    9.1107 C   0  0  0  0  0  0  0  0  0  0  0  0
   16.8588   26.7157   10.0472 C   0  0  1  0  0  0  0  0  0  0  0  0
   16.0766   26.8932    7.9485 O   0  0  0  0  0  0  0  0  0  0  0  0
   19.0761   27.4095   10.5924 C   0  0  2  0  0  0  0  0  0  0  0  0
   18.0747   27.2432    9.6577 N   0  0  0  0  0  0  0  0  0  0  0  0
   20.3035   27.9392   10.2017 C   0  0  0  0  0  0  0  0  0  0  0  0
   21.3223   28.1038   11.1348 C   0  0  1  0  0  0  0  0  0  0  0  0
   22.6379   28.6872   10.6983 C   0  0  0  0  0  0  0  0  0  0  0  0
   21.1059   27.7378   12.4682 C   0  0  1  0  0  0  0  0  0  0  0  0
   22.1800   27.9172   13.5010 C   0  0  0  0  0  0  0  0  0  0  0  0
   19.8777   27.2094   12.8546 C   0  0  0  0  0  0  0  0  0  0  0  0
   18.8563   27.0402   11.9228 C   0  0  2  0  0  0  0  0  0  0  0  0
   16.6292   26.3506   11.3688 C   0  0  2  0  0  0  0  0  0  0  0  0
   17.6329   26.5037   12.3059 N   0  0  0  0  0  0  0  0  0  0  0  0
  1  2  1  1  0  0  0
  1  3  1  0  0  0  0
  1  4  2  0  0  0  0
  1  6  1  0  0  0  0
  5  6  1  0  0  0  0
  7  5  1  1  0  0  0
  7  8  1  0  0  0  0
  7  9  1  0  0  0  0
  9 10  1  6  0  0  0
  9 11  1  0  0  0  0
 11 12  1  6  0  0  0
 11 13  1  0  0  0  0
 13 31  1  0  0  0  0
 14 15  1  0  0  0  0
 15 16  2  0  0  0  0
 15 17  1  0  0  0  0
 17 18  1  0  0  0  0
 18 20  2  0  0  0  0
 19 18  1  1  0  0  0
 19 22  1  0  0  0  0
 19 30  1  0  0  0  0
 21 23  1  6  0  0  0
 21 29  1  0  0  0  0
 21 22  1  0  0  0  0
 23 24  1  0  0  0  0
 24 25  1  1  0  0  0
 24 26  1  0  0  0  0
 26 27  1  1  0  0  0
 26 28  1  0  0  0  0
 29 28  1  6  0  0  0
 29 31  1  0  0  0  0
 30 14  1  6  0  0  0
 30 31  1  0  0  0  0
M  CHG  1   3  -1
M  END
>  <CHROM.1>
-174.93295331,61.36874964,88.05943872,34.68648983,-165.01735720,-128.42992253
-120.62257366,16.25515031,26.43937210,13.29100507,-2.40497966,-0.21788318
-1.64880227

>  <Name>
ligand

>  <RI>
0

>  <Rbt.Current_Directory>
/home/itssahil/PROJECTS/Mol_Feturizer/New_Systems/rnas/3F2Q

>  <Rbt.Executable>
rbdock ($Id: //depot/dev/client3/rdock/2013.1/src/exe/rbdock.cxx#4 $)

>  <Rbt.Library>
libRbt.so (2013.1, Build901 2013/11/27)

>  <Rbt.Parameter_File>
/export/apps/rDock/src/rDock_2013.1_src/data/scripts/dock_solv.prm

>  <Rbt.Receptor>
prm/blind_docking_40.prm

>  <SCORE>
0.972784

>  <SCORE.INTER>
-8.17089

>  <SCORE.INTER.CONST>
1

>  <SCORE.INTER.POLAR>
0

>  <SCORE.INTER.ROT>
7

>  <SCORE.INTER.SOLV>
13.4865

>  <SCORE.INTER.VDW>
-18.2094

>  <SCORE.INTER.norm>
-0.263577

>  <SCORE.INTRA>
2.36958

>  <SCORE.INTRA.DIHEDRAL>
1.49179

>  <SCORE.INTRA.DIHEDRAL.0>
10.0718

>  <SCORE.INTRA.POLAR>
0

>  <SCORE.INTRA.POLAR.0>
0

>  <SCORE.INTRA.REPUL>
0

>  <SCORE.INTRA.REPUL.0>
0

>  <SCORE.INTRA.SOLV>
-0.811028

>  <SCORE.INTRA.SOLV.lig_0>
-48.6963

>  <SCORE.INTRA.VDW>
2.02921

>  <SCORE.INTRA.VDW.0>
-0.836976

>  <SCORE.INTRA.norm>
0.0764382

>  <SCORE.RESTR>
6.77409

>  <SCORE.RESTR.CAVITY>
6.77409

>  <SCORE.RESTR.norm>
0.218519

>  <SCORE.SYSTEM>
0

>  <SCORE.SYSTEM.CONST>
0

>  <SCORE.SYSTEM.DIHEDRAL>
0

>  <SCORE.SYSTEM.SOLV>
0

>  <SCORE.SYSTEM.norm>
0

>  <SCORE.heavy>
31

>  <SCORE.norm>
0.0313801

>  <RMSD>
18.325

$$$$
ligand
 OpenBabel11021811473D
libRbt.so/2013.1/901 2013/11/27
 31 33  0  0  0  0  0  0  0  0999 V2000
   12.3883   27.6732   16.9010 P   0  0  1  0  0  0  0  0  0  0  0  0
   12.6626   29.0676   17.4224 O   0  0  0  0  0  0  0  0  0  0  0  0
   11.3957   27.0204   17.8250 O   0  5  0  0  0  0  0  0  0  0  0  0
   11.8140   27.7414   15.5127 O   0  0  0  0  0  0  0  0  0  0  0  0
   13.7867   25.5978   16.1808 C   0  0  0  0  0  0  0  0  0  0  0  0
   13.7642   26.8616   16.7986 O   0  0  0  0  0  0  0  0  0  0  0  0
   15.0545   24.8642   16.5930 C   0  0  1  0  0  0  0  0  0  0  0  0
   14.7069   23.8342   17.4939 O   0  0  0  0  0  0  0  0  0  0  0  0
   15.7554   24.2844   15.3645 C   0  0  1  0  0  0  0  0  0  0  0  0
   14.8159   23.6055   14.5589 O   0  0  0  0  0  0  0  0  0  0  0  0
   16.5364   25.3249   14.5498 C   0  0  1  0  0  0  0  0  0  0  0  0
   17.3800   26.0672   15.4019 O   0  0  0  0  0  0  0  0  0  0  0  0
   17.3718   24.6952   13.4465 C   0  0  0  0  0  0  0  0  0  0  0  0
   15.3792   24.7796   11.4449 N   0  0  0  0  0  0  0  0  0  0  0  0
   14.3545   24.8177   10.5214 C   0  0  0  0  0  0  0  0  0  0  0  0
   13.4233   24.0111   10.5955 O   0  0  0  0  0  0  0  0  0  0  0  0
   14.3828   25.7562    9.5097 N   0  0  0  0  0  0  0  0  0  0  0  0
   15.4296   26.6543    9.4190 C   0  0  0  0  0  0  0  0  0  0  0  0
   16.4546   26.6206   10.3414 C   0  0  1  0  0  0  0  0  0  0  0  0
   15.4626   27.5014    8.5280 O   0  0  0  0  0  0  0  0  0  0  0  0
   18.5155   27.5011   11.1612 C   0  0  2  0  0  0  0  0  0  0  0  0
   17.4902   27.5289   10.2381 N   0  0  0  0  0  0  0  0  0  0  0  0
   19.5618   28.4146   11.0580 C   0  0  0  0  0  0  0  0  0  0  0  0
   20.6043   28.3900   11.9792 C   0  0  1  0  0  0  0  0  0  0  0  0
   21.7207   29.3903   11.8595 C   0  0  0  0  0  0  0  0  0  0  0  0
   20.5939   27.4451   13.0115 C   0  0  1  0  0  0  0  0  0  0  0  0
   21.6962   27.4030   14.0293 C   0  0  0  0  0  0  0  0  0  0  0  0
   19.5462   26.5344   13.1115 C   0  0  0  0  0  0  0  0  0  0  0  0
   18.5023   26.5539   12.1895 C   0  0  2  0  0  0  0  0  0  0  0  0
   16.4301   25.6786   11.3634 C   0  0  2  0  0  0  0  0  0  0  0  0
   17.4606   25.6387   12.2829 N   0  0  0  0  0  0  0  0  0  0  0  0
  1  2  1  1  0  0  0
  1  3  1  0  0  0  0
  1  4  2  0  0  0  0
  1  6  1  0  0  0  0
  5  6  1  0  0  0  0
  7  5  1  6  0  0  0
  7  8  1  0  0  0  0
  7  9  1  0  0  0  0
  9 10  1  6  0  0  0
  9 11  1  0  0  0  0
 11 12  1  1  0  0  0
 11 13  1  0  0  0  0
 13 31  1  0  0  0  0
 14 15  1  0  0  0  0
 15 16  2  0  0  0  0
 15 17  1  0  0  0  0
 17 18  1  0  0  0  0
 18 20  2  0  0  0  0
 19 18  1  1  0  0  0
 19 22  1  0  0  0  0
 19 30  1  0  0  0  0
 21 23  1  6  0  0  0
 21 29  1  0  0  0  0
 21 22  1  0  0  0  0
 23 24  1  0  0  0  0
 24 25  1  1  0  0  0
 24 26  1  0  0  0  0
 26 27  1  1  0  0  0
 26 28  1  0  0  0  0
 29 28  1  6  0  0  0
 29 31  1  0  0  0  0
 30 14  1  6  0  0  0
 30 31  1  0  0  0  0
M  CHG  1   3  -1
M  END
>  <CHROM.1>
-162.18648767,-172.01897367,107.32131967,-47.75113290,50.44370012,148.17597493
91.19855074,15.98302725,26.40302697,13.51810046,-2.42777406,-0.24342498,-1.70711389

>  <Name>
ligand

>  <RI>
0

>  <Rbt.Current_Directory>
/home/itssahil/PROJECTS/Mol_Feturizer/New_Systems/rnas/3F2Q

>  <Rbt.Executable>
rbdock ($Id: //depot/dev/client3/rdock/2013.1/src/exe/rbdock.cxx#4 $)

>  <Rbt.Library>
libRbt.so (2013.1, Build901 2013/11/27)

>  <Rbt.Parameter_File>
/export/apps/rDock/src/rDock_2013.1_src/data/scripts/dock_solv.prm

>  <Rbt.Receptor>
prm/blind_docking_40.prm

>  <SCORE>
-5.75053

>  <SCORE.INTER>
-7.23857

>  <SCORE.INTER.CONST>
1

>  <SCORE.INTER.POLAR>
0

>  <SCORE.INTER.ROT>
7

>  <SCORE.INTER.SOLV>
16.8165

>  <SCORE.INTER.VDW>
-18.6979

>  <SCORE.INTER.norm>
-0.233502

>  <SCORE.INTRA>
-1.2708

>  <SCORE.INTRA.DIHEDRAL>
1.11739

>  <SCORE.INTRA.DIHEDRAL.0>
10.0718

>  <SCORE.INTRA.POLAR>
0

>  <SCORE.INTRA.POLAR.0>
0

>  <SCORE.INTRA.REPUL>
0

>  <SCORE.INTRA.REPUL.0>
0

>  <SCORE.INTRA.SOLV>
-1.1432

>  <SCORE.INTRA.SOLV.lig_0>
-48.6963

>  <SCORE.INTRA.VDW>
-1.25789

>  <SCORE.INTRA.VDW.0>
-0.836976

>  <SCORE.INTRA.norm>
-0.0409934

>  <SCORE.RESTR>
2.75884

>  <SCORE.RESTR.CAVITY>
2.75884

>  <SCORE.RESTR.norm>
0.0889949

>  <SCORE.SYSTEM>
0

>  <SCORE.SYSTEM.CONST>
0

>  <SCORE.SYSTEM.DIHEDRAL>
0

>  <SCORE.SYSTEM.SOLV>
0

>  <SCORE.SYSTEM.norm>
0

>  <SCORE.heavy>
31

>  <SCORE.norm>
-0.185501

>  <RMSD>
18.345

$$$$
ligand
 OpenBabel11021811473D
libRbt.so/2013.1/901 2013/11/27
 31 33  0  0  0  0  0  0  0  0999 V2000
   11.9588   27.1379   16.6576 P   0  0  1  0  0  0  0  0  0  0  0  0
   12.1038   28.2109   15.5996 O   0  0  0  0  0  0  0  0  0  0  0  0
   10.9192   27.5979   17.6439 O   0  5  0  0  0  0  0  0  0  0  0  0
   11.5187   25.8446   16.0289 O   0  0  0  0  0  0  0  0  0  0  0  0
   14.5070   26.6150   16.5348 C   0  0  0  0  0  0  0  0  0  0  0  0
   13.3811   26.8661   17.3402 O   0  0  0  0  0  0  0  0  0  0  0  0
   14.4422   25.1846   16.0199 C   0  0  1  0  0  0  0  0  0  0  0  0
   13.6063   25.1521   14.8826 O   0  0  0  0  0  0  0  0  0  0  0  0
   15.8427   24.6837   15.6671 C   0  0  1  0  0  0  0  0  0  0  0  0
   15.7605   23.3747   15.1451 O   0  0  0  0  0  0  0  0  0  0  0  0
   16.6107   25.6132   14.7170 C   0  0  1  0  0  0  0  0  0  0  0  0
   17.5568   26.3661   15.4428 O   0  0  0  0  0  0  0  0  0  0  0  0
   17.3219   24.8554   13.6074 C   0  0  0  0  0  0  0  0  0  0  0  0
   15.3279   24.8718   11.6056 N   0  0  0  0  0  0  0  0  0  0  0  0
   14.3025   24.8810   10.6821 C   0  0  0  0  0  0  0  0  0  0  0  0
   13.3531   24.1017   10.8026 O   0  0  0  0  0  0  0  0  0  0  0  0
   14.3504   25.7595    9.6186 N   0  0  0  0  0  0  0  0  0  0  0  0
   15.4174   26.6266    9.4762 C   0  0  0  0  0  0  0  0  0  0  0  0
   16.4432   26.6217   10.3983 C   0  0  1  0  0  0  0  0  0  0  0  0
   15.4682   27.4206    8.5384 O   0  0  0  0  0  0  0  0  0  0  0  0
   18.5255   27.4994   11.1653 C   0  0  2  0  0  0  0  0  0  0  0  0
   17.4993   27.4984   10.2428 N   0  0  0  0  0  0  0  0  0  0  0  0
   19.5924   28.3811   11.0095 C   0  0  0  0  0  0  0  0  0  0  0  0
   20.6358   28.3848   11.9299 C   0  0  1  0  0  0  0  0  0  0  0  0
   21.7748   29.3506   11.7527 C   0  0  0  0  0  0  0  0  0  0  0  0
   20.6057   27.5007   13.0144 C   0  0  1  0  0  0  0  0  0  0  0  0
   21.7088   27.4911   14.0321 C   0  0  0  0  0  0  0  0  0  0  0  0
   19.5375   26.6217   13.1668 C   0  0  0  0  0  0  0  0  0  0  0  0
   18.4925   26.6129   12.2459 C   0  0  2  0  0  0  0  0  0  0  0  0
   16.3990   25.7402   11.4724 C   0  0  2  0  0  0  0  0  0  0  0  0
   17.4302   25.7288   12.3919 N   0  0  0  0  0  0  0  0  0  0  0  0
  1  2  1  6  0  0  0
  1  3  1  0  0  0  0
  1  4  2  0  0  0  0
  1  6  1  0  0  0  0
  5  6  1  0  0  0  0
  7  5  1  6  0  0  0
  7  8  1  0  0  0  0
  7  9  1  0  0  0  0
  9 10  1  6  0  0  0
  9 11  1  0  0  0  0
 11 12  1  1  0  0  0
 11 13  1  0  0  0  0
 13 31  1  0  0  0  0
 14 15  1  0  0  0  0
 15 16  2  0  0  0  0
 15 17  1  0  0  0  0
 17 18  1  0  0  0  0
 18 20  2  0  0  0  0
 19 18  1  1  0  0  0
 19 22  1  0  0  0  0
 19 30  1  0  0  0  0
 21 23  1  6  0  0  0
 21 29  1  0  0  0  0
 21 22  1  0  0  0  0
 23 24  1  0  0  0  0
 24 25  1  1  0  0  0
 24 26  1  0  0  0  0
 26 27  1  1  0  0  0
 26 28  1  0  0  0  0
 29 28  1  6  0  0  0
 29 31  1  0  0  0  0
 30 14  1  6  0  0  0
 30 31  1  0  0  0  0
M  CHG  1   3  -1
M  END
>  <CHROM.1>
-76.94051956,-50.89199966,82.73995271,-177.84248298,102.33305213,151.04130907
86.20309904,15.89637262,26.41788521,13.43691178,-2.54551311,-0.22103153,-1.68244342

>  <Name>
ligand

>  <RI>
0

>  <Rbt.Current_Directory>
/home/itssahil/PROJECTS/Mol_Feturizer/New_Systems/rnas/3F2Q

>  <Rbt.Executable>
rbdock ($Id: //depot/dev/client3/rdock/2013.1/src/exe/rbdock.cxx#4 $)

>  <Rbt.Library>
libRbt.so (2013.1, Build901 2013/11/27)

>  <Rbt.Parameter_File>
/export/apps/rDock/src/rDock_2013.1_src/data/scripts/dock_solv.prm

>  <Rbt.Receptor>
prm/blind_docking_40.prm

>  <SCORE>
-1.50446

>  <SCORE.INTER>
-5.42371

>  <SCORE.INTER.CONST>
1

>  <SCORE.INTER.POLAR>
0

>  <SCORE.INTER.ROT>
7

>  <SCORE.INTER.SOLV>
12.7056

>  <SCORE.INTER.VDW>
-16.1177

>  <SCORE.INTER.norm>
-0.174959

>  <SCORE.INTRA>
1.3294

>  <SCORE.INTRA.DIHEDRAL>
0.907665

>  <SCORE.INTRA.DIHEDRAL.0>
10.0718

>  <SCORE.INTRA.POLAR>
0

>  <SCORE.INTRA.POLAR.0>
0

>  <SCORE.INTRA.REPUL>
0

>  <SCORE.INTRA.REPUL.0>
0

>  <SCORE.INTRA.SOLV>
1.33622

>  <SCORE.INTRA.SOLV.lig_0>
-48.6963

>  <SCORE.INTRA.VDW>
0.207455

>  <SCORE.INTRA.VDW.0>
-0.836976

>  <SCORE.INTRA.norm>
0.0428839

>  <SCORE.RESTR>
2.58985

>  <SCORE.RESTR.CAVITY>
2.58985

>  <SCORE.RESTR.norm>
0.0835435

>  <SCORE.SYSTEM>
0

>  <SCORE.SYSTEM.CONST>
0

>  <SCORE.SYSTEM.DIHEDRAL>
0

>  <SCORE.SYSTEM.SOLV>
0

>  <SCORE.SYSTEM.norm>
0

>  <SCORE.heavy>
31

>  <SCORE.norm>
-0.0485311

>  <RMSD>
18.370

$$$$
ligand
 OpenBabel11021811473D
libRbt.so/2013.1/901 2013/11/27
 31 33  0  0  0  0  0  0  0  0999 V2000
   12.4027   27.1383   17.4187 P   0  0  1  0  0  0  0  0  0  0  0  0
   12.7077   28.4966   18.0132 O   0  0  0  0  0  0  0  0  0  0  0  0
   12.6079   26.1056   18.4942 O   0  5  0  0  0  0  0  0  0  0  0  0
   10.9781   27.0892   16.9392 O   0  0  0  0  0  0  0  0  0  0  0  0
   13.5777   25.5823   15.6925 C   0  0  0  0  0  0  0  0  0  0  0  0
   13.3351   26.8936   16.1407 O   0  0  0  0  0  0  0  0  0  0  0  0
   14.7706   25.0113   16.4450 C   0  0  1  0  0  0  0  0  0  0  0  0
   14.3040   24.0469   17.3646 O   0  0  0  0  0  0  0  0  0  0  0  0
   15.7623   24.3805   15.4676 C   0  0  1  0  0  0  0  0  0  0  0  0
   15.0999   23.4185   14.6749 O   0  0  0  0  0  0  0  0  0  0  0  0
   16.5054   25.4021   14.5956 C   0  0  1  0  0  0  0  0  0  0  0  0
   17.3461   26.1988   15.4002 O   0  0  0  0  0  0  0  0  0  0  0  0
   17.3363   24.7443   13.5054 C   0  0  0  0  0  0  0  0  0  0  0  0
   15.3496   24.7992   11.4971 N   0  0  0  0  0  0  0  0  0  0  0  0
   14.3275   24.8242   10.5700 C   0  0  0  0  0  0  0  0  0  0  0  0
   13.3919   24.0241   10.6576 O   0  0  0  0  0  0  0  0  0  0  0  0
   14.3634   25.7423    9.5400 N   0  0  0  0  0  0  0  0  0  0  0  0
   15.4151   26.6330    9.4345 C   0  0  0  0  0  0  0  0  0  0  0  0
   16.4375   26.6123   10.3601 C   0  0  1  0  0  0  0  0  0  0  0  0
   15.4549   27.4621    8.5269 O   0  0  0  0  0  0  0  0  0  0  0  0
   18.5008   27.4983   11.1680 C   0  0  2  0  0  0  0  0  0  0  0  0
   17.4781   27.5131   10.2418 N   0  0  0  0  0  0  0  0  0  0  0  0
   19.5521   28.4041   11.0496 C   0  0  0  0  0  0  0  0  0  0  0  0
   20.5919   28.3924   11.9740 C   0  0  1  0  0  0  0  0  0  0  0  0
   21.7139   29.3844   11.8376 C   0  0  0  0  0  0  0  0  0  0  0  0
   20.5739   27.4682   13.0249 C   0  0  1  0  0  0  0  0  0  0  0  0
   21.6732   27.4407   14.0463 C   0  0  0  0  0  0  0  0  0  0  0  0
   19.5212   26.5652   13.1400 C   0  0  0  0  0  0  0  0  0  0  0  0
   18.4799   26.5718   12.2149 C   0  0  2  0  0  0  0  0  0  0  0  0
   16.4053   25.6910   11.4006 C   0  0  2  0  0  0  0  0  0  0  0  0
   17.4332   25.6640   12.3236 N   0  0  0  0  0  0  0  0  0  0  0  0
  1  2  1  1  0  0  0
  1  3  1  0  0  0  0
  1  4  2  0  0  0  0
  1  6  1  0  0  0  0
  5  6  1  0  0  0  0
  7  5  1  6  0  0  0
  7  8  1  0  0  0  0
  7  9  1  0  0  0  0
  9 10  1  6  0  0  0
  9 11  1  0  0  0  0
 11 12  1  1  0  0  0
 11 13  1  0  0  0  0
 13 31  1  0  0  0  0
 14 15  1  0  0  0  0
 15 16  2  0  0  0  0
 15 17  1  0  0  0  0
 17 18  1  0  0  0  0
 18 20  2  0  0  0  0
 19 18  1  1  0  0  0
 19 22  1  0  0  0  0
 19 30  1  0  0  0  0
 21 23  1  6  0  0  0
 21 29  1  0  0  0  0
 21 22  1  0  0  0  0
 23 24  1  0  0  0  0
 24 25  1  1  0  0  0
 24 26  1  0  0  0  0
 26 27  1  1  0  0  0
 26 28  1  0  0  0  0
 29 28  1  6  0  0  0
 29 31  1  0  0  0  0
 30 14  1  6  0  0  0
 30 31  1  0  0  0  0
M  CHG  1   3  -1
M  END
>  <CHROM.1>
-86.94605363,158.48236258,107.39098446,-55.01873693,66.12537142,150.59301031
90.99727235,15.95150639,26.30880385,13.62315541,-2.39822252,-0.29216302,-1.69525883

>  <Name>
ligand

>  <RI>
0

>  <Rbt.Current_Directory>
/home/itssahil/PROJECTS/Mol_Feturizer/New_Systems/rnas/3F2Q

>  <Rbt.Executable>
rbdock ($Id: //depot/dev/client3/rdock/2013.1/src/exe/rbdock.cxx#4 $)

>  <Rbt.Library>
libRbt.so (2013.1, Build901 2013/11/27)

>  <Rbt.Parameter_File>
/export/apps/rDock/src/rDock_2013.1_src/data/scripts/dock_solv.prm

>  <Rbt.Receptor>
prm/blind_docking_40.prm

>  <SCORE>
-4.24657

>  <SCORE.INTER>
-6.82667

>  <SCORE.INTER.CONST>
1

>  <SCORE.INTER.POLAR>
0

>  <SCORE.INTER.ROT>
7

>  <SCORE.INTER.SOLV>
13.7233

>  <SCORE.INTER.VDW>
-17.3922

>  <SCORE.INTER.norm>
-0.220215

>  <SCORE.INTRA>
-0.0459401

>  <SCORE.INTRA.DIHEDRAL>
2.29613

>  <SCORE.INTRA.DIHEDRAL.0>
10.0718

>  <SCORE.INTRA.POLAR>
0

>  <SCORE.INTRA.POLAR.0>
0

>  <SCORE.INTRA.REPUL>
0

>  <SCORE.INTRA.REPUL.0>
0

>  <SCORE.INTRA.SOLV>
0.947236

>  <SCORE.INTRA.SOLV.lig_0>
-48.6963

>  <SCORE.INTRA.VDW>
-1.66762

>  <SCORE.INTRA.VDW.0>
-0.836976

>  <SCORE.INTRA.norm>
-0.00148194

>  <SCORE.RESTR>
2.62603

>  <SCORE.RESTR.CAVITY>
2.62603

>  <SCORE.RESTR.norm>
0.0847108

>  <SCORE.SYSTEM>
0

>  <SCORE.SYSTEM.CONST>
0

>  <SCORE.SYSTEM.DIHEDRAL>
0

>  <SCORE.SYSTEM.SOLV>
0

>  <SCORE.SYSTEM.norm>
0

>  <SCORE.heavy>
31

>  <SCORE.norm>
-0.136986

>  <RMSD>
18.430

$$$$
ligand
 OpenBabel11021811473D
libRbt.so/2013.1/901 2013/11/27
 31 33  0  0  0  0  0  0  0  0999 V2000
   13.5656   25.9398   16.3439 P   0  0  1  0  0  0  0  0  0  0  0  0
   13.1787   24.9289   17.4022 O   0  0  0  0  0  0  0  0  0  0  0  0
   12.5393   25.8752   15.2450 O   0  5  0  0  0  0  0  0  0  0  0  0
   13.5875   27.3241   16.9313 O   0  0  0  0  0  0  0  0  0  0  0  0
   15.3762   24.3339   15.3826 C   0  0  0  0  0  0  0  0  0  0  0  0
   15.0476   25.6283   15.8250 O   0  0  0  0  0  0  0  0  0  0  0  0
   15.2292   24.2723   13.8693 C   0  0  1  0  0  0  0  0  0  0  0  0
   14.1148   25.0530   13.4924 O   0  0  0  0  0  0  0  0  0  0  0  0
   16.4974   24.7906   13.1913 C   0  0  1  0  0  0  0  0  0  0  0  0
   16.9239   25.9767   13.8268 O   0  0  0  0  0  0  0  0  0  0  0  0
   17.6305   23.7570   13.1268 C   0  0  1  0  0  0  0  0  0  0  0  0
   17.0911   22.4617   12.9847 O   0  0  0  0  0  0  0  0  0  0  0  0
   18.5982   24.0221   11.9845 C   0  0  0  0  0  0  0  0  0  0  0  0
   16.3026   24.4052   10.3823 N   0  0  0  0  0  0  0  0  0  0  0  0
   15.1422   24.5540    9.6504 C   0  0  0  0  0  0  0  0  0  0  0  0
   14.4210   23.5777    9.4271 O   0  0  0  0  0  0  0  0  0  0  0  0
   14.7988   25.7985    9.1620 N   0  0  0  0  0  0  0  0  0  0  0  0
   15.6098   26.8916    9.4027 C   0  0  0  0  0  0  0  0  0  0  0  0
   16.7695   26.7472   10.1354 C   0  0  1  0  0  0  0  0  0  0  0  0
   15.3111   28.0076    8.9811 O   0  0  0  0  0  0  0  0  0  0  0  0
   18.7243   27.7120   11.1062 C   0  0  2  0  0  0  0  0  0  0  0  0
   17.5655   27.8515   10.3702 N   0  0  0  0  0  0  0  0  0  0  0  0
   19.5296   28.8236   11.3425 C   0  0  0  0  0  0  0  0  0  0  0  0
   20.7040   28.6922   12.0769 C   0  0  1  0  0  0  0  0  0  0  0  0
   21.5563   29.9045   12.3320 C   0  0  0  0  0  0  0  0  0  0  0  0
   21.0696   27.4383   12.5796 C   0  0  1  0  0  0  0  0  0  0  0  0
   22.3225   27.2672   13.3881 C   0  0  0  0  0  0  0  0  0  0  0  0
   20.2619   26.3302   12.3418 C   0  0  0  0  0  0  0  0  0  0  0  0
   19.0870   26.4571   11.6045 C   0  0  2  0  0  0  0  0  0  0  0  0
   17.1191   25.4964   10.6313 C   0  0  2  0  0  0  0  0  0  0  0  0
   18.2848   25.3492   11.3583 N   0  0  0  0  0  0  0  0  0  0  0  0
  1  2  1  1  0  0  0
  1  3  1  0  0  0  0
  1  4  2  0  0  0  0
  1  6  1  0  0  0  0
  5  6  1  0  0  0  0
  7  5  1  1  0  0  0
  7  8  1  0  0  0  0
  7  9  1  0  0  0  0
  9 10  1  1  0  0  0
  9 11  1  0  0  0  0
 11 12  1  6  0  0  0
 11 13  1  0  0  0  0
 13 31  1  0  0  0  0
 14 15  1  0  0  0  0
 15 16  2  0  0  0  0
 15 17  1  0  0  0  0
 17 18  1  0  0  0  0
 18 20  2  0  0  0  0
 19 18  1  1  0  0  0
 19 22  1  0  0  0  0
 19 30  1  0  0  0  0
 21 23  1  6  0  0  0
 21 29  1  0  0  0  0
 21 22  1  0  0  0  0
 23 24  1  0  0  0  0
 24 25  1  1  0  0  0
 24 26  1  0  0  0  0
 26 27  1  1  0  0  0
 26 28  1  0  0  0  0
 29 28  1  6  0  0  0
 29 31  1  0  0  0  0
 30 14  1  6  0  0  0
 30 31  1  0  0  0  0
M  CHG  1   3  -1
M  END
>  <CHROM.1>
95.46043856,52.26693380,-37.14386945,-44.73331904,33.08521206,8.39792380
104.46320374,16.64647203,25.94677232,12.70519612,-2.58079324,-0.42471530
-1.69746847

>  <Name>
ligand

>  <RI>
0

>  <Rbt.Current_Directory>
/home/itssahil/PROJECTS/Mol_Feturizer/New_Systems/rnas/3F2Q

>  <Rbt.Executable>
rbdock ($Id: //depot/dev/client3/rdock/2013.1/src/exe/rbdock.cxx#4 $)

>  <Rbt.Library>
libRbt.so (2013.1, Build901 2013/11/27)

>  <Rbt.Parameter_File>
/export/apps/rDock/src/rDock_2013.1_src/data/scripts/dock_solv.prm

>  <Rbt.Receptor>
prm/blind_docking_40.prm

>  <SCORE>
10.3239

>  <SCORE.INTER>
1.67904

>  <SCORE.INTER.CONST>
1

>  <SCORE.INTER.POLAR>
0

>  <SCORE.INTER.ROT>
7

>  <SCORE.INTER.SOLV>
16.3369

>  <SCORE.INTER.VDW>
-12.5929

>  <SCORE.INTER.norm>
0.0541626

>  <SCORE.INTRA>
4.37672

>  <SCORE.INTRA.DIHEDRAL>
5.62524

>  <SCORE.INTRA.DIHEDRAL.0>
10.0718

>  <SCORE.INTRA.POLAR>
0

>  <SCORE.INTRA.POLAR.0>
0

>  <SCORE.INTRA.REPUL>
0

>  <SCORE.INTRA.REPUL.0>
0

>  <SCORE.INTRA.SOLV>
1.72685

>  <SCORE.INTRA.SOLV.lig_0>
-48.6963

>  <SCORE.INTRA.VDW>
0.700678

>  <SCORE.INTRA.VDW.0>
-0.836976

>  <SCORE.INTRA.norm>
0.141185

>  <SCORE.RESTR>
4.26816

>  <SCORE.RESTR.CAVITY>
4.26816

>  <SCORE.RESTR.norm>
0.137682

>  <SCORE.SYSTEM>
0

>  <SCORE.SYSTEM.CONST>
0

>  <SCORE.SYSTEM.DIHEDRAL>
0

>  <SCORE.SYSTEM.SOLV>
0

>  <SCORE.SYSTEM.norm>
0

>  <SCORE.heavy>
31

>  <SCORE.norm>
0.33303

>  <RMSD>
18.470

$$$$
ligand
 OpenBabel11021811473D
libRbt.so/2013.1/901 2013/11/27
 31 33  0  0  0  0  0  0  0  0999 V2000
   12.1474   26.8106   17.2787 P   0  0  1  0  0  0  0  0  0  0  0  0
   12.6395   28.2166   17.0095 O   0  0  0  0  0  0  0  0  0  0  0  0
   11.3581   26.8338   18.5600 O   0  5  0  0  0  0  0  0  0  0  0  0
   11.2659   26.3443   16.1530 O   0  0  0  0  0  0  0  0  0  0  0  0
   14.2639   25.7071   16.2374 C   0  0  0  0  0  0  0  0  0  0  0  0
   13.3962   25.8108   17.3399 O   0  0  0  0  0  0  0  0  0  0  0  0
   15.5186   24.9569   16.6598 C   0  0  1  0  0  0  0  0  0  0  0  0
   15.1594   23.9762   17.6097 O   0  0  0  0  0  0  0  0  0  0  0  0
   16.1818   24.3063   15.4459 C   0  0  1  0  0  0  0  0  0  0  0  0
   15.3157   23.3374   14.8950 O   0  0  0  0  0  0  0  0  0  0  0  0
   16.6412   25.3108   14.3800 C   0  0  1  0  0  0  0  0  0  0  0  0
   17.6193   26.1710   14.9207 O   0  0  0  0  0  0  0  0  0  0  0  0
   17.2045   24.6315   13.1419 C   0  0  0  0  0  0  0  0  0  0  0  0
   15.3280   24.8459   11.0404 N   0  0  0  0  0  0  0  0  0  0  0  0
   14.3570   24.9448   10.0648 C   0  0  0  0  0  0  0  0  0  0  0  0
   13.4204   24.1415   10.0391 O   0  0  0  0  0  0  0  0  0  0  0  0
   14.4453   25.9407    9.1132 N   0  0  0  0  0  0  0  0  0  0  0  0
   15.4984   26.8357    9.1342 C   0  0  0  0  0  0  0  0  0  0  0  0
   16.4698   26.7413   10.1089 C   0  0  1  0  0  0  0  0  0  0  0  0
   15.5843   27.7332    8.2979 O   0  0  0  0  0  0  0  0  0  0  0  0
   18.4842   27.5586   11.0932 C   0  0  2  0  0  0  0  0  0  0  0  0
   17.5126   27.6472   10.1174 N   0  0  0  0  0  0  0  0  0  0  0  0
   19.5377   28.4696   11.1026 C   0  0  0  0  0  0  0  0  0  0  0  0
   20.5266   28.3843   12.0776 C   0  0  1  0  0  0  0  0  0  0  0  0
   21.6513   29.3825   12.0796 C   0  0  0  0  0  0  0  0  0  0  0  0
   20.4550   27.3807   13.0504 C   0  0  1  0  0  0  0  0  0  0  0  0
   21.4982   27.2718   14.1240 C   0  0  0  0  0  0  0  0  0  0  0  0
   19.4004   26.4727   13.0379 C   0  0  0  0  0  0  0  0  0  0  0  0
   18.4101   26.5530   12.0617 C   0  0  2  0  0  0  0  0  0  0  0  0
   16.3847   25.7412   11.0709 C   0  0  2  0  0  0  0  0  0  0  0  0
   17.3618   25.6408   12.0427 N   0  0  0  0  0  0  0  0  0  0  0  0
  1  2  1  6  0  0  0
  1  3  1  0  0  0  0
  1  4  2  0  0  0  0
  1  6  1  0  0  0  0
  5  6  1  0  0  0  0
  7  5  1  6  0  0  0
  7  8  1  0  0  0  0
  7  9  1  0  0  0  0
  9 10  1  6  0  0  0
  9 11  1  0  0  0  0
 11 12  1  1  0  0  0
 11 13  1  0  0  0  0
 13 31  1  0  0  0  0
 14 15  1  0  0  0  0
 15 16  2  0  0  0  0
 15 17  1  0  0  0  0
 17 18  1  0  0  0  0
 18 20  2  0  0  0  0
 19 18  1  1  0  0  0
 19 22  1  0  0  0  0
 19 30  1  0  0  0  0
 21 23  1  6  0  0  0
 21 29  1  0  0  0  0
 21 22  1  0  0  0  0
 23 24  1  0  0  0  0
 24 25  1  1  0  0  0
 24 26  1  0  0  0  0
 26 27  1  1  0  0  0
 26 28  1  0  0  0  0
 29 28  1  6  0  0  0
 29 31  1  0  0  0  0
 30 14  1  6  0  0  0
 30 31  1  0  0  0  0
M  CHG  1   3  -1
M  END
>  <CHROM.1>
167.03930186,-57.70108956,34.54100108,-63.61503183,62.28311925,168.19257034
76.01007570,15.99332510,26.25505177,13.49834573,2.33432027,0.23194408,1.55180151

>  <Name>
ligand

>  <RI>
0

>  <Rbt.Current_Directory>
/home/itssahil/PROJECTS/Mol_Feturizer/New_Systems/rnas/3F2Q

>  <Rbt.Executable>
rbdock ($Id: //depot/dev/client3/rdock/2013.1/src/exe/rbdock.cxx#4 $)

>  <Rbt.Library>
libRbt.so (2013.1, Build901 2013/11/27)

>  <Rbt.Parameter_File>
/export/apps/rDock/src/rDock_2013.1_src/data/scripts/dock_solv.prm

>  <Rbt.Receptor>
prm/blind_docking_40.prm

>  <SCORE>
9.08422

>  <SCORE.INTER>
9.94145

>  <SCORE.INTER.CONST>
1

>  <SCORE.INTER.POLAR>
0

>  <SCORE.INTER.ROT>
7

>  <SCORE.INTER.SOLV>
14.094

>  <SCORE.INTER.VDW>
-6.33703

>  <SCORE.INTER.norm>
0.320692

>  <SCORE.INTRA>
-3.33712

>  <SCORE.INTRA.DIHEDRAL>
-5.51013

>  <SCORE.INTRA.DIHEDRAL.0>
10.0718

>  <SCORE.INTRA.POLAR>
0

>  <SCORE.INTRA.POLAR.0>
0

>  <SCORE.INTRA.REPUL>
0

>  <SCORE.INTRA.REPUL.0>
0

>  <SCORE.INTRA.SOLV>
-1.27814

>  <SCORE.INTRA.SOLV.lig_0>
-48.6963

>  <SCORE.INTRA.VDW>
0.0570163

>  <SCORE.INTRA.VDW.0>
-0.836976

>  <SCORE.INTRA.norm>
-0.107649

>  <SCORE.RESTR>
2.47989

>  <SCORE.RESTR.CAVITY>
2.47989

>  <SCORE.RESTR.norm>
0.0799964

>  <SCORE.SYSTEM>
0

>  <SCORE.SYSTEM.CONST>
0

>  <SCORE.SYSTEM.DIHEDRAL>
0

>  <SCORE.SYSTEM.SOLV>
0

>  <SCORE.SYSTEM.norm>
0

>  <SCORE.heavy>
31

>  <SCORE.norm>
0.293039

>  <RMSD>
18.483

$$$$
ligand
 OpenBabel11021811473D
libRbt.so/2013.1/901 2013/11/27
 31 33  0  0  0  0  0  0  0  0999 V2000
   12.3971   26.0172   16.9329 P   0  0  1  0  0  0  0  0  0  0  0  0
   13.1718   27.1651   16.3217 O   0  0  0  0  0  0  0  0  0  0  0  0
   11.5635   26.5686   18.0582 O   0  5  0  0  0  0  0  0  0  0  0  0
   11.4993   25.3894   15.9025 O   0  0  0  0  0  0  0  0  0  0  0  0
   13.8348   23.8861   16.5170 C   0  0  0  0  0  0  0  0  0  0  0  0
   13.4175   24.8830   17.4177 O   0  0  0  0  0  0  0  0  0  0  0  0
   14.6975   24.5208   15.4361 C   0  0  1  0  0  0  0  0  0  0  0  0
   13.8570   25.2100   14.5350 O   0  0  0  0  0  0  0  0  0  0  0  0
   15.7104   25.4802   16.0609 C   0  0  1  0  0  0  0  0  0  0  0  0
   16.3818   24.8358   17.1222 O   0  0  0  0  0  0  0  0  0  0  0  0
   16.7050   26.0718   15.0523 C   0  0  1  0  0  0  0  0  0  0  0  0
   17.8637   26.5140   15.7237 O   0  0  0  0  0  0  0  0  0  0  0  0
   17.1031   25.0776   13.9732 C   0  0  0  0  0  0  0  0  0  0  0  0
   15.0724   24.9548   12.0123 N   0  0  0  0  0  0  0  0  0  0  0  0
   14.0304   24.9053   11.1089 C   0  0  0  0  0  0  0  0  0  0  0  0
   13.0450   24.1984   11.3378 O   0  0  0  0  0  0  0  0  0  0  0  0
   14.1017   25.6430    9.9445 N   0  0  0  0  0  0  0  0  0  0  0  0
   15.2086   26.4280    9.6815 C   0  0  0  0  0  0  0  0  0  0  0  0
   16.2513   26.4815   10.5829 C   0  0  1  0  0  0  0  0  0  0  0  0
   15.2810   27.0972    8.6523 O   0  0  0  0  0  0  0  0  0  0  0  0
   18.3909   27.3344   11.2069 C   0  0  2  0  0  0  0  0  0  0  0  0
   17.3475   27.2750   10.3059 N   0  0  0  0  0  0  0  0  0  0  0  0
   19.4981   28.1322   10.9289 C   0  0  0  0  0  0  0  0  0  0  0  0
   20.5588   28.1932   11.8273 C   0  0  1  0  0  0  0  0  0  0  0  0
   21.7419   29.0679   11.5165 C   0  0  0  0  0  0  0  0  0  0  0  0
   20.5054   27.4515   13.0129 C   0  0  1  0  0  0  0  0  0  0  0  0
   21.6268   27.5080   14.0088 C   0  0  0  0  0  0  0  0  0  0  0  0
   19.3969   26.6560   13.2874 C   0  0  0  0  0  0  0  0  0  0  0  0
   18.3344   26.5901   12.3891 C   0  0  2  0  0  0  0  0  0  0  0  0
   16.1837   25.7419   11.7581 C   0  0  2  0  0  0  0  0  0  0  0  0
   17.2313   25.7885   12.6578 N   0  0  0  0  0  0  0  0  0  0  0  0
  1  2  1  6  0  0  0
  1  3  1  0  0  0  0
  1  4  2  0  0  0  0
  1  6  1  0  0  0  0
  5  6  1  0  0  0  0
  7  5  1  1  0  0  0
  7  8  1  0  0  0  0
  7  9  1  0  0  0  0
  9 10  1  1  0  0  0
  9 11  1  0  0  0  0
 11 12  1  1  0  0  0
 11 13  1  0  0  0  0
 13 31  1  0  0  0  0
 14 15  1  0  0  0  0
 15 16  2  0  0  0  0
 15 17  1  0  0  0  0
 17 18  1  0  0  0  0
 18 20  2  0  0  0  0
 19 18  1  1  0  0  0
 19 22  1  0  0  0  0
 19 30  1  0  0  0  0
 21 23  1  6  0  0  0
 21 29  1  0  0  0  0
 21 22  1  0  0  0  0
 23 24  1  0  0  0  0
 24 25  1  1  0  0  0
 24 26  1  0  0  0  0
 26 27  1  1  0  0  0
 26 28  1  0  0  0  0
 29 28  1  6  0  0  0
 29 31  1  0  0  0  0
 30 14  1  6  0  0  0
 30 31  1  0  0  0  0
M  CHG  1   3  -1
M  END
>  <CHROM.1>
67.62623337,-87.28275285,-75.88037230,49.68736404,-158.12147217,141.96072868
75.48722207,15.91794656,26.12882006,13.65844842,-2.47982521,-0.28016405,-1.53741639

>  <Name>
ligand

>  <RI>
0

>  <Rbt.Current_Directory>
/home/itssahil/PROJECTS/Mol_Feturizer/New_Systems/rnas/3F2Q

>  <Rbt.Executable>
rbdock ($Id: //depot/dev/client3/rdock/2013.1/src/exe/rbdock.cxx#4 $)

>  <Rbt.Library>
libRbt.so (2013.1, Build901 2013/11/27)

>  <Rbt.Parameter_File>
/export/apps/rDock/src/rDock_2013.1_src/data/scripts/dock_solv.prm

>  <Rbt.Receptor>
prm/blind_docking_40.prm

>  <SCORE>
-1.40077

>  <SCORE.INTER>
-4.5859

>  <SCORE.INTER.CONST>
1

>  <SCORE.INTER.POLAR>
0

>  <SCORE.INTER.ROT>
7

>  <SCORE.INTER.SOLV>
12.2144

>  <SCORE.INTER.VDW>
-15.3954

>  <SCORE.INTER.norm>
-0.147932

>  <SCORE.INTRA>
0.557115

>  <SCORE.INTRA.DIHEDRAL>
-1.10118

>  <SCORE.INTRA.DIHEDRAL.0>
10.0718

>  <SCORE.INTRA.POLAR>
0

>  <SCORE.INTRA.POLAR.0>
0

>  <SCORE.INTRA.REPUL>
0

>  <SCORE.INTRA.REPUL.0>
0

>  <SCORE.INTRA.SOLV>
2.48138

>  <SCORE.INTRA.SOLV.lig_0>
-48.6963

>  <SCORE.INTRA.VDW>
-0.132988

>  <SCORE.INTRA.VDW.0>
-0.836976

>  <SCORE.INTRA.norm>
0.0179715

>  <SCORE.RESTR>
2.62802

>  <SCORE.RESTR.CAVITY>
2.62802

>  <SCORE.RESTR.norm>
0.0847747

>  <SCORE.SYSTEM>
0

>  <SCORE.SYSTEM.CONST>
0

>  <SCORE.SYSTEM.DIHEDRAL>
0

>  <SCORE.SYSTEM.SOLV>
0

>  <SCORE.SYSTEM.norm>
0

>  <SCORE.heavy>
31

>  <SCORE.norm>
-0.0451862

>  <RMSD>
18.529

$$$$
ligand
 OpenBabel11021811473D
libRbt.so/2013.1/901 2013/11/27
 31 33  0  0  0  0  0  0  0  0999 V2000
   17.8739   27.1939    9.9756 P   0  0  1  0  0  0  0  0  0  0  0  0
   18.0667   28.6563   10.3158 O   0  0  0  0  0  0  0  0  0  0  0  0
   19.1980   26.6477    9.5135 O   0  5  0  0  0  0  0  0  0  0  0  0
   17.4122   26.4348   11.1891 O   0  0  0  0  0  0  0  0  0  0  0  0
   15.3746   27.0376    9.2609 C   0  0  0  0  0  0  0  0  0  0  0  0
   16.7258   27.0503    8.8693 O   0  0  0  0  0  0  0  0  0  0  0  0
   14.9765   25.6164    9.6310 C   0  0  1  0  0  0  0  0  0  0  0  0
   15.9630   24.7308    9.1455 O   0  0  0  0  0  0  0  0  0  0  0  0
   14.8385   25.4818   11.1474 C   0  0  1  0  0  0  0  0  0  0  0  0
   14.3287   26.6830   11.6857 O   0  0  0  0  0  0  0  0  0  0  0  0
   13.9973   24.2753   11.5870 C   0  0  1  0  0  0  0  0  0  0  0  0
   13.6099   23.5235   10.4585 O   0  0  0  0  0  0  0  0  0  0  0  0
   14.7378   23.3702   12.5586 C   0  0  0  0  0  0  0  0  0  0  0  0
   17.5005   23.9088   12.3124 N   0  0  0  0  0  0  0  0  0  0  0  0
   18.8388   24.1849   12.1194 C   0  0  0  0  0  0  0  0  0  0  0  0
   19.4502   23.6634   11.1828 O   0  0  0  0  0  0  0  0  0  0  0  0
   19.4906   25.0395   12.9854 N   0  0  0  0  0  0  0  0  0  0  0  0
   18.8102   25.6173   14.0408 C   0  0  0  0  0  0  0  0  0  0  0  0
   17.4721   25.3452   14.2358 C   0  0  1  0  0  0  0  0  0  0  0  0
   19.3765   26.3875   14.8144 O   0  0  0  0  0  0  0  0  0  0  0  0
   15.4673   25.6689   15.4891 C   0  0  2  0  0  0  0  0  0  0  0  0
   16.8069   25.9353   15.2929 N   0  0  0  0  0  0  0  0  0  0  0  0
   14.7949   26.2610   16.5554 C   0  0  0  0  0  0  0  0  0  0  0  0
   13.4461   25.9930   16.7664 C   0  0  1  0  0  0  0  0  0  0  0  0
   12.7327   26.6492   17.9162 C   0  0  0  0  0  0  0  0  0  0  0  0
   12.7681   25.1283   15.8996 C   0  0  1  0  0  0  0  0  0  0  0  0
   11.3095   24.8312   16.0920 C   0  0  0  0  0  0  0  0  0  0  0  0
   13.4434   24.5391   14.8349 C   0  0  0  0  0  0  0  0  0  0  0  0
   14.7945   24.8026   14.6221 C   0  0  2  0  0  0  0  0  0  0  0  0
   16.8103   24.4867   13.3654 C   0  0  2  0  0  0  0  0  0  0  0  0
   15.4720   24.2071   13.5648 N   0  0  0  0  0  0  0  0  0  0  0  0
  1  2  1  1  0  0  0
  1  3  1  0  0  0  0
  1  4  2  0  0  0  0
  1  6  1  0  0  0  0
  5  6  1  0  0  0  0
  7  5  1  1  0  0  0
  7  8  1  0  0  0  0
  7  9  1  0  0  0  0
  9 10  1  6  0  0  0
  9 11  1  0  0  0  0
 11 12  1  6  0  0  0
 11 13  1  0  0  0  0
 13 31  1  0  0  0  0
 14 15  1  0  0  0  0
 15 16  2  0  0  0  0
 15 17  1  0  0  0  0
 17 18  1  0  0  0  0
 18 20  2  0  0  0  0
 19 18  1  6  0  0  0
 19 22  1  0  0  0  0
 19 30  1  0  0  0  0
 21 23  1  1  0  0  0
 21 29  1  0  0  0  0
 21 22  1  0  0  0  0
 23 24  1  0  0  0  0
 24 25  1  6  0  0  0
 24 26  1  0  0  0  0
 26 27  1  6  0  0  0
 26 28  1  0  0  0  0
 29 28  1  1  0  0  0
 29 31  1  0  0  0  0
 30 14  1  1  0  0  0
 30 31  1  0  0  0  0
M  CHG  1   3  -1
M  END
>  <CHROM.1>
-85.83801027,-83.17026172,-14.78072216,34.92843134,3.37218079,42.34934892
77.36485701,16.11827687,25.56400818,12.57625257,0.94123846,-0.13938233,-1.52356042

>  <Name>
ligand

>  <RI>
0

>  <Rbt.Current_Directory>
/home/itssahil/PROJECTS/Mol_Feturizer/New_Systems/rnas/3F2Q

>  <Rbt.Executable>
rbdock ($Id: //depot/dev/client3/rdock/2013.1/src/exe/rbdock.cxx#4 $)

>  <Rbt.Library>
libRbt.so (2013.1, Build901 2013/11/27)

>  <Rbt.Parameter_File>
/export/apps/rDock/src/rDock_2013.1_src/data/scripts/dock_solv.prm

>  <Rbt.Receptor>
prm/blind_docking_40.prm

>  <SCORE>
17.4346

>  <SCORE.INTER>
4.45828

>  <SCORE.INTER.CONST>
1

>  <SCORE.INTER.POLAR>
0

>  <SCORE.INTER.ROT>
7

>  <SCORE.INTER.SOLV>
11.7096

>  <SCORE.INTER.VDW>
-9.19769

>  <SCORE.INTER.norm>
0.143816

>  <SCORE.INTRA>
5.85157

>  <SCORE.INTRA.DIHEDRAL>
7.5008

>  <SCORE.INTRA.DIHEDRAL.0>
10.0718

>  <SCORE.INTRA.POLAR>
0

>  <SCORE.INTRA.POLAR.0>
0

>  <SCORE.INTRA.REPUL>
0

>  <SCORE.INTRA.REPUL.0>
0

>  <SCORE.INTRA.SOLV>
7.5238

>  <SCORE.INTRA.SOLV.lig_0>
-48.6963

>  <SCORE.INTRA.VDW>
-1.66074

>  <SCORE.INTRA.VDW.0>
-0.836976

>  <SCORE.INTRA.norm>
0.18876

>  <SCORE.RESTR>
7.12473

>  <SCORE.RESTR.CAVITY>
7.12473

>  <SCORE.RESTR.norm>
0.22983

>  <SCORE.SYSTEM>
0

>  <SCORE.SYSTEM.CONST>
0

>  <SCORE.SYSTEM.DIHEDRAL>
0

>  <SCORE.SYSTEM.SOLV>
0

>  <SCORE.SYSTEM.norm>
0

>  <SCORE.heavy>
31

>  <SCORE.norm>
0.562406

>  <RMSD>
18.547

$$$$
ligand
 OpenBabel11021811473D
libRbt.so/2013.1/901 2013/11/27
 31 33  0  0  0  0  0  0  0  0999 V2000
   11.7951   25.6060   14.9877 P   0  0  1  0  0  0  0  0  0  0  0  0
   11.3390   26.9704   15.4589 O   0  0  0  0  0  0  0  0  0  0  0  0
   10.5843   24.8551   14.5027 O   0  5  0  0  0  0  0  0  0  0  0  0
   12.7830   25.7485   13.8627 O   0  0  0  0  0  0  0  0  0  0  0  0
   13.3727   25.5855   17.0596 C   0  0  0  0  0  0  0  0  0  0  0  0
   12.5514   24.8545   16.1818 O   0  0  0  0  0  0  0  0  0  0  0  0
   14.4528   26.2951   16.2564 C   0  0  1  0  0  0  0  0  0  0  0  0
   14.8983   27.4155   16.9909 O   0  0  0  0  0  0  0  0  0  0  0  0
   15.6164   25.3442   15.9758 C   0  0  1  0  0  0  0  0  0  0  0  0
   15.1217   24.1328   15.4464 O   0  0  0  0  0  0  0  0  0  0  0  0
   16.7005   25.9444   15.0698 C   0  0  1  0  0  0  0  0  0  0  0  0
   17.8327   26.2865   15.8379 O   0  0  0  0  0  0  0  0  0  0  0  0
   17.1208   24.9980   13.9566 C   0  0  0  0  0  0  0  0  0  0  0  0
   15.0513   24.9338   12.0341 N   0  0  0  0  0  0  0  0  0  0  0  0
   13.9913   24.9108   11.1507 C   0  0  0  0  0  0  0  0  0  0  0  0
   13.0135   24.1918   11.3747 O   0  0  0  0  0  0  0  0  0  0  0  0
   14.0360   25.6888   10.0114 N   0  0  0  0  0  0  0  0  0  0  0  0
   15.1342   26.4875    9.7536 C   0  0  0  0  0  0  0  0  0  0  0  0
   16.1948   26.5146   10.6351 C   0  0  1  0  0  0  0  0  0  0  0  0
   15.1830   27.1924    8.7470 O   0  0  0  0  0  0  0  0  0  0  0  0
   18.3432   27.3554   11.2451 C   0  0  2  0  0  0  0  0  0  0  0  0
   17.2820   27.3224   10.3637 N   0  0  0  0  0  0  0  0  0  0  0  0
   19.4414   28.1675   10.9726 C   0  0  0  0  0  0  0  0  0  0  0  0
   20.5198   28.2021   11.8511 C   0  0  1  0  0  0  0  0  0  0  0  0
   21.6929   29.0926   11.5471 C   0  0  0  0  0  0  0  0  0  0  0  0
   20.4935   27.4196   13.0111 C   0  0  1  0  0  0  0  0  0  0  0  0
   21.6347   27.4468   13.9855 C   0  0  0  0  0  0  0  0  0  0  0  0
   19.3939   26.6099   13.2800 C   0  0  0  0  0  0  0  0  0  0  0  0
   18.3137   26.5702   12.4016 C   0  0  2  0  0  0  0  0  0  0  0  0
   16.1540   25.7344   11.7850 C   0  0  2  0  0  0  0  0  0  0  0  0
   17.2195   25.7546   12.6645 N   0  0  0  0  0  0  0  0  0  0  0  0
  1  2  1  1  0  0  0
  1  3  1  0  0  0  0
  1  4  2  0  0  0  0
  1  6  1  0  0  0  0
  5  6  1  0  0  0  0
  7  5  1  1  0  0  0
  7  8  1  0  0  0  0
  7  9  1  0  0  0  0
  9 10  1  6  0  0  0
  9 11  1  0  0  0  0
 11 12  1  1  0  0  0
 11 13  1  0  0  0  0
 13 31  1  0  0  0  0
 14 15  1  0  0  0  0
 15 16  2  0  0  0  0
 15 17  1  0  0  0  0
 17 18  1  0  0  0  0
 18 20  2  0  0  0  0
 19 18  1  1  0  0  0
 19 22  1  0  0  0  0
 19 30  1  0  0  0  0
 21 23  1  6  0  0  0
 21 29  1  0  0  0  0
 21 22  1  0  0  0  0
 23 24  1  0  0  0  0
 24 25  1  1  0  0  0
 24 26  1  0  0  0  0
 26 27  1  1  0  0  0
 26 28  1  0  0  0  0
 29 28  1  6  0  0  0
 29 31  1  0  0  0  0
 30 14  1  6  0  0  0
 30 31  1  0  0  0  0
M  CHG  1   3  -1
M  END
>  <CHROM.1>
-57.52992159,-37.11522280,155.77254181,50.01110345,105.02705782,135.75050674
77.15883341,15.73684436,26.18885856,13.33749241,2.73629217,0.26633980,1.61035568

>  <Name>
ligand

>  <RI>
0

>  <Rbt.Current_Directory>
/home/itssahil/PROJECTS/Mol_Feturizer/New_Systems/rnas/3F2Q

>  <Rbt.Executable>
rbdock ($Id: //depot/dev/client3/rdock/2013.1/src/exe/rbdock.cxx#4 $)

>  <Rbt.Library>
libRbt.so (2013.1, Build901 2013/11/27)

>  <Rbt.Parameter_File>
/export/apps/rDock/src/rDock_2013.1_src/data/scripts/dock_solv.prm

>  <Rbt.Receptor>
prm/blind_docking_40.prm

>  <SCORE>
2.22955

>  <SCORE.INTER>
-3.051

>  <SCORE.INTER.CONST>
1

>  <SCORE.INTER.POLAR>
0

>  <SCORE.INTER.ROT>
7

>  <SCORE.INTER.SOLV>
15.5425

>  <SCORE.INTER.VDW>
-15.4815

>  <SCORE.INTER.norm>
-0.0984192

>  <SCORE.INTRA>
2.35682

>  <SCORE.INTRA.DIHEDRAL>
2.99941

>  <SCORE.INTRA.DIHEDRAL.0>
10.0718

>  <SCORE.INTRA.POLAR>
0

>  <SCORE.INTRA.POLAR.0>
0

>  <SCORE.INTRA.REPUL>
0

>  <SCORE.INTRA.REPUL.0>
0

>  <SCORE.INTRA.SOLV>
3.84025

>  <SCORE.INTRA.SOLV.lig_0>
-48.6963

>  <SCORE.INTRA.VDW>
-1.06301

>  <SCORE.INTRA.VDW.0>
-0.836976

>  <SCORE.INTRA.norm>
0.0760264

>  <SCORE.RESTR>
2.92373

>  <SCORE.RESTR.CAVITY>
2.92373

>  <SCORE.RESTR.norm>
0.0943139

>  <SCORE.SYSTEM>
0

>  <SCORE.SYSTEM.CONST>
0

>  <SCORE.SYSTEM.DIHEDRAL>
0

>  <SCORE.SYSTEM.SOLV>
0

>  <SCORE.SYSTEM.norm>
0

>  <SCORE.heavy>
31

>  <SCORE.norm>
0.0719211

>  <RMSD>
18.553

$$$$
ligand
 OpenBabel11021811473D
libRbt.so/2013.1/901 2013/11/27
 31 33  0  0  0  0  0  0  0  0999 V2000
   11.4157   27.5315   19.1065 P   0  0  1  0  0  0  0  0  0  0  0  0
   11.5732   28.5768   20.1901 O   0  0  0  0  0  0  0  0  0  0  0  0
   11.1512   26.2089   19.7741 O   0  5  0  0  0  0  0  0  0  0  0  0
   10.2604   27.8826   18.2100 O   0  0  0  0  0  0  0  0  0  0  0  0
   13.0217   26.3742   17.4144 C   0  0  0  0  0  0  0  0  0  0  0  0
   12.7287   27.5102   18.1909 O   0  0  0  0  0  0  0  0  0  0  0  0
   14.1504   26.7077   16.4498 C   0  0  1  0  0  0  0  0  0  0  0  0
   14.9891   27.6703   17.0526 O   0  0  0  0  0  0  0  0  0  0  0  0
   14.9450   25.4477   16.1068 C   0  0  1  0  0  0  0  0  0  0  0  0
   14.1239   24.5494   15.3917 O   0  0  0  0  0  0  0  0  0  0  0  0
   16.2516   25.7274   15.3512 C   0  0  1  0  0  0  0  0  0  0  0  0
   17.3205   25.8364   16.2646 O   0  0  0  0  0  0  0  0  0  0  0  0
   16.5771   24.6499   14.3292 C   0  0  0  0  0  0  0  0  0  0  0  0
   14.5167   24.7057   12.3967 N   0  0  0  0  0  0  0  0  0  0  0  0
   13.4627   24.7523   11.5070 C   0  0  0  0  0  0  0  0  0  0  0  0
   12.3978   24.1904   11.7780 O   0  0  0  0  0  0  0  0  0  0  0  0
   13.6104   25.4223   10.3093 N   0  0  0  0  0  0  0  0  0  0  0  0
   14.8053   26.0441    9.9994 C   0  0  0  0  0  0  0  0  0  0  0  0
   15.8603   26.0014   10.8869 C   0  0  1  0  0  0  0  0  0  0  0  0
   14.9473   26.6521    8.9399 O   0  0  0  0  0  0  0  0  0  0  0  0
   18.1020   26.5955   11.4495 C   0  0  2  0  0  0  0  0  0  0  0  0
   17.0455   26.6325   10.5627 N   0  0  0  0  0  0  0  0  0  0  0  0
   19.2987   27.2294   11.1240 C   0  0  0  0  0  0  0  0  0  0  0  0
   20.3725   27.1914   12.0079 C   0  0  1  0  0  0  0  0  0  0  0  0
   21.6538   27.8902   11.6454 C   0  0  0  0  0  0  0  0  0  0  0  0
   20.2424   26.5162   13.2268 C   0  0  1  0  0  0  0  0  0  0  0  0
   21.3775   26.4703   14.2077 C   0  0  0  0  0  0  0  0  0  0  0  0
   19.0448   25.8846   13.5486 C   0  0  0  0  0  0  0  0  0  0  0  0
   17.9685   25.9177   12.6651 C   0  0  2  0  0  0  0  0  0  0  0  0
   15.7163   25.3296   12.0954 C   0  0  2  0  0  0  0  0  0  0  0  0
   16.7754   25.2791   12.9814 N   0  0  0  0  0  0  0  0  0  0  0  0
  1  2  1  1  0  0  0
  1  3  1  0  0  0  0
  1  4  2  0  0  0  0
  1  6  1  0  0  0  0
  5  6  1  0  0  0  0
  7  5  1  1  0  0  0
  7  8  1  0  0  0  0
  7  9  1  0  0  0  0
  9 10  1  6  0  0  0
  9 11  1  0  0  0  0
 11 12  1  1  0  0  0
 11 13  1  0  0  0  0
 13 31  1  0  0  0  0
 14 15  1  0  0  0  0
 15 16  2  0  0  0  0
 15 17  1  0  0  0  0
 17 18  1  0  0  0  0
 18 20  2  0  0  0  0
 19 18  1  1  0  0  0
 19 22  1  0  0  0  0
 19 30  1  0  0  0  0
 21 23  1  6  0  0  0
 21 29  1  0  0  0  0
 21 22  1  0  0  0  0
 23 24  1  0  0  0  0
 24 25  1  1  0  0  0
 24 26  1  0  0  0  0
 26 27  1  1  0  0  0
 26 28  1  0  0  0  0
 29 28  1  6  0  0  0
 29 31  1  0  0  0  0
 30 14  1  6  0  0  0
 30 31  1  0  0  0  0
M  CHG  1   3  -1
M  END
>  <CHROM.1>
169.17199469,159.30783659,31.06423823,65.48948759,93.18825810,125.27067604
78.62638384,15.36073520,26.31017550,14.39552331,-2.31307802,-0.12655579,-1.80340158

>  <Name>
ligand

>  <RI>
0

>  <Rbt.Current_Directory>
/home/itssahil/PROJECTS/Mol_Feturizer/New_Systems/rnas/3F2Q

>  <Rbt.Executable>
rbdock ($Id: //depot/dev/client3/rdock/2013.1/src/exe/rbdock.cxx#4 $)

>  <Rbt.Library>
libRbt.so (2013.1, Build901 2013/11/27)

>  <Rbt.Parameter_File>
/export/apps/rDock/src/rDock_2013.1_src/data/scripts/dock_solv.prm

>  <Rbt.Receptor>
prm/blind_docking_40.prm

>  <SCORE>
2.52292

>  <SCORE.INTER>
-2.65361

>  <SCORE.INTER.CONST>
1

>  <SCORE.INTER.POLAR>
0

>  <SCORE.INTER.ROT>
7

>  <SCORE.INTER.SOLV>
13.494

>  <SCORE.INTER.VDW>
-14.5337

>  <SCORE.INTER.norm>
-0.0856003

>  <SCORE.INTRA>
0.760244

>  <SCORE.INTRA.DIHEDRAL>
3.12239

>  <SCORE.INTRA.DIHEDRAL.0>
10.0718

>  <SCORE.INTRA.POLAR>
0

>  <SCORE.INTRA.POLAR.0>
0

>  <SCORE.INTRA.REPUL>
0

>  <SCORE.INTRA.REPUL.0>
0

>  <SCORE.INTRA.SOLV>
-0.697652

>  <SCORE.INTRA.SOLV.lig_0>
-48.6963

>  <SCORE.INTRA.VDW>
-0.452124

>  <SCORE.INTRA.VDW.0>
-0.836976

>  <SCORE.INTRA.norm>
0.024524

>  <SCORE.RESTR>
4.41628

>  <SCORE.RESTR.CAVITY>
4.41628

>  <SCORE.RESTR.norm>
0.142461

>  <SCORE.SYSTEM>
0

>  <SCORE.SYSTEM.CONST>
0

>  <SCORE.SYSTEM.DIHEDRAL>
0

>  <SCORE.SYSTEM.SOLV>
0

>  <SCORE.SYSTEM.norm>
0

>  <SCORE.heavy>
31

>  <SCORE.norm>
0.0813844

>  <RMSD>
18.618

$$$$
ligand
 OpenBabel11021811473D
libRbt.so/2013.1/901 2013/11/27
 31 33  0  0  0  0  0  0  0  0999 V2000
   12.3110   27.0644   16.6077 P   0  0  1  0  0  0  0  0  0  0  0  0
   12.2324   28.5599   16.3869 O   0  0  0  0  0  0  0  0  0  0  0  0
   12.8574   26.8286   17.9901 O   0  5  0  0  0  0  0  0  0  0  0  0
   10.9427   26.4502   16.4959 O   0  0  0  0  0  0  0  0  0  0  0  0
   13.6004   25.0540   15.5697 C   0  0  0  0  0  0  0  0  0  0  0  0
   13.2154   26.4031   15.4643 O   0  0  0  0  0  0  0  0  0  0  0  0
   14.6864   24.9271   16.6279 C   0  0  1  0  0  0  0  0  0  0  0  0
   14.3856   23.8212   17.4525 O   0  0  0  0  0  0  0  0  0  0  0  0
   16.0525   24.7437   15.9670 C   0  0  1  0  0  0  0  0  0  0  0  0
   16.0078   23.6440   15.0831 O   0  0  0  0  0  0  0  0  0  0  0  0
   16.5714   26.0036   15.2601 C   0  0  1  0  0  0  0  0  0  0  0  0
   16.8771   26.9973   16.2130 O   0  0  0  0  0  0  0  0  0  0  0  0
   17.8030   25.7314   14.4112 C   0  0  0  0  0  0  0  0  0  0  0  0
   19.3798   27.7316   13.1880 N   0  0  0  0  0  0  0  0  0  0  0  0
   20.2105   28.6754   12.6191 C   0  0  0  0  0  0  0  0  0  0  0  0
   21.0879   29.2176   13.2968 O   0  0  0  0  0  0  0  0  0  0  0  0
   20.0474   29.0158   11.2914 N   0  0  0  0  0  0  0  0  0  0  0  0
   19.0592   28.4169   10.5330 C   0  0  0  0  0  0  0  0  0  0  0  0
   18.2283   27.4717   11.0975 C   0  0  1  0  0  0  0  0  0  0  0  0
   18.9090   28.7042    9.3467 O   0  0  0  0  0  0  0  0  0  0  0  0
   16.4184   25.9312   10.8832 C   0  0  2  0  0  0  0  0  0  0  0  0
   17.2492   26.8800   10.3232 N   0  0  0  0  0  0  0  0  0  0  0  0
   15.4292   25.3347   10.1051 C   0  0  0  0  0  0  0  0  0  0  0  0
   14.5815   24.3824   10.6622 C   0  0  1  0  0  0  0  0  0  0  0  0
   13.5257   23.7403    9.8051 C   0  0  0  0  0  0  0  0  0  0  0  0
   14.7305   24.0248   12.0070 C   0  0  1  0  0  0  0  0  0  0  0  0
   13.8415   22.9900   12.6327 C   0  0  0  0  0  0  0  0  0  0  0  0
   15.7206   24.6227   12.7810 C   0  0  0  0  0  0  0  0  0  0  0  0
   16.5693   25.5786   12.2277 C   0  0  2  0  0  0  0  0  0  0  0  0
   18.3893   27.1239   12.4338 C   0  0  2  0  0  0  0  0  0  0  0  0
   17.5520   26.1833   13.0024 N   0  0  0  0  0  0  0  0  0  0  0  0
  1  2  1  6  0  0  0
  1  3  1  0  0  0  0
  1  4  2  0  0  0  0
  1  6  1  0  0  0  0
  5  6  1  0  0  0  0
  7  5  1  6  0  0  0
  7  8  1  0  0  0  0
  7  9  1  0  0  0  0
  9 10  1  6  0  0  0
  9 11  1  0  0  0  0
 11 12  1  1  0  0  0
 11 13  1  0  0  0  0
 13 31  1  0  0  0  0
 14 15  1  0  0  0  0
 15 16  2  0  0  0  0
 15 17  1  0  0  0  0
 17 18  1  0  0  0  0
 18 20  2  0  0  0  0
 19 18  1  6  0  0  0
 19 22  1  0  0  0  0
 19 30  1  0  0  0  0
 21 23  1  1  0  0  0
 21 29  1  0  0  0  0
 21 22  1  0  0  0  0
 23 24  1  0  0  0  0
 24 25  1  6  0  0  0
 24 26  1  0  0  0  0
 26 27  1  6  0  0  0
 26 28  1  0  0  0  0
 29 28  1  1  0  0  0
 29 31  1  0  0  0  0
 30 14  1  1  0  0  0
 30 31  1  0  0  0  0
M  CHG  1   3  -1
M  END
>  <CHROM.1>
-74.30252301,170.48426463,134.89261479,-54.75669159,68.17018829,124.62896759
-64.04410577,15.85365490,26.25117473,13.72777297,-2.62886318,-0.56116554
-1.98074757

>  <Name>
ligand

>  <RI>
0

>  <Rbt.Current_Directory>
/home/itssahil/PROJECTS/Mol_Feturizer/New_Systems/rnas/3F2Q

>  <Rbt.Executable>
rbdock ($Id: //depot/dev/client3/rdock/2013.1/src/exe/rbdock.cxx#4 $)

>  <Rbt.Library>
libRbt.so (2013.1, Build901 2013/11/27)

>  <Rbt.Parameter_File>
/export/apps/rDock/src/rDock_2013.1_src/data/scripts/dock_solv.prm

>  <Rbt.Receptor>
prm/blind_docking_40.prm

>  <SCORE>
7.59639

>  <SCORE.INTER>
0.0823345

>  <SCORE.INTER.CONST>
1

>  <SCORE.INTER.POLAR>
0

>  <SCORE.INTER.ROT>
7

>  <SCORE.INTER.SOLV>
13.5062

>  <SCORE.INTER.VDW>
-12.7138

>  <SCORE.INTER.norm>
0.00265595

>  <SCORE.INTRA>
1.15148

>  <SCORE.INTRA.DIHEDRAL>
2.41273

>  <SCORE.INTRA.DIHEDRAL.0>
10.0718

>  <SCORE.INTRA.POLAR>
0

>  <SCORE.INTRA.POLAR.0>
0

>  <SCORE.INTRA.REPUL>
0

>  <SCORE.INTRA.REPUL.0>
0

>  <SCORE.INTRA.SOLV>
1.46658

>  <SCORE.INTRA.SOLV.lig_0>
-48.6963

>  <SCORE.INTRA.VDW>
-0.788178

>  <SCORE.INTRA.VDW.0>
-0.836976

>  <SCORE.INTRA.norm>
0.0371445

>  <SCORE.RESTR>
6.36258

>  <SCORE.RESTR.CAVITY>
6.36258

>  <SCORE.RESTR.norm>
0.205244

>  <SCORE.SYSTEM>
0

>  <SCORE.SYSTEM.CONST>
0

>  <SCORE.SYSTEM.DIHEDRAL>
0

>  <SCORE.SYSTEM.SOLV>
0

>  <SCORE.SYSTEM.norm>
0

>  <SCORE.heavy>
31

>  <SCORE.norm>
0.245045

>  <RMSD>
18.650

$$$$
ligand
 OpenBabel11021811473D
libRbt.so/2013.1/901 2013/11/27
 31 33  0  0  0  0  0  0  0  0999 V2000
   12.2489   27.4126   17.0436 P   0  0  1  0  0  0  0  0  0  0  0  0
   12.2908   27.4294   15.5305 O   0  0  0  0  0  0  0  0  0  0  0  0
   12.7541   28.7422   17.5355 O   0  5  0  0  0  0  0  0  0  0  0  0
   10.8386   27.2019   17.5218 O   0  0  0  0  0  0  0  0  0  0  0  0
   12.9602   24.9077   17.0122 C   0  0  0  0  0  0  0  0  0  0  0  0
   13.1161   26.1820   17.5877 O   0  0  0  0  0  0  0  0  0  0  0  0
   14.0015   24.7246   15.9179 C   0  0  1  0  0  0  0  0  0  0  0  0
   13.5919   25.4521   14.7793 O   0  0  0  0  0  0  0  0  0  0  0  0
   15.3683   25.2116   16.3989 C   0  0  1  0  0  0  0  0  0  0  0  0
   16.0060   24.1871   17.1310 O   0  0  0  0  0  0  0  0  0  0  0  0
   16.2706   25.7329   15.2717 C   0  0  1  0  0  0  0  0  0  0  0  0
   17.4678   26.2451   15.8132 O   0  0  0  0  0  0  0  0  0  0  0  0
   16.6056   24.6595   14.2484 C   0  0  0  0  0  0  0  0  0  0  0  0
   14.5534   24.7588   12.3088 N   0  0  0  0  0  0  0  0  0  0  0  0
   13.5036   24.8271   11.4156 C   0  0  0  0  0  0  0  0  0  0  0  0
   12.4294   24.2795   11.6791 O   0  0  0  0  0  0  0  0  0  0  0  0
   13.6658   25.5026   10.2229 N   0  0  0  0  0  0  0  0  0  0  0  0
   14.8710   26.1084    9.9215 C   0  0  0  0  0  0  0  0  0  0  0  0
   15.9220   26.0440   10.8125 C   0  0  1  0  0  0  0  0  0  0  0  0
   15.0261   26.7211    8.8664 O   0  0  0  0  0  0  0  0  0  0  0  0
   18.1702   26.6007   11.3871 C   0  0  2  0  0  0  0  0  0  0  0  0
   17.1177   26.6594   10.4967 N   0  0  0  0  0  0  0  0  0  0  0  0
   19.3775   27.2187   11.0701 C   0  0  0  0  0  0  0  0  0  0  0  0
   20.4472   27.1589   11.9577 C   0  0  1  0  0  0  0  0  0  0  0  0
   21.7402   27.8407   11.6045 C   0  0  0  0  0  0  0  0  0  0  0  0
   20.3025   26.4777   13.1717 C   0  0  1  0  0  0  0  0  0  0  0  0
   21.4331   26.4084   14.1564 C   0  0  0  0  0  0  0  0  0  0  0  0
   19.0943   25.8621   13.4850 C   0  0  0  0  0  0  0  0  0  0  0  0
   18.0220   25.9172   12.5978 C   0  0  2  0  0  0  0  0  0  0  0  0
   15.7634   25.3666   12.0160 C   0  0  2  0  0  0  0  0  0  0  0  0
   16.8182   25.2945   12.9055 N   0  0  0  0  0  0  0  0  0  0  0  0
  1  2  1  6  0  0  0
  1  3  1  0  0  0  0
  1  4  2  0  0  0  0
  1  6  1  0  0  0  0
  5  6  1  0  0  0  0
  7  5  1  1  0  0  0
  7  8  1  0  0  0  0
  7  9  1  0  0  0  0
  9 10  1  6  0  0  0
  9 11  1  0  0  0  0
 11 12  1  1  0  0  0
 11 13  1  0  0  0  0
 13 31  1  0  0  0  0
 14 15  1  0  0  0  0
 15 16  2  0  0  0  0
 15 17  1  0  0  0  0
 17 18  1  0  0  0  0
 18 20  2  0  0  0  0
 19 18  1  1  0  0  0
 19 22  1  0  0  0  0
 19 30  1  0  0  0  0
 21 23  1  6  0  0  0
 21 29  1  0  0  0  0
 21 22  1  0  0  0  0
 23 24  1  0  0  0  0
 24 25  1  1  0  0  0
 24 26  1  0  0  0  0
 26 27  1  1  0  0  0
 26 28  1  0  0  0  0
 29 28  1  6  0  0  0
 29 31  1  0  0  0  0
 30 14  1  6  0  0  0
 30 31  1  0  0  0  0
M  CHG  1   3  -1
M  END
>  <CHROM.1>
93.91627159,-46.65665557,-76.48247363,83.94939319,175.93851682,150.27188206
79.51985239,15.59688131,26.10292544,13.86391503,-2.47638294,-0.07772203,-1.66377910

>  <Name>
ligand

>  <RI>
0

>  <Rbt.Current_Directory>
/home/itssahil/PROJECTS/Mol_Feturizer/New_Systems/rnas/3F2Q

>  <Rbt.Executable>
rbdock ($Id: //depot/dev/client3/rdock/2013.1/src/exe/rbdock.cxx#4 $)

>  <Rbt.Library>
libRbt.so (2013.1, Build901 2013/11/27)

>  <Rbt.Parameter_File>
/export/apps/rDock/src/rDock_2013.1_src/data/scripts/dock_solv.prm

>  <Rbt.Receptor>
prm/blind_docking_40.prm

>  <SCORE>
2.74535

>  <SCORE.INTER>
-0.523973

>  <SCORE.INTER.CONST>
1

>  <SCORE.INTER.POLAR>
0

>  <SCORE.INTER.ROT>
7

>  <SCORE.INTER.SOLV>
15.3259

>  <SCORE.INTER.VDW>
-13.7246

>  <SCORE.INTER.norm>
-0.0169024

>  <SCORE.INTRA>
-0.364082

>  <SCORE.INTRA.DIHEDRAL>
1.1241

>  <SCORE.INTRA.DIHEDRAL.0>
10.0718

>  <SCORE.INTRA.POLAR>
0

>  <SCORE.INTRA.POLAR.0>
0

>  <SCORE.INTRA.REPUL>
0

>  <SCORE.INTRA.REPUL.0>
0

>  <SCORE.INTRA.SOLV>
0.47429

>  <SCORE.INTRA.SOLV.lig_0>
-48.6963

>  <SCORE.INTRA.VDW>
-1.16328

>  <SCORE.INTRA.VDW.0>
-0.836976

>  <SCORE.INTRA.norm>
-0.0117446

>  <SCORE.RESTR>
3.63341

>  <SCORE.RESTR.CAVITY>
3.63341

>  <SCORE.RESTR.norm>
0.117207

>  <SCORE.SYSTEM>
0

>  <SCORE.SYSTEM.CONST>
0

>  <SCORE.SYSTEM.DIHEDRAL>
0

>  <SCORE.SYSTEM.SOLV>
0

>  <SCORE.SYSTEM.norm>
0

>  <SCORE.heavy>
31

>  <SCORE.norm>
0.0885597

>  <RMSD>
18.651

$$$$
ligand
 OpenBabel11021811473D
libRbt.so/2013.1/901 2013/11/27
 31 33  0  0  0  0  0  0  0  0999 V2000
   12.6071   27.3123   17.2807 P   0  0  1  0  0  0  0  0  0  0  0  0
   13.8231   28.2111   17.2087 O   0  0  0  0  0  0  0  0  0  0  0  0
   11.6228   27.9404   18.2303 O   0  5  0  0  0  0  0  0  0  0  0  0
   11.9790   27.1783   15.9208 O   0  0  0  0  0  0  0  0  0  0  0  0
   12.8152   24.7461   16.8898 C   0  0  0  0  0  0  0  0  0  0  0  0
   13.0548   25.8443   17.7358 O   0  0  0  0  0  0  0  0  0  0  0  0
   13.8839   24.7087   15.8073 C   0  0  1  0  0  0  0  0  0  0  0  0
   13.4791   25.5458   14.7448 O   0  0  0  0  0  0  0  0  0  0  0  0
   15.2267   25.1735   16.3709 C   0  0  1  0  0  0  0  0  0  0  0  0
   15.8111   24.1321   17.1234 O   0  0  0  0  0  0  0  0  0  0  0  0
   16.1965   25.6991   15.3034 C   0  0  1  0  0  0  0  0  0  0  0  0
   17.3657   26.1927   15.9183 O   0  0  0  0  0  0  0  0  0  0  0  0
   16.5791   24.6347   14.2874 C   0  0  0  0  0  0  0  0  0  0  0  0
   14.5155   24.7044   12.3587 N   0  0  0  0  0  0  0  0  0  0  0  0
   13.4601   24.7576   11.4711 C   0  0  0  0  0  0  0  0  0  0  0  0
   12.3948   24.1959   11.7408 O   0  0  0  0  0  0  0  0  0  0  0  0
   13.6068   25.4341   10.2769 N   0  0  0  0  0  0  0  0  0  0  0  0
   14.8021   26.0559    9.9685 C   0  0  0  0  0  0  0  0  0  0  0  0
   15.8586   26.0065   10.8540 C   0  0  1  0  0  0  0  0  0  0  0  0
   14.9433   26.6696    8.9122 O   0  0  0  0  0  0  0  0  0  0  0  0
   18.1021   26.5940   11.4161 C   0  0  2  0  0  0  0  0  0  0  0  0
   17.0442   26.6377   10.5313 N   0  0  0  0  0  0  0  0  0  0  0  0
   19.2992   27.2279   11.0921 C   0  0  0  0  0  0  0  0  0  0  0  0
   20.3744   27.1834   11.9740 C   0  0  1  0  0  0  0  0  0  0  0  0
   21.6562   27.8823   11.6133 C   0  0  0  0  0  0  0  0  0  0  0  0
   20.2454   26.5015   13.1893 C   0  0  1  0  0  0  0  0  0  0  0  0
   21.3820   26.4484   14.1680 C   0  0  0  0  0  0  0  0  0  0  0  0
   19.0473   25.8700   13.5096 C   0  0  0  0  0  0  0  0  0  0  0  0
   17.9696   25.9097   12.6281 C   0  0  2  0  0  0  0  0  0  0  0  0
   15.7156   25.3282   12.0589 C   0  0  2  0  0  0  0  0  0  0  0  0
   16.7760   25.2712   12.9428 N   0  0  0  0  0  0  0  0  0  0  0  0
  1  2  1  6  0  0  0
  1  3  1  0  0  0  0
  1  4  2  0  0  0  0
  1  6  1  0  0  0  0
  5  6  1  0  0  0  0
  7  5  1  1  0  0  0
  7  8  1  0  0  0  0
  7  9  1  0  0  0  0
  9 10  1  6  0  0  0
  9 11  1  0  0  0  0
 11 12  1  1  0  0  0
 11 13  1  0  0  0  0
 13 31  1  0  0  0  0
 14 15  1  0  0  0  0
 15 16  2  0  0  0  0
 15 17  1  0  0  0  0
 17 18  1  0  0  0  0
 18 20  2  0  0  0  0
 19 18  1  1  0  0  0
 19 22  1  0  0  0  0
 19 30  1  0  0  0  0
 21 23  1  6  0  0  0
 21 29  1  0  0  0  0
 21 22  1  0  0  0  0
 23 24  1  0  0  0  0
 24 25  1  1  0  0  0
 24 26  1  0  0  0  0
 26 27  1  1  0  0  0
 26 28  1  0  0  0  0
 29 28  1  6  0  0  0
 29 31  1  0  0  0  0
 30 14  1  6  0  0  0
 30 31  1  0  0  0  0
M  CHG  1   3  -1
M  END
>  <CHROM.1>
79.73468237,-119.75366791,-85.76866056,77.78140338,175.81809972,146.16118836
81.11419314,15.61336496,26.06225032,13.92843750,-2.42732419,-0.12484017,-1.68487539

>  <Name>
ligand

>  <RI>
0

>  <Rbt.Current_Directory>
/home/itssahil/PROJECTS/Mol_Feturizer/New_Systems/rnas/3F2Q

>  <Rbt.Executable>
rbdock ($Id: //depot/dev/client3/rdock/2013.1/src/exe/rbdock.cxx#4 $)

>  <Rbt.Library>
libRbt.so (2013.1, Build901 2013/11/27)

>  <Rbt.Parameter_File>
/export/apps/rDock/src/rDock_2013.1_src/data/scripts/dock_solv.prm

>  <Rbt.Receptor>
prm/blind_docking_40.prm

>  <SCORE>
3.06495

>  <SCORE.INTER>
-2.37683

>  <SCORE.INTER.CONST>
1

>  <SCORE.INTER.POLAR>
0

>  <SCORE.INTER.ROT>
7

>  <SCORE.INTER.SOLV>
14.5738

>  <SCORE.INTER.VDW>
-14.7092

>  <SCORE.INTER.norm>
-0.0766721

>  <SCORE.INTRA>
1.42395

>  <SCORE.INTRA.DIHEDRAL>
1.62019

>  <SCORE.INTRA.DIHEDRAL.0>
10.0718

>  <SCORE.INTRA.POLAR>
0

>  <SCORE.INTRA.POLAR.0>
0

>  <SCORE.INTRA.REPUL>
0

>  <SCORE.INTRA.REPUL.0>
0

>  <SCORE.INTRA.SOLV>
2.77094

>  <SCORE.INTRA.SOLV.lig_0>
-48.6963

>  <SCORE.INTRA.VDW>
-0.771616

>  <SCORE.INTRA.VDW.0>
-0.836976

>  <SCORE.INTRA.norm>
0.0459338

>  <SCORE.RESTR>
4.01783

>  <SCORE.RESTR.CAVITY>
4.01783

>  <SCORE.RESTR.norm>
0.129607

>  <SCORE.SYSTEM>
0

>  <SCORE.SYSTEM.CONST>
0

>  <SCORE.SYSTEM.DIHEDRAL>
0

>  <SCORE.SYSTEM.SOLV>
0

>  <SCORE.SYSTEM.norm>
0

>  <SCORE.heavy>
31

>  <SCORE.norm>
0.0988693

>  <RMSD>
18.662

$$$$
ligand
 OpenBabel11021811473D
libRbt.so/2013.1/901 2013/11/27
 31 33  0  0  0  0  0  0  0  0999 V2000
   12.4543   28.4401   18.2804 P   0  0  1  0  0  0  0  0  0  0  0  0
   12.0226   29.4808   17.2694 O   0  0  0  0  0  0  0  0  0  0  0  0
   13.9078   28.6737   18.5933 O   0  5  0  0  0  0  0  0  0  0  0  0
   11.6414   28.5700   19.5390 O   0  0  0  0  0  0  0  0  0  0  0  0
   12.9739   26.4804   16.6461 C   0  0  0  0  0  0  0  0  0  0  0  0
   12.1757   26.9774   17.6925 O   0  0  0  0  0  0  0  0  0  0  0  0
   12.4400   25.1225   16.2141 C   0  0  1  0  0  0  0  0  0  0  0  0
   11.0813   25.2647   15.8577 O   0  0  0  0  0  0  0  0  0  0  0  0
   13.2481   24.5859   15.0327 C   0  0  1  0  0  0  0  0  0  0  0  0
   13.0740   25.4316   13.9160 O   0  0  0  0  0  0  0  0  0  0  0  0
   14.7366   24.3782   15.3453 C   0  0  1  0  0  0  0  0  0  0  0  0
   14.8785   23.5399   16.4704 O   0  0  0  0  0  0  0  0  0  0  0  0
   15.5002   23.7768   14.1762 C   0  0  0  0  0  0  0  0  0  0  0  0
   16.8995   25.7455   15.6424 N   0  0  0  0  0  0  0  0  0  0  0  0
   17.6063   26.6531   16.4047 C   0  0  0  0  0  0  0  0  0  0  0  0
   17.4974   26.6475   17.6340 O   0  0  0  0  0  0  0  0  0  0  0  0
   18.4272   27.5725   15.7834 N   0  0  0  0  0  0  0  0  0  0  0  0
   18.5433   27.5870   14.4061 C   0  0  0  0  0  0  0  0  0  0  0  0
   17.8399   26.6801   13.6410 C   0  0  1  0  0  0  0  0  0  0  0  0
   19.2780   28.3948   13.8404 O   0  0  0  0  0  0  0  0  0  0  0  0
   17.2729   25.7979   11.4974 C   0  0  2  0  0  0  0  0  0  0  0  0
   17.9718   26.7060   12.2661 N   0  0  0  0  0  0  0  0  0  0  0  0
   17.4026   25.8234   10.1109 C   0  0  0  0  0  0  0  0  0  0  0  0
   16.6965   24.9170    9.3263 C   0  0  1  0  0  0  0  0  0  0  0  0
   16.8563   24.9513    7.8314 C   0  0  0  0  0  0  0  0  0  0  0  0
   15.8583   23.9778    9.9378 C   0  0  1  0  0  0  0  0  0  0  0  0
   15.0951   22.9773    9.1196 C   0  0  0  0  0  0  0  0  0  0  0  0
   15.7319   23.9552   11.3236 C   0  0  0  0  0  0  0  0  0  0  0  0
   16.4348   24.8629   12.1123 C   0  0  2  0  0  0  0  0  0  0  0  0
   17.0132   25.7508   14.2617 C   0  0  2  0  0  0  0  0  0  0  0  0
   16.3018   24.8474   13.4956 N   0  0  0  0  0  0  0  0  0  0  0  0
  1  2  1  6  0  0  0
  1  3  1  0  0  0  0
  1  4  2  0  0  0  0
  1  6  1  0  0  0  0
  5  6  1  0  0  0  0
  7  5  1  6  0  0  0
  7  8  1  0  0  0  0
  7  9  1  0  0  0  0
  9 10  1  6  0  0  0
  9 11  1  0  0  0  0
 11 12  1  1  0  0  0
 11 13  1  0  0  0  0
 13 31  1  0  0  0  0
 14 15  1  0  0  0  0
 15 16  2  0  0  0  0
 15 17  1  0  0  0  0
 17 18  1  0  0  0  0
 18 20  2  0  0  0  0
 19 18  1  1  0  0  0
 19 22  1  0  0  0  0
 19 30  1  0  0  0  0
 21 23  1  6  0  0  0
 21 29  1  0  0  0  0
 21 22  1  0  0  0  0
 23 24  1  0  0  0  0
 24 25  1  1  0  0  0
 24 26  1  0  0  0  0
 26 27  1  1  0  0  0
 26 28  1  0  0  0  0
 29 28  1  6  0  0  0
 29 31  1  0  0  0  0
 30 14  1  6  0  0  0
 30 31  1  0  0  0  0
M  CHG  1   3  -1
M  END
>  <CHROM.1>
-176.07686545,71.63099092,56.17926636,-64.27352785,55.14439134,103.32522963
-141.95550304,15.21842763,26.10457469,14.61465057,2.08865303,0.31720017,1.04208100

>  <Name>
ligand

>  <RI>
0

>  <Rbt.Current_Directory>
/home/itssahil/PROJECTS/Mol_Feturizer/New_Systems/rnas/3F2Q

>  <Rbt.Executable>
rbdock ($Id: //depot/dev/client3/rdock/2013.1/src/exe/rbdock.cxx#4 $)

>  <Rbt.Library>
libRbt.so (2013.1, Build901 2013/11/27)

>  <Rbt.Parameter_File>
/export/apps/rDock/src/rDock_2013.1_src/data/scripts/dock_solv.prm

>  <Rbt.Receptor>
prm/blind_docking_40.prm

>  <SCORE>
-0.912275

>  <SCORE.INTER>
-4.34924

>  <SCORE.INTER.CONST>
1

>  <SCORE.INTER.POLAR>
0

>  <SCORE.INTER.ROT>
7

>  <SCORE.INTER.SOLV>
20.6982

>  <SCORE.INTER.VDW>
-18.0656

>  <SCORE.INTER.norm>
-0.140298

>  <SCORE.INTRA>
-2.34964

>  <SCORE.INTRA.DIHEDRAL>
-4.08929

>  <SCORE.INTRA.DIHEDRAL.0>
10.0718

>  <SCORE.INTRA.POLAR>
0

>  <SCORE.INTRA.POLAR.0>
0

>  <SCORE.INTRA.REPUL>
0

>  <SCORE.INTRA.REPUL.0>
0

>  <SCORE.INTRA.SOLV>
-1.35631

>  <SCORE.INTRA.SOLV.lig_0>
-48.6963

>  <SCORE.INTRA.VDW>
0.373155

>  <SCORE.INTRA.VDW.0>
-0.836976

>  <SCORE.INTRA.norm>
-0.0757949

>  <SCORE.RESTR>
5.78661

>  <SCORE.RESTR.CAVITY>
5.78661

>  <SCORE.RESTR.norm>
0.186665

>  <SCORE.SYSTEM>
0

>  <SCORE.SYSTEM.CONST>
0

>  <SCORE.SYSTEM.DIHEDRAL>
0

>  <SCORE.SYSTEM.SOLV>
0

>  <SCORE.SYSTEM.norm>
0

>  <SCORE.heavy>
31

>  <SCORE.norm>
-0.0294282

>  <RMSD>
18.939

$$$$
ligand
 OpenBabel11021811473D
libRbt.so/2013.1/901 2013/11/27
 31 33  0  0  0  0  0  0  0  0999 V2000
   10.7142   28.4894   17.9885 P   0  0  1  0  0  0  0  0  0  0  0  0
    9.3585   28.3040   17.3409 O   0  0  0  0  0  0  0  0  0  0  0  0
   10.8364   29.9314   18.4018 O   0  5  0  0  0  0  0  0  0  0  0  0
   10.8363   27.6066   19.1999 O   0  0  0  0  0  0  0  0  0  0  0  0
   11.9333   26.7012   16.5402 C   0  0  0  0  0  0  0  0  0  0  0  0
   11.8602   28.0404   16.9650 O   0  0  0  0  0  0  0  0  0  0  0  0
   13.2539   26.4790   15.8178 C   0  0  1  0  0  0  0  0  0  0  0  0
   14.3096   26.7940   16.7009 O   0  0  0  0  0  0  0  0  0  0  0  0
   13.3652   25.0282   15.3494 C   0  0  1  0  0  0  0  0  0  0  0  0
   12.9419   24.9298   14.0064 O   0  0  0  0  0  0  0  0  0  0  0  0
   14.7637   24.4236   15.5366 C   0  0  1  0  0  0  0  0  0  0  0  0
   14.7205   23.4072   16.5132 O   0  0  0  0  0  0  0  0  0  0  0  0
   15.3299   23.8517   14.2467 C   0  0  0  0  0  0  0  0  0  0  0  0
   16.7997   25.7533   15.7323 N   0  0  0  0  0  0  0  0  0  0  0  0
   17.5376   26.6272   16.5044 C   0  0  0  0  0  0  0  0  0  0  0  0
   17.4089   26.6298   17.7319 O   0  0  0  0  0  0  0  0  0  0  0  0
   18.4122   27.5041   15.8951 N   0  0  0  0  0  0  0  0  0  0  0  0
   18.5510   27.5096   14.5198 C   0  0  0  0  0  0  0  0  0  0  0  0
   17.8166   26.6363   13.7448 C   0  0  1  0  0  0  0  0  0  0  0  0
   19.3333   28.2793   13.9648 O   0  0  0  0  0  0  0  0  0  0  0  0
   17.2418   25.7777   11.5938 C   0  0  2  0  0  0  0  0  0  0  0  0
   17.9717   26.6525   12.3723 N   0  0  0  0  0  0  0  0  0  0  0  0
   17.3949   25.7936   10.2095 C   0  0  0  0  0  0  0  0  0  0  0  0
   16.6581   24.9209    9.4150 C   0  0  1  0  0  0  0  0  0  0  0  0
   16.8434   24.9438    7.9228 C   0  0  0  0  0  0  0  0  0  0  0  0
   15.7654   24.0251   10.0143 C   0  0  1  0  0  0  0  0  0  0  0  0
   14.9676   23.0611    9.1855 C   0  0  0  0  0  0  0  0  0  0  0  0
   15.6158   24.0119   11.3979 C   0  0  0  0  0  0  0  0  0  0  0  0
   16.3494   24.8861   12.1965 C   0  0  2  0  0  0  0  0  0  0  0  0
   16.9357   25.7498   14.3536 C   0  0  2  0  0  0  0  0  0  0  0  0
   16.1935   24.8803   13.5775 N   0  0  0  0  0  0  0  0  0  0  0  0
  1  2  1  6  0  0  0
  1  3  1  0  0  0  0
  1  4  2  0  0  0  0
  1  6  1  0  0  0  0
  5  6  1  0  0  0  0
  7  5  1  1  0  0  0
  7  8  1  0  0  0  0
  7  9  1  0  0  0  0
  9 10  1  6  0  0  0
  9 11  1  0  0  0  0
 11 12  1  1  0  0  0
 11 13  1  0  0  0  0
 13 31  1  0  0  0  0
 14 15  1  0  0  0  0
 15 16  2  0  0  0  0
 15 17  1  0  0  0  0
 17 18  1  0  0  0  0
 18 20  2  0  0  0  0
 19 18  1  1  0  0  0
 19 22  1  0  0  0  0
 19 30  1  0  0  0  0
 21 23  1  6  0  0  0
 21 29  1  0  0  0  0
 21 22  1  0  0  0  0
 23 24  1  0  0  0  0
 24 25  1  1  0  0  0
 24 26  1  0  0  0  0
 26 27  1  1  0  0  0
 26 28  1  0  0  0  0
 29 28  1  6  0  0  0
 29 31  1  0  0  0  0
 30 14  1  6  0  0  0
 30 31  1  0  0  0  0
M  CHG  1   3  -1
M  END
>  <CHROM.1>
-168.40462658,-63.49805109,58.56507770,95.52398594,112.72949951,94.70767472
-151.53937357,14.92113131,26.20264397,14.63936168,2.23224477,0.09342650,1.10000944

>  <Name>
ligand

>  <RI>
0

>  <Rbt.Current_Directory>
/home/itssahil/PROJECTS/Mol_Feturizer/New_Systems/rnas/3F2Q

>  <Rbt.Executable>
rbdock ($Id: //depot/dev/client3/rdock/2013.1/src/exe/rbdock.cxx#4 $)

>  <Rbt.Library>
libRbt.so (2013.1, Build901 2013/11/27)

>  <Rbt.Parameter_File>
/export/apps/rDock/src/rDock_2013.1_src/data/scripts/dock_solv.prm

>  <Rbt.Receptor>
prm/blind_docking_40.prm

>  <SCORE>
9.93647

>  <SCORE.INTER>
0.505729

>  <SCORE.INTER.CONST>
1

>  <SCORE.INTER.POLAR>
0

>  <SCORE.INTER.ROT>
7

>  <SCORE.INTER.SOLV>
15.1864

>  <SCORE.INTER.VDW>
-12.9916

>  <SCORE.INTER.norm>
0.0163139

>  <SCORE.INTRA>
4.4616

>  <SCORE.INTRA.DIHEDRAL>
3.49154

>  <SCORE.INTRA.DIHEDRAL.0>
10.0718

>  <SCORE.INTRA.POLAR>
0

>  <SCORE.INTRA.POLAR.0>
0

>  <SCORE.INTRA.REPUL>
0

>  <SCORE.INTRA.REPUL.0>
0

>  <SCORE.INTRA.SOLV>
-0.73535

>  <SCORE.INTRA.SOLV.lig_0>
-48.6963

>  <SCORE.INTRA.VDW>
3.0835

>  <SCORE.INTRA.VDW.0>
-0.836976

>  <SCORE.INTRA.norm>
0.143922

>  <SCORE.RESTR>
4.96915

>  <SCORE.RESTR.CAVITY>
4.96915

>  <SCORE.RESTR.norm>
0.160295

>  <SCORE.SYSTEM>
0

>  <SCORE.SYSTEM.CONST>
0

>  <SCORE.SYSTEM.DIHEDRAL>
0

>  <SCORE.SYSTEM.SOLV>
0

>  <SCORE.SYSTEM.norm>
0

>  <SCORE.heavy>
31

>  <SCORE.norm>
0.320531

>  <RMSD>
18.990

$$$$
ligand
 OpenBabel11021811473D
libRbt.so/2013.1/901 2013/11/27
 31 33  0  0  0  0  0  0  0  0999 V2000
   12.0103   27.9458   18.9729 P   0  0  1  0  0  0  0  0  0  0  0  0
   12.6737   28.2390   20.3016 O   0  0  0  0  0  0  0  0  0  0  0  0
   10.9923   26.8594   19.1936 O   0  5  0  0  0  0  0  0  0  0  0  0
   11.3253   29.1788   18.4510 O   0  0  0  0  0  0  0  0  0  0  0  0
   12.7895   27.4731   16.5335 C   0  0  0  0  0  0  0  0  0  0  0  0
   13.1249   27.5394   17.8982 O   0  0  0  0  0  0  0  0  0  0  0  0
   12.5436   26.0210   16.1510 C   0  0  1  0  0  0  0  0  0  0  0  0
   11.6680   25.9883   15.0439 O   0  0  0  0  0  0  0  0  0  0  0  0
   13.8641   25.3318   15.8073 C   0  0  1  0  0  0  0  0  0  0  0  0
   14.3125   24.5853   16.9182 O   0  0  0  0  0  0  0  0  0  0  0  0
   13.7969   24.4618   14.5443 C   0  0  1  0  0  0  0  0  0  0  0  0
   13.4004   25.2463   13.4415 O   0  0  0  0  0  0  0  0  0  0  0  0
   15.1235   23.7902   14.2269 C   0  0  0  0  0  0  0  0  0  0  0  0
   16.6265   25.6438   15.7396 N   0  0  0  0  0  0  0  0  0  0  0  0
   17.3772   26.4939   16.5259 C   0  0  0  0  0  0  0  0  0  0  0  0
   17.2160   26.5104   17.7494 O   0  0  0  0  0  0  0  0  0  0  0  0
   18.3014   27.3316   15.9348 N   0  0  0  0  0  0  0  0  0  0  0  0
   18.4768   27.3217   14.5638 C   0  0  0  0  0  0  0  0  0  0  0  0
   17.7298   26.4721   13.7748 C   0  0  1  0  0  0  0  0  0  0  0  0
   19.3031   28.0563   14.0252 O   0  0  0  0  0  0  0  0  0  0  0  0
   17.1793   25.6209   11.6144 C   0  0  2  0  0  0  0  0  0  0  0  0
   17.9218   26.4723   12.4068 N   0  0  0  0  0  0  0  0  0  0  0  0
   17.3697   25.6207   10.2347 C   0  0  0  0  0  0  0  0  0  0  0  0
   16.6207   24.7716    9.4261 C   0  0  1  0  0  0  0  0  0  0  0  0
   16.8464   24.7765    7.9393 C   0  0  0  0  0  0  0  0  0  0  0  0
   15.6779   23.9156   10.0068 C   0  0  1  0  0  0  0  0  0  0  0  0
   14.8654   22.9775    9.1629 C   0  0  0  0  0  0  0  0  0  0  0  0
   15.4911   23.9184   11.3859 C   0  0  0  0  0  0  0  0  0  0  0  0
   16.2369   24.7691   12.1985 C   0  0  2  0  0  0  0  0  0  0  0  0
   16.7989   25.6250   14.3652 C   0  0  2  0  0  0  0  0  0  0  0  0
   16.0442   24.7795   13.5748 N   0  0  0  0  0  0  0  0  0  0  0  0
  1  2  1  1  0  0  0
  1  3  1  0  0  0  0
  1  4  2  0  0  0  0
  1  6  1  0  0  0  0
  5  6  1  0  0  0  0
  7  5  1  6  0  0  0
  7  8  1  0  0  0  0
  7  9  1  0  0  0  0
  9 10  1  1  0  0  0
  9 11  1  0  0  0  0
 11 12  1  6  0  0  0
 11 13  1  0  0  0  0
 13 31  1  0  0  0  0
 14 15  1  0  0  0  0
 15 16  2  0  0  0  0
 15 17  1  0  0  0  0
 17 18  1  0  0  0  0
 18 20  2  0  0  0  0
 19 18  1  1  0  0  0
 19 22  1  0  0  0  0
 19 30  1  0  0  0  0
 21 23  1  6  0  0  0
 21 29  1  0  0  0  0
 21 22  1  0  0  0  0
 23 24  1  0  0  0  0
 24 25  1  1  0  0  0
 24 26  1  0  0  0  0
 26 27  1  1  0  0  0
 26 28  1  0  0  0  0
 29 28  1  6  0  0  0
 29 31  1  0  0  0  0
 30 14  1  6  0  0  0
 30 31  1  0  0  0  0
M  CHG  1   3  -1
M  END
>  <CHROM.1>
-99.52686898,-167.72369756,154.03149489,99.04297909,58.08646269,-78.63216620
-101.39345210,15.04008640,26.05881762,14.78532676,2.06644931,0.21565511,1.12739099

>  <Name>
ligand

>  <RI>
0

>  <Rbt.Current_Directory>
/home/itssahil/PROJECTS/Mol_Feturizer/New_Systems/rnas/3F2Q

>  <Rbt.Executable>
rbdock ($Id: //depot/dev/client3/rdock/2013.1/src/exe/rbdock.cxx#4 $)

>  <Rbt.Library>
libRbt.so (2013.1, Build901 2013/11/27)

>  <Rbt.Parameter_File>
/export/apps/rDock/src/rDock_2013.1_src/data/scripts/dock_solv.prm

>  <Rbt.Receptor>
prm/blind_docking_40.prm

>  <SCORE>
1.72711

>  <SCORE.INTER>
-5.83882

>  <SCORE.INTER.CONST>
1

>  <SCORE.INTER.POLAR>
0

>  <SCORE.INTER.ROT>
7

>  <SCORE.INTER.SOLV>
14.7987

>  <SCORE.INTER.VDW>
-17.0921

>  <SCORE.INTER.norm>
-0.188349

>  <SCORE.INTRA>
1.34229

>  <SCORE.INTRA.DIHEDRAL>
4.10467

>  <SCORE.INTRA.DIHEDRAL.0>
10.0718

>  <SCORE.INTRA.POLAR>
0

>  <SCORE.INTRA.POLAR.0>
0

>  <SCORE.INTRA.REPUL>
0

>  <SCORE.INTRA.REPUL.0>
0

>  <SCORE.INTRA.SOLV>
0.828584

>  <SCORE.INTRA.SOLV.lig_0>
-48.6963

>  <SCORE.INTRA.VDW>
-1.12433

>  <SCORE.INTRA.VDW.0>
-0.836976

>  <SCORE.INTRA.norm>
0.0432998

>  <SCORE.RESTR>
6.22363

>  <SCORE.RESTR.CAVITY>
6.22363

>  <SCORE.RESTR.norm>
0.200762

>  <SCORE.SYSTEM>
0

>  <SCORE.SYSTEM.CONST>
0

>  <SCORE.SYSTEM.DIHEDRAL>
0

>  <SCORE.SYSTEM.SOLV>
0

>  <SCORE.SYSTEM.norm>
0

>  <SCORE.heavy>
31

>  <SCORE.norm>
0.0557132

>  <RMSD>
19.040

$$$$
ligand
 OpenBabel11021811473D
libRbt.so/2013.1/901 2013/11/27
 31 33  0  0  0  0  0  0  0  0999 V2000
   11.3191   28.1845   18.9876 P   0  0  1  0  0  0  0  0  0  0  0  0
   12.4631   28.1417   19.9780 O   0  0  0  0  0  0  0  0  0  0  0  0
   10.0320   28.1026   19.7633 O   0  5  0  0  0  0  0  0  0  0  0  0
   11.3555   29.4696   18.2072 O   0  0  0  0  0  0  0  0  0  0  0  0
   12.7384   26.7371   17.3529 C   0  0  0  0  0  0  0  0  0  0  0  0
   11.4820   26.9917   17.9324 O   0  0  0  0  0  0  0  0  0  0  0  0
   12.5912   25.6439   16.3048 C   0  0  1  0  0  0  0  0  0  0  0  0
   11.8640   26.1624   15.2113 O   0  0  0  0  0  0  0  0  0  0  0  0
   13.9667   25.1578   15.8482 C   0  0  1  0  0  0  0  0  0  0  0  0
   14.5886   24.4435   16.8948 O   0  0  0  0  0  0  0  0  0  0  0  0
   13.9323   24.3308   14.5553 C   0  0  1  0  0  0  0  0  0  0  0  0
   13.4948   25.1350   13.4826 O   0  0  0  0  0  0  0  0  0  0  0  0
   15.2862   23.7318   14.2094 C   0  0  0  0  0  0  0  0  0  0  0  0
   16.7178   25.6266   15.7402 N   0  0  0  0  0  0  0  0  0  0  0  0
   17.4370   26.4967   16.5340 C   0  0  0  0  0  0  0  0  0  0  0  0
   17.2919   26.4813   17.7595 O   0  0  0  0  0  0  0  0  0  0  0  0
   18.3112   27.3901   15.9484 N   0  0  0  0  0  0  0  0  0  0  0  0
   18.4681   27.4157   14.5754 C   0  0  0  0  0  0  0  0  0  0  0  0
   17.7526   26.5463   13.7788 C   0  0  1  0  0  0  0  0  0  0  0  0
   19.2503   28.2003   14.0414 O   0  0  0  0  0  0  0  0  0  0  0  0
   17.2147   25.7119   11.6087 C   0  0  2  0  0  0  0  0  0  0  0  0
   17.9257   26.5828   12.4088 N   0  0  0  0  0  0  0  0  0  0  0  0
   17.3859   25.7482   10.2270 C   0  0  0  0  0  0  0  0  0  0  0  0
   16.6682   24.8795    9.4109 C   0  0  1  0  0  0  0  0  0  0  0  0
   16.8731   24.9247    7.9218 C   0  0  0  0  0  0  0  0  0  0  0  0
   15.7762   23.9672    9.9860 C   0  0  1  0  0  0  0  0  0  0  0  0
   14.9988   23.0072    9.1335 C   0  0  0  0  0  0  0  0  0  0  0  0
   15.6084   23.9337   11.3671 C   0  0  0  0  0  0  0  0  0  0  0  0
   16.3229   24.8037   12.1873 C   0  0  2  0  0  0  0  0  0  0  0  0
   16.8722   25.6432   14.3636 C   0  0  2  0  0  0  0  0  0  0  0  0
   16.1487   24.7776   13.5659 N   0  0  0  0  0  0  0  0  0  0  0  0
  1  2  1  1  0  0  0
  1  3  1  0  0  0  0
  1  4  2  0  0  0  0
  1  6  1  0  0  0  0
  5  6  1  0  0  0  0
  7  5  1  1  0  0  0
  7  8  1  0  0  0  0
  7  9  1  0  0  0  0
  9 10  1  1  0  0  0
  9 11  1  0  0  0  0
 11 12  1  6  0  0  0
 11 13  1  0  0  0  0
 13 31  1  0  0  0  0
 14 15  1  0  0  0  0
 15 16  2  0  0  0  0
 15 17  1  0  0  0  0
 17 18  1  0  0  0  0
 18 20  2  0  0  0  0
 19 18  1  1  0  0  0
 19 22  1  0  0  0  0
 19 30  1  0  0  0  0
 21 23  1  6  0  0  0
 21 29  1  0  0  0  0
 21 22  1  0  0  0  0
 23 24  1  0  0  0  0
 24 25  1  1  0  0  0
 24 26  1  0  0  0  0
 26 27  1  1  0  0  0
 26 28  1  0  0  0  0
 29 28  1  6  0  0  0
 29 31  1  0  0  0  0
 30 14  1  6  0  0  0
 30 31  1  0  0  0  0
M  CHG  1   3  -1
M  END
>  <CHROM.1>
-175.03058637,-45.21832776,69.60607545,69.70358186,64.51231168,-79.69008952
-101.31282976,14.95241291,26.09083731,14.82337015,2.13344938,0.19272838,1.11635493

>  <Name>
ligand

>  <RI>
0

>  <Rbt.Current_Directory>
/home/itssahil/PROJECTS/Mol_Feturizer/New_Systems/rnas/3F2Q

>  <Rbt.Executable>
rbdock ($Id: //depot/dev/client3/rdock/2013.1/src/exe/rbdock.cxx#4 $)

>  <Rbt.Library>
libRbt.so (2013.1, Build901 2013/11/27)

>  <Rbt.Parameter_File>
/export/apps/rDock/src/rDock_2013.1_src/data/scripts/dock_solv.prm

>  <Rbt.Receptor>
prm/blind_docking_40.prm

>  <SCORE>
-2.90928

>  <SCORE.INTER>
-4.39944

>  <SCORE.INTER.CONST>
1

>  <SCORE.INTER.POLAR>
0

>  <SCORE.INTER.ROT>
7

>  <SCORE.INTER.SOLV>
13.8607

>  <SCORE.INTER.VDW>
-15.8199

>  <SCORE.INTER.norm>
-0.141917

>  <SCORE.INTRA>
-4.77181

>  <SCORE.INTRA.DIHEDRAL>
-6.09536

>  <SCORE.INTRA.DIHEDRAL.0>
10.0718

>  <SCORE.INTRA.POLAR>
0

>  <SCORE.INTRA.POLAR.0>
0

>  <SCORE.INTRA.REPUL>
0

>  <SCORE.INTRA.REPUL.0>
0

>  <SCORE.INTRA.SOLV>
-0.768014

>  <SCORE.INTRA.SOLV.lig_0>
-48.6963

>  <SCORE.INTRA.VDW>
-1.34013

>  <SCORE.INTRA.VDW.0>
-0.836976

>  <SCORE.INTRA.norm>
-0.153929

>  <SCORE.RESTR>
6.26197

>  <SCORE.RESTR.CAVITY>
6.26197

>  <SCORE.RESTR.norm>
0.201999

>  <SCORE.SYSTEM>
0

>  <SCORE.SYSTEM.CONST>
0

>  <SCORE.SYSTEM.DIHEDRAL>
0

>  <SCORE.SYSTEM.SOLV>
0

>  <SCORE.SYSTEM.norm>
0

>  <SCORE.heavy>
31

>  <SCORE.norm>
-0.0938478

>  <RMSD>
19.071

$$$$
ligand
 OpenBabel11021811473D
libRbt.so/2013.1/901 2013/11/27
 31 33  0  0  0  0  0  0  0  0999 V2000
   11.5446   28.7678   17.6965 P   0  0  1  0  0  0  0  0  0  0  0  0
   10.1709   28.6503   17.0713 O   0  0  0  0  0  0  0  0  0  0  0  0
   11.9496   30.2167   17.6552 O   0  5  0  0  0  0  0  0  0  0  0  0
   11.5076   28.2961   19.1241 O   0  0  0  0  0  0  0  0  0  0  0  0
   12.1853   26.5078   16.5723 C   0  0  0  0  0  0  0  0  0  0  0  0
   12.5691   27.8170   16.9161 O   0  0  0  0  0  0  0  0  0  0  0  0
   13.2869   25.8682   15.7400 C   0  0  1  0  0  0  0  0  0  0  0  0
   14.2918   25.3931   16.6106 O   0  0  0  0  0  0  0  0  0  0  0  0
   12.7211   24.7215   14.9023 C   0  0  1  0  0  0  0  0  0  0  0  0
   11.4142   25.0444   14.4777 O   0  0  0  0  0  0  0  0  0  0  0  0
   13.6094   24.3272   13.7141 C   0  0  1  0  0  0  0  0  0  0  0  0
   13.6860   25.3954   12.7966 O   0  0  0  0  0  0  0  0  0  0  0  0
   15.0150   23.9349   14.1408 C   0  0  0  0  0  0  0  0  0  0  0  0
   16.5852   25.7365   15.6482 N   0  0  0  0  0  0  0  0  0  0  0  0
   17.3641   26.5616   16.4337 C   0  0  0  0  0  0  0  0  0  0  0  0
   17.1709   26.6211   17.6512 O   0  0  0  0  0  0  0  0  0  0  0  0
   18.3529   27.3262   15.8483 N   0  0  0  0  0  0  0  0  0  0  0  0
   18.5647   27.2684   14.4836 C   0  0  0  0  0  0  0  0  0  0  0  0
   17.7896   26.4435   13.6954 C   0  0  1  0  0  0  0  0  0  0  0  0
   19.4482   27.9375   13.9504 O   0  0  0  0  0  0  0  0  0  0  0  0
   17.2479   25.5679   11.5426 C   0  0  2  0  0  0  0  0  0  0  0  0
   18.0185   26.3949   12.3340 N   0  0  0  0  0  0  0  0  0  0  0  0
   17.4755   25.5187   10.1694 C   0  0  0  0  0  0  0  0  0  0  0  0
   16.6990   24.6939    9.3616 C   0  0  1  0  0  0  0  0  0  0  0  0
   16.9651   24.6446    7.8824 C   0  0  0  0  0  0  0  0  0  0  0  0
   15.6909   23.9118    9.9366 C   0  0  1  0  0  0  0  0  0  0  0  0
   14.8465   23.0009    9.0939 C   0  0  0  0  0  0  0  0  0  0  0  0
   15.4670   23.9634   11.3093 C   0  0  0  0  0  0  0  0  0  0  0  0
   16.2403   24.7901   12.1209 C   0  0  2  0  0  0  0  0  0  0  0  0
   16.7936   25.6698   14.2802 C   0  0  2  0  0  0  0  0  0  0  0  0
   16.0111   24.8495   13.4904 N   0  0  0  0  0  0  0  0  0  0  0  0
  1  2  1  6  0  0  0
  1  3  1  0  0  0  0
  1  4  2  0  0  0  0
  1  6  1  0  0  0  0
  5  6  1  0  0  0  0
  7  5  1  1  0  0  0
  7  8  1  0  0  0  0
  7  9  1  0  0  0  0
  9 10  1  6  0  0  0
  9 11  1  0  0  0  0
 11 12  1  6  0  0  0
 11 13  1  0  0  0  0
 13 31  1  0  0  0  0
 14 15  1  0  0  0  0
 15 16  2  0  0  0  0
 15 17  1  0  0  0  0
 17 18  1  0  0  0  0
 18 20  2  0  0  0  0
 19 18  1  1  0  0  0
 19 22  1  0  0  0  0
 19 30  1  0  0  0  0
 21 23  1  6  0  0  0
 21 29  1  0  0  0  0
 21 22  1  0  0  0  0
 23 24  1  0  0  0  0
 24 25  1  1  0  0  0
 24 26  1  0  0  0  0
 26 27  1  1  0  0  0
 26 28  1  0  0  0  0
 29 28  1  6  0  0  0
 29 31  1  0  0  0  0
 30 14  1  6  0  0  0
 30 31  1  0  0  0  0
M  CHG  1   3  -1
M  END
>  <CHROM.1>
175.14487611,-44.20795048,81.24489746,35.56780012,-64.62462293,-119.96242956
-69.47669692,14.91971198,26.17205267,14.35659001,2.14852533,0.11789444,1.04787486

>  <Name>
ligand

>  <RI>
0

>  <Rbt.Current_Directory>
/home/itssahil/PROJECTS/Mol_Feturizer/New_Systems/rnas/3F2Q

>  <Rbt.Executable>
rbdock ($Id: //depot/dev/client3/rdock/2013.1/src/exe/rbdock.cxx#4 $)

>  <Rbt.Library>
libRbt.so (2013.1, Build901 2013/11/27)

>  <Rbt.Parameter_File>
/export/apps/rDock/src/rDock_2013.1_src/data/scripts/dock_solv.prm

>  <Rbt.Receptor>
prm/blind_docking_40.prm

>  <SCORE>
6.05955

>  <SCORE.INTER>
-1.34969

>  <SCORE.INTER.CONST>
1

>  <SCORE.INTER.POLAR>
0

>  <SCORE.INTER.ROT>
7

>  <SCORE.INTER.SOLV>
17.6711

>  <SCORE.INTER.VDW>
-15.0568

>  <SCORE.INTER.norm>
-0.0435383

>  <SCORE.INTRA>
0.585962

>  <SCORE.INTRA.DIHEDRAL>
0.486115

>  <SCORE.INTRA.DIHEDRAL.0>
10.0718

>  <SCORE.INTRA.POLAR>
0

>  <SCORE.INTRA.POLAR.0>
0

>  <SCORE.INTRA.REPUL>
0

>  <SCORE.INTRA.REPUL.0>
0

>  <SCORE.INTRA.SOLV>
-0.733448

>  <SCORE.INTRA.SOLV.lig_0>
-48.6963

>  <SCORE.INTRA.VDW>
0.709628

>  <SCORE.INTRA.VDW.0>
-0.836976

>  <SCORE.INTRA.norm>
0.018902

>  <SCORE.RESTR>
6.82328

>  <SCORE.RESTR.CAVITY>
6.82328

>  <SCORE.RESTR.norm>
0.220106

>  <SCORE.SYSTEM>
0

>  <SCORE.SYSTEM.CONST>
0

>  <SCORE.SYSTEM.DIHEDRAL>
0

>  <SCORE.SYSTEM.SOLV>
0

>  <SCORE.SYSTEM.norm>
0

>  <SCORE.heavy>
31

>  <SCORE.norm>
0.195469

>  <RMSD>
19.078

$$$$
ligand
 OpenBabel11021811473D
libRbt.so/2013.1/901 2013/11/27
 31 33  0  0  0  0  0  0  0  0999 V2000
   11.3906   27.7272   17.3792 P   0  0  1  0  0  0  0  0  0  0  0  0
   11.7272   26.5051   18.2067 O   0  0  0  0  0  0  0  0  0  0  0  0
    9.9108   27.9741   17.4989 O   0  5  0  0  0  0  0  0  0  0  0  0
   12.1435   28.9244   17.8908 O   0  0  0  0  0  0  0  0  0  0  0  0
   11.5076   26.3023   15.2026 C   0  0  0  0  0  0  0  0  0  0  0  0
   11.8578   27.4923   15.8662 O   0  0  0  0  0  0  0  0  0  0  0  0
   12.3860   25.1698   15.7137 C   0  0  1  0  0  0  0  0  0  0  0  0
   12.0999   24.0055   14.9681 O   0  0  0  0  0  0  0  0  0  0  0  0
   13.8627   25.5408   15.5779 C   0  0  1  0  0  0  0  0  0  0  0  0
   14.1866   26.5470   16.5134 O   0  0  0  0  0  0  0  0  0  0  0  0
   14.8147   24.3428   15.6989 C   0  0  1  0  0  0  0  0  0  0  0  0
   14.1807   23.2943   16.3972 O   0  0  0  0  0  0  0  0  0  0  0  0
   15.2822   23.8297   14.3463 C   0  0  0  0  0  0  0  0  0  0  0  0
   16.7626   25.7107   15.8474 N   0  0  0  0  0  0  0  0  0  0  0  0
   17.5059   26.5740   16.6264 C   0  0  0  0  0  0  0  0  0  0  0  0
   17.3851   26.5602   17.8545 O   0  0  0  0  0  0  0  0  0  0  0  0
   18.3770   27.4585   16.0230 N   0  0  0  0  0  0  0  0  0  0  0  0
   18.5068   27.4823   14.6471 C   0  0  0  0  0  0  0  0  0  0  0  0
   17.7670   26.6197   13.8654 C   0  0  1  0  0  0  0  0  0  0  0  0
   19.2858   28.2591   14.0973 O   0  0  0  0  0  0  0  0  0  0  0  0
   17.1778   25.7902   11.7068 C   0  0  2  0  0  0  0  0  0  0  0  0
   17.9131   26.6542   12.4922 N   0  0  0  0  0  0  0  0  0  0  0  0
   17.3219   25.8244   10.3219 C   0  0  0  0  0  0  0  0  0  0  0  0
   16.5795   24.9626    9.5207 C   0  0  1  0  0  0  0  0  0  0  0  0
   16.7551   25.0054    8.0278 C   0  0  0  0  0  0  0  0  0  0  0  0
   15.6902   24.0593   10.1138 C   0  0  1  0  0  0  0  0  0  0  0  0
   14.8866   23.1067    9.2775 C   0  0  0  0  0  0  0  0  0  0  0  0
   15.5496   24.0278   11.4981 C   0  0  0  0  0  0  0  0  0  0  0  0
   16.2889   24.8909   12.3034 C   0  0  2  0  0  0  0  0  0  0  0  0
   16.8896   25.7255   14.4680 C   0  0  2  0  0  0  0  0  0  0  0  0
   16.1420   24.8668   13.6852 N   0  0  0  0  0  0  0  0  0  0  0  0
  1  2  1  1  0  0  0
  1  3  1  0  0  0  0
  1  4  2  0  0  0  0
  1  6  1  0  0  0  0
  5  6  1  0  0  0  0
  7  5  1  6  0  0  0
  7  8  1  0  0  0  0
  7  9  1  0  0  0  0
  9 10  1  1  0  0  0
  9 11  1  0  0  0  0
 11 12  1  6  0  0  0
 11 13  1  0  0  0  0
 13 31  1  0  0  0  0
 14 15  1  0  0  0  0
 15 16  2  0  0  0  0
 15 17  1  0  0  0  0
 17 18  1  0  0  0  0
 18 20  2  0  0  0  0
 19 18  1  1  0  0  0
 19 22  1  0  0  0  0
 19 30  1  0  0  0  0
 21 23  1  6  0  0  0
 21 29  1  0  0  0  0
 21 22  1  0  0  0  0
 23 24  1  0  0  0  0
 24 25  1  1  0  0  0
 24 26  1  0  0  0  0
 26 27  1  1  0  0  0
 26 28  1  0  0  0  0
 29 28  1  6  0  0  0
 29 31  1  0  0  0  0
 30 14  1  6  0  0  0
 30 31  1  0  0  0  0
M  CHG  1   3  -1
M  END
>  <CHROM.1>
-75.69460270,49.11297501,-175.42101149,70.69331237,-22.38195115,66.47227424
-156.01612807,14.95845440,25.95667559,14.56355573,2.24896220,0.19516651,1.12264745

>  <Name>
ligand

>  <RI>
0

>  <Rbt.Current_Directory>
/home/itssahil/PROJECTS/Mol_Feturizer/New_Systems/rnas/3F2Q

>  <Rbt.Executable>
rbdock ($Id: //depot/dev/client3/rdock/2013.1/src/exe/rbdock.cxx#4 $)

>  <Rbt.Library>
libRbt.so (2013.1, Build901 2013/11/27)

>  <Rbt.Parameter_File>
/export/apps/rDock/src/rDock_2013.1_src/data/scripts/dock_solv.prm

>  <Rbt.Receptor>
prm/blind_docking_40.prm

>  <SCORE>
10.6988

>  <SCORE.INTER>
1.94472

>  <SCORE.INTER.CONST>
1

>  <SCORE.INTER.POLAR>
0

>  <SCORE.INTER.ROT>
7

>  <SCORE.INTER.SOLV>
13.2677

>  <SCORE.INTER.VDW>
-11.3928

>  <SCORE.INTER.norm>
0.062733

>  <SCORE.INTRA>
3.04951

>  <SCORE.INTRA.DIHEDRAL>
-3.30889

>  <SCORE.INTRA.DIHEDRAL.0>
10.0718

>  <SCORE.INTRA.POLAR>
0

>  <SCORE.INTRA.POLAR.0>
0

>  <SCORE.INTRA.REPUL>
0

>  <SCORE.INTRA.REPUL.0>
0

>  <SCORE.INTRA.SOLV>
1.47688

>  <SCORE.INTRA.SOLV.lig_0>
-48.6963

>  <SCORE.INTRA.VDW>
3.96551

>  <SCORE.INTRA.VDW.0>
-0.836976

>  <SCORE.INTRA.norm>
0.0983712

>  <SCORE.RESTR>
5.70458

>  <SCORE.RESTR.CAVITY>
5.70458

>  <SCORE.RESTR.norm>
0.184019

>  <SCORE.SYSTEM>
0

>  <SCORE.SYSTEM.CONST>
0

>  <SCORE.SYSTEM.DIHEDRAL>
0

>  <SCORE.SYSTEM.SOLV>
0

>  <SCORE.SYSTEM.norm>
0

>  <SCORE.heavy>
31

>  <SCORE.norm>
0.345123

>  <RMSD>
19.109

$$$$
ligand
 OpenBabel11021811473D
libRbt.so/2013.1/901 2013/11/27
 31 33  0  0  0  0  0  0  0  0999 V2000
   11.5117   28.6362   17.8913 P   0  0  1  0  0  0  0  0  0  0  0  0
   11.7270   28.3222   19.3565 O   0  0  0  0  0  0  0  0  0  0  0  0
   10.0625   28.3854   17.5723 O   0  5  0  0  0  0  0  0  0  0  0  0
   11.8462   30.0760   17.6141 O   0  0  0  0  0  0  0  0  0  0  0  0
   12.1285   26.4428   16.6303 C   0  0  0  0  0  0  0  0  0  0  0  0
   12.5032   27.7464   17.0037 O   0  0  0  0  0  0  0  0  0  0  0  0
   13.2250   25.8375   15.7662 C   0  0  1  0  0  0  0  0  0  0  0  0
   14.2542   25.3647   16.6092 O   0  0  0  0  0  0  0  0  0  0  0  0
   12.6633   24.6962   14.9184 C   0  0  1  0  0  0  0  0  0  0  0  0
   11.3650   25.0290   14.4757 O   0  0  0  0  0  0  0  0  0  0  0  0
   13.5659   24.2976   13.7425 C   0  0  1  0  0  0  0  0  0  0  0  0
   13.6519   25.3617   12.8211 O   0  0  0  0  0  0  0  0  0  0  0  0
   14.9668   23.9089   14.1873 C   0  0  0  0  0  0  0  0  0  0  0  0
   16.5506   25.7062   15.6856 N   0  0  0  0  0  0  0  0  0  0  0  0
   17.3357   26.5294   16.4669 C   0  0  0  0  0  0  0  0  0  0  0  0
   17.1424   26.5971   17.6840 O   0  0  0  0  0  0  0  0  0  0  0  0
   18.3308   27.2829   15.8778 N   0  0  0  0  0  0  0  0  0  0  0  0
   18.5428   27.2159   14.5136 C   0  0  0  0  0  0  0  0  0  0  0  0
   17.7615   26.3929   13.7295 C   0  0  1  0  0  0  0  0  0  0  0  0
   19.4319   27.8750   13.9771 O   0  0  0  0  0  0  0  0  0  0  0  0
   17.2139   25.5098   11.5813 C   0  0  2  0  0  0  0  0  0  0  0  0
   17.9907   26.3349   12.3685 N   0  0  0  0  0  0  0  0  0  0  0  0
   17.4417   25.4511   10.2085 C   0  0  0  0  0  0  0  0  0  0  0  0
   16.6590   24.6281    9.4049 C   0  0  1  0  0  0  0  0  0  0  0  0
   16.9254   24.5686    7.9260 C   0  0  0  0  0  0  0  0  0  0  0  0
   15.6444   23.8572    9.9837 C   0  0  1  0  0  0  0  0  0  0  0  0
   14.7933   22.9485    9.1456 C   0  0  0  0  0  0  0  0  0  0  0  0
   15.4204   23.9182   11.3559 C   0  0  0  0  0  0  0  0  0  0  0  0
   16.1998   24.7431   12.1634 C   0  0  2  0  0  0  0  0  0  0  0  0
   16.7591   25.6304   14.3181 C   0  0  2  0  0  0  0  0  0  0  0  0
   15.9705   24.8119   13.5324 N   0  0  0  0  0  0  0  0  0  0  0  0
  1  2  1  1  0  0  0
  1  3  1  0  0  0  0
  1  4  2  0  0  0  0
  1  6  1  0  0  0  0
  5  6  1  0  0  0  0
  7  5  1  1  0  0  0
  7  8  1  0  0  0  0
  7  9  1  0  0  0  0
  9 10  1  6  0  0  0
  9 11  1  0  0  0  0
 11 12  1  6  0  0  0
 11 13  1  0  0  0  0
 13 31  1  0  0  0  0
 14 15  1  0  0  0  0
 15 16  2  0  0  0  0
 15 17  1  0  0  0  0
 17 18  1  0  0  0  0
 18 20  2  0  0  0  0
 19 18  1  1  0  0  0
 19 22  1  0  0  0  0
 19 30  1  0  0  0  0
 21 23  1  6  0  0  0
 21 29  1  0  0  0  0
 21 22  1  0  0  0  0
 23 24  1  0  0  0  0
 24 25  1  1  0  0  0
 24 26  1  0  0  0  0
 26 27  1  1  0  0  0
 26 28  1  0  0  0  0
 29 28  1  6  0  0  0
 29 31  1  0  0  0  0
 30 14  1  6  0  0  0
 30 31  1  0  0  0  0
M  CHG  1   3  -1
M  END
>  <CHROM.1>
178.46804722,85.56918631,80.55568618,38.10354137,-65.23315214,-120.59287010
-68.68872187,14.88490774,26.11231002,14.42427357,2.14355066,0.12991056,1.05335137

>  <Name>
ligand

>  <RI>
0

>  <Rbt.Current_Directory>
/home/itssahil/PROJECTS/Mol_Feturizer/New_Systems/rnas/3F2Q

>  <Rbt.Executable>
rbdock ($Id: //depot/dev/client3/rdock/2013.1/src/exe/rbdock.cxx#4 $)

>  <Rbt.Library>
libRbt.so (2013.1, Build901 2013/11/27)

>  <Rbt.Parameter_File>
/export/apps/rDock/src/rDock_2013.1_src/data/scripts/dock_solv.prm

>  <Rbt.Receptor>
prm/blind_docking_40.prm

>  <SCORE>
5.12805

>  <SCORE.INTER>
-2.69289

>  <SCORE.INTER.CONST>
1

>  <SCORE.INTER.POLAR>
0

>  <SCORE.INTER.ROT>
7

>  <SCORE.INTER.SOLV>
16.1767

>  <SCORE.INTER.VDW>
-15.4542

>  <SCORE.INTER.norm>
-0.0868674

>  <SCORE.INTRA>
0.799782

>  <SCORE.INTRA.DIHEDRAL>
0.518887

>  <SCORE.INTRA.DIHEDRAL.0>
10.0718

>  <SCORE.INTRA.POLAR>
0

>  <SCORE.INTRA.POLAR.0>
0

>  <SCORE.INTRA.REPUL>
0

>  <SCORE.INTRA.REPUL.0>
0

>  <SCORE.INTRA.SOLV>
-0.486394

>  <SCORE.INTRA.SOLV.lig_0>
-48.6963

>  <SCORE.INTRA.VDW>
0.783536

>  <SCORE.INTRA.VDW.0>
-0.836976

>  <SCORE.INTRA.norm>
0.0257994

>  <SCORE.RESTR>
7.02115

>  <SCORE.RESTR.CAVITY>
7.02115

>  <SCORE.RESTR.norm>
0.226489

>  <SCORE.SYSTEM>
0

>  <SCORE.SYSTEM.CONST>
0

>  <SCORE.SYSTEM.DIHEDRAL>
0

>  <SCORE.SYSTEM.SOLV>
0

>  <SCORE.SYSTEM.norm>
0

>  <SCORE.heavy>
31

>  <SCORE.norm>
0.165421

>  <RMSD>
19.128

$$$$
ligand
 OpenBabel11021811473D
libRbt.so/2013.1/901 2013/11/27
 31 33  0  0  0  0  0  0  0  0999 V2000
   17.4464   26.0757   14.2882 P   0  0  1  0  0  0  0  0  0  0  0  0
   17.3091   27.4563   14.8936 O   0  0  0  0  0  0  0  0  0  0  0  0
   16.9380   26.1382   12.8730 O   0  5  0  0  0  0  0  0  0  0  0  0
   18.8889   25.6504   14.2864 O   0  0  0  0  0  0  0  0  0  0  0  0
   15.2460   25.0938   15.2761 C   0  0  0  0  0  0  0  0  0  0  0  0
   16.6479   25.0177   15.1859 O   0  0  0  0  0  0  0  0  0  0  0  0
   14.8691   25.8804   16.5229 C   0  0  1  0  0  0  0  0  0  0  0  0
   15.3338   27.2057   16.3777 O   0  0  0  0  0  0  0  0  0  0  0  0
   13.3535   25.8654   16.7219 C   0  0  1  0  0  0  0  0  0  0  0  0
   12.9209   24.5448   16.9698 O   0  0  0  0  0  0  0  0  0  0  0  0
   12.8640   26.8247   17.8157 C   0  0  1  0  0  0  0  0  0  0  0  0
   12.6134   28.0970   17.2615 O   0  0  0  0  0  0  0  0  0  0  0  0
   11.6060   26.3264   18.5090 C   0  0  0  0  0  0  0  0  0  0  0  0
    9.9676   28.0272   16.9578 N   0  0  0  0  0  0  0  0  0  0  0  0
    9.1394   28.7972   16.1667 C   0  0  0  0  0  0  0  0  0  0  0  0
    9.0818   28.5961   14.9504 O   0  0  0  0  0  0  0  0  0  0  0  0
    8.3844   29.7990   16.7425 N   0  0  0  0  0  0  0  0  0  0  0  0
    8.4545   30.0324   18.1031 C   0  0  0  0  0  0  0  0  0  0  0  0
    9.2796   29.2636   18.8973 C   0  0  1  0  0  0  0  0  0  0  0  0
    7.7804   30.9156   18.6303 O   0  0  0  0  0  0  0  0  0  0  0  0
   10.1546   28.7384   21.0544 C   0  0  2  0  0  0  0  0  0  0  0  0
    9.3335   29.5079   20.2559 N   0  0  0  0  0  0  0  0  0  0  0  0
   10.2122   28.9841   22.4242 C   0  0  0  0  0  0  0  0  0  0  0  0
   11.0427   28.2189   23.2370 C   0  0  1  0  0  0  0  0  0  0  0  0
   11.0848   28.4904   24.7155 C   0  0  0  0  0  0  0  0  0  0  0  0
   11.8167   27.1993   22.6715 C   0  0  1  0  0  0  0  0  0  0  0  0
   12.7108   26.3470   23.5241 C   0  0  0  0  0  0  0  0  0  0  0  0
   11.7559   26.9566   21.3025 C   0  0  0  0  0  0  0  0  0  0  0  0
   10.9280   27.7224   20.4850 C   0  0  2  0  0  0  0  0  0  0  0  0
   10.0408   28.2522   18.3228 C   0  0  2  0  0  0  0  0  0  0  0  0
   10.8738   27.4870   19.1163 N   0  0  0  0  0  0  0  0  0  0  0  0
  1  2  1  1  0  0  0
  1  3  1  0  0  0  0
  1  4  2  0  0  0  0
  1  6  1  0  0  0  0
  5  6  1  0  0  0  0
  7  5  1  6  0  0  0
  7  8  1  0  0  0  0
  7  9  1  0  0  0  0
  9 10  1  1  0  0  0
  9 11  1  0  0  0  0
 11 12  1  6  0  0  0
 11 13  1  0  0  0  0
 13 31  1  0  0  0  0
 14 15  1  0  0  0  0
 15 16  2  0  0  0  0
 15 17  1  0  0  0  0
 17 18  1  0  0  0  0
 18 20  2  0  0  0  0
 19 18  1  1  0  0  0
 19 22  1  0  0  0  0
 19 30  1  0  0  0  0
 21 23  1  6  0  0  0
 21 29  1  0  0  0  0
 21 22  1  0  0  0  0
 23 24  1  0  0  0  0
 24 25  1  1  0  0  0
 24 26  1  0  0  0  0
 26 27  1  1  0  0  0
 26 28  1  0  0  0  0
 29 28  1  6  0  0  0
 29 31  1  0  0  0  0
 30 14  1  6  0  0  0
 30 31  1  0  0  0  0
M  CHG  1   3  -1
M  END
>  <CHROM.1>
-95.50162234,66.12737215,64.29130374,64.49324126,88.60601811,-156.63996433
-103.59030541,12.54773767,27.42778813,17.90590296,-0.64501779,-0.44541838
1.65597714

>  <Name>
ligand

>  <RI>
0

>  <Rbt.Current_Directory>
/home/itssahil/PROJECTS/Mol_Feturizer/New_Systems/rnas/3F2Q

>  <Rbt.Executable>
rbdock ($Id: //depot/dev/client3/rdock/2013.1/src/exe/rbdock.cxx#4 $)

>  <Rbt.Library>
libRbt.so (2013.1, Build901 2013/11/27)

>  <Rbt.Parameter_File>
/export/apps/rDock/src/rDock_2013.1_src/data/scripts/dock_solv.prm

>  <Rbt.Receptor>
prm/blind_docking_40.prm

>  <SCORE>
7.11795

>  <SCORE.INTER>
2.89024

>  <SCORE.INTER.CONST>
1

>  <SCORE.INTER.POLAR>
0

>  <SCORE.INTER.ROT>
7

>  <SCORE.INTER.SOLV>
16.2412

>  <SCORE.INTER.VDW>
-11.7536

>  <SCORE.INTER.norm>
0.0932335

>  <SCORE.INTRA>
0.22958

>  <SCORE.INTRA.DIHEDRAL>
0.374361

>  <SCORE.INTRA.DIHEDRAL.0>
10.0718

>  <SCORE.INTRA.POLAR>
0

>  <SCORE.INTRA.POLAR.0>
0

>  <SCORE.INTRA.REPUL>
0

>  <SCORE.INTRA.REPUL.0>
0

>  <SCORE.INTRA.SOLV>
0.00571027

>  <SCORE.INTRA.SOLV.lig_0>
-48.6963

>  <SCORE.INTRA.VDW>
0.0395438

>  <SCORE.INTRA.VDW.0>
-0.836976

>  <SCORE.INTRA.norm>
0.00740579

>  <SCORE.RESTR>
3.99813

>  <SCORE.RESTR.CAVITY>
3.99813

>  <SCORE.RESTR.norm>
0.128972

>  <SCORE.SYSTEM>
0

>  <SCORE.SYSTEM.CONST>
0

>  <SCORE.SYSTEM.DIHEDRAL>
0

>  <SCORE.SYSTEM.SOLV>
0

>  <SCORE.SYSTEM.norm>
0

>  <SCORE.heavy>
31

>  <SCORE.norm>
0.229611

>  <RMSD>
19.291

$$$$
ligand
 OpenBabel11021811473D
libRbt.so/2013.1/901 2013/11/27
 31 33  0  0  0  0  0  0  0  0999 V2000
   16.4022   25.5436   10.2674 P   0  0  1  0  0  0  0  0  0  0  0  0
   15.1438   26.3728   10.4107 O   0  0  0  0  0  0  0  0  0  0  0  0
   16.1424   24.4835    9.2312 O   0  5  0  0  0  0  0  0  0  0  0  0
   17.5480   26.4109    9.8237 O   0  0  0  0  0  0  0  0  0  0  0  0
   16.4505   25.6138   12.8701 C   0  0  0  0  0  0  0  0  0  0  0  0
   16.8028   24.9315   11.6912 O   0  0  0  0  0  0  0  0  0  0  0  0
   17.2392   25.0345   14.0354 C   0  0  1  0  0  0  0  0  0  0  0  0
   18.6117   25.2862   13.8206 O   0  0  0  0  0  0  0  0  0  0  0  0
   16.7811   25.6637   15.3511 C   0  0  1  0  0  0  0  0  0  0  0  0
   16.9619   27.0625   15.2961 O   0  0  0  0  0  0  0  0  0  0  0  0
   15.3398   25.3050   15.7391 C   0  0  1  0  0  0  0  0  0  0  0  0
   15.3328   24.1429   16.5381 O   0  0  0  0  0  0  0  0  0  0  0  0
   14.6398   26.4283   16.4871 C   0  0  0  0  0  0  0  0  0  0  0  0
   13.5147   25.3928   14.1111 N   0  0  0  0  0  0  0  0  0  0  0  0
   13.0169   24.8331   12.9520 C   0  0  0  0  0  0  0  0  0  0  0  0
   13.7817   24.5318   12.0314 O   0  0  0  0  0  0  0  0  0  0  0  0
   11.6588   24.6219   12.8254 N   0  0  0  0  0  0  0  0  0  0  0  0
   10.7994   24.9674   13.8513 C   0  0  0  0  0  0  0  0  0  0  0  0
   11.2933   25.5253   15.0120 C   0  0  1  0  0  0  0  0  0  0  0  0
    9.5883   24.7763   13.7551 O   0  0  0  0  0  0  0  0  0  0  0  0
   10.9109   26.4146   17.1932 C   0  0  2  0  0  0  0  0  0  0  0  0
   10.4203   25.8601   16.0288 N   0  0  0  0  0  0  0  0  0  0  0  0
   10.0324   26.7549   18.2190 C   0  0  0  0  0  0  0  0  0  0  0  0
   10.5161   27.3216   19.3940 C   0  0  1  0  0  0  0  0  0  0  0  0
    9.5549   27.6732   20.4958 C   0  0  0  0  0  0  0  0  0  0  0  0
   11.8899   27.5445   19.5408 C   0  0  1  0  0  0  0  0  0  0  0  0
   12.4439   28.1403   20.8021 C   0  0  0  0  0  0  0  0  0  0  0  0
   12.7645   27.2025   18.5137 C   0  0  0  0  0  0  0  0  0  0  0  0
   12.2838   26.6378   17.3347 C   0  0  2  0  0  0  0  0  0  0  0  0
   12.6606   25.7384   15.1456 C   0  0  2  0  0  0  0  0  0  0  0  0
   13.1554   26.3048   16.3046 N   0  0  0  0  0  0  0  0  0  0  0  0
  1  2  1  1  0  0  0
  1  3  1  0  0  0  0
  1  4  2  0  0  0  0
  1  6  1  0  0  0  0
  5  6  1  0  0  0  0
  7  5  1  6  0  0  0
  7  8  1  0  0  0  0
  7  9  1  0  0  0  0
  9 10  1  6  0  0  0
  9 11  1  0  0  0  0
 11 12  1  1  0  0  0
 11 13  1  0  0  0  0
 13 31  1  0  0  0  0
 14 15  1  0  0  0  0
 15 16  2  0  0  0  0
 15 17  1  0  0  0  0
 17 18  1  0  0  0  0
 18 20  2  0  0  0  0
 19 18  1  1  0  0  0
 19 22  1  0  0  0  0
 19 30  1  0  0  0  0
 21 23  1  6  0  0  0
 21 29  1  0  0  0  0
 21 22  1  0  0  0  0
 23 24  1  0  0  0  0
 24 25  1  1  0  0  0
 24 26  1  0  0  0  0
 26 27  1  1  0  0  0
 26 28  1  0  0  0  0
 29 28  1  6  0  0  0
 29 31  1  0  0  0  0
 30 14  1  6  0  0  0
 30 31  1  0  0  0  0
M  CHG  1   3  -1
M  END
>  <CHROM.1>
-165.49124501,-28.51181957,64.24534553,-58.82313272,90.85774412,155.01934750
144.48023767,13.90664059,25.84738721,14.67276123,0.95044063,-0.07538664,-1.83051693

>  <Name>
ligand

>  <RI>
0

>  <Rbt.Current_Directory>
/home/itssahil/PROJECTS/Mol_Feturizer/New_Systems/rnas/3F2Q

>  <Rbt.Executable>
rbdock ($Id: //depot/dev/client3/rdock/2013.1/src/exe/rbdock.cxx#4 $)

>  <Rbt.Library>
libRbt.so (2013.1, Build901 2013/11/27)

>  <Rbt.Parameter_File>
/export/apps/rDock/src/rDock_2013.1_src/data/scripts/dock_solv.prm

>  <Rbt.Receptor>
prm/blind_docking_40.prm

>  <SCORE>
14.1271

>  <SCORE.INTER>
4.49066

>  <SCORE.INTER.CONST>
1

>  <SCORE.INTER.POLAR>
0

>  <SCORE.INTER.ROT>
7

>  <SCORE.INTER.SOLV>
11.9715

>  <SCORE.INTER.VDW>
-9.26339

>  <SCORE.INTER.norm>
0.14486

>  <SCORE.INTRA>
1.81084

>  <SCORE.INTRA.DIHEDRAL>
-1.5292

>  <SCORE.INTRA.DIHEDRAL.0>
10.0718

>  <SCORE.INTRA.POLAR>
0

>  <SCORE.INTRA.POLAR.0>
0

>  <SCORE.INTRA.REPUL>
0

>  <SCORE.INTRA.REPUL.0>
0

>  <SCORE.INTRA.SOLV>
0.0615617

>  <SCORE.INTRA.SOLV.lig_0>
-48.6963

>  <SCORE.INTRA.VDW>
2.54466

>  <SCORE.INTRA.VDW.0>
-0.836976

>  <SCORE.INTRA.norm>
0.0584142

>  <SCORE.RESTR>
7.82559

>  <SCORE.RESTR.CAVITY>
7.82559

>  <SCORE.RESTR.norm>
0.252439

>  <SCORE.SYSTEM>
0

>  <SCORE.SYSTEM.CONST>
0

>  <SCORE.SYSTEM.DIHEDRAL>
0

>  <SCORE.SYSTEM.SOLV>
0

>  <SCORE.SYSTEM.norm>
0

>  <SCORE.heavy>
31

>  <SCORE.norm>
0.455713

>  <RMSD>
19.297

$$$$
ligand
 OpenBabel11021811473D
libRbt.so/2013.1/901 2013/11/27
 31 33  0  0  0  0  0  0  0  0999 V2000
   17.2204   26.2550   15.1421 P   0  0  1  0  0  0  0  0  0  0  0  0
   17.3842   25.5032   13.8384 O   0  0  0  0  0  0  0  0  0  0  0  0
   18.3711   25.8839   16.0382 O   0  5  0  0  0  0  0  0  0  0  0  0
   17.2352   27.7379   14.8919 O   0  0  0  0  0  0  0  0  0  0  0  0
   15.1929   24.6629   15.5114 C   0  0  0  0  0  0  0  0  0  0  0  0
   15.7973   25.9034   15.7855 O   0  0  0  0  0  0  0  0  0  0  0  0
   13.8688   24.5785   16.2563 C   0  0  1  0  0  0  0  0  0  0  0  0
   14.1242   24.1802   17.5865 O   0  0  0  0  0  0  0  0  0  0  0  0
   13.1588   25.9321   16.2318 C   0  0  1  0  0  0  0  0  0  0  0  0
   11.8685   25.7807   15.6798 O   0  0  0  0  0  0  0  0  0  0  0  0
   13.0995   26.6239   17.6008 C   0  0  1  0  0  0  0  0  0  0  0  0
   12.9413   28.0147   17.4294 O   0  0  0  0  0  0  0  0  0  0  0  0
   11.9705   26.0976   18.4725 C   0  0  0  0  0  0  0  0  0  0  0  0
   10.3567   27.6516   16.7508 N   0  0  0  0  0  0  0  0  0  0  0  0
    9.5454   28.3473   15.8777 C   0  0  0  0  0  0  0  0  0  0  0  0
    9.5720   28.0922   14.6705 O   0  0  0  0  0  0  0  0  0  0  0  0
    8.7124   29.3359   16.3614 N   0  0  0  0  0  0  0  0  0  0  0  0
    8.6881   29.6299   17.7118 C   0  0  0  0  0  0  0  0  0  0  0  0
    9.4960   28.9355   18.5878 C   0  0  1  0  0  0  0  0  0  0  0  0
    7.9440   30.5020   18.1573 O   0  0  0  0  0  0  0  0  0  0  0  0
   10.2588   28.5443   20.8149 C   0  0  2  0  0  0  0  0  0  0  0  0
    9.4551   29.2395   19.9347 N   0  0  0  0  0  0  0  0  0  0  0  0
   10.2208   28.8505   22.1731 C   0  0  0  0  0  0  0  0  0  0  0  0
   11.0328   28.1606   23.0678 C   0  0  1  0  0  0  0  0  0  0  0  0
   10.9715   28.4964   24.5324 C   0  0  0  0  0  0  0  0  0  0  0  0
   11.8850   27.1555   22.5963 C   0  0  1  0  0  0  0  0  0  0  0  0
   12.7618   26.3834   23.5384 C   0  0  0  0  0  0  0  0  0  0  0  0
   11.9195   26.8522   21.2385 C   0  0  0  0  0  0  0  0  0  0  0  0
   11.1103   27.5426   20.3392 C   0  0  2  0  0  0  0  0  0  0  0  0
   10.3355   27.9375   18.1062 C   0  0  2  0  0  0  0  0  0  0  0  0
   11.1513   27.2470   18.9818 N   0  0  0  0  0  0  0  0  0  0  0  0
  1  2  1  6  0  0  0
  1  3  1  0  0  0  0
  1  4  2  0  0  0  0
  1  6  1  0  0  0  0
  5  6  1  0  0  0  0
  7  5  1  6  0  0  0
  7  8  1  0  0  0  0
  7  9  1  0  0  0  0
  9 10  1  1  0  0  0
  9 11  1  0  0  0  0
 11 12  1  6  0  0  0
 11 13  1  0  0  0  0
 13 31  1  0  0  0  0
 14 15  1  0  0  0  0
 15 16  2  0  0  0  0
 15 17  1  0  0  0  0
 17 18  1  0  0  0  0
 18 20  2  0  0  0  0
 19 18  1  1  0  0  0
 19 22  1  0  0  0  0
 19 30  1  0  0  0  0
 21 23  1  6  0  0  0
 21 29  1  0  0  0  0
 21 22  1  0  0  0  0
 23 24  1  0  0  0  0
 24 25  1  1  0  0  0
 24 26  1  0  0  0  0
 26 27  1  1  0  0  0
 26 28  1  0  0  0  0
 29 28  1  6  0  0  0
 29 31  1  0  0  0  0
 30 14  1  6  0  0  0
 30 31  1  0  0  0  0
M  CHG  1   3  -1
M  END
>  <CHROM.1>
179.22706785,27.59896936,-82.48599639,123.95322933,156.65783235,-128.40663879
-114.59559403,12.51022604,27.20574440,17.94154542,-0.64963934,-0.41851589
1.59627314

>  <Name>
ligand

>  <RI>
0

>  <Rbt.Current_Directory>
/home/itssahil/PROJECTS/Mol_Feturizer/New_Systems/rnas/3F2Q

>  <Rbt.Executable>
rbdock ($Id: //depot/dev/client3/rdock/2013.1/src/exe/rbdock.cxx#4 $)

>  <Rbt.Library>
libRbt.so (2013.1, Build901 2013/11/27)

>  <Rbt.Parameter_File>
/export/apps/rDock/src/rDock_2013.1_src/data/scripts/dock_solv.prm

>  <Rbt.Receptor>
prm/blind_docking_40.prm

>  <SCORE>
9.24192

>  <SCORE.INTER>
2.07157

>  <SCORE.INTER.CONST>
1

>  <SCORE.INTER.POLAR>
0

>  <SCORE.INTER.ROT>
7

>  <SCORE.INTER.SOLV>
23.0777

>  <SCORE.INTER.VDW>
-14.5782

>  <SCORE.INTER.norm>
0.0668249

>  <SCORE.INTRA>
3.51649

>  <SCORE.INTRA.DIHEDRAL>
6.33007

>  <SCORE.INTRA.DIHEDRAL.0>
10.0718

>  <SCORE.INTRA.POLAR>
0

>  <SCORE.INTRA.POLAR.0>
0

>  <SCORE.INTRA.REPUL>
0

>  <SCORE.INTRA.REPUL.0>
0

>  <SCORE.INTRA.SOLV>
-0.763186

>  <SCORE.INTRA.SOLV.lig_0>
-48.6963

>  <SCORE.INTRA.VDW>
0.73305

>  <SCORE.INTRA.VDW.0>
-0.836976

>  <SCORE.INTRA.norm>
0.113435

>  <SCORE.RESTR>
3.65385

>  <SCORE.RESTR.CAVITY>
3.65385

>  <SCORE.RESTR.norm>
0.117866

>  <SCORE.SYSTEM>
0

>  <SCORE.SYSTEM.CONST>
0

>  <SCORE.SYSTEM.DIHEDRAL>
0

>  <SCORE.SYSTEM.SOLV>
0

>  <SCORE.SYSTEM.norm>
0

>  <SCORE.heavy>
31

>  <SCORE.norm>
0.298126

>  <RMSD>
19.374

$$$$
ligand
 OpenBabel11021811473D
libRbt.so/2013.1/901 2013/11/27
 31 33  0  0  0  0  0  0  0  0999 V2000
   17.6897   25.9137   14.2588 P   0  0  1  0  0  0  0  0  0  0  0  0
   18.3873   24.9155   13.3597 O   0  0  0  0  0  0  0  0  0  0  0  0
   18.6158   26.2339   15.4012 O   0  5  0  0  0  0  0  0  0  0  0  0
   17.3786   27.1716   13.4954 O   0  0  0  0  0  0  0  0  0  0  0  0
   15.7347   25.7270   15.9689 C   0  0  0  0  0  0  0  0  0  0  0  0
   16.2920   25.3056   14.7478 O   0  0  0  0  0  0  0  0  0  0  0  0
   14.2436   25.4232   15.9672 C   0  0  1  0  0  0  0  0  0  0  0  0
   14.0669   24.0311   16.1231 O   0  0  0  0  0  0  0  0  0  0  0  0
   13.5466   26.1793   17.0982 C   0  0  1  0  0  0  0  0  0  0  0  0
   13.9831   27.5217   17.1105 O   0  0  0  0  0  0  0  0  0  0  0  0
   12.0148   26.0940   17.0467 C   0  0  1  0  0  0  0  0  0  0  0  0
   11.6205   25.0704   16.1604 O   0  0  0  0  0  0  0  0  0  0  0  0
   11.3984   25.8357   18.4123 C   0  0  0  0  0  0  0  0  0  0  0  0
   10.0145   27.6653   16.7627 N   0  0  0  0  0  0  0  0  0  0  0  0
    9.3030   28.5010   15.9262 C   0  0  0  0  0  0  0  0  0  0  0  0
    9.2255   28.2509   14.7201 O   0  0  0  0  0  0  0  0  0  0  0  0
    8.6875   29.6223   16.4448 N   0  0  0  0  0  0  0  0  0  0  0  0
    8.7809   29.9096   17.7936 C   0  0  0  0  0  0  0  0  0  0  0  0
    9.4896   29.0757   18.6332 C   0  0  1  0  0  0  0  0  0  0  0  0
    8.2298   30.9004   18.2703 O   0  0  0  0  0  0  0  0  0  0  0  0
   10.2730   28.5421   20.8232 C   0  0  2  0  0  0  0  0  0  0  0  0
    9.5683   29.3759   19.9793 N   0  0  0  0  0  0  0  0  0  0  0  0
   10.3555   28.8437   22.1805 C   0  0  0  0  0  0  0  0  0  0  0  0
   11.0699   28.0135   23.0385 C   0  0  1  0  0  0  0  0  0  0  0  0
   11.1400   28.3481   24.5030 C   0  0  0  0  0  0  0  0  0  0  0  0
   11.7018   26.8724   22.5312 C   0  0  1  0  0  0  0  0  0  0  0  0
   12.4671   25.9494   23.4339 C   0  0  0  0  0  0  0  0  0  0  0  0
   11.6164   26.5742   21.1745 C   0  0  0  0  0  0  0  0  0  0  0  0
   10.9047   27.4044   20.3118 C   0  0  2  0  0  0  0  0  0  0  0  0
   10.1098   27.9440   18.1164 C   0  0  2  0  0  0  0  0  0  0  0  0
   10.8269   27.1126   18.9552 N   0  0  0  0  0  0  0  0  0  0  0  0
  1  2  1  6  0  0  0
  1  3  1  0  0  0  0
  1  4  2  0  0  0  0
  1  6  1  0  0  0  0
  5  6  1  0  0  0  0
  7  5  1  1  0  0  0
  7  8  1  0  0  0  0
  7  9  1  0  0  0  0
  9 10  1  6  0  0  0
  9 11  1  0  0  0  0
 11 12  1  6  0  0  0
 11 13  1  0  0  0  0
 13 31  1  0  0  0  0
 14 15  1  0  0  0  0
 15 16  2  0  0  0  0
 15 17  1  0  0  0  0
 17 18  1  0  0  0  0
 18 20  2  0  0  0  0
 19 18  1  1  0  0  0
 19 22  1  0  0  0  0
 19 30  1  0  0  0  0
 21 23  1  6  0  0  0
 21 29  1  0  0  0  0
 21 22  1  0  0  0  0
 23 24  1  0  0  0  0
 24 25  1  1  0  0  0
 24 26  1  0  0  0  0
 26 27  1  1  0  0  0
 26 28  1  0  0  0  0
 29 28  1  6  0  0  0
 29 31  1  0  0  0  0
 30 14  1  6  0  0  0
 30 31  1  0  0  0  0
M  CHG  1   3  -1
M  END
>  <CHROM.1>
159.57675032,153.15789064,73.48897003,46.36858311,14.38993715,102.75141237
-143.03996789,12.57769959,27.12770983,17.72573177,-0.64193351,-0.43438469
1.64879100

>  <Name>
ligand

>  <RI>
0

>  <Rbt.Current_Directory>
/home/itssahil/PROJECTS/Mol_Feturizer/New_Systems/rnas/3F2Q

>  <Rbt.Executable>
rbdock ($Id: //depot/dev/client3/rdock/2013.1/src/exe/rbdock.cxx#4 $)

>  <Rbt.Library>
libRbt.so (2013.1, Build901 2013/11/27)

>  <Rbt.Parameter_File>
/export/apps/rDock/src/rDock_2013.1_src/data/scripts/dock_solv.prm

>  <Rbt.Receptor>
prm/blind_docking_40.prm

>  <SCORE>
8.36497

>  <SCORE.INTER>
1.15748

>  <SCORE.INTER.CONST>
1

>  <SCORE.INTER.POLAR>
0

>  <SCORE.INTER.ROT>
7

>  <SCORE.INTER.SOLV>
18.189

>  <SCORE.INTER.VDW>
-13.558

>  <SCORE.INTER.norm>
0.0373382

>  <SCORE.INTRA>
3.18422

>  <SCORE.INTRA.DIHEDRAL>
4.10586

>  <SCORE.INTRA.DIHEDRAL.0>
10.0718

>  <SCORE.INTRA.POLAR>
0

>  <SCORE.INTRA.POLAR.0>
0

>  <SCORE.INTRA.REPUL>
0

>  <SCORE.INTRA.REPUL.0>
0

>  <SCORE.INTRA.SOLV>
-0.821505

>  <SCORE.INTRA.SOLV.lig_0>
-48.6963

>  <SCORE.INTRA.VDW>
1.54204

>  <SCORE.INTRA.VDW.0>
-0.836976

>  <SCORE.INTRA.norm>
0.102717

>  <SCORE.RESTR>
4.02327

>  <SCORE.RESTR.CAVITY>
4.02327

>  <SCORE.RESTR.norm>
0.129783

>  <SCORE.SYSTEM>
0

>  <SCORE.SYSTEM.CONST>
0

>  <SCORE.SYSTEM.DIHEDRAL>
0

>  <SCORE.SYSTEM.SOLV>
0

>  <SCORE.SYSTEM.norm>
0

>  <SCORE.heavy>
31

>  <SCORE.norm>
0.269838

>  <RMSD>
19.446

$$$$
ligand
 OpenBabel11021811473D
libRbt.so/2013.1/901 2013/11/27
 31 33  0  0  0  0  0  0  0  0999 V2000
   17.0348   26.1976   15.3904 P   0  0  1  0  0  0  0  0  0  0  0  0
   17.1028   27.6581   14.9981 O   0  0  0  0  0  0  0  0  0  0  0  0
   17.7507   25.4006   14.3334 O   0  5  0  0  0  0  0  0  0  0  0  0
   17.7042   25.9853   16.7203 O   0  0  0  0  0  0  0  0  0  0  0  0
   14.6664   26.4796   16.4356 C   0  0  0  0  0  0  0  0  0  0  0  0
   15.5040   25.7620   15.5624 O   0  0  0  0  0  0  0  0  0  0  0  0
   13.2204   26.3035   15.9958 C   0  0  1  0  0  0  0  0  0  0  0  0
   13.1912   25.4453   14.8751 O   0  0  0  0  0  0  0  0  0  0  0  0
   12.3860   25.7203   17.1361 C   0  0  1  0  0  0  0  0  0  0  0  0
   13.0485   24.6006   17.6838 O   0  0  0  0  0  0  0  0  0  0  0  0
   12.0282   26.7413   18.2252 C   0  0  1  0  0  0  0  0  0  0  0  0
   12.0715   28.0464   17.6926 O   0  0  0  0  0  0  0  0  0  0  0  0
   10.6546   26.4944   18.8282 C   0  0  0  0  0  0  0  0  0  0  0  0
   11.5029   25.9169   21.4608 N   0  0  0  0  0  0  0  0  0  0  0  0
   11.9818   25.6105   22.7182 C   0  0  0  0  0  0  0  0  0  0  0  0
   12.5048   24.5131   22.9316 O   0  0  0  0  0  0  0  0  0  0  0  0
   11.8635   26.5344   23.7369 N   0  0  0  0  0  0  0  0  0  0  0  0
   11.2696   27.7603   23.5026 C   0  0  0  0  0  0  0  0  0  0  0  0
   10.7913   28.0709   22.2467 C   0  0  1  0  0  0  0  0  0  0  0  0
   11.1659   28.5960   24.3989 O   0  0  0  0  0  0  0  0  0  0  0  0
    9.7289   29.6188   20.7736 C   0  0  2  0  0  0  0  0  0  0  0  0
   10.2049   29.3026   22.0296 N   0  0  0  0  0  0  0  0  0  0  0  0
    9.1354   30.8593   20.5528 C   0  0  0  0  0  0  0  0  0  0  0  0
    8.6454   31.1849   19.2920 C   0  0  1  0  0  0  0  0  0  0  0  0
    8.0172   32.5327   19.0681 C   0  0  0  0  0  0  0  0  0  0  0  0
    8.7552   30.2609   18.2466 C   0  0  1  0  0  0  0  0  0  0  0  0
    8.2498   30.5884   16.8718 C   0  0  0  0  0  0  0  0  0  0  0  0
    9.3494   29.0226   18.4712 C   0  0  0  0  0  0  0  0  0  0  0  0
    9.8385   28.6918   19.7327 C   0  0  2  0  0  0  0  0  0  0  0  0
   10.9096   27.1447   21.2167 C   0  0  2  0  0  0  0  0  0  0  0  0
   10.4234   27.4518   19.9604 N   0  0  0  0  0  0  0  0  0  0  0  0
  1  2  1  6  0  0  0
  1  3  1  0  0  0  0
  1  4  2  0  0  0  0
  1  6  1  0  0  0  0
  5  6  1  0  0  0  0
  7  5  1  1  0  0  0
  7  8  1  0  0  0  0
  7  9  1  0  0  0  0
  9 10  1  1  0  0  0
  9 11  1  0  0  0  0
 11 12  1  6  0  0  0
 11 13  1  0  0  0  0
 13 31  1  0  0  0  0
 14 15  1  0  0  0  0
 15 16  2  0  0  0  0
 15 17  1  0  0  0  0
 17 18  1  0  0  0  0
 18 20  2  0  0  0  0
 19 18  1  6  0  0  0
 19 22  1  0  0  0  0
 19 30  1  0  0  0  0
 21 23  1  1  0  0  0
 21 29  1  0  0  0  0
 21 22  1  0  0  0  0
 23 24  1  0  0  0  0
 24 25  1  6  0  0  0
 24 26  1  0  0  0  0
 26 27  1  6  0  0  0
 26 28  1  0  0  0  0
 29 28  1  1  0  0  0
 29 31  1  0  0  0  0
 30 14  1  1  0  0  0
 30 31  1  0  0  0  0
M  CHG  1   3  -1
M  END
>  <CHROM.1>
155.56238014,-54.90922699,1.61958626,-48.70071433,23.60172277,175.15162107
89.95996984,12.31393177,27.42983915,18.80915007,0.48947740,0.65763203,-1.21075349

>  <Name>
ligand

>  <RI>
0

>  <Rbt.Current_Directory>
/home/itssahil/PROJECTS/Mol_Feturizer/New_Systems/rnas/3F2Q

>  <Rbt.Executable>
rbdock ($Id: //depot/dev/client3/rdock/2013.1/src/exe/rbdock.cxx#4 $)

>  <Rbt.Library>
libRbt.so (2013.1, Build901 2013/11/27)

>  <Rbt.Parameter_File>
/export/apps/rDock/src/rDock_2013.1_src/data/scripts/dock_solv.prm

>  <Rbt.Receptor>
prm/blind_docking_40.prm

>  <SCORE>
6.26261

>  <SCORE.INTER>
1.64284

>  <SCORE.INTER.CONST>
1

>  <SCORE.INTER.POLAR>
0

>  <SCORE.INTER.ROT>
7

>  <SCORE.INTER.SOLV>
19.3062

>  <SCORE.INTER.VDW>
-13.6068

>  <SCORE.INTER.norm>
0.052995

>  <SCORE.INTRA>
1.02995

>  <SCORE.INTRA.DIHEDRAL>
3.06086

>  <SCORE.INTRA.DIHEDRAL.0>
10.0718

>  <SCORE.INTRA.POLAR>
0

>  <SCORE.INTRA.POLAR.0>
0

>  <SCORE.INTRA.REPUL>
0

>  <SCORE.INTRA.REPUL.0>
0

>  <SCORE.INTRA.SOLV>
-1.17247

>  <SCORE.INTRA.SOLV.lig_0>
-48.6963

>  <SCORE.INTRA.VDW>
0.085755

>  <SCORE.INTRA.VDW.0>
-0.836976

>  <SCORE.INTRA.norm>
0.0332242

>  <SCORE.RESTR>
3.58982

>  <SCORE.RESTR.CAVITY>
3.58982

>  <SCORE.RESTR.norm>
0.115801

>  <SCORE.SYSTEM>
0

>  <SCORE.SYSTEM.CONST>
0

>  <SCORE.SYSTEM.DIHEDRAL>
0

>  <SCORE.SYSTEM.SOLV>
0

>  <SCORE.SYSTEM.norm>
0

>  <SCORE.heavy>
31

>  <SCORE.norm>
0.20202

>  <RMSD>
19.466

$$$$
ligand
 OpenBabel11021811473D
libRbt.so/2013.1/901 2013/11/27
 31 33  0  0  0  0  0  0  0  0999 V2000
   16.8854   26.2080   15.6027 P   0  0  1  0  0  0  0  0  0  0  0  0
   17.8114   25.9186   16.7647 O   0  0  0  0  0  0  0  0  0  0  0  0
   17.2307   27.5701   15.0637 O   0  5  0  0  0  0  0  0  0  0  0  0
   17.0697   25.1778   14.5225 O   0  0  0  0  0  0  0  0  0  0  0  0
   14.7606   27.2013   16.7341 C   0  0  0  0  0  0  0  0  0  0  0  0
   15.3652   26.1044   16.0933 O   0  0  0  0  0  0  0  0  0  0  0  0
   13.2811   27.2319   16.3795 C   0  0  1  0  0  0  0  0  0  0  0  0
   13.0199   26.2058   15.4455 O   0  0  0  0  0  0  0  0  0  0  0  0
   12.4304   27.0398   17.6349 C   0  0  1  0  0  0  0  0  0  0  0  0
   12.7753   28.0152   18.5952 O   0  0  0  0  0  0  0  0  0  0  0  0
   10.9195   27.0378   17.3634 C   0  0  1  0  0  0  0  0  0  0  0  0
   10.6231   26.1542   16.3050 O   0  0  0  0  0  0  0  0  0  0  0  0
   10.1073   26.6413   18.5860 C   0  0  0  0  0  0  0  0  0  0  0  0
    9.1268   29.1908   17.8635 N   0  0  0  0  0  0  0  0  0  0  0  0
    8.5907   30.4021   17.4764 C   0  0  0  0  0  0  0  0  0  0  0  0
    8.2334   30.5765   16.3080 O   0  0  0  0  0  0  0  0  0  0  0  0
    8.4661   31.4194   18.4009 N   0  0  0  0  0  0  0  0  0  0  0  0
    8.8746   31.2296   19.7077 C   0  0  0  0  0  0  0  0  0  0  0  0
    9.4090   30.0197   20.0989 C   0  0  1  0  0  0  0  0  0  0  0  0
    8.7609   32.1245   20.5437 O   0  0  0  0  0  0  0  0  0  0  0  0
   10.3389   28.6361   21.8063 C   0  0  2  0  0  0  0  0  0  0  0  0
    9.8075   29.8463   21.4101 N   0  0  0  0  0  0  0  0  0  0  0  0
   10.7433   28.4594   23.1274 C   0  0  0  0  0  0  0  0  0  0  0  0
   11.2874   27.2456   23.5352 C   0  0  1  0  0  0  0  0  0  0  0  0
   11.7089   27.0682   24.9678 C   0  0  0  0  0  0  0  0  0  0  0  0
   11.4228   26.2024   22.6121 C   0  0  1  0  0  0  0  0  0  0  0  0
   11.9920   24.8765   23.0250 C   0  0  0  0  0  0  0  0  0  0  0  0
   11.0169   26.3827   21.2931 C   0  0  0  0  0  0  0  0  0  0  0  0
   10.4745   27.5974   20.8802 C   0  0  2  0  0  0  0  0  0  0  0  0
    9.5350   28.9911   19.1722 C   0  0  2  0  0  0  0  0  0  0  0  0
   10.0779   27.7816   19.5611 N   0  0  0  0  0  0  0  0  0  0  0  0
  1  2  1  1  0  0  0
  1  3  1  0  0  0  0
  1  4  2  0  0  0  0
  1  6  1  0  0  0  0
  5  6  1  0  0  0  0
  7  5  1  1  0  0  0
  7  8  1  0  0  0  0
  7  9  1  0  0  0  0
  9 10  1  1  0  0  0
  9 11  1  0  0  0  0
 11 12  1  6  0  0  0
 11 13  1  0  0  0  0
 13 31  1  0  0  0  0
 14 15  1  0  0  0  0
 15 16  2  0  0  0  0
 15 17  1  0  0  0  0
 17 18  1  0  0  0  0
 18 20  2  0  0  0  0
 19 18  1  1  0  0  0
 19 22  1  0  0  0  0
 19 30  1  0  0  0  0
 21 23  1  6  0  0  0
 21 29  1  0  0  0  0
 21 22  1  0  0  0  0
 23 24  1  0  0  0  0
 24 25  1  1  0  0  0
 24 26  1  0  0  0  0
 26 27  1  1  0  0  0
 26 28  1  0  0  0  0
 29 28  1  6  0  0  0
 29 31  1  0  0  0  0
 30 14  1  6  0  0  0
 30 31  1  0  0  0  0
M  CHG  1   3  -1
M  END
>  <CHROM.1>
147.03309769,82.73865900,-4.21524833,55.61735954,49.60366261,74.99815977
-125.84092370,12.01379872,27.77963690,18.65765894,-0.48793962,-0.58185427
1.84840466

>  <Name>
ligand

>  <RI>
0

>  <Rbt.Current_Directory>
/home/itssahil/PROJECTS/Mol_Feturizer/New_Systems/rnas/3F2Q

>  <Rbt.Executable>
rbdock ($Id: //depot/dev/client3/rdock/2013.1/src/exe/rbdock.cxx#4 $)

>  <Rbt.Library>
libRbt.so (2013.1, Build901 2013/11/27)

>  <Rbt.Parameter_File>
/export/apps/rDock/src/rDock_2013.1_src/data/scripts/dock_solv.prm

>  <Rbt.Receptor>
prm/blind_docking_40.prm

>  <SCORE>
4.86116

>  <SCORE.INTER>
0.175414

>  <SCORE.INTER.CONST>
1

>  <SCORE.INTER.POLAR>
0

>  <SCORE.INTER.ROT>
7

>  <SCORE.INTER.SOLV>
19.793

>  <SCORE.INTER.VDW>
-14.7474

>  <SCORE.INTER.norm>
0.00565852

>  <SCORE.INTRA>
0.797797

>  <SCORE.INTRA.DIHEDRAL>
2.57817

>  <SCORE.INTRA.DIHEDRAL.0>
10.0718

>  <SCORE.INTRA.POLAR>
0

>  <SCORE.INTRA.POLAR.0>
0

>  <SCORE.INTRA.REPUL>
0

>  <SCORE.INTRA.REPUL.0>
0

>  <SCORE.INTRA.SOLV>
-0.589759

>  <SCORE.INTRA.SOLV.lig_0>
-48.6963

>  <SCORE.INTRA.VDW>
-0.196409

>  <SCORE.INTRA.VDW.0>
-0.836976

>  <SCORE.INTRA.norm>
0.0257354

>  <SCORE.RESTR>
3.88794

>  <SCORE.RESTR.CAVITY>
3.88794

>  <SCORE.RESTR.norm>
0.125418

>  <SCORE.SYSTEM>
0

>  <SCORE.SYSTEM.CONST>
0

>  <SCORE.SYSTEM.DIHEDRAL>
0

>  <SCORE.SYSTEM.SOLV>
0

>  <SCORE.SYSTEM.norm>
0

>  <SCORE.heavy>
31

>  <SCORE.norm>
0.156811

>  <RMSD>
19.517

$$$$
ligand
 OpenBabel11021811473D
libRbt.so/2013.1/901 2013/11/27
 31 33  0  0  0  0  0  0  0  0999 V2000
   16.6864   26.1606   16.2127 P   0  0  1  0  0  0  0  0  0  0  0  0
   17.6032   26.1663   15.0081 O   0  0  0  0  0  0  0  0  0  0  0  0
   15.9634   24.8408   16.2378 O   0  5  0  0  0  0  0  0  0  0  0  0
   17.4872   26.3198   17.4757 O   0  0  0  0  0  0  0  0  0  0  0  0
   14.7186   27.5978   17.1313 C   0  0  0  0  0  0  0  0  0  0  0  0
   15.6893   27.4102   16.1304 O   0  0  0  0  0  0  0  0  0  0  0  0
   13.3565   27.1945   16.5860 C   0  0  1  0  0  0  0  0  0  0  0  0
   13.4560   25.8968   16.0388 O   0  0  0  0  0  0  0  0  0  0  0  0
   12.3090   27.2253   17.6989 C   0  0  1  0  0  0  0  0  0  0  0  0
   12.4583   28.4059   18.4580 O   0  0  0  0  0  0  0  0  0  0  0  0
   10.8674   27.0674   17.1956 C   0  0  1  0  0  0  0  0  0  0  0  0
   10.7992   26.0177   16.2563 O   0  0  0  0  0  0  0  0  0  0  0  0
    9.8828   26.7938   18.3212 C   0  0  0  0  0  0  0  0  0  0  0  0
    8.9801   29.3986   17.7021 N   0  0  0  0  0  0  0  0  0  0  0  0
    8.4794   30.6403   17.3672 C   0  0  0  0  0  0  0  0  0  0  0  0
    8.0804   30.8585   16.2199 O   0  0  0  0  0  0  0  0  0  0  0  0
    8.4367   31.6380   18.3200 N   0  0  0  0  0  0  0  0  0  0  0  0
    8.8919   31.3987   19.6030 C   0  0  0  0  0  0  0  0  0  0  0  0
    9.3913   30.1585   19.9420 C   0  0  1  0  0  0  0  0  0  0  0  0
    8.8512   32.2761   20.4639 O   0  0  0  0  0  0  0  0  0  0  0  0
   10.3339   28.6953   21.5745 C   0  0  2  0  0  0  0  0  0  0  0  0
    9.8373   29.9358   21.2303 N   0  0  0  0  0  0  0  0  0  0  0  0
   10.7861   28.4689   22.8723 C   0  0  0  0  0  0  0  0  0  0  0  0
   11.2957   27.2240   23.2275 C   0  0  1  0  0  0  0  0  0  0  0  0
   11.7698   26.9933   24.6359 C   0  0  0  0  0  0  0  0  0  0  0  0
   11.3481   26.1999   22.2750 C   0  0  1  0  0  0  0  0  0  0  0  0
   11.8783   24.8418   22.6316 C   0  0  0  0  0  0  0  0  0  0  0  0
   10.8946   26.4299   20.9795 C   0  0  0  0  0  0  0  0  0  0  0  0
   10.3866   27.6758   20.6193 C   0  0  2  0  0  0  0  0  0  0  0  0
    9.4347   29.1494   18.9868 C   0  0  2  0  0  0  0  0  0  0  0  0
    9.9425   27.9092   19.3232 N   0  0  0  0  0  0  0  0  0  0  0  0
  1  2  1  6  0  0  0
  1  3  1  0  0  0  0
  1  4  2  0  0  0  0
  1  6  1  0  0  0  0
  5  6  1  0  0  0  0
  7  5  1  1  0  0  0
  7  8  1  0  0  0  0
  7  9  1  0  0  0  0
  9 10  1  6  0  0  0
  9 11  1  0  0  0  0
 11 12  1  6  0  0  0
 11 13  1  0  0  0  0
 13 31  1  0  0  0  0
 14 15  1  0  0  0  0
 15 16  2  0  0  0  0
 15 17  1  0  0  0  0
 17 18  1  0  0  0  0
 18 20  2  0  0  0  0
 19 18  1  1  0  0  0
 19 22  1  0  0  0  0
 19 30  1  0  0  0  0
 21 23  1  6  0  0  0
 21 29  1  0  0  0  0
 21 22  1  0  0  0  0
 23 24  1  0  0  0  0
 24 25  1  1  0  0  0
 24 26  1  0  0  0  0
 26 27  1  1  0  0  0
 26 28  1  0  0  0  0
 29 28  1  6  0  0  0
 29 31  1  0  0  0  0
 30 14  1  6  0  0  0
 30 31  1  0  0  0  0
M  CHG  1   3  -1
M  END
>  <CHROM.1>
-104.57411897,178.58284462,51.98211727,44.89646900,45.44468853,57.97787307
-115.02828076,11.94831181,27.85088158,18.69584969,0.33115515,0.59748975,-1.26694062

>  <Name>
ligand

>  <RI>
0

>  <Rbt.Current_Directory>
/home/itssahil/PROJECTS/Mol_Feturizer/New_Systems/rnas/3F2Q

>  <Rbt.Executable>
rbdock ($Id: //depot/dev/client3/rdock/2013.1/src/exe/rbdock.cxx#4 $)

>  <Rbt.Library>
libRbt.so (2013.1, Build901 2013/11/27)

>  <Rbt.Parameter_File>
/export/apps/rDock/src/rDock_2013.1_src/data/scripts/dock_solv.prm

>  <Rbt.Receptor>
prm/blind_docking_40.prm

>  <SCORE>
3.74057

>  <SCORE.INTER>
0.746547

>  <SCORE.INTER.CONST>
1

>  <SCORE.INTER.POLAR>
0

>  <SCORE.INTER.ROT>
7

>  <SCORE.INTER.SOLV>
23.9732

>  <SCORE.INTER.VDW>
-15.76

>  <SCORE.INTER.norm>
0.0240822

>  <SCORE.INTRA>
-1.03929

>  <SCORE.INTRA.DIHEDRAL>
-0.780195

>  <SCORE.INTRA.DIHEDRAL.0>
10.0718

>  <SCORE.INTRA.POLAR>
0

>  <SCORE.INTRA.POLAR.0>
0

>  <SCORE.INTRA.REPUL>
0

>  <SCORE.INTRA.REPUL.0>
0

>  <SCORE.INTRA.SOLV>
1.61903

>  <SCORE.INTRA.SOLV.lig_0>
-48.6963

>  <SCORE.INTRA.VDW>
-1.45871

>  <SCORE.INTRA.VDW.0>
-0.836976

>  <SCORE.INTRA.norm>
-0.0335254

>  <SCORE.RESTR>
4.03331

>  <SCORE.RESTR.CAVITY>
4.03331

>  <SCORE.RESTR.norm>
0.130107

>  <SCORE.SYSTEM>
0

>  <SCORE.SYSTEM.CONST>
0

>  <SCORE.SYSTEM.DIHEDRAL>
0

>  <SCORE.SYSTEM.SOLV>
0

>  <SCORE.SYSTEM.norm>
0

>  <SCORE.heavy>
31

>  <SCORE.norm>
0.120664

>  <RMSD>
19.528

$$$$
ligand
 OpenBabel11021811473D
libRbt.so/2013.1/901 2013/11/27
 31 33  0  0  0  0  0  0  0  0999 V2000
   16.7029   26.0752   15.6844 P   0  0  1  0  0  0  0  0  0  0  0  0
   17.3206   25.2773   14.5558 O   0  0  0  0  0  0  0  0  0  0  0  0
   17.4974   25.8022   16.9331 O   0  5  0  0  0  0  0  0  0  0  0  0
   16.7509   27.5448   15.3685 O   0  0  0  0  0  0  0  0  0  0  0  0
   14.2729   26.5549   16.4886 C   0  0  0  0  0  0  0  0  0  0  0  0
   15.1591   25.6793   15.8350 O   0  0  0  0  0  0  0  0  0  0  0  0
   12.8439   26.0958   16.2384 C   0  0  1  0  0  0  0  0  0  0  0  0
   12.5523   25.0299   17.1172 O   0  0  0  0  0  0  0  0  0  0  0  0
   11.8686   27.2519   16.4599 C   0  0  1  0  0  0  0  0  0  0  0  0
   10.7125   27.0539   15.6745 O   0  0  0  0  0  0  0  0  0  0  0  0
   11.5061   27.4811   17.9338 C   0  0  1  0  0  0  0  0  0  0  0  0
   12.3411   28.4752   18.4845 O   0  0  0  0  0  0  0  0  0  0  0  0
   10.0538   27.8901   18.1210 C   0  0  0  0  0  0  0  0  0  0  0  0
   10.9338   26.4707   20.4001 N   0  0  0  0  0  0  0  0  0  0  0  0
   11.4274   25.7631   21.4771 C   0  0  0  0  0  0  0  0  0  0  0  0
   11.9345   24.6507   21.3077 O   0  0  0  0  0  0  0  0  0  0  0  0
   11.3415   26.3025   22.7447 N   0  0  0  0  0  0  0  0  0  0  0  0
   10.7653   27.5439   22.9381 C   0  0  0  0  0  0  0  0  0  0  0  0
   10.2726   28.2551   21.8638 C   0  0  1  0  0  0  0  0  0  0  0  0
   10.6905   28.0401   24.0609 O   0  0  0  0  0  0  0  0  0  0  0  0
    9.2139   30.2127   21.0026 C   0  0  2  0  0  0  0  0  0  0  0  0
    9.7044   29.4964   22.0751 N   0  0  0  0  0  0  0  0  0  0  0  0
    8.6387   31.4635   21.2133 C   0  0  0  0  0  0  0  0  0  0  0  0
    8.1344   32.1906   20.1396 C   0  0  1  0  0  0  0  0  0  0  0  0
    7.5263   33.5442   20.3835 C   0  0  0  0  0  0  0  0  0  0  0  0
    8.2114   31.6599   18.8469 C   0  0  1  0  0  0  0  0  0  0  0  0
    7.6899   32.4264   17.6665 C   0  0  0  0  0  0  0  0  0  0  0  0
    8.7874   30.4099   18.6404 C   0  0  0  0  0  0  0  0  0  0  0  0
    9.2908   29.6777   19.7131 C   0  0  2  0  0  0  0  0  0  0  0  0
   10.3583   27.7173   20.5848 C   0  0  2  0  0  0  0  0  0  0  0  0
    9.8575   28.4253   19.5091 N   0  0  0  0  0  0  0  0  0  0  0  0
  1  2  1  6  0  0  0
  1  3  1  0  0  0  0
  1  4  2  0  0  0  0
  1  6  1  0  0  0  0
  5  6  1  0  0  0  0
  7  5  1  1  0  0  0
  7  8  1  0  0  0  0
  7  9  1  0  0  0  0
  9 10  1  6  0  0  0
  9 11  1  0  0  0  0
 11 12  1  6  0  0  0
 11 13  1  0  0  0  0
 13 31  1  0  0  0  0
 14 15  1  0  0  0  0
 15 16  2  0  0  0  0
 15 17  1  0  0  0  0
 17 18  1  0  0  0  0
 18 20  2  0  0  0  0
 19 18  1  6  0  0  0
 19 22  1  0  0  0  0
 19 30  1  0  0  0  0
 21 23  1  1  0  0  0
 21 29  1  0  0  0  0
 21 22  1  0  0  0  0
 23 24  1  0  0  0  0
 24 25  1  6  0  0  0
 24 26  1  0  0  0  0
 26 27  1  6  0  0  0
 26 28  1  0  0  0  0
 29 28  1  1  0  0  0
 29 31  1  0  0  0  0
 30 14  1  1  0  0  0
 30 31  1  0  0  0  0
M  CHG  1   3  -1
M  END
>  <CHROM.1>
168.03866048,-159.39070746,80.01977989,152.89759008,94.98877788,-165.88902492
126.25283349,11.79250261,27.90330462,18.77798098,0.21823016,0.73325477,-1.06305344

>  <Name>
ligand

>  <RI>
0

>  <Rbt.Current_Directory>
/home/itssahil/PROJECTS/Mol_Feturizer/New_Systems/rnas/3F2Q

>  <Rbt.Executable>
rbdock ($Id: //depot/dev/client3/rdock/2013.1/src/exe/rbdock.cxx#4 $)

>  <Rbt.Library>
libRbt.so (2013.1, Build901 2013/11/27)

>  <Rbt.Parameter_File>
/export/apps/rDock/src/rDock_2013.1_src/data/scripts/dock_solv.prm

>  <Rbt.Receptor>
prm/blind_docking_40.prm

>  <SCORE>
7.84329

>  <SCORE.INTER>
3.31772

>  <SCORE.INTER.CONST>
1

>  <SCORE.INTER.POLAR>
0

>  <SCORE.INTER.ROT>
7

>  <SCORE.INTER.SOLV>
22.1484

>  <SCORE.INTER.VDW>
-13.4376

>  <SCORE.INTER.norm>
0.107023

>  <SCORE.INTRA>
0.219835

>  <SCORE.INTRA.DIHEDRAL>
0.151562

>  <SCORE.INTRA.DIHEDRAL.0>
10.0718

>  <SCORE.INTRA.POLAR>
0

>  <SCORE.INTRA.POLAR.0>
0

>  <SCORE.INTRA.REPUL>
0

>  <SCORE.INTRA.REPUL.0>
0

>  <SCORE.INTRA.SOLV>
-0.853928

>  <SCORE.INTRA.SOLV.lig_0>
-48.6963

>  <SCORE.INTRA.VDW>
0.571018

>  <SCORE.INTRA.VDW.0>
-0.836976

>  <SCORE.INTRA.norm>
0.00709145

>  <SCORE.RESTR>
4.30574

>  <SCORE.RESTR.CAVITY>
4.30574

>  <SCORE.RESTR.norm>
0.138895

>  <SCORE.SYSTEM>
0

>  <SCORE.SYSTEM.CONST>
0

>  <SCORE.SYSTEM.DIHEDRAL>
0

>  <SCORE.SYSTEM.SOLV>
0

>  <SCORE.SYSTEM.norm>
0

>  <SCORE.heavy>
31

>  <SCORE.norm>
0.253009

>  <RMSD>
19.586

$$$$
ligand
 OpenBabel11021811473D
libRbt.so/2013.1/901 2013/11/27
 31 33  0  0  0  0  0  0  0  0999 V2000
   16.6223   26.1097   15.8563 P   0  0  1  0  0  0  0  0  0  0  0  0
   17.4898   25.8599   17.0715 O   0  0  0  0  0  0  0  0  0  0  0  0
   17.1223   27.3573   15.1792 O   0  5  0  0  0  0  0  0  0  0  0  0
   16.7150   24.9489   14.9045 O   0  0  0  0  0  0  0  0  0  0  0  0
   14.1105   25.4517   15.6574 C   0  0  0  0  0  0  0  0  0  0  0  0
   15.0908   26.2229   16.3082 O   0  0  0  0  0  0  0  0  0  0  0  0
   12.7351   25.8711   16.1551 C   0  0  1  0  0  0  0  0  0  0  0  0
   11.7699   25.4665   15.2075 O   0  0  0  0  0  0  0  0  0  0  0  0
   12.4464   25.2358   17.5151 C   0  0  1  0  0  0  0  0  0  0  0  0
   13.5254   24.4062   17.8896 O   0  0  0  0  0  0  0  0  0  0  0  0
   12.1208   26.2542   18.6166 C   0  0  1  0  0  0  0  0  0  0  0  0
   12.8614   27.4367   18.4112 O   0  0  0  0  0  0  0  0  0  0  0  0
   10.6408   26.5970   18.6757 C   0  0  0  0  0  0  0  0  0  0  0  0
   11.4514   25.9330   21.2997 N   0  0  0  0  0  0  0  0  0  0  0  0
   11.9126   25.5860   22.5532 C   0  0  0  0  0  0  0  0  0  0  0  0
   12.4418   24.4861   22.7361 O   0  0  0  0  0  0  0  0  0  0  0  0
   11.7697   26.4719   23.6019 N   0  0  0  0  0  0  0  0  0  0  0  0
   11.1688   27.7004   23.4016 C   0  0  0  0  0  0  0  0  0  0  0  0
   10.7082   28.0517   22.1498 C   0  0  1  0  0  0  0  0  0  0  0  0
   11.0432   28.5028   24.3252 O   0  0  0  0  0  0  0  0  0  0  0  0
    9.6561   29.6423   20.7153 C   0  0  2  0  0  0  0  0  0  0  0  0
   10.1146   29.2855   21.9669 N   0  0  0  0  0  0  0  0  0  0  0  0
    9.0554   30.8850   20.5289 C   0  0  0  0  0  0  0  0  0  0  0  0
    8.5829   31.2512   19.2725 C   0  0  1  0  0  0  0  0  0  0  0  0
    7.9466   32.6010   19.0863 C   0  0  0  0  0  0  0  0  0  0  0  0
    8.7178   30.3661   18.1969 C   0  0  1  0  0  0  0  0  0  0  0  0
    8.2319   30.7382   16.8265 C   0  0  0  0  0  0  0  0  0  0  0  0
    9.3193   29.1255   18.3872 C   0  0  0  0  0  0  0  0  0  0  0  0
    9.7908   28.7540   19.6441 C   0  0  2  0  0  0  0  0  0  0  0  0
   10.8514   27.1639   21.0896 C   0  0  2  0  0  0  0  0  0  0  0  0
   10.3829   27.5115   19.8371 N   0  0  0  0  0  0  0  0  0  0  0  0
  1  2  1  1  0  0  0
  1  3  1  0  0  0  0
  1  4  2  0  0  0  0
  1  6  1  0  0  0  0
  5  6  1  0  0  0  0
  7  5  1  6  0  0  0
  7  8  1  0  0  0  0
  7  9  1  0  0  0  0
  9 10  1  1  0  0  0
  9 11  1  0  0  0  0
 11 12  1  6  0  0  0
 11 13  1  0  0  0  0
 13 31  1  0  0  0  0
 14 15  1  0  0  0  0
 15 16  2  0  0  0  0
 15 17  1  0  0  0  0
 17 18  1  0  0  0  0
 18 20  2  0  0  0  0
 19 18  1  6  0  0  0
 19 22  1  0  0  0  0
 19 30  1  0  0  0  0
 21 23  1  1  0  0  0
 21 29  1  0  0  0  0
 21 22  1  0  0  0  0
 23 24  1  0  0  0  0
 24 25  1  6  0  0  0
 24 26  1  0  0  0  0
 26 27  1  6  0  0  0
 26 28  1  0  0  0  0
 29 28  1  1  0  0  0
 29 31  1  0  0  0  0
 30 14  1  1  0  0  0
 30 31  1  0  0  0  0
M  CHG  1   3  -1
M  END
>  <CHROM.1>
-173.07569070,-128.96988562,159.62386301,-2.04581407,-33.90905272,175.67642729
122.88685738,12.15836051,27.32220876,18.90267923,0.43299657,0.68969641,-1.24048911

>  <Name>
ligand

>  <RI>
0

>  <Rbt.Current_Directory>
/home/itssahil/PROJECTS/Mol_Feturizer/New_Systems/rnas/3F2Q

>  <Rbt.Executable>
rbdock ($Id: //depot/dev/client3/rdock/2013.1/src/exe/rbdock.cxx#4 $)

>  <Rbt.Library>
libRbt.so (2013.1, Build901 2013/11/27)

>  <Rbt.Parameter_File>
/export/apps/rDock/src/rDock_2013.1_src/data/scripts/dock_solv.prm

>  <Rbt.Receptor>
prm/blind_docking_40.prm

>  <SCORE>
5.296

>  <SCORE.INTER>
-1.56915

>  <SCORE.INTER.CONST>
1

>  <SCORE.INTER.POLAR>
0

>  <SCORE.INTER.ROT>
7

>  <SCORE.INTER.SOLV>
18.8616

>  <SCORE.INTER.VDW>
-15.6

>  <SCORE.INTER.norm>
-0.0506177

>  <SCORE.INTRA>
2.90728

>  <SCORE.INTRA.DIHEDRAL>
2.56728

>  <SCORE.INTRA.DIHEDRAL.0>
10.0718

>  <SCORE.INTRA.POLAR>
0

>  <SCORE.INTRA.POLAR.0>
0

>  <SCORE.INTRA.REPUL>
0

>  <SCORE.INTRA.REPUL.0>
0

>  <SCORE.INTRA.SOLV>
-0.639678

>  <SCORE.INTRA.SOLV.lig_0>
-48.6963

>  <SCORE.INTRA.VDW>
1.94348

>  <SCORE.INTRA.VDW.0>
-0.836976

>  <SCORE.INTRA.norm>
0.0937833

>  <SCORE.RESTR>
3.95787

>  <SCORE.RESTR.CAVITY>
3.95787

>  <SCORE.RESTR.norm>
0.127673

>  <SCORE.SYSTEM>
0

>  <SCORE.SYSTEM.CONST>
0

>  <SCORE.SYSTEM.DIHEDRAL>
0

>  <SCORE.SYSTEM.SOLV>
0

>  <SCORE.SYSTEM.norm>
0

>  <SCORE.heavy>
31

>  <SCORE.norm>
0.170839

>  <RMSD>
19.635

$$$$
ligand
 OpenBabel11021811473D
libRbt.so/2013.1/901 2013/11/27
 31 33  0  0  0  0  0  0  0  0999 V2000
   16.4608   25.9940   16.2926 P   0  0  1  0  0  0  0  0  0  0  0  0
   16.0942   24.5381   16.4856 O   0  0  0  0  0  0  0  0  0  0  0  0
   17.3957   26.3873   17.4046 O   0  5  0  0  0  0  0  0  0  0  0  0
   17.1460   26.1859   14.9676 O   0  0  0  0  0  0  0  0  0  0  0  0
   13.8884   26.2902   16.5695 C   0  0  0  0  0  0  0  0  0  0  0  0
   15.1282   26.8804   16.2627 O   0  0  0  0  0  0  0  0  0  0  0  0
   12.7808   27.0679   15.8741 C   0  0  1  0  0  0  0  0  0  0  0  0
   12.2614   26.2750   14.8278 O   0  0  0  0  0  0  0  0  0  0  0  0
   11.6778   27.4260   16.8701 C   0  0  1  0  0  0  0  0  0  0  0  0
   10.5558   27.9267   16.1752 O   0  0  0  0  0  0  0  0  0  0  0  0
   11.2846   26.2691   17.7993 C   0  0  1  0  0  0  0  0  0  0  0  0
   12.2695   26.0961   18.7937 O   0  0  0  0  0  0  0  0  0  0  0  0
    9.9361   26.4886   18.4663 C   0  0  0  0  0  0  0  0  0  0  0  0
    9.0691   29.0973   17.8135 N   0  0  0  0  0  0  0  0  0  0  0  0
    8.5845   30.3414   17.4640 C   0  0  0  0  0  0  0  0  0  0  0  0
    8.1655   30.5444   16.3210 O   0  0  0  0  0  0  0  0  0  0  0  0
    8.5807   31.3585   18.3970 N   0  0  0  0  0  0  0  0  0  0  0  0
    9.0584   31.1361   19.6749 C   0  0  0  0  0  0  0  0  0  0  0  0
    9.5417   29.8936   20.0285 C   0  0  1  0  0  0  0  0  0  0  0  0
    9.0523   32.0310   20.5185 O   0  0  0  0  0  0  0  0  0  0  0  0
   10.4914   28.4454   21.6703 C   0  0  2  0  0  0  0  0  0  0  0  0
   10.0107   29.6881   21.3115 N   0  0  0  0  0  0  0  0  0  0  0  0
   10.9667   28.2363   22.9627 C   0  0  0  0  0  0  0  0  0  0  0  0
   11.4604   26.9892   23.3323 C   0  0  1  0  0  0  0  0  0  0  0  0
   11.9599   26.7776   24.7349 C   0  0  0  0  0  0  0  0  0  0  0  0
   11.4736   25.9455   22.4000 C   0  0  1  0  0  0  0  0  0  0  0  0
   11.9859   24.5850   22.7729 C   0  0  0  0  0  0  0  0  0  0  0  0
   10.9971   26.1584   21.1098 C   0  0  0  0  0  0  0  0  0  0  0  0
   10.5048   27.4063   20.7350 C   0  0  2  0  0  0  0  0  0  0  0  0
    9.5461   28.8651   19.0932 C   0  0  2  0  0  0  0  0  0  0  0  0
   10.0378   27.6224   19.4440 N   0  0  0  0  0  0  0  0  0  0  0  0
  1  2  1  1  0  0  0
  1  3  1  0  0  0  0
  1  4  2  0  0  0  0
  1  6  1  0  0  0  0
  5  6  1  0  0  0  0
  7  5  1  1  0  0  0
  7  8  1  0  0  0  0
  7  9  1  0  0  0  0
  9 10  1  6  0  0  0
  9 11  1  0  0  0  0
 11 12  1  1  0  0  0
 11 13  1  0  0  0  0
 13 31  1  0  0  0  0
 14 15  1  0  0  0  0
 15 16  2  0  0  0  0
 15 17  1  0  0  0  0
 17 18  1  0  0  0  0
 18 20  2  0  0  0  0
 19 18  1  1  0  0  0
 19 22  1  0  0  0  0
 19 30  1  0  0  0  0
 21 23  1  6  0  0  0
 21 29  1  0  0  0  0
 21 22  1  0  0  0  0
 23 24  1  0  0  0  0
 24 25  1  1  0  0  0
 24 26  1  0  0  0  0
 26 27  1  1  0  0  0
 26 28  1  0  0  0  0
 29 28  1  6  0  0  0
 29 31  1  0  0  0  0
 30 14  1  6  0  0  0
 30 31  1  0  0  0  0
M  CHG  1   3  -1
M  END
>  <CHROM.1>
-153.67019996,7.79888469,109.14092125,-169.42302639,75.85283370,-68.35549138
-84.05458150,11.86538777,27.59952190,18.68980713,-0.41810332,-0.61659222
1.82395460

>  <Name>
ligand

>  <RI>
0

>  <Rbt.Current_Directory>
/home/itssahil/PROJECTS/Mol_Feturizer/New_Systems/rnas/3F2Q

>  <Rbt.Executable>
rbdock ($Id: //depot/dev/client3/rdock/2013.1/src/exe/rbdock.cxx#4 $)

>  <Rbt.Library>
libRbt.so (2013.1, Build901 2013/11/27)

>  <Rbt.Parameter_File>
/export/apps/rDock/src/rDock_2013.1_src/data/scripts/dock_solv.prm

>  <Rbt.Receptor>
prm/blind_docking_40.prm

>  <SCORE>
3.00664

>  <SCORE.INTER>
-2.90536

>  <SCORE.INTER.CONST>
1

>  <SCORE.INTER.POLAR>
0

>  <SCORE.INTER.ROT>
7

>  <SCORE.INTER.SOLV>
24.6135

>  <SCORE.INTER.VDW>
-18.4081

>  <SCORE.INTER.norm>
-0.0937212

>  <SCORE.INTRA>
2.15693

>  <SCORE.INTRA.DIHEDRAL>
2.98964

>  <SCORE.INTRA.DIHEDRAL.0>
10.0718

>  <SCORE.INTRA.POLAR>
0

>  <SCORE.INTRA.POLAR.0>
0

>  <SCORE.INTRA.REPUL>
0

>  <SCORE.INTRA.REPUL.0>
0

>  <SCORE.INTRA.SOLV>
-0.944605

>  <SCORE.INTRA.SOLV.lig_0>
-48.6963

>  <SCORE.INTRA.VDW>
1.13441

>  <SCORE.INTRA.VDW.0>
-0.836976

>  <SCORE.INTRA.norm>
0.0695782

>  <SCORE.RESTR>
3.75507

>  <SCORE.RESTR.CAVITY>
3.75507

>  <SCORE.RESTR.norm>
0.121131

>  <SCORE.SYSTEM>
0

>  <SCORE.SYSTEM.CONST>
0

>  <SCORE.SYSTEM.DIHEDRAL>
0

>  <SCORE.SYSTEM.SOLV>
0

>  <SCORE.SYSTEM.norm>
0

>  <SCORE.heavy>
31

>  <SCORE.norm>
0.0969885

>  <RMSD>
19.698

$$$$
ligand
 OpenBabel11021811473D
libRbt.so/2013.1/901 2013/11/27
 31 33  0  0  0  0  0  0  0  0999 V2000
   15.1356   24.4454   16.1946 P   0  0  1  0  0  0  0  0  0  0  0  0
   15.5483   23.7959   17.4982 O   0  0  0  0  0  0  0  0  0  0  0  0
   15.9631   25.6897   16.0151 O   0  5  0  0  0  0  0  0  0  0  0  0
   15.3824   23.5068   15.0457 O   0  0  0  0  0  0  0  0  0  0  0  0
   13.0021   25.6220   15.2752 C   0  0  0  0  0  0  0  0  0  0  0  0
   13.5637   24.7469   16.2229 O   0  0  0  0  0  0  0  0  0  0  0  0
   12.3222   26.7733   16.0016 C   0  0  1  0  0  0  0  0  0  0  0  0
   10.9942   26.3974   16.2989 O   0  0  0  0  0  0  0  0  0  0  0  0
   13.0805   27.1129   17.2848 C   0  0  1  0  0  0  0  0  0  0  0  0
   14.3612   27.6103   16.9611 O   0  0  0  0  0  0  0  0  0  0  0  0
   12.3275   28.0784   18.2107 C   0  0  1  0  0  0  0  0  0  0  0  0
   11.9644   29.2407   17.4993 O   0  0  0  0  0  0  0  0  0  0  0  0
   11.0801   27.4540   18.8153 C   0  0  0  0  0  0  0  0  0  0  0  0
    9.4696   29.6203   17.9806 N   0  0  0  0  0  0  0  0  0  0  0  0
    8.6491   30.6322   17.5251 C   0  0  0  0  0  0  0  0  0  0  0  0
    8.5037   30.8137   16.3130 O   0  0  0  0  0  0  0  0  0  0  0  0
    8.0007   31.4450   18.4328 N   0  0  0  0  0  0  0  0  0  0  0  0
    8.1696   31.2497   19.7907 C   0  0  0  0  0  0  0  0  0  0  0  0
    8.9873   30.2383   20.2498 C   0  0  1  0  0  0  0  0  0  0  0  0
    7.5907   31.9609   20.6102 O   0  0  0  0  0  0  0  0  0  0  0  0
    9.9546   29.0414   22.0736 C   0  0  2  0  0  0  0  0  0  0  0  0
    9.1406   30.0546   21.6103 N   0  0  0  0  0  0  0  0  0  0  0  0
   10.1124   28.8556   23.4449 C   0  0  0  0  0  0  0  0  0  0  0  0
   10.9369   27.8416   23.9223 C   0  0  1  0  0  0  0  0  0  0  0  0
   11.0877   27.6479   25.4060 C   0  0  0  0  0  0  0  0  0  0  0  0
   11.6037   27.0077   23.0175 C   0  0  1  0  0  0  0  0  0  0  0  0
   12.4880   25.8957   23.5016 C   0  0  0  0  0  0  0  0  0  0  0  0
   11.4429   27.1963   21.6481 C   0  0  0  0  0  0  0  0  0  0  0  0
   10.6208   28.2121   21.1662 C   0  0  2  0  0  0  0  0  0  0  0  0
    9.6413   29.4155   19.3399 C   0  0  2  0  0  0  0  0  0  0  0  0
   10.4672   28.4073   19.7988 N   0  0  0  0  0  0  0  0  0  0  0  0
  1  2  1  1  0  0  0
  1  3  1  0  0  0  0
  1  4  2  0  0  0  0
  1  6  1  0  0  0  0
  5  6  1  0  0  0  0
  7  5  1  1  0  0  0
  7  8  1  0  0  0  0
  7  9  1  0  0  0  0
  9 10  1  6  0  0  0
  9 11  1  0  0  0  0
 11 12  1  6  0  0  0
 11 13  1  0  0  0  0
 13 31  1  0  0  0  0
 14 15  1  0  0  0  0
 15 16  2  0  0  0  0
 15 17  1  0  0  0  0
 17 18  1  0  0  0  0
 18 20  2  0  0  0  0
 19 18  1  1  0  0  0
 19 22  1  0  0  0  0
 19 30  1  0  0  0  0
 21 23  1  6  0  0  0
 21 29  1  0  0  0  0
 21 22  1  0  0  0  0
 23 24  1  0  0  0  0
 24 25  1  1  0  0  0
 24 26  1  0  0  0  0
 26 27  1  1  0  0  0
 26 28  1  0  0  0  0
 29 28  1  1  0  0  0
 29 31  1  0  0  0  0
 30 14  1  6  0  0  0
 30 31  1  0  0  0  0
M  CHG  1   3  -1
M  END
>  <CHROM.1>
-121.38464848,164.98219549,-87.66381184,65.60028768,-54.06170840,174.95824123
-103.36966793,11.59087578,27.72222773,18.87945534,-0.53357423,-0.78717841
1.67629928

>  <Name>
ligand

>  <RI>
0

>  <Rbt.Current_Directory>
/home/itssahil/PROJECTS/Mol_Feturizer/New_Systems/rnas/3F2Q

>  <Rbt.Executable>
rbdock ($Id: //depot/dev/client3/rdock/2013.1/src/exe/rbdock.cxx#4 $)

>  <Rbt.Library>
libRbt.so (2013.1, Build901 2013/11/27)

>  <Rbt.Parameter_File>
/export/apps/rDock/src/rDock_2013.1_src/data/scripts/dock_solv.prm

>  <Rbt.Receptor>
prm/blind_docking_40.prm

>  <SCORE>
0.985487

>  <SCORE.INTER>
-6.05783

>  <SCORE.INTER.CONST>
1

>  <SCORE.INTER.POLAR>
0

>  <SCORE.INTER.ROT>
7

>  <SCORE.INTER.SOLV>
16.1442

>  <SCORE.INTER.VDW>
-17.6866

>  <SCORE.INTER.norm>
-0.195414

>  <SCORE.INTRA>
1.90977

>  <SCORE.INTRA.DIHEDRAL>
1.6277

>  <SCORE.INTRA.DIHEDRAL.0>
10.0718

>  <SCORE.INTRA.POLAR>
0

>  <SCORE.INTRA.POLAR.0>
0

>  <SCORE.INTRA.REPUL>
0

>  <SCORE.INTRA.REPUL.0>
0

>  <SCORE.INTRA.SOLV>
2.39822

>  <SCORE.INTRA.SOLV.lig_0>
-48.6963

>  <SCORE.INTRA.VDW>
-0.103188

>  <SCORE.INTRA.VDW.0>
-0.836976

>  <SCORE.INTRA.norm>
0.0616055

>  <SCORE.RESTR>
5.13355

>  <SCORE.RESTR.CAVITY>
5.13355

>  <SCORE.RESTR.norm>
0.165598

>  <SCORE.SYSTEM>
0

>  <SCORE.SYSTEM.CONST>
0

>  <SCORE.SYSTEM.DIHEDRAL>
0

>  <SCORE.SYSTEM.SOLV>
0

>  <SCORE.SYSTEM.norm>
0

>  <SCORE.heavy>
31

>  <SCORE.norm>
0.0317899

>  <RMSD>
19.819

$$$$
ligand
 OpenBabel11021811473D
libRbt.so/2013.1/901 2013/11/27
 31 33  0  0  0  0  0  0  0  0999 V2000
   15.8739   25.1837   15.9533 P   0  0  1  0  0  0  0  0  0  0  0  0
   15.7711   23.9237   16.7860 O   0  0  0  0  0  0  0  0  0  0  0  0
   16.6808   26.1881   16.7311 O   0  5  0  0  0  0  0  0  0  0  0  0
   16.5603   24.8890   14.6480 O   0  0  0  0  0  0  0  0  0  0  0  0
   13.7298   26.5569   16.4999 C   0  0  0  0  0  0  0  0  0  0  0  0
   14.4043   25.7113   15.6003 O   0  0  0  0  0  0  0  0  0  0  0  0
   12.3862   26.9490   15.9030 C   0  0  1  0  0  0  0  0  0  0  0  0
   11.8609   25.8389   15.2065 O   0  0  0  0  0  0  0  0  0  0  0  0
   11.4242   27.3907   17.0057 C   0  0  1  0  0  0  0  0  0  0  0  0
   10.1169   27.4902   16.4827 O   0  0  0  0  0  0  0  0  0  0  0  0
   11.4573   26.4936   18.2509 C   0  0  1  0  0  0  0  0  0  0  0  0
   12.4437   26.9534   19.1478 O   0  0  0  0  0  0  0  0  0  0  0  0
   10.1176   26.4404   18.9679 C   0  0  0  0  0  0  0  0  0  0  0  0
   11.2051   25.9624   21.5316 N   0  0  0  0  0  0  0  0  0  0  0  0
   11.7954   25.6978   22.7506 C   0  0  0  0  0  0  0  0  0  0  0  0
   12.2562   24.5772   22.9855 O   0  0  0  0  0  0  0  0  0  0  0  0
   11.8583   26.6903   23.7077 N   0  0  0  0  0  0  0  0  0  0  0  0
   11.3343   27.9432   23.4503 C   0  0  0  0  0  0  0  0  0  0  0  0
   10.7452   28.2121   22.2324 C   0  0  1  0  0  0  0  0  0  0  0  0
   11.3918   28.8392   24.2908 O   0  0  0  0  0  0  0  0  0  0  0  0
    9.6446   29.7455   20.7724 C   0  0  2  0  0  0  0  0  0  0  0  0
   10.2311   29.4713   21.9909 N   0  0  0  0  0  0  0  0  0  0  0  0
    9.1236   31.0137   20.5272 C   0  0  0  0  0  0  0  0  0  0  0  0
    8.5234   31.2982   19.3046 C   0  0  1  0  0  0  0  0  0  0  0  0
    7.9756   32.6758   19.0524 C   0  0  0  0  0  0  0  0  0  0  0  0
    8.4491   30.3046   18.3219 C   0  0  1  0  0  0  0  0  0  0  0  0
    7.8213   30.5851   16.9878 C   0  0  0  0  0  0  0  0  0  0  0  0
    8.9714   29.0388   18.5706 C   0  0  0  0  0  0  0  0  0  0  0  0
    9.5704   28.7492   19.7943 C   0  0  2  0  0  0  0  0  0  0  0  0
   10.6809   27.2166   21.2642 C   0  0  2  0  0  0  0  0  0  0  0  0
   10.0836   27.4826   20.0470 N   0  0  0  0  0  0  0  0  0  0  0  0
  1  2  1  1  0  0  0
  1  3  1  0  0  0  0
  1  4  2  0  0  0  0
  1  6  1  0  0  0  0
  5  6  1  0  0  0  0
  7  5  1  1  0  0  0
  7  8  1  0  0  0  0
  7  9  1  0  0  0  0
  9 10  1  6  0  0  0
  9 11  1  0  0  0  0
 11 12  1  1  0  0  0
 11 13  1  0  0  0  0
 13 31  1  0  0  0  0
 14 15  1  0  0  0  0
 15 16  2  0  0  0  0
 15 17  1  0  0  0  0
 17 18  1  0  0  0  0
 18 20  2  0  0  0  0
 19 18  1  6  0  0  0
 19 22  1  0  0  0  0
 19 30  1  0  0  0  0
 21 23  1  1  0  0  0
 21 29  1  0  0  0  0
 21 22  1  0  0  0  0
 23 24  1  0  0  0  0
 24 25  1  6  0  0  0
 24 26  1  0  0  0  0
 26 27  1  6  0  0  0
 26 28  1  0  0  0  0
 29 28  1  1  0  0  0
 29 31  1  0  0  0  0
 30 14  1  1  0  0  0
 30 31  1  0  0  0  0
M  CHG  1   3  -1
M  END
>  <CHROM.1>
177.91345262,86.51440850,37.08622682,-168.21629831,88.38106492,-93.18874453
92.60194809,11.73644130,27.40748297,18.95689227,-0.53741571,-0.71342739,1.72311508

>  <Name>
ligand

>  <RI>
0

>  <Rbt.Current_Directory>
/home/itssahil/PROJECTS/Mol_Feturizer/New_Systems/rnas/3F2Q

>  <Rbt.Executable>
rbdock ($Id: //depot/dev/client3/rdock/2013.1/src/exe/rbdock.cxx#4 $)

>  <Rbt.Library>
libRbt.so (2013.1, Build901 2013/11/27)

>  <Rbt.Parameter_File>
/export/apps/rDock/src/rDock_2013.1_src/data/scripts/dock_solv.prm

>  <Rbt.Receptor>
prm/blind_docking_40.prm

>  <SCORE>
2.7332

>  <SCORE.INTER>
-1.19713

>  <SCORE.INTER.CONST>
1

>  <SCORE.INTER.POLAR>
0

>  <SCORE.INTER.ROT>
7

>  <SCORE.INTER.SOLV>
18.2562

>  <SCORE.INTER.VDW>
-15.1502

>  <SCORE.INTER.norm>
-0.038617

>  <SCORE.INTRA>
0.0530554

>  <SCORE.INTRA.DIHEDRAL>
-0.286603

>  <SCORE.INTRA.DIHEDRAL.0>
10.0718

>  <SCORE.INTRA.POLAR>
0

>  <SCORE.INTRA.POLAR.0>
0

>  <SCORE.INTRA.REPUL>
0

>  <SCORE.INTRA.REPUL.0>
0

>  <SCORE.INTRA.SOLV>
-0.635698

>  <SCORE.INTRA.SOLV.lig_0>
-48.6963

>  <SCORE.INTRA.VDW>
0.514206

>  <SCORE.INTRA.VDW.0>
-0.836976

>  <SCORE.INTRA.norm>
0.00171146

>  <SCORE.RESTR>
3.87727

>  <SCORE.RESTR.CAVITY>
3.87727

>  <SCORE.RESTR.norm>
0.125073

>  <SCORE.SYSTEM>
0

>  <SCORE.SYSTEM.CONST>
0

>  <SCORE.SYSTEM.DIHEDRAL>
0

>  <SCORE.SYSTEM.SOLV>
0

>  <SCORE.SYSTEM.norm>
0

>  <SCORE.heavy>
31

>  <SCORE.norm>
0.0881678

>  <RMSD>
19.866

$$$$
ligand
 OpenBabel11021811473D
libRbt.so/2013.1/901 2013/11/27
 31 33  0  0  0  0  0  0  0  0999 V2000
   13.5078   26.2899   16.5496 P   0  0  1  0  0  0  0  0  0  0  0  0
   12.7952   27.0157   15.4285 O   0  0  0  0  0  0  0  0  0  0  0  0
   12.8099   24.9742   16.7664 O   0  5  0  0  0  0  0  0  0  0  0  0
   14.9440   26.0425   16.1780 O   0  0  0  0  0  0  0  0  0  0  0  0
   13.3703   28.6031   17.7379 C   0  0  0  0  0  0  0  0  0  0  0  0
   13.5154   27.2091   17.8603 O   0  0  0  0  0  0  0  0  0  0  0  0
   11.9110   28.9733   17.9584 C   0  0  1  0  0  0  0  0  0  0  0  0
   11.7539   30.3545   17.7117 O   0  0  0  0  0  0  0  0  0  0  0  0
   11.0108   28.1596   17.0287 C   0  0  1  0  0  0  0  0  0  0  0  0
   10.9323   26.8280   17.4905 O   0  0  0  0  0  0  0  0  0  0  0  0
    9.6129   28.7641   16.8368 C   0  0  1  0  0  0  0  0  0  0  0  0
    9.0775   28.3521   15.5988 O   0  0  0  0  0  0  0  0  0  0  0  0
    8.6516   28.3767   17.9492 C   0  0  0  0  0  0  0  0  0  0  0  0
    8.1688   31.1327   18.3424 N   0  0  0  0  0  0  0  0  0  0  0  0
    7.8649   32.4689   18.5056 C   0  0  0  0  0  0  0  0  0  0  0  0
    7.3668   33.1091   17.5755 O   0  0  0  0  0  0  0  0  0  0  0  0
    8.1302   33.0863   19.7113 N   0  0  0  0  0  0  0  0  0  0  0  0
    8.6968   32.3737   20.7513 C   0  0  0  0  0  0  0  0  0  0  0  0
    9.0003   31.0376   20.5926 C   0  0  1  0  0  0  0  0  0  0  0  0
    8.9301   32.9093   21.8335 O   0  0  0  0  0  0  0  0  0  0  0  0
    9.8632   29.0021   21.4910 C   0  0  2  0  0  0  0  0  0  0  0  0
    9.5618   30.3399   21.6443 N   0  0  0  0  0  0  0  0  0  0  0  0
   10.4313   28.2971   22.5493 C   0  0  0  0  0  0  0  0  0  0  0  0
   10.7459   26.9498   22.4023 C   0  0  1  0  0  0  0  0  0  0  0  0
   11.3489   26.2008   23.5586 C   0  0  0  0  0  0  0  0  0  0  0  0
   10.4853   26.3064   21.1871 C   0  0  1  0  0  0  0  0  0  0  0  0
   10.7994   24.8504   21.0027 C   0  0  0  0  0  0  0  0  0  0  0  0
    9.9169   27.0143   20.1322 C   0  0  0  0  0  0  0  0  0  0  0  0
    9.6033   28.3639   20.2744 C   0  0  2  0  0  0  0  0  0  0  0  0
    8.7334   30.4104   19.3810 C   0  0  2  0  0  0  0  0  0  0  0  0
    9.0446   29.0740   19.2184 N   0  0  0  0  0  0  0  0  0  0  0  0
  1  2  1  6  0  0  0
  1  3  1  0  0  0  0
  1  4  2  0  0  0  0
  1  6  1  0  0  0  0
  5  6  1  0  0  0  0
  7  5  1  6  0  0  0
  7  8  1  0  0  0  0
  7  9  1  0  0  0  0
  9 10  1  1  0  0  0
  9 11  1  0  0  0  0
 11 12  1  6  0  0  0
 11 13  1  0  0  0  0
 13 31  1  0  0  0  0
 14 15  1  0  0  0  0
 15 16  2  0  0  0  0
 15 17  1  0  0  0  0
 17 18  1  0  0  0  0
 18 20  2  0  0  0  0
 19 18  1  1  0  0  0
 19 22  1  0  0  0  0
 19 30  1  0  0  0  0
 21 23  1  6  0  0  0
 21 29  1  0  0  0  0
 21 22  1  0  0  0  0
 23 24  1  0  0  0  0
 24 25  1  1  0  0  0
 24 26  1  0  0  0  0
 26 27  1  1  0  0  0
 26 28  1  0  0  0  0
 29 28  1  6  0  0  0
 29 31  1  0  0  0  0
 30 14  1  6  0  0  0
 30 31  1  0  0  0  0
M  CHG  1   3  -1
M  END
>  <CHROM.1>
96.37026593,-22.85867181,-174.63196917,73.86635934,154.34456601,70.54074830
-108.79539368,10.60005277,28.66373120,18.86226449,0.10447204,0.93245057,-1.19927923

>  <Name>
ligand

>  <RI>
0

>  <Rbt.Current_Directory>
/home/itssahil/PROJECTS/Mol_Feturizer/New_Systems/rnas/3F2Q

>  <Rbt.Executable>
rbdock ($Id: //depot/dev/client3/rdock/2013.1/src/exe/rbdock.cxx#4 $)

>  <Rbt.Library>
libRbt.so (2013.1, Build901 2013/11/27)

>  <Rbt.Parameter_File>
/export/apps/rDock/src/rDock_2013.1_src/data/scripts/dock_solv.prm

>  <Rbt.Receptor>
prm/blind_docking_40.prm

>  <SCORE>
2.19615

>  <SCORE.INTER>
-3.00221

>  <SCORE.INTER.CONST>
1

>  <SCORE.INTER.POLAR>
0

>  <SCORE.INTER.ROT>
7

>  <SCORE.INTER.SOLV>
14.3128

>  <SCORE.INTER.VDW>
-15.0391

>  <SCORE.INTER.norm>
-0.0968454

>  <SCORE.INTRA>
-0.0274153

>  <SCORE.INTRA.DIHEDRAL>
1.05338

>  <SCORE.INTRA.DIHEDRAL.0>
10.0718

>  <SCORE.INTRA.POLAR>
0

>  <SCORE.INTRA.POLAR.0>
0

>  <SCORE.INTRA.REPUL>
0

>  <SCORE.INTRA.REPUL.0>
0

>  <SCORE.INTRA.SOLV>
1.86223

>  <SCORE.INTRA.SOLV.lig_0>
-48.6963

>  <SCORE.INTRA.VDW>
-1.48522

>  <SCORE.INTRA.VDW.0>
-0.836976

>  <SCORE.INTRA.norm>
-0.000884365

>  <SCORE.RESTR>
5.22577

>  <SCORE.RESTR.CAVITY>
5.22577

>  <SCORE.RESTR.norm>
0.168573

>  <SCORE.SYSTEM>
0

>  <SCORE.SYSTEM.CONST>
0

>  <SCORE.SYSTEM.DIHEDRAL>
0

>  <SCORE.SYSTEM.SOLV>
0

>  <SCORE.SYSTEM.norm>
0

>  <SCORE.heavy>
31

>  <SCORE.norm>
0.0708435

>  <RMSD>
20.114

$$$$
ligand
 OpenBabel11021811473D
libRbt.so/2013.1/901 2013/11/27
 31 33  0  0  0  0  0  0  0  0999 V2000
   14.5248   25.0628   16.1936 P   0  0  1  0  0  0  0  0  0  0  0  0
   15.7811   25.9044   16.2650 O   0  0  0  0  0  0  0  0  0  0  0  0
   14.4000   24.5357   14.7894 O   0  5  0  0  0  0  0  0  0  0  0  0
   14.6153   23.9116   17.1571 O   0  0  0  0  0  0  0  0  0  0  0  0
   13.4661   27.2274   17.1811 C   0  0  0  0  0  0  0  0  0  0  0  0
   13.2652   25.9458   16.6367 O   0  0  0  0  0  0  0  0  0  0  0  0
   12.1286   27.7885   17.6413 C   0  0  1  0  0  0  0  0  0  0  0  0
   12.3511   29.0431   18.2495 O   0  0  0  0  0  0  0  0  0  0  0  0
   11.1767   27.9325   16.4539 C   0  0  1  0  0  0  0  0  0  0  0  0
   10.9061   26.6600   15.9062 O   0  0  0  0  0  0  0  0  0  0  0  0
    9.8787   28.6802   16.7894 C   0  0  1  0  0  0  0  0  0  0  0  0
    9.0533   28.7450   15.6477 O   0  0  0  0  0  0  0  0  0  0  0  0
    9.1070   28.0290   17.9260 C   0  0  0  0  0  0  0  0  0  0  0  0
    8.4200   30.7478   18.2725 N   0  0  0  0  0  0  0  0  0  0  0  0
    8.0186   32.0610   18.4097 C   0  0  0  0  0  0  0  0  0  0  0  0
    7.5246   32.6612   17.4511 O   0  0  0  0  0  0  0  0  0  0  0  0
    8.1820   32.7010   19.6216 N   0  0  0  0  0  0  0  0  0  0  0  0
    8.7438   32.0338   20.6938 C   0  0  0  0  0  0  0  0  0  0  0  0
    9.1444   30.7206   20.5612 C   0  0  1  0  0  0  0  0  0  0  0  0
    8.8868   32.5893   21.7817 O   0  0  0  0  0  0  0  0  0  0  0  0
   10.0980   28.7530   21.5173 C   0  0  2  0  0  0  0  0  0  0  0  0
    9.6996   30.0679   21.6447 N   0  0  0  0  0  0  0  0  0  0  0  0
   10.6599   28.0935   22.6078 C   0  0  0  0  0  0  0  0  0  0  0  0
   11.0718   26.7700   22.4875 C   0  0  1  0  0  0  0  0  0  0  0  0
   11.6666   26.0695   23.6778 C   0  0  0  0  0  0  0  0  0  0  0  0
   10.9154   26.1044   21.2664 C   0  0  1  0  0  0  0  0  0  0  0  0
   11.3361   24.6722   21.1095 C   0  0  0  0  0  0  0  0  0  0  0  0
   10.3529   26.7667   20.1793 C   0  0  0  0  0  0  0  0  0  0  0  0
    9.9420   28.0926   20.2948 C   0  0  2  0  0  0  0  0  0  0  0  0
    8.9804   30.0707   19.3433 C   0  0  2  0  0  0  0  0  0  0  0  0
    9.3891   28.7578   19.2071 N   0  0  0  0  0  0  0  0  0  0  0  0
  1  2  1  1  0  0  0
  1  3  1  0  0  0  0
  1  4  2  0  0  0  0
  1  6  1  0  0  0  0
  5  6  1  0  0  0  0
  7  5  1  6  0  0  0
  7  8  1  0  0  0  0
  7  9  1  0  0  0  0
  9 10  1  1  0  0  0
  9 11  1  0  0  0  0
 11 12  1  6  0  0  0
 11 13  1  0  0  0  0
 13 31  1  0  0  0  0
 14 15  1  0  0  0  0
 15 16  2  0  0  0  0
 15 17  1  0  0  0  0
 17 18  1  0  0  0  0
 18 20  2  0  0  0  0
 19 18  1  1  0  0  0
 19 22  1  0  0  0  0
 19 30  1  0  0  0  0
 21 23  1  6  0  0  0
 21 29  1  0  0  0  0
 21 22  1  0  0  0  0
 23 24  1  0  0  0  0
 24 25  1  1  0  0  0
 24 26  1  0  0  0  0
 26 27  1  1  0  0  0
 26 28  1  0  0  0  0
 29 28  1  6  0  0  0
 29 31  1  0  0  0  0
 30 14  1  6  0  0  0
 30 31  1  0  0  0  0
M  CHG  1   3  -1
M  END
>  <CHROM.1>
-174.41995952,-8.54426196,176.93091374,63.23385016,-178.93681663,98.96322689
-120.99747791,10.99515771,28.11222306,18.70568529,0.24581352,0.88475242,-1.34634567

>  <Name>
ligand

>  <RI>
0

>  <Rbt.Current_Directory>
/home/itssahil/PROJECTS/Mol_Feturizer/New_Systems/rnas/3F2Q

>  <Rbt.Executable>
rbdock ($Id: //depot/dev/client3/rdock/2013.1/src/exe/rbdock.cxx#4 $)

>  <Rbt.Library>
libRbt.so (2013.1, Build901 2013/11/27)

>  <Rbt.Parameter_File>
/export/apps/rDock/src/rDock_2013.1_src/data/scripts/dock_solv.prm

>  <Rbt.Receptor>
prm/blind_docking_40.prm

>  <SCORE>
-0.688626

>  <SCORE.INTER>
-2.79415

>  <SCORE.INTER.CONST>
1

>  <SCORE.INTER.POLAR>
0

>  <SCORE.INTER.ROT>
7

>  <SCORE.INTER.SOLV>
13.1775

>  <SCORE.INTER.VDW>
-14.5219

>  <SCORE.INTER.norm>
-0.0901338

>  <SCORE.INTRA>
-3.31895

>  <SCORE.INTRA.DIHEDRAL>
-2.40592

>  <SCORE.INTRA.DIHEDRAL.0>
10.0718

>  <SCORE.INTRA.POLAR>
0

>  <SCORE.INTRA.POLAR.0>
0

>  <SCORE.INTRA.REPUL>
0

>  <SCORE.INTRA.REPUL.0>
0

>  <SCORE.INTRA.SOLV>
-1.17342

>  <SCORE.INTRA.SOLV.lig_0>
-48.6963

>  <SCORE.INTRA.VDW>
-1.52928

>  <SCORE.INTRA.VDW.0>
-0.836976

>  <SCORE.INTRA.norm>
-0.107063

>  <SCORE.RESTR>
5.42448

>  <SCORE.RESTR.CAVITY>
5.42448

>  <SCORE.RESTR.norm>
0.174983

>  <SCORE.SYSTEM>
0

>  <SCORE.SYSTEM.CONST>
0

>  <SCORE.SYSTEM.DIHEDRAL>
0

>  <SCORE.SYSTEM.SOLV>
0

>  <SCORE.SYSTEM.norm>
0

>  <SCORE.heavy>
31

>  <SCORE.norm>
-0.0222137

>  <RMSD>
20.145

$$$$
ligand
 OpenBabel11021811473D
libRbt.so/2013.1/901 2013/11/27
 31 33  0  0  0  0  0  0  0  0999 V2000
   13.8176   24.7266   15.6531 P   0  0  1  0  0  0  0  0  0  0  0  0
   12.6529   25.1877   14.8032 O   0  0  0  0  0  0  0  0  0  0  0  0
   13.6688   23.2459   15.8780 O   0  5  0  0  0  0  0  0  0  0  0  0
   15.1167   25.0002   14.9466 O   0  0  0  0  0  0  0  0  0  0  0  0
   13.4640   26.9146   17.0203 C   0  0  0  0  0  0  0  0  0  0  0  0
   13.8437   25.5599   17.0197 O   0  0  0  0  0  0  0  0  0  0  0  0
   11.9471   27.0068   16.9426 C   0  0  1  0  0  0  0  0  0  0  0  0
   11.3916   26.0419   17.8107 O   0  0  0  0  0  0  0  0  0  0  0  0
   11.4799   28.4086   17.3341 C   0  0  1  0  0  0  0  0  0  0  0  0
   12.3725   29.3691   16.8114 O   0  0  0  0  0  0  0  0  0  0  0  0
   10.0326   28.7147   16.9244 C   0  0  1  0  0  0  0  0  0  0  0  0
    9.7395   28.0903   15.6943 O   0  0  0  0  0  0  0  0  0  0  0  0
    9.0225   28.2616   17.9665 C   0  0  0  0  0  0  0  0  0  0  0  0
    8.3919   30.9750   18.4388 N   0  0  0  0  0  0  0  0  0  0  0  0
    8.0176   32.2884   18.6370 C   0  0  0  0  0  0  0  0  0  0  0  0
    7.5338   32.9417   17.7083 O   0  0  0  0  0  0  0  0  0  0  0  0
    8.1967   32.8690   19.8763 N   0  0  0  0  0  0  0  0  0  0  0  0
    8.7472   32.1422   20.9152 C   0  0  0  0  0  0  0  0  0  0  0  0
    9.1207   30.8287   20.7216 C   0  0  1  0  0  0  0  0  0  0  0  0
    8.9039   32.6445   22.0268 O   0  0  0  0  0  0  0  0  0  0  0  0
   10.0361   28.8006   21.5839 C   0  0  2  0  0  0  0  0  0  0  0  0
    9.6648   30.1161   21.7725 N   0  0  0  0  0  0  0  0  0  0  0  0
   10.5868   28.0807   22.6414 C   0  0  0  0  0  0  0  0  0  0  0  0
   10.9714   26.7560   22.4596 C   0  0  1  0  0  0  0  0  0  0  0  0
   11.5544   25.9899   23.6149 C   0  0  0  0  0  0  0  0  0  0  0  0
   10.7987   26.1501   21.2099 C   0  0  1  0  0  0  0  0  0  0  0  0
   11.1898   24.7184   20.9866 C   0  0  0  0  0  0  0  0  0  0  0  0
   10.2474   26.8727   20.1559 C   0  0  0  0  0  0  0  0  0  0  0  0
    9.8639   28.2000   20.3331 C   0  0  2  0  0  0  0  0  0  0  0  0
    8.9408   30.2385   19.4758 C   0  0  2  0  0  0  0  0  0  0  0  0
    9.3223   28.9252   19.2786 N   0  0  0  0  0  0  0  0  0  0  0  0
  1  2  1  6  0  0  0
  1  3  1  0  0  0  0
  1  4  2  0  0  0  0
  1  6  1  0  0  0  0
  5  6  1  0  0  0  0
  7  5  1  1  0  0  0
  7  8  1  0  0  0  0
  7  9  1  0  0  0  0
  9 10  1  6  0  0  0
  9 11  1  0  0  0  0
 11 12  1  6  0  0  0
 11 13  1  0  0  0  0
 13 31  1  0  0  0  0
 14 15  1  0  0  0  0
 15 16  2  0  0  0  0
 15 17  1  0  0  0  0
 17 18  1  0  0  0  0
 18 20  2  0  0  0  0
 19 18  1  1  0  0  0
 19 22  1  0  0  0  0
 19 30  1  0  0  0  0
 21 23  1  6  0  0  0
 21 29  1  0  0  0  0
 21 22  1  0  0  0  0
 23 24  1  0  0  0  0
 24 25  1  1  0  0  0
 24 26  1  0  0  0  0
 26 27  1  1  0  0  0
 26 28  1  0  0  0  0
 29 28  1  6  0  0  0
 29 31  1  0  0  0  0
 30 14  1  6  0  0  0
 30 31  1  0  0  0  0
M  CHG  1   3  -1
M  END
>  <CHROM.1>
76.51573556,-35.43836593,42.87912598,38.95973352,-35.22971958,57.92127538
-107.66141078,10.86766003,28.05211961,18.66529662,0.25700366,0.99168365,-1.27149786

>  <Name>
ligand

>  <RI>
0

>  <Rbt.Current_Directory>
/home/itssahil/PROJECTS/Mol_Feturizer/New_Systems/rnas/3F2Q

>  <Rbt.Executable>
rbdock ($Id: //depot/dev/client3/rdock/2013.1/src/exe/rbdock.cxx#4 $)

>  <Rbt.Library>
libRbt.so (2013.1, Build901 2013/11/27)

>  <Rbt.Parameter_File>
/export/apps/rDock/src/rDock_2013.1_src/data/scripts/dock_solv.prm

>  <Rbt.Receptor>
prm/blind_docking_40.prm

>  <SCORE>
3.65503

>  <SCORE.INTER>
0.521532

>  <SCORE.INTER.CONST>
1

>  <SCORE.INTER.POLAR>
0

>  <SCORE.INTER.ROT>
7

>  <SCORE.INTER.SOLV>
10.771

>  <SCORE.INTER.VDW>
-11.5093

>  <SCORE.INTER.norm>
0.0168236

>  <SCORE.INTRA>
-2.16431

>  <SCORE.INTRA.DIHEDRAL>
-2.15784

>  <SCORE.INTRA.DIHEDRAL.0>
10.0718

>  <SCORE.INTRA.POLAR>
0

>  <SCORE.INTRA.POLAR.0>
0

>  <SCORE.INTRA.REPUL>
0

>  <SCORE.INTRA.REPUL.0>
0

>  <SCORE.INTRA.SOLV>
-0.00423664

>  <SCORE.INTRA.SOLV.lig_0>
-48.6963

>  <SCORE.INTRA.VDW>
-1.08327

>  <SCORE.INTRA.VDW.0>
-0.836976

>  <SCORE.INTRA.norm>
-0.0698164

>  <SCORE.RESTR>
5.2978

>  <SCORE.RESTR.CAVITY>
5.2978

>  <SCORE.RESTR.norm>
0.170897

>  <SCORE.SYSTEM>
0

>  <SCORE.SYSTEM.CONST>
0

>  <SCORE.SYSTEM.DIHEDRAL>
0

>  <SCORE.SYSTEM.SOLV>
0

>  <SCORE.SYSTEM.norm>
0

>  <SCORE.heavy>
31

>  <SCORE.norm>
0.117904

>  <RMSD>
20.267

$$$$
