@<TRIPOS>MOLECULE
3F2Q_rdock.pdb
 2298 2573 0 0 0
SMALL
GASTEIGER

@<TRIPOS>ATOM
      1  P         -4.8590   32.3210   22.4900 P.3     2  G2          0.1280
      2  C5'       -6.0950   30.3830   23.7070 C.3     2  G2          0.1795
      3  O5'       -5.7220   30.9720   22.4730 O.3     2  G2         -0.3259
      4  C4'       -6.7990   29.0680   23.4570 C.3     2  G2          0.1772
      5  O4'       -7.8870   29.2540   22.5070 O.3     2  G2         -0.3307
      6  C3'       -5.9540   27.9990   22.7860 C.3     2  G2          0.1860
      7  O3'       -5.0340   27.3930   23.6800 O.3     2  G2         -0.3112
      8  C2'       -7.0670   27.0710   22.3180 C.3     2  G2          0.2309
      9  O2'       -7.7580   26.4400   23.3830 O.3     2  G2         -0.2156
     10  C1'       -7.9620   28.1160   21.6590 C.3     2  G2          0.2408
     11  N1        -7.5380   26.5820   16.8240 N.ar    2  G2         -0.1709
     12  C2        -8.0870   25.9270   17.9060 C.ar    2  G2          0.2606
     13  N2        -8.5960   24.7060   17.6770 N.pl3   2  G2         -0.0859
     14  N3        -8.1420   26.4390   19.1290 N.ar    2  G2         -0.1918
     15  C4        -7.5920   27.6800   19.1860 C.ar    2  G2          0.1723
     16  C5        -7.0170   28.4130   18.1660 C.ar    2  G2          0.1748
     17  C6        -6.9720   27.8570   16.8650 C.ar    2  G2          0.3023
     18  O6        -6.5110   28.3570   15.8340 O.2     2  G2         -0.2633
     19  N7        -6.5580   29.6410   18.6320 N.ar    2  G2         -0.2173
     20  C8        -6.8640   29.6260   19.9020 C.ar    2  G2          0.1817
     21  N9        -7.5020   28.4690   20.3100 N.ar    2  G2         -0.2693
     22  OP1       -4.0960   32.4010   23.7570 O.3     2  G2         -0.1955
     23  OP2       -4.1550   32.4260   21.1870 O.co2   2  G2         -0.7863
     24  P         -3.5290   27.1480   23.1860 P.3     3  A3          0.2141
     25  C5'       -4.3710   24.6480   23.2460 C.3     3  A3          0.1812
     26  O5'       -3.5820   25.6560   22.6000 O.3     3  A3         -0.3114
     27  C4'       -4.8930   23.6130   22.2590 C.3     3  A3          0.1773
     28  O4'       -5.9400   24.1820   21.4220 O.3     3  A3         -0.3307
     29  C3'       -3.8730   23.0900   21.2570 C.3     3  A3          0.1860
     30  O3'       -3.0420   22.0890   21.8130 O.3     3  A3         -0.3112
     31  C2'       -4.7910   22.5760   20.1530 C.3     3  A3          0.2309
     32  O2'       -5.4790   21.3870   20.4970 O.3     3  A3         -0.2156
     33  C1'       -5.7560   23.7580   20.0770 C.3     3  A3          0.2408
     34  N1        -4.2980   25.4330   15.4020 N.ar    3  A3         -0.2040
     35  C2        -4.8190   24.2670   15.8120 C.ar    3  A3          0.2016
     36  N3        -5.1790   23.8960   17.0430 N.ar    3  A3         -0.2048
     37  C4        -4.9500   24.8830   17.9290 C.ar    3  A3          0.1692
     38  C5        -4.4160   26.1320   17.6570 C.ar    3  A3          0.1518
     39  C6        -4.0810   26.4060   16.3140 C.ar    3  A3          0.1919
     40  N6        -3.5680   27.5690   15.9100 N.pl3   3  A3         -0.1054
     41  N7        -4.3260   26.8900   18.8110 N.ar    3  A3         -0.2193
     42  C8        -4.8010   26.0960   19.7440 C.ar    3  A3          0.1816
     43  N9        -5.2080   24.8700   19.2870 N.ar    3  A3         -0.2693
     44  OP1       -2.6460   27.1650   24.3720 O.3     3  A3         -0.4373
     45  OP2       -3.2530   28.0760   22.0640 O.co2   3  A3         -0.5172
     46  P         -1.4930   22.0800   21.4030 P.3     4  U4          0.2141
     47  C5'       -2.0260   20.2390   19.5760 C.3     4  U4          0.1812
     48  O5'       -1.5300   21.5470   19.8920 O.3     4  U4         -0.3114
     49  C4'       -1.9940   19.9960   18.0770 C.3     4  U4          0.1773
     50  O4'       -2.7740   21.0200   17.4020 O.3     4  U4         -0.3307
     51  C3'       -0.6120   20.0950   17.4420 C.3     4  U4          0.1860
     52  O3'        0.0960   18.8760   17.5390 O.3     4  U4         -0.3112
     53  C2'       -0.9440   20.4380   15.9960 C.3     4  U4          0.2309
     54  O2'       -1.2590   19.3040   15.2110 O.3     4  U4         -0.2156
     55  C1'       -2.1570   21.3560   16.1660 C.3     4  U4          0.2420
     56  N1        -1.7720   22.8210   16.1400 N.ar    4  U4         -0.2534
     57  C2        -1.6460   23.4590   14.9140 C.ar    4  U4          0.3546
     58  O2        -1.8570   22.9020   13.8440 O.2     4  U4         -0.2443
     59  N3        -1.2750   24.7860   14.9850 N.ar    4  U4         -0.1530
     60  C4        -1.0120   25.5210   16.1330 C.ar    4  U4          0.2846
     61  O4        -0.6940   26.7020   16.0400 O.2     4  U4         -0.2650
     62  C5        -1.1500   24.7910   17.3700 C.ar    4  U4          0.0814
     63  C6        -1.5120   23.4990   17.3270 C.ar    4  U4          0.0870
     64  OP1       -0.7850   21.0850   22.2400 O.3     4  U4         -0.4373
     65  OP2       -1.0170   23.4830   21.3820 O.co2   4  U4         -0.5172
     66  P          1.6890   18.9140   17.6520 P.3     5  C5          0.2141
     67  C5'        3.1410   19.2090   15.4630 C.3     5  C5          0.1812
     68  O5'        2.1330   19.7150   16.3360 O.3     5  C5         -0.3114
     69  C4'        2.7680   19.4560   14.0070 C.3     5  C5          0.1773
     70  O4'        1.5670   20.2710   13.9150 O.3     5  C5         -0.3307
     71  C3'        3.8230   20.2130   13.2210 C.3     5  C5          0.1860
     72  O3'        4.6930   19.2850   12.6320 O.3     5  C5         -0.3112
     73  C2'        3.0020   20.9460   12.1670 C.3     5  C5          0.2309
     74  O2'        2.6900   20.1420   11.0450 O.3     5  C5         -0.2156
     75  C1'        1.7400   21.2960   12.9510 C.3     5  C5          0.2420
     76  N1         1.8460   22.6200   13.6490 N.ar    5  C5         -0.2535
     77  C2         1.9790   23.8000   12.8940 C.ar    5  C5          0.3532
     78  O2         1.9970   23.7350   11.6560 O.2     5  C5         -0.2443
     79  N3         2.0890   24.9890   13.5460 N.ar    5  C5         -0.1739
     80  C4         2.0730   25.0250   14.8840 C.ar    5  C5          0.1759
     81  N4         2.1810   26.2170   15.4820 N.pl3   5  C5         -0.1070
     82  C5         1.9370   23.8370   15.6690 C.ar    5  C5          0.0566
     83  C6         1.8310   22.6730   15.0170 C.ar    5  C5          0.0850
     84  OP1        2.1780   17.5190   17.5760 O.2     5  C5         -0.5172
     85  OP2        2.0350   19.7660   18.8140 O.co2   5  C5         -0.4373
     86  P          6.2390   19.6390   12.4830 P.3     6  U6          0.2141
     87  C5'        5.8310   20.1360    9.9350 C.3     6  U6          0.1812
     88  O5'        6.2530   20.6110   11.2140 O.3     6  U6         -0.3114
     89  C4'        5.9280   21.2460    8.9050 C.3     6  U6          0.1773
     90  O4'        4.9410   22.2620    9.2110 O.3     6  U6         -0.3307
     91  C3'        7.2520   21.9960    8.9010 C.3     6  U6          0.1860
     92  O3'        8.2020   21.3260    8.0910 O.3     6  U6         -0.3112
     93  C2'        6.8590   23.3510    8.3160 C.3     6  U6          0.2309
     94  O2'        6.7810   23.3480    6.9000 O.3     6  U6         -0.2156
     95  C1'        5.4630   23.5460    8.8980 C.3     6  U6          0.2420
     96  N1         5.4100   24.4220   10.1160 N.ar    6  U6         -0.2534
     97  C2         5.5300   25.7980    9.9620 C.ar    6  U6          0.3546
     98  O2         5.7070   26.3500    8.8790 O.2     6  U6         -0.2443
     99  N3         5.4410   26.5130   11.1350 N.ar    6  U6         -0.1530
    100  C4         5.2560   26.0070   12.4190 C.ar    6  U6          0.2846
    101  O4         5.2050   26.7790   13.3750 O.2     6  U6         -0.2650
    102  C5         5.1430   24.5670   12.4990 C.ar    6  U6          0.0814
    103  C6         5.2140   23.8480   11.3690 C.ar    6  U6          0.0870
    104  OP1        6.9550   18.3900   12.1410 O.2     6  U6         -0.5172
    105  OP2        6.6530   20.4200   13.6700 O.co2   6  U6         -0.4373
    106  P          9.7630   21.4510    8.4360 P.3     7  U7          0.2141
    107  C5'        9.5770   22.8270    6.1490 C.3     7  U7          0.1812
    108  O5'       10.3980   22.0980    7.1050 O.3     7  U7         -0.3114
    109  C4'       10.1240   24.2340    5.9080 C.3     7  U7          0.1773
    110  O4'        9.3120   25.2090    6.6450 O.3     7  U7         -0.3307
    111  C3'       11.5630   24.4090    6.3960 C.3     7  U7          0.1860
    112  O3'       12.3480   25.2540    5.5490 O.3     7  U7         -0.3112
    113  C2'       11.3310   25.0210    7.7690 C.3     7  U7          0.2309
    114  O2'       12.4480   25.7190    8.2730 O.3     7  U7         -0.2156
    115  C1'       10.1600   25.9580    7.4910 C.3     7  U7          0.2420
    116  N1         9.4880   26.3630    8.7700 N.ar    7  U7         -0.2534
    117  C2         8.8560   27.5940    8.8870 C.ar    7  U7          0.3546
    118  O2         8.7430   28.3850    7.9690 O.2     7  U7         -0.2443
    119  N3         8.3370   27.8590   10.1360 N.ar    7  U7         -0.1530
    120  C4         8.4030   27.0470   11.2560 C.ar    7  U7          0.2846
    121  O4         7.9000   27.4120   12.3080 O.2     7  U7         -0.2650
    122  C5         9.0830   25.7960   11.0640 C.ar    7  U7          0.0814
    123  C6         9.5950   25.5180    9.8610 C.ar    7  U7          0.0870
    124  OP1       10.2840   20.0760    8.6080 O.2     7  U7         -0.5172
    125  OP2        9.9320   22.4300    9.5330 O.co2   7  U7         -0.4373
    126  P         13.8940   25.5320    5.9480 P.3     8  C8          0.2141
    127  C5'       13.8210   28.1010    5.3980 C.3     8  C8          0.1812
    128  O5'       13.8980   27.0760    6.3910 O.3     8  C8         -0.3114
    129  C4'       13.5070   29.4600    5.9990 C.3     8  C8          0.1773
    130  O4'       12.3120   29.4080    6.8270 O.3     8  C8         -0.3307
    131  C3'       14.5620   30.0040    6.9390 C.3     8  C8          0.1860
    132  O3'       15.6720   30.5260    6.2240 O.3     8  C8         -0.3112
    133  C2'       13.7700   31.0830    7.6680 C.3     8  C8          0.2309
    134  O2'       13.6610   32.2900    6.9410 O.3     8  C8         -0.2156
    135  C1'       12.4010   30.4120    7.8320 C.3     8  C8          0.2420
    136  N1        12.2570   29.8010    9.2000 N.ar    8  C8         -0.2535
    137  C2        11.9860   30.6240   10.3040 C.ar    8  C8          0.3532
    138  O2        11.8320   31.8360   10.1320 O.2     8  C8         -0.2443
    139  N3        11.8890   30.0650   11.5380 N.ar    8  C8         -0.1739
    140  C4        12.0690   28.7490   11.6920 C.ar    8  C8          0.1759
    141  N4        11.9680   28.2380   12.9230 N.pl3   8  C8         -0.1070
    142  C5        12.3640   27.8970   10.5870 C.ar    8  C8          0.0566
    143  C6        12.4540   28.4610    9.3760 C.ar    8  C8          0.0850
    144  OP1       14.7320   25.3870    4.7360 O.2     8  C8         -0.5172
    145  OP2       14.2050   24.7180    7.1470 O.co2   8  C8         -0.4373
    146  P         17.1350   30.3380    6.8480 P.3     9  G9          0.2141
    147  C5'       16.8330   32.7100    7.9290 C.3     9  G9          0.1812
    148  O5'       17.0960   31.3240    8.1010 O.3     9  G9         -0.3114
    149  C4'       16.6440   33.3320    9.2910 C.3     9  G9          0.1773
    150  O4'       15.4080   32.8290    9.8640 O.3     9  G9         -0.3307
    151  C3'       17.7070   32.9300   10.3010 C.3     9  G9          0.1860
    152  O3'       18.8400   33.7640   10.1820 O.3     9  G9         -0.3112
    153  C2'       16.9670   33.1860   11.5980 C.3     9  G9          0.2309
    154  O2'       16.8690   34.5630   11.8850 O.3     9  G9         -0.2156
    155  C1'       15.5840   32.6390   11.2570 C.3     9  G9          0.2408
    156  N1        14.4020   29.3080   14.9210 N.ar    9  G9         -0.1709
    157  C2        14.3550   30.6850   14.9430 C.ar    9  G9          0.2606
    158  N2        13.9460   31.2570   16.0880 N.pl3   9  G9         -0.0859
    159  N3        14.6840   31.4500   13.9090 N.ar    9  G9         -0.1918
    160  C4        15.0800   30.7200   12.8320 C.ar    9  G9          0.1723
    161  C5        15.1640   29.3510   12.7110 C.ar    9  G9          0.1748
    162  C6        14.8070   28.5430   13.8220 C.ar    9  G9          0.3023
    163  O6        14.8190   27.3050   13.9030 O.2     9  G9         -0.2633
    164  N7        15.6110   28.9930   11.4410 N.ar    9  G9         -0.2173
    165  C8        15.7900   30.1330   10.8310 C.ar    9  G9          0.1817
    166  N9        15.4730   31.2240   11.6100 N.ar    9  G9         -0.2693
    167  OP1       18.1340   30.8280    5.8740 O.2     9  G9         -0.5172
    168  OP2       17.2540   28.9650    7.3820 O.co2   9  G9         -0.4373
    169  P         20.3250   33.1510   10.1360 P.3    10  G10         0.2141
    170  C5'       20.9840   35.6550    9.8800 C.3    10  G10         0.1812
    171  O5'       21.1950   34.4180   10.5400 O.3    10  G10        -0.3114
    172  C4'       22.3170   36.3440    9.6870 C.3    10  G10         0.1773
    173  O4'       22.6030   37.1490   10.8580 O.3    10  G10        -0.3307
    174  C3'       23.4950   35.3920    9.5650 C.3    10  G10         0.1860
    175  O3'       24.4730   35.9720    8.7280 O.3    10  G10        -0.3112
    176  C2'       23.9760   35.2800   11.0120 C.3    10  G10         0.2309
    177  O2'       25.3230   34.8740   11.1240 O.3    10  G10        -0.2156
    178  C1'       23.8270   36.7300   11.4230 C.3    10  G10         0.2408
    179  N1        24.2900   40.2410   15.0600 N.ar   10  G10        -0.1709
    180  C2        24.3930   40.3730   13.6980 C.ar   10  G10         0.2606
    181  N2        24.6620   41.5990   13.2440 N.pl3  10  G10        -0.0859
    182  N3        24.2520   39.3730   12.8410 N.ar   10  G10        -0.1918
    183  C4        23.9950   38.1950   13.4720 C.ar   10  G10         0.1723
    184  C5        23.8750   37.9580   14.8240 C.ar   10  G10         0.1748
    185  C6        24.0280   39.0500   15.7280 C.ar   10  G10         0.3023
    186  O6        23.9610   39.0560   16.9650 O.2    10  G10        -0.2633
    187  N7        23.5950   36.6110   15.0530 N.ar   10  G10        -0.2173
    188  C8        23.5630   36.0720   13.8650 C.ar   10  G10         0.1817
    189  N9        23.7950   36.9750   12.8590 N.ar   10  G10        -0.2693
    190  OP1       20.6280   32.7810    8.7340 O.2    10  G10        -0.5172
    191  OP2       20.4770   32.1590   11.2220 O.co2  10  G10        -0.4373
    192  P         25.4570   35.0300    7.8870 P.3    11  G11         0.2141
    193  C5'       25.8680   37.0550    6.2900 C.3    11  G11         0.1812
    194  O5'       26.4210   36.0980    7.1950 O.3    11  G11        -0.3114
    195  C4'       26.4520   38.4150    6.5860 C.3    11  G11         0.1773
    196  O4'       26.0520   38.7990    7.9130 O.3    11  G11        -0.3307
    197  C3'       27.9610   38.4320    6.6510 C.3    11  G11         0.1860
    198  O3'       28.4660   38.6570    5.3730 O.3    11  G11        -0.3112
    199  C2'       28.2420   39.6250    7.5350 C.3    11  G11         0.2309
    200  O2'       28.1490   40.8100    6.7750 O.3    11  G11        -0.2156
    201  C1'       27.0740   39.5730    8.5080 C.3    11  G11         0.2408
    202  N1        27.6130   40.7620   13.4220 N.ar   11  G11        -0.1709
    203  C2        27.4650   41.5900   12.3370 C.ar   11  G11         0.2606
    204  N2        27.4310   42.9030   12.5910 N.pl3  11  G11        -0.0859
    205  N3        27.3450   41.1580   11.0920 N.ar   11  G11        -0.1918
    206  C4        27.3840   39.8010   11.0150 C.ar   11  G11         0.1723
    207  C5        27.5240   38.8910   12.0400 C.ar   11  G11         0.1748
    208  C6        27.6470   39.3720   13.3660 C.ar   11  G11         0.3023
    209  O6        27.7770   38.7270   14.4120 O.2    11  G11        -0.2633
    210  N7        27.5220   37.5950   11.5460 N.ar   11  G11        -0.2173
    211  C8        27.3750   37.7400   10.2560 C.ar   11  G11         0.1817
    212  N9        27.3080   39.0530    9.8580 N.ar   11  G11        -0.2693
    213  OP1       24.6420   34.3900    6.8270 O.2    11  G11        -0.5172
    214  OP2       26.2600   34.2020    8.8200 O.co2  11  G11        -0.4373
    215  P         29.6420   37.7050    4.8770 P.3    12  G12         0.2141
    216  C5'       30.7660   40.0800    4.6580 C.3    12  G12         0.1812
    217  O5'       30.9180   38.6720    4.8220 O.3    12  G12        -0.3114
    218  C4'       31.7120   40.8220    5.5820 C.3    12  G12         0.1773
    219  O4'       31.1580   40.8350    6.9160 O.3    12  G12        -0.3307
    220  C3'       33.0840   40.1990    5.7740 C.3    12  G12         0.1860
    221  O3'       33.9510   40.5640    4.6990 O.3    12  G12        -0.3112
    222  C2'       33.5180   40.8260    7.0990 C.3    12  G12         0.2309
    223  O2'       34.0120   42.1400    6.9310 O.3    12  G12        -0.2156
    224  C1'       32.2050   40.8930    7.8710 C.3    12  G12         0.2408
    225  N1        30.8440   39.6640   12.6610 N.ar   12  G12        -0.1709
    226  C2        30.9350   40.9090   12.0880 C.ar   12  G12         0.2606
    227  N2        30.6220   41.9370   12.8880 N.pl3  12  G12        -0.0859
    228  N3        31.3130   41.1240   10.8240 N.ar   12  G12        -0.1918
    229  C4        31.5890   39.9590   10.1650 C.ar   12  G12         0.1723
    230  C5        31.5160   38.6730   10.6590 C.ar   12  G12         0.1748
    231  C6        31.1210   38.4690   12.0030 C.ar   12  G12         0.3023
    232  O6        31.0110   37.4020   12.6120 O.2    12  G12        -0.2633
    233  N7        31.8650   37.7510    9.6850 N.ar   12  G12        -0.2173
    234  C8        32.1320   38.4770    8.6370 C.ar   12  G12         0.1817
    235  N9        32.0010   39.8250    8.8490 N.ar   12  G12        -0.2693
    236  OP1       29.2940   37.2770    3.5080 O.2    12  G12        -0.5172
    237  OP2       29.8910   36.6850    5.9250 O.co2  12  G12        -0.4373
    238  P         35.3650   39.8260    4.4780 P.3    13  C13         0.2141
    239  C5'       37.7230   40.2190    5.2070 C.3    13  C13         0.1812
    240  O5'       36.4520   40.7950    5.0800 O.3    13  C13        -0.3114
    241  C4'       38.7390   41.2440    5.6140 C.3    13  C13         0.1773
    242  O4'       38.5940   41.5180    7.0130 O.3    13  C13        -0.3307
    243  C3'       40.1500   40.7360    5.5140 C.3    13  C13         0.1860
    244  O3'       40.5610   40.8690    4.1670 O.3    13  C13        -0.3112
    245  C2'       40.8930   41.6680    6.4790 C.3    13  C13         0.2309
    246  O2'       41.4540   42.8060    5.8480 O.3    13  C13        -0.2156
    247  C1'       39.7930   42.1260    7.4330 C.3    13  C13         0.2420
    248  N1        40.0220   41.8320    8.8830 N.ar   13  C13        -0.2535
    249  C2        40.7620   42.7410    9.6480 C.ar   13  C13         0.3532
    250  O2        41.2320   43.7500    9.1020 O.2    13  C13        -0.2443
    251  N3        40.9510   42.4870   10.9680 N.ar   13  C13        -0.1739
    252  C4        40.4240   41.3960   11.5230 C.ar   13  C13         0.1759
    253  N4        40.6380   41.2010   12.8290 N.pl3  13  C13        -0.1070
    254  C5        39.6490   40.4660   10.7640 C.ar   13  C13         0.0566
    255  C6        39.4730   40.7200    9.4610 C.ar   13  C13         0.0850
    256  OP1       35.6410   39.7670    3.0330 O.2    13  C13        -0.5172
    257  OP2       35.4030   38.6000    5.3120 O.co2  13  C13        -0.4373
    258  P         41.7180   39.9330    3.5970 P.3    14  A14         0.2141
    259  C5'       40.5200   40.3730    1.3040 C.3    14  A14         0.1812
    260  O5'       41.7270   40.2450    2.0290 O.3    14  A14        -0.3114
    261  C4'       40.6250   41.4670    0.2520 C.3    14  A14         0.1773
    262  O4'       39.9880   42.6670    0.7400 O.3    14  A14        -0.3307
    263  C3'       42.0180   41.9470   -0.1180 C.3    14  A14         0.1860
    264  O3'       42.6110   41.0820   -1.0440 O.3    14  A14        -0.3112
    265  C2'       41.6810   43.2660   -0.7850 C.3    14  A14         0.2309
    266  O2'       41.1720   43.0820   -2.0910 O.3    14  A14        -0.2156
    267  C1'       40.6010   43.7930    0.1480 C.3    14  A14         0.2408
    268  N1        42.4810   48.4000    1.4410 N.ar   14  A14        -0.2040
    269  C2        41.9940   47.9240    0.2880 C.ar   14  A14         0.2016
    270  N3        41.5160   46.7090    0.0200 N.ar   14  A14        -0.2048
    271  C4        41.5670   45.9230    1.1080 C.ar   14  A14         0.1692
    272  C5        42.0320   46.2690    2.3600 C.ar   14  A14         0.1518
    273  C6        42.5170   47.5860    2.5170 C.ar   14  A14         0.1919
    274  N6        43.0090   48.0630    3.6660 N.pl3  14  A14        -0.1054
    275  N7        41.9210   45.1980    3.2330 N.ar   14  A14        -0.2193
    276  C8        41.4060   44.2410    2.5000 C.ar   14  A14         0.1816
    277  N9        41.1610   44.6140    1.2100 N.ar   14  A14        -0.2693
    278  OP1       41.2990   38.5350    3.8130 O.2    14  A14        -0.5172
    279  OP2       43.0160   40.4240    4.1480 O.co2  14  A14        -0.4373
    280  P         44.2030   41.0160   -1.1410 P.3    15  G15         0.2141
    281  C5'       45.5260   43.0570   -2.0760 C.3    15  G15         0.1812
    282  O5'       44.6860   42.5350   -1.0620 O.3    15  G15        -0.3114
    283  C4'       45.8550   44.5070   -1.8030 C.3    15  G15         0.1773
    284  O4'       44.8160   45.1430   -1.0110 O.3    15  G15        -0.3307
    285  C3'       47.0900   44.6940   -0.9660 C.3    15  G15         0.1860
    286  O3'       48.2010   44.5710   -1.7820 O.3    15  G15        -0.3112
    287  C2'       46.8970   46.1150   -0.4750 C.3    15  G15         0.2309
    288  O2'       47.1520   47.0740   -1.4850 O.3    15  G15        -0.2156
    289  C1'       45.4140   46.0540   -0.1020 C.3    15  G15         0.2408
    290  N1        46.0010   46.9480    4.8850 N.ar   15  G15        -0.1709
    291  C2        46.3270   47.7410    3.8110 C.ar   15  G15         0.2606
    292  N2        46.8880   48.9200    4.0930 N.pl3  15  G15        -0.0859
    293  N3        46.1260   47.4000    2.5450 N.ar   15  G15        -0.1918
    294  C4        45.5490   46.1780    2.4320 C.ar   15  G15         0.1723
    295  C5        45.1850   45.3120    3.4380 C.ar   15  G15         0.1748
    296  C6        45.4060   45.6910    4.7860 C.ar   15  G15         0.3023
    297  O6        45.1400   45.0510    5.8130 O.2    15  G15        -0.2633
    298  N7        44.6350   44.1500    2.9170 N.ar   15  G15        -0.2173
    299  C8        44.6720   44.3380    1.6260 C.ar   15  G15         0.1817
    300  N9        45.2040   45.5520    1.2570 N.ar   15  G15        -0.2693
    301  OP1       44.5460   40.4820   -2.4770 O.2    15  G15        -0.5172
    302  OP2       44.6920   40.3640    0.0910 O.co2  15  G15        -0.4373
    303  P         49.2490   43.4250   -1.4440 P.3    16  G16         0.2141
    304  C5'       50.6360   45.2700   -0.1850 C.3    16  G16         0.1812
    305  O5'       49.9580   44.0170   -0.1300 O.3    16  G16        -0.3114
    306  C4'       50.6200   46.0410    1.1330 C.3    16  G16         0.1773
    307  O4'       49.3380   46.0150    1.8130 O.3    16  G16        -0.3307
    308  C3'       51.5440   45.5950    2.2530 C.3    16  G16         0.1860
    309  O3'       52.9180   45.7510    1.9250 O.3    16  G16        -0.3112
    310  C2'       51.0830   46.6120    3.2930 C.3    16  G16         0.2309
    311  O2'       51.5300   47.9300    3.0360 O.3    16  G16        -0.2156
    312  C1'       49.5670   46.5280    3.1230 C.3    16  G16         0.2408
    313  N1        48.8670   45.8100    8.0950 N.ar   16  G16        -0.1709
    314  C2        49.4570   46.8620    7.4450 C.ar   16  G16         0.2606
    315  N2        49.9190   47.8550    8.2190 N.pl3  16  G16        -0.0859
    316  N3        49.5730   46.9400    6.1260 N.ar   16  G16        -0.1918
    317  C4        49.0470   45.8570    5.5000 C.ar   16  G16         0.1723
    318  C5        48.4430   44.7630    6.0620 C.ar   16  G16         0.1748
    319  C6        48.3230   44.6960    7.4680 C.ar   16  G16         0.3023
    320  O6        47.8250   43.7970    8.1500 O.2    16  G16        -0.2633
    321  N7        48.0410   43.8630    5.0820 N.ar   16  G16        -0.2173
    322  C8        48.4050   44.4280    3.9630 C.ar   16  G16         0.1817
    323  N9        49.0070   45.6470    4.1410 N.ar   16  G16        -0.2693
    324  OP1       50.1760   43.3610   -2.5890 O.2    16  G16        -0.5172
    325  OP2       48.5140   42.2060   -1.0370 O.co2  16  G16        -0.4373
    326  P         54.0420   44.9970    2.7860 P.3    17  G17         0.2141
    327  C5'       54.4200   47.1550    4.2660 C.3    17  G17         0.1812
    328  O5'       54.0510   45.7760    4.1890 O.3    17  G17        -0.3114
    329  C4'       54.7710   47.5420    5.6920 C.3    17  G17         0.1773
    330  O4'       53.5620   47.7020    6.4780 O.3    17  G17        -0.3307
    331  C3'       55.6090   46.5170    6.4410 C.3    17  G17         0.1860
    332  O3'       56.9870   46.7870    6.2310 O.3    17  G17        -0.3112
    333  C2'       55.2050   46.7600    7.8930 C.3    17  G17         0.2309
    334  O2'       55.9520   47.7830    8.5180 O.3    17  G17        -0.2156
    335  C1'       53.7430   47.1620    7.7760 C.3    17  G17         0.2408
    336  N1        51.4350   44.1270   11.1720 N.ar   17  G17        -0.1709
    337  C2        52.2460   45.2130   11.3850 C.ar   17  G17         0.2606
    338  N2        52.4650   45.5320   12.6630 N.pl3  17  G17        -0.0859
    339  N3        52.7980   45.9340   10.4150 N.ar   17  G17        -0.1918
    340  C4        52.4590   45.4780    9.1840 C.ar   17  G17         0.1723
    341  C5        51.6600   44.4010    8.8710 C.ar   17  G17         0.1748
    342  C6        51.0880   43.6420    9.9190 C.ar   17  G17         0.3023
    343  O6        50.3480   42.6600    9.8340 O.2    17  G17        -0.2633
    344  N7        51.5550   44.2470    7.4970 N.ar   17  G17        -0.2173
    345  C8        52.2850   45.2160    7.0140 C.ar   17  G17         0.1817
    346  N9        52.8580   46.0120    7.9770 N.ar   17  G17        -0.2693
    347  OP1       55.3310   45.2200    2.0990 O.2    17  G17        -0.5172
    348  OP2       53.5960   43.6120    3.0410 O.co2  17  G17        -0.4373
    349  P         58.1060   45.6680    6.4840 P.3    18  U18         0.2141
    350  C5'       58.6510   46.0360    9.0350 C.3    18  U18         0.1812
    351  O5'       57.9520   45.3010    8.0330 O.3    18  U18        -0.3114
    352  C4'       58.2160   45.5860   10.4190 C.3    18  U18         0.1773
    353  O4'       56.7640   45.5420   10.5120 O.3    18  U18        -0.3307
    354  C3'       58.6120   44.1660   10.7710 C.3    18  U18         0.1860
    355  O3'       59.9760   44.0690   11.1180 O.3    18  U18        -0.3112
    356  C2'       57.6680   43.8580   11.9270 C.3    18  U18         0.2309
    357  O2'       58.0820   44.3890   13.1680 O.3    18  U18        -0.2156
    358  C1'       56.3890   44.5450   11.4570 C.3    18  U18         0.2420
    359  N1        55.4500   43.5550   10.8490 N.ar   18  U18        -0.2534
    360  C2        54.8010   42.6610   11.6820 C.ar   18  U18         0.3546
    361  O2        54.9350   42.6630   12.8930 O.2    18  U18        -0.2443
    362  N3        53.9760   41.7630   11.0480 N.ar   18  U18        -0.1530
    363  C4        53.7470   41.6690    9.6910 C.ar   18  U18         0.2846
    364  O4        52.9720   40.8220    9.2670 O.2    18  U18        -0.2650
    365  C5        54.4660   42.6210    8.8830 C.ar   18  U18         0.0814
    366  C6        55.2760   43.5070    9.4790 C.ar   18  U18         0.0870
    367  OP1       59.4220   46.3240    6.2760 O.3    18  U18        -0.4373
    368  OP2       57.7430   44.4550    5.7110 O.co2  18  U18        -0.5172
    369  P         60.8570   42.9840   10.3390 P.3    19  G19         0.2141
    370  C5'       60.7780   41.6870   12.5980 C.3    19  G19         0.1812
    371  O5'       60.6590   41.6500   11.1890 O.3    19  G19        -0.3114
    372  C4'       59.9410   40.5860   13.1980 C.3    19  G19         0.1773
    373  O4'       58.5410   40.8640   12.9360 O.3    19  G19        -0.3307
    374  C3'       60.1650   39.2240   12.5640 C.3    19  G19         0.1860
    375  O3'       61.3290   38.6040   13.0900 O.3    19  G19        -0.3112
    376  C2'       58.8890   38.5220   12.9950 C.3    19  G19         0.2309
    377  O2'       58.9230   38.1260   14.3510 O.3    19  G19        -0.2156
    378  C1'       57.8590   39.6370   12.7700 C.3    19  G19         0.2408
    379  N1        54.0640   37.7310   10.0190 N.ar   19  G19        -0.1709
    380  C2        54.3030   37.6310   11.3690 C.ar   19  G19         0.2606
    381  N2        53.4200   36.9250   12.0910 N.pl3  19  G19        -0.0859
    382  N3        55.3410   38.1890   11.9690 N.ar   19  G19        -0.1918
    383  C4        56.1270   38.8660   11.1010 C.ar   19  G19         0.1723
    384  C5        55.9750   39.0230    9.7430 C.ar   19  G19         0.1748
    385  C6        54.8670   38.4200    9.1100 C.ar   19  G19         0.3023
    386  O6        54.5500   38.4560    7.9120 O.2    19  G19        -0.2633
    387  N7        57.0040   39.7890    9.2140 N.ar   19  G19        -0.2173
    388  C8        57.7480   40.0760   10.2510 C.ar   19  G19         0.1817
    389  N9        57.2650   39.5590   11.4340 N.ar   19  G19        -0.2693
    390  OP1       62.2870   43.3800   10.4150 O.3    19  G19        -0.4373
    391  OP2       60.2130   42.7680    9.0270 O.co2  19  G19        -0.5172
    392  P         62.2970   37.7350   12.1420 P.3    20  A20         0.2141
    393  C5'       61.7750   35.4510   10.8860 C.3    20  A20         0.1812
    394  O5'       61.4450   36.3880   11.9180 O.3    20  A20        -0.3114
    395  C4'       61.0850   34.1160   11.1190 C.3    20  A20         0.1773
    396  O4'       61.5330   33.5630   12.3790 O.3    20  A20        -0.3307
    397  C3'       59.5720   34.1950   11.2620 C.3    20  A20         0.1860
    398  O3'       58.9370   34.1350    9.9950 O.3    20  A20        -0.3112
    399  C2'       59.2450   32.9930   12.1410 C.3    20  A20         0.2309
    400  O2'       59.1470   31.7790   11.4190 O.3    20  A20        -0.2156
    401  C1'       60.4500   32.9720   13.0730 C.3    20  A20         0.2408
    402  N1        58.2700   32.9950   17.7630 N.ar   20  A20        -0.2040
    403  C2        58.2650   32.0790   16.7820 C.ar   20  A20         0.2016
    404  N3        58.8420   32.1330   15.5780 N.ar   20  A20        -0.2048
    405  C4        59.5020   33.2980   15.4160 C.ar   20  A20         0.1692
    406  C5        59.5940   34.3330   16.3330 C.ar   20  A20         0.1518
    407  C6        58.9370   34.1530   17.5680 C.ar   20  A20         0.1919
    408  N6        58.9470   35.0630   18.5430 N.pl3  20  A20        -0.1054
    409  N7        60.3620   35.3680   15.8280 N.ar   20  A20        -0.2193
    410  C8        60.7150   34.9510   14.6340 C.ar   20  A20         0.1816
    411  N9        60.2350   33.7080   14.3180 N.ar   20  A20        -0.2693
    412  OP1       63.5290   37.4160   12.9070 O.3    20  A20        -0.4373
    413  OP2       62.4170   38.4380   10.8460 O.co2  20  A20        -0.5172
    414  P         57.8780   35.2660    9.6270 P.3    21  A21         0.2141
    415  C5'       56.1580   33.3220   10.0620 C.3    21  A21         0.1812
    416  O5'       56.5200   34.6930   10.2420 O.3    21  A21        -0.3114
    417  C4'       55.3310   32.8000   11.2290 C.3    21  A21         0.1773
    418  O4'       56.1400   32.7500   12.4290 O.3    21  A21        -0.3307
    419  C3'       54.1210   33.6430   11.6070 C.3    21  A21         0.1860
    420  O3'       52.9960   33.2280   10.8560 O.3    21  A21        -0.3112
    421  C2'       53.9310   33.3070   13.0790 C.3    21  A21         0.2309
    422  O2'       53.1600   32.1420   13.2710 O.3    21  A21        -0.2156
    423  C1'       55.3530   33.0640   13.5650 C.3    21  A21         0.2408
    424  N1        55.9100   35.4740   18.0960 N.ar   21  A21        -0.2040
    425  C2        55.3140   34.3220   17.7630 C.ar   21  A21         0.2016
    426  N3        55.2120   33.7540   16.5600 N.ar   21  A21        -0.2048
    427  C4        55.8070   34.5030   15.6130 C.ar   21  A21         0.1692
    428  C5        56.4670   35.7060   15.8020 C.ar   21  A21         0.1518
    429  C6        56.5060   36.2060   17.1250 C.ar   21  A21         0.1919
    430  N6        57.1060   37.3520   17.4630 N.pl3  21  A21        -0.1054
    431  N7        56.9700   36.1850   14.6000 N.ar   21  A21        -0.2193
    432  C8        56.6050   35.2790   13.7210 C.ar   21  A21         0.1816
    433  N9        55.9060   34.2290   14.2640 N.ar   21  A21        -0.2693
    434  OP1       57.7650   35.3250    8.1560 O.2    21  A21        -0.5172
    435  OP2       58.2550   36.4800   10.3850 O.co2  21  A21        -0.4373
    436  P         52.0700   34.2930   10.1110 P.3    22  A22         0.2141
    437  C5'       50.4970   34.6180   12.1820 C.3    22  A22         0.1812
    438  O5'       51.4660   35.1820   11.2990 O.3    22  A22        -0.3114
    439  C4'       49.6000   35.6780   12.7970 C.3    22  A22         0.1773
    440  O4'       50.3900   36.6420   13.5180 O.3    22  A22        -0.3307
    441  C3'       48.7760   36.4860   11.8090 C.3    22  A22         0.1860
    442  O3'       47.4730   35.9220   11.7230 O.3    22  A22        -0.3112
    443  C2'       48.7030   37.8890   12.4140 C.3    22  A22         0.2309
    444  O2'       47.3980   38.1860   12.8690 O.3    22  A22        -0.2156
    445  C1'       49.6550   37.8450   13.6020 C.3    22  A22         0.2408
    446  N1        52.0550   41.1910   16.6590 N.ar   22  A22        -0.2040
    447  C2        51.1240   40.2520   16.8970 C.ar   22  A22         0.2016
    448  N3        50.5370   39.4120   16.0430 N.ar   22  A22        -0.2048
    449  C4        51.0020   39.6110   14.7950 C.ar   22  A22         0.1692
    450  C5        51.9510   40.5370   14.3890 C.ar   22  A22         0.1518
    451  C6        52.4970   41.3660   15.3970 C.ar   22  A22         0.1919
    452  N6        53.4210   42.3030   15.1770 N.pl3  22  A22        -0.1054
    453  N7        52.1690   40.4470   13.0220 N.ar   22  A22        -0.2193
    454  C8        51.3600   39.4840   12.6400 C.ar   22  A22         0.1816
    455  N9        50.6170   38.9440   13.6610 N.ar   22  A22        -0.2693
    456  OP1       50.9510   33.5630    9.4850 O.3    22  A22        -0.4373
    457  OP2       52.9460   35.1340    9.2730 O.co2  22  A22        -0.5172
    458  P         47.0360   35.0630   10.4460 P.3    23  U23         0.2141
    459  C5'       46.2930   37.0880    8.9750 C.3    23  U23         0.1812
    460  O5'       45.9050   35.9790    9.7720 O.3    23  U23        -0.3114
    461  C4'       45.3490   38.2740    9.1020 C.3    23  U23         0.1773
    462  O4'       44.2780   38.1790    8.1260 O.3    23  U23        -0.3307
    463  C3'       44.6570   38.4670   10.4390 C.3    23  U23         0.1860
    464  O3'       44.4120   39.8360   10.6090 O.3    23  U23        -0.3112
    465  C2'       43.3370   37.7380   10.2490 C.3    23  U23         0.2309
    466  O2'       42.3050   38.2890   11.0250 O.3    23  U23        -0.2156
    467  C1'       43.0400   37.9710    8.7770 C.3    23  U23         0.2420
    468  N1        42.3660   36.8020    8.1800 N.ar   23  U23        -0.2534
    469  C2        41.0870   36.9570    7.6860 C.ar   23  U23         0.3546
    470  O2        40.4920   38.0160    7.6900 O.2    23  U23        -0.2443
    471  N3        40.5220   35.8140    7.1790 N.ar   23  U23        -0.1530
    472  C4        41.1100   34.5560    7.1170 C.ar   23  U23         0.2846
    473  O4        40.4820   33.6250    6.6250 O.2    23  U23        -0.2650
    474  C5        42.4480   34.4710    7.6600 C.ar   23  U23         0.0814
    475  C6        43.0120   35.5770    8.1670 C.ar   23  U23         0.0870
    476  OP1       46.4000   33.8240   10.9410 O.3    23  U23        -0.4373
    477  OP2       48.2080   34.9840    9.5270 O.co2  23  U23        -0.5172
    478  P         45.2620   40.6330   11.6840 P.3    24  U24         0.2141
    479  C5'       43.5500   40.0230   13.5130 C.3    24  U24         0.1812
    480  O5'       44.8520   39.8680   13.0210 O.3    24  U24        -0.3114
    481  C4'       43.5350   39.8240   15.0080 C.3    24  U24         0.1773
    482  O4'       43.7250   38.4180   15.3050 O.3    24  U24        -0.3307
    483  C3'       44.5990   40.5940   15.7820 C.3    24  U24         0.1860
    484  O3'       43.9770   41.2230   16.8870 O.3    24  U24        -0.3112
    485  C2'       45.5650   39.4960   16.2270 C.3    24  U24         0.2309
    486  O2'       46.1990   39.7790   17.4560 O.3    24  U24        -0.2156
    487  C1'       44.6230   38.3120   16.3810 C.3    24  U24         0.2420
    488  N1        45.3040   37.0030   16.2940 N.ar   24  U24        -0.2534
    489  C2        45.4230   36.2300   17.4270 C.ar   24  U24         0.3546
    490  O2        44.9850   36.5700   18.5090 O.2    24  U24        -0.2443
    491  N3        46.0750   35.0310   17.2440 N.ar   24  U24        -0.1530
    492  C4        46.6180   34.5420   16.0650 C.ar   24  U24         0.2846
    493  O4        47.1860   33.4500   16.0510 O.2    24  U24        -0.2650
    494  C5        46.4520   35.4080   14.9260 C.ar   24  U24         0.0814
    495  C6        45.8180   36.5790   15.0830 C.ar   24  U24         0.0870
    496  OP1       44.7860   42.0420   11.7330 O.3    24  U24        -0.4373
    497  OP2       46.6830   40.3290   11.4060 O.co2  24  U24        -0.5172
    498  P         44.3480   42.7140   17.3360 P.3    25  C25         0.2141
    499  C5'       46.5040   43.0560   18.7770 C.3    25  C25         0.1812
    500  O5'       45.9360   42.6680   17.5360 O.3    25  C25        -0.3114
    501  C4'       47.7740   43.8440   18.5550 C.3    25  C25         0.1773
    502  O4'       48.7440   42.9980   17.9000 O.3    25  C25        -0.3307
    503  C3'       47.6210   45.0360   17.6300 C.3    25  C25         0.1860
    504  O3'       47.2380   46.1640   18.3860 O.3    25  C25        -0.3112
    505  C2'       49.0410   45.2090   17.1250 C.3    25  C25         0.2309
    506  O2'       49.8260   45.9060   18.0760 O.3    25  C25        -0.2156
    507  C1'       49.5010   43.7580   16.9790 C.3    25  C25         0.2420
    508  N1        49.2860   43.1740   15.6160 N.ar   25  C25        -0.2535
    509  C2        50.1050   43.5550   14.5350 C.ar   25  C25         0.3532
    510  O2        50.9960   44.4000   14.7060 O.2    25  C25        -0.2443
    511  N3        49.8840   42.9950   13.3150 N.ar   25  C25        -0.1739
    512  C4        48.9060   42.0940   13.1600 C.ar   25  C25         0.1759
    513  N4        48.7210   41.5670   11.9470 N.pl3  25  C25        -0.1070
    514  C5        48.0760   41.6850   14.2470 C.ar   25  C25         0.0566
    515  C6        48.2980   42.2440   15.4410 C.ar   25  C25         0.0850
    516  OP1       43.7070   42.9010   18.6610 O.3    25  C25        -0.4373
    517  OP2       44.0900   43.6460   16.2100 O.co2  25  C25        -0.5172
    518  P         46.6890   47.4700   17.6510 P.3    26  C26         0.2141
    519  C5'       48.6030   48.9900   16.7280 C.3    26  C26         0.1812
    520  O5'       47.8520   47.8010   16.5990 O.3    26  C26        -0.3114
    521  C4'       49.3470   49.2890   15.4460 C.3    26  C26         0.1773
    522  O4'       49.9310   48.0790   14.9070 O.3    26  C26        -0.3307
    523  C3'       48.4980   49.8000   14.2990 C.3    26  C26         0.1860
    524  O3'       48.1750   51.1570   14.4710 O.3    26  C26        -0.3112
    525  C2'       49.4590   49.5880   13.1380 C.3    26  C26         0.2309
    526  O2'       50.4740   50.5660   13.0550 O.3    26  C26        -0.2156
    527  C1'       50.0530   48.2270   13.5020 C.3    26  C26         0.2420
    528  N1        49.3120   47.1320   12.8370 N.ar   26  C26        -0.2535
    529  C2        49.5060   46.8950   11.4690 C.ar   26  C26         0.3532
    530  O2        50.3170   47.5780   10.8350 O.2    26  C26        -0.2443
    531  N3        48.7990   45.9070   10.8710 N.ar   26  C26        -0.1739
    532  C4        47.9400   45.1780   11.5790 C.ar   26  C26         0.1759
    533  N4        47.2910   44.2070   10.9420 N.pl3  26  C26        -0.1070
    534  C5        47.7180   45.4060   12.9700 C.ar   26  C26         0.0566
    535  C6        48.4140   46.3890   13.5510 C.ar   26  C26         0.0850
    536  OP1       46.6380   48.5630   18.6530 O.3    26  C26        -0.4373
    537  OP2       45.4770   47.0760   16.8970 O.co2  26  C26        -0.5172
    538  P         46.7460   51.6840   13.9880 P.3    27  C27         0.2141
    539  C5'       47.8020   52.8290   11.9090 C.3    27  C27         0.1812
    540  O5'       46.9350   51.8290   12.4080 O.3    27  C27        -0.3114
    541  C4'       47.9820   52.6880   10.4130 C.3    27  C27         0.1773
    542  O4'       48.5070   51.3750   10.1080 O.3    27  C27        -0.3307
    543  C3'       46.7090   52.7430    9.5870 C.3    27  C27         0.1860
    544  O3'       46.2670   54.0700    9.4100 O.3    27  C27        -0.3112
    545  C2'       47.2130   52.1570    8.2820 C.3    27  C27         0.2309
    546  O2'       47.9930   53.0720    7.5360 O.3    27  C27        -0.2156
    547  C1'       48.0840   51.0170    8.8000 C.3    27  C27         0.2420
    548  N1        47.3620   49.7080    8.8220 N.ar   27  C27        -0.2535
    549  C2        47.0930   49.0610    7.6060 C.ar   27  C27         0.3532
    550  O2        47.4650   49.5740    6.5480 O.2    27  C27        -0.2443
    551  N3        46.4430   47.8750    7.6190 N.ar   27  C27        -0.1739
    552  C4        46.0620   47.3440    8.7760 C.ar   27  C27         0.1759
    553  N4        45.4150   46.1820    8.7200 N.pl3  27  C27        -0.1070
    554  C5        46.3170   47.9790   10.0290 C.ar   27  C27         0.0566
    555  C6        46.9600   49.1510   10.0060 C.ar   27  C27         0.0850
    556  OP1       46.5630   53.0390   14.5590 O.3    27  C27        -0.4373
    557  OP2       45.7420   50.6250   14.2420 O.co2  27  C27        -0.5172
    558  P         44.7230   54.4190    9.6410 P.3    28  G28         0.2141
    559  C5'       44.1050   53.9730    7.1280 C.3    28  G28         0.1812
    560  O5'       43.9530   53.6040    8.4940 O.3    28  G28        -0.3114
    561  C4'       43.8450   52.7950    6.2060 C.3    28  G28         0.1773
    562  O4'       44.6320   51.6490    6.6210 O.3    28  G28        -0.3307
    563  C3'       42.4180   52.2760    6.1960 C.3    28  G28         0.1860
    564  O3'       41.6280   53.0500    5.3240 O.3    28  G28        -0.3112
    565  C2'       42.6470   50.8880    5.6290 C.3    28  G28         0.2309
    566  O2'       42.8910   50.9390    4.2380 O.3    28  G28        -0.2156
    567  C1'       43.8970   50.4640    6.3930 C.3    28  G28         0.2408
    568  N1        42.0790   46.3560    8.8050 N.ar   28  G28        -0.1709
    569  C2        42.2710   46.5640    7.4570 C.ar   28  G28         0.2606
    570  N2        41.9280   45.5620    6.6390 N.pl3  28  G28        -0.0859
    571  N3        42.7610   47.6820    6.9420 N.ar   28  G28        -0.1918
    572  C4        43.0520   48.6040    7.8980 C.ar   28  G28         0.1723
    573  C5        42.9020   48.4900    9.2650 C.ar   28  G28         0.1748
    574  C6        42.3750   47.2860    9.8010 C.ar   28  G28         0.3023
    575  O6        42.1720   46.9980   10.9860 O.2    28  G28        -0.2633
    576  N7        43.3260   49.6520    9.8990 N.ar   28  G28        -0.2173
    577  C8        43.7070   50.4330    8.9250 C.ar   28  G28         0.1817
    578  N9        43.5780   49.8610    7.6830 N.ar   28  G28        -0.2693
    579  OP1       44.5770   55.8760    9.3920 O.2    28  G28        -0.5172
    580  OP2       44.2950   53.8340   10.9350 O.co2  28  G28        -0.4373
    581  P         40.0370   52.9290    5.3700 P.3    29  A29         0.2141
    582  C5'       39.6090   50.9750    3.6830 C.3    29  A29         0.1812
    583  O5'       39.7670   51.3900    5.0330 O.3    29  A29        -0.3114
    584  C4'       39.2940   49.4940    3.6110 C.3    29  A29         0.1773
    585  O4'       40.0830   48.7710    4.5870 O.3    29  A29        -0.3307
    586  C3'       37.8720   49.1230    3.9820 C.3    29  A29         0.1860
    587  O3'       36.9770   49.3670    2.9130 O.3    29  A29        -0.3112
    588  C2'       38.0320   47.6380    4.2540 C.3    29  A29         0.2309
    589  O2'       38.0450   46.8730    3.0660 O.3    29  A29        -0.2156
    590  C1'       39.3910   47.5900    4.9500 C.3    29  A29         0.2408
    591  N1        37.7460   44.8150    8.9640 N.ar   29  A29        -0.2040
    592  C2        37.7240   44.5860    7.6500 C.ar   29  A29         0.2016
    593  N3        38.1750   45.3590    6.6610 N.ar   29  A29        -0.2048
    594  C4        38.7030   46.5020    7.1310 C.ar   29  A29         0.1692
    595  C5        38.7940   46.8810    8.4520 C.ar   29  A29         0.1518
    596  C6        38.2770   45.9750    9.4060 C.ar   29  A29         0.1919
    597  N6        38.2830   46.2010   10.7190 N.pl3  29  A29        -0.1054
    598  N7        39.4020   48.1220    8.5600 N.ar   29  A29        -0.2193
    599  C8        39.6480   48.4620    7.3170 C.ar   29  A29         0.1816
    600  N9        39.2630   47.5250    6.4030 N.ar   29  A29        -0.2693
    601  OP1       39.5160   53.7590    4.2640 O.2    29  A29        -0.5172
    602  OP2       39.5860   53.1610    6.7610 O.co2  29  A29        -0.4373
    603  P         35.4810   49.8550    3.2330 P.3    30  C30         0.2141
    604  C5'       34.6360   47.3790    3.0540 C.3    30  C30         0.1812
    605  O5'       34.7880   48.5450    3.8470 O.3    30  C30        -0.3114
    606  C4'       34.2930   46.1870    3.9200 C.3    30  C30         0.1773
    607  O4'       35.3220   45.9560    4.9110 O.3    30  C30        -0.3307
    608  C3'       33.0430   46.3450    4.7570 C.3    30  C30         0.1860
    609  O3'       31.9290   46.1180    3.9530 O.3    30  C30        -0.3112
    610  C2'       33.2400   45.2340    5.7780 C.3    30  C30         0.2309
    611  O2'       33.0030   43.9410    5.2600 O.3    30  C30        -0.2156
    612  C1'       34.7230   45.3880    6.0660 C.3    30  C30         0.2420
    613  N1        34.9910   46.2430    7.2610 N.ar   30  C30        -0.2535
    614  C2        34.7900   45.7050    8.5450 C.ar   30  C30         0.3532
    615  O2        34.3990   44.5360    8.6720 O.2    30  C30        -0.2443
    616  N3        35.0460   46.4930    9.6210 N.ar   30  C30        -0.1739
    617  C4        35.4720   47.7460    9.4520 C.ar   30  C30         0.1759
    618  N4        35.7060   48.4590   10.5480 N.pl3  30  C30        -0.1070
    619  C5        35.6700   48.3170    8.1620 C.ar   30  C30         0.0566
    620  C6        35.4170   47.5380    7.1050 C.ar   30  C30         0.0850
    621  OP1       34.8350   50.1800    1.9410 O.2    30  C30        -0.5172
    622  OP2       35.5170   50.8720    4.3100 O.co2  30  C30        -0.4373
    623  P         30.5140   46.7290    4.3640 P.3    31  C31         0.2141
    624  C5'       29.8000   44.3980    5.2880 C.3    31  C31         0.1812
    625  O5'       30.0450   45.7650    5.5460 O.3    31  C31        -0.3114
    626  C4'       29.4070   43.7180    6.5780 C.3    31  C31         0.1773
    627  O4'       30.4790   43.8170    7.5380 O.3    31  C31        -0.3307
    628  C3'       28.2320   44.3570    7.2750 C.3    31  C31         0.1860
    629  O3'       27.0460   43.8640    6.6970 O.3    31  C31        -0.3112
    630  C2'       28.4240   43.8890    8.7130 C.3    31  C31         0.2309
    631  O2'       27.9580   42.5770    8.9390 O.3    31  C31        -0.2156
    632  C1'       29.9370   43.8670    8.8470 C.3    31  C31         0.2420
    633  N1        30.5270   45.0120    9.6320 N.ar   31  C31        -0.2535
    634  C2        30.3640   45.0540   11.0270 C.ar   31  C31         0.3532
    635  O2        29.7250   44.1650   11.5990 O.2    31  C31        -0.2443
    636  N3        30.9120   46.0820   11.7230 N.ar   31  C31        -0.1739
    637  C4        31.6100   47.0200   11.0890 C.ar   31  C31         0.1759
    638  N4        32.1280   47.9890   11.8310 N.pl3  31  C31        -0.1070
    639  C5        31.7970   47.0050    9.6760 C.ar   31  C31         0.0566
    640  C6        31.2460   45.9920    8.9940 C.ar   31  C31         0.0850
    641  OP1       29.6010   46.5060    3.2190 O.2    31  C31        -0.5172
    642  OP2       30.7120   48.0950    4.9270 O.co2  31  C31        -0.4373
    643  P         25.7500   44.7970    6.6720 P.3    32  G32         0.2141
    644  C5'       25.0250   43.2090    8.6120 C.3    32  G32         0.1812
    645  O5'       25.1040   44.5250    8.1000 O.3    32  G32        -0.3114
    646  C4'       24.6520   43.2730   10.0770 C.3    32  G32         0.1773
    647  O4'       25.6780   43.9470   10.8570 O.3    32  G32        -0.3307
    648  C3'       23.3820   44.0470   10.3570 C.3    32  G32         0.1860
    649  O3'       22.7990   43.4670   11.4830 O.3    32  G32        -0.3112
    650  C2'       23.9060   45.4470   10.6490 C.3    32  G32         0.2309
    651  O2'       23.0020   46.1950   11.4180 O.3    32  G32        -0.2156
    652  C1'       25.1470   45.1180   11.4600 C.3    32  G32         0.2408
    653  N1        28.6790   47.7810   14.0510 N.ar   32  G32        -0.1709
    654  C2        27.8050   46.8250   14.5160 C.ar   32  G32         0.2606
    655  N2        27.8830   46.5350   15.8200 N.pl3  32  G32        -0.0859
    656  N3        26.9170   46.1900   13.7570 N.ar   32  G32        -0.1918
    657  C4        26.9760   46.5980   12.4640 C.ar   32  G32         0.1723
    658  C5        27.8120   47.5460   11.9110 C.ar   32  G32         0.1748
    659  C6        28.7480   48.2170   12.7300 C.ar   32  G32         0.3023
    660  O6        29.5670   49.0920   12.3970 O.2    32  G32        -0.2633
    661  N7        27.5680   47.6860   10.5550 N.ar   32  G32        -0.2173
    662  C8        26.6060   46.8400   10.3110 C.ar   32  G32         0.1817
    663  N9        26.1840   46.1490   11.4210 N.ar   32  G32        -0.2693
    664  OP1       24.8320   44.2800    5.6350 O.2    32  G32        -0.5172
    665  OP2       26.1690   46.2150    6.6360 O.co2  32  G32        -0.4373
    666  P         21.2460   43.6020   11.7590 P.3    33  G33         0.2141
    667  C5'       20.9420   41.0340   11.7460 C.3    33  G33         0.1812
    668  O5'       20.9200   42.2320   12.4940 O.3    33  G33        -0.3114
    669  C4'       20.3800   39.9060   12.5790 C.3    33  G33         0.1773
    670  O4'       21.1800   39.7180   13.7760 O.3    33  G33        -0.3307
    671  C3'       18.9870   40.1860   13.0990 C.3    33  G33         0.1860
    672  O3'       18.0700   39.8210   12.1060 O.3    33  G33        -0.3112
    673  C2'       18.9250   39.2350   14.2800 C.3    33  G33         0.2309
    674  O2'       18.7180   37.8990   13.8590 O.3    33  G33        -0.2156
    675  C1'       20.3290   39.3880   14.8640 C.3    33  G33         0.2408
    676  N1        18.8210   40.8640   19.5230 N.ar   33  G33        -0.1709
    677  C2        18.4080   39.8040   18.7690 C.ar   33  G33         0.2606
    678  N2        17.4730   39.0200   19.3240 N.pl3  33  G33        -0.0859
    679  N3        18.8780   39.5240   17.5630 N.ar   33  G33        -0.1918
    680  C4        19.8090   40.4100   17.1530 C.ar   33  G33         0.1723
    681  C5        20.2910   41.5080   17.8310 C.ar   33  G33         0.1748
    682  C6        19.7770   41.7880   19.1250 C.ar   33  G33         0.3023
    683  O6        20.0680   42.7140   19.8920 O.2    33  G33        -0.2633
    684  N7        21.2550   42.1750   17.0770 N.ar   33  G33        -0.2173
    685  C8        21.3230   41.4720   15.9740 C.ar   33  G33         0.1817
    686  N9        20.4690   40.3870   15.9420 N.ar   33  G33        -0.2693
    687  OP1       20.5040   43.6200   10.4750 O.2    33  G33        -0.5172
    688  OP2       21.1130   44.7140   12.7230 O.co2  33  G33        -0.4373
    689  P         16.8080   40.7440   11.7970 P.3    34  U34         0.2141
    690  C5'       15.2620   39.3610   13.3960 C.3    34  U34         0.1812
    691  O5'       15.9250   40.5920   13.1250 O.3    34  U34        -0.3114
    692  C4'       14.6230   39.3530   14.7740 C.3    34  U34         0.1773
    693  O4'       15.6390   39.4660   15.7960 O.3    34  U34        -0.3307
    694  C3'       13.6900   40.5110   15.0690 C.3    34  U34         0.1860
    695  O3'       12.4390   40.2650   14.4930 O.3    34  U34        -0.3112
    696  C2'       13.6420   40.4800   16.5910 C.3    34  U34         0.2309
    697  O2'       12.8080   39.4700   17.1190 O.3    34  U34        -0.2156
    698  C1'       15.0920   40.1460   16.9130 C.3    34  U34         0.2420
    699  N1        15.9110   41.3520   17.1970 N.ar   34  U34        -0.2534
    700  C2        15.8100   41.9410   18.4420 C.ar   34  U34         0.3546
    701  O2        15.0870   41.5220   19.3310 O.2    34  U34        -0.2443
    702  N3        16.6010   43.0430   18.6140 N.ar   34  U34        -0.1530
    703  C4        17.4660   43.5940   17.6900 C.ar   34  U34         0.2846
    704  O4        18.1250   44.5770   18.0030 O.2    34  U34        -0.2650
    705  C5        17.5140   42.9310   16.4100 C.ar   34  U34         0.0814
    706  C6        16.7470   41.8570   16.2170 C.ar   34  U34         0.0870
    707  OP1       16.0930   40.1270   10.6550 O.2    34  U34        -0.5172
    708  OP2       17.2670   42.1500   11.7120 O.co2  34  U34        -0.4373
    709  P         11.6310   41.4710   13.8290 P.3    35  G35         0.2141
    710  C5'        9.8080   41.4350   15.7150 C.3    35  G35         0.1812
    711  O5'       10.8810   42.1430   15.0800 O.3    35  G35        -0.3114
    712  C4'        9.4240   42.0300   17.0610 C.3    35  G35         0.1773
    713  O4'       10.5190   41.9060   18.0080 O.3    35  G35        -0.3307
    714  C3'        9.1200   43.5170   17.0750 C.3    35  G35         0.1860
    715  O3'        7.8280   43.7930   16.5720 O.3    35  G35        -0.3112
    716  C2'        9.2430   43.8070   18.5670 C.3    35  G35         0.2309
    717  O2'        8.1560   43.3320   19.3270 O.3    35  G35        -0.2156
    718  C1'       10.5060   43.0200   18.8900 C.3    35  G35         0.2408
    719  N1        13.2320   47.0040   20.4870 N.ar   35  G35        -0.1709
    720  C2        12.1010   46.4390   21.0350 C.ar   35  G35         0.2606
    721  N2        11.6310   47.0100   22.1500 N.pl3  35  G35        -0.0859
    722  N3        11.4730   45.3840   20.5280 N.ar   35  G35        -0.1918
    723  C4        12.0760   44.9290   19.4020 C.ar   35  G35         0.1723
    724  C5        13.1950   45.4230   18.7770 C.ar   35  G35         0.1748
    725  C6        13.8540   46.5480   19.3290 C.ar   35  G35         0.3023
    726  O6        14.8640   47.1220   18.9080 O.2    35  G35        -0.2633
    727  N7        13.4930   44.6750   17.6490 N.ar   35  G35        -0.2173
    728  C8        12.5600   43.7670   17.6070 C.ar   35  G35         0.1817
    729  N9        11.6770   43.8510   18.6500 N.ar   35  G35        -0.2693
    730  OP1       10.6330   40.8750   12.9100 O.2    35  G35        -0.5172
    731  OP2       12.6200   42.4320   13.3110 O.co2  35  G35        -0.4373
    732  P          7.5210   45.2380   15.9480 P.3    36  G36         0.2141
    733  C5'        6.8880   46.3270   18.2280 C.3    36  G36         0.1812
    734  O5'        7.8310   46.2470   17.1530 O.3    36  G36        -0.3114
    735  C4'        7.1960   47.4580   19.1860 C.3    36  G36         0.1773
    736  O4'        8.5220   47.3140   19.7490 O.3    36  G36        -0.3307
    737  C3'        7.2460   48.8250   18.5470 C.3    36  G36         0.1860
    738  O3'        5.9420   49.2870   18.3400 O.3    36  G36        -0.3112
    739  C2'        7.9830   49.6090   19.6250 C.3    36  G36         0.2309
    740  O2'        7.1810   49.8710   20.7570 O.3    36  G36        -0.2156
    741  C1'        9.0640   48.6060   19.9890 C.3    36  G36         0.2408
    742  N1        13.5460   50.9950   19.5320 N.ar   36  G36        -0.1709
    743  C2        12.5690   51.1390   20.4960 C.ar   36  G36         0.2606
    744  N2        12.8150   52.0220   21.4730 N.pl3  36  G36        -0.0859
    745  N3        11.4310   50.4560   20.5150 N.ar   36  G36        -0.1918
    746  C4        11.3360   49.6040   19.4660 C.ar   36  G36         0.1723
    747  C5        12.2490   49.3890   18.4550 C.ar   36  G36         0.1748
    748  C6        13.4670   50.1200   18.4480 C.ar   36  G36         0.3023
    749  O6        14.3980   50.0570   17.6300 O.2    36  G36        -0.2633
    750  N7        11.7780   48.4260   17.5720 N.ar   36  G36        -0.2173
    751  C8        10.6110   48.0920   18.0510 C.ar   36  G36         0.1817
    752  N9        10.2810   48.7620   19.2010 N.ar   36  G36        -0.2693
    753  OP1        6.0710   45.3240   15.6580 O.3    36  G36        -0.4373
    754  OP2        8.4820   45.4710   14.8590 O.co2  36  G36        -0.5172
    755  P          5.5220   49.9080   16.9320 P.3    37  U37         0.2141
    756  C5'        5.5480   51.9150   18.5750 C.3    37  U37         0.1812
    757  O5'        5.0050   51.3420   17.3920 O.3    37  U37        -0.3114
    758  C4'        6.6400   52.9300   18.2770 C.3    37  U37         0.1773
    759  O4'        7.9620   52.4180   18.5800 O.3    37  U37        -0.3307
    760  C3'        6.8630   53.3250   16.8340 C.3    37  U37         0.1860
    761  O3'        5.6780   53.8480   16.2050 O.3    37  U37        -0.3112
    762  C2'        8.0720   54.2370   17.0660 C.3    37  U37         0.2309
    763  O2'        7.8080   55.3900   17.8370 O.3    37  U37        -0.2156
    764  C1'        8.8950   53.2700   17.9200 C.3    37  U37         0.2420
    765  N1         9.8660   52.4880   17.0960 N.ar   37  U37        -0.2534
    766  C2        11.1880   52.8900   17.1030 C.ar   37  U37         0.3546
    767  O2        11.5880   53.8200   17.7760 O.2    37  U37        -0.2443
    768  N3        12.0350   52.1590   16.3070 N.ar   37  U37        -0.1530
    769  C4        11.6900   51.0950   15.5010 C.ar   37  U37         0.2846
    770  O4        12.5650   50.5360   14.8430 O.2    37  U37        -0.2650
    771  C5        10.2880   50.7330   15.5310 C.ar   37  U37         0.0814
    772  C6         9.4450   51.4330   16.3050 C.ar   37  U37         0.0870
    773  OP1        4.3860   49.1180   16.4220 O.3    37  U37        -0.4373
    774  OP2        6.7070   50.1230   16.0780 O.co2  37  U37        -0.5172
    775  P          5.4970   55.3450   15.6780 P.3    38  A38         0.2141
    776  C5'        6.4050   56.7420   13.7100 C.3    38  A38         0.1812
    777  O5'        6.3560   55.4600   14.3430 O.3    38  A38        -0.3114
    778  C4'        7.5480   56.8280   12.7210 C.3    38  A38         0.1773
    779  O4'        7.6090   58.1530   12.1260 O.3    38  A38        -0.3307
    780  C3'        8.9350   56.5540   13.2960 C.3    38  A38         0.1860
    781  O3'        9.5820   55.6690   12.4150 O.3    38  A38        -0.3112
    782  C2'        9.6010   57.9320   13.2460 C.3    38  A38         0.2309
    783  O2'       11.0100   57.8760   13.1040 O.3    38  A38        -0.2156
    784  C1'        8.9730   58.4430   11.9600 C.3    38  A38         0.2408
    785  N1         9.0050   62.0210    8.2750 N.ar   38  A38        -0.2040
    786  C2         8.7310   60.7090    8.2550 C.ar   38  A38         0.2016
    787  N3         8.7410   59.8350    9.2620 N.ar   38  A38        -0.2048
    788  C4         9.0750   60.4370   10.4150 C.ar   38  A38         0.1692
    789  C5         9.3830   61.7700   10.5960 C.ar   38  A38         0.1518
    790  C6         9.3410   62.5950    9.4500 C.ar   38  A38         0.1919
    791  N6         9.5990   63.9070    9.4710 N.pl3  38  A38        -0.1054
    792  N7         9.6790   62.0260   11.9230 N.ar   38  A38        -0.2193
    793  C8         9.5490   60.8580   12.5040 C.ar   38  A38         0.1816
    794  N9         9.1800   59.8560   11.6530 N.ar   38  A38        -0.2693
    795  OP1        6.0680   56.2620   16.6880 O.3    38  A38        -0.4373
    796  OP2        4.0820   55.4940   15.2780 O.co2  38  A38        -0.5172
    797  P          9.5600   54.0850   12.6090 P.3    39  U39         0.2141
    798  C5'       10.9330   52.3210   11.2480 C.3    39  U39         0.1812
    799  O5'       10.4920   53.6530   11.3830 O.3    39  U39        -0.3114
    800  C4'       11.9890   52.2080   10.1590 C.3    39  U39         0.1773
    801  O4'       11.6450   53.0360    9.0170 O.3    39  U39        -0.3307
    802  C3'       13.3950   52.6170   10.5630 C.3    39  U39         0.1860
    803  O3'       14.2830   51.7060    9.9690 O.3    39  U39        -0.3112
    804  C2'       13.5460   54.0150    9.9630 C.3    39  U39         0.2309
    805  O2'       14.8930   54.3330    9.6700 O.3    39  U39        -0.2156
    806  C1'       12.7270   53.8810    8.6850 C.3    39  U39         0.2420
    807  N1        12.1550   55.1570    8.1680 N.ar   39  U39        -0.2534
    808  C2        12.7660   55.8180    7.1220 C.ar   39  U39         0.3546
    809  O2        13.7820   55.4350    6.5900 O.2    39  U39        -0.2443
    810  N3        12.1470   56.9670    6.7140 N.ar   39  U39        -0.1530
    811  C4        10.9940   57.5210    7.2460 C.ar   39  U39         0.2846
    812  O4        10.5530   58.5710    6.7920 O.2    39  U39        -0.2650
    813  C5        10.4090   56.7740    8.3300 C.ar   39  U39         0.0814
    814  C6        10.9970   55.6410    8.7360 C.ar   39  U39         0.0870
    815  OP1        8.1840   53.5860   12.3900 O.2    39  U39        -0.5172
    816  OP2       10.2800   53.7560   13.8580 O.co2  39  U39        -0.4373
    817  P         15.0610   50.6160   10.8370 P.3    40  A40         0.2141
    818  C5'       17.2420   51.9740   11.2140 C.3    40  A40         0.1812
    819  O5'       16.0200   51.5120   11.7330 O.3    40  A40        -0.3114
    820  C4'       18.2410   52.0630   12.3460 C.3    40  A40         0.1773
    821  O4'       17.7540   53.0220   13.3240 O.3    40  A40        -0.3307
    822  C3'       18.4260   50.7430   13.0830 C.3    40  A40         0.1860
    823  O3'       19.7990   50.4920   13.3670 O.3    40  A40        -0.3112
    824  C2'       17.6520   50.9440   14.3760 C.3    40  A40         0.2309
    825  O2'       18.2620   50.2580   15.4470 O.3    40  A40        -0.2156
    826  C1'       17.7700   52.4400   14.6050 C.3    40  A40         0.2408
    827  N1        16.4210   55.5470   18.4890 N.ar   40  A40        -0.2040
    828  C2        17.6030   55.3000   17.9170 C.ar   40  A40         0.2016
    829  N3        17.8810   54.4790   16.9050 N.ar   40  A40        -0.2048
    830  C4        16.7760   53.8630   16.4590 C.ar   40  A40         0.1692
    831  C5        15.4940   54.0250   16.9370 C.ar   40  A40         0.1518
    832  C6        15.3250   54.9180   18.0130 C.ar   40  A40         0.1919
    833  N6        14.1440   55.1710   18.5820 N.pl3  40  A40        -0.1054
    834  N7        14.6060   53.2360   16.2320 N.ar   40  A40        -0.2193
    835  C8        15.3590   52.6280   15.3480 C.ar   40  A40         0.1816
    836  N9        16.6810   52.9630   15.4240 N.ar   40  A40        -0.2693
    837  OP1       15.8700   49.8480    9.8730 O.2    40  A40        -0.5172
    838  OP2       14.1280   49.9160   11.7560 O.co2  40  A40        -0.4373
    839  P         20.8590   50.2170   12.2060 P.3    41  G41         0.2141
    840  C5'       21.3380   48.0800   13.6560 C.3    41  G41         0.1812
    841  O5'       21.8480   49.1610   12.8730 O.3    41  G41        -0.3114
    842  C4'       22.2160   47.8710   14.8760 C.3    41  G41         0.1773
    843  O4'       23.5670   47.5620   14.4440 O.3    41  G41        -0.3307
    844  C3'       22.3770   49.1090   15.7390 C.3    41  G41         0.1860
    845  O3'       21.3200   49.1920   16.6900 O.3    41  G41        -0.3112
    846  C2'       23.7080   48.8330   16.4110 C.3    41  G41         0.2309
    847  O2'       23.5380   47.8970   17.4470 O.3    41  G41        -0.2156
    848  C1'       24.5120   48.2000   15.2790 C.3    41  G41         0.2408
    849  N1        28.3510   51.6030   15.1720 N.ar   41  G41        -0.1709
    850  C2        27.8680   50.8810   16.2330 C.ar   41  G41         0.2606
    851  N2        28.4800   51.0910   17.4060 N.pl3  41  G41        -0.0859
    852  N3        26.8610   50.0200   16.1480 N.ar   41  G41        -0.1918
    853  C4        26.3720   49.9290   14.8880 C.ar   41  G41         0.1723
    854  C5        26.7990   50.6060   13.7630 C.ar   41  G41         0.1748
    855  C6        27.8680   51.5250   13.8700 C.ar   41  G41         0.3023
    856  O6        28.3820   52.2250   12.9820 O.2    41  G41        -0.2633
    857  N7        26.0460   50.2500   12.6580 N.ar   41  G41        -0.2173
    858  C8        25.1840   49.3770   13.1230 C.ar   41  G41         0.1817
    859  N9        25.3140   49.1320   14.4730 N.ar   41  G41        -0.2693
    860  OP1       21.5620   51.4970   11.9580 O.3    41  G41        -0.4373
    861  OP2       20.1900   49.5060   11.1040 O.co2  41  G41        -0.5172
    862  P         20.8420   50.6100   17.2770 P.3    42  U42         0.2141
    863  C5'       22.0050   50.9670   19.6310 C.3    42  U42         0.1812
    864  O5'       22.0750   51.0650   18.2050 O.3    42  U42        -0.3114
    865  C4'       23.0240   51.8820   20.2790 C.3    42  U42         0.1773
    866  O4'       24.2840   51.6870   19.6080 O.3    42  U42        -0.3307
    867  C3'       22.7160   53.3740   20.1520 C.3    42  U42         0.1860
    868  O3'       21.9640   53.8910   21.2740 O.3    42  U42        -0.3112
    869  C2'       24.0940   54.0130   20.0870 C.3    42  U42         0.2309
    870  O2'       24.5710   54.4030   21.3600 O.3    42  U42        -0.2156
    871  C1'       24.9750   52.9120   19.4920 C.3    42  U42         0.2420
    872  N1        25.3120   53.1960   18.0610 N.ar   42  U42        -0.2534
    873  C2        26.4200   53.9770   17.7880 C.ar   42  U42         0.3546
    874  O2        27.1560   54.4170   18.6530 O.2    42  U42        -0.2443
    875  N3        26.6480   54.2210   16.4560 N.ar   42  U42        -0.1530
    876  C4        25.8840   53.7840   15.3920 C.ar   42  U42         0.2846
    877  O4        26.2130   54.0870   14.2520 O.2    42  U42        -0.2650
    878  C5        24.7380   52.9850   15.7510 C.ar   42  U42         0.0814
    879  C6        24.4960   52.7340   17.0450 C.ar   42  U42         0.0870
    880  OP1       19.6610   50.3590   18.1350 O.3    42  U42        -0.4373
    881  OP2       20.7460   51.5710   16.1530 O.co2  42  U42        -0.5172
    882  P         21.8830   53.1160   22.6900 P.3    43  C43         0.2141
    883  C5'       20.5840   55.3730   23.1320 C.3    43  C43         0.1812
    884  O5'       21.3160   54.2720   23.6600 O.3    43  C43        -0.3114
    885  C4'       19.1500   55.4200   23.6390 C.3    43  C43         0.1773
    886  O4'       18.2920   55.6640   22.5010 O.3    43  C43        -0.3307
    887  C3'       18.5860   54.1540   24.2710 C.3    43  C43         0.1860
    888  O3'       18.7760   54.1520   25.6700 O.3    43  C43        -0.3112
    889  C2'       17.1000   54.2480   23.9510 C.3    43  C43         0.2309
    890  O2'       16.3880   55.0370   24.8760 O.3    43  C43        -0.2156
    891  C1'       17.1010   54.9130   22.5920 C.3    43  C43         0.2420
    892  N1        17.0440   53.9330   21.4760 N.ar   43  C43        -0.2535
    893  C2        15.8010   53.4580   21.0540 C.ar   43  C43         0.3532
    894  O2        14.7830   53.8730   21.6090 O.2    43  C43        -0.2443
    895  N3        15.7430   52.5600   20.0420 N.ar   43  C43        -0.1739
    896  C4        16.8630   52.1430   19.4590 C.ar   43  C43         0.1759
    897  N4        16.7520   51.2690   18.4620 N.pl3  43  C43        -0.1070
    898  C5        18.1470   52.5990   19.8800 C.ar   43  C43         0.0566
    899  C6        18.1920   53.4890   20.8810 C.ar   43  C43         0.0850
    900  OP1       23.2630   52.7370   23.1060 O.3    43  C43        -0.4373
    901  OP2       20.8480   52.0480   22.6050 O.co2  43  C43        -0.5172
    902  P         18.5360   52.8000   26.4910 P.3    44  C44         0.2141
    903  C5'       16.0730   52.7070   27.3770 C.3    44  C44         0.1812
    904  O5'       16.9770   52.4930   26.3050 O.3    44  C44        -0.3114
    905  C4'       14.7720   51.9740   27.1240 C.3    44  C44         0.1773
    906  O4'       14.3440   52.1960   25.7570 O.3    44  C44        -0.3307
    907  C3'       14.8560   50.4580   27.2280 C.3    44  C44         0.1860
    908  O3'       14.7630   50.0150   28.5670 O.3    44  C44        -0.3112
    909  C2'       13.6360   50.0290   26.4290 C.3    44  C44         0.2309
    910  O2'       12.4270   50.1020   27.1650 O.3    44  C44        -0.2156
    911  C1'       13.6600   51.0410   25.2870 C.3    44  C44         0.2420
    912  N1        14.3270   50.4820   24.0550 N.ar   44  C44        -0.2535
    913  C2        13.6170   49.5720   23.2490 C.ar   44  C44         0.3532
    914  O2        12.4580   49.2640   23.5480 O.2    44  C44        -0.2443
    915  N3        14.2100   49.0590   22.1450 N.ar   44  C44        -0.1739
    916  C4        15.4510   49.4220   21.8320 C.ar   44  C44         0.1759
    917  N4        15.9780   48.8890   20.7280 N.pl3  44  C44        -0.1070
    918  C5        16.2010   50.3370   22.6400 C.ar   44  C44         0.0566
    919  C6        15.6110   50.8340   23.7350 C.ar   44  C44         0.0850
    920  OP1       18.8040   53.1060   27.9130 O.3    44  C44        -0.4373
    921  OP2       19.2800   51.7180   25.8040 O.co2  44  C44        -0.5172
    922  P         15.5790   48.7100   28.9940 P.3    45  A45         0.2141
    923  C5'       13.6030   47.0920   28.3700 C.3    45  A45         0.1812
    924  O5'       14.9350   47.5450   28.1000 O.3    45  A45        -0.3114
    925  C4'       13.1340   46.0650   27.3540 C.3    45  A45         0.1773
    926  O4'       13.1070   46.6520   26.0290 O.3    45  A45        -0.3307
    927  C3'       14.0390   44.8570   27.1670 C.3    45  A45         0.1860
    928  O3'       13.9030   43.9040   28.2010 O.3    45  A45        -0.3112
    929  C2'       13.5500   44.3260   25.8290 C.3    45  A45         0.2309
    930  O2'       12.3560   43.5810   25.9230 O.3    45  A45        -0.2156
    931  C1'       13.3340   45.6290   25.0670 C.3    45  A45         0.2408
    932  N1        15.9380   44.4940   20.7950 N.ar   45  A45        -0.2040
    933  C2        14.8070   44.0060   21.3130 C.ar   45  A45         0.2016
    934  N3        14.1810   44.3600   22.4360 N.ar   45  A45        -0.2048
    935  C4        14.8540   45.3360   23.0740 C.ar   45  A45         0.1692
    936  C5        16.0350   45.9350   22.6710 C.ar   45  A45         0.1518
    937  C6        16.5880   45.4720   21.4600 C.ar   45  A45         0.1919
    938  N6        17.7130   45.9520   20.9400 N.pl3  45  A45        -0.1054
    939  N7        16.4320   46.9030   23.5800 N.ar   45  A45        -0.2193
    940  C8        15.4930   46.8690   24.5040 C.ar   45  A45         0.1816
    941  N9        14.5030   45.9530   24.2520 N.ar   45  A45        -0.2693
    942  OP1       15.2660   48.4610   30.4180 O.3    45  A45        -0.4373
    943  OP2       16.9860   48.8950   28.5600 O.co2  45  A45        -0.5172
    944  P         15.1720   42.9860   28.5180 P.3    46  C46         0.2141
    945  C5'       13.9070   41.0320   27.3050 C.3    46  C46         0.1812
    946  O5'       15.0820   41.8310   27.4120 O.3    46  C46        -0.3114
    947  C4'       13.8710   40.2660   25.9940 C.3    46  C46         0.1773
    948  O4'       13.9750   41.1680   24.8620 O.3    46  C46        -0.3307
    949  C3'       15.0330   39.3210   25.7820 C.3    46  C46         0.1860
    950  O3'       14.8640   38.1440   26.5340 O.3    46  C46        -0.3112
    951  C2'       14.9370   39.0930   24.2800 C.3    46  C46         0.2309
    952  O2'       13.8810   38.2320   23.9100 O.3    46  C46        -0.2156
    953  C1'       14.6650   40.5190   23.8010 C.3    46  C46         0.2420
    954  N1        15.9400   41.2670   23.4800 N.ar   46  C46        -0.2535
    955  C2        16.7120   40.8900   22.3600 C.ar   46  C46         0.3532
    956  O2        16.3340   39.9680   21.6290 O.2    46  C46        -0.2443
    957  N3        17.8650   41.5510   22.1010 N.ar   46  C46        -0.1739
    958  C4        18.2590   42.5480   22.8960 C.ar   46  C46         0.1759
    959  N4        19.3990   43.1710   22.5810 N.pl3  46  C46        -0.1070
    960  C5        17.4970   42.9510   24.0410 C.ar   46  C46         0.0566
    961  C6        16.3610   42.2850   24.2950 C.ar   46  C46         0.0850
    962  OP1       14.9950   42.3880   29.8570 O.3    46  C46        -0.4373
    963  OP2       16.3850   43.7840   28.2230 O.co2  46  C46        -0.5172
    964  P         16.1620   37.3860   27.0660 P.3    47  G47         0.2141
    965  C5'       16.0300   35.7250   25.0310 C.3    47  G47         0.1812
    966  O5'       16.7600   36.7350   25.7320 O.3    47  G47        -0.3114
    967  C4'       16.7360   35.3360   23.7440 C.3    47  G47         0.1773
    968  O4'       16.8010   36.4720   22.8480 O.3    47  G47        -0.3307
    969  C3'       18.1760   34.9020   23.9240 C.3    47  G47         0.1860
    970  O3'       18.2240   33.5360   24.2090 O.3    47  G47        -0.3112
    971  C2'       18.8150   35.2290   22.5820 C.3    47  G47         0.2309
    972  O2'       18.6690   34.1980   21.6230 O.3    47  G47        -0.2156
    973  C1'       18.0500   36.4910   22.1820 C.3    47  G47         0.2408
    974  N1        21.6620   39.8270   20.9690 N.ar   47  G47        -0.1709
    975  C2        21.2100   38.7360   20.2630 C.ar   47  G47         0.2606
    976  N2        21.7930   38.4970   19.0840 N.pl3  47  G47        -0.0859
    977  N3        20.2510   37.9280   20.6870 N.ar   47  G47        -0.1918
    978  C4        19.7670   38.3140   21.8920 C.ar   47  G47         0.1723
    979  C5        20.1510   39.3810   22.6730 C.ar   47  G47         0.1748
    980  C6        21.1730   40.2270   22.2100 C.ar   47  G47         0.3023
    981  O6        21.6330   41.2230   22.7720 O.2    47  G47        -0.2633
    982  N7        19.4110   39.4410   23.8410 N.ar   47  G47        -0.2173
    983  C8        18.6070   38.4160   23.7480 C.ar   47  G47         0.1817
    984  N9        18.7620   37.6940   22.5860 N.ar   47  G47        -0.2693
    985  OP1       15.7120   36.3000   27.9600 O.3    47  G47        -0.4373
    986  OP2       17.1270   38.3920   27.5650 O.co2  47  G47        -0.5172
    987  P         19.2210   33.0600   25.3550 P.3    48  A48         0.2141
    988  C5'       20.6190   31.8230   23.5390 C.3    48  A48         0.1812
    989  O5'       20.5850   32.8300   24.5480 O.3    48  A48        -0.3114
    990  C4'       21.8570   31.9420   22.6780 C.3    48  A48         0.1773
    991  O4'       21.8880   33.2380   22.0440 O.3    48  A48        -0.3307
    992  C3'       23.1510   31.8310   23.4560 C.3    48  A48         0.1860
    993  O3'       23.5370   30.4630   23.5220 O.3    48  A48        -0.3112
    994  C2'       24.1180   32.7100   22.6630 C.3    48  A48         0.2309
    995  O2'       24.7570   32.0420   21.5960 O.3    48  A48        -0.2156
    996  C1'       23.1910   33.7790   22.1040 C.3    48  A48         0.2408
    997  N1        24.1340   38.8290   22.4630 N.ar   48  A48        -0.2040
    998  C2        24.3030   37.9530   21.4540 C.ar   48  A48         0.2016
    999  N3        24.0340   36.6440   21.4150 N.ar   48  A48        -0.2048
   1000  C4        23.5370   36.2360   22.5920 C.ar   48  A48         0.1692
   1001  C5        23.3160   37.0070   23.7180 C.ar   48  A48         0.1518
   1002  C6        23.6330   38.3740   23.6350 C.ar   48  A48         0.1919
   1003  N6        23.4570   39.2220   24.6530 N.pl3  48  A48        -0.1054
   1004  N7        22.7960   36.2430   24.7460 N.ar   48  A48        -0.2193
   1005  C8        22.7170   35.0410   24.2340 C.ar   48  A48         0.1816
   1006  N9        23.1470   34.9660   22.9390 N.ar   48  A48        -0.2693
   1007  OP1       18.7380   31.7530   25.8600 O.2    48  A48        -0.5172
   1008  OP2       19.4150   34.1990   26.2840 O.co2  48  A48        -0.4373
   1009  P         23.8480   29.8300   24.9520 P.3    49  A49         0.2141
   1010  C5'       26.3890   30.2500   24.4820 C.3    49  A49         0.1812
   1011  O5'       25.2600   30.4920   25.3080 O.3    49  A49        -0.3114
   1012  C4'       27.5840   31.0010   25.0180 C.3    49  A49         0.1773
   1013  O4'       27.3330   32.4190   24.9020 O.3    49  A49        -0.3307
   1014  C3'       27.8500   30.7850   26.4960 C.3    49  A49         0.1860
   1015  O3'       28.6390   29.6340   26.6720 O.3    49  A49        -0.3112
   1016  C2'       28.5870   32.0650   26.8780 C.3    49  A49         0.2309
   1017  O2'       29.9540   32.0780   26.5160 O.3    49  A49        -0.2156
   1018  C1'       27.8220   33.0900   26.0520 C.3    49  A49         0.2408
   1019  N1        26.4050   36.4320   29.6940 N.ar   49  A49        -0.2040
   1020  C2        27.6110   36.0890   29.2180 C.ar   49  A49         0.2016
   1021  N3        27.9030   35.2050   28.2620 N.ar   49  A49        -0.2048
   1022  C4        26.7850   34.6320   27.7720 C.ar   49  A49         0.1692
   1023  C5        25.4830   34.8820   28.1600 C.ar   49  A49         0.1518
   1024  C6        25.3020   35.8370   29.1820 C.ar   49  A49         0.1919
   1025  N6        24.1060   36.1860   29.6590 N.pl3  49  A49        -0.1054
   1026  N7        24.5970   34.1070   27.4300 N.ar   49  A49        -0.2193
   1027  C8        25.3670   33.4100   26.6290 C.ar   49  A49         0.1816
   1028  N9        26.7000   33.6830   26.7800 N.ar   49  A49        -0.2693
   1029  OP1       24.0100   28.3720   24.7640 O.2    49  A49        -0.5172
   1030  OP2       22.8620   30.3540   25.9260 O.co2  49  A49        -0.4373
   1031  P         28.3290   28.6090   27.8570 P.3    50  A50         0.2141
   1032  C5'       29.9480   29.3670   29.7480 C.3    50  A50         0.1812
   1033  O5'       28.6520   29.4550   29.1750 O.3    50  A50        -0.3114
   1034  C4'       30.2630   30.5690   30.6150 C.3    50  A50         0.1773
   1035  O4'       29.6790   31.7720   30.0550 O.3    50  A50        -0.3307
   1036  C3'       29.6910   30.5090   32.0180 C.3    50  A50         0.1860
   1037  O3'       30.4980   29.7030   32.8490 O.3    50  A50        -0.3112
   1038  C2'       29.7340   31.9800   32.4060 C.3    50  A50         0.2309
   1039  O2'       31.0410   32.4390   32.6940 O.3    50  A50        -0.2156
   1040  C1'       29.2240   32.6020   31.1110 C.3    50  A50         0.2408
   1041  N1        24.9810   34.8500   32.9700 N.ar   50  A50        -0.2040
   1042  C2        26.2800   35.0220   33.2480 C.ar   50  A50         0.2016
   1043  N3        27.3370   34.4000   32.7260 N.ar   50  A50        -0.2048
   1044  C4        26.9560   33.4970   31.8050 C.ar   50  A50         0.1692
   1045  C5        25.6610   33.2060   31.4110 C.ar   50  A50         0.1518
   1046  C6        24.6280   33.9340   32.0410 C.ar   50  A50         0.1919
   1047  N6        23.3300   33.7550   31.7700 N.pl3  50  A50        -0.1054
   1048  N7        25.6520   32.2090   30.4430 N.ar   50  A50        -0.2193
   1049  C8        26.9230   31.9300   30.2710 C.ar   50  A50         0.1816
   1050  N9        27.7650   32.6720   31.0580 N.ar   50  A50        -0.2693
   1051  OP1       29.3100   27.5080   27.7420 O.2    50  A50        -0.5172
   1052  OP2       26.8870   28.3130   27.8500 O.co2  50  A50        -0.4373
   1053  P         29.7970   28.6350   33.8070 P.3    51  G51         0.2141
   1054  C5'       30.0800   30.1610   35.9300 C.3    51  G51         0.1812
   1055  O5'       29.1990   29.5560   34.9760 O.3    51  G51        -0.3114
   1056  C4'       29.3520   31.1120   36.8700 C.3    51  G51         0.1773
   1057  O4'       28.7690   32.2120   36.1220 O.3    51  G51        -0.3307
   1058  C3'       28.1690   30.5320   37.6340 C.3    51  G51         0.1860
   1059  O3'       28.5850   29.7820   38.7710 O.3    51  G51        -0.3112
   1060  C2'       27.4300   31.8100   38.0110 C.3    51  G51         0.2309
   1061  O2'       28.0770   32.5550   39.0230 O.3    51  G51        -0.2156
   1062  C1'       27.5130   32.5540   36.6880 C.3    51  G51         0.2408
   1063  N1        22.5630   32.9140   35.5520 N.ar   51  G51        -0.1709
   1064  C2        23.2620   33.4720   36.6000 C.ar   51  G51         0.2606
   1065  N2        22.5520   34.2220   37.4530 N.pl3  51  G51        -0.0859
   1066  N3        24.5640   33.3060   36.8000 N.ar   51  G51        -0.1918
   1067  C4        25.1230   32.5220   35.8460 C.ar   51  G51         0.1723
   1068  C5        24.5120   31.9190   34.7670 C.ar   51  G51         0.1748
   1069  C6        23.1250   32.1060   34.5670 C.ar   51  G51         0.3023
   1070  O6        22.4180   31.6450   33.6630 O.2    51  G51        -0.2633
   1071  N7        25.4280   31.1910   34.0240 N.ar   51  G51        -0.2173
   1072  C8        26.5560   31.3680   34.6520 C.ar   51  G51         0.1817
   1073  N9        26.4480   32.1670   35.7650 N.ar   51  G51        -0.2693
   1074  OP1       30.8550   27.7640   34.3680 O.3    51  G51        -0.4373
   1075  OP2       28.6680   28.0300   33.0660 O.co2  51  G51        -0.5172
   1076  P         27.8410   28.4060   39.1290 P.3    52  U52         0.2141
   1077  C5'       26.6160   29.7000   41.0460 C.3    52  U52         0.1812
   1078  O5'       26.5210   28.8870   39.8870 O.3    52  U52        -0.3114
   1079  C4'       25.3570   30.5280   41.1990 C.3    52  U52         0.1773
   1080  O4'       25.0860   31.2420   39.9660 O.3    52  U52        -0.3307
   1081  C3'       24.0900   29.7230   41.4270 C.3    52  U52         0.1860
   1082  O3'       23.9710   29.3500   42.7860 O.3    52  U52        -0.3112
   1083  C2'       23.0260   30.7270   41.0040 C.3    52  U52         0.2309
   1084  O2'       22.7940   31.7320   41.9730 O.3    52  U52        -0.2156
   1085  C1'       23.6830   31.3320   39.7660 C.3    52  U52         0.2420
   1086  N1        23.2980   30.6540   38.4730 N.ar   52  U52        -0.2534
   1087  C2        22.0120   30.8130   37.9720 C.ar   52  U52         0.3546
   1088  O2        21.1450   31.4770   38.5160 O.2    52  U52        -0.2443
   1089  N3        21.7690   30.1630   36.7870 N.ar   52  U52        -0.1530
   1090  C4        22.6560   29.3830   36.0670 C.ar   52  U52         0.2846
   1091  O4        22.2880   28.8670   35.0180 O.2    52  U52        -0.2650
   1092  C5        23.9720   29.2620   36.6460 C.ar   52  U52         0.0814
   1093  C6        24.2360   29.8870   37.8000 C.ar   52  U52         0.0870
   1094  OP1       28.6930   27.6620   40.0820 O.3    52  U52        -0.4373
   1095  OP2       27.4160   27.7580   37.8670 O.co2  52  U52        -0.5172
   1096  P         23.8690   27.8020   43.1660 P.3    53  A53         0.2141
   1097  C5'       22.0390   28.2210   45.0300 C.3    53  A53         0.1813
   1098  O5'       22.3790   27.6750   43.7480 O.3    53  A53        -0.3114
   1099  C4'       20.5470   28.5090   45.1590 C.3    53  A53         0.1801
   1100  O4'       20.1770   29.6040   44.2750 O.3    53  A53        -0.3306
   1101  C3'       19.6140   27.3530   44.8030 C.3    53  A53         0.2161
   1102  O3'       19.3370   26.5580   45.9540 O.3    53  A53        -0.2175
   1103  C2'       18.3690   28.0830   44.3000 C.3    53  A53         0.2337
   1104  O2'       17.5150   28.4950   45.3510 O.3    53  A53        -0.2155
   1105  C1'       18.9750   29.2960   43.5890 C.3    53  A53         0.2409
   1106  N1        17.1110   28.7350   38.7900 N.ar   53  A53        -0.2040
   1107  C2        16.5060   29.0020   39.9590 C.ar   53  A53         0.2016
   1108  N3        17.0470   29.1390   41.1730 N.ar   53  A53        -0.2048
   1109  C4        18.3820   28.9720   41.1250 C.ar   53  A53         0.1692
   1110  C5        19.1430   28.6940   39.9970 C.ar   53  A53         0.1518
   1111  C6        18.4530   28.5710   38.7710 C.ar   53  A53         0.1919
   1112  N6        19.0560   28.3030   37.6060 N.pl3  53  A53        -0.1054
   1113  N7        20.4830   28.5890   40.3250 N.ar   53  A53        -0.2193
   1114  C8        20.5060   28.7990   41.6200 C.ar   53  A53         0.1816
   1115  N9        19.2770   29.0430   42.1740 N.ar   53  A53        -0.2693
   1116  OP1       24.8430   27.5460   44.2500 O.3    53  A53        -0.4373
   1117  OP2       23.9440   27.0100   41.9160 O.co2  53  A53        -0.5172
   1118  P         12.2830   34.0880   32.2240 P.3    57  G57         0.1280
   1119  C5'       11.3030   34.2750   34.6620 C.3    57  G57         0.1795
   1120  O5'       12.1400   33.5770   33.7370 O.3    57  G57        -0.3259
   1121  C4'       11.9730   34.4000   36.0190 C.3    57  G57         0.1772
   1122  O4'       12.4750   33.1050   36.4410 O.3    57  G57        -0.3307
   1123  C3'       13.2150   35.2700   36.0520 C.3    57  G57         0.1860
   1124  O3'       12.8970   36.6460   36.1050 O.3    57  G57        -0.3112
   1125  C2'       13.8660   34.7730   37.3330 C.3    57  G57         0.2309
   1126  O2'       13.1820   35.1970   38.4970 O.3    57  G57        -0.2156
   1127  C1'       13.7040   33.2710   37.1350 C.3    57  G57         0.2408
   1128  N1        18.4940   31.5060   37.2610 N.ar   57  G57        -0.1709
   1129  C2        17.7250   32.0150   38.2840 C.ar   57  G57         0.2606
   1130  N2        18.2980   32.0660   39.4950 N.pl3  57  G57        -0.0859
   1131  N3        16.4780   32.4460   38.1280 N.ar   57  G57        -0.1918
   1132  C4        16.0500   32.3230   36.8440 C.ar   57  G57         0.1723
   1133  C5        16.7400   31.8280   35.7580 C.ar   57  G57         0.1748
   1134  C6        18.0700   31.3700   35.9380 C.ar   57  G57         0.3023
   1135  O6        18.8370   30.8950   35.0880 O.2    57  G57        -0.2633
   1136  N7        15.9570   31.8740   34.6130 N.ar   57  G57        -0.2173
   1137  C8        14.8280   32.3840   35.0190 C.ar   57  G57         0.1817
   1138  N9        14.8060   32.6780   36.3650 N.ar   57  G57        -0.2693
   1139  OP1       11.1620   33.5450   31.4170 O.3    57  G57        -0.1955
   1140  OP2       12.5600   35.5490   32.2510 O.co2  57  G57        -0.7863
   1141  P         13.8900   37.6730   35.3870 P.3    58  C58         0.2141
   1142  C5'       14.9090   38.2410   37.7460 C.3    58  C58         0.1812
   1143  O5'       15.1130   37.7760   36.4150 O.3    58  C58        -0.3114
   1144  C4'       16.0470   37.7960   38.6440 C.3    58  C58         0.1773
   1145  O4'       16.2150   36.3600   38.5340 O.3    58  C58        -0.3307
   1146  C3'       17.4180   38.3330   38.2670 C.3    58  C58         0.1860
   1147  O3'       17.6120   39.6580   38.7380 O.3    58  C58        -0.3112
   1148  C2'       18.3210   37.3250   38.9660 C.3    58  C58         0.2309
   1149  O2'       18.3820   37.5060   40.3660 O.3    58  C58        -0.2156
   1150  C1'       17.5920   36.0270   38.6330 C.3    58  C58         0.2420
   1151  N1        18.0760   35.4040   37.3490 N.ar   58  C58        -0.2535
   1152  C2        19.3450   34.8000   37.3100 C.ar   58  C58         0.3532
   1153  O2        20.0410   34.7720   38.3330 O.2    58  C58        -0.2443
   1154  N3        19.7780   34.2520   36.1470 N.ar   58  C58        -0.1739
   1155  C4        19.0100   34.3000   35.0570 C.ar   58  C58         0.1759
   1156  N4        19.4870   33.7480   33.9400 N.pl3  58  C58        -0.1070
   1157  C5        17.7200   34.9130   35.0690 C.ar   58  C58         0.0566
   1158  C6        17.2990   35.4480   36.2220 C.ar   58  C58         0.0850
   1159  OP1       13.2090   38.9850   35.3100 O.3    58  C58        -0.4373
   1160  OP2       14.3970   37.0320   34.1490 O.co2  58  C58        -0.5172
   1161  P         18.4400   40.6960   37.8410 P.3    59  U59         0.2141
   1162  C5'       20.6630   40.1380   39.1420 C.3    59  U59         0.1812
   1163  O5'       19.9390   40.1270   37.9050 O.3    59  U59        -0.3114
   1164  C4'       22.0820   39.6160   38.9790 C.3    59  U59         0.1773
   1165  O4'       22.0730   38.1960   38.6820 O.3    59  U59        -0.3307
   1166  C3'       22.8700   40.2070   37.8250 C.3    59  U59         0.1860
   1167  O3'       23.3660   41.4840   38.1570 O.3    59  U59        -0.3112
   1168  C2'       23.9760   39.1730   37.6750 C.3    59  U59         0.2309
   1169  O2'       24.9570   39.2610   38.6910 O.3    59  U59        -0.2156
   1170  C1'       23.1660   37.8870   37.8260 C.3    59  U59         0.2420
   1171  N1        22.6460   37.3550   36.5150 N.ar   59  U59        -0.2534
   1172  C2        23.5120   36.7120   35.6460 C.ar   59  U59         0.3546
   1173  O2        24.6940   36.5350   35.8800 O.2    59  U59        -0.2443
   1174  N3        22.9390   36.2680   34.4780 N.ar   59  U59        -0.1530
   1175  C4        21.6170   36.4040   34.0950 C.ar   59  U59         0.2846
   1176  O4        21.2490   35.9590   33.0160 O.2    59  U59        -0.2650
   1177  C5        20.7770   37.0900   35.0420 C.ar   59  U59         0.0814
   1178  C6        21.3110   37.5240   36.1900 C.ar   59  U59         0.0870
   1179  OP1       18.4010   42.0130   38.5130 O.3    59  U59        -0.4373
   1180  OP2       17.9570   40.5770   36.4470 O.co2  59  U59        -0.5172
   1181  P         23.3390   42.6330   37.0500 P.3    60  U60         0.2141
   1182  C5'       25.9310   42.3470   36.7700 C.3    60  U60         0.1812
   1183  O5'       24.6380   42.3100   36.1730 O.3    60  U60        -0.3114
   1184  C4'       26.9600   41.6270   35.9190 C.3    60  U60         0.1773
   1185  O4'       26.6060   40.2250   35.7960 O.3    60  U60        -0.3307
   1186  C3'       27.0670   42.0900   34.4750 C.3    60  U60         0.1860
   1187  O3'       27.8490   43.2750   34.3530 O.3    60  U60        -0.3112
   1188  C2'       27.7450   40.8810   33.8460 C.3    60  U60         0.2309
   1189  O2'       29.1150   40.7750   34.1800 O.3    60  U60        -0.2156
   1190  C1'       26.9540   39.7600   34.5020 C.3    60  U60         0.2420
   1191  N1        25.7130   39.3980   33.7380 N.ar   60  U60        -0.2534
   1192  C2        25.8190   38.5840   32.6230 C.ar   60  U60         0.3546
   1193  O2        26.8770   38.1310   32.2200 O.2    60  U60        -0.2443
   1194  N3        24.6250   38.3120   31.9920 N.ar   60  U60        -0.1530
   1195  C4        23.3640   38.7660   32.3530 C.ar   60  U60         0.2846
   1196  O4        22.3820   38.4390   31.6920 O.2    60  U60        -0.2650
   1197  C5        23.3360   39.6130   33.5200 C.ar   60  U60         0.0814
   1198  C6        24.4840   39.8890   34.1500 C.ar   60  U60         0.0870
   1199  OP1       23.5210   43.9280   37.7400 O.3    60  U60        -0.4373
   1200  OP2       22.1520   42.4170   36.1950 O.co2  60  U60        -0.5172
   1201  P         27.3580   44.4780   33.4070 P.3    61  U61         0.2141
   1202  C5'       28.4860   42.9680   31.5280 C.3    61  U61         0.1812
   1203  O5'       27.4290   43.8610   31.9250 O.3    61  U61        -0.3114
   1204  C4'       28.1290   42.1950   30.2610 C.3    61  U61         0.1773
   1205  O4'       27.1410   41.1670   30.5620 O.3    61  U61        -0.3307
   1206  C3'       27.4940   43.0100   29.1300 C.3    61  U61         0.1860
   1207  O3'       28.4760   43.7260   28.3520 O.3    61  U61        -0.3112
   1208  C2'       26.7990   41.8970   28.3420 C.3    61  U61         0.2309
   1209  O2'       27.7050   41.0930   27.6020 O.3    61  U61        -0.2156
   1210  C1'       26.2150   41.0700   29.4870 C.3    61  U61         0.2420
   1211  N1        24.8300   41.4970   29.9410 N.ar   61  U61        -0.2534
   1212  C2        23.7310   40.7340   29.5760 C.ar   61  U61         0.3546
   1213  O2        23.8100   39.7250   28.8960 O.2    61  U61        -0.2443
   1214  N3        22.5190   41.1990   30.0400 N.ar   61  U61        -0.1530
   1215  C4        22.2910   42.3290   30.8140 C.ar   61  U61         0.2846
   1216  O4        21.1460   42.6220   31.1520 O.2    61  U61        -0.2650
   1217  C5        23.4800   43.0740   31.1530 C.ar   61  U61         0.0814
   1218  C6        24.6710   42.6400   30.7150 C.ar   61  U61         0.0870
   1219  OP1       28.3580   45.5630   33.5180 O.2    61  U61        -0.5172
   1220  OP2       25.9330   44.7570   33.7100 O.co2  61  U61        -0.4373
   1221  P         29.3550   44.9010   29.0180 P.3    62  G62         0.2141
   1222  C5'       29.2690   47.0270   27.4950 C.3    62  G62         0.1812
   1223  O5'       29.8510   45.7650   27.7670 O.3    62  G62        -0.3114
   1224  C4'       29.4940   47.3470   26.0430 C.3    62  G62         0.1773
   1225  O4'       28.8550   46.3500   25.2370 O.3    62  G62        -0.3307
   1226  C3'       28.8570   48.6230   25.5630 C.3    62  G62         0.1860
   1227  O3'       29.7210   49.6810   25.8860 O.3    62  G62        -0.3112
   1228  C2'       28.8360   48.3970   24.0620 C.3    62  G62         0.2309
   1229  O2'       30.0650   48.7670   23.4740 O.3    62  G62        -0.2156
   1230  C1'       28.6960   46.8900   23.9490 C.3    62  G62         0.2408
   1231  N1        26.2930   45.2270   19.7990 N.ar   62  G62        -0.1709
   1232  C2        27.5900   45.6610   19.9400 C.ar   62  G62         0.2606
   1233  N2        28.3560   45.6420   18.8370 N.pl3  62  G62        -0.0859
   1234  N3        28.1040   46.0920   21.0870 N.ar   62  G62        -0.1918
   1235  C4        27.2040   46.0430   22.1030 C.ar   62  G62         0.1723
   1236  C5        25.8960   45.6220   22.0670 C.ar   62  G62         0.1748
   1237  C6        25.3580   45.1710   20.8330 C.ar   62  G62         0.3023
   1238  O6        24.2120   44.7610   20.6030 O.2    62  G62        -0.2633
   1239  N7        25.3090   45.7300   23.3250 N.ar   62  G62        -0.2173
   1240  C8        26.2600   46.2000   24.0850 C.ar   62  G62         0.1817
   1241  N9        27.4340   46.4190   23.4060 N.ar   62  G62        -0.2693
   1242  OP1       30.5490   44.2750   29.6430 O.2    62  G62        -0.5172
   1243  OP2       28.4410   45.7570   29.8210 O.co2  62  G62        -0.4373
   1244  P         29.1510   50.9630   26.6430 P.3    63  A63         0.2141
   1245  C5'       30.3100   52.3550   24.7690 C.3    63  A63         0.1812
   1246  O5'       29.1280   52.0710   25.4950 O.3    63  A63        -0.3114
   1247  C4'       29.9920   52.4910   23.2980 C.3    63  A63         0.1773
   1248  O4'       29.4860   51.2350   22.8200 O.3    63  A63        -0.3307
   1249  C3'       28.8720   53.4560   22.9670 C.3    63  A63         0.1860
   1250  O3'       29.3900   54.7550   22.8680 O.3    63  A63        -0.3112
   1251  C2'       28.4060   52.9610   21.6050 C.3    63  A63         0.2309
   1252  O2'       29.1430   53.5070   20.5330 O.3    63  A63        -0.2156
   1253  C1'       28.6670   51.4670   21.6940 C.3    63  A63         0.2408
   1254  N1        25.3770   48.2170   19.4720 N.ar   63  A63        -0.2040
   1255  C2        26.5190   48.7580   19.0360 C.ar   63  A63         0.2016
   1256  N3        27.3390   49.5980   19.6700 N.ar   63  A63        -0.2048
   1257  C4        26.8680   49.8980   20.8970 C.ar   63  A63         0.1692
   1258  C5        25.7100   49.4280   21.4760 C.ar   63  A63         0.1518
   1259  C6        24.9330   48.5440   20.7030 C.ar   63  A63         0.1919
   1260  N6        23.7930   48.0140   21.1350 N.pl3  63  A63        -0.1054
   1261  N7        25.5530   49.9440   22.7490 N.ar   63  A63        -0.2193
   1262  C8        26.6020   50.7050   22.9130 C.ar   63  A63         0.1816
   1263  N9        27.4380   50.7150   21.8390 N.ar   63  A63        -0.2693
   1264  OP1       30.1570   51.3400   27.6600 O.3    63  A63        -0.4373
   1265  OP2       27.7510   50.6820   27.0360 O.co2  63  A63        -0.5172
   1266  P         28.7070   55.9540   23.6690 P.3    64  U64         0.2141
   1267  C5'       27.4100   56.4370   21.4260 C.3    64  U64         0.1812
   1268  O5'       27.3730   56.2900   22.8400 O.3    64  U64        -0.3114
   1269  C4'       27.2430   57.8880   21.0300 C.3    64  U64         0.1773
   1270  O4'       27.4660   58.0330   19.6010 O.3    64  U64        -0.3307
   1271  C3'       25.8580   58.4720   21.2890 C.3    64  U64         0.1860
   1272  O3'       25.9880   59.8440   21.5940 O.3    64  U64        -0.3112
   1273  C2'       25.1900   58.3190   19.9330 C.3    64  U64         0.2309
   1274  O2'       24.0880   59.1960   19.7770 O.3    64  U64        -0.2156
   1275  C1'       26.3690   58.7340   19.0570 C.3    64  U64         0.2420
   1276  N1        26.2450   58.4220   17.6010 N.ar   64  U64        -0.2534
   1277  C2        26.9640   59.1730   16.6910 C.ar   64  U64         0.3546
   1278  O2        27.7050   60.0890   17.0150 O.2    64  U64        -0.2443
   1279  N3        26.7750   58.8140   15.3750 N.ar   64  U64        -0.1530
   1280  C4        25.9590   57.8030   14.8900 C.ar   64  U64         0.2846
   1281  O4        25.8880   57.5910   13.6810 O.2    64  U64        -0.2650
   1282  C5        25.2460   57.0680   15.9020 C.ar   64  U64         0.0814
   1283  C6        25.4160   57.3960   17.1880 C.ar   64  U64         0.0870
   1284  OP1       29.6410   57.0930   23.5500 O.2    64  U64        -0.5172
   1285  OP2       28.3010   55.4480   25.0030 O.co2  64  U64        -0.4373
   1286  P         25.6620   60.3770   23.0590 P.3    65  U65         0.2141
   1287  C5'       25.1030   62.6070   21.7690 C.3    65  U65         0.1812
   1288  O5'       25.7250   61.9670   22.8790 O.3    65  U65        -0.3114
   1289  C4'       26.1140   63.4570   21.0250 C.3    65  U65         0.1773
   1290  O4'       26.8260   62.6250   20.0760 O.3    65  U65        -0.3307
   1291  C3'       25.5210   64.5600   20.1690 C.3    65  U65         0.1860
   1292  O3'       25.2640   65.7140   20.9290 O.3    65  U65        -0.3112
   1293  C2'       26.6300   64.7900   19.1530 C.3    65  U65         0.2309
   1294  O2'       27.7080   65.5270   19.6840 O.3    65  U65        -0.2156
   1295  C1'       27.0750   63.3630   18.8920 C.3    65  U65         0.2420
   1296  N1        26.3750   62.7190   17.7470 N.ar   65  U65        -0.2534
   1297  C2        26.8420   62.9640   16.4760 C.ar   65  U65         0.3546
   1298  O2        27.7910   63.6910   16.2490 O.2    65  U65        -0.2443
   1299  N3        26.1560   62.3210   15.4750 N.ar   65  U65        -0.1530
   1300  C4        25.0620   61.4870   15.6160 C.ar   65  U65         0.2846
   1301  O4        24.5540   60.9790   14.6230 O.2    65  U65        -0.2650
   1302  C5        24.6240   61.2850   16.9750 C.ar   65  U65         0.0814
   1303  C6        25.2840   61.8970   17.9670 C.ar   65  U65         0.0870
   1304  OP1       26.7750   59.9580   23.9410 O.3    65  U65        -0.4373
   1305  OP2       24.2680   60.0010   23.3950 O.co2  65  U65        -0.5172
   1306  P         24.1150   66.7020   20.4230 P.3    66  U66         0.2141
   1307  C5'       25.8740   68.2870   19.2500 C.3    66  U66         0.1812
   1308  O5'       24.7650   67.3850   19.1260 O.3    66  U66        -0.3114
   1309  C4'       26.2520   68.9020   17.9110 C.3    66  U66         0.1773
   1310  O4'       26.8960   67.9080   17.0740 O.3    66  U66        -0.3307
   1311  C3'       25.0860   69.3940   17.0650 C.3    66  U66         0.1860
   1312  O3'       24.6770   70.6870   17.4490 O.3    66  U66        -0.3112
   1313  C2'       25.7030   69.3860   15.6730 C.3    66  U66         0.2309
   1314  O2'       26.5570   70.4860   15.4330 O.3    66  U66        -0.2156
   1315  C1'       26.4850   68.0820   15.7260 C.3    66  U66         0.2420
   1316  N1        25.6340   66.9290   15.2640 N.ar   66  U66        -0.2534
   1317  C2        25.5640   66.6660   13.9110 C.ar   66  U66         0.3546
   1318  O2        26.1800   67.3060   13.0760 O.2    66  U66        -0.2443
   1319  N3        24.7410   65.6200   13.5670 N.ar   66  U66        -0.1530
   1320  C4        23.9950   64.8320   14.4210 C.ar   66  U66         0.2846
   1321  O4        23.3110   63.9250   13.9640 O.2    66  U66        -0.2650
   1322  C5        24.1060   65.1680   15.8140 C.ar   66  U66         0.0814
   1323  C6        24.9010   66.1830   16.1730 C.ar   66  U66         0.0870
   1324  OP1       23.9020   67.7350   21.4620 O.3    66  U66        -0.4373
   1325  OP2       22.9790   65.8720   19.9750 O.co2  66  U66        -0.5172
   1326  P         23.2170   71.2030   17.0400 P.3    67  G67         0.2141
   1327  C5'       23.7410   72.3050   14.7050 C.3    67  G67         0.1812
   1328  O5'       23.2490   71.1840   15.4400 O.3    67  G67        -0.3114
   1329  C4'       23.7800   71.9930   13.2210 C.3    67  G67         0.1773
   1330  O4'       24.3570   70.6740   13.0070 O.3    67  G67        -0.3307
   1331  C3'       22.4190   71.8810   12.5600 C.3    67  G67         0.1860
   1332  O3'       21.8480   73.1410   12.2800 O.3    67  G67        -0.3112
   1333  C2'       22.7750   71.1020   11.3030 C.3    67  G67         0.2309
   1334  O2'       23.4230   71.9010   10.3310 O.3    67  G67        -0.2156
   1335  C1'       23.7270   70.0610   11.8950 C.3    67  G67         0.2408
   1336  N1        21.0200   66.0390   10.4250 N.ar   67  G67        -0.1709
   1337  C2        21.6020   67.0320    9.6740 C.ar   67  G67         0.2606
   1338  N2        21.4460   66.9590    8.3500 N.pl3  67  G67        -0.0859
   1339  N3        22.2910   68.0350   10.1830 N.ar   67  G67        -0.1918
   1340  C4        22.3570   67.9700   11.5340 C.ar   67  G67         0.1723
   1341  C5        21.8130   67.0260   12.3760 C.ar   67  G67         0.1748
   1342  C6        21.0740   65.9570   11.8180 C.ar   67  G67         0.3023
   1343  O6        20.5040   65.0210   12.4050 O.2    67  G67        -0.2633
   1344  N7        22.1110   67.3220   13.6990 N.ar   67  G67        -0.2173
   1345  C8        22.8130   68.4260   13.6290 C.ar   67  G67         0.1817
   1346  N9        23.0090   68.8700   12.3420 N.ar   67  G67        -0.2693
   1347  OP1       23.0930   72.6010   17.5220 O.3    67  G67        -0.4373
   1348  OP2       22.2290   70.1870   17.4610 O.co2  67  G67        -0.5172
   1349  P         20.2610   73.2810   12.4230 P.3    68  G68         0.2141
   1350  C5'       20.0310   73.1450    9.8190 C.3    68  G68         0.1812
   1351  O5'       19.7030   72.6060   11.0890 O.3    68  G68        -0.3114
   1352  C4'       19.4460   72.2670    8.7380 C.3    68  G68         0.1773
   1353  O4'       20.0250   70.9440    8.8450 O.3    68  G68        -0.3307
   1354  C3'       17.9560   72.0310    8.8850 C.3    68  G68         0.1860
   1355  O3'       17.2330   73.0660    8.2730 O.3    68  G68        -0.3112
   1356  C2'       17.7820   70.7290    8.1290 C.3    68  G68         0.2309
   1357  O2'       17.7250   70.9300    6.7310 O.3    68  G68        -0.2156
   1358  C1'       19.0450   69.9670    8.5330 C.3    68  G68         0.2408
   1359  N1        17.4480   65.3930   10.1210 N.ar   68  G68        -0.1709
   1360  C2        17.5330   65.8960    8.8400 C.ar   68  G68         0.2606
   1361  N2        17.1490   65.0750    7.8480 N.pl3  68  G68        -0.0859
   1362  N3        17.9690   67.1210    8.5510 N.ar   68  G68        -0.1918
   1363  C4        18.3210   67.8110    9.6630 C.ar   68  G68         0.1723
   1364  C5        18.2640   67.4020   10.9790 C.ar   68  G68         0.1748
   1365  C6        17.8000   66.0920   11.2800 C.ar   68  G68         0.3023
   1366  O6        17.6840   65.5460   12.3920 O.2    68  G68        -0.2633
   1367  N7        18.7150   68.4060   11.8210 N.ar   68  G68        -0.2173
   1368  C8        19.0300   69.3830   11.0160 C.ar   68  G68         0.1817
   1369  N9        18.8260   69.0900    9.6880 N.ar   68  G68        -0.2693
   1370  OP1       19.9120   74.7210   12.4090 O.2    68  G68        -0.5172
   1371  OP2       19.8330   72.4210   13.5480 O.co2  68  G68        -0.4373
   1372  P         15.9220   73.6260    8.9910 P.3    69  U69         0.2141
   1373  C5'       14.7160   72.5460    6.9030 C.3    69  U69         0.1812
   1374  O5'       14.7120   72.8280    8.3020 O.3    69  U69        -0.3114
   1375  C4'       13.9690   71.2590    6.5880 C.3    69  U69         0.1773
   1376  O4'       14.7720   70.0990    6.9290 O.3    69  U69        -0.3307
   1377  C3'       12.7020   71.0310    7.3860 C.3    69  U69         0.1860
   1378  O3'       11.6510   71.7820    6.8670 O.3    69  U69        -0.3112
   1379  C2'       12.4780   69.5440    7.1740 C.3    69  U69         0.2309
   1380  O2'       11.9100   69.2510    5.9130 O.3    69  U69        -0.2156
   1381  C1'       13.9100   69.0200    7.2710 C.3    69  U69         0.2420
   1382  N1        14.2320   68.5380    8.6500 N.ar   69  U69        -0.2534
   1383  C2        13.8280   67.2700    9.0340 C.ar   69  U69         0.3546
   1384  O2        13.2250   66.5070    8.2990 O.2    69  U69        -0.2443
   1385  N3        14.1610   66.9220   10.3250 N.ar   69  U69        -0.1530
   1386  C4        14.8340   67.7010   11.2540 C.ar   69  U69         0.2846
   1387  O4        15.0610   67.2570   12.3770 O.2    69  U69        -0.2650
   1388  C5        15.2120   69.0120   10.7820 C.ar   69  U69         0.0814
   1389  C6        14.9000   69.3740    9.5300 C.ar   69  U69         0.0870
   1390  OP1       15.8190   75.0610    8.6500 O.2    69  U69        -0.5172
   1391  OP2       15.9870   73.2010   10.4070 O.co2  69  U69        -0.4373
   1392  P         10.6110   72.4280    7.8910 P.3    70  G70         0.2141
   1393  C5'        8.9380   70.4630    7.5010 C.3    70  G70         0.1812
   1394  O5'        9.7690   71.1710    8.3980 O.3    70  G70        -0.3114
   1395  C4'        8.4450   69.2130    8.1830 C.3    70  G70         0.1773
   1396  O4'        9.5850   68.3950    8.5540 O.3    70  G70        -0.3307
   1397  C3'        7.7500   69.4540    9.5090 C.3    70  G70         0.1860
   1398  O3'        6.4090   69.8340    9.3110 O.3    70  G70        -0.3112
   1399  C2'        7.8640   68.0740   10.1410 C.3    70  G70         0.2309
   1400  O2'        6.9290   67.1500    9.6120 O.3    70  G70        -0.2156
   1401  C1'        9.2930   67.6930    9.7530 C.3    70  G70         0.2408
   1402  N1        11.7100   66.2980   14.0290 N.ar   70  G70        -0.1709
   1403  C2        10.8100   65.5880   13.2690 C.ar   70  G70         0.2606
   1404  N2        10.5110   64.3570   13.6980 N.pl3  70  G70        -0.0859
   1405  N3        10.2430   66.0540   12.1620 N.ar   70  G70        -0.1918
   1406  C4        10.6530   67.3170   11.8680 C.ar   70  G70         0.1723
   1407  C5        11.5450   68.1060   12.5630 C.ar   70  G70         0.1748
   1408  C6        12.1440   67.5940   13.7400 C.ar   70  G70         0.3023
   1409  O6        12.9620   68.1540   14.4820 O.2    70  G70        -0.2633
   1410  N7        11.7110   69.3330   11.9390 N.ar   70  G70        -0.2173
   1411  C8        10.9270   69.2690   10.8990 C.ar   70  G70         0.1817
   1412  N9        10.2580   68.0730   10.7850 N.ar   70  G70        -0.2693
   1413  OP1        9.7140   73.3170    7.1160 O.2    70  G70        -0.5172
   1414  OP2       11.3770   72.9520    9.0480 O.co2  70  G70        -0.4373
   1415  P          5.7700   70.9690   10.2380 P.3    71  A71         0.2141
   1416  C5'        5.3000   70.9860   12.8110 C.3    71  A71         0.1812
   1417  O5'        6.0320   70.4310   11.7220 O.3    71  A71        -0.3114
   1418  C4'        4.7440   69.8980   13.7100 C.3    71  A71         0.1773
   1419  O4'        3.6560   69.2200   13.0470 O.3    71  A71        -0.3307
   1420  C3'        5.7170   68.7830   14.0300 C.3    71  A71         0.1860
   1421  O3'        6.5690   69.1690   15.0970 O.3    71  A71        -0.3112
   1422  C2'        4.7860   67.6350   14.4090 C.3    71  A71         0.2309
   1423  O2'        4.4540   67.6000   15.7790 O.3    71  A71        -0.2156
   1424  C1'        3.5430   67.9080   13.5660 C.3    71  A71         0.2408
   1425  N1         2.9950   62.9750   12.1810 N.ar   71  A71        -0.2040
   1426  C2         3.0780   63.5610   13.3830 C.ar   71  A71         0.2016
   1427  N3         3.2150   64.8580   13.6720 N.ar   71  A71        -0.2048
   1428  C4         3.2700   65.6040   12.5500 C.ar   71  A71         0.1692
   1429  C5         3.1970   65.1450   11.2450 C.ar   71  A71         0.1518
   1430  C6         3.0480   63.7500   11.0720 C.ar   71  A71         0.1919
   1431  N6         2.9600   63.1640    9.8750 N.pl3  71  A71        -0.1054
   1432  N7         3.2910   66.1990   10.3480 N.ar   71  A71        -0.2193
   1433  C8         3.4230   67.2540   11.1190 C.ar   71  A71         0.1816
   1434  N9         3.4100   66.9700   12.4580 N.ar   71  A71        -0.2693
   1435  OP1        4.3100   71.0050    9.9820 O.2    71  A71        -0.5172
   1436  OP2        6.5750   72.1940   10.0640 O.co2  71  A71        -0.4373
   1437  P          8.1370   68.8640   15.0160 P.3    72  A72         0.2141
   1438  C5'        7.6760   66.9320   16.7370 C.3    72  A72         0.1812
   1439  O5'        8.2190   67.3340   15.4810 O.3    72  A72        -0.3114
   1440  C4'        7.3910   65.4390   16.7600 C.3    72  A72         0.1773
   1441  O4'        6.3650   65.1220   15.7870 O.3    72  A72        -0.3307
   1442  C3'        8.5850   64.5630   16.4200 C.3    72  A72         0.1860
   1443  O3'        9.2460   64.1560   17.6210 O.3    72  A72        -0.3112
   1444  C2'        7.9630   63.3660   15.7120 C.3    72  A72         0.2309
   1445  O2'        7.7410   62.3110   16.6180 O.3    72  A72        -0.2156
   1446  C1'        6.6360   63.8880   15.1550 C.3    72  A72         0.2408
   1447  N1         5.9010   61.7710   10.4570 N.ar   72  A72        -0.2040
   1448  C2         5.8210   61.2500   11.6880 C.ar   72  A72         0.2016
   1449  N3         6.0230   61.8530   12.8670 N.ar   72  A72        -0.2048
   1450  C4         6.3450   63.1550   12.7130 C.ar   72  A72         0.1692
   1451  C5         6.4650   63.8290   11.5090 C.ar   72  A72         0.1518
   1452  C6         6.2250   63.0810   10.3290 C.ar   72  A72         0.1919
   1453  N6         6.3070   63.5990    9.1000 N.pl3  72  A72        -0.1054
   1454  N7         6.8140   65.1500   11.7240 N.ar   72  A72        -0.2193
   1455  C8         6.8960   65.2500   13.0290 C.ar   72  A72         0.1816
   1456  N9         6.6240   64.0890   13.6990 N.ar   72  A72        -0.2693
   1457  OP1        8.8350   69.7150   16.0040 O.3    72  A72        -0.4373
   1458  OP2        8.5350   68.9450   13.5940 O.co2  72  A72        -0.5172
   1459  P         10.8470   64.1060   17.6760 P.3    73  A73         0.2141
   1460  C5'       10.9200   61.7080   16.6650 C.3    73  A73         0.1812
   1461  O5'       11.2070   63.0820   16.5100 O.3    73  A73        -0.3114
   1462  C4'       11.9250   60.8960   15.8840 C.3    73  A73         0.1773
   1463  O4'       11.8520   61.2530   14.4930 O.3    73  A73        -0.3307
   1464  C3'       13.3600   61.1680   16.2860 C.3    73  A73         0.1860
   1465  O3'       13.7640   60.1450   17.1830 O.3    73  A73        -0.3112
   1466  C2'       14.1560   61.2060   14.9680 C.3    73  A73         0.2309
   1467  O2'       15.1560   60.2080   14.8850 O.3    73  A73        -0.2156
   1468  C1'       13.0950   60.9770   13.8910 C.3    73  A73         0.2408
   1469  N1        12.4290   61.3800    8.8020 N.ar   73  A73        -0.2040
   1470  C2        12.3180   60.3360    9.6350 C.ar   73  A73         0.2016
   1471  N3        12.5080   60.3020   10.9560 N.ar   73  A73        -0.2048
   1472  C4        12.8680   61.5110   11.4270 C.ar   73  A73         0.1692
   1473  C5        13.0320   62.6700   10.6930 C.ar   73  A73         0.1518
   1474  C6        12.7910   62.5800    9.3080 C.ar   73  A73         0.1919
   1475  N6        12.9110   63.6200    8.4810 N.pl3  73  A73        -0.1054
   1476  N7        13.4100   63.7270   11.5090 N.ar   73  A73        -0.2193
   1477  C8        13.4640   63.1900   12.7060 C.ar   73  A73         0.1816
   1478  N9        13.1680   61.8520   12.7260 N.ar   73  A73        -0.2693
   1479  OP1       11.2790   63.5090   18.9630 O.3    73  A73        -0.4373
   1480  OP2       11.3400   65.4380   17.2620 O.co2  73  A73        -0.5172
   1481  P         14.4970   60.5560   18.5370 P.3    74  U74         0.2141
   1482  C5'       16.8310   61.6730   18.7960 C.3    74  U74         0.1812
   1483  O5'       15.7810   61.3000   17.9510 O.3    74  U74        -0.3114
   1484  C4'       18.1480   61.4360   18.0970 C.3    74  U74         0.1773
   1485  O4'       19.1790   61.3590   19.1080 O.3    74  U74        -0.3307
   1486  C3'       18.2260   60.1370   17.3030 C.3    74  U74         0.1860
   1487  O3'       19.0800   60.2780   16.1420 O.3    74  U74        -0.3112
   1488  C2'       18.7820   59.1500   18.3300 C.3    74  U74         0.2309
   1489  O2'       19.6240   58.1750   17.7520 O.3    74  U74        -0.2156
   1490  C1'       19.6190   60.0310   19.2530 C.3    74  U74         0.2420
   1491  N1        19.5490   59.6540   20.6950 N.ar   74  U74        -0.2534
   1492  C2        20.7050   59.6990   21.4500 C.ar   74  U74         0.3546
   1493  O2        21.7840   60.0410   21.0030 O.2    74  U74        -0.2443
   1494  N3        20.5610   59.3240   22.7600 N.ar   74  U74        -0.1530
   1495  C4        19.3980   58.9170   23.3780 C.ar   74  U74         0.2846
   1496  O4        19.4260   58.6140   24.5640 O.2    74  U74        -0.2650
   1497  C5        18.2300   58.8940   22.5290 C.ar   74  U74         0.0814
   1498  C6        18.3470   59.2540   21.2450 C.ar   74  U74         0.0870
   1499  OP1       14.9390   59.3160   19.2170 O.2    74  U74        -0.5172
   1500  OP2       13.6550   61.5540   19.2470 O.co2  74  U74        -0.4373
   1501  P         18.5180   60.0190   14.6530 P.3    75  U75         0.2141
   1502  C5'       18.6310   57.4770   14.3360 C.3    75  U75         0.1812
   1503  O5'       17.8590   58.5700   14.7330 O.3    75  U75        -0.3114
   1504  C4'       17.7950   56.4850   13.5650 C.3    75  U75         0.1773
   1505  O4'       16.6680   56.0740   14.3760 O.3    75  U75        -0.3307
   1506  C3'       17.2250   56.9890   12.2430 C.3    75  U75         0.1860
   1507  O3'       17.5230   56.0370   11.2470 O.3    75  U75        -0.3112
   1508  C2'       15.7200   57.0260   12.4950 C.3    75  U75         0.2309
   1509  O2'       14.9680   56.6880   11.3470 O.3    75  U75        -0.2156
   1510  C1'       15.5680   55.9180   13.5210 C.3    75  U75         0.2420
   1511  N1        14.3120   56.0060   14.2870 N.ar   75  U75        -0.2534
   1512  C2        13.2760   55.1650   13.9380 C.ar   75  U75         0.3546
   1513  O2        13.3570   54.3390   13.0460 O.2    75  U75        -0.2443
   1514  N3        12.1380   55.3040   14.6840 N.ar   75  U75        -0.1530
   1515  C4        11.9370   56.1860   15.7210 C.ar   75  U75         0.2846
   1516  O4        10.8530   56.1890   16.2930 O.2    75  U75        -0.2650
   1517  C5        13.0580   57.0430   16.0270 C.ar   75  U75         0.0814
   1518  C6        14.1830   56.9250   15.3100 C.ar   75  U75         0.0870
   1519  OP1       19.6550   59.8970   13.7160 O.2    75  U75        -0.5172
   1520  OP2       17.4540   61.0230   14.4000 O.co2  75  U75        -0.4373
   1521  P         18.3250   56.4260    9.9180 P.3    76  C76         0.2141
   1522  C5'       16.3950   56.7830    8.1820 C.3    76  C76         0.1812
   1523  O5'       17.3020   57.3620    9.1120 O.3    76  C76        -0.3114
   1524  C4'       15.9560   57.7680    7.1170 C.3    76  C76         0.1773
   1525  O4'       14.9920   58.6990    7.6770 O.3    76  C76        -0.3307
   1526  C3'       17.0700   58.6060    6.5060 C.3    76  C76         0.1860
   1527  O3'       17.4950   57.9750    5.3070 O.3    76  C76        -0.3112
   1528  C2'       16.3830   59.9470    6.2340 C.3    76  C76         0.2309
   1529  O2'       15.7150   59.9750    4.9850 O.3    76  C76        -0.2156
   1530  C1'       15.3470   60.0340    7.3560 C.3    76  C76         0.2420
   1531  N1        15.8250   60.7350    8.5960 N.ar   76  C76        -0.2535
   1532  C2        16.0570   62.1150    8.5830 C.ar   76  C76         0.3532
   1533  O2        15.8640   62.7480    7.5380 O.2    76  C76        -0.2443
   1534  N3        16.4940   62.7210    9.7210 N.ar   76  C76        -0.1739
   1535  C4        16.6820   62.0090   10.8350 C.ar   76  C76         0.1759
   1536  N4        17.1080   62.6360   11.9330 N.pl3  76  C76        -0.1070
   1537  C5        16.4420   60.6090   10.8690 C.ar   76  C76         0.0566
   1538  C6        16.0190   60.0230    9.7430 C.ar   76  C76         0.0850
   1539  OP1       18.5420   55.1590    9.1750 O.2    76  C76        -0.5172
   1540  OP2       19.4870   57.2630   10.2880 O.co2  76  C76        -0.4373
   1541  P         18.9970   58.1300    4.7840 P.3    77  C77         0.2141
   1542  C5'       18.9970   60.2810    3.2800 C.3    77  C77         0.1812
   1543  O5'       19.1350   59.7110    4.5650 O.3    77  C77        -0.3114
   1544  C4'       19.3590   61.7500    3.3270 C.3    77  C77         0.1773
   1545  O4'       18.6380   62.3840    4.4060 O.3    77  C77        -0.3307
   1546  C3'       20.8060   62.0430    3.6590 C.3    77  C77         0.1860
   1547  O3'       21.5910   61.9510    2.5060 O.3    77  C77        -0.3112
   1548  C2'       20.7140   63.4810    4.1430 C.3    77  C77         0.2309
   1549  O2'       20.6160   64.4090    3.0840 O.3    77  C77        -0.2156
   1550  C1'       19.4120   63.4440    4.9330 C.3    77  C77         0.2420
   1551  N1        19.6240   63.2350    6.3990 N.ar   77  C77        -0.2535
   1552  C2        20.1650   64.2830    7.1520 C.ar   77  C77         0.3532
   1553  O2        20.4560   65.3380    6.5910 O.2    77  C77        -0.2443
   1554  N3        20.3640   64.1160    8.4760 N.ar   77  C77        -0.1739
   1555  C4        20.0520   62.9590    9.0510 C.ar   77  C77         0.1759
   1556  N4        20.2760   62.8630   10.3620 N.pl3  77  C77        -0.1070
   1557  C5        19.4990   61.8640    8.3120 C.ar   77  C77         0.0566
   1558  C6        19.3070   62.0430    6.9970 C.ar   77  C77         0.0850
   1559  OP1       19.0970   57.4250    3.4890 O.2    77  C77        -0.5172
   1560  OP2       19.9170   57.7670    5.8820 O.co2  77  C77        -0.4373
   1561  P         23.0920   61.4420    2.6490 P.3    78  A78         0.2141
   1562  C5'       24.1830   63.8370    2.6150 C.3    78  A78         0.1812
   1563  O5'       23.8140   62.6850    3.3630 O.3    78  A78        -0.3114
   1564  C4'       24.8230   64.8960    3.5010 C.3    78  A78         0.1773
   1565  O4'       23.8890   65.3130    4.5260 O.3    78  A78        -0.3307
   1566  C3'       26.0350   64.4610    4.3070 C.3    78  A78         0.1860
   1567  O3'       27.2070   64.4680    3.5300 O.3    78  A78        -0.3112
   1568  C2'       26.0870   65.5340    5.3790 C.3    78  A78         0.2309
   1569  O2'       26.6270   66.7500    4.9060 O.3    78  A78        -0.2156
   1570  C1'       24.6070   65.6940    5.6900 C.3    78  A78         0.2408
   1571  N1        24.5340   65.1550   10.7990 N.ar   78  A78        -0.2040
   1572  C2        25.0340   66.1130   10.0040 C.ar   78  A78         0.2016
   1573  N3        25.0180   66.1910    8.6720 N.ar   78  A78        -0.2048
   1574  C4        24.4010   65.1190    8.1430 C.ar   78  A78         0.1692
   1575  C5        23.8380   64.0580    8.8280 C.ar   78  A78         0.1518
   1576  C6        23.9190   64.0950   10.2340 C.ar   78  A78         0.1919
   1577  N6        23.4250   63.1440   11.0300 N.pl3  78  A78        -0.1054
   1578  N7        23.2870   63.1470    7.9480 N.ar   78  A78        -0.2193
   1579  C8        23.5270   63.6630    6.7660 C.ar   78  A78         0.1816
   1580  N9        24.1910   64.8570    6.8120 N.ar   78  A78        -0.2693
   1581  OP1       23.6220   61.2730    1.2770 O.2    78  A78        -0.5172
   1582  OP2       23.1030   60.2870    3.5840 O.co2  78  A78        -0.4373
   1583  P         28.2010   63.2300    3.6890 P.3    79  A79         0.2141
   1584  C5'       29.6140   65.0060    5.0170 C.3    79  A79         0.1812
   1585  O5'       29.1570   63.6720    4.8900 O.3    79  A79        -0.3114
   1586  C4'       29.8560   65.3210    6.4790 C.3    79  A79         0.1773
   1587  O4'       28.6110   65.2230    7.2070 O.3    79  A79        -0.3307
   1588  C3'       30.7260   64.3250    7.2230 C.3    79  A79         0.1860
   1589  O3'       32.0970   64.4970    6.9310 O.3    79  A79        -0.3112
   1590  C2'       30.3940   64.6530    8.6730 C.3    79  A79         0.2309
   1591  O2'       31.1240   65.7500    9.1840 O.3    79  A79        -0.2156
   1592  C1'       28.9090   64.9920    8.5750 C.3    79  A79         0.2408
   1593  N1        26.7810   62.8910   12.7480 N.ar   79  A79        -0.2040
   1594  C2        27.5310   63.9850   12.5780 C.ar   79  A79         0.2016
   1595  N3        28.0490   64.4730   11.4540 N.ar   79  A79        -0.2048
   1596  C4        27.7270   63.7050   10.4010 C.ar   79  A79         0.1692
   1597  C5        26.9630   62.5580   10.4140 C.ar   79  A79         0.1518
   1598  C6        26.4660   62.1440   11.6700 C.ar   79  A79         0.1919
   1599  N6        25.7050   61.0620   11.8510 N.pl3  79  A79        -0.1054
   1600  N7        26.8400   62.0420    9.1340 N.ar   79  A79        -0.2193
   1601  C8        27.5270   62.8740    8.3860 C.ar   79  A79         0.1816
   1602  N9        28.0780   63.9070    9.0880 N.ar   79  A79        -0.2693
   1603  OP1       28.9840   63.1160    2.4410 O.2    79  A79        -0.5172
   1604  OP2       27.4160   62.0710    4.1690 O.co2  79  A79        -0.4373
   1605  P         33.0410   63.2120    7.0260 P.3    80  A80         0.2141
   1606  C5'       33.9930   64.1120    9.2980 C.3    80  A80         0.1812
   1607  O5'       33.2990   63.0780    8.5970 O.3    80  A80        -0.3114
   1608  C4'       33.7610   64.0040   10.7950 C.3    80  A80         0.1773
   1609  O4'       32.3390   64.0610   11.0920 O.3    80  A80        -0.3307
   1610  C3'       34.1940   62.6870   11.4070 C.3    80  A80         0.1860
   1611  O3'       35.5820   62.6640   11.6310 O.3    80  A80        -0.3112
   1612  C2'       33.3960   62.6810   12.7060 C.3    80  A80         0.2309
   1613  O2'       33.9710   63.4840   13.7190 O.3    80  A80        -0.2156
   1614  C1'       32.0720   63.2690   12.2360 C.3    80  A80         0.2408
   1615  N1        28.5240   59.9680   13.8860 N.ar   80  A80        -0.2040
   1616  C2        29.2770   60.8660   14.5310 C.ar   80  A80         0.2016
   1617  N3        30.1900   61.6970   14.0340 N.ar   80  A80        -0.2048
   1618  C4        30.3070   61.5400   12.7050 C.ar   80  A80         0.1692
   1619  C5        29.6060   60.6620   11.9040 C.ar   80  A80         0.1518
   1620  C6        28.6680   59.8310   12.5480 C.ar   80  A80         0.1919
   1621  N6        27.9260   58.9240   11.9030 N.pl3  80  A80        -0.1054
   1622  N7        29.9970   60.7850   10.5810 N.ar   80  A80        -0.2193
   1623  C8        30.9120   61.7250   10.6090 C.ar   80  A80         0.1816
   1624  N9        31.1350   62.2290   11.8590 N.ar   80  A80        -0.2693
   1625  OP1       34.3210   63.5240    6.3550 O.2    80  A80        -0.5172
   1626  OP2       32.2530   62.0340    6.6050 O.co2  80  A80        -0.4373
   1627  P         36.2740   61.2780   12.0150 P.3    81  A81         0.2141
   1628  C5'       35.7540   59.7860   14.0580 C.3    81  A81         0.1812
   1629  O5'       35.8460   61.0880   13.5400 O.3    81  A81        -0.3114
   1630  C4'       34.8770   59.7800   15.2830 C.3    81  A81         0.1773
   1631  O4'       33.5130   60.0940   14.9200 O.3    81  A81        -0.3307
   1632  C3'       34.7700   58.4140   15.9120 C.3    81  A81         0.1860
   1633  O3'       35.9000   58.1710   16.7080 O.3    81  A81        -0.3112
   1634  C2'       33.4910   58.5440   16.7210 C.3    81  A81         0.2309
   1635  O2'       33.6680   59.1770   17.9690 O.3    81  A81        -0.2156
   1636  C1'       32.6350   59.3940   15.7880 C.3    81  A81         0.2408
   1637  N1        28.5940   56.2560   15.9650 N.ar   81  A81        -0.2040
   1638  C2        29.2130   56.9760   16.9080 C.ar   81  A81         0.2016
   1639  N3        30.2660   57.7840   16.7820 N.ar   81  A81        -0.2048
   1640  C4        30.7060   57.8070   15.5110 C.ar   81  A81         0.1692
   1641  C5        30.1800   57.1210   14.4340 C.ar   81  A81         0.1518
   1642  C6        29.0590   56.3060   14.6980 C.ar   81  A81         0.1919
   1643  N6        28.4460   55.5800   13.7630 N.pl3  81  A81        -0.1054
   1644  N7        30.8950   57.4000   13.2770 N.ar   81  A81        -0.2193
   1645  C8        31.8260   58.2360   13.6780 C.ar   81  A81         0.1816
   1646  N9        31.7540   58.5370   15.0100 N.ar   81  A81        -0.2693
   1647  OP1       37.7480   61.4620   11.9410 O.3    81  A81        -0.4373
   1648  OP2       35.6040   60.1920   11.2500 O.co2  81  A81        -0.5172
   1649  P         36.5630   56.7170   16.6530 P.3    82  C82         0.2141
   1650  C5'       35.1360   56.3470   18.8210 C.3    82  C82         0.1812
   1651  O5'       35.5620   55.8370   17.5500 O.3    82  C82        -0.3114
   1652  C4'       33.9320   55.6080   19.3730 C.3    82  C82         0.1773
   1653  O4'       32.7430   55.9400   18.6250 O.3    82  C82        -0.3307
   1654  C3'       34.0090   54.1010   19.2900 C.3    82  C82         0.1860
   1655  O3'       34.7520   53.6340   20.3850 O.3    82  C82        -0.3112
   1656  C2'       32.5390   53.7270   19.4040 C.3    82  C82         0.2309
   1657  O2'       32.0820   53.8390   20.7350 O.3    82  C82        -0.2156
   1658  C1'       31.8920   54.8100   18.5510 C.3    82  C82         0.2420
   1659  N1        31.6930   54.4520   17.1050 N.ar   82  C82        -0.2535
   1660  C2        30.5710   53.7110   16.6990 C.ar   82  C82         0.3532
   1661  O2        29.7500   53.3340   17.5430 O.2    82  C82        -0.2443
   1662  N3        30.4170   53.4170   15.3790 N.ar   82  C82        -0.1739
   1663  C4        31.3230   53.8310   14.4890 C.ar   82  C82         0.1759
   1664  N4        31.1310   53.5310   13.2030 N.pl3  82  C82        -0.1070
   1665  C5        32.4650   54.5830   14.8790 C.ar   82  C82         0.0566
   1666  C6        32.6020   54.8710   16.1780 C.ar   82  C82         0.0850
   1667  OP1       37.8770   56.8200   17.3230 O.3    82  C82        -0.4373
   1668  OP2       36.4830   56.2040   15.2680 O.co2  82  C82        -0.5172
   1669  P         35.2680   52.1320   20.4060 P.3    83  C83         0.2141
   1670  C5'       33.3810   50.9700   21.7520 C.3    83  C83         0.1812
   1671  O5'       33.9060   51.3150   20.5000 O.3    83  C83        -0.3114
   1672  C4'       32.2360   50.0170   21.5450 C.3    83  C83         0.1773
   1673  O4'       31.4520   50.4590   20.4180 O.3    83  C83        -0.3307
   1674  C3'       32.6620   48.6210   21.1660 C.3    83  C83         0.1860
   1675  O3'       32.9590   47.9140   22.3420 O.3    83  C83        -0.3112
   1676  C2'       31.4080   48.0920   20.4730 C.3    83  C83         0.2309
   1677  O2'       30.4390   47.5740   21.3630 O.3    83  C83        -0.2156
   1678  C1'       30.8390   49.3390   19.8120 C.3    83  C83         0.2420
   1679  N1        31.0630   49.3920   18.3430 N.ar   83  C83        -0.2535
   1680  C2        30.2380   48.6480   17.4910 C.ar   83  C83         0.3532
   1681  O2        29.3400   47.9530   17.9700 O.2    83  C83        -0.2443
   1682  N3        30.4450   48.7070   16.1560 N.ar   83  C83        -0.1739
   1683  C4        31.4220   49.4700   15.6740 C.ar   83  C83         0.1759
   1684  N4        31.5770   49.5020   14.3540 N.pl3  83  C83        -0.1070
   1685  C5        32.2760   50.2380   16.5180 C.ar   83  C83         0.0566
   1686  C6        32.0630   50.1700   17.8360 C.ar   83  C83         0.0850
   1687  OP1       36.0340   51.9510   21.6580 O.3    83  C83        -0.4373
   1688  OP2       35.8670   51.8060   19.0890 O.co2  83  C83        -0.5172
   1689  P         34.1460   46.8570   22.3310 P.3    84  G84         0.2141
   1690  C5'       32.3790   44.9760   22.5970 C.3    84  G84         0.1812
   1691  O5'       33.4590   45.5040   21.8720 O.3    84  G84        -0.3114
   1692  C4'       31.6200   44.0440   21.6900 C.3    84  G84         0.1773
   1693  O4'       31.1610   44.7920   20.5500 O.3    84  G84        -0.3307
   1694  C3'       32.4660   42.9250   21.1240 C.3    84  G84         0.1860
   1695  O3'       32.3100   41.8300   21.9800 O.3    84  G84        -0.3112
   1696  C2'       31.8320   42.6580   19.7620 C.3    84  G84         0.2309
   1697  O2'       30.7750   41.7210   19.8480 O.3    84  G84        -0.2156
   1698  C1'       31.2510   44.0100   19.3760 C.3    84  G84         0.2408
   1699  N1        31.2950   45.5750   14.5170 N.ar   84  G84        -0.1709
   1700  C2        30.4250   44.7220   15.1490 C.ar   84  G84         0.2606
   1701  N2        29.4280   44.2340   14.3990 N.pl3  84  G84        -0.0859
   1702  N3        30.5210   44.3800   16.4290 N.ar   84  G84        -0.1918
   1703  C4        31.5820   44.9660   17.0380 C.ar   84  G84         0.1723
   1704  C5        32.5020   45.8350   16.4920 C.ar   84  G84         0.1748
   1705  C6        32.3840   46.1900   15.1240 C.ar   84  G84         0.3023
   1706  O6        33.1040   46.9370   14.4530 O.2    84  G84        -0.2633
   1707  N7        33.4350   46.2240   17.4470 N.ar   84  G84        -0.2173
   1708  C8        33.0670   45.5910   18.5310 C.ar   84  G84         0.1817
   1709  N9        31.9590   44.7930   18.3550 N.ar   84  G84        -0.2693
   1710  OP1       34.6290   46.7040   23.7170 O.3    84  G84        -0.4373
   1711  OP2       35.0690   47.2380   21.2460 O.co2  84  G84        -0.5172
   1712  P         33.4450   40.7300   22.1280 P.3    85  A85         0.2141
   1713  C5'       32.1630   39.9890   24.2550 C.3    85  A85         0.1812
   1714  O5'       32.6950   39.6190   22.9970 O.3    85  A85        -0.3114
   1715  C4'       31.6530   38.7870   25.0260 C.3    85  A85         0.1773
   1716  O4'       30.5120   38.1860   24.3520 O.3    85  A85        -0.3307
   1717  C3'       32.6430   37.6510   25.2180 C.3    85  A85         0.1860
   1718  O3'       33.4580   37.9520   26.3210 O.3    85  A85        -0.3112
   1719  C2'       31.6830   36.5080   25.5290 C.3    85  A85         0.2309
   1720  O2'       31.1770   36.5550   26.8550 O.3    85  A85        -0.2156
   1721  C1'       30.5640   36.7790   24.5170 C.3    85  A85         0.2408
   1722  N1        30.7100   32.3970   21.8170 N.ar   85  A85        -0.2040
   1723  C2        30.4040   32.6490   23.0980 C.ar   85  A85         0.2016
   1724  N3        30.3850   33.8090   23.7450 N.ar   85  A85        -0.2048
   1725  C4        30.7170   34.8100   22.9130 C.ar   85  A85         0.1692
   1726  C5        31.0480   34.7050   21.5700 C.ar   85  A85         0.1518
   1727  C6        31.0370   33.4190   21.0070 C.ar   85  A85         0.1919
   1728  N6        31.3330   33.1690   19.7270 N.pl3  85  A85        -0.1054
   1729  N7        31.3490   35.9400   21.0380 N.ar   85  A85        -0.2193
   1730  C8        31.1820   36.7610   22.0500 C.ar   85  A85         0.1816
   1731  N9        30.7980   36.1500   23.2130 N.ar   85  A85        -0.2693
   1732  OP1       34.5560   41.3150   22.9080 O.3    85  A85        -0.4373
   1733  OP2       33.7110   40.1460   20.7980 O.co2  85  A85        -0.5172
   1734  P         34.8950   37.2810   26.4910 P.3    86  C86         0.2141
   1735  C5'       34.5730   34.8840   27.5190 C.3    86  C86         0.1812
   1736  O5'       34.5780   35.7150   26.3640 O.3    86  C86        -0.3114
   1737  C4'       34.1100   33.4800   27.1830 C.3    86  C86         0.1773
   1738  O4'       33.1270   33.5240   26.1250 O.3    86  C86        -0.3307
   1739  C3'       35.1760   32.5620   26.6170 C.3    86  C86         0.1860
   1740  O3'       35.9500   32.0230   27.6410 O.3    86  C86        -0.3112
   1741  C2'       34.3280   31.4940   25.9570 C.3    86  C86         0.2309
   1742  O2'       33.7290   30.6130   26.8900 O.3    86  C86        -0.2156
   1743  C1'       33.2640   32.3700   25.3140 C.3    86  C86         0.2420
   1744  N1        33.5970   32.7620   23.9100 N.ar   86  C86        -0.2535
   1745  C2        33.6330   31.7760   22.9190 C.ar   86  C86         0.3532
   1746  O2        33.4070   30.6020   23.2270 O.2    86  C86        -0.2443
   1747  N3        33.9160   32.1280   21.6450 N.ar   86  C86        -0.1739
   1748  C4        34.1680   33.3920   21.3450 C.ar   86  C86         0.1759
   1749  N4        34.4480   33.6710   20.0750 N.pl3  86  C86        -0.1070
   1750  C5        34.1390   34.4180   22.3310 C.ar   86  C86         0.0566
   1751  C6        33.8510   34.0640   23.5890 C.ar   86  C86         0.0850
   1752  OP1       35.3520   37.5710   27.8660 O.3    86  C86        -0.4373
   1753  OP2       35.7510   37.6770   25.3470 O.co2  86  C86        -0.5172
   1754  P         37.5060   32.3190   27.5990 P.3    87  A87         0.2141
   1755  C5'       37.6180   29.7040   27.3260 C.3    87  A87         0.1812
   1756  O5'       38.1210   30.9890   26.9550 O.3    87  A87        -0.3114
   1757  C4'       37.6950   28.7240   26.1690 C.3    87  A87         0.1773
   1758  O4'       36.6760   29.0390   25.1930 O.3    87  A87        -0.3307
   1759  C3'       38.9660   28.7850   25.3490 C.3    87  A87         0.1860
   1760  O3'       40.0170   28.1220   25.9890 O.3    87  A87        -0.3112
   1761  C2'       38.5370   28.1060   24.0570 C.3    87  A87         0.2309
   1762  O2'       38.4890   26.7040   24.1330 O.3    87  A87        -0.2156
   1763  C1'       37.1280   28.6530   23.9050 C.3    87  A87         0.2408
   1764  N1        37.6510   30.3310   19.0840 N.ar   87  A87        -0.2040
   1765  C2        37.7600   29.1050   19.6160 C.ar   87  A87         0.2016
   1766  N3        37.6090   28.7340   20.8870 N.ar   87  A87        -0.2048
   1767  C4        37.3230   29.7990   21.6620 C.ar   87  A87         0.1692
   1768  C5        37.1880   31.1150   21.2580 C.ar   87  A87         0.1518
   1769  C6        37.3640   31.3760   19.8880 C.ar   87  A87         0.1919
   1770  N6        37.2670   32.5950   19.3570 N.pl3  87  A87        -0.1054
   1771  N7        36.8940   31.9350   22.3320 N.ar   87  A87        -0.2193
   1772  C8        36.8490   31.1090   23.3530 C.ar   87  A87         0.1816
   1773  N9        37.0920   29.8060   23.0170 N.ar   87  A87        -0.2693
   1774  OP1       37.9700   32.4710   28.9910 O.3    87  A87        -0.4373
   1775  OP2       37.7240   33.4250   26.6410 O.co2  87  A87        -0.5172
   1776  P         41.4640   28.7870   25.9340 P.3    88  G88         0.2141
   1777  C5'       42.1950   27.1520   24.0380 C.3    88  G88         0.1812
   1778  O5'       41.9300   28.5000   24.4290 O.3    88  G88        -0.3114
   1779  C4'       42.4320   27.0080   22.5460 C.3    88  G88         0.1773
   1780  O4'       41.3240   27.5580   21.8000 O.3    88  G88        -0.3307
   1781  C3'       43.6390   27.7460   22.0080 C.3    88  G88         0.1860
   1782  O3'       44.8070   27.0000   22.2540 O.3    88  G88        -0.3112
   1783  C2'       43.3050   27.8410   20.5190 C.3    88  G88         0.2309
   1784  O2'       43.6800   26.6980   19.7790 O.3    88  G88        -0.2156
   1785  C1'       41.7830   28.0030   20.5360 C.3    88  G88         0.2408
   1786  N1        40.8560   31.7500   17.2140 N.ar   88  G88        -0.1709
   1787  C2        41.2460   30.4520   16.9740 C.ar   88  G88         0.2606
   1788  N2        41.4070   30.1030   15.6900 N.pl3  88  G88        -0.0859
   1789  N3        41.4550   29.5540   17.9270 N.ar   88  G88        -0.1918
   1790  C4        41.2450   30.0700   19.1630 C.ar   88  G88         0.1723
   1791  C5        40.8610   31.3490   19.5040 C.ar   88  G88         0.1748
   1792  C6        40.6320   32.2940   18.4790 C.ar   88  G88         0.3023
   1793  O6        40.2840   33.4780   18.5990 O.2    88  G88        -0.2633
   1794  N7        40.7570   31.4880   20.8800 N.ar   88  G88        -0.2173
   1795  C8        41.0700   30.3080   21.3380 C.ar   88  G88         0.1817
   1796  N9        41.3720   29.3940   20.3540 N.ar   88  G88        -0.2693
   1797  OP1       42.3470   28.0460   26.8610 O.3    88  G88        -0.4373
   1798  OP2       41.3000   30.2400   26.1060 O.co2  88  G88        -0.5172
   1799  P         46.0810   27.7060   22.9200 P.3    89  U89         0.2141
   1800  C5'       46.9200   27.7690   20.4400 C.3    89  U89         0.1812
   1801  O5'       46.8120   28.4330   21.6970 O.3    89  U89        -0.3114
   1802  C4'       47.0440   28.7730   19.3130 C.3    89  U89         0.1773
   1803  O4'       45.7580   29.3560   19.0070 O.3    89  U89        -0.3307
   1804  C3'       47.9230   29.9620   19.6280 C.3    89  U89         0.1860
   1805  O3'       49.2720   29.5730   19.4230 O.3    89  U89        -0.3112
   1806  C2'       47.4370   30.9700   18.5910 C.3    89  U89         0.2309
   1807  O2'       48.0550   30.7800   17.3360 O.3    89  U89        -0.2156
   1808  C1'       45.9490   30.6510   18.4710 C.3    89  U89         0.2420
   1809  N1        45.0190   31.6290   19.1590 N.ar   89  U89        -0.2534
   1810  C2        44.3120   32.5470   18.3980 C.ar   89  U89         0.3546
   1811  O2        44.4040   32.6280   17.1890 O.2    89  U89        -0.2443
   1812  N3        43.4900   33.3890   19.1050 N.ar   89  U89        -0.1530
   1813  C4        43.2810   33.4060   20.4700 C.ar   89  U89         0.2846
   1814  O4        42.4950   34.2200   20.9590 O.2    89  U89        -0.2650
   1815  C5        44.0380   32.4170   21.1990 C.ar   89  U89         0.0814
   1816  C6        44.8580   31.5870   20.5340 C.ar   89  U89         0.0870
   1817  OP1       46.9640   26.6340   23.4200 O.2    89  U89        -0.5172
   1818  OP2       45.6130   28.7460   23.8540 O.co2  89  U89        -0.4373
   1819  P         50.5060   30.4150   20.0110 P.3    90  A90         0.2141
   1820  C5'       51.7310   32.4890   19.0950 C.3    90  A90         0.1812
   1821  O5'       50.6370   31.6170   18.9750 O.3    90  A90        -0.3114
   1822  C4'       51.2540   33.8720   19.4780 C.3    90  A90         0.1773
   1823  O4'       52.1900   34.8410   18.9490 O.3    90  A90        -0.3307
   1824  C3'       49.8800   34.2660   18.9400 C.3    90  A90         0.1860
   1825  O3'       49.1920   35.0130   19.9370 O.3    90  A90        -0.3112
   1826  C2'       50.2290   35.1310   17.7310 C.3    90  A90         0.2309
   1827  O2'       49.2510   36.1110   17.4440 O.3    90  A90        -0.2156
   1828  C1'       51.4700   35.8200   18.2550 C.3    90  A90         0.2408
   1829  N1        54.7570   39.5740   17.1560 N.ar   90  A90        -0.2040
   1830  C2        54.1210   39.2430   18.2880 C.ar   90  A90         0.2016
   1831  N3        53.2790   38.2360   18.5030 N.ar   90  A90        -0.2048
   1832  C4        53.1070   37.5140   17.3830 C.ar   90  A90         0.1692
   1833  C5        53.6820   37.7290   16.1500 C.ar   90  A90         0.1518
   1834  C6        54.5580   38.8200   16.0470 C.ar   90  A90         0.1919
   1835  N6        55.1950   39.1430   14.9140 N.pl3  90  A90        -0.1054
   1836  N7        53.2620   36.7800   15.2340 N.ar   90  A90        -0.2193
   1837  C8        52.4380   36.0240   15.9220 C.ar   90  A90         0.1816
   1838  N9        52.3060   36.4110   17.2260 N.ar   90  A90        -0.2693
   1839  OP1       51.7210   29.5760   19.8960 O.2    90  A90        -0.5172
   1840  OP2       50.1370   31.0010   21.3230 O.co2  90  A90        -0.4373
   1841  P         47.7790   34.5320   20.4970 P.3    91  G91         0.2141
   1842  C5'       45.9700   35.8530   21.8200 C.3    91  G91         0.1812
   1843  O5'       47.2450   35.8600   21.1990 O.3    91  G91        -0.3114
   1844  C4'       45.5540   37.2560   22.2140 C.3    91  G91         0.1773
   1845  O4'       46.7180   38.0460   22.5550 O.3    91  G91        -0.3307
   1846  C3'       44.8340   38.0530   21.1420 C.3    91  G91         0.1860
   1847  O3'       43.8580   38.8370   21.7810 O.3    91  G91        -0.3112
   1848  C2'       45.9350   38.9180   20.5300 C.3    91  G91         0.2309
   1849  O2'       45.4440   40.1230   19.9680 O.3    91  G91        -0.2156
   1850  C1'       46.7530   39.2200   21.7700 C.3    91  G91         0.2408
   1851  N1        50.2340   42.8980   21.8530 N.ar   91  G91        -0.1709
   1852  C2        48.8920   42.9550   22.1420 C.ar   91  G91         0.2606
   1853  N2        48.4040   44.1450   22.5170 N.pl3  91  G91        -0.0859
   1854  N3        48.0780   41.9140   22.0780 N.ar   91  G91        -0.1918
   1855  C4        48.7220   40.7890   21.6910 C.ar   91  G91         0.1723
   1856  C5        50.0480   40.6270   21.3760 C.ar   91  G91         0.1748
   1857  C6        50.9080   41.7480   21.4480 C.ar   91  G91         0.3023
   1858  O6        52.1210   41.7980   21.2040 O.2    91  G91        -0.2633
   1859  N7        50.3120   39.3080   21.0230 N.ar   91  G91        -0.2173
   1860  C8        49.1560   38.7120   21.1270 C.ar   91  G91         0.1817
   1861  N9        48.1460   39.5560   21.5250 N.ar   91  G91        -0.2693
   1862  OP1       47.9890   33.4800   21.5230 O.3    91  G91        -0.4373
   1863  OP2       46.9130   34.2450   19.3390 O.co2  91  G91        -0.5172
   1864  P         42.3340   38.4080   21.6520 P.3    92  A92         0.2141
   1865  C5'       42.0060   39.8880   19.5280 C.3    92  A92         0.1812
   1866  O5'       42.0530   38.6000   20.0910 O.3    92  A92        -0.3114
   1867  C4'       40.9510   39.9370   18.4450 C.3    92  A92         0.1773
   1868  O4'       41.3750   39.1090   17.3410 O.3    92  A92        -0.3307
   1869  C3'       39.5850   39.4030   18.8410 C.3    92  A92         0.1860
   1870  O3'       38.6000   40.0880   18.0890 O.3    92  A92        -0.3112
   1871  C2'       39.6700   37.9370   18.4280 C.3    92  A92         0.2309
   1872  O2'       38.4050   37.3810   18.1480 O.3    92  A92        -0.2156
   1873  C1'       40.4600   38.0600   17.1380 C.3    92  A92         0.2408
   1874  N1        42.0060   34.9700   13.3300 N.ar   92  A92        -0.2040
   1875  C2        41.2170   36.0540   13.3410 C.ar   92  A92         0.2016
   1876  N3        40.8480   36.8100   14.3790 N.ar   92  A92        -0.2048
   1877  C4        41.3940   36.3590   15.5260 C.ar   92  A92         0.1692
   1878  C5        42.2290   35.2660   15.6740 C.ar   92  A92         0.1518
   1879  C6        42.5460   34.5410   14.4930 C.ar   92  A92         0.1919
   1880  N6        43.3340   33.4600   14.4640 N.pl3  92  A92        -0.1054
   1881  N7        42.5960   35.1170   17.0060 N.ar   92  A92        -0.2193
   1882  C8        41.9790   36.0990   17.6200 C.ar   92  A92         0.1816
   1883  N9        41.2360   36.8820   16.7870 N.ar   92  A92        -0.2693
   1884  OP1       41.5340   39.3830   22.4110 O.3    92  A92        -0.4373
   1885  OP2       42.2330   36.9610   21.9770 O.co2  92  A92        -0.5172
   1886  P         38.1430   41.5650   18.5060 P.3    93  G93         0.2141
   1887  C5'       35.6630   40.7370   18.5160 C.3    93  G93         0.1812
   1888  O5'       36.6260   41.6450   18.0050 O.3    93  G93        -0.3114
   1889  C4'       34.5120   40.5870   17.5430 C.3    93  G93         0.1773
   1890  O4'       33.8970   41.8760   17.3150 O.3    93  G93        -0.3307
   1891  C3'       34.8910   40.0780   16.1620 C.3    93  G93         0.1860
   1892  O3'       34.7920   38.6640   16.1690 O.3    93  G93        -0.3112
   1893  C2'       33.7900   40.6750   15.3020 C.3    93  G93         0.2309
   1894  O2'       32.5910   39.9410   15.4530 O.3    93  G93        -0.2156
   1895  C1'       33.5910   42.0380   15.9460 C.3    93  G93         0.2408
   1896  N1        34.8020   45.0690   11.9870 N.ar   93  G93        -0.1709
   1897  C2        33.9220   44.0160   12.0160 C.ar   93  G93         0.2606
   1898  N2        33.2840   43.7420   10.8690 N.pl3  93  G93        -0.0859
   1899  N3        33.6800   43.2830   13.0970 N.ar   93  G93        -0.1918
   1900  C4        34.4030   43.6960   14.1670 C.ar   93  G93         0.1723
   1901  C5        35.3000   44.7370   14.2300 C.ar   93  G93         0.1748
   1902  C6        35.5510   45.5120   13.0790 C.ar   93  G93         0.3023
   1903  O6        36.3360   46.4710   12.9660 O.2    93  G93        -0.2633
   1904  N7        35.8370   44.8570   15.4980 N.ar   93  G93        -0.2173
   1905  C8        35.2710   43.8980   16.1700 C.ar   93  G93         0.1817
   1906  N9        34.3980   43.1440   15.4330 N.ar   93  G93        -0.2693
   1907  OP1       38.9500   42.5120   17.7120 O.2    93  G93        -0.5172
   1908  OP2       38.1380   41.6520   19.9840 O.co2  93  G93        -0.4373
   1909  P         35.9880   37.7320   15.6820 P.3    94  U94         0.2141
   1910  C5'       34.6030   37.3600   13.5000 C.3    94  U94         0.1812
   1911  O5'       35.8020   37.8090   14.0980 O.3    94  U94        -0.3114
   1912  C4'       34.5940   37.7150   12.0240 C.3    94  U94         0.1773
   1913  O4'       34.6510   39.1580   11.8910 O.3    94  U94        -0.3307
   1914  C3'       35.7540   37.1510   11.2090 C.3    94  U94         0.1860
   1915  O3'       35.2930   36.5720    9.9990 O.3    94  U94        -0.3112
   1916  C2'       36.6150   38.3690   10.9190 C.3    94  U94         0.2309
   1917  O2'       37.2320   38.2780    9.6550 O.3    94  U94        -0.2156
   1918  C1'       35.6100   39.5110   10.9270 C.3    94  U94         0.2420
   1919  N1        36.2300   40.7730   11.3590 N.ar   94  U94        -0.2534
   1920  C2        36.3910   41.8110   10.4630 C.ar   94  U94         0.3546
   1921  O2        36.0300   41.7550    9.3020 O.2    94  U94        -0.2443
   1922  N3        37.0080   42.9280   10.9850 N.ar   94  U94        -0.1530
   1923  C4        37.4720   43.0960   12.2800 C.ar   94  U94         0.2846
   1924  O4        38.0030   44.1450   12.6150 O.2    94  U94        -0.2650
   1925  C5        37.2690   41.9730   13.1470 C.ar   94  U94         0.0814
   1926  C6        36.6740   40.8770   12.6630 C.ar   94  U94         0.0870
   1927  OP1       35.6790   36.3630   16.1560 O.3    94  U94        -0.4373
   1928  OP2       37.2920   38.3620   16.0140 O.co2  94  U94        -0.5172
   1929  P         35.0260   34.9880    9.9070 P.3    95  C95         0.2141
   1930  C5'       37.2590   34.0860    8.8900 C.3    95  C95         0.1812
   1931  O5'       36.4860   34.3630   10.0440 O.3    95  C95        -0.3114
   1932  C4'       38.3930   33.1590    9.2640 C.3    95  C95         0.1773
   1933  O4'       39.2270   33.8180   10.2370 O.3    95  C95        -0.3307
   1934  C3'       37.9470   31.8980    9.9800 C.3    95  C95         0.1860
   1935  O3'       37.6270   30.9100    9.0430 O.3    95  C95        -0.3112
   1936  C2'       39.1890   31.5080   10.7560 C.3    95  C95         0.2309
   1937  O2'       40.1130   30.8410    9.9320 O.3    95  C95        -0.2156
   1938  C1'       39.7370   32.8640   11.1520 C.3    95  C95         0.2420
   1939  N1        39.3950   33.2980   12.5350 N.ar   95  C95        -0.2535
   1940  C2        40.0670   32.7350   13.6250 C.ar   95  C95         0.3532
   1941  O2        40.9200   31.8660   13.4220 O.2    95  C95        -0.2443
   1942  N3        39.7740   33.1630   14.8770 N.ar   95  C95        -0.1739
   1943  C4        38.8530   34.1100   15.0570 C.ar   95  C95         0.1759
   1944  N4        38.5910   34.5010   16.3100 N.pl3  95  C95        -0.1070
   1945  C5        38.1520   34.6970   13.9590 C.ar   95  C95         0.0566
   1946  C6        38.4590   34.2710   12.7270 C.ar   95  C95         0.0850
   1947  OP1       34.4780   34.6720    8.5630 O.2    95  C95        -0.5172
   1948  OP2       34.2370   34.5820   11.0950 O.co2  95  C95        -0.4373
   1949  P         36.5400   29.8200    9.4280 P.3    96  U96         0.2141
   1950  C5'       38.0980   27.9370   10.3520 C.3    96  U96         0.1812
   1951  O5'       37.2420   29.0270   10.6330 O.3    96  U96        -0.3114
   1952  C4'       38.6380   27.3360   11.6330 C.3    96  U96         0.1773
   1953  O4'       39.2520   28.3700   12.4290 O.3    96  U96        -0.3307
   1954  C3'       37.6140   26.7370   12.5840 C.3    96  U96         0.1860
   1955  O3'       37.2290   25.4540   12.1710 O.3    96  U96        -0.3112
   1956  C2'       38.4120   26.6980   13.8800 C.3    96  U96         0.2309
   1957  O2'       39.4010   25.6860   13.9280 O.3    96  U96        -0.2156
   1958  C1'       39.1070   28.0460   13.8040 C.3    96  U96         0.2420
   1959  N1        38.3480   29.1160   14.4990 N.ar   96  U96        -0.2534
   1960  C2        38.2920   29.1040   15.8810 C.ar   96  U96         0.3546
   1961  O2        38.8320   28.2580   16.5770 O.2    96  U96        -0.2443
   1962  N3        37.5700   30.1390   16.4280 N.ar   96  U96        -0.1530
   1963  C4        36.9290   31.1610   15.7540 C.ar   96  U96         0.2846
   1964  O4        36.3270   32.0120   16.3940 O.2    96  U96        -0.2650
   1965  C5        37.0300   31.1060   14.3190 C.ar   96  U96         0.0814
   1966  C6        37.7180   30.1050   13.7590 C.ar   96  U96         0.0870
   1967  OP1       36.4390   28.9230    8.2620 O.2    96  U96        -0.5172
   1968  OP2       35.3300   30.5010    9.9470 O.co2  96  U96        -0.4373
   1969  P         35.6740   25.1660   12.0150 P.3    97  G97         0.2141
   1970  C5'       35.8520   23.9640   14.3280 C.3    97  G97         0.1812
   1971  O5'       35.1870   24.9330   13.5260 O.3    97  G97        -0.3114
   1972  C4'       35.6760   24.2170   15.8130 C.3    97  G97         0.1773
   1973  O4'       36.2750   25.4760   16.1970 O.3    97  G97        -0.3307
   1974  C3'       34.2480   24.3420   16.3050 C.3    97  G97         0.1860
   1975  O3'       33.6850   23.0770   16.4380 O.3    97  G97        -0.3112
   1976  C2'       34.4740   24.9770   17.6710 C.3    97  G97         0.2309
   1977  O2'       34.8660   24.0650   18.6720 O.3    97  G97        -0.2156
   1978  C1'       35.6330   25.9220   17.3830 C.3    97  G97         0.2408
   1979  N1        33.9720   29.9990   19.8790 N.ar   97  G97        -0.1709
   1980  C2        34.3320   28.7630   20.3630 C.ar   97  G97         0.2606
   1981  N2        34.2580   28.5830   21.6880 N.pl3  97  G97        -0.0859
   1982  N3        34.7480   27.7690   19.5970 N.ar   97  G97        -0.1918
   1983  C4        34.7770   28.1150   18.2830 C.ar   97  G97         0.1723
   1984  C5        34.4430   29.3160   17.7020 C.ar   97  G97         0.1748
   1985  C6        33.9950   30.3730   18.5310 C.ar   97  G97         0.3023
   1986  O6        33.6420   31.5140   18.1930 O.2    97  G97        -0.2633
   1987  N7        34.6120   29.2600   16.3220 N.ar   97  G97        -0.2173
   1988  C8        35.0440   28.0480   16.1020 C.ar   97  G97         0.1817
   1989  N9        35.1800   27.3030   17.2490 N.ar   97  G97        -0.2693
   1990  OP1       35.5220   23.8960   11.2740 O.2    97  G97        -0.5172
   1991  OP2       35.0260   26.3920   11.4940 O.co2  97  G97        -0.4373
   1992  P         32.2510   22.7240   15.8230 P.3    98  G98         0.2141
   1993  C5'       31.6660   21.9520   18.2310 C.3    98  G98         0.1812
   1994  O5'       31.2920   22.7310   17.1050 O.3    98  G98        -0.3114
   1995  C4'       31.1090   22.5220   19.5150 C.3    98  G98         0.1773
   1996  O4'       31.8390   23.7160   19.8880 O.3    98  G98        -0.3307
   1997  C3'       29.6550   22.9500   19.4450 C.3    98  G98         0.1860
   1998  O3'       28.8420   21.8140   19.6740 O.3    98  G98        -0.3112
   1999  C2'       29.5940   23.9170   20.6230 C.3    98  G98         0.2309
   2000  O2'       29.4810   23.2500   21.8630 O.3    98  G98        -0.2156
   2001  C1'       30.9570   24.6070   20.5510 C.3    98  G98         0.2408
   2002  N1        30.8330   29.6930   21.0150 N.ar   98  G98        -0.1709
   2003  C2        30.8440   28.7270   22.0000 C.ar   98  G98         0.2606
   2004  N2        30.8280   29.1600   23.2680 N.pl3  98  G98        -0.0859
   2005  N3        30.8770   27.4230   21.7590 N.ar   98  G98        -0.1918
   2006  C4        30.8920   27.1550   20.4290 C.ar   98  G98         0.1723
   2007  C5        30.8800   28.0490   19.3750 C.ar   98  G98         0.1748
   2008  C6        30.8490   29.4390   19.6430 C.ar   98  G98         0.3023
   2009  O6        30.8370   30.3790   18.8290 O.2    98  G98        -0.2633
   2010  N7        30.9050   27.3780   18.1610 N.ar   98  G98        -0.2173
   2011  C8        30.9300   26.1180   18.4960 C.ar   98  G98         0.1817
   2012  N9        30.9320   25.9010   19.8550 N.ar   98  G98        -0.2693
   2013  OP1       32.3810   21.3340   15.3160 O.3    98  G98        -0.4373
   2014  OP2       31.8000   23.8020   14.9160 O.co2  98  G98        -0.5172
   2015  P         27.5850   21.3820   18.7630 P.3    99  A99         0.2141
   2016  C5'       26.7750   21.8320   16.3200 C.3    99  A99         0.1812
   2017  O5'       27.7310   22.1210   17.3520 O.3    99  A99        -0.3114
   2018  C4'       26.7760   22.8840   15.2180 C.3    99  A99         0.1773
   2019  O4'       26.3200   24.1640   15.7320 O.3    99  A99        -0.3307
   2020  C3'       28.1290   23.1930   14.5930 C.3    99  A99         0.1860
   2021  O3'       27.9280   23.7410   13.2840 O.3    99  A99        -0.3112
   2022  C2'       28.6550   24.2470   15.5610 C.3    99  A99         0.2309
   2023  O2'       29.7110   24.9960   15.0070 O.3    99  A99        -0.2156
   2024  C1'       27.3930   25.0910   15.7390 C.3    99  A99         0.2408
   2025  N1        27.5980   29.7350   17.9610 N.ar   99  A99        -0.2040
   2026  C2        27.7180   29.3510   16.6840 C.ar   99  A99         0.2016
   2027  N3        27.6550   28.1240   16.1710 N.ar   99  A99        -0.2048
   2028  C4        27.4410   27.2140   17.1350 C.ar   99  A99         0.1692
   2029  C5        27.2930   27.4570   18.4900 C.ar   99  A99         0.1518
   2030  C6        27.3830   28.7990   18.9070 C.ar   99  A99         0.1919
   2031  N6        27.2610   29.1840   20.1790 N.pl3  99  A99        -0.1054
   2032  N7        27.0740   26.2770   19.1830 N.ar   99  A99        -0.2193
   2033  C8        27.1010   25.3580   18.2470 C.ar   99  A99         0.1816
   2034  N9        27.3240   25.8500   16.9870 N.ar   99  A99        -0.2693
   2035  OP1       26.3510   21.8730   19.4230 O.3    99  A99        -0.4373
   2036  OP2       27.7700   19.9330   18.5070 O.co2  99  A99        -0.5172
   2037  P         27.8040   22.7830   12.0060 P.3   100  U100        0.2141
   2038  C5'       25.4120   23.8040   11.5260 C.3   100  U100        0.1812
   2039  O5'       26.7510   23.5580   11.0690 O.3   100  U100       -0.3114
   2040  C4'       24.3610   22.9510   10.8120 C.3   100  U100        0.1773
   2041  O4'       24.8450   22.4770    9.5270 O.3   100  U100       -0.3307
   2042  C3'       23.8650   21.7260   11.5850 C.3   100  U100        0.1860
   2043  O3'       22.4220   21.7120   11.6610 O.3   100  U100       -0.3112
   2044  C2'       24.4300   20.5240   10.8160 C.3   100  U100        0.2309
   2045  O2'       23.5130   19.4510   10.7260 O.3   100  U100       -0.2156
   2046  C1'       24.7320   21.0690    9.4180 C.3   100  U100        0.2420
   2047  N1        26.0170   20.5350    8.8200 N.ar  100  U100       -0.2534
   2048  C2        26.0710   19.2530    8.2850 C.ar  100  U100        0.3546
   2049  O2        25.1200   18.4890    8.2560 O.2   100  U100       -0.2443
   2050  N3        27.3040   18.8950    7.7760 N.ar  100  U100       -0.1530
   2051  C4        28.4650   19.6640    7.7450 C.ar  100  U100        0.2846
   2052  O4        29.4980   19.2110    7.2580 O.2   100  U100       -0.2650
   2053  C5        28.3280   20.9800    8.3170 C.ar  100  U100        0.0814
   2054  C6        27.1390   21.3510    8.8150 C.ar  100  U100        0.0870
   2055  OP1       27.1870   21.5180   12.4570 O.3   100  U100       -0.4373
   2056  OP2       29.1280   22.7460   11.3280 O.co2 100  U100       -0.5172
   2057  P         21.6310   22.5330   12.8010 P.3   101  G101        0.2141
   2058  C5'       22.2450   21.2530   15.0450 C.3   101  G101        0.1812
   2059  O5'       22.5290   22.3100   14.1170 O.3   101  G101       -0.3114
   2060  C4'       22.2280   21.7540   16.4840 C.3   101  G101        0.1773
   2061  O4'       23.4780   22.4300   16.8050 O.3   101  G101       -0.3307
   2062  C3'       21.1300   22.7580   16.8260 C.3   101  G101        0.1860
   2063  O3'       19.9140   22.0790   17.1570 O.3   101  G101       -0.3112
   2064  C2'       21.7420   23.4530   18.0400 C.3   101  G101        0.2309
   2065  O2'       21.5610   22.7200   19.2360 O.3   101  G101       -0.2156
   2066  C1'       23.2260   23.5300   17.6690 C.3   101  G101        0.2408
   2067  N1        24.1920   28.5460   18.1430 N.ar  101  G101       -0.1709
   2068  C2        23.9040   27.6240   19.1230 C.ar  101  G101        0.2606
   2069  N2        23.8610   28.0930   20.3790 N.pl3 101  G101       -0.0859
   2070  N3        23.6700   26.3340   18.8890 N.ar  101  G101       -0.1918
   2071  C4        23.7560   26.0320   17.5660 C.ar  101  G101        0.1723
   2072  C5        24.0400   26.8850   16.5180 C.ar  101  G101        0.1748
   2073  C6        24.2810   28.2540   16.7830 C.ar  101  G101        0.3023
   2074  O6        24.5510   29.1500   15.9750 O.2   101  G101       -0.2633
   2075  N7        24.0380   26.2020   15.3100 N.ar  101  G101       -0.2173
   2076  C8        23.7490   24.9760   15.6390 C.ar  101  G101        0.1817
   2077  N9        23.5750   24.7870   16.9920 N.ar  101  G101       -0.2693
   2078  OP1       20.3040   21.8970   13.0010 O.3   101  G101       -0.4373
   2079  OP2       21.7010   23.9710   12.4480 O.co2 101  G101       -0.5172
   2080  P         18.4730   22.7580   16.9320 P.3   102  A102        0.2141
   2081  C5'       18.4120   23.3860   19.4840 C.3   102  A102        0.1812
   2082  O5'       18.3670   23.8240   18.1240 O.3   102  A102       -0.3114
   2083  C4'       18.6920   24.5380   20.4350 C.3   102  A102        0.1773
   2084  O4'       20.0170   25.0710   20.1940 O.3   102  A102       -0.3307
   2085  C3'       17.7650   25.7340   20.2820 C.3   102  A102        0.1860
   2086  O3'       16.5920   25.5550   21.0470 O.3   102  A102       -0.3112
   2087  C2'       18.6180   26.8830   20.8070 C.3   102  A102        0.2309
   2088  O2'       18.6300   26.9910   22.2170 O.3   102  A102       -0.2156
   2089  C1'       19.9940   26.4890   20.2910 C.3   102  A102        0.2408
   2090  N1        21.1590   30.8050   17.7330 N.ar  102  A102       -0.2040
   2091  C2        20.9450   30.5650   19.0360 C.ar  102  A102        0.2016
   2092  N3        20.6390   29.4120   19.6360 N.ar  102  A102       -0.2048
   2093  C4        20.5610   28.4110   18.7400 C.ar  102  A102        0.1692
   2094  C5        20.7570   28.5010   17.3720 C.ar  102  A102        0.1518
   2095  C6        21.0730   29.7770   16.8580 C.ar  102  A102        0.1919
   2096  N6        21.2880   30.0130   15.5600 N.pl3 102  A102       -0.1054
   2097  N7        20.5990   27.2630   16.7700 N.ar  102  A102       -0.2193
   2098  C8        20.3130   26.4640   17.7700 C.ar  102  A102        0.1816
   2099  N9        20.2840   27.0870   18.9880 N.ar  102  A102       -0.2693
   2100  OP1       17.4500   21.7100   17.1490 O.3   102  A102       -0.4373
   2101  OP2       18.4940   23.5000   15.6490 O.co2 102  A102       -0.5172
   2102  P         15.2200   26.1210   20.4680 P.3   103  G103        0.2141
   2103  C5'       15.4820   28.2220   22.0510 C.3   103  G103        0.1812
   2104  O5'       15.3370   27.6960   20.7310 O.3   103  G103       -0.3114
   2105  C4'       16.0260   29.6350   21.9750 C.3   103  G103        0.1773
   2106  O4'       17.2270   29.6270   21.1710 O.3   103  G103       -0.3307
   2107  C3'       15.1360   30.6170   21.2310 C.3   103  G103        0.1860
   2108  O3'       14.1200   31.1380   22.0570 O.3   103  G103       -0.3112
   2109  C2'       16.1210   31.6840   20.7670 C.3   103  G103        0.2309
   2110  O2'       16.5130   32.5770   21.7910 O.3   103  G103       -0.2156
   2111  C1'       17.2970   30.8050   20.3810 C.3   103  G103        0.2408
   2112  N1        18.3700   32.4260   15.6740 N.ar  103  G103       -0.1709
   2113  C2        18.4570   33.0970   16.8750 C.ar  103  G103        0.2606
   2114  N2        18.8880   34.3640   16.8270 N.pl3 103  G103       -0.0859
   2115  N3        18.1400   32.5620   18.0480 N.ar  103  G103       -0.1918
   2116  C4        17.7200   31.2720   17.9290 C.ar  103  G103        0.1723
   2117  C5        17.6050   30.5130   16.7820 C.ar  103  G103        0.1748
   2118  C6        17.9450   31.1010   15.5320 C.ar  103  G103        0.3023
   2119  O6        17.9040   30.5890   14.4030 O.2   103  G103       -0.2633
   2120  N7        17.1480   29.2350   17.0890 N.ar  103  G103       -0.2173
   2121  C8        16.9980   29.2470   18.3870 C.ar  103  G103        0.1817
   2122  N9        17.3250   30.4520   18.9630 N.ar  103  G103       -0.2693
   2123  OP1       14.1080   25.5780   21.2830 O.3   103  G103       -0.4373
   2124  OP2       15.2380   25.9000   19.0030 O.co2 103  G103       -0.5172
   2125  P         12.7480   31.5370   21.3500 P.3   104  A104        0.2141
   2126  C5'       12.9710   33.9770   22.2740 C.3   104  A104        0.1812
   2127  O5'       12.8880   33.1170   21.1480 O.3   104  A104       -0.3114
   2128  C4'       13.5510   35.3140   21.8690 C.3   104  A104        0.1773
   2129  O4'       14.7580   35.1000   21.0940 O.3   104  A104       -0.3307
   2130  C3'       12.6680   36.1520   20.9610 C.3   104  A104        0.1860
   2131  O3'       11.7350   36.8780   21.7280 O.3   104  A104       -0.3112
   2132  C2'       13.6960   37.0750   20.3240 C.3   104  A104        0.2309
   2133  O2'       14.0710   38.1500   21.1670 O.3   104  A104       -0.2156
   2134  C1'       14.8680   36.1160   20.1140 C.3   104  A104        0.2408
   2135  N1        16.7250   36.2340   15.3220 N.ar  104  A104       -0.2040
   2136  C2        16.9940   36.9780   16.4010 C.ar  104  A104        0.2016
   2137  N3        16.4740   36.8940   17.6240 N.ar  104  A104       -0.2048
   2138  C4        15.5770   35.8960   17.6940 C.ar  104  A104        0.1692
   2139  C5        15.2010   35.0460   16.6730 C.ar  104  A104        0.1518
   2140  C6        15.8200   35.2400   15.4250 C.ar  104  A104        0.1919
   2141  N6        15.5520   34.4970   14.3510 N.pl3 104  A104       -0.1054
   2142  N7        14.2460   34.1460   17.1100 N.ar  104  A104       -0.2193
   2143  C8        14.0680   34.4660   18.3680 C.ar  104  A104        0.1816
   2144  N9        14.8470   35.5060   18.7900 N.ar  104  A104       -0.2693
   2145  OP1       11.6370   31.2640   22.2950 O.3   104  A104       -0.4373
   2146  OP2       12.7490   30.9170   20.0060 O.co2 104  A104       -0.5172
   2147  P         10.1710   36.5520   21.6400 P.3   105  G105        0.2141
   2148  C5'        9.3650   37.3760   19.2900 C.3   105  G105        0.1812
   2149  O5'        9.8850   36.3240   20.0810 O.3   105  G105       -0.3114
   2150  C4'       10.1020   37.4860   17.9710 C.3   105  G105        0.1773
   2151  O4'       11.1870   36.5300   17.8860 O.3   105  G105       -0.3307
   2152  C3'        9.2590   37.1860   16.7550 C.3   105  G105        0.1860
   2153  O3'        8.5170   38.3220   16.4410 O.3   105  G105       -0.3112
   2154  C2'       10.3260   36.9000   15.7110 C.3   105  G105        0.2309
   2155  O2'       10.9230   38.0620   15.1720 O.3   105  G105       -0.2156
   2156  C1'       11.3450   36.1260   16.5370 C.3   105  G105        0.2408
   2157  N1        11.5120   32.0680   13.5060 N.ar  105  G105       -0.1709
   2158  C2        11.8390   33.3800   13.2340 C.ar  105  G105        0.2606
   2159  N2        12.2720   33.6510   11.9920 N.pl3 105  G105       -0.0859
   2160  N3        11.7510   34.3630   14.1200 N.ar  105  G105       -0.1918
   2161  C4        11.3030   33.9210   15.3210 C.ar  105  G105        0.1723
   2162  C5        10.9460   32.6440   15.6910 C.ar  105  G105        0.1748
   2163  C6        11.0420   31.6020   14.7370 C.ar  105  G105        0.3023
   2164  O6        10.7720   30.4010   14.8880 O.2   105  G105       -0.2633
   2165  N7        10.5350   32.6110   17.0170 N.ar  105  G105       -0.2173
   2166  C8        10.6480   33.8470   17.4140 C.ar  105  G105        0.1817
   2167  N9        11.1190   34.6920   16.4390 N.ar  105  G105       -0.2693
   2168  OP1        9.4310   37.7600   22.0840 O.2   105  G105       -0.5172
   2169  OP2        9.9770   35.2540   22.3240 O.co2 105  G105       -0.4373
   2170  P          7.1150   38.1690   15.7000 P.3   106  A106        0.2141
   2171  C5'        8.2060   38.6290   13.3960 C.3   106  A106        0.1812
   2172  O5'        7.5930   37.6930   14.2590 O.3   106  A106       -0.3114
   2173  C4'        8.5000   37.9670   12.0750 C.3   106  A106        0.1773
   2174  O4'        9.3790   36.8520   12.3070 O.3   106  A106       -0.3307
   2175  C3'        7.2910   37.3310   11.4240 C.3   106  A106        0.1860
   2176  O3'        6.5040   38.3150   10.7590 O.3   106  A106       -0.3112
   2177  C2'        7.9490   36.3050   10.5040 C.3   106  A106        0.2309
   2178  O2'        8.4800   36.8470    9.3140 O.3   106  A106       -0.2156
   2179  C1'        9.0970   35.8280   11.3810 C.3   106  A106        0.2408
   2180  N1         8.4760   30.7270   11.3170 N.ar  106  A106       -0.2040
   2181  C2         8.8100   31.5980   10.3510 C.ar  106  A106        0.2016
   2182  N3         8.9620   32.9200   10.4280 N.ar  106  A106       -0.2048
   2183  C4         8.7220   33.3490   11.6800 C.ar  106  A106        0.1692
   2184  C5         8.3670   32.5800   12.7740 C.ar  106  A106        0.1518
   2185  C6         8.2420   31.1950   12.5640 C.ar  106  A106        0.1919
   2186  N6         7.9050   30.3380   13.5320 N.pl3 106  A106       -0.1054
   2187  N7         8.1950   33.3690   13.8990 N.ar  106  A106       -0.2193
   2188  C8         8.4450   34.5840   13.4710 C.ar  106  A106        0.1816
   2189  N9         8.7680   34.6410   12.1440 N.ar  106  A106       -0.2693
   2190  OP1        6.5120   39.5180   15.5940 O.2   106  A106       -0.5172
   2191  OP2        6.3590   37.0550   16.3220 O.co2 106  A106       -0.4373
   2192  P          4.9620   38.0110   10.4550 P.3   107  A107        0.2141
   2193  C5'        4.1690   36.4750    8.4850 C.3   107  A107        0.1812
   2194  O5'        5.1130   37.4030    8.9840 O.3   107  A107       -0.3114
   2195  C4'        4.8290   35.5470    7.4850 C.3   107  A107        0.1773
   2196  O4'        6.0460   34.9850    8.0470 O.3   107  A107       -0.3307
   2197  C3'        3.9860   34.3370    7.1280 C.3   107  A107        0.1860
   2198  O3'        3.1100   34.6520    6.0840 O.3   107  A107       -0.3112
   2199  C2'        5.0480   33.3250    6.7360 C.3   107  A107        0.2309
   2200  O2'        5.6430   33.6130    5.4860 O.3   107  A107       -0.2156
   2201  C1'        6.0350   33.5790    7.8680 C.3   107  A107        0.2408
   2202  N1         5.4230   29.1460   10.4310 N.ar  107  A107       -0.2040
   2203  C2         5.8490   29.4080    9.1860 C.ar  107  A107        0.2016
   2204  N3         5.9850   30.5860    8.5780 N.ar  107  A107       -0.2048
   2205  C4         5.6170   31.5890    9.3980 C.ar  107  A107        0.1692
   2206  C5         5.1600   31.4750   10.7030 C.ar  107  A107        0.1518
   2207  C6         5.0660   30.1740   11.2320 C.ar  107  A107        0.1919
   2208  N6         4.6460   29.9140   12.4730 N.pl3 107  A107       -0.1054
   2209  N7         4.8810   32.7190   11.2400 N.ar  107  A107       -0.2193
   2210  C8         5.1750   33.5490   10.2670 C.ar  107  A107        0.1816
   2211  N9         5.6320   32.9390    9.1260 N.ar  107  A107       -0.2693
   2212  OP1        4.2050   39.2860   10.3820 O.2   107  A107       -0.5172
   2213  OP2        4.4870   36.9450   11.3700 O.co2 107  A107       -0.4373
   2214  P          1.5450   34.6530    6.3950 P.3   108  G108        0.2141
   2215  C5'        1.9950   32.6350    4.7900 C.3   108  G108        0.1812
   2216  O5'        1.0620   33.3410    5.6150 O.3   108  G108       -0.3114
   2217  C4'        1.9410   31.1350    5.0180 C.3   108  G108        0.1773
   2218  O4'        2.8700   30.7170    6.0570 O.3   108  G108       -0.3307
   2219  C3'        0.6150   30.5830    5.5110 C.3   108  G108        0.1860
   2220  O3'       -0.3420   30.5370    4.4740 O.3   108  G108       -0.3112
   2221  C2'        1.0590   29.1890    5.9270 C.3   108  G108        0.2309
   2222  O2'        1.2390   28.3180    4.8250 O.3   108  G108       -0.2156
   2223  C1'        2.3910   29.4950    6.6120 C.3   108  G108        0.2408
   2224  N1         2.1140   27.0070   11.0550 N.ar  108  G108       -0.1709
   2225  C2         2.3620   26.5090    9.7910 C.ar  108  G108        0.2606
   2226  N2         2.5600   25.1780    9.6910 N.pl3 108  G108       -0.0859
   2227  N3         2.4120   27.2660    8.6980 N.ar  108  G108       -0.1918
   2228  C4         2.1940   28.5840    8.9740 C.ar  108  G108        0.1723
   2229  C5         1.9390   29.1740   10.1960 C.ar  108  G108        0.1748
   2230  C6         1.8880   28.3580   11.3550 C.ar  108  G108        0.3023
   2231  O6         1.6810   28.7070   12.5250 O.2   108  G108       -0.2633
   2232  N7         1.7660   30.5500   10.0580 N.ar  108  G108       -0.2173
   2233  C8         1.9210   30.7640    8.7780 C.ar  108  G108        0.1817
   2234  N9         2.2010   29.6180    8.0580 N.ar  108  G108       -0.2693
   2235  OP1        0.9770   35.8630    5.7660 O.2   108  G108       -0.5172
   2236  OP2        1.3430   34.4150    7.8430 O.co2 108  G108       -0.4373
   2237  P         -1.8710   30.2370    4.8400 P.3   109  A109        0.2141
   2238  C5'       -1.7120   27.6900    4.1980 C.3   109  A109        0.1812
   2239  O5'       -1.8480   28.6810    5.2150 O.3   109  A109       -0.3114
   2240  C4'       -1.5710   26.3010    4.8000 C.3   109  A109        0.1773
   2241  O4'       -0.4660   26.2710    5.7470 O.3   109  A109       -0.3307
   2242  C3'       -2.7610   25.8030    5.6160 C.3   109  A109        0.1860
   2243  O3'       -3.8330   25.3450    4.7930 O.3   109  A109       -0.3112
   2244  C2'       -2.0940   24.6760    6.4010 C.3   109  A109        0.2309
   2245  O2'       -1.8730   23.5070    5.6280 O.3   109  A109       -0.2156
   2246  C1'       -0.7660   25.3410    6.7820 C.3   109  A109        0.2408
   2247  N1        -0.9260   24.8570   11.9270 N.ar  109  A109       -0.2040
   2248  C2        -0.8320   23.9480   10.9450 C.ar  109  A109        0.2016
   2249  N3        -0.7780   24.1420    9.6250 N.ar  109  A109       -0.2048
   2250  C4        -0.8760   25.4530    9.3280 C.ar  109  A109        0.1692
   2251  C5        -0.9980   26.4990   10.2280 C.ar  109  A109        0.1518
   2252  C6        -1.0160   26.1630   11.6000 C.ar  109  A109        0.1919
   2253  N6        -1.1190   27.0660   12.5800 N.pl3 109  A109       -0.1054
   2254  N7        -1.0760   27.7110    9.5610 N.ar  109  A109       -0.2193
   2255  C8        -0.9950   27.3810    8.2900 C.ar  109  A109        0.1816
   2256  N9        -0.8580   26.0340    8.0740 N.ar  109  A109       -0.2693
   2257  OP1       -2.6870   30.4390    3.6220 O.2   109  A109       -0.5172
   2258  OP2       -2.2110   30.9850    6.0700 O.co2 109  A109       -0.4373
   2259  P         -5.3190   25.2950    5.4020 P.3   110  U110        0.2141
   2260  C5'       -5.1270   22.9130    6.4810 C.3   110  U110        0.1812
   2261  O5'       -5.1540   24.3230    6.6630 O.3   110  U110       -0.3114
   2262  C4'       -5.3040   22.2010    7.8070 C.3   110  U110        0.1773
   2263  O4'       -4.2630   22.6150    8.7320 O.3   110  U110       -0.3307
   2264  C3'       -6.5910   22.5260    8.5500 C.3   110  U110        0.1860
   2265  O3'       -7.6850   21.7970    8.0130 O.3   110  U110       -0.3112
   2266  C2'       -6.2180   22.0510    9.9490 C.3   110  U110        0.2309
   2267  O2'       -6.3030   20.6390   10.1040 O.3   110  U110       -0.2156
   2268  C1'       -4.7620   22.5260   10.0570 C.3   110  U110        0.2420
   2269  N1        -4.6580   23.8670   10.7380 N.ar  110  U110       -0.2534
   2270  C2        -4.8380   23.9380   12.1140 C.ar  110  U110        0.3546
   2271  O2        -5.0640   22.9590   12.8240 O.2   110  U110       -0.2443
   2272  N3        -4.7470   25.2130   12.6410 N.ar  110  U110       -0.1530
   2273  C4        -4.4760   26.3970   11.9470 C.ar  110  U110        0.2846
   2274  O4        -4.4030   27.4610   12.5570 O.2   110  U110       -0.2650
   2275  C5        -4.3020   26.2460   10.5190 C.ar  110  U110        0.0814
   2276  C6        -4.4070   25.0160    9.9810 C.ar  110  U110        0.0870
   2277  OP1       -6.2200   24.6510    4.4190 O.2   110  U110       -0.5172
   2278  OP2       -5.6600   26.6410    5.9170 O.co2 110  U110       -0.4373
   2279  P         -9.1780   22.3630    8.1420 P.3   111  U111        0.2141
   2280  C5'       -9.5580   20.9970   10.3510 C.3   111  U111        0.1813
   2281  O5'       -9.4920   22.2660    9.7080 O.3   111  U111       -0.3114
   2282  C4'       -9.4500   21.1410   11.8580 C.3   111  U111        0.1801
   2283  O4'       -8.2070   21.8040   12.2100 O.3   111  U111       -0.3306
   2284  C3'      -10.5500   21.9790   12.4930 C.3   111  U111        0.2161
   2285  O3'      -11.6730   21.1540   12.7660 O.3   111  U111       -0.2175
   2286  C2'       -9.8750   22.4870   13.7660 C.3   111  U111        0.2338
   2287  O2'       -9.9560   21.5690   14.8480 O.3   111  U111       -0.2155
   2288  C1'       -8.4170   22.6670   13.3160 C.3   111  U111        0.2421
   2289  N1        -8.1040   24.0950   12.9240 N.ar  111  U111       -0.2534
   2290  C2        -7.8260   25.0330   13.9130 C.ar  111  U111        0.3546
   2291  O2        -7.7970   24.7630   15.0990 O.2   111  U111       -0.2443
   2292  N3        -7.5610   26.3070   13.4590 N.ar  111  U111       -0.1530
   2293  C4        -7.5660   26.7370   12.1430 C.ar  111  U111        0.2846
   2294  O4        -7.2980   27.9110   11.8850 O.2   111  U111       -0.2650
   2295  C5        -7.8760   25.7110   11.1680 C.ar  111  U111        0.0814
   2296  C6        -8.1300   24.4600   11.5890 C.ar  111  U111        0.0870
   2297  OP1      -10.0720   21.4320    7.4250 O.2   111  U111       -0.5172
   2298  OP2       -9.1690   23.7920    7.7630 O.co2 111  U111       -0.4373
@<TRIPOS>BOND
     1   324   303    2
     2   301   280    2
     3   266   265    1
     4   281   283    1
     5   281   282    1
     6   283   284    1
     7   283   285    1
     8   286   303    1
     9   286   285    1
    10   288   287    1
    11   303   325    1
    12   303   305    1
    13   280   282    1
    14   280   264    1
    15   280   302    1
    16   264   263    1
    17   284   289    1
    18   285   287    1
    19   265   263    1
    20   265   267    1
    21   287   289    1
    22   304   305    1
    23   304   306    1
    24   263   261    1
    25   289   300    1
    26   270   269   ar
    27   270   271   ar
    28   267   262    1
    29   267   277    1
    30   261   262    1
    31   261   259    1
    32   269   268   ar
    33   271   277   ar
    34   271   272   ar
    35   306   307    1
    36   306   308    1
    37   277   276   ar
    38   300   299   ar
    39   300   294   ar
    40  1581  1561    2
    41   259   260    1
    42   268   273   ar
    43   299   298   ar
    44   307   312    1
    45   309   308    1
    46   309   326    1
    47   621   603    2
    48   260   258    1
    49   347   326    2
    50   308   310    1
    51   272   273   ar
    52   272   275   ar
    53   294   293   ar
    54   294   295   ar
    55  1603  1583    2
    56   276   275   ar
    57  1547  1561    1
    58  1547  1546    1
    59   273   274    1
    60   293   291   ar
    61  1562  1563    1
    62  1562  1564    1
    63  1561  1563    1
    64  1561  1582    1
    65   326   348    1
    66   326   328    1
    67   587   603    1
    68   587   586    1
    69   298   295   ar
    70   256   238    2
    71   311   310    1
    72   604   605    1
    73   604   606    1
    74   589   588    1
    75  1549  1548    1
    76   312   310    1
    77   312   323    1
    78   641   623    2
    79   603   605    1
    80   603   622    1
    81  1542  1544    1
    82  1542  1543    1
    83  1544  1546    1
    84  1544  1545    1
    85   295   296   ar
    86  1559  1541    2
    87  1564  1566    1
    88  1564  1565    1
    89   236   215    2
    90  1567  1583    1
    91  1567  1566    1
    92   258   278    2
    93   258   279    1
    94   258   244    1
    95   584   582    1
    96   584   586    1
    97   584   585    1
    98  2257  2237    2
    99  1546  1548    1
   100   582   583    1
   101  1583  1604    1
   102  1583  1585    1
   103   291   292    1
   104   291   290   ar
   105   606   608    1
   106   606   607    1
   107   609   623    1
   108   609   608    1
   109   322   323   ar
   110   322   321   ar
   111   586   588    1
   112   323   317   ar
   113  1548  1550    1
   114   244   243    1
   115   328   327    1
   116  2238  2240    1
   117  2238  2239    1
   118   566   565    1
   119   588   590    1
   120   601   581    2
   121   327   329    1
   122  1566  1568    1
   123   623   642    1
   124   623   625    1
   125  1545  1550    1
   126  2277  2259    2
   127  2220  2237    1
   128  2220  2219    1
   129   238   221    1
   130   238   240    1
   131   238   257    1
   132  1565  1570    1
   133  1543  1541    1
   134   585   590    1
   135   216   217    1
   136   216   218    1
   137   221   220    1
   138   144   126    2
   139   608   610    1
   140  1541  1527    1
   141  1541  1560    1
   142   296   290   ar
   143   296   297    2
   144  2215  2217    1
   145  2215  2216    1
   146  2243  2259    1
   147  2243  2242    1
   148  2240  2242    1
   149  2240  2241    1
   150   217   215    1
   151  2222  2221    1
   152  2237  2239    1
   153  2237  2258    1
   154   215   198    1
   155   215   237    1
   156  1585  1584    1
   157  1569  1568    1
   158   607   612    1
   159  1550  1551    1
   160   590   600    1
   161  1529  1528    1
   162  1584  1586    1
   163  2217  2219    1
   164  2217  2218    1
   165   583   581    1
   166   240   239    1
   167   321   318   ar
   168   239   241    1
   169   611   610    1
   170   624   625    1
   171   624   626    1
   172  1527  1526    1
   173   564   581    1
   174   564   563    1
   175   581   602    1
   176   198   197    1
   177  1568  1570    1
   178   127   129    1
   179   127   128    1
   180  2259  2278    1
   181  2259  2261    1
   182  2200  2199    1
   183   317   318   ar
   184   317   316   ar
   185  2219  2221    1
   186   243   241    1
   187   243   245    1
   188   112   126    1
   189   112   111    1
   190   218   220    1
   191   218   219    1
   192   241   242    1
   193  2216  2214    1
   194  2242  2244    1
   195  2245  2244    1
   196   565   563    1
   197   565   567    1
   198   664   643    2
   199  1570  1580    1
   200   329   331    1
   201   329   330    1
   202   368   349    2
   203  2241  2246    1
   204  2235  2214    2
   205   220   222    1
   206   610   612    1
   207   246   245    1
   208   167   146    2
   209   109   107    1
   210   109   111    1
   211   109   110    1
   212  1380  1379    1
   213  2221  2223    1
   214   126   128    1
   215   126   145    1
   216   129   130    1
   217   129   131    1
   218  2218  2223    1
   219   318   319   ar
   220   612   613    1
   221  2198  2214    1
   222  2198  2197    1
   223   316   314   ar
   224   107   108    1
   225   563   561    1
   226   561   562    1
   227   561   559    1
   228   132   146    1
   229   132   131    1
   230   332   331    1
   231   332   349    1
   232  1528  1526    1
   233  1528  1530    1
   234   367   349    1
   235   193   195    1
   236   193   194    1
   237  1625  1605    2
   238   567   562    1
   239   567   578    1
   240  2214  2236    1
   241   111   113    1
   242  1551  1558   ar
   243  1551  1552   ar
   244  2244  2246    1
   245   600   594   ar
   246   600   599   ar
   247   331   333    1
   248   330   335    1
   249   245   247    1
   250  1586  1587    1
   251  1586  1588    1
   252  2260  2261    1
   253  2260  2262    1
   254   349   351    1
   255  1526  1524    1
   256   550   549    2
   257   626   628    1
   258   626   627    1
   259   195   197    1
   260   195   196    1
   261  1375  1373    1
   262  1375  1376    1
   263  1375  1377    1
   264   809   808    2
   265  1553  1552    2
   266  1626  1605    1
   267  2223  2234    1
   268   473   472    2
   269   665   643    1
   270   570   569    1
   271   110   115    1
   272   197   199    1
   273   593   594   ar
   274   593   592   ar
   275   643   629    1
   276   643   645    1
   277   629   628    1
   278   810   808   ar
   279   810   811   ar
   280  1357  1356    1
   281  2199  2197    1
   282  2199  2201    1
   283  1579  1580   ar
   284  1579  1578   ar
   285   200   199    1
   286  2246  2256    1
   287   812   811    2
   288  1580  1574   ar
   289   130   135    1
   290   213   192    2
   291   146   168    1
   292   146   148    1
   293  1378  1377    1
   294  1378  1392    1
   295    94    93    1
   296  1373  1374    1
   297   219   224    1
   298  1376  1381    1
   299  1589  1605    1
   300  1589  1588    1
   301   223   222    1
   302   131   133    1
   303   134   133    1
   304   571   569   ar
   305   571   572   ar
   306  1558  1557   ar
   307   242   247    1
   308   345   344   ar
   309   345   346   ar
   310  1605  1607    1
   311   222   224    1
   312   620   613   ar
   313   620   619   ar
   314   108   106    1
   315  1413  1392    2
   316   472   471   ar
   317   472   474   ar
   318  1524  1525    1
   319  1524  1522    1
   320   808   807   ar
   321  2197  2195    1
   322   559   560    1
   323   594   595   ar
   324  1552  1554   ar
   325  1379  1381    1
   326  1379  1377    1
   327   471   469   ar
   328   194   192    1
   329  1587  1592    1
   330  1588  1590    1
   331   811   813   ar
   332  2052  2051    2
   333   613   614   ar
   334  1381  1382    1
   335   628   630    1
   336   599   598   ar
   337  1530  1525    1
   338  1530  1531    1
   339  2297  2279    2
   340   247   248    1
   341   314   313   ar
   342   314   315    1
   343   569   568   ar
   344   319   313   ar
   345   319   320    2
   346  2195  2196    1
   347  2195  2193    1
   348   115   113    1
   349   115   116    1
   350   344   341   ar
   351  1393  1395    1
   352  1393  1394    1
   353   199   201    1
   354   546   545    1
   355   627   632    1
   356  1533  1532    2
   357   549   551   ar
   358   549   548   ar
   359   551   552   ar
   360   592   591   ar
   361   474   475   ar
   362   133   135    1
   363   578   572   ar
   364   578   577   ar
   365   469   470    2
   366   469   468   ar
   367  2051  2050   ar
   368  2051  2053   ar
   369  2298  2279    1
   370   113   114    1
   371  2050  2048   ar
   372   335   333    1
   373   335   346    1
   374  2262  2264    1
   375  2262  2263    1
   376   135   136    1
   377  1361  1360    1
   378  2201  2196    1
   379  2201  2211    1
   380   224   235    1
   381   192   175    1
   382   192   214    1
   383  1392  1394    1
   384  1392  1414    1
   385   333   334    1
   386   572   573   ar
   387   386   385    2
   388   196   201    1
   389   147   148    1
   390   147   149    1
   391  1578  1575   ar
   392   118   117    2
   393   346   340   ar
   394  2265  2279    1
   395  2265  2264    1
   396   351   350    1
   397  2234  2233   ar
   398  2234  2228   ar
   399  2256  2255   ar
   400  2256  2250   ar
   401    92   106    1
   402    92    91    1
   403   645   644    1
   404   462   467    1
   405   462   461    1
   406  1356  1358    1
   407  1356  1354    1
   408  2279  2281    1
   409  1574  1573   ar
   410  1574  1575   ar
   411   434   414    2
   412   619   617   ar
   413   475   468   ar
   414   807   806    1
   415   807   814   ar
   416   468   467    1
   417  1522  1523    1
   418  1395  1396    1
   419  1395  1397    1
   420   786   785   ar
   421   786   787   ar
   422  2049  2048    2
   423  1967  1949    2
   424  1355  1354    1
   425  1355  1372    1
   426   785   790   ar
   427   545   547    1
   428   545   543    1
   429  2048  2047   ar
   430  2255  2254   ar
   431  1384  1383    2
   432  1374  1372    1
   433  1557  1555   ar
   434    93    95    1
   435    93    91    1
   436  2053  2054   ar
   437   813   814   ar
   438  1338  1337    1
   439  1601  1602   ar
   440  1601  1600   ar
   441   106   124    2
   442   106   125    1
   443   595   598   ar
   444   595   596   ar
   445  1554  1555   ar
   446  1475  1474    1
   447  2193  2194    1
   448   560   558    1
   449   201   212    1
   450  1358  1353    1
   451  1358  1369    1
   452   614   615    2
   453   614   616   ar
   454  2264  2266    1
   455  1362  1360   ar
   456  1362  1363   ar
   457  1396  1401    1
   458  1947  1929    2
   459  1592  1590    1
   460  1592  1602    1
   461  2204  2203   ar
   462  2204  2205   ar
   463  1532  1531   ar
   464  1532  1534   ar
   465  1531  1538   ar
   466  1607  1606    1
   467   644   646    1
   468   234   235   ar
   469   234   233   ar
   470  1382  1383   ar
   471  1382  1389   ar
   472  1390  1372    2
   473  1573  1572   ar
   474  1590  1591    1
   475   806   801    1
   476   806   804    1
   477  2227  2228   ar
   478  2227  2225   ar
   479   630   632    1
   480   630   631    1
   481   553   552    1
   482   175   174    1
   483  2263  2268    1
   484   190   169    2
   485  1352  1353    1
   486  1352  1354    1
   487  1352  1350    1
   488   116   117   ar
   489   116   123   ar
   490   552   554   ar
   491   467   465    1
   492  2233  2232   ar
   493   547   548    1
   494   547   542    1
   495  1469  1474   ar
   496  1469  1470   ar
   497   568   574   ar
   498  2054  2047   ar
   499  2047  2046    1
   500   548   555   ar
   501  1575  1576   ar
   502  1360  1359   ar
   503   632   633    1
   504   235   229   ar
   505   341   340   ar
   506   341   342   ar
   507    98    97    2
   508   365   366   ar
   509   365   363   ar
   510   248   255   ar
   511   248   249   ar
   512   117   119   ar
   513  1930  1932    1
   514  1930  1931    1
   515    95    90    1
   516    95    96    1
   517    91    89    1
   518    89    90    1
   519    89    87    1
   520   577   576   ar
   521   591   596   ar
   522  2228  2229   ar
   523   459   461    1
   524   459   460    1
   525  2194  2192    1
   526  1372  1391    1
   527   640   633   ar
   528   640   639   ar
   529   801   800    1
   530   391   369    2
   531  1383  1385   ar
   532   350   352    1
   533  1935  1949    1
   534  1935  1934    1
   535  1555  1556    1
   536  1602  1596   ar
   537  1453  1452    1
   538   461   463    1
   539   250   249    2
   540   385   384   ar
   541   385   379   ar
   542  1523  1521    1
   543  2211  2205   ar
   544  2211  2210   ar
   545  1600  1597   ar
   546  1539  1521    2
   547   340   339   ar
   548  2203  2202   ar
   549   136   143   ar
   550   136   137   ar
   551   387   384   ar
   552   387   388   ar
   553   787   788   ar
   554  1932  1934    1
   555  1932  1933    1
   556   573   574   ar
   557   573   576   ar
   558   364   363    2
   559   457   436    2
   560   149   150    1
   561   149   151    1
   562  1606  1608    1
   563  1921  1920    2
   564  1474  1473   ar
   565  1398  1397    1
   566  1398  1415    1
   567  2178  2177    1
   568  2250  2249   ar
   569  2250  2251   ar
   570   143   142   ar
   571   579   558    2
   572  2205  2206   ar
   573   596   597    1
   574   544   543    1
   575   544   558    1
   576  2046  2041    1
   577  2046  2044    1
   578  1949  1968    1
   579  1949  1951    1
   580   790   791    1
   581   790   789   ar
   582   617   616   ar
   583   617   618    1
   584   255   254   ar
   585   366   359   ar
   586   456   436    1
   587  1397  1399    1
   588   477   458    2
   589  2041  2040    1
   590  1389  1388   ar
   591  2254  2251   ar
   592   174   172    1
   593   174   176    1
   594   543   541    1
   595  1400  1399    1
   596  2249  2248   ar
   597   414   398    1
   598   414   416    1
   599   414   435    1
   600   633   634   ar
   601  1470  1471   ar
   602   558   580    1
   603   249   251   ar
   604  1917  1916    1
   605  1363  1369   ar
   606  1363  1364   ar
   607   805   804    1
   608  1337  1339   ar
   609  1337  1336   ar
   610   639   637   ar
   611   233   230   ar
   612   172   170    1
   613   172   173    1
   614  1369  1368   ar
   615  2226  2225    1
   616   363   362   ar
   617  2281  2280    1
   618  1534  1535   ar
   619   384   383   ar
   620  1538  1537   ar
   621  1401  1399    1
   622  1401  1412    1
   623   460   458    1
   624  2225  2224   ar
   625   574   575    2
   626  1350  1351    1
   627   343   342    2
   628   212   211   ar
   629   212   206   ar
   630   123   122   ar
   631   150   155    1
   632   837   817    2
   633  1431  1430    1
   634   170   171    1
   635  1929  1915    1
   636  1929  1931    1
   637  1929  1948    1
   638  1521  1540    1
   639  1521  1507    1
   640   342   336   ar
   641  1937  1936    1
   642    87    88    1
   643  2266  2268    1
   644  2266  2267    1
   645    97    96   ar
   646    97    99   ar
   647   804   802    1
   648   803   802    1
   649   803   817    1
   650  1934  1936    1
   651  2276  2275   ar
   652  2276  2269   ar
   653  1435  1415    2
   654   398   397    1
   655  1915  1914    1
   656  1572  1571   ar
   657   555   554   ar
   658   379   380   ar
   659  2268  2269    1
   660  2232  2229   ar
   661   415   416    1
   662   415   417    1
   663  1436  1415    1
   664   646   648    1
   665   646   647    1
   666   542   541    1
   667   436   420    1
   668   436   438    1
   669    96   103   ar
   670  1359  1365   ar
   671   138   137    2
   672   119   120   ar
   673   169   152    1
   674   169   171    1
   675   169   191    1
   676   800   802    1
   677   800   798    1
   678   229   230   ar
   679   229   228   ar
   680   152   151    1
   681  1339  1340   ar
   682  2229  2230   ar
   683  2251  2252   ar
   684  1576  1571   ar
   685  1576  1577    1
   686  1933  1938    1
   687  1415  1417    1
   688   465   463    1
   689   465   466    1
   690   388   389   ar
   691   211   210   ar
   692  2210  2209   ar
   693   151   153    1
   694   137   139   ar
   695   662   661   ar
   696   662   663   ar
   697  1385  1386   ar
   698  1452  1447   ar
   699  1452  1451   ar
   700  1334  1333    1
   701   369   390    1
   702   369   355    1
   703   369   371    1
   704  1432  1433   ar
   705  1432  1429   ar
   706  2280  2282    1
   707  2181  2182   ar
   708  2181  2180   ar
   709  1950  1951    1
   710  1950  1952    1
   711   648   650    1
   712   648   649    1
   713  2212  2192    2
   714  1596  1597   ar
   715  1596  1595   ar
   716   541   539    1
   717  1597  1598   ar
   718   788   789   ar
   719   788   794   ar
   720   339   337   ar
   721   352   353    1
   722   352   354    1
   723  1336  1342   ar
   724  2182  2183   ar
   725  2202  2207   ar
   726   463   464    1
   727   458   476    1
   728   458   442    1
   729  2192  2176    1
   730  2192  2213    1
   731  1447  1448   ar
   732  1920  1922   ar
   733  1920  1919   ar
   734   687   666    2
   735  2177  2179    1
   736  2177  2175    1
   737   353   358    1
   738  2275  2273   ar
   739   661   658   ar
   740  1622  1623   ar
   741  1622  1619   ar
   742   142   140   ar
   743   789   792   ar
   744   464   478    1
   745  1623  1624   ar
   746   650   651    1
   747   650   652    1
   748   707   689    2
   749   230   231   ar
   750  1473  1472   ar
   751  1473  1476   ar
   752  2206  2207   ar
   753  2206  2209   ar
   754  2045  2044    1
   755  2269  2270   ar
   756  1936  1938    1
   757  2176  2175    1
   758   254   252   ar
   759   354   355    1
   760   354   356    1
   761  1388  1386   ar
   762  1412  1411   ar
   763  1412  1406   ar
   764  1608  1609    1
   765  1608  1610    1
   766  2040  2038    1
   767  2040  2042    1
   768  2044  2042    1
   769   228   226   ar
   770   165   164   ar
   771   165   166   ar
   772   530   529    2
   773  1535  1537   ar
   774  1535  1536    1
   775   817   819    1
   776   817   838    1
   777   413   392    2
   778   359   358    1
   779   359   360   ar
   780   420   419    1
   781   647   652    1
   782   173   178    1
   783  1898  1897    1
   784   531   529   ar
   785   531   532   ar
   786   393   395    1
   787   393   394    1
   788  1411  1410   ar
   789  1916  1918    1
   790  1916  1914    1
   791  1918  1919    1
   792  1918  1913    1
   793   533   532    1
   794  2248  2247   ar
   795  1471  1472   ar
   796   251   252   ar
   797  1364  1365   ar
   798  1364  1367   ar
   799  1922  1923   ar
   800   176   177    1
   801   176   178    1
   802   206   205   ar
   803   206   207   ar
   804  1368  1367   ar
   805   634   635    2
   806   634   636   ar
   807    74    73    1
   808   362   360   ar
   809  2224  2230   ar
   810   122   120   ar
   811  2039  2038    1
   812  2039  2037    1
   813  1430  1429   ar
   814  1430  1425   ar
   815   637   636   ar
   816   637   638    1
   817  1351  1349    1
   818  1609  1614    1
   819   205   203   ar
   820   383   389   ar
   821   383   382   ar
   822   861   839    2
   823  1433  1434   ar
   824   395   397    1
   825   395   396    1
   826    99   100   ar
   827  1938  1939    1
   828  2295  2296   ar
   829  2295  2293   ar
   830   336   337   ar
   831   371   370    1
   832  1914  1912    1
   833   818   819    1
   834   818   820    1
   835    88    86    1
   836   417   419    1
   837   417   418    1
   838  2207  2208    1
   839  1429  1428   ar
   840  1507  1506    1
   841   798   799    1
   842  1648  1627    2
   843  1386  1387    2
   844   120   121    2
   845   155   153    1
   846   155   166    1
   847   397   399    1
   848  1990  1969    2
   849  1365  1366    2
   850   438   437    1
   851  1333  1335    1
   852  1333  1331    1
   853  2180  2185   ar
   854  2056  2037    2
   855  1509  1508    1
   856  2230  2231    2
   857  1919  1926   ar
   858   380   382   ar
   859   380   381    1
   860   103   102   ar
   861  2179  2189    1
   862  2179  2174    1
   863   799   797    1
   864   337   338    1
   865   497   478    2
   866  1610  1611    1
   867  1610  1612    1
   868   400   399    1
   869   663   652    1
   870   663   657   ar
   871   178   189    1
   872  2175  2173    1
   873  1472  1478   ar
   874   389   378    1
   875   164   161   ar
   876  1595  1594   ar
   877   358   356    1
   878   529   528   ar
   879   649   666    1
   880  1991  1969    1
   881  1451  1454   ar
   882  1451  1450   ar
   883  1476  1477   ar
   884   252   253    1
   885  1340  1346   ar
   886  1340  1341   ar
   887   139   140   ar
   888   210   207   ar
   889   532   534   ar
   890  2042  2043    1
   891  2296  2289   ar
   892   153   154    1
   893  2252  2247   ar
   894  2252  2253    1
   895   419   421    1
   896   166   160   ar
   897  1611  1627    1
   898  1952  1953    1
   899  1952  1954    1
   900   794   784    1
   901   794   793   ar
   902    78    77    2
   903  2043  2057    1
   904  1598  1599    1
   905  1598  1593   ar
   906  2183  2189   ar
   907  2183  2184   ar
   908   360   361    2
   909   478   496    1
   910   478   480    1
   911  1448  1449   ar
   912   140   141    1
   913   708   689    1
   914  1417  1416    1
   915   442   441    1
   916  1454  1455   ar
   917   667   668    1
   918   667   669    1
   919   666   668    1
   920   666   688    1
   921   689   672    1
   922   689   691    1
   923   441   443    1
   924   441   439    1
   925  1342  1341   ar
   926  1342  1343    2
   927  2282  2283    1
   928  2282  2284    1
   929  1624  1614    1
   930  1624  1618   ar
   931  1406  1405   ar
   932  1406  1407   ar
   933  2294  2293    2
   934  1913  1912    1
   935  1335  1346    1
   936  1335  1330    1
   937  1621  1620    1
   938  1619  1620   ar
   939  1619  1618   ar
   940   539   540    1
   941   658   657   ar
   942   658   659   ar
   943   394   392    1
   944   792   793   ar
   945   356   357    1
   946  1410  1407   ar
   947  1647  1627    1
   948   513   512    1
   949  2273  2274    2
   950  2273  2272   ar
   951   860   839    1
   952   784   779    1
   953   784   782    1
   954  1896  1897   ar
   955  1896  1902   ar
   956  2159  2158    1
   957   231   232    2
   958   231   225   ar
   959  2037  2055    1
   960  2037  2021    1
   961  1627  1629    1
   962  1969  1955    1
   963  1969  1971    1
   964  1897  1899   ar
   965  1912  1910    1
   966   207   208   ar
   967  2173  2174    1
   968  2173  2171    1
   969   226   225   ar
   970   226   227    1
   971   672   671    1
   972  2270  2272   ar
   973  2270  2271    2
   974   779   778    1
   975   104    86    2
   976   399   401    1
   977   392   412    1
   978   392   375    1
   979  2293  2292   ar
   980  2189  2188   ar
   981  1405  1403   ar
   982    73    75    1
   983    73    71    1
   984  1955  1954    1
   985  1425  1426   ar
   986   437   439    1
   987   839   841    1
   988   839   823    1
   989  2283  2288    1
   990  1614  1612    1
   991  1506  1508    1
   992  1506  1504    1
   993  1923  1924    2
   994  1923  1925   ar
   995  1332  1349    1
   996  1332  1331    1
   997   203   204    1
   998   203   202   ar
   999  1346  1345   ar
  1000   820   822    1
  1001   820   821    1
  1002  1341  1344   ar
  1003   396   401    1
  1004   815   797    2
  1005   660   659    2
  1006   540   538    1
  1007  1370  1349    2
  1008   443   444    1
  1009   443   445    1
  1010   781   797    1
  1011   781   780    1
  1012   100   102   ar
  1013   100   101    2
  1014  1349  1371    1
  1015  1953  1958    1
  1016   418   423    1
  1017  2079  2057    2
  1018  1434  1428   ar
  1019  1434  1424    1
  1020   657   656   ar
  1021    86    72    1
  1022    86   105    1
  1023  2284  2285    1
  1024  2284  2286    1
  1025  1508  1510    1
  1026  1939  1946   ar
  1027  1939  1940   ar
  1028  1620  1615   ar
  1029  1428  1427   ar
  1030  1331  1329    1
  1031  1407  1408   ar
  1032   374   376    1
  1033   374   375    1
  1034   374   372    1
  1035  2185  2184   ar
  1036  2185  2186    1
  1037  1594  1593   ar
  1038   669   671    1
  1039   669   670    1
  1040  1954  1956    1
  1041   370   372    1
  1042   797   816    1
  1043    72    71    1
  1044   454   453   ar
  1045   454   455   ar
  1046   857   858   ar
  1047   857   854   ar
  1048  1926  1925   ar
  1049  1618  1617   ar
  1050  1477  1478   ar
  1051  1612  1613    1
  1052   161   160   ar
  1053   161   162   ar
  1054  1450  1449   ar
  1055  1450  1456   ar
  1056   778   780    1
  1057   778   776    1
  1058  1478  1468    1
  1059  1946  1945   ar
  1060   659   653   ar
  1061   378   373    1
  1062   378   376    1
  1063  2184  2187   ar
  1064   439   440    1
  1065  2057  2078    1
  1066  2057  2059    1
  1067  1416  1418    1
  1068   160   159   ar
  1069   528   527    1
  1070   528   535   ar
  1071   182   183   ar
  1072   182   180   ar
  1073   189   183   ar
  1074   189   188   ar
  1075   841   840    1
  1076    77    79   ar
  1077    77    76   ar
  1078   730   709    2
  1079  2289  2288    1
  1080  2289  2290   ar
  1081   373   372    1
  1082    75    76    1
  1083    75    70    1
  1084  1903  1902    2
  1085   534   535   ar
  1086   856   855    2
  1087   376   377    1
  1088  1330  1329    1
  1089   480   479    1
  1090   453   450   ar
  1091  1455  1456   ar
  1092  1513  1512    2
  1093  1419  1424    1
  1094  1419  1418    1
  1095   526   525    1
  1096   401   411    1
  1097  1318  1317    2
  1098  1902  1901   ar
  1099   421   422    1
  1100   421   423    1
  1101   822   823    1
  1102   822   824    1
  1103  1899  1900   ar
  1104   671   673    1
  1105   783   782    1
  1106   858   859   ar
  1107   691   690    1
  1108   525   527    1
  1109   525   523    1
  1110   512   511   ar
  1111   512   514   ar
  1112  1664  1663    1
  1113    71    69    1
  1114  1329  1327    1
  1115  2158  2157   ar
  1116  2158  2160   ar
  1117   181   180    1
  1118   782   780    1
  1119  1403  1404    1
  1120  1403  1402   ar
  1121  1644  1645   ar
  1122  1644  1641   ar
  1123  2021  2020    1
  1124   731   709    1
  1125   511   509   ar
  1126  2288  2286    1
  1127   821   826    1
  1128  1874  1875   ar
  1129  1874  1879   ar
  1130  1875  1876   ar
  1131   208   202   ar
  1132   208   209    2
  1133  1426  1427   ar
  1134   690   692    1
  1135  2171  2172    1
  1136  1941  1940    2
  1137  2292  2290   ar
  1138  2188  2187   ar
  1139   183   184   ar
  1140  1910  1911    1
  1141   527   522    1
  1142  2157  2163   ar
  1143   479   481    1
  1144   440   445    1
  1145  1510  1511    1
  1146  1510  1505    1
  1147  1971  1970    1
  1148  1629  1628    1
  1149    79    80   ar
  1150   423   433    1
  1151  1504  1502    1
  1152  1504  1505    1
  1153  1424  1422    1
  1154  1319  1317   ar
  1155  1319  1320   ar
  1156  1458  1437    2
  1157   445   455    1
  1158  1940  1942   ar
  1159  1345  1344   ar
  1160    76    83   ar
  1161   840   842    1
  1162   455   449   ar
  1163  1645  1646   ar
  1164  1281  1280    2
  1165   180   179   ar
  1166  1456  1446    1
  1167  1418  1420    1
  1168   776   777    1
  1169  1519  1501    2
  1170   432   433   ar
  1171   432   431   ar
  1172  1408  1402   ar
  1173  1408  1409    2
  1174   656   654   ar
  1175  1966  1965   ar
  1176  1966  1959   ar
  1177  1643  1642    1
  1178   854   855   ar
  1179   854   853   ar
  1180  2286  2287    1
  1181   670   675    1
  1182  1958  1956    1
  1183  1958  1959    1
  1184   162   163    2
  1185   162   156   ar
  1186   709   695    1
  1187   709   711    1
  1188    58    57    2
  1189   674   673    1
  1190   188   187   ar
  1191   855   849   ar
  1192  1956  1957    1
  1193  1615  1616   ar
  1194  1468  1463    1
  1195  1468  1466    1
  1196   159   157   ar
  1197  1317  1316   ar
  1198  2290  2291    2
  1199    70    69    1
  1200  1512  1511   ar
  1201  1512  1514   ar
  1202  1945  1943   ar
  1203  1321  1320    2
  1204   538   557    2
  1205   538   524    1
  1206   538   556    1
  1207    69    67    1
  1208  1420  1422    1
  1209  1420  1421    1
  1210  1617  1616   ar
  1211   653   654   ar
  1212  1628  1630    1
  1213  1911  1909    1
  1214  2059  2058    1
  1215  2160  2161   ar
  1216  1900  1901   ar
  1217  1900  1906   ar
  1218  1901  1904   ar
  1219   514   515   ar
  1220   877   876    2
  1221  2172  2170    1
  1222   433   427   ar
  1223   673   675    1
  1224  1511  1518   ar
  1225   523   524    1
  1226   523   521    1
  1227   411   410   ar
  1228   411   405   ar
  1229  1965  1963   ar
  1230  1970  1972    1
  1231  1502  1503    1
  1232   777   775    1
  1233  2141  2140    1
  1234  1684  1683    1
  1235   824   826    1
  1236   824   825    1
  1237  1876  1877   ar
  1238   450   449   ar
  1239   450   451   ar
  1240  1701  1700    1
  1241  1520  1501    1
  1242  2119  2118    2
  1243  1422  1423    1
  1244  1320  1322   ar
  1245  1641  1642   ar
  1246  1641  1640   ar
  1247   843   842    1
  1248   843   848    1
  1249  1706  1705    2
  1250  1880  1879    1
  1251   859   853   ar
  1252   859   848    1
  1253  1663  1665   ar
  1254  1663  1662   ar
  1255  1463  1462    1
  1256   695   694    1
  1257  1879  1878   ar
  1258  1959  1960   ar
  1259   654   655    1
  1260  1699  1705   ar
  1261  1699  1700   ar
  1262   509   510    2
  1263   509   508   ar
  1264  2020  2018    1
  1265  2020  2022    1
  1266   431   428   ar
  1267   826   836    1
  1268  1301  1300    2
  1269   410   409   ar
  1270  1501  1503    1
  1271  1501  1487    1
  1272  1514  1515   ar
  1273  1642  1637   ar
  1274  1327  1328    1
  1275  2163  2164    2
  1276  2163  2162   ar
  1277   692   694    1
  1278   692   693    1
  1279   449   448   ar
  1280   184   187   ar
  1281   184   185   ar
  1282   770   769    2
  1283   754   732    2
  1284   675   686    1
  1285   842   844    1
  1286  1942  1943   ar
  1287  1665  1666   ar
  1288    80    81    1
  1289    80    82   ar
  1290  1467  1466    1
  1291   853   852   ar
  1292  1280  1279   ar
  1293  1280  1282   ar
  1294   522   521    1
  1295    57    59   ar
  1296    57    56   ar
  1297  1835  1834    1
  1298  2014  1992    2
  1299  1631  1630    1
  1300  1631  1636    1
  1301   156   157   ar
  1302   494   495   ar
  1303   494   492   ar
  1304   157   158    1
  1305  1466  1464    1
  1306    59    60   ar
  1307  2023  2022    1
  1308   481   482    1
  1309   481   483    1
  1310  1646  1640   ar
  1311  1646  1636    1
  1312  1437  1421    1
  1313  1437  1439    1
  1314  1437  1457    1
  1315    83    82   ar
  1316  2058  2060    1
  1317  1943  1944    1
  1318   179   185   ar
  1319   694   696    1
  1320   711   710    1
  1321   495   488   ar
  1322  1705  1704   ar
  1323  1700  1702   ar
  1324  1446  1444    1
  1325  1446  1441    1
  1326  2155  2154    1
  1327   849   850   ar
  1328   452   451    1
  1329    54    53    1
  1330  2018  2019    1
  1331  2018  2016    1
  1332  1836  1837   ar
  1333  1836  1833   ar
  1334  1316  1315    1
  1335  1316  1323   ar
  1336  1668  1649    2
  1337   796   775    2
  1338   848   846    1
  1339  1630  1632    1
  1340  1893  1894    1
  1341  1893  1895    1
  1342  1893  1891    1
  1343   482   487    1
  1344  1518  1517   ar
  1345  2075  2076   ar
  1346  2075  2072   ar
  1347  2013  1992    1
  1348  2161  2162   ar
  1349  2161  2167   ar
  1350  2135  2140   ar
  1351  2135  2136   ar
  1352   835   836   ar
  1353   835   834   ar
  1354  1279  1277   ar
  1355  1662  1660   ar
  1356   876   878   ar
  1357   876   875   ar
  1358   451   446   ar
  1359    34    35   ar
  1360    34    39   ar
  1361   405   404   ar
  1362   405   406   ar
  1363   836   830   ar
  1364  2140  2139   ar
  1365  1314  1313    1
  1366  1906  1895    1
  1367  1906  1905   ar
  1368  1328  1326    1
  1369   515   508   ar
  1370   521   519    1
  1371    67    68    1
  1372  1299  1300   ar
  1373  1299  1297   ar
  1374  1439  1438    1
  1375  1904  1905   ar
  1376   769   771   ar
  1377   769   768   ar
  1378  1640  1639   ar
  1379  1877  1878   ar
  1380  1877  1883   ar
  1381   771   772   ar
  1382  2118  2112   ar
  1383  2118  2117   ar
  1384  2096  2095    1
  1385  2022  2024    1
  1386   404   403   ar
  1387  2190  2170    2
  1388   427   428   ar
  1389   427   426   ar
  1390   508   507    1
  1391  1300  1302   ar
  1392  2076  2077   ar
  1393  2101  2080    2
  1394   753   732    1
  1395  1313  1315    1
  1396  1313  1311    1
  1397  2112  2113   ar
  1398  1683  1682   ar
  1399  1683  1685   ar
  1400  1878  1881   ar
  1401   775   761    1
  1402   775   795    1
  1403  1909  1928    2
  1404  1909  1927    1
  1405  1909  1892    1
  1406  1788  1787    1
  1407  2162  2165   ar
  1408  2170  2191    1
  1409  2170  2153    1
  1410  2154  2156    1
  1411  2154  2152    1
  1412  1444  1442    1
  1413  1444  1445    1
  1414   710   712    1
  1415  1515  1517   ar
  1416  1515  1516    2
  1417  1315  1310    1
  1418   185   186    2
  1419  2019  2024    1
  1420   844   846    1
  1421   844   845    1
  1422  2024  2034    1
  1423   878   879   ar
  1424  1963  1964    2
  1425  1963  1962   ar
  1426   483   485    1
  1427   483   484    1
  1428  1441  1440    1
  1429  1636  1634    1
  1430   693   698    1
  1431   428   429   ar
  1432    35    36   ar
  1433  1972  1973    1
  1434  1972  1974    1
  1435  1322  1323   ar
  1436  1992  1975    1
  1437  1992  1994    1
  1438   409   406   ar
  1439    18    17    2
  1440  1960  1962   ar
  1441  1960  1961    2
  1442  1462  1464    1
  1443  1462  1460    1
  1444  1282  1283   ar
  1445    40    39    1
  1446  1632  1633    1
  1447  1632  1634    1
  1448  1837  1838   ar
  1449   686   685   ar
  1450   686   680   ar
  1451  1895  1890    1
  1452   732   715    1
  1453   732   734    1
  1454  1637  1638   ar
  1455   685   684   ar
  1456  2074  2073    2
  1457    53    55    1
  1458    53    51    1
  1459    61    60    2
  1460   448   447   ar
  1461  1834  1833   ar
  1462  1834  1829   ar
  1463   493   492    2
  1464   492   491   ar
  1465   774   755    2
  1466  1988  1987   ar
  1467  1988  1989   ar
  1468    60    62   ar
  1469    56    55    1
  1470    56    63   ar
  1471  1487  1486    1
  1472   852   850   ar
  1473  1833  1832   ar
  1474   881   862    2
  1475  1682  1680   ar
  1476  1891  1892    1
  1477  1891  1889    1
  1478    55    50    1
  1479  2027  2026   ar
  1480  2027  2028   ar
  1481  1666  1659   ar
  1482  1973  1978    1
  1483   761   760    1
  1484   517   498    2
  1485   706   705   ar
  1486   706   699   ar
  1487   485   487    1
  1488   485   486    1
  1489   834   831   ar
  1490   850   851    1
  1491  1298  1297    2
  1492  1464  1465    1
  1493   488   487    1
  1494   488   489   ar
  1495  1974  1975    1
  1496  1974  1976    1
  1497   772   765   ar
  1498   768   766   ar
  1499    39    38   ar
  1500  2016  2017    1
  1501  1987  1984   ar
  1502   406   407   ar
  1503    68    66    1
  1504  2136  2137   ar
  1505   705   703   ar
  1506   846   847    1
  1507  1442  1440    1
  1508  1442  1443    1
  1509   773   755    1
  1510  1702  1703   ar
  1511  2167  2156    1
  1512  2167  2166   ar
  1513  2153  2152    1
  1514   875   873   ar
  1515   830   829   ar
  1516   830   831   ar
  1517  1297  1296   ar
  1518  2060  2061    1
  1519  2060  2062    1
  1520  1704  1703   ar
  1521  1704  1707   ar
  1522  1461  1460    1
  1523  1461  1459    1
  1524  1685  1686   ar
  1525  2072  2073   ar
  1526  2072  2071   ar
  1527  2156  2151    1
  1528   426   425   ar
  1529   715   714    1
  1530   696   698    1
  1531   696   697    1
  1532   520   519    1
  1533   520   518    1
  1534  1649  1633    1
  1535  1649  1667    1
  1536  1649  1651    1
  1537   446   447   ar
  1538  2139  2142   ar
  1539  2139  2138   ar
  1540  2026  2025   ar
  1541   845   862    1
  1542  1277  1278    2
  1543  1277  1276   ar
  1544  1660  1659   ar
  1545  1660  1661    2
  1546  1634  1635    1
  1547  1438  1440    1
  1548  2152  2150    1
  1549  2097  2094   ar
  1550  2097  2098   ar
  1551  1639  1638   ar
  1552   403   402   ar
  1553  2117  2120   ar
  1554  2117  2116   ar
  1555  2073  2067   ar
  1556  1883  1873    1
  1557  1883  1882   ar
  1558  2061  2066    1
  1559    11    17   ar
  1560    11    12   ar
  1561  2062  2063    1
  1562  2062  2064    1
  1563  2114  2113    1
  1564   760   762    1
  1565   760   758    1
  1566  2095  2094   ar
  1567  2095  2090   ar
  1568    17    16   ar
  1569  2113  2115   ar
  1570   484   498    1
  1571   537   518    2
  1572   829   828   ar
  1573   698   699    1
  1574  2080  2100    1
  1575  2080  2063    1
  1576  2080  2082    1
  1577   755   757    1
  1578   755   738    1
  1579   831   832   ar
  1580  1787  1786   ar
  1581  1787  1789   ar
  1582  1302  1303   ar
  1583   507   505    1
  1584   507   502    1
  1585  2034  2028   ar
  1586  2034  2033   ar
  1587  2077  2071   ar
  1588  2077  2066    1
  1589  1881  1882   ar
  1590  2165  2166   ar
  1591  1703  1709   ar
  1592  1326  1312    1
  1593  1326  1348    2
  1594  1326  1347    1
  1595    36    37   ar
  1596   879   872   ar
  1597   712   714    1
  1598   712   713    1
  1599  1311  1312    1
  1600  1311  1309    1
  1601   762   763    1
  1602   762   764    1
  1603  1310  1309    1
  1604   714   716    1
  1605   684   681   ar
  1606  2120  2121   ar
  1607   765   766   ar
  1608   765   764    1
  1609   766   767    2
  1610  1994  1993    1
  1611  1659  1658    1
  1612  2142  2143   ar
  1613   505   503    1
  1614   505   506    1
  1615   429   430    1
  1616   429   424   ar
  1617  2028  2029   ar
  1618  1873  1868    1
  1619  1873  1871    1
  1620   734   733    1
  1621   680   679   ar
  1622   680   681   ar
  1623  1829  1830   ar
  1624  1465  1481    1
  1625  1283  1276   ar
  1626  1811  1810    2
  1627   699   700   ar
  1628  1786  1792   ar
  1629  1838  1832   ar
  1630  1838  1828    1
  1631   491   489   ar
  1632  1989  1978    1
  1633  1989  1983   ar
  1634  1480  1459    2
  1635   862   880    1
  1636   862   864    1
  1637  1486  1484    1
  1638  1486  1488    1
  1639  1890  1889    1
  1640    63    62   ar
  1641  1807  1806    1
  1642   498   500    1
  1643   498   516    1
  1644  1868  1867    1
  1645  2017  2015    1
  1646  2094  2093   ar
  1647  1832  1831   ar
  1648  1978  1976    1
  1649   757   756    1
  1650    50    49    1
  1651   489   490    2
  1652    51    52    1
  1653    51    49    1
  1654  1827  1826    1
  1655  1707  1708   ar
  1656  1680  1681    2
  1657  1680  1679   ar
  1658   500   499    1
  1659    52    66    1
  1660  1889  1887    1
  1661  1651  1650    1
  1662   679   677   ar
  1663  2071  2070   ar
  1664   407   402   ar
  1665   407   408    1
  1666   750   751   ar
  1667   750   747   ar
  1668    84    66    2
  1669  1276  1275    1
  1670   728   727   ar
  1671   728   729   ar
  1672  1443  1459    1
  1673  2137  2138   ar
  1674   749   748    2
  1675   503   504    1
  1676   503   501    1
  1677   727   724   ar
  1678   518   504    1
  1679   518   536    1
  1680    66    85    1
  1681    38    37   ar
  1682    38    41   ar
  1683  2066  2064    1
  1684  1976  1977    1
  1685  1459  1479    1
  1686    13    12    1
  1687   703   704    2
  1688   703   702   ar
  1689  2138  2144   ar
  1690  1984  1983   ar
  1691  1984  1985   ar
  1692  1907  1886    2
  1693  1826  1828    1
  1694  1826  1824    1
  1695  2090  2091   ar
  1696  1296  1303   ar
  1697  1296  1295    1
  1698  1489  1488    1
  1699   425   424   ar
  1700  2098  2099   ar
  1701   873   872   ar
  1702   873   874    2
  1703   681   682   ar
  1704  1686  1679   ar
  1705  2151  2150    1
  1706   502   501    1
  1707    12    14   ar
  1708  1309  1307    1
  1709   828   827   ar
  1710   764   759    1
  1711  1789  1790   ar
  1712  2116  2115   ar
  1713  2116  2122   ar
  1714    37    43   ar
  1715  1483  1481    1
  1716  1483  1482    1
  1717  2025  2030   ar
  1718  2150  2148    1
  1719  1888  1886    1
  1720  1888  1887    1
  1721   713   718    1
  1722   832   827   ar
  1723   832   833    1
  1724  2064  2065    1
  1725   751   752   ar
  1726   872   871    1
  1727    49    47    1
  1728  1870  1886    1
  1729  1870  1869    1
  1730  1484  1482    1
  1731  1484  1485    1
  1732  2082  2081    1
  1733  2067  2068   ar
  1734  1872  1871    1
  1735  2010  2011   ar
  1736  2010  2007   ar
  1737    16    19   ar
  1738    16    15   ar
  1739  1986  1985    2
  1740   864   863    1
  1741   733   735    1
  1742  1993  1995    1
  1743  2033  2032   ar
  1744  1828  1823    1
  1745   758   756    1
  1746   758   759    1
  1747  1983  1982   ar
  1748  1830  1831   ar
  1749  1488  1490    1
  1750   738   737    1
  1751  1679  1678    1
  1752  1709  1708   ar
  1753  1709  1698    1
  1754  2143  2144   ar
  1755  2121  2122   ar
  1756  1810  1812   ar
  1757  1810  1809   ar
  1758  1871  1869    1
  1759   700   702   ar
  1760   700   701    2
  1761  1867  1869    1
  1762  1867  1865    1
  1763   748   747   ar
  1764   748   742   ar
  1765   747   746   ar
  1766   897   896    1
  1767  1808  1806    1
  1768  1808  1803    1
  1769  1808  1809    1
  1770  1792  1793    2
  1771  1792  1791   ar
  1772  2029  2030   ar
  1773  2029  2032   ar
  1774  2011  2012   ar
  1775  1886  1908    1
  1776  2036  2015    2
  1777  1985  1979   ar
  1778  1481  1499    2
  1779  1481  1500    1
  1780   737   735    1
  1781   737   739    1
  1782  1658  1653    1
  1783  1658  1656    1
  1784   501   499    1
  1785   716   718    1
  1786   716   717    1
  1787  1806  1804    1
  1788  1653  1652    1
  1789    19    20   ar
  1790   729   718    1
  1791   729   723   ar
  1792  2093  2099   ar
  1793  2093  2092   ar
  1794  2015  2035    1
  1795  2015  1998    1
  1796   677   678    1
  1797   677   676   ar
  1798   724   725   ar
  1799   724   723   ar
  1800  2144  2134    1
  1801    41    42   ar
  1802  1650  1652    1
  1803  2009  2008    2
  1804  1233  1232    1
  1805  2070  2068   ar
  1806  1295  1293    1
  1807  1295  1290    1
  1808  2030  2031    1
  1809   726   725    2
  1810  1824  1822    1
  1811  1824  1825    1
  1812  1823  1822    1
  1813  2122  2111    1
  1814  1821  1820    1
  1815  1821  1819    1
  1816  2099  2089    1
  1817  2124  2102    2
  1818  1803  1802    1
  1819  2091  2092   ar
  1820  1255  1254   ar
  1821  1255  1256   ar
  1822  1275  1270    1
  1823  1275  1273    1
  1824  1764  1765   ar
  1825  1764  1769   ar
  1826   976   975    1
  1827  1688  1669    2
  1828  1820  1822    1
  1829  1812  1813   ar
  1830  1485  1490    1
  1831  2068  2069    1
  1832   682   676   ar
  1833   682   683    2
  1834  1308  1307    1
  1835  1308  1306    1
  1836    14    15   ar
  1837  1293  1294    1
  1838  1293  1291    1
  1839  1809  1816   ar
  1840  1790  1791   ar
  1841  1790  1796   ar
  1842    15    21   ar
  1843   735   736    1
  1844   752   746   ar
  1845   752   741    1
  1846  1490  1491    1
  1847    43    42   ar
  1848    43    33    1
  1849  2148  2149    1
  1850  1654  1652    1
  1851  1654  1656    1
  1852  1654  1655    1
  1853  1802  1804    1
  1854  1802  1800    1
  1855   725   719   ar
  1856  1863  1841    2
  1857  1770  1769    1
  1858  2007  2008   ar
  1859  2007  2006   ar
  1860  1698  1696    1
  1861  1698  1693    1
  1862   723   722   ar
  1863  1656  1657    1
  1864  1805  1804    1
  1865  1805  1819    1
  1866  1997  1995    1
  1867  1997  1998    1
  1868  1997  1999    1
  1869   896   898   ar
  1870   896   895   ar
  1871   746   745   ar
  1872  1254  1259   ar
  1873  2081  2083    1
  1874   871   866    1
  1875   871   869    1
  1876  1791  1794   ar
  1877  1995  1996    1
  1878  1865  1866    1
  1879   742   743   ar
  1880    47    48    1
  1881  1982  1980   ar
  1882  1270  1269    1
  1883   866   865    1
  1884  1765  1766   ar
  1885   739   741    1
  1886   739   740    1
  1887   863   865    1
  1888  2008  2002   ar
  1889  1256  1257   ar
  1890  1728  1727    1
  1891   736   741    1
  1892  1696  1697    1
  1893  1696  1694    1
  1894  1274  1273    1
  1895  1784  1783    1
  1896  1231  1232   ar
  1897  1231  1237   ar
  1898  1678  1673    1
  1899  1678  1676    1
  1900  2012  2006   ar
  1901  2012  2001    1
  1902  1979  1980   ar
  1903   898   899   ar
  1904  1996  2001    1
  1905  1769  1768   ar
  1906    48    46    1
  1907  1839  1819    2
  1908    20    21   ar
  1909  1273  1271    1
  1910  1825  1841    1
  1911  1232  1234   ar
  1912  1849  1848    1
  1913  1325  1306    2
  1914  2146  2125    2
  1915  1819  1840    1
  1916   895   893   ar
  1917  1749  1748    1
  1918  1290  1289    1
  1919    33    31    1
  1920    33    28    1
  1921  2149  2147    1
  1922   869   867    1
  1923   869   870    1
  1924  1866  1864    1
  1925  2134  2132    1
  1926  2134  2129    1
  1927   867   865    1
  1928   867   868    1
  1929    31    32    1
  1930    31    29    1
  1931  1291  1292    1
  1932  1291  1289    1
  1933  2084  2089    1
  1934  2084  2083    1
  1935   975   977   ar
  1936   975   974   ar
  1937  2085  2083    1
  1938  2085  2087    1
  1939  2085  2086    1
  1940  2089  2087    1
  1941    21    10    1
  1942  2132  2130    1
  1943  2132  2133    1
  1944  1796  1785    1
  1945  1796  1795   ar
  1946  1980  1981    1
  1947  2111  2109    1
  1948  2111  2106    1
  1949  1655  1669    1
  1950  1669  1671    1
  1951  1669  1687    1
  1952  1673  1672    1
  1953  1306  1292    1
  1954  1306  1324    1
  1955  2006  2005   ar
  1956  1800  1801    1
  1957  2102  2104    1
  1958  2102  2086    1
  1959  2102  2123    1
  1960  1813  1814    2
  1961  1813  1815   ar
  1962  1676  1674    1
  1963  1676  1677    1
  1964   719   720   ar
  1965   743   745   ar
  1966   743   744    1
  1967  1841  1843    1
  1968  1841  1862    1
  1969  1671  1670    1
  1970  1783  1785    1
  1971  1783  1781    1
  1972   722   720   ar
  1973  1848  1846    1
  1974  1848  1850    1
  1975  1252  1251    1
  1976  1816  1815   ar
  1977  1785  1780    1
  1978  1693  1692    1
  1979  2001  1999    1
  1980  1238  1237    2
  1981  1999  2000    1
  1982   977   978   ar
  1983  1491  1498   ar
  1984  1491  1492   ar
  1985  1259  1260    1
  1986  1259  1258   ar
  1987   917   916    1
  1988  2104  2103    1
  1989  2109  2107    1
  1990  2109  2110    1
  1991   932   933   ar
  1992   932   937   ar
  1993  1733  1712    2
  1994  2087  2088    1
  1995  1237  1236   ar
  1996  1794  1795   ar
  1997   899   892   ar
  1998  1766  1767   ar
  1999  1257  1258   ar
  2000  1257  1263   ar
  2001   938   937    1
  2002  2130  2131    1
  2003  2130  2128    1
  2004   974   980   ar
  2005  1493  1492    2
  2006  1727  1726   ar
  2007  1727  1722   ar
  2008  2002  2003   ar
  2009  1859  1860   ar
  2010  1859  1856   ar
  2011  1289  1287    1
  2012  1269  1271    1
  2013  1269  1267    1
  2014   720   721    1
  2015  1729  1726   ar
  2016  1729  1730   ar
  2017   893   892   ar
  2018   893   894    2
  2019  1234  1235   ar
  2020  2129  2128    1
  2021  1694  1692    1
  2022  1694  1695    1
  2023  1860  1861   ar
  2024  1846  1847    1
  2025  1846  1844    1
  2026  2127  2125    1
  2027  2127  2126    1
  2028  1674  1672    1
  2029  1674  1675    1
  2030  2106  2105    1
  2031    23     1    1
  2032  1843  1842    1
  2033  1858  1857    2
  2034  2107  2105    1
  2035  2107  2108    1
  2036  1498  1497   ar
  2037  1711  1689    2
  2038    29    30    1
  2039    29    27    1
  2040  1768  1767   ar
  2041  1768  1771   ar
  2042   868   882    1
  2043  1271  1272    1
  2044   933   934   ar
  2045  1748  1747   ar
  2046  1748  1750   ar
  2047  2125  2108    1
  2048  2125  2145    1
  2049  1856  1857   ar
  2050  1856  1855   ar
  2051    65    46    2
  2052    46    30    1
  2053    46    64    1
  2054   999   998   ar
  2055   999  1000   ar
  2056    28    27    1
  2057  1267  1268    1
  2058  1857  1851   ar
  2059  1492  1494   ar
  2060   998   997   ar
  2061   937   936   ar
  2062   892   891    1
  2063  1258  1261   ar
  2064  1861  1855   ar
  2065  1861  1850    1
  2066  1672  1670    1
  2067  1726  1725   ar
  2068  1272  1286    1
  2069   995   994    1
  2070  1251  1253    1
  2071  1251  1249    1
  2072   972   971    1
  2073   956   955    2
  2074  2147  2131    1
  2075  2147  2168    2
  2076  2147  2169    1
  2077  1747  1745   ar
  2078  1864  1847    1
  2079  1864  1885    2
  2080  1864  1884    1
  2081    10     8    1
  2082    10     5    1
  2083  1767  1773   ar
  2084  1692  1690    1
  2085  1855  1854   ar
  2086  1253  1263    1
  2087  1253  1248    1
  2088  1801  1799    1
  2089  2005  2003   ar
  2090  1287  1288    1
  2091  1850  1845    1
  2092  1780  1779    1
  2093  1722  1723   ar
  2094  1842  1844    1
  2095   916   915   ar
  2096   916   918   ar
  2097  1263  1262   ar
  2098  1851  1852   ar
  2099  2128  2126    1
  2100  1691  1689    1
  2101  1691  1690    1
  2102   978   984   ar
  2103   978   979   ar
  2104  2105  2103    1
  2105  1695  1712    1
  2106  2003  2004    1
  2107  1781  1782    1
  2108  1781  1779    1
  2109   991   996    1
  2110   991   990    1
  2111  1730  1731   ar
  2112    45    24    2
  2113  1236  1235   ar
  2114  1236  1239   ar
  2115  1854  1852   ar
  2116   957   955   ar
  2117   957   958   ar
  2118  1235  1241   ar
  2119   996   994    1
  2120   996  1006    1
  2121  1712  1732    1
  2122  1712  1714    1
  2123  1852  1853    1
  2124   915   913   ar
  2125   973   971    1
  2126   973   984    1
  2127   973   968    1
  2128   980   979   ar
  2129   980   981    2
  2130  1844  1845    1
  2131  1782  1799    1
  2132    27    25    1
  2133     8     6    1
  2134     8     9    1
  2135  1689  1675    1
  2136  1689  1710    1
  2137  1750  1751   ar
  2138  1771  1772   ar
  2139   955   954   ar
  2140   934   935   ar
  2141   997  1002   ar
  2142     3     1    1
  2143     3     2    1
  2144     1    22    1
  2145   886   891    1
  2146   886   885    1
  2147     5     4    1
  2148  1497  1495   ar
  2149  1779  1777    1
  2150   959   958    1
  2151   971   969    1
  2152   984   983   ar
  2153   891   889    1
  2154  1000  1006   ar
  2155  1000  1001   ar
  2156    26    24    1
  2157    26    25    1
  2158   901   882    2
  2159   918   919   ar
  2160   994   992    1
  2161   936   935   ar
  2162   936   939   ar
  2163   979   982   ar
  2164   990   992    1
  2165   990   988    1
  2166   882   900    1
  2167   882   884    1
  2168  1261  1262   ar
  2169  1494  1495   ar
  2170     6     4    1
  2171     6     7    1
  2172  1248  1247    1
  2173  1268  1266    1
  2174   968   967    1
  2175  1250  1249    1
  2176  1250  1266    1
  2177  1288  1286    1
  2178   958   960   ar
  2179  1725  1731   ar
  2180  1725  1724   ar
  2181  1745  1746    2
  2182  1745  1744   ar
  2183  1799  1817    2
  2184  1799  1818    1
  2185  1006  1005   ar
  2186  1249  1247    1
  2187  1714  1713    1
  2188  1773  1772   ar
  2189  1773  1763    1
  2190  1286  1305    2
  2191  1286  1304    1
  2192   935   941   ar
  2193  1723  1724   ar
  2194   883   885    1
  2195   883   884    1
  2196    24     7    1
  2197    24    44    1
  2198  1731  1721    1
  2199   913   914    2
  2200   913   912   ar
  2201  1247  1245    1
  2202  1239  1240   ar
  2203  1495  1496    2
  2204  1241  1230    1
  2205  1241  1240   ar
  2206   992   993    1
  2207     4     2    1
  2208  1229  1228    1
  2209   954   953    1
  2210   954   961   ar
  2211   993  1009    1
  2212   988   989    1
  2213  1284  1266    2
  2214   939   940   ar
  2215  1751  1744   ar
  2216  1002  1001   ar
  2217  1002  1003    1
  2218   885   887    1
  2219  1266  1285    1
  2220  1001  1004   ar
  2221   919   912   ar
  2222   967   969    1
  2223   967   965    1
  2224   983   982   ar
  2225   953   951    1
  2226   953   948    1
  2227  1763  1761    1
  2228  1763  1758    1
  2229  1744  1743    1
  2230   952   951    1
  2231   969   970    1
  2232  1230  1228    1
  2233  1230  1225    1
  2234   889   887    1
  2235   889   890    1
  2236  1777  1778    1
  2237   960   961   ar
  2238   912   911    1
  2239  1761  1762    1
  2240  1761  1759    1
  2241  1228  1226    1
  2242   970   987    1
  2243  1005  1004   ar
  2244   941   940   ar
  2245   941   931    1
  2246  1713  1715    1
  2247   887   888    1
  2248   951   949    1
  2249  1716  1721    1
  2250  1716  1715    1
  2251  1778  1776    1
  2252  1010  1012    1
  2253  1010  1011    1
  2254  1721  1719    1
  2255   989   987    1
  2256  1029  1009    2
  2257  1245  1246    1
  2258   948   947    1
  2259  1013  1012    1
  2260  1013  1018    1
  2261  1009  1011    1
  2262  1009  1030    1
  2263  1012  1014    1
  2264  1715  1717    1
  2265   965   966    1
  2266   931   929    1
  2267   931   926    1
  2268  1758  1757    1
  2269  1717  1719    1
  2270  1717  1718    1
  2271  1225  1224    1
  2272   911   906    1
  2273   911   909    1
  2274  1743  1741    1
  2275  1743  1738    1
  2276  1753  1734    2
  2277  1759  1760    1
  2278  1759  1757    1
  2279   987  1007    2
  2280   987  1008    1
  2281  1246  1244    1
  2282  1719  1720    1
  2283  1226  1227    1
  2284  1226  1224    1
  2285   888   902    1
  2286   966   964    1
  2287   906   905    1
  2288   949   947    1
  2289   949   950    1
  2290   921   902    2
  2291   929   930    1
  2292   929   927    1
  2293  1227  1244    1
  2294  1776  1760    1
  2295  1776  1798    2
  2296  1776  1797    1
  2297  1741  1739    1
  2298  1741  1742    1
  2299   947   945    1
  2300   926   925    1
  2301  1224  1222    1
  2302  1018  1028    1
  2303  1018  1016    1
  2304  1738  1737    1
  2305  1757  1755    1
  2306   904   902    1
  2307   904   903    1
  2308  1718  1734    1
  2309  1736  1734    1
  2310  1736  1735    1
  2311   909   910    1
  2312   909   907    1
  2313   902   920    1
  2314  1734  1752    1
  2315  1014  1015    1
  2316  1014  1016    1
  2317  1017  1016    1
  2318   950   964    1
  2319  1739  1737    1
  2320  1739  1740    1
  2321  1027  1028   ar
  2322  1027  1026   ar
  2323  1775  1754    2
  2324  1244  1265    2
  2325  1244  1264    1
  2326  1015  1031    1
  2327  1028  1022   ar
  2328  1756  1755    1
  2329  1756  1754    1
  2330   964   986    2
  2331   964   985    1
  2332   905   907    1
  2333   905   903    1
  2334   927   925    1
  2335   927   928    1
  2336  1737  1735    1
  2337   907   908    1
  2338   945   946    1
  2339   925   923    1
  2340   946   944    1
  2341  1026  1023   ar
  2342  1222  1223    1
  2343  1754  1740    1
  2344  1754  1774    1
  2345  1209  1208    1
  2346  1051  1031    2
  2347  1223  1221    1
  2348  1022  1023   ar
  2349  1022  1021   ar
  2350  1052  1031    1
  2351  1031  1033    1
  2352   924   923    1
  2353   924   922    1
  2354  1023  1024   ar
  2355   928   944    1
  2356   963   944    2
  2357  1021  1020   ar
  2358  1208  1206    1
  2359  1208  1210    1
  2360  1207  1221    1
  2361  1207  1206    1
  2362   944   962    1
  2363   943   922    2
  2364   908   922    1
  2365  1213  1212    2
  2366   922   942    1
  2367  1221  1242    2
  2368  1221  1243    1
  2369  1206  1204    1
  2370  1033  1032    1
  2371  1024  1025    1
  2372  1024  1019   ar
  2373  1020  1019   ar
  2374  1210  1211    1
  2375  1210  1205    1
  2376  1212  1211   ar
  2377  1212  1214   ar
  2378  1032  1034    1
  2379  1211  1218   ar
  2380  1214  1215   ar
  2381  1035  1034    1
  2382  1035  1040    1
  2383  1204  1205    1
  2384  1204  1202    1
  2385  1049  1048   ar
  2386  1049  1050   ar
  2387  1048  1045   ar
  2388  1034  1036    1
  2389  1218  1217   ar
  2390  1215  1216    2
  2391  1215  1217   ar
  2392  1050  1040    1
  2393  1050  1044   ar
  2394  1040  1038    1
  2395  1045  1044   ar
  2396  1045  1046   ar
  2397  1139  1118    1
  2398  1202  1203    1
  2399  1196  1195    2
  2400  1047  1046    1
  2401  1044  1043   ar
  2402  1203  1201    1
  2403  1194  1195   ar
  2404  1194  1192   ar
  2405  1036  1038    1
  2406  1036  1037    1
  2407  1046  1041   ar
  2408  1193  1192    2
  2409  1118  1140    1
  2410  1118  1120    1
  2411  1195  1197   ar
  2412  1038  1039    1
  2413  1192  1191   ar
  2414  1043  1042   ar
  2415  1037  1053    1
  2416  1041  1042   ar
  2417  1176  1175    2
  2418  1075  1053    2
  2419  1201  1219    2
  2420  1201  1220    1
  2421  1201  1187    1
  2422  1197  1198   ar
  2423  1070  1069    2
  2424  1120  1119    1
  2425  1191  1198   ar
  2426  1191  1190    1
  2427  1053  1074    1
  2428  1053  1055    1
  2429  1188  1189    1
  2430  1188  1186    1
  2431  1188  1190    1
  2432  1156  1155    1
  2433  1071  1072   ar
  2434  1071  1068   ar
  2435  1175  1174   ar
  2436  1175  1177   ar
  2437  1160  1141    2
  2438  1187  1186    1
  2439  1186  1184    1
  2440  1174  1172   ar
  2441  1190  1185    1
  2442  1069  1068   ar
  2443  1069  1063   ar
  2444  1136  1137   ar
  2445  1136  1133   ar
  2446  1072  1073   ar
  2447  1119  1121    1
  2448  1068  1067   ar
  2449  1055  1054    1
  2450  1091  1090    2
  2451  1137  1138   ar
  2452  1177  1178   ar
  2453  1155  1157   ar
  2454  1155  1154   ar
  2455  1157  1158   ar
  2456  1135  1134    2
  2457  1159  1141    1
  2458  1141  1124    1
  2459  1141  1143    1
  2460  1063  1064   ar
  2461  1172  1173    2
  2462  1172  1171   ar
  2463  1133  1134   ar
  2464  1133  1132   ar
  2465  1073  1067   ar
  2466  1073  1062    1
  2467  1185  1184    1
  2468  1067  1066   ar
  2469  1184  1182    1
  2470  1054  1056    1
  2471  1134  1128   ar
  2472  1121  1123    1
  2473  1121  1122    1
  2474  1123  1124    1
  2475  1123  1125    1
  2476  1090  1092   ar
  2477  1090  1089   ar
  2478  1057  1062    1
  2479  1057  1056    1
  2480  1154  1152   ar
  2481  1183  1182    1
  2482  1183  1181    1
  2483  1178  1171   ar
  2484  1200  1181    2
  2485  1158  1151   ar
  2486  1138  1132   ar
  2487  1138  1127    1
  2488  1143  1142    1
  2489  1122  1127    1
  2490  1180  1161    2
  2491  1171  1170    1
  2492  1064  1066   ar
  2493  1064  1065    1
  2494  1092  1093   ar
  2495  1062  1060    1
  2496  1089  1087   ar
  2497  1132  1131   ar
  2498  1056  1058    1
  2499  1181  1199    1
  2500  1181  1167    1
  2501  1127  1125    1
  2502  1128  1129   ar
  2503  1152  1151   ar
  2504  1152  1153    2
  2505  1125  1126    1
  2506  1151  1150    1
  2507  1112  1111    1
  2508  1058  1060    1
  2509  1058  1059    1
  2510  1168  1166    1
  2511  1168  1170    1
  2512  1168  1169    1
  2513  1142  1144    1
  2514  1093  1086   ar
  2515  1166  1167    1
  2516  1166  1164    1
  2517  1170  1165    1
  2518  1161  1163    1
  2519  1161  1179    1
  2520  1161  1147    1
  2521  1095  1076    2
  2522  1163  1162    1
  2523  1087  1086   ar
  2524  1087  1088    2
  2525  1060  1061    1
  2526  1131  1129   ar
  2527  1146  1144    1
  2528  1146  1147    1
  2529  1146  1148    1
  2530  1129  1130    1
  2531  1086  1085    1
  2532  1145  1150    1
  2533  1145  1144    1
  2534  1150  1148    1
  2535  1165  1164    1
  2536  1059  1076    1
  2537  1111  1106   ar
  2538  1111  1110   ar
  2539  1106  1107   ar
  2540  1148  1149    1
  2541  1164  1162    1
  2542  1076  1078    1
  2543  1076  1094    1
  2544  1085  1080    1
  2545  1085  1083    1
  2546  1078  1077    1
  2547  1107  1108   ar
  2548  1080  1079    1
  2549  1110  1113   ar
  2550  1110  1109   ar
  2551  1113  1114   ar
  2552  1083  1081    1
  2553  1083  1084    1
  2554  1077  1079    1
  2555  1109  1108   ar
  2556  1109  1115   ar
  2557  1079  1081    1
  2558  1081  1082    1
  2559  1114  1115   ar
  2560  1117  1096    2
  2561  1115  1105    1
  2562  1082  1096    1
  2563  1096  1098    1
  2564  1096  1116    1
  2565  1105  1100    1
  2566  1105  1103    1
  2567  1098  1097    1
  2568  1100  1099    1
  2569  1103  1101    1
  2570  1103  1104    1
  2571  1101  1099    1
  2572  1101  1102    1
  2573  1097  1099    1
