ligand
 OpenBabel11021811413D
libRbt.so/2013.1/901 2013/11/27
 14 13  0  0  0  0  0  0  0  0999 V2000
   45.1315    0.0519   15.7908 N   0  0  0  0  0  0  0  0  0  0  0  0
   45.3382    1.3170   16.5283 C   0  0  0  0  0  0  0  0  0  0  0  0
   45.9464    1.0567   17.9234 C   0  0  0  0  0  0  0  0  0  0  0  0
   46.3400    2.3259   18.6968 C   0  0  0  0  0  0  0  0  0  0  0  0
   45.1437    3.1572   19.0038 N   0  0  0  0  0  0  0  0  0  0  0  0
   45.5590    4.4592   19.5862 C   0  0  0  0  0  0  0  0  0  0  0  0
   46.2487    5.4551   18.5939 C   0  0  0  0  0  0  0  0  0  0  0  0
   46.3359    6.9169   19.1194 C   0  0  0  0  0  0  0  0  0  0  0  0
   47.0646    7.8640   18.1861 C   0  0  0  0  0  0  0  0  0  0  0  0
   46.7387    9.2180   18.5920 N   0  0  0  0  0  0  0  0  0  0  0  0
   45.7351    9.6848   17.6514 C   0  0  0  0  0  0  0  0  0  0  0  0
   45.1709   11.0392   18.0644 C   0  0  0  0  0  0  0  0  0  0  0  0
   44.0768   11.4147   17.0535 C   0  0  0  0  0  0  0  0  0  0  0  0
   43.4836   12.7295   17.3397 N   0  0  0  0  0  0  0  0  0  0  0  0
  1  2  1  0  0  0  0
  2  3  1  0  0  0  0
  3  4  1  0  0  0  0
  4  5  1  0  0  0  0
  5  6  1  0  0  0  0
  6  7  1  0  0  0  0
  7  8  1  0  0  0  0
  8  9  1  0  0  0  0
  9 10  1  0  0  0  0
 10 11  1  0  0  0  0
 11 12  1  0  0  0  0
 12 13  1  0  0  0  0
 13 14  1  0  0  0  0
M  END
>  <CHROM.1>
173.50322934,63.87258937,-172.42954587,70.76459113,164.99024663,177.15194405
163.69479811,-101.59809227,172.86918194,-177.30237262,-178.56413692,45.59398209
6.19210423,18.00939647,1.45352490,0.89385713,-3.02969627

>  <Name>
ligand

>  <RI>
0

>  <Rbt.Current_Directory>
/home/itssahil/PROJECTS/Mol_Feturizer/New_Systems/rnas/1TN2

>  <Rbt.Executable>
rbdock ($Id: //depot/dev/client3/rdock/2013.1/src/exe/rbdock.cxx#4 $)

>  <Rbt.Library>
libRbt.so (2013.1, Build901 2013/11/27)

>  <Rbt.Parameter_File>
/export/apps/rDock/src/rDock_2013.1_src/data/scripts/dock_solv.prm

>  <Rbt.Receptor>
prm/pocket_docking_2.prm

>  <SCORE>
-4.29767

>  <SCORE.INTER>
-2.01096

>  <SCORE.INTER.CONST>
1

>  <SCORE.INTER.POLAR>
0

>  <SCORE.INTER.ROT>
11

>  <SCORE.INTER.SOLV>
10.6631

>  <SCORE.INTER.VDW>
-15.8283

>  <SCORE.INTER.norm>
-0.14364

>  <SCORE.INTRA>
-2.29986

>  <SCORE.INTRA.DIHEDRAL>
-4.63224

>  <SCORE.INTRA.DIHEDRAL.0>
7.79482

>  <SCORE.INTRA.POLAR>
0

>  <SCORE.INTRA.POLAR.0>
0

>  <SCORE.INTRA.REPUL>
0

>  <SCORE.INTRA.REPUL.0>
0

>  <SCORE.INTRA.SOLV>
0.283347

>  <SCORE.INTRA.SOLV.lig_0>
-49.456

>  <SCORE.INTRA.VDW>
-0.125419

>  <SCORE.INTRA.VDW.0>
-0.478406

>  <SCORE.INTRA.norm>
-0.164276

>  <SCORE.RESTR>
0.0131563

>  <SCORE.RESTR.CAVITY>
0.0131563

>  <SCORE.RESTR.norm>
0.000939737

>  <SCORE.SYSTEM>
0

>  <SCORE.SYSTEM.CONST>
0

>  <SCORE.SYSTEM.DIHEDRAL>
0

>  <SCORE.SYSTEM.SOLV>
0

>  <SCORE.SYSTEM.norm>
0

>  <SCORE.heavy>
14

>  <SCORE.norm>
-0.306976

>  <RMSD>
1.120

$$$$
ligand
 OpenBabel11021811413D
libRbt.so/2013.1/901 2013/11/27
 14 13  0  0  0  0  0  0  0  0999 V2000
   45.5831    0.0454   15.9184 N   0  0  0  0  0  0  0  0  0  0  0  0
   45.1644    0.6587   17.1973 C   0  0  0  0  0  0  0  0  0  0  0  0
   45.9684    1.9441   17.4895 C   0  0  0  0  0  0  0  0  0  0  0  0
   45.5793    2.6597   18.7935 C   0  0  0  0  0  0  0  0  0  0  0  0
   46.2961    3.9580   18.9250 N   0  0  0  0  0  0  0  0  0  0  0  0
   45.6095    4.8253   19.9165 C   0  0  0  0  0  0  0  0  0  0  0  0
   46.2273    6.2511   20.1109 C   0  0  0  0  0  0  0  0  0  0  0  0
   46.1122    7.1691   18.8601 C   0  0  0  0  0  0  0  0  0  0  0  0
   46.6438    8.5725   19.0756 C   0  0  0  0  0  0  0  0  0  0  0  0
   46.3941    9.3281   17.8627 N   0  0  0  0  0  0  0  0  0  0  0  0
   45.2868   10.2170   18.1683 C   0  0  0  0  0  0  0  0  0  0  0  0
   44.6887   10.8186   16.9020 C   0  0  0  0  0  0  0  0  0  0  0  0
   43.5793   11.7918   17.3289 C   0  0  0  0  0  0  0  0  0  0  0  0
   42.4552   11.1019   17.9795 N   0  0  0  0  0  0  0  0  0  0  0  0
  1  2  1  0  0  0  0
  2  3  1  0  0  0  0
  3  4  1  0  0  0  0
  4  5  1  0  0  0  0
  5  6  1  0  0  0  0
  6  7  1  0  0  0  0
  7  8  1  0  0  0  0
  8  9  1  0  0  0  0
  9 10  1  0  0  0  0
 10 11  1  0  0  0  0
 11 12  1  0  0  0  0
 12 13  1  0  0  0  0
 13 14  1  0  0  0  0
M  END
>  <CHROM.1>
179.06705513,-173.95410678,161.53428342,-177.59476887,66.04135308,176.88155838
-176.46901814,105.57488674,-165.75243923,-177.20238646,-65.43020969,45.39925147
6.38163353,18.18078387,1.35813767,0.90166258,-2.94689614

>  <Name>
ligand

>  <RI>
0

>  <Rbt.Current_Directory>
/home/itssahil/PROJECTS/Mol_Feturizer/New_Systems/rnas/1TN2

>  <Rbt.Executable>
rbdock ($Id: //depot/dev/client3/rdock/2013.1/src/exe/rbdock.cxx#4 $)

>  <Rbt.Library>
libRbt.so (2013.1, Build901 2013/11/27)

>  <Rbt.Parameter_File>
/export/apps/rDock/src/rDock_2013.1_src/data/scripts/dock_solv.prm

>  <Rbt.Receptor>
prm/pocket_docking_2.prm

>  <SCORE>
-5.62255

>  <SCORE.INTER>
-2.74403

>  <SCORE.INTER.CONST>
1

>  <SCORE.INTER.POLAR>
0

>  <SCORE.INTER.ROT>
11

>  <SCORE.INTER.SOLV>
13.8854

>  <SCORE.INTER.VDW>
-17.3911

>  <SCORE.INTER.norm>
-0.196002

>  <SCORE.INTRA>
-2.90299

>  <SCORE.INTRA.DIHEDRAL>
-5.82913

>  <SCORE.INTRA.DIHEDRAL.0>
7.79482

>  <SCORE.INTRA.POLAR>
0

>  <SCORE.INTRA.POLAR.0>
0

>  <SCORE.INTRA.REPUL>
0

>  <SCORE.INTRA.REPUL.0>
0

>  <SCORE.INTRA.SOLV>
1.04301

>  <SCORE.INTRA.SOLV.lig_0>
-49.456

>  <SCORE.INTRA.VDW>
-0.509931

>  <SCORE.INTRA.VDW.0>
-0.478406

>  <SCORE.INTRA.norm>
-0.207356

>  <SCORE.RESTR>
0.0244685

>  <SCORE.RESTR.CAVITY>
0.0244685

>  <SCORE.RESTR.norm>
0.00174775

>  <SCORE.SYSTEM>
0

>  <SCORE.SYSTEM.CONST>
0

>  <SCORE.SYSTEM.DIHEDRAL>
0

>  <SCORE.SYSTEM.SOLV>
0

>  <SCORE.SYSTEM.norm>
0

>  <SCORE.heavy>
14

>  <SCORE.norm>
-0.401611

>  <RMSD>
1.162

$$$$
ligand
 OpenBabel11021811413D
libRbt.so/2013.1/901 2013/11/27
 14 13  0  0  0  0  0  0  0  0999 V2000
   45.5280   -0.4348   15.4388 N   0  0  0  0  0  0  0  0  0  0  0  0
   45.4833   -0.4767   16.9164 C   0  0  0  0  0  0  0  0  0  0  0  0
   45.0767    0.8932   17.5014 C   0  0  0  0  0  0  0  0  0  0  0  0
   46.0796    2.0271   17.2319 C   0  0  0  0  0  0  0  0  0  0  0  0
   45.5682    3.3266   17.7480 N   0  0  0  0  0  0  0  0  0  0  0  0
   46.1677    3.6240   19.0742 C   0  0  0  0  0  0  0  0  0  0  0  0
   45.9052    5.0651   19.6277 C   0  0  0  0  0  0  0  0  0  0  0  0
   46.4420    6.2040   18.7138 C   0  0  0  0  0  0  0  0  0  0  0  0
   46.0139    7.5930   19.1454 C   0  0  0  0  0  0  0  0  0  0  0  0
   46.4734    8.5280   18.1360 N   0  0  0  0  0  0  0  0  0  0  0  0
   45.6311    9.7037   18.2695 C   0  0  0  0  0  0  0  0  0  0  0  0
   45.2308   10.2605   16.9083 C   0  0  0  0  0  0  0  0  0  0  0  0
   44.2710   11.4352   17.1506 C   0  0  0  0  0  0  0  0  0  0  0  0
   42.9897   10.9965   17.7237 N   0  0  0  0  0  0  0  0  0  0  0  0
  1  2  1  0  0  0  0
  2  3  1  0  0  0  0
  3  4  1  0  0  0  0
  4  5  1  0  0  0  0
  5  6  1  0  0  0  0
  6  7  1  0  0  0  0
  7  8  1  0  0  0  0
  8  9  1  0  0  0  0
  9 10  1  0  0  0  0
 10 11  1  0  0  0  0
 11 12  1  0  0  0  0
 12 13  1  0  0  0  0
 13 14  1  0  0  0  0
M  END
>  <CHROM.1>
-64.41654394,176.15574117,98.55788449,170.26378659,-59.72523488,171.60249010
-174.48485316,157.77635140,-138.80280064,176.23330633,-67.16694397,45.49018841
5.62468737,17.82777621,1.42420581,0.97551391,-2.94224743

>  <Name>
ligand

>  <RI>
0

>  <Rbt.Current_Directory>
/home/itssahil/PROJECTS/Mol_Feturizer/New_Systems/rnas/1TN2

>  <Rbt.Executable>
rbdock ($Id: //depot/dev/client3/rdock/2013.1/src/exe/rbdock.cxx#4 $)

>  <Rbt.Library>
libRbt.so (2013.1, Build901 2013/11/27)

>  <Rbt.Parameter_File>
/export/apps/rDock/src/rDock_2013.1_src/data/scripts/dock_solv.prm

>  <Rbt.Receptor>
prm/pocket_docking_2.prm

>  <SCORE>
-4.75965

>  <SCORE.INTER>
-2.76292

>  <SCORE.INTER.CONST>
1

>  <SCORE.INTER.POLAR>
0

>  <SCORE.INTER.ROT>
11

>  <SCORE.INTER.SOLV>
12.4891

>  <SCORE.INTER.VDW>
-16.9383

>  <SCORE.INTER.norm>
-0.197352

>  <SCORE.INTRA>
-2.04215

>  <SCORE.INTRA.DIHEDRAL>
-4.78384

>  <SCORE.INTRA.DIHEDRAL.0>
7.79482

>  <SCORE.INTRA.POLAR>
0

>  <SCORE.INTRA.POLAR.0>
0

>  <SCORE.INTRA.REPUL>
0

>  <SCORE.INTRA.REPUL.0>
0

>  <SCORE.INTRA.SOLV>
1.81204

>  <SCORE.INTRA.SOLV.lig_0>
-49.456

>  <SCORE.INTRA.VDW>
-0.556253

>  <SCORE.INTRA.VDW.0>
-0.478406

>  <SCORE.INTRA.norm>
-0.145868

>  <SCORE.RESTR>
0.0454285

>  <SCORE.RESTR.CAVITY>
0.0454285

>  <SCORE.RESTR.norm>
0.00324489

>  <SCORE.SYSTEM>
0

>  <SCORE.SYSTEM.CONST>
0

>  <SCORE.SYSTEM.DIHEDRAL>
0

>  <SCORE.SYSTEM.SOLV>
0

>  <SCORE.SYSTEM.norm>
0

>  <SCORE.heavy>
14

>  <SCORE.norm>
-0.339975

>  <RMSD>
1.251

$$$$
ligand
 OpenBabel11021811413D
libRbt.so/2013.1/901 2013/11/27
 14 13  0  0  0  0  0  0  0  0999 V2000
   45.7020    0.7737   15.7061 N   0  0  0  0  0  0  0  0  0  0  0  0
   45.4270    0.1810   17.0328 C   0  0  0  0  0  0  0  0  0  0  0  0
   44.8757    1.2388   18.0132 C   0  0  0  0  0  0  0  0  0  0  0  0
   45.8436    2.3936   18.3192 C   0  0  0  0  0  0  0  0  0  0  0  0
   45.2160    3.3897   19.2303 N   0  0  0  0  0  0  0  0  0  0  0  0
   46.1794    4.4757   19.5455 C   0  0  0  0  0  0  0  0  0  0  0  0
   45.7391    5.9162   19.1174 C   0  0  0  0  0  0  0  0  0  0  0  0
   46.8617    6.9863   19.2407 C   0  0  0  0  0  0  0  0  0  0  0  0
   46.4935    8.3350   18.6540 C   0  0  0  0  0  0  0  0  0  0  0  0
   45.4837    8.9262   19.5113 N   0  0  0  0  0  0  0  0  0  0  0  0
   44.4310    9.3904   18.6247 C   0  0  0  0  0  0  0  0  0  0  0  0
   44.6705   10.8283   18.1795 C   0  0  0  0  0  0  0  0  0  0  0  0
   43.4117   11.3006   17.4364 C   0  0  0  0  0  0  0  0  0  0  0  0
   43.5119   12.7047   17.0107 N   0  0  0  0  0  0  0  0  0  0  0  0
  1  2  1  0  0  0  0
  2  3  1  0  0  0  0
  3  4  1  0  0  0  0
  4  5  1  0  0  0  0
  5  6  1  0  0  0  0
  6  7  1  0  0  0  0
  7  8  1  0  0  0  0
  8  9  1  0  0  0  0
  9 10  1  0  0  0  0
 10 11  1  0  0  0  0
 11 12  1  0  0  0  0
 12 13  1  0  0  0  0
 13 14  1  0  0  0  0
M  END
>  <CHROM.1>
-62.61438432,177.93931399,178.34203241,119.55083724,-170.16813641,172.24223538
69.98591189,-132.01811685,-90.13834681,-171.25211786,177.50566179,45.27488583
6.20276672,18.25886772,1.35776671,0.96072502,-2.92073163

>  <Name>
ligand

>  <RI>
0

>  <Rbt.Current_Directory>
/home/itssahil/PROJECTS/Mol_Feturizer/New_Systems/rnas/1TN2

>  <Rbt.Executable>
rbdock ($Id: //depot/dev/client3/rdock/2013.1/src/exe/rbdock.cxx#4 $)

>  <Rbt.Library>
libRbt.so (2013.1, Build901 2013/11/27)

>  <Rbt.Parameter_File>
/export/apps/rDock/src/rDock_2013.1_src/data/scripts/dock_solv.prm

>  <Rbt.Receptor>
prm/pocket_docking_2.prm

>  <SCORE>
-5.28002

>  <SCORE.INTER>
-3.86663

>  <SCORE.INTER.CONST>
1

>  <SCORE.INTER.POLAR>
0

>  <SCORE.INTER.ROT>
11

>  <SCORE.INTER.SOLV>
10.6243

>  <SCORE.INTER.VDW>
-17.0525

>  <SCORE.INTER.norm>
-0.276188

>  <SCORE.INTRA>
-1.52176

>  <SCORE.INTRA.DIHEDRAL>
-3.57798

>  <SCORE.INTRA.DIHEDRAL.0>
7.79482

>  <SCORE.INTRA.POLAR>
0

>  <SCORE.INTRA.POLAR.0>
0

>  <SCORE.INTRA.REPUL>
0

>  <SCORE.INTRA.REPUL.0>
0

>  <SCORE.INTRA.SOLV>
0.996478

>  <SCORE.INTRA.SOLV.lig_0>
-49.456

>  <SCORE.INTRA.VDW>
-0.231013

>  <SCORE.INTRA.VDW.0>
-0.478406

>  <SCORE.INTRA.norm>
-0.108697

>  <SCORE.RESTR>
0.108363

>  <SCORE.RESTR.CAVITY>
0.108363

>  <SCORE.RESTR.norm>
0.00774025

>  <SCORE.SYSTEM>
0

>  <SCORE.SYSTEM.CONST>
0

>  <SCORE.SYSTEM.DIHEDRAL>
0

>  <SCORE.SYSTEM.SOLV>
0

>  <SCORE.SYSTEM.norm>
0

>  <SCORE.heavy>
14

>  <SCORE.norm>
-0.377145

>  <RMSD>
1.296

$$$$
ligand
 OpenBabel11021811413D
libRbt.so/2013.1/901 2013/11/27
 14 13  0  0  0  0  0  0  0  0999 V2000
   44.2092    0.8282   16.5973 N   0  0  0  0  0  0  0  0  0  0  0  0
   45.3773    0.3474   17.3664 C   0  0  0  0  0  0  0  0  0  0  0  0
   45.7799    1.3596   18.4607 C   0  0  0  0  0  0  0  0  0  0  0  0
   45.9905    2.7968   17.9567 C   0  0  0  0  0  0  0  0  0  0  0  0
   46.5901    3.6525   19.0172 N   0  0  0  0  0  0  0  0  0  0  0  0
   45.5538    4.5357   19.6112 C   0  0  0  0  0  0  0  0  0  0  0  0
   46.0310    5.9776   19.9922 C   0  0  0  0  0  0  0  0  0  0  0  0
   46.2910    6.9043   18.7699 C   0  0  0  0  0  0  0  0  0  0  0  0
   46.8611    8.2606   19.1360 C   0  0  0  0  0  0  0  0  0  0  0  0
   46.4490    9.2015   18.1116 N   0  0  0  0  0  0  0  0  0  0  0  0
   45.6881   10.2302   18.7990 C   0  0  0  0  0  0  0  0  0  0  0  0
   45.5119   11.4690   17.9285 C   0  0  0  0  0  0  0  0  0  0  0  0
   44.4060   11.1654   16.9065 C   0  0  0  0  0  0  0  0  0  0  0  0
   43.0839   11.0423   17.5386 N   0  0  0  0  0  0  0  0  0  0  0  0
  1  2  1  0  0  0  0
  2  3  1  0  0  0  0
  3  4  1  0  0  0  0
  4  5  1  0  0  0  0
  5  6  1  0  0  0  0
  6  7  1  0  0  0  0
  7  8  1  0  0  0  0
  8  9  1  0  0  0  0
  9 10  1  0  0  0  0
 10 11  1  0  0  0  0
 11 12  1  0  0  0  0
 12 13  1  0  0  0  0
 13 14  1  0  0  0  0
M  END
>  <CHROM.1>
-52.46376910,-170.58797017,-103.53687836,-143.01674112,72.09575073,-175.23475957
-152.23344887,120.69382755,164.61080263,77.74068154,68.46736856,45.55897931
6.26939456,18.29960745,1.51202138,0.76622254,-3.09493877

>  <Name>
ligand

>  <RI>
0

>  <Rbt.Current_Directory>
/home/itssahil/PROJECTS/Mol_Feturizer/New_Systems/rnas/1TN2

>  <Rbt.Executable>
rbdock ($Id: //depot/dev/client3/rdock/2013.1/src/exe/rbdock.cxx#4 $)

>  <Rbt.Library>
libRbt.so (2013.1, Build901 2013/11/27)

>  <Rbt.Parameter_File>
/export/apps/rDock/src/rDock_2013.1_src/data/scripts/dock_solv.prm

>  <Rbt.Receptor>
prm/pocket_docking_2.prm

>  <SCORE>
-1.78987

>  <SCORE.INTER>
-2.76235

>  <SCORE.INTER.CONST>
1

>  <SCORE.INTER.POLAR>
0

>  <SCORE.INTER.ROT>
11

>  <SCORE.INTER.SOLV>
15.1966

>  <SCORE.INTER.VDW>
-17.8404

>  <SCORE.INTER.norm>
-0.197311

>  <SCORE.INTRA>
0.931403

>  <SCORE.INTRA.DIHEDRAL>
0.377245

>  <SCORE.INTRA.DIHEDRAL.0>
7.79482

>  <SCORE.INTRA.POLAR>
0

>  <SCORE.INTRA.POLAR.0>
0

>  <SCORE.INTRA.REPUL>
0

>  <SCORE.INTRA.REPUL.0>
0

>  <SCORE.INTRA.SOLV>
2.52268

>  <SCORE.INTRA.SOLV.lig_0>
-49.456

>  <SCORE.INTRA.VDW>
-0.518561

>  <SCORE.INTRA.VDW.0>
-0.478406

>  <SCORE.INTRA.norm>
0.0665288

>  <SCORE.RESTR>
0.0410783

>  <SCORE.RESTR.CAVITY>
0.0410783

>  <SCORE.RESTR.norm>
0.00293416

>  <SCORE.SYSTEM>
0

>  <SCORE.SYSTEM.CONST>
0

>  <SCORE.SYSTEM.DIHEDRAL>
0

>  <SCORE.SYSTEM.SOLV>
0

>  <SCORE.SYSTEM.norm>
0

>  <SCORE.heavy>
14

>  <SCORE.norm>
-0.127848

>  <RMSD>
1.323

$$$$
ligand
 OpenBabel11021811413D
libRbt.so/2013.1/901 2013/11/27
 14 13  0  0  0  0  0  0  0  0999 V2000
   43.5448   12.4584   17.6028 N   0  0  0  0  0  0  0  0  0  0  0  0
   43.6165   10.9975   17.8211 C   0  0  0  0  0  0  0  0  0  0  0  0
   45.0457   10.5607   18.2090 C   0  0  0  0  0  0  0  0  0  0  0  0
   45.2209    9.0457   18.4044 C   0  0  0  0  0  0  0  0  0  0  0  0
   46.5903    8.7247   18.8924 N   0  0  0  0  0  0  0  0  0  0  0  0
   46.7839    7.2528   18.9470 C   0  0  0  0  0  0  0  0  0  0  0  0
   45.9528    6.5011   20.0408 C   0  0  0  0  0  0  0  0  0  0  0  0
   46.2267    4.9710   20.1065 C   0  0  0  0  0  0  0  0  0  0  0  0
   45.8534    4.2240   18.8410 C   0  0  0  0  0  0  0  0  0  0  0  0
   45.6426    2.8337   19.1974 N   0  0  0  0  0  0  0  0  0  0  0  0
   45.8784    2.0715   17.9837 C   0  0  0  0  0  0  0  0  0  0  0  0
   44.8784    0.9303   17.8387 C   0  0  0  0  0  0  0  0  0  0  0  0
   45.3631    0.0306   16.6916 C   0  0  0  0  0  0  0  0  0  0  0  0
   45.3117    0.7136   15.3902 N   0  0  0  0  0  0  0  0  0  0  0  0
  1  2  1  0  0  0  0
  2  3  1  0  0  0  0
  3  4  1  0  0  0  0
  4  5  1  0  0  0  0
  5  6  1  0  0  0  0
  6  7  1  0  0  0  0
  7  8  1  0  0  0  0
  8  9  1  0  0  0  0
  9 10  1  0  0  0  0
 10 11  1  0  0  0  0
 11 12  1  0  0  0  0
 12 13  1  0  0  0  0
 13 14  1  0  0  0  0
M  END
>  <CHROM.1>
-177.85579808,-174.95769021,-174.43266279,-68.87472224,-177.57295643,-62.78520299
-157.45364255,-155.35181591,-140.36057213,-169.34903571,-66.28969991,45.42215102
5.80810555,18.28354144,1.72447640,-0.99672277,0.21859571

>  <Name>
ligand

>  <RI>
0

>  <Rbt.Current_Directory>
/home/itssahil/PROJECTS/Mol_Feturizer/New_Systems/rnas/1TN2

>  <Rbt.Executable>
rbdock ($Id: //depot/dev/client3/rdock/2013.1/src/exe/rbdock.cxx#4 $)

>  <Rbt.Library>
libRbt.so (2013.1, Build901 2013/11/27)

>  <Rbt.Parameter_File>
/export/apps/rDock/src/rDock_2013.1_src/data/scripts/dock_solv.prm

>  <Rbt.Receptor>
prm/pocket_docking_2.prm

>  <SCORE>
-6.57393

>  <SCORE.INTER>
-5.20559

>  <SCORE.INTER.CONST>
1

>  <SCORE.INTER.POLAR>
0

>  <SCORE.INTER.ROT>
11

>  <SCORE.INTER.SOLV>
10.6434

>  <SCORE.INTER.VDW>
-17.9515

>  <SCORE.INTER.norm>
-0.371828

>  <SCORE.INTRA>
-1.38781

>  <SCORE.INTRA.DIHEDRAL>
-3.93745

>  <SCORE.INTRA.DIHEDRAL.0>
7.79482

>  <SCORE.INTRA.POLAR>
0

>  <SCORE.INTRA.POLAR.0>
0

>  <SCORE.INTRA.REPUL>
0

>  <SCORE.INTRA.REPUL.0>
0

>  <SCORE.INTRA.SOLV>
0.806073

>  <SCORE.INTRA.SOLV.lig_0>
-49.456

>  <SCORE.INTRA.VDW>
0.177874

>  <SCORE.INTRA.VDW.0>
-0.478406

>  <SCORE.INTRA.norm>
-0.0991295

>  <SCORE.RESTR>
0.0194669

>  <SCORE.RESTR.CAVITY>
0.0194669

>  <SCORE.RESTR.norm>
0.00139049

>  <SCORE.SYSTEM>
0

>  <SCORE.SYSTEM.CONST>
0

>  <SCORE.SYSTEM.DIHEDRAL>
0

>  <SCORE.SYSTEM.SOLV>
0

>  <SCORE.SYSTEM.norm>
0

>  <SCORE.heavy>
14

>  <SCORE.norm>
-0.469567

>  <RMSD>
1.343

$$$$
ligand
 OpenBabel11021811413D
libRbt.so/2013.1/901 2013/11/27
 14 13  0  0  0  0  0  0  0  0999 V2000
   45.0607   -0.0253   15.0495 N   0  0  0  0  0  0  0  0  0  0  0  0
   44.8686    0.1444   16.5060 C   0  0  0  0  0  0  0  0  0  0  0  0
   45.6843    1.3413   17.0408 C   0  0  0  0  0  0  0  0  0  0  0  0
   45.5477    1.5843   18.5528 C   0  0  0  0  0  0  0  0  0  0  0  0
   46.4075    2.7177   18.9917 N   0  0  0  0  0  0  0  0  0  0  0  0
   45.6011    3.9602   19.1042 C   0  0  0  0  0  0  0  0  0  0  0  0
   46.4194    5.2863   19.2585 C   0  0  0  0  0  0  0  0  0  0  0  0
   45.5425    6.5696   19.3255 C   0  0  0  0  0  0  0  0  0  0  0  0
   46.3120    7.8541   19.0873 C   0  0  0  0  0  0  0  0  0  0  0  0
   45.3756    8.9557   19.2056 N   0  0  0  0  0  0  0  0  0  0  0  0
   46.0015   10.0836   18.5380 C   0  0  0  0  0  0  0  0  0  0  0  0
   45.2014   10.5232   17.3173 C   0  0  0  0  0  0  0  0  0  0  0  0
   43.8640   11.0897   17.8176 C   0  0  0  0  0  0  0  0  0  0  0  0
   43.0248   11.5869   16.7170 N   0  0  0  0  0  0  0  0  0  0  0  0
  1  2  1  0  0  0  0
  2  3  1  0  0  0  0
  3  4  1  0  0  0  0
  4  5  1  0  0  0  0
  5  6  1  0  0  0  0
  6  7  1  0  0  0  0
  7  8  1  0  0  0  0
  8  9  1  0  0  0  0
  9 10  1  0  0  0  0
 10 11  1  0  0  0  0
 11 12  1  0  0  0  0
 12 13  1  0  0  0  0
 13 14  1  0  0  0  0
M  END
>  <CHROM.1>
-179.66602427,177.66171522,98.59138703,-167.51175703,178.06186683,-163.88354783
-178.91079615,-160.84570306,115.99249931,66.81840158,178.16094528,45.35095288
5.83370611,18.03678537,1.41764344,1.00974926,-2.92390494

>  <Name>
ligand

>  <RI>
0

>  <Rbt.Current_Directory>
/home/itssahil/PROJECTS/Mol_Feturizer/New_Systems/rnas/1TN2

>  <Rbt.Executable>
rbdock ($Id: //depot/dev/client3/rdock/2013.1/src/exe/rbdock.cxx#4 $)

>  <Rbt.Library>
libRbt.so (2013.1, Build901 2013/11/27)

>  <Rbt.Parameter_File>
/export/apps/rDock/src/rDock_2013.1_src/data/scripts/dock_solv.prm

>  <Rbt.Receptor>
prm/pocket_docking_2.prm

>  <SCORE>
-4.1617

>  <SCORE.INTER>
-1.81958

>  <SCORE.INTER.CONST>
1

>  <SCORE.INTER.POLAR>
0

>  <SCORE.INTER.ROT>
11

>  <SCORE.INTER.SOLV>
13.4928

>  <SCORE.INTER.VDW>
-16.644

>  <SCORE.INTER.norm>
-0.12997

>  <SCORE.INTRA>
-2.34634

>  <SCORE.INTRA.DIHEDRAL>
-4.09308

>  <SCORE.INTRA.DIHEDRAL.0>
7.79482

>  <SCORE.INTRA.POLAR>
0

>  <SCORE.INTRA.POLAR.0>
0

>  <SCORE.INTRA.REPUL>
0

>  <SCORE.INTRA.REPUL.0>
0

>  <SCORE.INTRA.SOLV>
0.344342

>  <SCORE.INTRA.SOLV.lig_0>
-49.456

>  <SCORE.INTRA.VDW>
-0.471969

>  <SCORE.INTRA.VDW.0>
-0.478406

>  <SCORE.INTRA.norm>
-0.167596

>  <SCORE.RESTR>
0.0042119

>  <SCORE.RESTR.CAVITY>
0.0042119

>  <SCORE.RESTR.norm>
0.00030085

>  <SCORE.SYSTEM>
0

>  <SCORE.SYSTEM.CONST>
0

>  <SCORE.SYSTEM.DIHEDRAL>
0

>  <SCORE.SYSTEM.SOLV>
0

>  <SCORE.SYSTEM.norm>
0

>  <SCORE.heavy>
14

>  <SCORE.norm>
-0.297265

>  <RMSD>
1.347

$$$$
ligand
 OpenBabel11021811413D
libRbt.so/2013.1/901 2013/11/27
 14 13  0  0  0  0  0  0  0  0999 V2000
   45.4037   -0.0230   15.8463 N   0  0  0  0  0  0  0  0  0  0  0  0
   44.9292    0.6940   17.0495 C   0  0  0  0  0  0  0  0  0  0  0  0
   45.9657    1.7356   17.5235 C   0  0  0  0  0  0  0  0  0  0  0  0
   45.5190    2.5807   18.7277 C   0  0  0  0  0  0  0  0  0  0  0  0
   46.5293    3.6251   19.0519 N   0  0  0  0  0  0  0  0  0  0  0  0
   45.9982    4.5497   20.0862 C   0  0  0  0  0  0  0  0  0  0  0  0
   45.6041    5.9778   19.5790 C   0  0  0  0  0  0  0  0  0  0  0  0
   46.8154    6.8597   19.1602 C   0  0  0  0  0  0  0  0  0  0  0  0
   46.4262    8.1514   18.4680 C   0  0  0  0  0  0  0  0  0  0  0  0
   45.5264    8.8691   19.3509 N   0  0  0  0  0  0  0  0  0  0  0  0
   44.9958    9.9714   18.5679 C   0  0  0  0  0  0  0  0  0  0  0  0
   43.4762   10.0420   18.6624 C   0  0  0  0  0  0  0  0  0  0  0  0
   43.0168   11.2667   17.8568 C   0  0  0  0  0  0  0  0  0  0  0  0
   41.5677   11.4922   17.9665 N   0  0  0  0  0  0  0  0  0  0  0  0
  1  2  1  0  0  0  0
  2  3  1  0  0  0  0
  3  4  1  0  0  0  0
  4  5  1  0  0  0  0
  5  6  1  0  0  0  0
  6  7  1  0  0  0  0
  7  8  1  0  0  0  0
  8  9  1  0  0  0  0
  9 10  1  0  0  0  0
 10 11  1  0  0  0  0
 11 12  1  0  0  0  0
 12 13  1  0  0  0  0
 13 14  1  0  0  0  0
M  END
>  <CHROM.1>
176.87764151,-175.65080592,171.97977462,-107.12169704,-69.41543072,170.85164449
55.81563332,-170.27445077,130.29773878,177.60861256,-175.53923007,45.12683433
6.12808738,18.42135258,1.29849911,0.63500489,-2.87929110

>  <Name>
ligand

>  <RI>
0

>  <Rbt.Current_Directory>
/home/itssahil/PROJECTS/Mol_Feturizer/New_Systems/rnas/1TN2

>  <Rbt.Executable>
rbdock ($Id: //depot/dev/client3/rdock/2013.1/src/exe/rbdock.cxx#4 $)

>  <Rbt.Library>
libRbt.so (2013.1, Build901 2013/11/27)

>  <Rbt.Parameter_File>
/export/apps/rDock/src/rDock_2013.1_src/data/scripts/dock_solv.prm

>  <Rbt.Receptor>
prm/pocket_docking_2.prm

>  <SCORE>
-7.37946

>  <SCORE.INTER>
-4.82421

>  <SCORE.INTER.CONST>
1

>  <SCORE.INTER.POLAR>
0

>  <SCORE.INTER.ROT>
11

>  <SCORE.INTER.SOLV>
16.8035

>  <SCORE.INTER.VDW>
-19.7506

>  <SCORE.INTER.norm>
-0.344586

>  <SCORE.INTRA>
-2.56077

>  <SCORE.INTRA.DIHEDRAL>
-4.53937

>  <SCORE.INTRA.DIHEDRAL.0>
7.79482

>  <SCORE.INTRA.POLAR>
0

>  <SCORE.INTRA.POLAR.0>
0

>  <SCORE.INTRA.REPUL>
0

>  <SCORE.INTRA.REPUL.0>
0

>  <SCORE.INTRA.SOLV>
0.69101

>  <SCORE.INTRA.SOLV.lig_0>
-49.456

>  <SCORE.INTRA.VDW>
-0.636588

>  <SCORE.INTRA.VDW.0>
-0.478406

>  <SCORE.INTRA.norm>
-0.182912

>  <SCORE.RESTR>
0.00551397

>  <SCORE.RESTR.CAVITY>
0.00551397

>  <SCORE.RESTR.norm>
0.000393855

>  <SCORE.SYSTEM>
0

>  <SCORE.SYSTEM.CONST>
0

>  <SCORE.SYSTEM.DIHEDRAL>
0

>  <SCORE.SYSTEM.SOLV>
0

>  <SCORE.SYSTEM.norm>
0

>  <SCORE.heavy>
14

>  <SCORE.norm>
-0.527104

>  <RMSD>
1.385

$$$$
ligand
 OpenBabel11021811413D
libRbt.so/2013.1/901 2013/11/27
 14 13  0  0  0  0  0  0  0  0999 V2000
   42.0769   12.2504   18.4357 N   0  0  0  0  0  0  0  0  0  0  0  0
   42.7503   11.5977   17.2921 C   0  0  0  0  0  0  0  0  0  0  0  0
   44.1355   11.0503   17.6986 C   0  0  0  0  0  0  0  0  0  0  0  0
   44.0928    9.8543   18.6639 C   0  0  0  0  0  0  0  0  0  0  0  0
   45.4620    9.4824   19.1149 N   0  0  0  0  0  0  0  0  0  0  0  0
   46.0198    8.4196   18.2396 C   0  0  0  0  0  0  0  0  0  0  0  0
   46.9929    7.4102   18.9369 C   0  0  0  0  0  0  0  0  0  0  0  0
   46.3265    6.5515   20.0500 C   0  0  0  0  0  0  0  0  0  0  0  0
   45.4575    5.4267   19.5223 C   0  0  0  0  0  0  0  0  0  0  0  0
   46.3259    4.4787   18.8504 N   0  0  0  0  0  0  0  0  0  0  0  0
   45.6130    3.2132   18.8552 C   0  0  0  0  0  0  0  0  0  0  0  0
   46.2828    2.1923   17.9429 C   0  0  0  0  0  0  0  0  0  0  0  0
   45.3485    0.9772   17.8402 C   0  0  0  0  0  0  0  0  0  0  0  0
   45.8417   -0.0234   16.8820 N   0  0  0  0  0  0  0  0  0  0  0  0
  1  2  1  0  0  0  0
  2  3  1  0  0  0  0
  3  4  1  0  0  0  0
  4  5  1  0  0  0  0
  5  6  1  0  0  0  0
  6  7  1  0  0  0  0
  7  8  1  0  0  0  0
  8  9  1  0  0  0  0
  9 10  1  0  0  0  0
 10 11  1  0  0  0  0
 11 12  1  0  0  0  0
 12 13  1  0  0  0  0
 13 14  1  0  0  0  0
M  END
>  <CHROM.1>
68.89302083,-174.03370762,-93.40443773,-148.05582560,63.75938148,76.22729441
66.29916393,156.97154822,168.72668669,-171.25453998,174.76850072,45.19482837
6.63438553,18.45181049,1.86074061,-0.58641703,0.18498798

>  <Name>
ligand

>  <RI>
0

>  <Rbt.Current_Directory>
/home/itssahil/PROJECTS/Mol_Feturizer/New_Systems/rnas/1TN2

>  <Rbt.Executable>
rbdock ($Id: //depot/dev/client3/rdock/2013.1/src/exe/rbdock.cxx#4 $)

>  <Rbt.Library>
libRbt.so (2013.1, Build901 2013/11/27)

>  <Rbt.Parameter_File>
/export/apps/rDock/src/rDock_2013.1_src/data/scripts/dock_solv.prm

>  <Rbt.Receptor>
prm/pocket_docking_2.prm

>  <SCORE>
-4.6315

>  <SCORE.INTER>
-2.98039

>  <SCORE.INTER.CONST>
1

>  <SCORE.INTER.POLAR>
0

>  <SCORE.INTER.ROT>
11

>  <SCORE.INTER.SOLV>
16.9276

>  <SCORE.INTER.VDW>
-18.5628

>  <SCORE.INTER.norm>
-0.212885

>  <SCORE.INTRA>
-1.66227

>  <SCORE.INTRA.DIHEDRAL>
-3.88372

>  <SCORE.INTRA.DIHEDRAL.0>
7.79482

>  <SCORE.INTRA.POLAR>
0

>  <SCORE.INTRA.POLAR.0>
0

>  <SCORE.INTRA.REPUL>
0

>  <SCORE.INTRA.REPUL.0>
0

>  <SCORE.INTRA.SOLV>
1.64892

>  <SCORE.INTRA.SOLV.lig_0>
-49.456

>  <SCORE.INTRA.VDW>
-0.544864

>  <SCORE.INTRA.VDW.0>
-0.478406

>  <SCORE.INTRA.norm>
-0.118733

>  <SCORE.RESTR>
0.0111602

>  <SCORE.RESTR.CAVITY>
0.0111602

>  <SCORE.RESTR.norm>
0.000797159

>  <SCORE.SYSTEM>
0

>  <SCORE.SYSTEM.CONST>
0

>  <SCORE.SYSTEM.DIHEDRAL>
0

>  <SCORE.SYSTEM.SOLV>
0

>  <SCORE.SYSTEM.norm>
0

>  <SCORE.heavy>
14

>  <SCORE.norm>
-0.330821

>  <RMSD>
1.387

$$$$
ligand
 OpenBabel11021811413D
libRbt.so/2013.1/901 2013/11/27
 14 13  0  0  0  0  0  0  0  0999 V2000
   45.6153    0.9238   15.5531 N   0  0  0  0  0  0  0  0  0  0  0  0
   45.2575    1.9884   16.5152 C   0  0  0  0  0  0  0  0  0  0  0  0
   45.6773    1.6069   17.9512 C   0  0  0  0  0  0  0  0  0  0  0  0
   45.2782    2.6296   19.0277 C   0  0  0  0  0  0  0  0  0  0  0  0
   45.9166    3.9502   18.7730 N   0  0  0  0  0  0  0  0  0  0  0  0
   46.2170    4.6316   20.0583 C   0  0  0  0  0  0  0  0  0  0  0  0
   45.9557    6.1754   20.0830 C   0  0  0  0  0  0  0  0  0  0  0  0
   46.7567    6.9723   19.0135 C   0  0  0  0  0  0  0  0  0  0  0  0
   46.5603    8.4738   19.0898 C   0  0  0  0  0  0  0  0  0  0  0  0
   45.1549    8.7456   18.8546 N   0  0  0  0  0  0  0  0  0  0  0  0
   45.1075    9.6244   17.6991 C   0  0  0  0  0  0  0  0  0  0  0  0
   44.3241   10.8972   17.9982 C   0  0  0  0  0  0  0  0  0  0  0  0
   42.8712   10.4913   18.2887 C   0  0  0  0  0  0  0  0  0  0  0  0
   41.9890   11.6576   18.4440 N   0  0  0  0  0  0  0  0  0  0  0  0
  1  2  1  0  0  0  0
  2  3  1  0  0  0  0
  3  4  1  0  0  0  0
  4  5  1  0  0  0  0
  5  6  1  0  0  0  0
  6  7  1  0  0  0  0
  7  8  1  0  0  0  0
  8  9  1  0  0  0  0
  9 10  1  0  0  0  0
 10 11  1  0  0  0  0
 11 12  1  0  0  0  0
 12 13  1  0  0  0  0
 13 14  1  0  0  0  0
M  END
>  <CHROM.1>
-177.07136713,-61.02754591,-146.97797877,-140.27911514,-58.33584158,-176.80080471
-61.59602447,-121.60885639,-125.70284530,-63.91061480,-173.60928893,45.19171883
6.34058758,18.38229688,1.26297109,0.82020136,-2.81322375

>  <Name>
ligand

>  <RI>
0

>  <Rbt.Current_Directory>
/home/itssahil/PROJECTS/Mol_Feturizer/New_Systems/rnas/1TN2

>  <Rbt.Executable>
rbdock ($Id: //depot/dev/client3/rdock/2013.1/src/exe/rbdock.cxx#4 $)

>  <Rbt.Library>
libRbt.so (2013.1, Build901 2013/11/27)

>  <Rbt.Parameter_File>
/export/apps/rDock/src/rDock_2013.1_src/data/scripts/dock_solv.prm

>  <Rbt.Receptor>
prm/pocket_docking_2.prm

>  <SCORE>
-5.68863

>  <SCORE.INTER>
-4.2473

>  <SCORE.INTER.CONST>
1

>  <SCORE.INTER.POLAR>
0

>  <SCORE.INTER.ROT>
11

>  <SCORE.INTER.SOLV>
14.2559

>  <SCORE.INTER.VDW>
-18.5168

>  <SCORE.INTER.norm>
-0.303379

>  <SCORE.INTRA>
-1.44133

>  <SCORE.INTRA.DIHEDRAL>
-3.52653

>  <SCORE.INTRA.DIHEDRAL.0>
7.79482

>  <SCORE.INTRA.POLAR>
0

>  <SCORE.INTRA.POLAR.0>
0

>  <SCORE.INTRA.REPUL>
0

>  <SCORE.INTRA.REPUL.0>
0

>  <SCORE.INTRA.SOLV>
1.41976

>  <SCORE.INTRA.SOLV.lig_0>
-49.456

>  <SCORE.INTRA.VDW>
-0.387945

>  <SCORE.INTRA.VDW.0>
-0.478406

>  <SCORE.INTRA.norm>
-0.102952

>  <SCORE.RESTR>
0

>  <SCORE.RESTR.CAVITY>
0

>  <SCORE.RESTR.norm>
0

>  <SCORE.SYSTEM>
0

>  <SCORE.SYSTEM.CONST>
0

>  <SCORE.SYSTEM.DIHEDRAL>
0

>  <SCORE.SYSTEM.SOLV>
0

>  <SCORE.SYSTEM.norm>
0

>  <SCORE.heavy>
14

>  <SCORE.norm>
-0.406331

>  <RMSD>
1.436

$$$$
ligand
 OpenBabel11021811413D
libRbt.so/2013.1/901 2013/11/27
 14 13  0  0  0  0  0  0  0  0999 V2000
   45.6535    0.2370   15.4090 N   0  0  0  0  0  0  0  0  0  0  0  0
   45.3609   -0.3097   16.7516 C   0  0  0  0  0  0  0  0  0  0  0  0
   44.8013    0.7822   17.6889 C   0  0  0  0  0  0  0  0  0  0  0  0
   45.8040    1.8900   18.0510 C   0  0  0  0  0  0  0  0  0  0  0  0
   45.2375    2.8095   19.0757 N   0  0  0  0  0  0  0  0  0  0  0  0
   46.0517    4.0493   19.1592 C   0  0  0  0  0  0  0  0  0  0  0  0
   45.4684    5.1818   20.0699 C   0  0  0  0  0  0  0  0  0  0  0  0
   46.2884    6.5037   20.0433 C   0  0  0  0  0  0  0  0  0  0  0  0
   46.4918    7.0739   18.6532 C   0  0  0  0  0  0  0  0  0  0  0  0
   46.7151    8.5005   18.7918 N   0  0  0  0  0  0  0  0  0  0  0  0
   45.7033    9.1433   17.9715 C   0  0  0  0  0  0  0  0  0  0  0  0
   45.8437   10.6608   18.0000 C   0  0  0  0  0  0  0  0  0  0  0  0
   44.8183   11.2409   17.0141 C   0  0  0  0  0  0  0  0  0  0  0  0
   43.4359   11.0692   17.4853 N   0  0  0  0  0  0  0  0  0  0  0  0
  1  2  1  0  0  0  0
  2  3  1  0  0  0  0
  3  4  1  0  0  0  0
  4  5  1  0  0  0  0
  5  6  1  0  0  0  0
  6  7  1  0  0  0  0
  7  8  1  0  0  0  0
  8  9  1  0  0  0  0
  9 10  1  0  0  0  0
 10 11  1  0  0  0  0
 11 12  1  0  0  0  0
 12 13  1  0  0  0  0
 13 14  1  0  0  0  0
M  END
>  <CHROM.1>
-66.94221214,-173.44847864,-165.50541908,172.68271780,-175.37569381,55.13668399
155.43379992,-123.63613097,-178.67188988,175.10435842,69.35518788,45.54823773
5.63086853,18.15478936,1.51392512,1.19178654,-3.02270007

>  <Name>
ligand

>  <RI>
0

>  <Rbt.Current_Directory>
/home/itssahil/PROJECTS/Mol_Feturizer/New_Systems/rnas/1TN2

>  <Rbt.Executable>
rbdock ($Id: //depot/dev/client3/rdock/2013.1/src/exe/rbdock.cxx#4 $)

>  <Rbt.Library>
libRbt.so (2013.1, Build901 2013/11/27)

>  <Rbt.Parameter_File>
/export/apps/rDock/src/rDock_2013.1_src/data/scripts/dock_solv.prm

>  <Rbt.Receptor>
prm/pocket_docking_2.prm

>  <SCORE>
-4.26231

>  <SCORE.INTER>
-3.23605

>  <SCORE.INTER.CONST>
1

>  <SCORE.INTER.POLAR>
0

>  <SCORE.INTER.ROT>
11

>  <SCORE.INTER.SOLV>
12.0449

>  <SCORE.INTER.VDW>
-17.1057

>  <SCORE.INTER.norm>
-0.231146

>  <SCORE.INTRA>
-1.08034

>  <SCORE.INTRA.DIHEDRAL>
-3.4757

>  <SCORE.INTRA.DIHEDRAL.0>
7.79482

>  <SCORE.INTRA.POLAR>
0

>  <SCORE.INTRA.POLAR.0>
0

>  <SCORE.INTRA.REPUL>
0

>  <SCORE.INTRA.REPUL.0>
0

>  <SCORE.INTRA.SOLV>
1.49439

>  <SCORE.INTRA.SOLV.lig_0>
-49.456

>  <SCORE.INTRA.VDW>
-0.0896869

>  <SCORE.INTRA.VDW.0>
-0.478406

>  <SCORE.INTRA.norm>
-0.0771674

>  <SCORE.RESTR>
0.0540826

>  <SCORE.RESTR.CAVITY>
0.0540826

>  <SCORE.RESTR.norm>
0.00386304

>  <SCORE.SYSTEM>
0

>  <SCORE.SYSTEM.CONST>
0

>  <SCORE.SYSTEM.DIHEDRAL>
0

>  <SCORE.SYSTEM.SOLV>
0

>  <SCORE.SYSTEM.norm>
0

>  <SCORE.heavy>
14

>  <SCORE.norm>
-0.30445

>  <RMSD>
1.480

$$$$
ligand
 OpenBabel11021811413D
libRbt.so/2013.1/901 2013/11/27
 14 13  0  0  0  0  0  0  0  0999 V2000
   42.3256   12.0043   16.9208 N   0  0  0  0  0  0  0  0  0  0  0  0
   43.6199   12.0425   17.6354 C   0  0  0  0  0  0  0  0  0  0  0  0
   44.3487   10.6845   17.5428 C   0  0  0  0  0  0  0  0  0  0  0  0
   45.6685   10.6118   18.3283 C   0  0  0  0  0  0  0  0  0  0  0  0
   46.3163    9.2816   18.1628 N   0  0  0  0  0  0  0  0  0  0  0  0
   45.7097    8.2957   19.0938 C   0  0  0  0  0  0  0  0  0  0  0  0
   46.3622    6.8722   19.0912 C   0  0  0  0  0  0  0  0  0  0  0  0
   45.7014    5.8689   20.0797 C   0  0  0  0  0  0  0  0  0  0  0  0
   46.2741    4.4668   20.0083 C   0  0  0  0  0  0  0  0  0  0  0  0
   45.9041    3.9060   18.7226 N   0  0  0  0  0  0  0  0  0  0  0  0
   46.4177    2.5474   18.7183 C   0  0  0  0  0  0  0  0  0  0  0  0
   45.5251    1.6163   17.9062 C   0  0  0  0  0  0  0  0  0  0  0  0
   45.7191    1.9638   16.4224 C   0  0  0  0  0  0  0  0  0  0  0  0
   44.9274    1.0936   15.5400 N   0  0  0  0  0  0  0  0  0  0  0  0
  1  2  1  0  0  0  0
  2  3  1  0  0  0  0
  3  4  1  0  0  0  0
  4  5  1  0  0  0  0
  5  6  1  0  0  0  0
  6  7  1  0  0  0  0
  7  8  1  0  0  0  0
  8  9  1  0  0  0  0
  9 10  1  0  0  0  0
 10 11  1  0  0  0  0
 11 12  1  0  0  0  0
 12 13  1  0  0  0  0
 13 14  1  0  0  0  0
M  END
>  <CHROM.1>
-176.66581961,-178.86707616,-81.92746929,-176.17958281,179.92064784,176.12042572
-67.84781503,-177.50326320,147.81536908,71.95472681,178.36491103,45.34445468
6.51822539,18.15551598,1.86815979,-0.95954581,0.26312764

>  <Name>
ligand

>  <RI>
0

>  <Rbt.Current_Directory>
/home/itssahil/PROJECTS/Mol_Feturizer/New_Systems/rnas/1TN2

>  <Rbt.Executable>
rbdock ($Id: //depot/dev/client3/rdock/2013.1/src/exe/rbdock.cxx#4 $)

>  <Rbt.Library>
libRbt.so (2013.1, Build901 2013/11/27)

>  <Rbt.Parameter_File>
/export/apps/rDock/src/rDock_2013.1_src/data/scripts/dock_solv.prm

>  <Rbt.Receptor>
prm/pocket_docking_2.prm

>  <SCORE>
-5.93352

>  <SCORE.INTER>
-3.04529

>  <SCORE.INTER.CONST>
1

>  <SCORE.INTER.POLAR>
0

>  <SCORE.INTER.ROT>
11

>  <SCORE.INTER.SOLV>
13.4077

>  <SCORE.INTER.VDW>
-17.4328

>  <SCORE.INTER.norm>
-0.217521

>  <SCORE.INTRA>
-2.9118

>  <SCORE.INTRA.DIHEDRAL>
-5.88249

>  <SCORE.INTRA.DIHEDRAL.0>
7.79482

>  <SCORE.INTRA.POLAR>
0

>  <SCORE.INTRA.POLAR.0>
0

>  <SCORE.INTRA.REPUL>
0

>  <SCORE.INTRA.REPUL.0>
0

>  <SCORE.INTRA.SOLV>
0.654179

>  <SCORE.INTRA.SOLV.lig_0>
-49.456

>  <SCORE.INTRA.VDW>
-0.297637

>  <SCORE.INTRA.VDW.0>
-0.478406

>  <SCORE.INTRA.norm>
-0.207985

>  <SCORE.RESTR>
0.0235611

>  <SCORE.RESTR.CAVITY>
0.0235611

>  <SCORE.RESTR.norm>
0.00168294

>  <SCORE.SYSTEM>
0

>  <SCORE.SYSTEM.CONST>
0

>  <SCORE.SYSTEM.DIHEDRAL>
0

>  <SCORE.SYSTEM.SOLV>
0

>  <SCORE.SYSTEM.norm>
0

>  <SCORE.heavy>
14

>  <SCORE.norm>
-0.423823

>  <RMSD>
1.494

$$$$
ligand
 OpenBabel11021811413D
libRbt.so/2013.1/901 2013/11/27
 14 13  0  0  0  0  0  0  0  0999 V2000
   42.3430   12.2565   18.5565 N   0  0  0  0  0  0  0  0  0  0  0  0
   41.9106   10.8427   18.5179 C   0  0  0  0  0  0  0  0  0  0  0  0
   43.0638    9.8955   18.9137 C   0  0  0  0  0  0  0  0  0  0  0  0
   44.3771   10.1322   18.1500 C   0  0  0  0  0  0  0  0  0  0  0  0
   45.0908    8.8492   17.9036 N   0  0  0  0  0  0  0  0  0  0  0  0
   46.1219    8.6262   18.9496 C   0  0  0  0  0  0  0  0  0  0  0  0
   46.6117    7.1479   19.1128 C   0  0  0  0  0  0  0  0  0  0  0  0
   45.5604    6.1977   19.7550 C   0  0  0  0  0  0  0  0  0  0  0  0
   46.0371    4.7668   19.9095 C   0  0  0  0  0  0  0  0  0  0  0  0
   46.2566    4.2307   18.5795 N   0  0  0  0  0  0  0  0  0  0  0  0
   46.1626    2.7873   18.7116 C   0  0  0  0  0  0  0  0  0  0  0  0
   46.0644    2.1080   17.3507 C   0  0  0  0  0  0  0  0  0  0  0  0
   45.7724    0.6196   17.5942 C   0  0  0  0  0  0  0  0  0  0  0  0
   45.6567   -0.1366   16.3382 N   0  0  0  0  0  0  0  0  0  0  0  0
  1  2  1  0  0  0  0
  2  3  1  0  0  0  0
  3  4  1  0  0  0  0
  4  5  1  0  0  0  0
  5  6  1  0  0  0  0
  6  7  1  0  0  0  0
  7  8  1  0  0  0  0
  8  9  1  0  0  0  0
  9 10  1  0  0  0  0
 10 11  1  0  0  0  0
 11 12  1  0  0  0  0
 12 13  1  0  0  0  0
 13 14  1  0  0  0  0
M  END
>  <CHROM.1>
-50.92938579,-144.98123546,-96.28834290,160.36331966,-71.35903143,179.90960662
-64.27668329,-157.02017785,167.34149456,-172.20780514,179.98867449,45.07361619
6.30884324,18.45329964,1.90042756,-0.53849227,0.27324603

>  <Name>
ligand

>  <RI>
0

>  <Rbt.Current_Directory>
/home/itssahil/PROJECTS/Mol_Feturizer/New_Systems/rnas/1TN2

>  <Rbt.Executable>
rbdock ($Id: //depot/dev/client3/rdock/2013.1/src/exe/rbdock.cxx#4 $)

>  <Rbt.Library>
libRbt.so (2013.1, Build901 2013/11/27)

>  <Rbt.Parameter_File>
/export/apps/rDock/src/rDock_2013.1_src/data/scripts/dock_solv.prm

>  <Rbt.Receptor>
prm/pocket_docking_2.prm

>  <SCORE>
-6.88017

>  <SCORE.INTER>
-6.2731

>  <SCORE.INTER.CONST>
1

>  <SCORE.INTER.POLAR>
0

>  <SCORE.INTER.ROT>
11

>  <SCORE.INTER.SOLV>
16.8513

>  <SCORE.INTER.VDW>
-20.7325

>  <SCORE.INTER.norm>
-0.448078

>  <SCORE.INTRA>
-0.609301

>  <SCORE.INTRA.DIHEDRAL>
-1.64736

>  <SCORE.INTRA.DIHEDRAL.0>
7.79482

>  <SCORE.INTRA.POLAR>
0

>  <SCORE.INTRA.POLAR.0>
0

>  <SCORE.INTRA.REPUL>
0

>  <SCORE.INTRA.REPUL.0>
0

>  <SCORE.INTRA.SOLV>
1.44845

>  <SCORE.INTRA.SOLV.lig_0>
-49.456

>  <SCORE.INTRA.VDW>
-0.509846

>  <SCORE.INTRA.VDW.0>
-0.478406

>  <SCORE.INTRA.norm>
-0.0435215

>  <SCORE.RESTR>
0.00223284

>  <SCORE.RESTR.CAVITY>
0.00223284

>  <SCORE.RESTR.norm>
0.000159488

>  <SCORE.SYSTEM>
0

>  <SCORE.SYSTEM.CONST>
0

>  <SCORE.SYSTEM.DIHEDRAL>
0

>  <SCORE.SYSTEM.SOLV>
0

>  <SCORE.SYSTEM.norm>
0

>  <SCORE.heavy>
14

>  <SCORE.norm>
-0.49144

>  <RMSD>
1.496

$$$$
ligand
 OpenBabel11021811413D
libRbt.so/2013.1/901 2013/11/27
 14 13  0  0  0  0  0  0  0  0999 V2000
   45.2892   -0.1810   15.5142 N   0  0  0  0  0  0  0  0  0  0  0  0
   45.4112    0.1847   16.9419 C   0  0  0  0  0  0  0  0  0  0  0  0
   45.4437    1.7175   17.1245 C   0  0  0  0  0  0  0  0  0  0  0  0
   45.6639    2.1849   18.5726 C   0  0  0  0  0  0  0  0  0  0  0  0
   45.6280    3.6703   18.6661 N   0  0  0  0  0  0  0  0  0  0  0  0
   46.1874    4.1164   19.9679 C   0  0  0  0  0  0  0  0  0  0  0  0
   45.8323    5.5819   20.3905 C   0  0  0  0  0  0  0  0  0  0  0  0
   46.3620    6.6706   19.4134 C   0  0  0  0  0  0  0  0  0  0  0  0
   46.0577    8.0902   19.8503 C   0  0  0  0  0  0  0  0  0  0  0  0
   46.4328    8.9744   18.7631 N   0  0  0  0  0  0  0  0  0  0  0  0
   46.1681   10.3218   19.2365 C   0  0  0  0  0  0  0  0  0  0  0  0
   45.9120   11.2795   18.0787 C   0  0  0  0  0  0  0  0  0  0  0  0
   44.5741   10.8841   17.4356 C   0  0  0  0  0  0  0  0  0  0  0  0
   44.2225   11.7553   16.3043 N   0  0  0  0  0  0  0  0  0  0  0  0
  1  2  1  0  0  0  0
  2  3  1  0  0  0  0
  3  4  1  0  0  0  0
  4  5  1  0  0  0  0
  5  6  1  0  0  0  0
  6  7  1  0  0  0  0
  7  8  1  0  0  0  0
  8  9  1  0  0  0  0
  9 10  1  0  0  0  0
 10 11  1  0  0  0  0
 11 12  1  0  0  0  0
 12 13  1  0  0  0  0
 13 14  1  0  0  0  0
M  END
>  <CHROM.1>
-176.09562610,-177.76440717,-165.14721841,-162.43349088,-61.85126220,-178.00735136
-171.88135706,-178.16837933,-154.60697524,68.35522034,179.63165139,45.65617890
6.08933623,18.30466535,1.54469337,1.21700468,-3.03573791

>  <Name>
ligand

>  <RI>
0

>  <Rbt.Current_Directory>
/home/itssahil/PROJECTS/Mol_Feturizer/New_Systems/rnas/1TN2

>  <Rbt.Executable>
rbdock ($Id: //depot/dev/client3/rdock/2013.1/src/exe/rbdock.cxx#4 $)

>  <Rbt.Library>
libRbt.so (2013.1, Build901 2013/11/27)

>  <Rbt.Parameter_File>
/export/apps/rDock/src/rDock_2013.1_src/data/scripts/dock_solv.prm

>  <Rbt.Receptor>
prm/blind_docking_80.prm

>  <SCORE>
-8.2842

>  <SCORE.INTER>
-4.7111

>  <SCORE.INTER.CONST>
1

>  <SCORE.INTER.POLAR>
0

>  <SCORE.INTER.ROT>
11

>  <SCORE.INTER.SOLV>
11.2311

>  <SCORE.INTER.VDW>
-17.8178

>  <SCORE.INTER.norm>
-0.336507

>  <SCORE.INTRA>
-3.5731

>  <SCORE.INTRA.DIHEDRAL>
-6.31448

>  <SCORE.INTRA.DIHEDRAL.0>
7.79482

>  <SCORE.INTRA.POLAR>
0

>  <SCORE.INTRA.POLAR.0>
0

>  <SCORE.INTRA.REPUL>
0

>  <SCORE.INTRA.REPUL.0>
0

>  <SCORE.INTRA.SOLV>
0.675801

>  <SCORE.INTRA.SOLV.lig_0>
-49.456

>  <SCORE.INTRA.VDW>
-0.753763

>  <SCORE.INTRA.VDW.0>
-0.478406

>  <SCORE.INTRA.norm>
-0.255222

>  <SCORE.RESTR>
0

>  <SCORE.RESTR.CAVITY>
0

>  <SCORE.RESTR.norm>
0

>  <SCORE.SYSTEM>
0

>  <SCORE.SYSTEM.CONST>
0

>  <SCORE.SYSTEM.DIHEDRAL>
0

>  <SCORE.SYSTEM.SOLV>
0

>  <SCORE.SYSTEM.norm>
0

>  <SCORE.heavy>
14

>  <SCORE.norm>
-0.591728

>  <RMSD>
1.526

$$$$
ligand
 OpenBabel11021811413D
libRbt.so/2013.1/901 2013/11/27
 14 13  0  0  0  0  0  0  0  0999 V2000
   43.5145    1.5175   17.4231 N   0  0  0  0  0  0  0  0  0  0  0  0
   44.6641    0.5891   17.4816 C   0  0  0  0  0  0  0  0  0  0  0  0
   45.9105    1.2009   16.8061 C   0  0  0  0  0  0  0  0  0  0  0  0
   46.2437    2.6330   17.2556 C   0  0  0  0  0  0  0  0  0  0  0  0
   46.2113    2.7485   18.7396 N   0  0  0  0  0  0  0  0  0  0  0  0
   45.5306    4.0061   19.1418 C   0  0  0  0  0  0  0  0  0  0  0  0
   46.4628    5.2505   19.3280 C   0  0  0  0  0  0  0  0  0  0  0  0
   45.7028    6.6044   19.4260 C   0  0  0  0  0  0  0  0  0  0  0  0
   46.5633    7.8164   19.1267 C   0  0  0  0  0  0  0  0  0  0  0  0
   45.7081    8.9868   19.1816 N   0  0  0  0  0  0  0  0  0  0  0  0
   46.3373    9.9798   18.3285 C   0  0  0  0  0  0  0  0  0  0  0  0
   45.5143   11.2611   18.2634 C   0  0  0  0  0  0  0  0  0  0  0  0
   44.1728   10.9186   17.5980 C   0  0  0  0  0  0  0  0  0  0  0  0
   43.2643   12.0741   17.5522 N   0  0  0  0  0  0  0  0  0  0  0  0
  1  2  1  0  0  0  0
  2  3  1  0  0  0  0
  3  4  1  0  0  0  0
  4  5  1  0  0  0  0
  5  6  1  0  0  0  0
  6  7  1  0  0  0  0
  7  8  1  0  0  0  0
  8  9  1  0  0  0  0
  9 10  1  0  0  0  0
 10 11  1  0  0  0  0
 11 12  1  0  0  0  0
 12 13  1  0  0  0  0
 13 14  1  0  0  0  0
M  END
>  <CHROM.1>
49.10345358,47.59586350,-137.36167906,-91.20988212,166.72778090,-159.97800245
176.80782171,-154.20782057,178.42170962,-64.13470098,176.76878678,45.41461860
6.11326229,18.26089290,1.52483359,0.59659707,-3.05894270

>  <Name>
ligand

>  <RI>
0

>  <Rbt.Current_Directory>
/home/itssahil/PROJECTS/Mol_Feturizer/New_Systems/rnas/1TN2

>  <Rbt.Executable>
rbdock ($Id: //depot/dev/client3/rdock/2013.1/src/exe/rbdock.cxx#4 $)

>  <Rbt.Library>
libRbt.so (2013.1, Build901 2013/11/27)

>  <Rbt.Parameter_File>
/export/apps/rDock/src/rDock_2013.1_src/data/scripts/dock_solv.prm

>  <Rbt.Receptor>
prm/pocket_docking_2.prm

>  <SCORE>
0.221091

>  <SCORE.INTER>
-0.0502579

>  <SCORE.INTER.CONST>
1

>  <SCORE.INTER.POLAR>
0

>  <SCORE.INTER.ROT>
11

>  <SCORE.INTER.SOLV>
14.2223

>  <SCORE.INTER.VDW>
-15.7076

>  <SCORE.INTER.norm>
-0.00358985

>  <SCORE.INTRA>
0.204578

>  <SCORE.INTRA.DIHEDRAL>
-2.40272

>  <SCORE.INTRA.DIHEDRAL.0>
7.79482

>  <SCORE.INTRA.POLAR>
0

>  <SCORE.INTRA.POLAR.0>
0

>  <SCORE.INTRA.REPUL>
0

>  <SCORE.INTRA.REPUL.0>
0

>  <SCORE.INTRA.SOLV>
3.57987

>  <SCORE.INTRA.SOLV.lig_0>
-49.456

>  <SCORE.INTRA.VDW>
-0.383996

>  <SCORE.INTRA.VDW.0>
-0.478406

>  <SCORE.INTRA.norm>
0.0146127

>  <SCORE.RESTR>
0.0667706

>  <SCORE.RESTR.CAVITY>
0.0667706

>  <SCORE.RESTR.norm>
0.00476933

>  <SCORE.SYSTEM>
0

>  <SCORE.SYSTEM.CONST>
0

>  <SCORE.SYSTEM.DIHEDRAL>
0

>  <SCORE.SYSTEM.SOLV>
0

>  <SCORE.SYSTEM.norm>
0

>  <SCORE.heavy>
14

>  <SCORE.norm>
0.0157922

>  <RMSD>
1.592

$$$$
ligand
 OpenBabel11021811413D
libRbt.so/2013.1/901 2013/11/27
 14 13  0  0  0  0  0  0  0  0999 V2000
   43.6816   11.7050   16.9672 N   0  0  0  0  0  0  0  0  0  0  0  0
   44.5536   10.8931   17.8433 C   0  0  0  0  0  0  0  0  0  0  0  0
   45.4222    9.9192   17.0181 C   0  0  0  0  0  0  0  0  0  0  0  0
   46.3451    9.0185   17.8554 C   0  0  0  0  0  0  0  0  0  0  0  0
   45.5641    8.2239   18.8429 N   0  0  0  0  0  0  0  0  0  0  0  0
   46.2432    6.9307   19.1134 C   0  0  0  0  0  0  0  0  0  0  0  0
   45.4094    5.8863   19.9295 C   0  0  0  0  0  0  0  0  0  0  0  0
   46.1203    4.5157   20.1204 C   0  0  0  0  0  0  0  0  0  0  0  0
   46.3053    3.7339   18.8345 C   0  0  0  0  0  0  0  0  0  0  0  0
   45.0352    3.1118   18.5119 N   0  0  0  0  0  0  0  0  0  0  0  0
   45.3216    2.1372   17.4737 C   0  0  0  0  0  0  0  0  0  0  0  0
   44.5923    0.8228   17.7261 C   0  0  0  0  0  0  0  0  0  0  0  0
   45.2745   -0.2582   16.8740 C   0  0  0  0  0  0  0  0  0  0  0  0
   45.2131    0.0465   15.4366 N   0  0  0  0  0  0  0  0  0  0  0  0
  1  2  1  0  0  0  0
  2  3  1  0  0  0  0
  3  4  1  0  0  0  0
  4  5  1  0  0  0  0
  5  6  1  0  0  0  0
  6  7  1  0  0  0  0
  7  8  1  0  0  0  0
  8  9  1  0  0  0  0
  9 10  1  0  0  0  0
 10 11  1  0  0  0  0
 11 12  1  0  0  0  0
 12 13  1  0  0  0  0
 13 14  1  0  0  0  0
M  END
>  <CHROM.1>
-179.06998609,56.99102585,150.12796108,-169.33756982,176.57347380,-66.79208050
-78.57407785,-167.04793222,136.72678497,-162.39057146,-60.48253639,45.36316355
5.47747366,18.03932965,1.64277523,-1.19790356,0.12416621

>  <Name>
ligand

>  <RI>
0

>  <Rbt.Current_Directory>
/home/itssahil/PROJECTS/Mol_Feturizer/New_Systems/rnas/1TN2

>  <Rbt.Executable>
rbdock ($Id: //depot/dev/client3/rdock/2013.1/src/exe/rbdock.cxx#4 $)

>  <Rbt.Library>
libRbt.so (2013.1, Build901 2013/11/27)

>  <Rbt.Parameter_File>
/export/apps/rDock/src/rDock_2013.1_src/data/scripts/dock_solv.prm

>  <Rbt.Receptor>
prm/pocket_docking_2.prm

>  <SCORE>
-4.02286

>  <SCORE.INTER>
-2.87314

>  <SCORE.INTER.CONST>
1

>  <SCORE.INTER.POLAR>
0

>  <SCORE.INTER.ROT>
11

>  <SCORE.INTER.SOLV>
11.705

>  <SCORE.INTER.VDW>
-16.7504

>  <SCORE.INTER.norm>
-0.205224

>  <SCORE.INTRA>
-1.17011

>  <SCORE.INTRA.DIHEDRAL>
-3.41869

>  <SCORE.INTRA.DIHEDRAL.0>
7.79482

>  <SCORE.INTRA.POLAR>
0

>  <SCORE.INTRA.POLAR.0>
0

>  <SCORE.INTRA.REPUL>
0

>  <SCORE.INTRA.REPUL.0>
0

>  <SCORE.INTRA.SOLV>
1.6686

>  <SCORE.INTRA.SOLV.lig_0>
-49.456

>  <SCORE.INTRA.VDW>
-0.295068

>  <SCORE.INTRA.VDW.0>
-0.478406

>  <SCORE.INTRA.norm>
-0.0835796

>  <SCORE.RESTR>
0.0203971

>  <SCORE.RESTR.CAVITY>
0.0203971

>  <SCORE.RESTR.norm>
0.00145694

>  <SCORE.SYSTEM>
0

>  <SCORE.SYSTEM.CONST>
0

>  <SCORE.SYSTEM.DIHEDRAL>
0

>  <SCORE.SYSTEM.SOLV>
0

>  <SCORE.SYSTEM.norm>
0

>  <SCORE.heavy>
14

>  <SCORE.norm>
-0.287347

>  <RMSD>
1.622

$$$$
ligand
 OpenBabel11021811413D
libRbt.so/2013.1/901 2013/11/27
 14 13  0  0  0  0  0  0  0  0999 V2000
   44.4476    0.3932   15.8034 N   0  0  0  0  0  0  0  0  0  0  0  0
   44.7671    0.9776   17.1239 C   0  0  0  0  0  0  0  0  0  0  0  0
   46.0506    1.8334   17.0596 C   0  0  0  0  0  0  0  0  0  0  0  0
   46.4780    2.4476   18.4028 C   0  0  0  0  0  0  0  0  0  0  0  0
   45.4643    3.4222   18.8915 N   0  0  0  0  0  0  0  0  0  0  0  0
   46.0203    4.2225   20.0127 C   0  0  0  0  0  0  0  0  0  0  0  0
   46.5886    5.6288   19.6237 C   0  0  0  0  0  0  0  0  0  0  0  0
   45.4969    6.6798   19.2714 C   0  0  0  0  0  0  0  0  0  0  0  0
   46.0504    7.9895   18.7451 C   0  0  0  0  0  0  0  0  0  0  0  0
   45.4992    9.0576   19.5573 N   0  0  0  0  0  0  0  0  0  0  0  0
   44.8607    9.9744   18.6292 C   0  0  0  0  0  0  0  0  0  0  0  0
   43.3425    9.8475   18.6755 C   0  0  0  0  0  0  0  0  0  0  0  0
   42.7501   11.1395   18.0925 C   0  0  0  0  0  0  0  0  0  0  0  0
   43.1596   11.3582   16.6971 N   0  0  0  0  0  0  0  0  0  0  0  0
  1  2  1  0  0  0  0
  2  3  1  0  0  0  0
  3  4  1  0  0  0  0
  4  5  1  0  0  0  0
  5  6  1  0  0  0  0
  6  7  1  0  0  0  0
  7  8  1  0  0  0  0
  8  9  1  0  0  0  0
  9 10  1  0  0  0  0
 10 11  1  0  0  0  0
 11 12  1  0  0  0  0
 12 13  1  0  0  0  0
 13 14  1  0  0  0  0
M  END
>  <CHROM.1>
-178.34836147,-64.43649464,-167.34325791,97.46096224,72.61108613,-173.44173397
-126.19040893,-124.84145594,105.15399796,159.74016599,60.62690875,45.06988110
6.06942503,18.32778941,1.30608979,0.84053363,-2.85269964

>  <Name>
ligand

>  <RI>
0

>  <Rbt.Current_Directory>
/home/itssahil/PROJECTS/Mol_Feturizer/New_Systems/rnas/1TN2

>  <Rbt.Executable>
rbdock ($Id: //depot/dev/client3/rdock/2013.1/src/exe/rbdock.cxx#4 $)

>  <Rbt.Library>
libRbt.so (2013.1, Build901 2013/11/27)

>  <Rbt.Parameter_File>
/export/apps/rDock/src/rDock_2013.1_src/data/scripts/dock_solv.prm

>  <Rbt.Receptor>
prm/pocket_docking_2.prm

>  <SCORE>
-0.481177

>  <SCORE.INTER>
-2.51147

>  <SCORE.INTER.CONST>
1

>  <SCORE.INTER.POLAR>
0

>  <SCORE.INTER.ROT>
11

>  <SCORE.INTER.SOLV>
15.7528

>  <SCORE.INTER.VDW>
-17.8586

>  <SCORE.INTER.norm>
-0.179391

>  <SCORE.INTRA>
1.75033

>  <SCORE.INTRA.DIHEDRAL>
3.00282

>  <SCORE.INTRA.DIHEDRAL.0>
7.79482

>  <SCORE.INTRA.POLAR>
0

>  <SCORE.INTRA.POLAR.0>
0

>  <SCORE.INTRA.REPUL>
0

>  <SCORE.INTRA.REPUL.0>
0

>  <SCORE.INTRA.SOLV>
1.43652

>  <SCORE.INTRA.SOLV.lig_0>
-49.456

>  <SCORE.INTRA.VDW>
-0.469344

>  <SCORE.INTRA.VDW.0>
-0.478406

>  <SCORE.INTRA.norm>
0.125023

>  <SCORE.RESTR>
0.27997

>  <SCORE.RESTR.CAVITY>
0.27997

>  <SCORE.RESTR.norm>
0.0199979

>  <SCORE.SYSTEM>
0

>  <SCORE.SYSTEM.CONST>
0

>  <SCORE.SYSTEM.DIHEDRAL>
0

>  <SCORE.SYSTEM.SOLV>
0

>  <SCORE.SYSTEM.norm>
0

>  <SCORE.heavy>
14

>  <SCORE.norm>
-0.0343698

>  <RMSD>
1.628

$$$$
ligand
 OpenBabel11021811413D
libRbt.so/2013.1/901 2013/11/27
 14 13  0  0  0  0  0  0  0  0999 V2000
   44.4251    0.9761   16.5650 N   0  0  0  0  0  0  0  0  0  0  0  0
   44.6095    2.4424   16.5093 C   0  0  0  0  0  0  0  0  0  0  0  0
   46.0455    2.8400   16.9142 C   0  0  0  0  0  0  0  0  0  0  0  0
   46.4210    2.4921   18.3640 C   0  0  0  0  0  0  0  0  0  0  0  0
   45.4971    3.1506   19.3280 N   0  0  0  0  0  0  0  0  0  0  0  0
   46.1191    4.3839   19.8746 C   0  0  0  0  0  0  0  0  0  0  0  0
   45.9968    5.6596   18.9747 C   0  0  0  0  0  0  0  0  0  0  0  0
   46.8531    6.8641   19.4605 C   0  0  0  0  0  0  0  0  0  0  0  0
   46.7256    8.1002   18.5918 C   0  0  0  0  0  0  0  0  0  0  0  0
   45.3999    8.6502   18.8021 N   0  0  0  0  0  0  0  0  0  0  0  0
   45.1774    9.5813   17.7098 C   0  0  0  0  0  0  0  0  0  0  0  0
   44.2880   10.7424   18.1391 C   0  0  0  0  0  0  0  0  0  0  0  0
   42.9518   10.1528   18.6156 C   0  0  0  0  0  0  0  0  0  0  0  0
   41.9400   11.1926   18.8559 N   0  0  0  0  0  0  0  0  0  0  0  0
  1  2  1  0  0  0  0
  2  3  1  0  0  0  0
  3  4  1  0  0  0  0
  4  5  1  0  0  0  0
  5  6  1  0  0  0  0
  6  7  1  0  0  0  0
  7  8  1  0  0  0  0
  8  9  1  0  0  0  0
  9 10  1  0  0  0  0
 10 11  1  0  0  0  0
 11 12  1  0  0  0  0
 12 13  1  0  0  0  0
 13 14  1  0  0  0  0
M  END
>  <CHROM.1>
-63.38797742,-58.54887126,-99.02256901,82.34735352,-170.43652300,-179.64013485
70.74875273,-164.54566192,-148.43867090,-59.00905514,-171.04767511,45.17534353
6.23068465,18.33602466,1.34628655,0.50899890,-2.92197382

>  <Name>
ligand

>  <RI>
0

>  <Rbt.Current_Directory>
/home/itssahil/PROJECTS/Mol_Feturizer/New_Systems/rnas/1TN2

>  <Rbt.Executable>
rbdock ($Id: //depot/dev/client3/rdock/2013.1/src/exe/rbdock.cxx#4 $)

>  <Rbt.Library>
libRbt.so (2013.1, Build901 2013/11/27)

>  <Rbt.Parameter_File>
/export/apps/rDock/src/rDock_2013.1_src/data/scripts/dock_solv.prm

>  <Rbt.Receptor>
prm/pocket_docking_2.prm

>  <SCORE>
-3.1874

>  <SCORE.INTER>
-1.89528

>  <SCORE.INTER.CONST>
1

>  <SCORE.INTER.POLAR>
0

>  <SCORE.INTER.ROT>
11

>  <SCORE.INTER.SOLV>
17.4968

>  <SCORE.INTER.VDW>
-18.0291

>  <SCORE.INTER.norm>
-0.135377

>  <SCORE.INTRA>
-1.30833

>  <SCORE.INTRA.DIHEDRAL>
-4.6031

>  <SCORE.INTRA.DIHEDRAL.0>
7.79482

>  <SCORE.INTRA.POLAR>
0

>  <SCORE.INTRA.POLAR.0>
0

>  <SCORE.INTRA.REPUL>
0

>  <SCORE.INTRA.REPUL.0>
0

>  <SCORE.INTRA.SOLV>
2.52797

>  <SCORE.INTRA.SOLV.lig_0>
-49.456

>  <SCORE.INTRA.VDW>
-0.270773

>  <SCORE.INTRA.VDW.0>
-0.478406

>  <SCORE.INTRA.norm>
-0.0934524

>  <SCORE.RESTR>
0.0162102

>  <SCORE.RESTR.CAVITY>
0.0162102

>  <SCORE.RESTR.norm>
0.00115787

>  <SCORE.SYSTEM>
0

>  <SCORE.SYSTEM.CONST>
0

>  <SCORE.SYSTEM.DIHEDRAL>
0

>  <SCORE.SYSTEM.SOLV>
0

>  <SCORE.SYSTEM.norm>
0

>  <SCORE.heavy>
14

>  <SCORE.norm>
-0.227671

>  <RMSD>
1.628

$$$$
ligand
 OpenBabel11021811413D
libRbt.so/2013.1/901 2013/11/27
 14 13  0  0  0  0  0  0  0  0999 V2000
   44.5190   12.3592   17.8962 N   0  0  0  0  0  0  0  0  0  0  0  0
   45.5946   11.3619   17.7075 C   0  0  0  0  0  0  0  0  0  0  0  0
   45.0175    9.9349   17.5867 C   0  0  0  0  0  0  0  0  0  0  0  0
   44.3588    9.4004   18.8690 C   0  0  0  0  0  0  0  0  0  0  0  0
   45.3539    9.2768   19.9694 N   0  0  0  0  0  0  0  0  0  0  0  0
   46.1502    8.0337   19.8042 C   0  0  0  0  0  0  0  0  0  0  0  0
   45.3816    6.6966   20.0754 C   0  0  0  0  0  0  0  0  0  0  0  0
   46.1504    5.4202   19.6283 C   0  0  0  0  0  0  0  0  0  0  0  0
   45.3358    4.1451   19.7260 C   0  0  0  0  0  0  0  0  0  0  0  0
   46.1628    3.0570   19.2396 N   0  0  0  0  0  0  0  0  0  0  0  0
   45.2514    2.1101   18.6213 C   0  0  0  0  0  0  0  0  0  0  0  0
   46.0044    0.9609   17.9613 C   0  0  0  0  0  0  0  0  0  0  0  0
   45.0036    0.1914   17.0860 C   0  0  0  0  0  0  0  0  0  0  0  0
   45.6295   -0.9463   16.3955 N   0  0  0  0  0  0  0  0  0  0  0  0
  1  2  1  0  0  0  0
  2  3  1  0  0  0  0
  3  4  1  0  0  0  0
  4  5  1  0  0  0  0
  5  6  1  0  0  0  0
  6  7  1  0  0  0  0
  7  8  1  0  0  0  0
  8  9  1  0  0  0  0
  9 10  1  0  0  0  0
 10 11  1  0  0  0  0
 11 12  1  0  0  0  0
 12 13  1  0  0  0  0
 13 14  1  0  0  0  0
M  END
>  <CHROM.1>
-66.79684955,-63.37716016,-79.77020151,-70.78424848,168.61594132,-172.53445823
178.21044909,-147.72383669,175.32895914,-167.86828165,179.91089982,45.42238131
5.85725636,18.61197821,1.78717793,-1.33417794,0.28947827

>  <Name>
ligand

>  <RI>
0

>  <Rbt.Current_Directory>
/home/itssahil/PROJECTS/Mol_Feturizer/New_Systems/rnas/1TN2

>  <Rbt.Executable>
rbdock ($Id: //depot/dev/client3/rdock/2013.1/src/exe/rbdock.cxx#4 $)

>  <Rbt.Library>
libRbt.so (2013.1, Build901 2013/11/27)

>  <Rbt.Parameter_File>
/export/apps/rDock/src/rDock_2013.1_src/data/scripts/dock_solv.prm

>  <Rbt.Receptor>
prm/pocket_docking_3.prm

>  <SCORE>
-6.60794

>  <SCORE.INTER>
-4.80564

>  <SCORE.INTER.CONST>
1

>  <SCORE.INTER.POLAR>
0

>  <SCORE.INTER.ROT>
11

>  <SCORE.INTER.SOLV>
15.8168

>  <SCORE.INTER.VDW>
-19.4094

>  <SCORE.INTER.norm>
-0.34326

>  <SCORE.INTRA>
-1.80229

>  <SCORE.INTRA.DIHEDRAL>
-5.24546

>  <SCORE.INTRA.DIHEDRAL.0>
7.79482

>  <SCORE.INTRA.POLAR>
0

>  <SCORE.INTRA.POLAR.0>
0

>  <SCORE.INTRA.REPUL>
0

>  <SCORE.INTRA.REPUL.0>
0

>  <SCORE.INTRA.SOLV>
1.55221

>  <SCORE.INTRA.SOLV.lig_0>
-49.456

>  <SCORE.INTRA.VDW>
0.0443285

>  <SCORE.INTRA.VDW.0>
-0.478406

>  <SCORE.INTRA.norm>
-0.128735

>  <SCORE.RESTR>
0

>  <SCORE.RESTR.CAVITY>
0

>  <SCORE.RESTR.norm>
0

>  <SCORE.SYSTEM>
0

>  <SCORE.SYSTEM.CONST>
0

>  <SCORE.SYSTEM.DIHEDRAL>
0

>  <SCORE.SYSTEM.SOLV>
0

>  <SCORE.SYSTEM.norm>
0

>  <SCORE.heavy>
14

>  <SCORE.norm>
-0.471995

>  <RMSD>
1.656

$$$$
ligand
 OpenBabel11021811413D
libRbt.so/2013.1/901 2013/11/27
 14 13  0  0  0  0  0  0  0  0999 V2000
   45.0706    1.1098   16.0116 N   0  0  0  0  0  0  0  0  0  0  0  0
   44.7074    0.9209   17.4327 C   0  0  0  0  0  0  0  0  0  0  0  0
   45.9283    1.1332   18.3537 C   0  0  0  0  0  0  0  0  0  0  0  0
   46.4779    2.5691   18.3668 C   0  0  0  0  0  0  0  0  0  0  0  0
   45.5397    3.4941   19.0600 N   0  0  0  0  0  0  0  0  0  0  0  0
   46.2886    4.3977   19.9706 C   0  0  0  0  0  0  0  0  0  0  0  0
   46.5959    5.8253   19.4051 C   0  0  0  0  0  0  0  0  0  0  0  0
   45.3878    6.8041   19.4610 C   0  0  0  0  0  0  0  0  0  0  0  0
   45.6916    8.1883   18.9219 C   0  0  0  0  0  0  0  0  0  0  0  0
   44.5023    8.9997   19.0993 N   0  0  0  0  0  0  0  0  0  0  0  0
   44.5587   10.0196   18.0667 C   0  0  0  0  0  0  0  0  0  0  0  0
   43.3459   10.9410   18.1261 C   0  0  0  0  0  0  0  0  0  0  0  0
   43.4671   11.9439   16.9688 C   0  0  0  0  0  0  0  0  0  0  0  0
   42.3874   12.9423   16.9835 N   0  0  0  0  0  0  0  0  0  0  0  0
  1  2  1  0  0  0  0
  2  3  1  0  0  0  0
  3  4  1  0  0  0  0
  4  5  1  0  0  0  0
  5  6  1  0  0  0  0
  6  7  1  0  0  0  0
  7  8  1  0  0  0  0
  8  9  1  0  0  0  0
  9 10  1  0  0  0  0
 10 11  1  0  0  0  0
 11 12  1  0  0  0  0
 12 13  1  0  0  0  0
 13 14  1  0  0  0  0
M  END
>  <CHROM.1>
65.67147968,70.40520423,135.95181293,98.51694691,78.56592174,179.58202404
-177.21958243,-153.26774772,179.23246281,-177.79058234,-176.26690613,44.99662622
6.37768093,18.30220744,1.20287028,0.92102963,-2.87168345

>  <Name>
ligand

>  <RI>
0

>  <Rbt.Current_Directory>
/home/itssahil/PROJECTS/Mol_Feturizer/New_Systems/rnas/1TN2

>  <Rbt.Executable>
rbdock ($Id: //depot/dev/client3/rdock/2013.1/src/exe/rbdock.cxx#4 $)

>  <Rbt.Library>
libRbt.so (2013.1, Build901 2013/11/27)

>  <Rbt.Parameter_File>
/export/apps/rDock/src/rDock_2013.1_src/data/scripts/dock_solv.prm

>  <Rbt.Receptor>
prm/pocket_docking_2.prm

>  <SCORE>
-5.88509

>  <SCORE.INTER>
-4.414

>  <SCORE.INTER.CONST>
1

>  <SCORE.INTER.POLAR>
0

>  <SCORE.INTER.ROT>
11

>  <SCORE.INTER.SOLV>
13.9752

>  <SCORE.INTER.VDW>
-18.5344

>  <SCORE.INTER.norm>
-0.315286

>  <SCORE.INTRA>
-1.74964

>  <SCORE.INTRA.DIHEDRAL>
-3.6092

>  <SCORE.INTRA.DIHEDRAL.0>
7.79482

>  <SCORE.INTRA.POLAR>
0

>  <SCORE.INTRA.POLAR.0>
0

>  <SCORE.INTRA.REPUL>
0

>  <SCORE.INTRA.REPUL.0>
0

>  <SCORE.INTRA.SOLV>
1.64929

>  <SCORE.INTRA.SOLV.lig_0>
-49.456

>  <SCORE.INTRA.VDW>
-0.769681

>  <SCORE.INTRA.VDW.0>
-0.478406

>  <SCORE.INTRA.norm>
-0.124974

>  <SCORE.RESTR>
0.27855

>  <SCORE.RESTR.CAVITY>
0.27855

>  <SCORE.RESTR.norm>
0.0198964

>  <SCORE.SYSTEM>
0

>  <SCORE.SYSTEM.CONST>
0

>  <SCORE.SYSTEM.DIHEDRAL>
0

>  <SCORE.SYSTEM.SOLV>
0

>  <SCORE.SYSTEM.norm>
0

>  <SCORE.heavy>
14

>  <SCORE.norm>
-0.420363

>  <RMSD>
1.664

$$$$
ligand
 OpenBabel11021811413D
libRbt.so/2013.1/901 2013/11/27
 14 13  0  0  0  0  0  0  0  0999 V2000
   45.7257   -1.2379   16.6278 N   0  0  0  0  0  0  0  0  0  0  0  0
   45.2632    0.1652   16.6951 C   0  0  0  0  0  0  0  0  0  0  0  0
   45.8880    0.9016   17.8998 C   0  0  0  0  0  0  0  0  0  0  0  0
   45.4776    2.3776   18.0306 C   0  0  0  0  0  0  0  0  0  0  0  0
   46.1244    3.0093   19.2133 N   0  0  0  0  0  0  0  0  0  0  0  0
   45.8047    4.4593   19.2599 C   0  0  0  0  0  0  0  0  0  0  0  0
   45.8411    5.1149   20.6815 C   0  0  0  0  0  0  0  0  0  0  0  0
   45.4341    6.6164   20.6990 C   0  0  0  0  0  0  0  0  0  0  0  0
   46.4053    7.5259   19.9722 C   0  0  0  0  0  0  0  0  0  0  0  0
   45.8245    8.8549   19.9424 N   0  0  0  0  0  0  0  0  0  0  0  0
   46.6081    9.6103   18.9807 C   0  0  0  0  0  0  0  0  0  0  0  0
   45.9284   10.9254   18.6176 C   0  0  0  0  0  0  0  0  0  0  0  0
   44.6308   10.5865   17.8684 C   0  0  0  0  0  0  0  0  0  0  0  0
   43.8999   11.7921   17.4500 N   0  0  0  0  0  0  0  0  0  0  0  0
  1  2  1  0  0  0  0
  2  3  1  0  0  0  0
  3  4  1  0  0  0  0
  4  5  1  0  0  0  0
  5  6  1  0  0  0  0
  6  7  1  0  0  0  0
  7  8  1  0  0  0  0
  8  9  1  0  0  0  0
  9 10  1  0  0  0  0
 10 11  1  0  0  0  0
 11 12  1  0  0  0  0
 12 13  1  0  0  0  0
 13 14  1  0  0  0  0
M  END
>  <CHROM.1>
178.99900997,-179.92915730,175.41483695,153.85798063,-177.18874313,-66.33424575
173.70287367,-166.71220601,167.42838996,-66.18468790,-179.12980719,45.63264806
5.76446030,18.71004612,1.46784412,1.21152509,-2.93099196

>  <Name>
ligand

>  <RI>
0

>  <Rbt.Current_Directory>
/home/itssahil/PROJECTS/Mol_Feturizer/New_Systems/rnas/1TN2

>  <Rbt.Executable>
rbdock ($Id: //depot/dev/client3/rdock/2013.1/src/exe/rbdock.cxx#4 $)

>  <Rbt.Library>
libRbt.so (2013.1, Build901 2013/11/27)

>  <Rbt.Parameter_File>
/export/apps/rDock/src/rDock_2013.1_src/data/scripts/dock_solv.prm

>  <Rbt.Receptor>
prm/pocket_docking_7.prm

>  <SCORE>
-9.0492

>  <SCORE.INTER>
-5.60668

>  <SCORE.INTER.CONST>
1

>  <SCORE.INTER.POLAR>
0

>  <SCORE.INTER.ROT>
11

>  <SCORE.INTER.SOLV>
17.4733

>  <SCORE.INTER.VDW>
-20.4955

>  <SCORE.INTER.norm>
-0.400477

>  <SCORE.INTRA>
-3.44252

>  <SCORE.INTRA.DIHEDRAL>
-6.53777

>  <SCORE.INTRA.DIHEDRAL.0>
7.79482

>  <SCORE.INTRA.POLAR>
0

>  <SCORE.INTRA.POLAR.0>
0

>  <SCORE.INTRA.REPUL>
0

>  <SCORE.INTRA.REPUL.0>
0

>  <SCORE.INTRA.SOLV>
0.495825

>  <SCORE.INTRA.SOLV.lig_0>
-49.456

>  <SCORE.INTRA.VDW>
-0.421547

>  <SCORE.INTRA.VDW.0>
-0.478406

>  <SCORE.INTRA.norm>
-0.245894

>  <SCORE.RESTR>
0

>  <SCORE.RESTR.CAVITY>
0

>  <SCORE.RESTR.norm>
0

>  <SCORE.SYSTEM>
0

>  <SCORE.SYSTEM.CONST>
0

>  <SCORE.SYSTEM.DIHEDRAL>
0

>  <SCORE.SYSTEM.SOLV>
0

>  <SCORE.SYSTEM.norm>
0

>  <SCORE.heavy>
14

>  <SCORE.norm>
-0.646371

>  <RMSD>
1.684

$$$$
ligand
 OpenBabel11021811413D
libRbt.so/2013.1/901 2013/11/27
 14 13  0  0  0  0  0  0  0  0999 V2000
   42.1350   11.2641   18.8481 N   0  0  0  0  0  0  0  0  0  0  0  0
   42.6739   11.4344   17.4815 C   0  0  0  0  0  0  0  0  0  0  0  0
   44.0255   12.1805   17.5036 C   0  0  0  0  0  0  0  0  0  0  0  0
   45.1786   11.3964   18.1512 C   0  0  0  0  0  0  0  0  0  0  0  0
   45.4536   10.1373   17.4060 N   0  0  0  0  0  0  0  0  0  0  0  0
   46.2929    9.2275   18.2273 C   0  0  0  0  0  0  0  0  0  0  0  0
   45.5425    8.0157   18.8758 C   0  0  0  0  0  0  0  0  0  0  0  0
   46.4467    6.7783   19.1435 C   0  0  0  0  0  0  0  0  0  0  0  0
   45.7112    5.5973   19.7461 C   0  0  0  0  0  0  0  0  0  0  0  0
   46.5549    4.4277   19.5892 N   0  0  0  0  0  0  0  0  0  0  0  0
   45.7549    3.4537   18.8674 C   0  0  0  0  0  0  0  0  0  0  0  0
   46.5601    2.2009   18.5432 C   0  0  0  0  0  0  0  0  0  0  0  0
   45.6112    1.2010   17.8652 C   0  0  0  0  0  0  0  0  0  0  0  0
   45.2470    1.6171   16.5025 N   0  0  0  0  0  0  0  0  0  0  0  0
  1  2  1  0  0  0  0
  2  3  1  0  0  0  0
  3  4  1  0  0  0  0
  4  5  1  0  0  0  0
  5  6  1  0  0  0  0
  6  7  1  0  0  0  0
  7  8  1  0  0  0  0
  8  9  1  0  0  0  0
  9 10  1  0  0  0  0
 10 11  1  0  0  0  0
 11 12  1  0  0  0  0
 12 13  1  0  0  0  0
 13 14  1  0  0  0  0
M  END
>  <CHROM.1>
67.45079003,61.60904458,-164.72832220,104.32163313,153.11274480,-178.85417025
164.11838771,-123.73565176,175.88499466,176.43183160,71.45736223,45.22787206
7.06665083,18.33942852,1.82504489,-0.52948537,0.10052877

>  <Name>
ligand

>  <RI>
0

>  <Rbt.Current_Directory>
/home/itssahil/PROJECTS/Mol_Feturizer/New_Systems/rnas/1TN2

>  <Rbt.Executable>
rbdock ($Id: //depot/dev/client3/rdock/2013.1/src/exe/rbdock.cxx#4 $)

>  <Rbt.Library>
libRbt.so (2013.1, Build901 2013/11/27)

>  <Rbt.Parameter_File>
/export/apps/rDock/src/rDock_2013.1_src/data/scripts/dock_solv.prm

>  <Rbt.Receptor>
prm/pocket_docking_2.prm

>  <SCORE>
-2.56803

>  <SCORE.INTER>
-2.28161

>  <SCORE.INTER.CONST>
1

>  <SCORE.INTER.POLAR>
0

>  <SCORE.INTER.ROT>
11

>  <SCORE.INTER.SOLV>
14.4425

>  <SCORE.INTER.VDW>
-17.2686

>  <SCORE.INTER.norm>
-0.162972

>  <SCORE.INTRA>
-0.286426

>  <SCORE.INTRA.DIHEDRAL>
-1.43633

>  <SCORE.INTRA.DIHEDRAL.0>
7.79482

>  <SCORE.INTRA.POLAR>
0

>  <SCORE.INTRA.POLAR.0>
0

>  <SCORE.INTRA.REPUL>
0

>  <SCORE.INTRA.REPUL.0>
0

>  <SCORE.INTRA.SOLV>
2.29017

>  <SCORE.INTRA.SOLV.lig_0>
-49.456

>  <SCORE.INTRA.VDW>
-0.713344

>  <SCORE.INTRA.VDW.0>
-0.478406

>  <SCORE.INTRA.norm>
-0.020459

>  <SCORE.RESTR>
0

>  <SCORE.RESTR.CAVITY>
0

>  <SCORE.RESTR.norm>
0

>  <SCORE.SYSTEM>
0

>  <SCORE.SYSTEM.CONST>
0

>  <SCORE.SYSTEM.DIHEDRAL>
0

>  <SCORE.SYSTEM.SOLV>
0

>  <SCORE.SYSTEM.norm>
0

>  <SCORE.heavy>
14

>  <SCORE.norm>
-0.183431

>  <RMSD>
1.708

$$$$
ligand
 OpenBabel11021811413D
libRbt.so/2013.1/901 2013/11/27
 14 13  0  0  0  0  0  0  0  0999 V2000
   45.0909   -1.3128   15.4400 N   0  0  0  0  0  0  0  0  0  0  0  0
   44.9288    0.1544   15.5305 C   0  0  0  0  0  0  0  0  0  0  0  0
   45.6065    0.7134   16.8002 C   0  0  0  0  0  0  0  0  0  0  0  0
   45.6177    2.2479   16.8967 C   0  0  0  0  0  0  0  0  0  0  0  0
   46.4098    2.7036   18.0719 N   0  0  0  0  0  0  0  0  0  0  0  0
   45.5028    3.1418   19.1637 C   0  0  0  0  0  0  0  0  0  0  0  0
   45.9917    4.3751   19.9957 C   0  0  0  0  0  0  0  0  0  0  0  0
   46.1508    5.6798   19.1634 C   0  0  0  0  0  0  0  0  0  0  0  0
   46.3617    6.9241   20.0038 C   0  0  0  0  0  0  0  0  0  0  0  0
   46.5367    8.0425   19.0966 N   0  0  0  0  0  0  0  0  0  0  0  0
   45.2250    8.6502   18.9562 C   0  0  0  0  0  0  0  0  0  0  0  0
   45.3264   10.0867   18.4568 C   0  0  0  0  0  0  0  0  0  0  0  0
   43.9445   10.4914   17.9216 C   0  0  0  0  0  0  0  0  0  0  0  0
   42.9015   10.4050   18.9549 N   0  0  0  0  0  0  0  0  0  0  0  0
  1  2  1  0  0  0  0
  2  3  1  0  0  0  0
  3  4  1  0  0  0  0
  4  5  1  0  0  0  0
  5  6  1  0  0  0  0
  6  7  1  0  0  0  0
  7  8  1  0  0  0  0
  8  9  1  0  0  0  0
  9 10  1  0  0  0  0
 10 11  1  0  0  0  0
 11 12  1  0  0  0  0
 12 13  1  0  0  0  0
 13 14  1  0  0  0  0
M  END
>  <CHROM.1>
173.72007853,-174.08403573,-104.00802646,-143.16239072,62.14239307,168.83212758
178.12832778,95.08021336,159.66440726,162.41930140,59.57167446,45.39969177
5.16459882,18.17525782,1.45702573,0.88850050,-2.80031210

>  <Name>
ligand

>  <RI>
0

>  <Rbt.Current_Directory>
/home/itssahil/PROJECTS/Mol_Feturizer/New_Systems/rnas/1TN2

>  <Rbt.Executable>
rbdock ($Id: //depot/dev/client3/rdock/2013.1/src/exe/rbdock.cxx#4 $)

>  <Rbt.Library>
libRbt.so (2013.1, Build901 2013/11/27)

>  <Rbt.Parameter_File>
/export/apps/rDock/src/rDock_2013.1_src/data/scripts/dock_solv.prm

>  <Rbt.Receptor>
prm/pocket_docking_2.prm

>  <SCORE>
-3.38222

>  <SCORE.INTER>
-2.70785

>  <SCORE.INTER.CONST>
1

>  <SCORE.INTER.POLAR>
0

>  <SCORE.INTER.ROT>
11

>  <SCORE.INTER.SOLV>
15.7425

>  <SCORE.INTER.VDW>
-17.9861

>  <SCORE.INTER.norm>
-0.193418

>  <SCORE.INTRA>
-1.03234

>  <SCORE.INTRA.DIHEDRAL>
-3.00799

>  <SCORE.INTRA.DIHEDRAL.0>
7.79482

>  <SCORE.INTRA.POLAR>
0

>  <SCORE.INTRA.POLAR.0>
0

>  <SCORE.INTRA.REPUL>
0

>  <SCORE.INTRA.REPUL.0>
0

>  <SCORE.INTRA.SOLV>
1.11048

>  <SCORE.INTRA.SOLV.lig_0>
-49.456

>  <SCORE.INTRA.VDW>
-0.0835825

>  <SCORE.INTRA.VDW.0>
-0.478406

>  <SCORE.INTRA.norm>
-0.0737384

>  <SCORE.RESTR>
0.357966

>  <SCORE.RESTR.CAVITY>
0.357966

>  <SCORE.RESTR.norm>
0.025569

>  <SCORE.SYSTEM>
0

>  <SCORE.SYSTEM.CONST>
0

>  <SCORE.SYSTEM.DIHEDRAL>
0

>  <SCORE.SYSTEM.SOLV>
0

>  <SCORE.SYSTEM.norm>
0

>  <SCORE.heavy>
14

>  <SCORE.norm>
-0.241587

>  <RMSD>
1.719

$$$$
ligand
 OpenBabel11021811413D
libRbt.so/2013.1/901 2013/11/27
 14 13  0  0  0  0  0  0  0  0999 V2000
   44.4956    1.1508   16.2197 N   0  0  0  0  0  0  0  0  0  0  0  0
   45.4723    0.4983   17.1183 C   0  0  0  0  0  0  0  0  0  0  0  0
   45.6597    1.3072   18.4201 C   0  0  0  0  0  0  0  0  0  0  0  0
   46.1771    2.7403   18.2141 C   0  0  0  0  0  0  0  0  0  0  0  0
   46.2623    3.4691   19.5095 N   0  0  0  0  0  0  0  0  0  0  0  0
   45.9756    4.9125   19.3063 C   0  0  0  0  0  0  0  0  0  0  0  0
   45.8355    5.7650   20.6124 C   0  0  0  0  0  0  0  0  0  0  0  0
   45.5151    7.2663   20.3596 C   0  0  0  0  0  0  0  0  0  0  0  0
   46.6171    8.0179   19.6387 C   0  0  0  0  0  0  0  0  0  0  0  0
   46.2123    9.4077   19.5448 N   0  0  0  0  0  0  0  0  0  0  0  0
   45.7514    9.5967   18.1804 C   0  0  0  0  0  0  0  0  0  0  0  0
   45.1681   10.9901   17.9767 C   0  0  0  0  0  0  0  0  0  0  0  0
   44.7105   11.0931   16.5139 C   0  0  0  0  0  0  0  0  0  0  0  0
   44.1267   12.4072   16.2057 N   0  0  0  0  0  0  0  0  0  0  0  0
  1  2  1  0  0  0  0
  2  3  1  0  0  0  0
  3  4  1  0  0  0  0
  4  5  1  0  0  0  0
  5  6  1  0  0  0  0
  6  7  1  0  0  0  0
  7  8  1  0  0  0  0
  8  9  1  0  0  0  0
  9 10  1  0  0  0  0
 10 11  1  0  0  0  0
 11 12  1  0  0  0  0
 12 13  1  0  0  0  0
 13 14  1  0  0  0  0
M  END
>  <CHROM.1>
-60.24252865,177.09986342,-147.05196298,171.87450970,-179.15753592,-64.63368500
-176.74983011,-102.44507071,174.58072113,-179.96364332,179.97919915,45.57006941
6.33004588,18.41595091,1.44413490,1.18529395,-3.04801391

>  <Name>
ligand

>  <RI>
0

>  <Rbt.Current_Directory>
/home/itssahil/PROJECTS/Mol_Feturizer/New_Systems/rnas/1TN2

>  <Rbt.Executable>
rbdock ($Id: //depot/dev/client3/rdock/2013.1/src/exe/rbdock.cxx#4 $)

>  <Rbt.Library>
libRbt.so (2013.1, Build901 2013/11/27)

>  <Rbt.Parameter_File>
/export/apps/rDock/src/rDock_2013.1_src/data/scripts/dock_solv.prm

>  <Rbt.Receptor>
prm/pocket_docking_3.prm

>  <SCORE>
-8.6542

>  <SCORE.INTER>
-5.91246

>  <SCORE.INTER.CONST>
1

>  <SCORE.INTER.POLAR>
0

>  <SCORE.INTER.ROT>
11

>  <SCORE.INTER.SOLV>
13.4753

>  <SCORE.INTER.VDW>
-19.3667

>  <SCORE.INTER.norm>
-0.422318

>  <SCORE.INTRA>
-2.74175

>  <SCORE.INTRA.DIHEDRAL>
-5.89704

>  <SCORE.INTRA.DIHEDRAL.0>
7.79482

>  <SCORE.INTRA.POLAR>
0

>  <SCORE.INTRA.POLAR.0>
0

>  <SCORE.INTRA.REPUL>
0

>  <SCORE.INTRA.REPUL.0>
0

>  <SCORE.INTRA.SOLV>
0.792436

>  <SCORE.INTRA.SOLV.lig_0>
-49.456

>  <SCORE.INTRA.VDW>
-0.189445

>  <SCORE.INTRA.VDW.0>
-0.478406

>  <SCORE.INTRA.norm>
-0.195839

>  <SCORE.RESTR>
0

>  <SCORE.RESTR.CAVITY>
0

>  <SCORE.RESTR.norm>
0

>  <SCORE.SYSTEM>
0

>  <SCORE.SYSTEM.CONST>
0

>  <SCORE.SYSTEM.DIHEDRAL>
0

>  <SCORE.SYSTEM.SOLV>
0

>  <SCORE.SYSTEM.norm>
0

>  <SCORE.heavy>
14

>  <SCORE.norm>
-0.618157

>  <RMSD>
1.730

$$$$
ligand
 OpenBabel11021811413D
libRbt.so/2013.1/901 2013/11/27
 14 13  0  0  0  0  0  0  0  0999 V2000
   44.9826    0.0256   14.9599 N   0  0  0  0  0  0  0  0  0  0  0  0
   45.6187   -0.6361   16.1194 C   0  0  0  0  0  0  0  0  0  0  0  0
   45.4005    0.1760   17.4143 C   0  0  0  0  0  0  0  0  0  0  0  0
   45.9715    1.6032   17.3784 C   0  0  0  0  0  0  0  0  0  0  0  0
   46.0285    2.1905   18.7452 N   0  0  0  0  0  0  0  0  0  0  0  0
   45.7818    3.6542   18.6858 C   0  0  0  0  0  0  0  0  0  0  0  0
   46.3558    4.4863   19.8817 C   0  0  0  0  0  0  0  0  0  0  0  0
   45.6558    5.8594   20.0938 C   0  0  0  0  0  0  0  0  0  0  0  0
   45.9765    6.8855   19.0247 C   0  0  0  0  0  0  0  0  0  0  0  0
   45.3075    8.1208   19.3865 N   0  0  0  0  0  0  0  0  0  0  0  0
   45.3510    8.9589   18.2010 C   0  0  0  0  0  0  0  0  0  0  0  0
   44.9761   10.4008   18.5233 C   0  0  0  0  0  0  0  0  0  0  0  0
   44.5139   11.0639   17.2170 C   0  0  0  0  0  0  0  0  0  0  0  0
   44.0296   12.4358   17.4315 N   0  0  0  0  0  0  0  0  0  0  0  0
  1  2  1  0  0  0  0
  2  3  1  0  0  0  0
  3  4  1  0  0  0  0
  4  5  1  0  0  0  0
  5  6  1  0  0  0  0
  6  7  1  0  0  0  0
  7  8  1  0  0  0  0
  8  9  1  0  0  0  0
  9 10  1  0  0  0  0
 10 11  1  0  0  0  0
 11 12  1  0  0  0  0
 12 13  1  0  0  0  0
 13 14  1  0  0  0  0
M  END
>  <CHROM.1>
-59.96921358,-165.77969609,-146.42963928,-156.40427185,-157.84605265,-71.33175057
-177.46369344,-166.01108920,-166.80167717,-158.17215808,175.67385956,45.42513482
5.37306647,18.07607351,1.33380255,1.22086661,-2.79442815

>  <Name>
ligand

>  <RI>
0

>  <Rbt.Current_Directory>
/home/itssahil/PROJECTS/Mol_Feturizer/New_Systems/rnas/1TN2

>  <Rbt.Executable>
rbdock ($Id: //depot/dev/client3/rdock/2013.1/src/exe/rbdock.cxx#4 $)

>  <Rbt.Library>
libRbt.so (2013.1, Build901 2013/11/27)

>  <Rbt.Parameter_File>
/export/apps/rDock/src/rDock_2013.1_src/data/scripts/dock_solv.prm

>  <Rbt.Receptor>
prm/pocket_docking_2.prm

>  <SCORE>
-3.99555

>  <SCORE.INTER>
-3.2396

>  <SCORE.INTER.CONST>
1

>  <SCORE.INTER.POLAR>
0

>  <SCORE.INTER.ROT>
11

>  <SCORE.INTER.SOLV>
11.229

>  <SCORE.INTER.VDW>
-16.8361

>  <SCORE.INTER.norm>
-0.2314

>  <SCORE.INTRA>
-1.04241

>  <SCORE.INTRA.DIHEDRAL>
-1.76855

>  <SCORE.INTRA.DIHEDRAL.0>
7.79482

>  <SCORE.INTRA.POLAR>
0

>  <SCORE.INTRA.POLAR.0>
0

>  <SCORE.INTRA.REPUL>
0

>  <SCORE.INTRA.REPUL.0>
0

>  <SCORE.INTRA.SOLV>
0.758231

>  <SCORE.INTRA.SOLV.lig_0>
-49.456

>  <SCORE.INTRA.VDW>
-0.537257

>  <SCORE.INTRA.VDW.0>
-0.478406

>  <SCORE.INTRA.norm>
-0.0744582

>  <SCORE.RESTR>
0.286463

>  <SCORE.RESTR.CAVITY>
0.286463

>  <SCORE.RESTR.norm>
0.0204617

>  <SCORE.SYSTEM>
0

>  <SCORE.SYSTEM.CONST>
0

>  <SCORE.SYSTEM.DIHEDRAL>
0

>  <SCORE.SYSTEM.SOLV>
0

>  <SCORE.SYSTEM.norm>
0

>  <SCORE.heavy>
14

>  <SCORE.norm>
-0.285396

>  <RMSD>
1.735

$$$$
ligand
 OpenBabel11021811413D
libRbt.so/2013.1/901 2013/11/27
 14 13  0  0  0  0  0  0  0  0999 V2000
   45.6029    1.7584   16.3085 N   0  0  0  0  0  0  0  0  0  0  0  0
   45.6016    1.1752   17.6675 C   0  0  0  0  0  0  0  0  0  0  0  0
   46.4105    2.0490   18.6505 C   0  0  0  0  0  0  0  0  0  0  0  0
   45.8096    3.4395   18.9140 C   0  0  0  0  0  0  0  0  0  0  0  0
   46.5527    4.1471   19.9926 N   0  0  0  0  0  0  0  0  0  0  0  0
   45.9086    5.4526   20.2885 C   0  0  0  0  0  0  0  0  0  0  0  0
   46.3832    6.6566   19.4069 C   0  0  0  0  0  0  0  0  0  0  0  0
   45.5696    7.9643   19.6268 C   0  0  0  0  0  0  0  0  0  0  0  0
   45.9397    9.0866   18.6769 C   0  0  0  0  0  0  0  0  0  0  0  0
   45.0261   10.1869   18.9196 N   0  0  0  0  0  0  0  0  0  0  0  0
   45.3418   11.1939   17.9215 C   0  0  0  0  0  0  0  0  0  0  0  0
   44.3216   11.1958   16.7891 C   0  0  0  0  0  0  0  0  0  0  0  0
   42.9997   11.7364   17.3553 C   0  0  0  0  0  0  0  0  0  0  0  0
   43.0724   13.1731   17.6604 N   0  0  0  0  0  0  0  0  0  0  0  0
  1  2  1  0  0  0  0
  2  3  1  0  0  0  0
  3  4  1  0  0  0  0
  4  5  1  0  0  0  0
  5  6  1  0  0  0  0
  6  7  1  0  0  0  0
  7  8  1  0  0  0  0
  8  9  1  0  0  0  0
  9 10  1  0  0  0  0
 10 11  1  0  0  0  0
 11 12  1  0  0  0  0
 12 13  1  0  0  0  0
 13 14  1  0  0  0  0
M  END
>  <CHROM.1>
65.67307986,172.98931777,-176.61495580,-87.25350794,173.05426713,-174.27478807
174.97867957,-175.48900328,102.77819277,69.75356685,70.10570059,45.32439676
7.08671207,18.44136904,1.14806398,1.05682295,-2.82787396

>  <Name>
ligand

>  <RI>
0

>  <Rbt.Current_Directory>
/home/itssahil/PROJECTS/Mol_Feturizer/New_Systems/rnas/1TN2

>  <Rbt.Executable>
rbdock ($Id: //depot/dev/client3/rdock/2013.1/src/exe/rbdock.cxx#4 $)

>  <Rbt.Library>
libRbt.so (2013.1, Build901 2013/11/27)

>  <Rbt.Parameter_File>
/export/apps/rDock/src/rDock_2013.1_src/data/scripts/dock_solv.prm

>  <Rbt.Receptor>
prm/pocket_docking_3.prm

>  <SCORE>
-6.9344

>  <SCORE.INTER>
-5.34843

>  <SCORE.INTER.CONST>
1

>  <SCORE.INTER.POLAR>
0

>  <SCORE.INTER.ROT>
11

>  <SCORE.INTER.SOLV>
11.0329

>  <SCORE.INTER.VDW>
-18.1766

>  <SCORE.INTER.norm>
-0.382031

>  <SCORE.INTRA>
-1.58597

>  <SCORE.INTRA.DIHEDRAL>
-4.83642

>  <SCORE.INTRA.DIHEDRAL.0>
7.79482

>  <SCORE.INTRA.POLAR>
0

>  <SCORE.INTRA.POLAR.0>
0

>  <SCORE.INTRA.REPUL>
0

>  <SCORE.INTRA.REPUL.0>
0

>  <SCORE.INTRA.SOLV>
2.20942

>  <SCORE.INTRA.SOLV.lig_0>
-49.456

>  <SCORE.INTRA.VDW>
-0.272469

>  <SCORE.INTRA.VDW.0>
-0.478406

>  <SCORE.INTRA.norm>
-0.113283

>  <SCORE.RESTR>
0

>  <SCORE.RESTR.CAVITY>
0

>  <SCORE.RESTR.norm>
0

>  <SCORE.SYSTEM>
0

>  <SCORE.SYSTEM.CONST>
0

>  <SCORE.SYSTEM.DIHEDRAL>
0

>  <SCORE.SYSTEM.SOLV>
0

>  <SCORE.SYSTEM.norm>
0

>  <SCORE.heavy>
14

>  <SCORE.norm>
-0.495314

>  <RMSD>
1.795

$$$$
ligand
 OpenBabel11021811413D
libRbt.so/2013.1/901 2013/11/27
 14 13  0  0  0  0  0  0  0  0999 V2000
   44.9776   12.1897   16.9535 N   0  0  0  0  0  0  0  0  0  0  0  0
   45.0121   10.7446   16.6408 C   0  0  0  0  0  0  0  0  0  0  0  0
   44.8852    9.8932   17.9226 C   0  0  0  0  0  0  0  0  0  0  0  0
   46.0470   10.0559   18.9165 C   0  0  0  0  0  0  0  0  0  0  0  0
   45.8732    9.1603   20.0930 N   0  0  0  0  0  0  0  0  0  0  0  0
   46.5415    7.8563   19.8488 C   0  0  0  0  0  0  0  0  0  0  0  0
   45.6273    6.5919   19.9823 C   0  0  0  0  0  0  0  0  0  0  0  0
   46.3055    5.2671   19.5291 C   0  0  0  0  0  0  0  0  0  0  0  0
   45.3909    4.0589   19.5792 C   0  0  0  0  0  0  0  0  0  0  0  0
   46.1135    2.9369   19.0107 N   0  0  0  0  0  0  0  0  0  0  0  0
   45.1277    1.8894   18.8093 C   0  0  0  0  0  0  0  0  0  0  0  0
   45.5615    0.9176   17.7181 C   0  0  0  0  0  0  0  0  0  0  0  0
   45.6046    1.6950   16.3938 C   0  0  0  0  0  0  0  0  0  0  0  0
   45.9830    0.8392   15.2593 N   0  0  0  0  0  0  0  0  0  0  0  0
  1  2  1  0  0  0  0
  2  3  1  0  0  0  0
  3  4  1  0  0  0  0
  4  5  1  0  0  0  0
  5  6  1  0  0  0  0
  6  7  1  0  0  0  0
  7  8  1  0  0  0  0
  8  9  1  0  0  0  0
  9 10  1  0  0  0  0
 10 11  1  0  0  0  0
 11 12  1  0  0  0  0
 12 13  1  0  0  0  0
 13 14  1  0  0  0  0
M  END
>  <CHROM.1>
-63.91084213,-177.63702647,91.09596088,-123.89483585,171.93126242,-176.44173762
174.53154335,-168.01100272,155.61593636,-64.97779428,-178.61375276,45.64642738
6.00676062,18.33285172,1.75695724,-1.40670678,0.25888743

>  <Name>
ligand

>  <RI>
0

>  <Rbt.Current_Directory>
/home/itssahil/PROJECTS/Mol_Feturizer/New_Systems/rnas/1TN2

>  <Rbt.Executable>
rbdock ($Id: //depot/dev/client3/rdock/2013.1/src/exe/rbdock.cxx#4 $)

>  <Rbt.Library>
libRbt.so (2013.1, Build901 2013/11/27)

>  <Rbt.Parameter_File>
/export/apps/rDock/src/rDock_2013.1_src/data/scripts/dock_solv.prm

>  <Rbt.Receptor>
prm/pocket_docking_3.prm

>  <SCORE>
-7.72243

>  <SCORE.INTER>
-5.31239

>  <SCORE.INTER.CONST>
1

>  <SCORE.INTER.POLAR>
0

>  <SCORE.INTER.ROT>
11

>  <SCORE.INTER.SOLV>
10.7646

>  <SCORE.INTER.VDW>
-18.0631

>  <SCORE.INTER.norm>
-0.379456

>  <SCORE.INTRA>
-2.41004

>  <SCORE.INTRA.DIHEDRAL>
-4.84511

>  <SCORE.INTRA.DIHEDRAL.0>
7.79482

>  <SCORE.INTRA.POLAR>
0

>  <SCORE.INTRA.POLAR.0>
0

>  <SCORE.INTRA.REPUL>
0

>  <SCORE.INTRA.REPUL.0>
0

>  <SCORE.INTRA.SOLV>
1.06398

>  <SCORE.INTRA.SOLV.lig_0>
-49.456

>  <SCORE.INTRA.VDW>
-0.519477

>  <SCORE.INTRA.VDW.0>
-0.478406

>  <SCORE.INTRA.norm>
-0.172146

>  <SCORE.RESTR>
0

>  <SCORE.RESTR.CAVITY>
0

>  <SCORE.RESTR.norm>
0

>  <SCORE.SYSTEM>
0

>  <SCORE.SYSTEM.CONST>
0

>  <SCORE.SYSTEM.DIHEDRAL>
0

>  <SCORE.SYSTEM.SOLV>
0

>  <SCORE.SYSTEM.norm>
0

>  <SCORE.heavy>
14

>  <SCORE.norm>
-0.551602

>  <RMSD>
1.802

$$$$
ligand
 OpenBabel11021811413D
libRbt.so/2013.1/901 2013/11/27
 14 13  0  0  0  0  0  0  0  0999 V2000
   42.7324   13.3818   17.6330 N   0  0  0  0  0  0  0  0  0  0  0  0
   41.9690   12.1526   17.3275 C   0  0  0  0  0  0  0  0  0  0  0  0
   42.3742   10.9961   18.2668 C   0  0  0  0  0  0  0  0  0  0  0  0
   43.8468   10.5680   18.1562 C   0  0  0  0  0  0  0  0  0  0  0  0
   44.1167    9.3626   18.9872 N   0  0  0  0  0  0  0  0  0  0  0  0
   45.5690    9.2560   19.2807 C   0  0  0  0  0  0  0  0  0  0  0  0
   46.2659    7.9456   18.7815 C   0  0  0  0  0  0  0  0  0  0  0  0
   45.6585    6.6396   19.3696 C   0  0  0  0  0  0  0  0  0  0  0  0
   46.2777    5.3701   18.8184 C   0  0  0  0  0  0  0  0  0  0  0  0
   45.5629    4.2467   19.3941 N   0  0  0  0  0  0  0  0  0  0  0  0
   45.3983    3.2858   18.3174 C   0  0  0  0  0  0  0  0  0  0  0  0
   44.9712    1.9220   18.8475 C   0  0  0  0  0  0  0  0  0  0  0  0
   44.5773    1.0569   17.6407 C   0  0  0  0  0  0  0  0  0  0  0  0
   45.7142    0.8061   16.7422 N   0  0  0  0  0  0  0  0  0  0  0  0
  1  2  1  0  0  0  0
  2  3  1  0  0  0  0
  3  4  1  0  0  0  0
  4  5  1  0  0  0  0
  5  6  1  0  0  0  0
  6  7  1  0  0  0  0
  7  8  1  0  0  0  0
  8  9  1  0  0  0  0
  9 10  1  0  0  0  0
 10 11  1  0  0  0  0
 11 12  1  0  0  0  0
 12 13  1  0  0  0  0
 13 14  1  0  0  0  0
M  END
>  <CHROM.1>
-61.96339554,-174.11858001,-159.07181303,-120.61948060,-59.06133302,176.37415464
-176.69556621,139.22826929,166.06743359,169.87958956,63.71809637,44.64532547
6.92784527,18.39742358,1.85125356,-0.57409304,0.15219830

>  <Name>
ligand

>  <RI>
0

>  <Rbt.Current_Directory>
/home/itssahil/PROJECTS/Mol_Feturizer/New_Systems/rnas/1TN2

>  <Rbt.Executable>
rbdock ($Id: //depot/dev/client3/rdock/2013.1/src/exe/rbdock.cxx#4 $)

>  <Rbt.Library>
libRbt.so (2013.1, Build901 2013/11/27)

>  <Rbt.Parameter_File>
/export/apps/rDock/src/rDock_2013.1_src/data/scripts/dock_solv.prm

>  <Rbt.Receptor>
prm/pocket_docking_2.prm

>  <SCORE>
-6.22932

>  <SCORE.INTER>
-4.49552

>  <SCORE.INTER.CONST>
1

>  <SCORE.INTER.POLAR>
0

>  <SCORE.INTER.ROT>
11

>  <SCORE.INTER.SOLV>
13.7414

>  <SCORE.INTER.VDW>
-18.5108

>  <SCORE.INTER.norm>
-0.321109

>  <SCORE.INTRA>
-1.92946

>  <SCORE.INTRA.DIHEDRAL>
-4.52151

>  <SCORE.INTRA.DIHEDRAL.0>
7.79482

>  <SCORE.INTRA.POLAR>
0

>  <SCORE.INTRA.POLAR.0>
0

>  <SCORE.INTRA.REPUL>
0

>  <SCORE.INTRA.REPUL.0>
0

>  <SCORE.INTRA.SOLV>
1.79706

>  <SCORE.INTRA.SOLV.lig_0>
-49.456

>  <SCORE.INTRA.VDW>
-0.567239

>  <SCORE.INTRA.VDW.0>
-0.478406

>  <SCORE.INTRA.norm>
-0.137819

>  <SCORE.RESTR>
0.195664

>  <SCORE.RESTR.CAVITY>
0.195664

>  <SCORE.RESTR.norm>
0.013976

>  <SCORE.SYSTEM>
0

>  <SCORE.SYSTEM.CONST>
0

>  <SCORE.SYSTEM.DIHEDRAL>
0

>  <SCORE.SYSTEM.SOLV>
0

>  <SCORE.SYSTEM.norm>
0

>  <SCORE.heavy>
14

>  <SCORE.norm>
-0.444951

>  <RMSD>
1.815

$$$$
ligand
 OpenBabel11021811413D
libRbt.so/2013.1/901 2013/11/27
 14 13  0  0  0  0  0  0  0  0999 V2000
   45.3853   12.0843   16.3677 N   0  0  0  0  0  0  0  0  0  0  0  0
   44.7491   12.1133   17.7024 C   0  0  0  0  0  0  0  0  0  0  0  0
   43.9412   10.8236   17.9636 C   0  0  0  0  0  0  0  0  0  0  0  0
   44.7851    9.5394   18.0156 C   0  0  0  0  0  0  0  0  0  0  0  0
   45.7602    9.5859   19.1397 N   0  0  0  0  0  0  0  0  0  0  0  0
   45.4911    8.4837   20.0986 C   0  0  0  0  0  0  0  0  0  0  0  0
   46.0039    7.0692   19.6649 C   0  0  0  0  0  0  0  0  0  0  0  0
   45.5982    5.9219   20.6342 C   0  0  0  0  0  0  0  0  0  0  0  0
   46.1817    4.5713   20.2677 C   0  0  0  0  0  0  0  0  0  0  0  0
   45.6780    4.2168   18.9542 N   0  0  0  0  0  0  0  0  0  0  0  0
   45.9590    2.8014   18.7888 C   0  0  0  0  0  0  0  0  0  0  0  0
   45.3131    2.2487   17.5237 C   0  0  0  0  0  0  0  0  0  0  0  0
   45.6486    0.7516   17.4465 C   0  0  0  0  0  0  0  0  0  0  0  0
   45.1639    0.1371   16.2015 N   0  0  0  0  0  0  0  0  0  0  0  0
  1  2  1  0  0  0  0
  2  3  1  0  0  0  0
  3  4  1  0  0  0  0
  4  5  1  0  0  0  0
  5  6  1  0  0  0  0
  6  7  1  0  0  0  0
  7  8  1  0  0  0  0
  8  9  1  0  0  0  0
  9 10  1  0  0  0  0
 10 11  1  0  0  0  0
 11 12  1  0  0  0  0
 12 13  1  0  0  0  0
 13 14  1  0  0  0  0
M  END
>  <CHROM.1>
63.95141315,62.61105601,118.51138119,78.25736708,-175.03811818,-175.70508471
-61.44268666,-165.41711384,172.30204148,-179.24736447,-175.35397879,45.40413760
6.45342778,18.48382880,1.84677713,-1.32906082,0.28562237

>  <Name>
ligand

>  <RI>
0

>  <Rbt.Current_Directory>
/home/itssahil/PROJECTS/Mol_Feturizer/New_Systems/rnas/1TN2

>  <Rbt.Executable>
rbdock ($Id: //depot/dev/client3/rdock/2013.1/src/exe/rbdock.cxx#4 $)

>  <Rbt.Library>
libRbt.so (2013.1, Build901 2013/11/27)

>  <Rbt.Parameter_File>
/export/apps/rDock/src/rDock_2013.1_src/data/scripts/dock_solv.prm

>  <Rbt.Receptor>
prm/pocket_docking_3.prm

>  <SCORE>
-7.15575

>  <SCORE.INTER>
-4.95896

>  <SCORE.INTER.CONST>
1

>  <SCORE.INTER.POLAR>
0

>  <SCORE.INTER.ROT>
11

>  <SCORE.INTER.SOLV>
10.65

>  <SCORE.INTER.VDW>
-17.7893

>  <SCORE.INTER.norm>
-0.354212

>  <SCORE.INTRA>
-2.19679

>  <SCORE.INTRA.DIHEDRAL>
-5.78252

>  <SCORE.INTRA.DIHEDRAL.0>
7.79482

>  <SCORE.INTRA.POLAR>
0

>  <SCORE.INTRA.POLAR.0>
0

>  <SCORE.INTRA.REPUL>
0

>  <SCORE.INTRA.REPUL.0>
0

>  <SCORE.INTRA.SOLV>
2.03383

>  <SCORE.INTRA.SOLV.lig_0>
-49.456

>  <SCORE.INTRA.VDW>
-0.322443

>  <SCORE.INTRA.VDW.0>
-0.478406

>  <SCORE.INTRA.norm>
-0.156913

>  <SCORE.RESTR>
0

>  <SCORE.RESTR.CAVITY>
0

>  <SCORE.RESTR.norm>
0

>  <SCORE.SYSTEM>
0

>  <SCORE.SYSTEM.CONST>
0

>  <SCORE.SYSTEM.DIHEDRAL>
0

>  <SCORE.SYSTEM.SOLV>
0

>  <SCORE.SYSTEM.norm>
0

>  <SCORE.heavy>
14

>  <SCORE.norm>
-0.511125

>  <RMSD>
1.819

$$$$
ligand
 OpenBabel11021811413D
libRbt.so/2013.1/901 2013/11/27
 14 13  0  0  0  0  0  0  0  0999 V2000
   45.3669    0.7685   15.9941 N   0  0  0  0  0  0  0  0  0  0  0  0
   44.8455    0.7922   17.3778 C   0  0  0  0  0  0  0  0  0  0  0  0
   45.9380    1.2273   18.3784 C   0  0  0  0  0  0  0  0  0  0  0  0
   46.4384    2.6692   18.1924 C   0  0  0  0  0  0  0  0  0  0  0  0
   45.3485    3.6504   18.4489 N   0  0  0  0  0  0  0  0  0  0  0  0
   45.3276    4.0307   19.8848 C   0  0  0  0  0  0  0  0  0  0  0  0
   46.0959    5.3462   20.2476 C   0  0  0  0  0  0  0  0  0  0  0  0
   45.3937    6.6464   19.7612 C   0  0  0  0  0  0  0  0  0  0  0  0
   46.1754    7.9131   20.0500 C   0  0  0  0  0  0  0  0  0  0  0  0
   45.3050    9.0397   19.7718 N   0  0  0  0  0  0  0  0  0  0  0  0
   45.5586    9.4068   18.3896 C   0  0  0  0  0  0  0  0  0  0  0  0
   44.6681   10.5619   17.9469 C   0  0  0  0  0  0  0  0  0  0  0  0
   44.9902   10.8593   16.4746 C   0  0  0  0  0  0  0  0  0  0  0  0
   44.2622   12.0346   15.9731 N   0  0  0  0  0  0  0  0  0  0  0  0
  1  2  1  0  0  0  0
  2  3  1  0  0  0  0
  3  4  1  0  0  0  0
  4  5  1  0  0  0  0
  5  6  1  0  0  0  0
  6  7  1  0  0  0  0
  7  8  1  0  0  0  0
  8  9  1  0  0  0  0
  9 10  1  0  0  0  0
 10 11  1  0  0  0  0
 11 12  1  0  0  0  0
 12 13  1  0  0  0  0
 13 14  1  0  0  0  0
M  END
>  <CHROM.1>
64.62318029,64.15906302,89.64317646,95.76912124,71.71326886,-176.97015474
-169.69766440,-92.30234736,178.15885863,-179.02688091,-175.33899556,45.40827270
6.06746451,18.34970421,1.28483215,1.32495905,-2.88564750

>  <Name>
ligand

>  <RI>
0

>  <Rbt.Current_Directory>
/home/itssahil/PROJECTS/Mol_Feturizer/New_Systems/rnas/1TN2

>  <Rbt.Executable>
rbdock ($Id: //depot/dev/client3/rdock/2013.1/src/exe/rbdock.cxx#4 $)

>  <Rbt.Library>
libRbt.so (2013.1, Build901 2013/11/27)

>  <Rbt.Parameter_File>
/export/apps/rDock/src/rDock_2013.1_src/data/scripts/dock_solv.prm

>  <Rbt.Receptor>
prm/blind_docking_80.prm

>  <SCORE>
-7.80305

>  <SCORE.INTER>
-6.42662

>  <SCORE.INTER.CONST>
1

>  <SCORE.INTER.POLAR>
0

>  <SCORE.INTER.ROT>
11

>  <SCORE.INTER.SOLV>
11.2949

>  <SCORE.INTER.VDW>
-18.9827

>  <SCORE.INTER.norm>
-0.459044

>  <SCORE.INTRA>
-1.37643

>  <SCORE.INTRA.DIHEDRAL>
-4.58821

>  <SCORE.INTRA.DIHEDRAL.0>
7.79482

>  <SCORE.INTRA.POLAR>
0

>  <SCORE.INTRA.POLAR.0>
0

>  <SCORE.INTRA.REPUL>
0

>  <SCORE.INTRA.REPUL.0>
0

>  <SCORE.INTRA.SOLV>
1.85339

>  <SCORE.INTRA.SOLV.lig_0>
-49.456

>  <SCORE.INTRA.VDW>
-0.00902337

>  <SCORE.INTRA.VDW.0>
-0.478406

>  <SCORE.INTRA.norm>
-0.0983167

>  <SCORE.RESTR>
0

>  <SCORE.RESTR.CAVITY>
0

>  <SCORE.RESTR.norm>
0

>  <SCORE.SYSTEM>
0

>  <SCORE.SYSTEM.CONST>
0

>  <SCORE.SYSTEM.DIHEDRAL>
0

>  <SCORE.SYSTEM.SOLV>
0

>  <SCORE.SYSTEM.norm>
0

>  <SCORE.heavy>
14

>  <SCORE.norm>
-0.557361

>  <RMSD>
1.820

$$$$
ligand
 OpenBabel11021811413D
libRbt.so/2013.1/901 2013/11/27
 14 13  0  0  0  0  0  0  0  0999 V2000
   45.4776   -1.3098   15.4295 N   0  0  0  0  0  0  0  0  0  0  0  0
   45.5287   -0.5354   16.6884 C   0  0  0  0  0  0  0  0  0  0  0  0
   44.4662    0.5849   16.6979 C   0  0  0  0  0  0  0  0  0  0  0  0
   44.4826    1.4716   17.9539 C   0  0  0  0  0  0  0  0  0  0  0  0
   45.7559    2.2369   18.0512 N   0  0  0  0  0  0  0  0  0  0  0  0
   45.6424    3.2924   19.0903 C   0  0  0  0  0  0  0  0  0  0  0  0
   46.1177    4.7207   18.6587 C   0  0  0  0  0  0  0  0  0  0  0  0
   46.2831    5.7191   19.8404 C   0  0  0  0  0  0  0  0  0  0  0  0
   46.8552    7.0634   19.4350 C   0  0  0  0  0  0  0  0  0  0  0  0
   45.8318    7.7690   18.6873 N   0  0  0  0  0  0  0  0  0  0  0  0
   45.4706    8.9202   19.4960 C   0  0  0  0  0  0  0  0  0  0  0  0
   44.2141    9.6015   18.9665 C   0  0  0  0  0  0  0  0  0  0  0  0
   44.5782   10.2791   17.6367 C   0  0  0  0  0  0  0  0  0  0  0  0
   45.4965   11.4124   17.8238 N   0  0  0  0  0  0  0  0  0  0  0  0
  1  2  1  0  0  0  0
  2  3  1  0  0  0  0
  3  4  1  0  0  0  0
  4  5  1  0  0  0  0
  5  6  1  0  0  0  0
  6  7  1  0  0  0  0
  7  8  1  0  0  0  0
  8  9  1  0  0  0  0
  9 10  1  0  0  0  0
 10 11  1  0  0  0  0
 11 12  1  0  0  0  0
 12 13  1  0  0  0  0
 13 14  1  0  0  0  0
M  END
>  <CHROM.1>
-177.99497339,64.56066717,167.87310383,-131.53166113,-167.17990597,175.07664881
71.43621288,114.28743770,-168.73030080,-70.09651868,-68.12846785,45.44281995
5.08759848,18.17567888,1.58215639,1.04849114,-2.96783569

>  <Name>
ligand

>  <RI>
0

>  <Rbt.Current_Directory>
/home/itssahil/PROJECTS/Mol_Feturizer/New_Systems/rnas/1TN2

>  <Rbt.Executable>
rbdock ($Id: //depot/dev/client3/rdock/2013.1/src/exe/rbdock.cxx#4 $)

>  <Rbt.Library>
libRbt.so (2013.1, Build901 2013/11/27)

>  <Rbt.Parameter_File>
/export/apps/rDock/src/rDock_2013.1_src/data/scripts/dock_solv.prm

>  <Rbt.Receptor>
prm/pocket_docking_2.prm

>  <SCORE>
-4.84602

>  <SCORE.INTER>
-3.83638

>  <SCORE.INTER.CONST>
1

>  <SCORE.INTER.POLAR>
0

>  <SCORE.INTER.ROT>
11

>  <SCORE.INTER.SOLV>
12.5376

>  <SCORE.INTER.VDW>
-17.6701

>  <SCORE.INTER.norm>
-0.274027

>  <SCORE.INTRA>
-1.07846

>  <SCORE.INTRA.DIHEDRAL>
-3.4125

>  <SCORE.INTRA.DIHEDRAL.0>
7.79482

>  <SCORE.INTRA.POLAR>
0

>  <SCORE.INTRA.POLAR.0>
0

>  <SCORE.INTRA.REPUL>
0

>  <SCORE.INTRA.REPUL.0>
0

>  <SCORE.INTRA.SOLV>
2.22013

>  <SCORE.INTRA.SOLV.lig_0>
-49.456

>  <SCORE.INTRA.VDW>
-0.482274

>  <SCORE.INTRA.VDW.0>
-0.478406

>  <SCORE.INTRA.norm>
-0.0770329

>  <SCORE.RESTR>
0.0688199

>  <SCORE.RESTR.CAVITY>
0.0688199

>  <SCORE.RESTR.norm>
0.0049157

>  <SCORE.SYSTEM>
0

>  <SCORE.SYSTEM.CONST>
0

>  <SCORE.SYSTEM.DIHEDRAL>
0

>  <SCORE.SYSTEM.SOLV>
0

>  <SCORE.SYSTEM.norm>
0

>  <SCORE.heavy>
14

>  <SCORE.norm>
-0.346145

>  <RMSD>
1.828

$$$$
ligand
 OpenBabel11021811413D
libRbt.so/2013.1/901 2013/11/27
 14 13  0  0  0  0  0  0  0  0999 V2000
   45.6219   -0.7907   15.5050 N   0  0  0  0  0  0  0  0  0  0  0  0
   45.5386   -0.3378   16.9104 C   0  0  0  0  0  0  0  0  0  0  0  0
   44.5752    0.8601   17.0545 C   0  0  0  0  0  0  0  0  0  0  0  0
   44.5260    1.4759   18.4625 C   0  0  0  0  0  0  0  0  0  0  0  0
   45.8149    2.1397   18.8008 N   0  0  0  0  0  0  0  0  0  0  0  0
   45.6698    3.6157   18.7167 C   0  0  0  0  0  0  0  0  0  0  0  0
   46.0858    4.4108   20.0001 C   0  0  0  0  0  0  0  0  0  0  0  0
   45.8707    5.9479   19.8924 C   0  0  0  0  0  0  0  0  0  0  0  0
   46.7654    6.6247   18.8725 C   0  0  0  0  0  0  0  0  0  0  0  0
   46.4493    8.0404   18.8815 N   0  0  0  0  0  0  0  0  0  0  0  0
   47.1593    8.6139   17.7516 C   0  0  0  0  0  0  0  0  0  0  0  0
   46.7890   10.0780   17.5451 C   0  0  0  0  0  0  0  0  0  0  0  0
   45.3039   10.1313   17.1555 C   0  0  0  0  0  0  0  0  0  0  0  0
   44.8285   11.5099   16.9656 N   0  0  0  0  0  0  0  0  0  0  0  0
  1  2  1  0  0  0  0
  2  3  1  0  0  0  0
  3  4  1  0  0  0  0
  4  5  1  0  0  0  0
  5  6  1  0  0  0  0
  6  7  1  0  0  0  0
  7  8  1  0  0  0  0
  8  9  1  0  0  0  0
  9 10  1  0  0  0  0
 10 11  1  0  0  0  0
 11 12  1  0  0  0  0
 12 13  1  0  0  0  0
 13 14  1  0  0  0  0
M  END
>  <CHROM.1>
-174.73958038,67.67338530,104.89532721,125.65113633,-177.86763357,-66.42877199
179.76760224,-170.89752941,173.49605039,-65.18622743,178.47816747,45.78564770
5.16568005,18.03694284,1.90590566,1.33095236,2.86426251

>  <Name>
ligand

>  <RI>
0

>  <Rbt.Current_Directory>
/home/itssahil/PROJECTS/Mol_Feturizer/New_Systems/rnas/1TN2

>  <Rbt.Executable>
rbdock ($Id: //depot/dev/client3/rdock/2013.1/src/exe/rbdock.cxx#4 $)

>  <Rbt.Library>
libRbt.so (2013.1, Build901 2013/11/27)

>  <Rbt.Parameter_File>
/export/apps/rDock/src/rDock_2013.1_src/data/scripts/dock_solv.prm

>  <Rbt.Receptor>
prm/pocket_docking_2.prm

>  <SCORE>
-6.33214

>  <SCORE.INTER>
-3.96451

>  <SCORE.INTER.CONST>
1

>  <SCORE.INTER.POLAR>
0

>  <SCORE.INTER.ROT>
11

>  <SCORE.INTER.SOLV>
12.4207

>  <SCORE.INTER.VDW>
-17.7166

>  <SCORE.INTER.norm>
-0.283179

>  <SCORE.INTRA>
-2.3693

>  <SCORE.INTRA.DIHEDRAL>
-4.87481

>  <SCORE.INTRA.DIHEDRAL.0>
7.79482

>  <SCORE.INTRA.POLAR>
0

>  <SCORE.INTRA.POLAR.0>
0

>  <SCORE.INTRA.REPUL>
0

>  <SCORE.INTRA.REPUL.0>
0

>  <SCORE.INTRA.SOLV>
0.822973

>  <SCORE.INTRA.SOLV.lig_0>
-49.456

>  <SCORE.INTRA.VDW>
-0.343378

>  <SCORE.INTRA.VDW.0>
-0.478406

>  <SCORE.INTRA.norm>
-0.169235

>  <SCORE.RESTR>
0.00166787

>  <SCORE.RESTR.CAVITY>
0.00166787

>  <SCORE.RESTR.norm>
0.000119134

>  <SCORE.SYSTEM>
0

>  <SCORE.SYSTEM.CONST>
0

>  <SCORE.SYSTEM.DIHEDRAL>
0

>  <SCORE.SYSTEM.SOLV>
0

>  <SCORE.SYSTEM.norm>
0

>  <SCORE.heavy>
14

>  <SCORE.norm>
-0.452295

>  <RMSD>
1.849

$$$$
ligand
 OpenBabel11021811413D
libRbt.so/2013.1/901 2013/11/27
 14 13  0  0  0  0  0  0  0  0999 V2000
   42.2419   11.5055   18.1933 N   0  0  0  0  0  0  0  0  0  0  0  0
   41.7505   10.1720   18.6026 C   0  0  0  0  0  0  0  0  0  0  0  0
   42.7358    9.4886   19.5753 C   0  0  0  0  0  0  0  0  0  0  0  0
   44.1250    9.2018   18.9822 C   0  0  0  0  0  0  0  0  0  0  0  0
   45.0560    8.6900   20.0251 N   0  0  0  0  0  0  0  0  0  0  0  0
   46.2051    7.9943   19.3908 C   0  0  0  0  0  0  0  0  0  0  0  0
   46.0102    6.4619   19.1336 C   0  0  0  0  0  0  0  0  0  0  0  0
   45.7150    5.6349   20.4179 C   0  0  0  0  0  0  0  0  0  0  0  0
   45.1247    4.2651   20.1458 C   0  0  0  0  0  0  0  0  0  0  0  0
   46.0402    3.5583   19.2701 N   0  0  0  0  0  0  0  0  0  0  0  0
   45.3508    2.3440   18.8702 C   0  0  0  0  0  0  0  0  0  0  0  0
   45.9556    1.7508   17.6031 C   0  0  0  0  0  0  0  0  0  0  0  0
   45.0808    0.5596   17.1841 C   0  0  0  0  0  0  0  0  0  0  0  0
   45.5504   -0.0632   15.9374 N   0  0  0  0  0  0  0  0  0  0  0  0
  1  2  1  0  0  0  0
  2  3  1  0  0  0  0
  3  4  1  0  0  0  0
  4  5  1  0  0  0  0
  5  6  1  0  0  0  0
  6  7  1  0  0  0  0
  7  8  1  0  0  0  0
  8  9  1  0  0  0  0
  9 10  1  0  0  0  0
 10 11  1  0  0  0  0
 11 12  1  0  0  0  0
 12 13  1  0  0  0  0
 13 14  1  0  0  0  0
M  END
>  <CHROM.1>
-62.67390883,173.45500607,160.76216740,-89.60490014,-58.78007200,162.64169841
56.40161633,-171.50304586,160.09573872,-174.50892159,178.02117353,44.78159279
5.82594232,18.80957983,1.92742535,-0.71974388,0.40291117

>  <Name>
ligand

>  <RI>
0

>  <Rbt.Current_Directory>
/home/itssahil/PROJECTS/Mol_Feturizer/New_Systems/rnas/1TN2

>  <Rbt.Executable>
rbdock ($Id: //depot/dev/client3/rdock/2013.1/src/exe/rbdock.cxx#4 $)

>  <Rbt.Library>
libRbt.so (2013.1, Build901 2013/11/27)

>  <Rbt.Parameter_File>
/export/apps/rDock/src/rDock_2013.1_src/data/scripts/dock_solv.prm

>  <Rbt.Receptor>
prm/pocket_docking_3.prm

>  <SCORE>
-10.5685

>  <SCORE.INTER>
-8.24818

>  <SCORE.INTER.CONST>
1

>  <SCORE.INTER.POLAR>
0

>  <SCORE.INTER.ROT>
11

>  <SCORE.INTER.SOLV>
15.8064

>  <SCORE.INTER.VDW>
-21.7009

>  <SCORE.INTER.norm>
-0.589156

>  <SCORE.INTRA>
-2.32035

>  <SCORE.INTRA.DIHEDRAL>
-5.02263

>  <SCORE.INTRA.DIHEDRAL.0>
7.79482

>  <SCORE.INTRA.POLAR>
0

>  <SCORE.INTRA.POLAR.0>
0

>  <SCORE.INTRA.REPUL>
0

>  <SCORE.INTRA.REPUL.0>
0

>  <SCORE.INTRA.SOLV>
1.48038

>  <SCORE.INTRA.SOLV.lig_0>
-49.456

>  <SCORE.INTRA.VDW>
-0.549229

>  <SCORE.INTRA.VDW.0>
-0.478406

>  <SCORE.INTRA.norm>
-0.165739

>  <SCORE.RESTR>
0

>  <SCORE.RESTR.CAVITY>
0

>  <SCORE.RESTR.norm>
0

>  <SCORE.SYSTEM>
0

>  <SCORE.SYSTEM.CONST>
0

>  <SCORE.SYSTEM.DIHEDRAL>
0

>  <SCORE.SYSTEM.SOLV>
0

>  <SCORE.SYSTEM.norm>
0

>  <SCORE.heavy>
14

>  <SCORE.norm>
-0.754895

>  <RMSD>
1.874

$$$$
ligand
 OpenBabel11021811413D
libRbt.so/2013.1/901 2013/11/27
 14 13  0  0  0  0  0  0  0  0999 V2000
   43.6682   11.7152   15.7833 N   0  0  0  0  0  0  0  0  0  0  0  0
   44.1879   12.3025   17.0371 C   0  0  0  0  0  0  0  0  0  0  0  0
   45.2224   11.3697   17.7034 C   0  0  0  0  0  0  0  0  0  0  0  0
   44.6673   10.0016   18.1327 C   0  0  0  0  0  0  0  0  0  0  0  0
   45.7381    9.1513   18.7216 N   0  0  0  0  0  0  0  0  0  0  0  0
   45.1407    7.9876   19.4256 C   0  0  0  0  0  0  0  0  0  0  0  0
   46.1534    7.0560   20.1730 C   0  0  0  0  0  0  0  0  0  0  0  0
   45.4832    5.9056   20.9778 C   0  0  0  0  0  0  0  0  0  0  0  0
   44.9076    4.8024   20.1115 C   0  0  0  0  0  0  0  0  0  0  0  0
   46.0198    4.0744   19.5306 N   0  0  0  0  0  0  0  0  0  0  0  0
   45.4319    2.9602   18.8076 C   0  0  0  0  0  0  0  0  0  0  0  0
   46.4825    1.9203   18.4357 C   0  0  0  0  0  0  0  0  0  0  0  0
   45.7804    0.8193   17.6265 C   0  0  0  0  0  0  0  0  0  0  0  0
   45.3363    1.2962   16.3082 N   0  0  0  0  0  0  0  0  0  0  0  0
  1  2  1  0  0  0  0
  2  3  1  0  0  0  0
  3  4  1  0  0  0  0
  4  5  1  0  0  0  0
  5  6  1  0  0  0  0
  6  7  1  0  0  0  0
  7  8  1  0  0  0  0
  8  9  1  0  0  0  0
  9 10  1  0  0  0  0
 10 11  1  0  0  0  0
 11 12  1  0  0  0  0
 12 13  1  0  0  0  0
 13 14  1  0  0  0  0
M  END
>  <CHROM.1>
-62.31900266,178.07255281,166.17972517,-176.21990207,176.03640227,72.48043715
70.60199077,175.09682598,-165.94586302,-177.57087953,68.39877599,45.30144443
6.52587185,18.48425648,2.12759124,-1.32422928,0.45050749

>  <Name>
ligand

>  <RI>
0

>  <Rbt.Current_Directory>
/home/itssahil/PROJECTS/Mol_Feturizer/New_Systems/rnas/1TN2

>  <Rbt.Executable>
rbdock ($Id: //depot/dev/client3/rdock/2013.1/src/exe/rbdock.cxx#4 $)

>  <Rbt.Library>
libRbt.so (2013.1, Build901 2013/11/27)

>  <Rbt.Parameter_File>
/export/apps/rDock/src/rDock_2013.1_src/data/scripts/dock_solv.prm

>  <Rbt.Receptor>
prm/pocket_docking_3.prm

>  <SCORE>
-6.88089

>  <SCORE.INTER>
-4.40326

>  <SCORE.INTER.CONST>
1

>  <SCORE.INTER.POLAR>
0

>  <SCORE.INTER.ROT>
11

>  <SCORE.INTER.SOLV>
12.1357

>  <SCORE.INTER.VDW>
-17.9141

>  <SCORE.INTER.norm>
-0.314519

>  <SCORE.INTRA>
-2.48084

>  <SCORE.INTRA.DIHEDRAL>
-6.03447

>  <SCORE.INTRA.DIHEDRAL.0>
7.79482

>  <SCORE.INTRA.POLAR>
0

>  <SCORE.INTRA.POLAR.0>
0

>  <SCORE.INTRA.REPUL>
0

>  <SCORE.INTRA.REPUL.0>
0

>  <SCORE.INTRA.SOLV>
1.95848

>  <SCORE.INTRA.SOLV.lig_0>
-49.456

>  <SCORE.INTRA.VDW>
-0.442847

>  <SCORE.INTRA.VDW.0>
-0.478406

>  <SCORE.INTRA.norm>
-0.177203

>  <SCORE.RESTR>
0.00321475

>  <SCORE.RESTR.CAVITY>
0.00321475

>  <SCORE.RESTR.norm>
0.000229625

>  <SCORE.SYSTEM>
0

>  <SCORE.SYSTEM.CONST>
0

>  <SCORE.SYSTEM.DIHEDRAL>
0

>  <SCORE.SYSTEM.SOLV>
0

>  <SCORE.SYSTEM.norm>
0

>  <SCORE.heavy>
14

>  <SCORE.norm>
-0.491492

>  <RMSD>
1.888

$$$$
ligand
 OpenBabel11021811413D
libRbt.so/2013.1/901 2013/11/27
 14 13  0  0  0  0  0  0  0  0999 V2000
   45.4532   11.5409   18.4790 N   0  0  0  0  0  0  0  0  0  0  0  0
   44.7640   10.2504   18.2631 C   0  0  0  0  0  0  0  0  0  0  0  0
   45.7540    9.1594   17.8010 C   0  0  0  0  0  0  0  0  0  0  0  0
   46.7856    8.7408   18.8616 C   0  0  0  0  0  0  0  0  0  0  0  0
   47.5875    7.5759   18.3965 N   0  0  0  0  0  0  0  0  0  0  0  0
   46.7272    6.3693   18.2919 C   0  0  0  0  0  0  0  0  0  0  0  0
   46.3068    5.7180   19.6525 C   0  0  0  0  0  0  0  0  0  0  0  0
   45.4247    4.4453   19.5017 C   0  0  0  0  0  0  0  0  0  0  0  0
   46.1024    3.3114   18.7574 C   0  0  0  0  0  0  0  0  0  0  0  0
   45.1590    2.2123   18.6780 N   0  0  0  0  0  0  0  0  0  0  0  0
   45.8406    1.1545   17.9526 C   0  0  0  0  0  0  0  0  0  0  0  0
   44.8495    0.2013   17.2948 C   0  0  0  0  0  0  0  0  0  0  0  0
   45.6574   -0.9268   16.6355 C   0  0  0  0  0  0  0  0  0  0  0  0
   46.3194   -0.4862   15.3984 N   0  0  0  0  0  0  0  0  0  0  0  0
  1  2  1  0  0  0  0
  2  3  1  0  0  0  0
  3  4  1  0  0  0  0
  4  5  1  0  0  0  0
  5  6  1  0  0  0  0
  6  7  1  0  0  0  0
  7  8  1  0  0  0  0
  8  9  1  0  0  0  0
  9 10  1  0  0  0  0
 10 11  1  0  0  0  0
 11 12  1  0  0  0  0
 12 13  1  0  0  0  0
 13 14  1  0  0  0  0
M  END
>  <CHROM.1>
67.37318189,173.01282658,-67.15758786,-73.53170611,-179.12537724,61.26180804
-179.11233415,179.59785942,-156.36717100,-176.31734423,-74.80837473,45.90929155
4.94749952,18.14043772,-0.88862518,-1.52750471,-2.31294444

>  <Name>
ligand

>  <RI>
0

>  <Rbt.Current_Directory>
/home/itssahil/PROJECTS/Mol_Feturizer/New_Systems/rnas/1TN2

>  <Rbt.Executable>
rbdock ($Id: //depot/dev/client3/rdock/2013.1/src/exe/rbdock.cxx#4 $)

>  <Rbt.Library>
libRbt.so (2013.1, Build901 2013/11/27)

>  <Rbt.Parameter_File>
/export/apps/rDock/src/rDock_2013.1_src/data/scripts/dock_solv.prm

>  <Rbt.Receptor>
prm/pocket_docking_2.prm

>  <SCORE>
-3.66052

>  <SCORE.INTER>
-2.35069

>  <SCORE.INTER.CONST>
1

>  <SCORE.INTER.POLAR>
0

>  <SCORE.INTER.ROT>
11

>  <SCORE.INTER.SOLV>
14.1768

>  <SCORE.INTER.VDW>
-17.2261

>  <SCORE.INTER.norm>
-0.167907

>  <SCORE.INTRA>
-1.34233

>  <SCORE.INTRA.DIHEDRAL>
-5.96659

>  <SCORE.INTRA.DIHEDRAL.0>
7.79482

>  <SCORE.INTRA.POLAR>
0

>  <SCORE.INTRA.POLAR.0>
0

>  <SCORE.INTRA.REPUL>
0

>  <SCORE.INTRA.REPUL.0>
0

>  <SCORE.INTRA.SOLV>
1.38939

>  <SCORE.INTRA.SOLV.lig_0>
-49.456

>  <SCORE.INTRA.VDW>
0.946273

>  <SCORE.INTRA.VDW.0>
-0.478406

>  <SCORE.INTRA.norm>
-0.0958805

>  <SCORE.RESTR>
0.0325039

>  <SCORE.RESTR.CAVITY>
0.0325039

>  <SCORE.RESTR.norm>
0.0023217

>  <SCORE.SYSTEM>
0

>  <SCORE.SYSTEM.CONST>
0

>  <SCORE.SYSTEM.DIHEDRAL>
0

>  <SCORE.SYSTEM.SOLV>
0

>  <SCORE.SYSTEM.norm>
0

>  <SCORE.heavy>
14

>  <SCORE.norm>
-0.261465

>  <RMSD>
1.889

$$$$
ligand
 OpenBabel11021811413D
libRbt.so/2013.1/901 2013/11/27
 14 13  0  0  0  0  0  0  0  0999 V2000
   41.7905   12.7524   17.3860 N   0  0  0  0  0  0  0  0  0  0  0  0
   42.9088   11.8549   17.0242 C   0  0  0  0  0  0  0  0  0  0  0  0
   43.3257   10.9726   18.2208 C   0  0  0  0  0  0  0  0  0  0  0  0
   44.6002   10.1438   17.9912 C   0  0  0  0  0  0  0  0  0  0  0  0
   44.9656    9.3758   19.2132 N   0  0  0  0  0  0  0  0  0  0  0  0
   46.1638    8.5371   18.9533 C   0  0  0  0  0  0  0  0  0  0  0  0
   46.4159    7.3809   19.9789 C   0  0  0  0  0  0  0  0  0  0  0  0
   45.2143    6.4069   20.1458 C   0  0  0  0  0  0  0  0  0  0  0  0
   45.5611    5.1197   20.8682 C   0  0  0  0  0  0  0  0  0  0  0  0
   46.3947    4.3295   19.9823 N   0  0  0  0  0  0  0  0  0  0  0  0
   45.4898    3.4486   19.2648 C   0  0  0  0  0  0  0  0  0  0  0  0
   46.2430    2.5446   18.2958 C   0  0  0  0  0  0  0  0  0  0  0  0
   45.2005    1.7342   17.5106 C   0  0  0  0  0  0  0  0  0  0  0  0
   45.8185    0.8784   16.4867 N   0  0  0  0  0  0  0  0  0  0  0  0
  1  2  1  0  0  0  0
  2  3  1  0  0  0  0
  3  4  1  0  0  0  0
  4  5  1  0  0  0  0
  5  6  1  0  0  0  0
  6  7  1  0  0  0  0
  7  8  1  0  0  0  0
  8  9  1  0  0  0  0
  9 10  1  0  0  0  0
 10 11  1  0  0  0  0
 11 12  1  0  0  0  0
 12 13  1  0  0  0  0
 13 14  1  0  0  0  0
M  END
>  <CHROM.1>
-172.26074034,177.25985891,177.54770559,-162.84141458,55.63407356,166.13025007
-70.45855378,-93.37651963,-179.56583350,-175.65935373,176.74209268,45.00670961
6.81996351,18.66601337,2.08987711,-0.99174347,0.39412961

>  <Name>
ligand

>  <RI>
0

>  <Rbt.Current_Directory>
/home/itssahil/PROJECTS/Mol_Feturizer/New_Systems/rnas/1TN2

>  <Rbt.Executable>
rbdock ($Id: //depot/dev/client3/rdock/2013.1/src/exe/rbdock.cxx#4 $)

>  <Rbt.Library>
libRbt.so (2013.1, Build901 2013/11/27)

>  <Rbt.Parameter_File>
/export/apps/rDock/src/rDock_2013.1_src/data/scripts/dock_solv.prm

>  <Rbt.Receptor>
prm/pocket_docking_6.prm

>  <SCORE>
-8.4687

>  <SCORE.INTER>
-5.88676

>  <SCORE.INTER.CONST>
1

>  <SCORE.INTER.POLAR>
0

>  <SCORE.INTER.ROT>
11

>  <SCORE.INTER.SOLV>
15.5421

>  <SCORE.INTER.VDW>
-20.0385

>  <SCORE.INTER.norm>
-0.420483

>  <SCORE.INTRA>
-2.58194

>  <SCORE.INTRA.DIHEDRAL>
-5.24753

>  <SCORE.INTRA.DIHEDRAL.0>
7.79482

>  <SCORE.INTRA.POLAR>
0

>  <SCORE.INTRA.POLAR.0>
0

>  <SCORE.INTRA.REPUL>
0

>  <SCORE.INTRA.REPUL.0>
0

>  <SCORE.INTRA.SOLV>
0.697771

>  <SCORE.INTRA.SOLV.lig_0>
-49.456

>  <SCORE.INTRA.VDW>
-0.307063

>  <SCORE.INTRA.VDW.0>
-0.478406

>  <SCORE.INTRA.norm>
-0.184425

>  <SCORE.RESTR>
0

>  <SCORE.RESTR.CAVITY>
0

>  <SCORE.RESTR.norm>
0

>  <SCORE.SYSTEM>
0

>  <SCORE.SYSTEM.CONST>
0

>  <SCORE.SYSTEM.DIHEDRAL>
0

>  <SCORE.SYSTEM.SOLV>
0

>  <SCORE.SYSTEM.norm>
0

>  <SCORE.heavy>
14

>  <SCORE.norm>
-0.604907

>  <RMSD>
1.889

$$$$
ligand
 OpenBabel11021811413D
libRbt.so/2013.1/901 2013/11/27
 14 13  0  0  0  0  0  0  0  0999 V2000
   45.8687    0.3114   15.1030 N   0  0  0  0  0  0  0  0  0  0  0  0
   45.5844    1.3108   16.1554 C   0  0  0  0  0  0  0  0  0  0  0  0
   45.5089    0.6486   17.5481 C   0  0  0  0  0  0  0  0  0  0  0  0
   45.0825    1.5935   18.6836 C   0  0  0  0  0  0  0  0  0  0  0  0
   46.0612    2.7027   18.8516 N   0  0  0  0  0  0  0  0  0  0  0  0
   45.4013    3.8799   19.4726 C   0  0  0  0  0  0  0  0  0  0  0  0
   46.2850    5.1673   19.5902 C   0  0  0  0  0  0  0  0  0  0  0  0
   45.5005    6.4388   20.0239 C   0  0  0  0  0  0  0  0  0  0  0  0
   46.3105    7.7181   19.9464 C   0  0  0  0  0  0  0  0  0  0  0  0
   45.3849    8.8308   20.0442 N   0  0  0  0  0  0  0  0  0  0  0  0
   45.0232    9.1689   18.6787 C   0  0  0  0  0  0  0  0  0  0  0  0
   43.8463   10.1366   18.6368 C   0  0  0  0  0  0  0  0  0  0  0  0
   42.6319    9.4179   19.2441 C   0  0  0  0  0  0  0  0  0  0  0  0
   41.4216   10.2529   19.2172 N   0  0  0  0  0  0  0  0  0  0  0  0
  1  2  1  0  0  0  0
  2  3  1  0  0  0  0
  3  4  1  0  0  0  0
  4  5  1  0  0  0  0
  5  6  1  0  0  0  0
  6  7  1  0  0  0  0
  7  8  1  0  0  0  0
  8  9  1  0  0  0  0
  9 10  1  0  0  0  0
 10 11  1  0  0  0  0
 11 12  1  0  0  0  0
 12 13  1  0  0  0  0
 13 14  1  0  0  0  0
M  END
>  <CHROM.1>
-174.36704507,-61.93415421,155.16026288,-174.72436843,170.43182019,-171.74160768
165.83874458,-91.77853559,168.64162609,-63.60230415,-178.30631125,44.99375856
5.54130480,18.65700599,1.27878518,0.70230800,-2.69268657

>  <Name>
ligand

>  <RI>
0

>  <Rbt.Current_Directory>
/home/itssahil/PROJECTS/Mol_Feturizer/New_Systems/rnas/1TN2

>  <Rbt.Executable>
rbdock ($Id: //depot/dev/client3/rdock/2013.1/src/exe/rbdock.cxx#4 $)

>  <Rbt.Library>
libRbt.so (2013.1, Build901 2013/11/27)

>  <Rbt.Parameter_File>
/export/apps/rDock/src/rDock_2013.1_src/data/scripts/dock_solv.prm

>  <Rbt.Receptor>
prm/pocket_docking_3.prm

>  <SCORE>
-8.53852

>  <SCORE.INTER>
-6.23637

>  <SCORE.INTER.CONST>
1

>  <SCORE.INTER.POLAR>
0

>  <SCORE.INTER.ROT>
11

>  <SCORE.INTER.SOLV>
17.7003

>  <SCORE.INTER.VDW>
-20.991

>  <SCORE.INTER.norm>
-0.445455

>  <SCORE.INTRA>
-2.30215

>  <SCORE.INTRA.DIHEDRAL>
-5.03488

>  <SCORE.INTRA.DIHEDRAL.0>
7.79482

>  <SCORE.INTRA.POLAR>
0

>  <SCORE.INTRA.POLAR.0>
0

>  <SCORE.INTRA.REPUL>
0

>  <SCORE.INTRA.REPUL.0>
0

>  <SCORE.INTRA.SOLV>
0.737165

>  <SCORE.INTRA.SOLV.lig_0>
-49.456

>  <SCORE.INTRA.VDW>
-0.153289

>  <SCORE.INTRA.VDW.0>
-0.478406

>  <SCORE.INTRA.norm>
-0.164439

>  <SCORE.RESTR>
0

>  <SCORE.RESTR.CAVITY>
0

>  <SCORE.RESTR.norm>
0

>  <SCORE.SYSTEM>
0

>  <SCORE.SYSTEM.CONST>
0

>  <SCORE.SYSTEM.DIHEDRAL>
0

>  <SCORE.SYSTEM.SOLV>
0

>  <SCORE.SYSTEM.norm>
0

>  <SCORE.heavy>
14

>  <SCORE.norm>
-0.609894

>  <RMSD>
1.917

$$$$
ligand
 OpenBabel11021811413D
libRbt.so/2013.1/901 2013/11/27
 14 13  0  0  0  0  0  0  0  0999 V2000
   44.6472   11.4813   17.8930 N   0  0  0  0  0  0  0  0  0  0  0  0
   45.2881   10.5364   16.9530 C   0  0  0  0  0  0  0  0  0  0  0  0
   45.7042    9.2331   17.6689 C   0  0  0  0  0  0  0  0  0  0  0  0
   46.7393    9.4213   18.7901 C   0  0  0  0  0  0  0  0  0  0  0  0
   47.1752    8.1087   19.3408 N   0  0  0  0  0  0  0  0  0  0  0  0
   46.2764    7.6924   20.4479 C   0  0  0  0  0  0  0  0  0  0  0  0
   45.3506    6.4667   20.1434 C   0  0  0  0  0  0  0  0  0  0  0  0
   46.1204    5.1603   19.7954 C   0  0  0  0  0  0  0  0  0  0  0  0
   45.2212    3.9720   19.5155 C   0  0  0  0  0  0  0  0  0  0  0  0
   46.0595    2.8904   19.0341 N   0  0  0  0  0  0  0  0  0  0  0  0
   45.1747    1.7537   18.8481 C   0  0  0  0  0  0  0  0  0  0  0  0
   45.6551    0.8523   17.7167 C   0  0  0  0  0  0  0  0  0  0  0  0
   45.5644    1.6568   16.4111 C   0  0  0  0  0  0  0  0  0  0  0  0
   45.9598    0.8608   15.2395 N   0  0  0  0  0  0  0  0  0  0  0  0
  1  2  1  0  0  0  0
  2  3  1  0  0  0  0
  3  4  1  0  0  0  0
  4  5  1  0  0  0  0
  5  6  1  0  0  0  0
  6  7  1  0  0  0  0
  7  8  1  0  0  0  0
  8  9  1  0  0  0  0
  9 10  1  0  0  0  0
 10 11  1  0  0  0  0
 11 12  1  0  0  0  0
 12 13  1  0  0  0  0
 13 14  1  0  0  0  0
M  END
>  <CHROM.1>
-61.82170447,-174.83529763,-88.54807438,110.45624537,60.35436367,179.38742890
172.40165393,176.98291312,149.23985860,-64.94224262,-177.87100293,45.78106904
5.72040746,18.41433134,1.49592770,-1.44301389,0.03462197

>  <Name>
ligand

>  <RI>
0

>  <Rbt.Current_Directory>
/home/itssahil/PROJECTS/Mol_Feturizer/New_Systems/rnas/1TN2

>  <Rbt.Executable>
rbdock ($Id: //depot/dev/client3/rdock/2013.1/src/exe/rbdock.cxx#4 $)

>  <Rbt.Library>
libRbt.so (2013.1, Build901 2013/11/27)

>  <Rbt.Parameter_File>
/export/apps/rDock/src/rDock_2013.1_src/data/scripts/dock_solv.prm

>  <Rbt.Receptor>
prm/pocket_docking_5.prm

>  <SCORE>
-7.71965

>  <SCORE.INTER>
-5.3786

>  <SCORE.INTER.CONST>
1

>  <SCORE.INTER.POLAR>
0

>  <SCORE.INTER.ROT>
11

>  <SCORE.INTER.SOLV>
11.8341

>  <SCORE.INTER.VDW>
-18.4638

>  <SCORE.INTER.norm>
-0.384186

>  <SCORE.INTRA>
-2.34105

>  <SCORE.INTRA.DIHEDRAL>
-5.04292

>  <SCORE.INTRA.DIHEDRAL.0>
7.79482

>  <SCORE.INTRA.POLAR>
0

>  <SCORE.INTRA.POLAR.0>
0

>  <SCORE.INTRA.REPUL>
0

>  <SCORE.INTRA.REPUL.0>
0

>  <SCORE.INTRA.SOLV>
1.41991

>  <SCORE.INTRA.SOLV.lig_0>
-49.456

>  <SCORE.INTRA.VDW>
-0.52955

>  <SCORE.INTRA.VDW.0>
-0.478406

>  <SCORE.INTRA.norm>
-0.167218

>  <SCORE.RESTR>
0

>  <SCORE.RESTR.CAVITY>
0

>  <SCORE.RESTR.norm>
0

>  <SCORE.SYSTEM>
0

>  <SCORE.SYSTEM.CONST>
0

>  <SCORE.SYSTEM.DIHEDRAL>
0

>  <SCORE.SYSTEM.SOLV>
0

>  <SCORE.SYSTEM.norm>
0

>  <SCORE.heavy>
14

>  <SCORE.norm>
-0.551404

>  <RMSD>
1.919

$$$$
ligand
 OpenBabel11021811413D
libRbt.so/2013.1/901 2013/11/27
 14 13  0  0  0  0  0  0  0  0999 V2000
   45.6525    1.4745   16.2961 N   0  0  0  0  0  0  0  0  0  0  0  0
   45.6081    0.9275   17.6694 C   0  0  0  0  0  0  0  0  0  0  0  0
   46.4172    1.8072   18.6469 C   0  0  0  0  0  0  0  0  0  0  0  0
   45.8643    3.2294   18.8354 C   0  0  0  0  0  0  0  0  0  0  0  0
   46.6773    3.9925   19.8219 N   0  0  0  0  0  0  0  0  0  0  0  0
   45.8743    5.0992   20.4025 C   0  0  0  0  0  0  0  0  0  0  0  0
   46.0538    6.4965   19.7187 C   0  0  0  0  0  0  0  0  0  0  0  0
   45.2400    7.6407   20.3888 C   0  0  0  0  0  0  0  0  0  0  0  0
   45.4790    9.0066   19.7757 C   0  0  0  0  0  0  0  0  0  0  0  0
   44.9803    8.9704   18.4139 N   0  0  0  0  0  0  0  0  0  0  0  0
   46.0135    9.5803   17.5953 C   0  0  0  0  0  0  0  0  0  0  0  0
   45.4193   10.2880   16.3831 C   0  0  0  0  0  0  0  0  0  0  0  0
   44.6236   11.4981   16.8953 C   0  0  0  0  0  0  0  0  0  0  0  0
   44.0589   12.2968   15.7971 N   0  0  0  0  0  0  0  0  0  0  0  0
  1  2  1  0  0  0  0
  2  3  1  0  0  0  0
  3  4  1  0  0  0  0
  4  5  1  0  0  0  0
  5  6  1  0  0  0  0
  6  7  1  0  0  0  0
  7  8  1  0  0  0  0
  8  9  1  0  0  0  0
  9 10  1  0  0  0  0
 10 11  1  0  0  0  0
 11 12  1  0  0  0  0
 12 13  1  0  0  0  0
 13 14  1  0  0  0  0
M  END
>  <CHROM.1>
64.27930120,178.26558510,-157.19288008,-95.51117952,-177.72974195,176.58839014
65.16486674,-133.88265714,-149.18845208,67.72503555,177.14185456,45.56882699
6.59336165,18.33174347,0.89425228,1.36979866,-2.60716937

>  <Name>
ligand

>  <RI>
0

>  <Rbt.Current_Directory>
/home/itssahil/PROJECTS/Mol_Feturizer/New_Systems/rnas/1TN2

>  <Rbt.Executable>
rbdock ($Id: //depot/dev/client3/rdock/2013.1/src/exe/rbdock.cxx#4 $)

>  <Rbt.Library>
libRbt.so (2013.1, Build901 2013/11/27)

>  <Rbt.Parameter_File>
/export/apps/rDock/src/rDock_2013.1_src/data/scripts/dock_solv.prm

>  <Rbt.Receptor>
prm/pocket_docking_4.prm

>  <SCORE>
-7.48629

>  <SCORE.INTER>
-5.42988

>  <SCORE.INTER.CONST>
1

>  <SCORE.INTER.POLAR>
0

>  <SCORE.INTER.ROT>
11

>  <SCORE.INTER.SOLV>
12.7767

>  <SCORE.INTER.VDW>
-18.8122

>  <SCORE.INTER.norm>
-0.387848

>  <SCORE.INTRA>
-2.05641

>  <SCORE.INTRA.DIHEDRAL>
-4.4685

>  <SCORE.INTRA.DIHEDRAL.0>
7.79482

>  <SCORE.INTRA.POLAR>
0

>  <SCORE.INTRA.POLAR.0>
0

>  <SCORE.INTRA.REPUL>
0

>  <SCORE.INTRA.REPUL.0>
0

>  <SCORE.INTRA.SOLV>
1.38702

>  <SCORE.INTRA.SOLV.lig_0>
-49.456

>  <SCORE.INTRA.VDW>
-0.515671

>  <SCORE.INTRA.VDW.0>
-0.478406

>  <SCORE.INTRA.norm>
-0.146886

>  <SCORE.RESTR>
0

>  <SCORE.RESTR.CAVITY>
0

>  <SCORE.RESTR.norm>
0

>  <SCORE.SYSTEM>
0

>  <SCORE.SYSTEM.CONST>
0

>  <SCORE.SYSTEM.DIHEDRAL>
0

>  <SCORE.SYSTEM.SOLV>
0

>  <SCORE.SYSTEM.norm>
0

>  <SCORE.heavy>
14

>  <SCORE.norm>
-0.534735

>  <RMSD>
1.973

$$$$
ligand
 OpenBabel11021811413D
libRbt.so/2013.1/901 2013/11/27
 14 13  0  0  0  0  0  0  0  0999 V2000
   45.6253    0.6488   15.4848 N   0  0  0  0  0  0  0  0  0  0  0  0
   45.2055    0.1556   16.8143 C   0  0  0  0  0  0  0  0  0  0  0  0
   45.9083    0.9358   17.9463 C   0  0  0  0  0  0  0  0  0  0  0  0
   45.5870    2.4389   17.9826 C   0  0  0  0  0  0  0  0  0  0  0  0
   46.2636    3.1024   19.1308 N   0  0  0  0  0  0  0  0  0  0  0  0
   45.9232    4.5481   19.1616 C   0  0  0  0  0  0  0  0  0  0  0  0
   45.7992    5.1839   20.5872 C   0  0  0  0  0  0  0  0  0  0  0  0
   45.4117    6.6906   20.5792 C   0  0  0  0  0  0  0  0  0  0  0  0
   46.5147    7.6072   20.0871 C   0  0  0  0  0  0  0  0  0  0  0  0
   46.0011    8.9637   20.1088 N   0  0  0  0  0  0  0  0  0  0  0  0
   46.5495    9.6157   18.9324 C   0  0  0  0  0  0  0  0  0  0  0  0
   45.5576   10.6033   18.3289 C   0  0  0  0  0  0  0  0  0  0  0  0
   46.1527   11.1101   17.0064 C   0  0  0  0  0  0  0  0  0  0  0  0
   45.2759   12.0847   16.3400 N   0  0  0  0  0  0  0  0  0  0  0  0
  1  2  1  0  0  0  0
  2  3  1  0  0  0  0
  3  4  1  0  0  0  0
  4  5  1  0  0  0  0
  5  6  1  0  0  0  0
  6  7  1  0  0  0  0
  7  8  1  0  0  0  0
  8  9  1  0  0  0  0
  9 10  1  0  0  0  0
 10 11  1  0  0  0  0
 11 12  1  0  0  0  0
 12 13  1  0  0  0  0
 13 14  1  0  0  0  0
M  END
>  <CHROM.1>
62.16293614,177.89216264,-179.07387532,145.54098616,-178.74253230,-70.87297857
178.79697331,-142.36632518,144.65701896,-173.23757861,-179.53330893,45.84111637
5.97768818,18.46388827,1.79183574,1.46572125,3.00093484

>  <Name>
ligand

>  <RI>
0

>  <Rbt.Current_Directory>
/home/itssahil/PROJECTS/Mol_Feturizer/New_Systems/rnas/1TN2

>  <Rbt.Executable>
rbdock ($Id: //depot/dev/client3/rdock/2013.1/src/exe/rbdock.cxx#4 $)

>  <Rbt.Library>
libRbt.so (2013.1, Build901 2013/11/27)

>  <Rbt.Parameter_File>
/export/apps/rDock/src/rDock_2013.1_src/data/scripts/dock_solv.prm

>  <Rbt.Receptor>
prm/pocket_docking_3.prm

>  <SCORE>
-9.12423

>  <SCORE.INTER>
-6.56617

>  <SCORE.INTER.CONST>
1

>  <SCORE.INTER.POLAR>
0

>  <SCORE.INTER.ROT>
11

>  <SCORE.INTER.SOLV>
10.9059

>  <SCORE.INTER.VDW>
-18.9461

>  <SCORE.INTER.norm>
-0.469012

>  <SCORE.INTRA>
-2.55874

>  <SCORE.INTRA.DIHEDRAL>
-4.75553

>  <SCORE.INTRA.DIHEDRAL.0>
7.79482

>  <SCORE.INTRA.POLAR>
0

>  <SCORE.INTRA.POLAR.0>
0

>  <SCORE.INTRA.REPUL>
0

>  <SCORE.INTRA.REPUL.0>
0

>  <SCORE.INTRA.SOLV>
0.74824

>  <SCORE.INTRA.SOLV.lig_0>
-49.456

>  <SCORE.INTRA.VDW>
-0.555089

>  <SCORE.INTRA.VDW.0>
-0.478406

>  <SCORE.INTRA.norm>
-0.182767

>  <SCORE.RESTR>
0.00068365

>  <SCORE.RESTR.CAVITY>
0.00068365

>  <SCORE.RESTR.norm>
4.88321e-05

>  <SCORE.SYSTEM>
0

>  <SCORE.SYSTEM.CONST>
0

>  <SCORE.SYSTEM.DIHEDRAL>
0

>  <SCORE.SYSTEM.SOLV>
0

>  <SCORE.SYSTEM.norm>
0

>  <SCORE.heavy>
14

>  <SCORE.norm>
-0.65173

>  <RMSD>
1.975

$$$$
ligand
 OpenBabel11021811413D
libRbt.so/2013.1/901 2013/11/27
 14 13  0  0  0  0  0  0  0  0999 V2000
   46.1137   11.4728   16.1567 N   0  0  0  0  0  0  0  0  0  0  0  0
   45.7772   10.3246   17.0259 C   0  0  0  0  0  0  0  0  0  0  0  0
   44.5375   10.6272   17.8951 C   0  0  0  0  0  0  0  0  0  0  0  0
   44.1633    9.5127   18.8860 C   0  0  0  0  0  0  0  0  0  0  0  0
   45.2174    9.3442   19.9238 N   0  0  0  0  0  0  0  0  0  0  0  0
   46.0130    8.1192   19.6532 C   0  0  0  0  0  0  0  0  0  0  0  0
   45.2831    6.7626   19.9338 C   0  0  0  0  0  0  0  0  0  0  0  0
   46.1221    5.5033   19.5723 C   0  0  0  0  0  0  0  0  0  0  0  0
   45.3694    4.1964   19.7286 C   0  0  0  0  0  0  0  0  0  0  0  0
   46.2269    3.1341   19.2380 N   0  0  0  0  0  0  0  0  0  0  0  0
   45.3615    2.2357   18.4941 C   0  0  0  0  0  0  0  0  0  0  0  0
   46.0821    0.9436   18.1274 C   0  0  0  0  0  0  0  0  0  0  0  0
   45.1773    0.1651   17.1603 C   0  0  0  0  0  0  0  0  0  0  0  0
   45.0919    0.8078   15.8404 N   0  0  0  0  0  0  0  0  0  0  0  0
  1  2  1  0  0  0  0
  2  3  1  0  0  0  0
  3  4  1  0  0  0  0
  4  5  1  0  0  0  0
  5  6  1  0  0  0  0
  6  7  1  0  0  0  0
  7  8  1  0  0  0  0
  8  9  1  0  0  0  0
  9 10  1  0  0  0  0
 10 11  1  0  0  0  0
 11 12  1  0  0  0  0
 12 13  1  0  0  0  0
 13 14  1  0  0  0  0
M  END
>  <CHROM.1>
-176.83002901,65.81606809,-104.95022903,-72.35741548,177.12284856,-174.85760684
174.62265913,-139.13663292,-169.95710794,-171.01053815,70.38498207,45.46682097
5.93913248,18.40278277,2.30557660,-1.53313029,0.76795988

>  <Name>
ligand

>  <RI>
0

>  <Rbt.Current_Directory>
/home/itssahil/PROJECTS/Mol_Feturizer/New_Systems/rnas/1TN2

>  <Rbt.Executable>
rbdock ($Id: //depot/dev/client3/rdock/2013.1/src/exe/rbdock.cxx#4 $)

>  <Rbt.Library>
libRbt.so (2013.1, Build901 2013/11/27)

>  <Rbt.Parameter_File>
/export/apps/rDock/src/rDock_2013.1_src/data/scripts/dock_solv.prm

>  <Rbt.Receptor>
prm/pocket_docking_4.prm

>  <SCORE>
-7.82308

>  <SCORE.INTER>
-5.80614

>  <SCORE.INTER.CONST>
1

>  <SCORE.INTER.POLAR>
0

>  <SCORE.INTER.ROT>
11

>  <SCORE.INTER.SOLV>
11.6807

>  <SCORE.INTER.VDW>
-18.6977

>  <SCORE.INTER.norm>
-0.414724

>  <SCORE.INTRA>
-2.01695

>  <SCORE.INTRA.DIHEDRAL>
-4.53284

>  <SCORE.INTRA.DIHEDRAL.0>
7.79482

>  <SCORE.INTRA.POLAR>
0

>  <SCORE.INTRA.POLAR.0>
0

>  <SCORE.INTRA.REPUL>
0

>  <SCORE.INTRA.REPUL.0>
0

>  <SCORE.INTRA.SOLV>
1.08143

>  <SCORE.INTRA.SOLV.lig_0>
-49.456

>  <SCORE.INTRA.VDW>
-0.29124

>  <SCORE.INTRA.VDW.0>
-0.478406

>  <SCORE.INTRA.norm>
-0.144068

>  <SCORE.RESTR>
0

>  <SCORE.RESTR.CAVITY>
0

>  <SCORE.RESTR.norm>
0

>  <SCORE.SYSTEM>
0

>  <SCORE.SYSTEM.CONST>
0

>  <SCORE.SYSTEM.DIHEDRAL>
0

>  <SCORE.SYSTEM.SOLV>
0

>  <SCORE.SYSTEM.norm>
0

>  <SCORE.heavy>
14

>  <SCORE.norm>
-0.558792

>  <RMSD>
1.996

$$$$
ligand
 OpenBabel11021811413D
libRbt.so/2013.1/901 2013/11/27
 14 13  0  0  0  0  0  0  0  0999 V2000
   44.7927    1.3388   16.5141 N   0  0  0  0  0  0  0  0  0  0  0  0
   45.6584    0.7420   17.5541 C   0  0  0  0  0  0  0  0  0  0  0  0
   45.7742    1.6692   18.7833 C   0  0  0  0  0  0  0  0  0  0  0  0
   46.2476    3.0971   18.4654 C   0  0  0  0  0  0  0  0  0  0  0  0
   46.5598    3.8468   19.7131 N   0  0  0  0  0  0  0  0  0  0  0  0
   45.3170    4.4159   20.2948 C   0  0  0  0  0  0  0  0  0  0  0  0
   45.0413    5.9209   19.9616 C   0  0  0  0  0  0  0  0  0  0  0  0
   46.1488    6.8944   20.4576 C   0  0  0  0  0  0  0  0  0  0  0  0
   45.8890    8.3483   20.1147 C   0  0  0  0  0  0  0  0  0  0  0  0
   45.9206    8.4713   18.6697 N   0  0  0  0  0  0  0  0  0  0  0  0
   45.3348    9.7657   18.3675 C   0  0  0  0  0  0  0  0  0  0  0  0
   46.4077   10.8134   18.0946 C   0  0  0  0  0  0  0  0  0  0  0  0
   45.6952   12.1395   17.7886 C   0  0  0  0  0  0  0  0  0  0  0  0
   44.9406   12.0866   16.5275 N   0  0  0  0  0  0  0  0  0  0  0  0
  1  2  1  0  0  0  0
  2  3  1  0  0  0  0
  3  4  1  0  0  0  0
  4  5  1  0  0  0  0
  5  6  1  0  0  0  0
  6  7  1  0  0  0  0
  7  8  1  0  0  0  0
  8  9  1  0  0  0  0
  9 10  1  0  0  0  0
 10 11  1  0  0  0  0
 11 12  1  0  0  0  0
 12 13  1  0  0  0  0
 13 14  1  0  0  0  0
M  END
>  <CHROM.1>
-54.66718395,-170.06239883,-82.99283176,-98.10855507,-60.33658519,179.11371896
-64.71610780,165.57004272,99.76182719,-179.93982105,-66.87437991,45.69490148
6.39640184,18.66508727,1.57127177,1.37680570,3.10718775

>  <Name>
ligand

>  <RI>
0

>  <Rbt.Current_Directory>
/home/itssahil/PROJECTS/Mol_Feturizer/New_Systems/rnas/1TN2

>  <Rbt.Executable>
rbdock ($Id: //depot/dev/client3/rdock/2013.1/src/exe/rbdock.cxx#4 $)

>  <Rbt.Library>
libRbt.so (2013.1, Build901 2013/11/27)

>  <Rbt.Parameter_File>
/export/apps/rDock/src/rDock_2013.1_src/data/scripts/dock_solv.prm

>  <Rbt.Receptor>
prm/pocket_docking_3.prm

>  <SCORE>
-5.88872

>  <SCORE.INTER>
-4.77502

>  <SCORE.INTER.CONST>
1

>  <SCORE.INTER.POLAR>
0

>  <SCORE.INTER.ROT>
11

>  <SCORE.INTER.SOLV>
10.7966

>  <SCORE.INTER.VDW>
-17.7155

>  <SCORE.INTER.norm>
-0.341073

>  <SCORE.INTRA>
-1.1137

>  <SCORE.INTRA.DIHEDRAL>
-4.76964

>  <SCORE.INTRA.DIHEDRAL.0>
7.79482

>  <SCORE.INTRA.POLAR>
0

>  <SCORE.INTRA.POLAR.0>
0

>  <SCORE.INTRA.REPUL>
0

>  <SCORE.INTRA.REPUL.0>
0

>  <SCORE.INTRA.SOLV>
2.25374

>  <SCORE.INTRA.SOLV.lig_0>
-49.456

>  <SCORE.INTRA.VDW>
0.144251

>  <SCORE.INTRA.VDW.0>
-0.478406

>  <SCORE.INTRA.norm>
-0.07955

>  <SCORE.RESTR>
0

>  <SCORE.RESTR.CAVITY>
0

>  <SCORE.RESTR.norm>
0

>  <SCORE.SYSTEM>
0

>  <SCORE.SYSTEM.CONST>
0

>  <SCORE.SYSTEM.DIHEDRAL>
0

>  <SCORE.SYSTEM.SOLV>
0

>  <SCORE.SYSTEM.norm>
0

>  <SCORE.heavy>
14

>  <SCORE.norm>
-0.420623

>  <RMSD>
2.005

$$$$
ligand
 OpenBabel11021811413D
libRbt.so/2013.1/901 2013/11/27
 14 13  0  0  0  0  0  0  0  0999 V2000
   41.3451   11.0661   18.4597 N   0  0  0  0  0  0  0  0  0  0  0  0
   41.8878    9.9049   19.1974 C   0  0  0  0  0  0  0  0  0  0  0  0
   43.3769    9.6757   18.8598 C   0  0  0  0  0  0  0  0  0  0  0  0
   44.0587    8.5745   19.6884 C   0  0  0  0  0  0  0  0  0  0  0  0
   45.4620    8.3598   19.2400 N   0  0  0  0  0  0  0  0  0  0  0  0
   46.2408    7.6723   20.3019 C   0  0  0  0  0  0  0  0  0  0  0  0
   45.8445    6.1821   20.5744 C   0  0  0  0  0  0  0  0  0  0  0  0
   46.0910    5.2290   19.3697 C   0  0  0  0  0  0  0  0  0  0  0  0
   45.6356    3.8028   19.6100 C   0  0  0  0  0  0  0  0  0  0  0  0
   45.9689    3.0302   18.4283 N   0  0  0  0  0  0  0  0  0  0  0  0
   45.4352    1.6992   18.6595 C   0  0  0  0  0  0  0  0  0  0  0  0
   45.7568    0.7608   17.5023 C   0  0  0  0  0  0  0  0  0  0  0  0
   45.0233    1.2872   16.2594 C   0  0  0  0  0  0  0  0  0  0  0  0
   45.2347    0.4286   15.0843 N   0  0  0  0  0  0  0  0  0  0  0  0
  1  2  1  0  0  0  0
  2  3  1  0  0  0  0
  3  4  1  0  0  0  0
  4  5  1  0  0  0  0
  5  6  1  0  0  0  0
  6  7  1  0  0  0  0
  7  8  1  0  0  0  0
  8  9  1  0  0  0  0
  9 10  1  0  0  0  0
 10 11  1  0  0  0  0
 11 12  1  0  0  0  0
 12 13  1  0  0  0  0
 13 14  1  0  0  0  0
M  END
>  <CHROM.1>
174.19886780,176.34701226,160.40300567,69.01511325,63.80968773,-176.80729268
-178.10139954,-176.12876936,-178.16103261,-64.77617381,-178.36856115,44.81166570
5.54802006,18.65999176,1.93314824,-0.72722282,0.49226248

>  <Name>
ligand

>  <RI>
0

>  <Rbt.Current_Directory>
/home/itssahil/PROJECTS/Mol_Feturizer/New_Systems/rnas/1TN2

>  <Rbt.Executable>
rbdock ($Id: //depot/dev/client3/rdock/2013.1/src/exe/rbdock.cxx#4 $)

>  <Rbt.Library>
libRbt.so (2013.1, Build901 2013/11/27)

>  <Rbt.Parameter_File>
/export/apps/rDock/src/rDock_2013.1_src/data/scripts/dock_solv.prm

>  <Rbt.Receptor>
prm/pocket_docking_4.prm

>  <SCORE>
-12.1572

>  <SCORE.INTER>
-8.74245

>  <SCORE.INTER.CONST>
1

>  <SCORE.INTER.POLAR>
0

>  <SCORE.INTER.ROT>
11

>  <SCORE.INTER.SOLV>
17.0584

>  <SCORE.INTER.VDW>
-22.4478

>  <SCORE.INTER.norm>
-0.624461

>  <SCORE.INTRA>
-3.41474

>  <SCORE.INTRA.DIHEDRAL>
-7.04143

>  <SCORE.INTRA.DIHEDRAL.0>
7.79482

>  <SCORE.INTRA.POLAR>
0

>  <SCORE.INTRA.POLAR.0>
0

>  <SCORE.INTRA.REPUL>
0

>  <SCORE.INTRA.REPUL.0>
0

>  <SCORE.INTRA.SOLV>
0.709399

>  <SCORE.INTRA.SOLV.lig_0>
-49.456

>  <SCORE.INTRA.VDW>
-0.248726

>  <SCORE.INTRA.VDW.0>
-0.478406

>  <SCORE.INTRA.norm>
-0.24391

>  <SCORE.RESTR>
0

>  <SCORE.RESTR.CAVITY>
0

>  <SCORE.RESTR.norm>
0

>  <SCORE.SYSTEM>
0

>  <SCORE.SYSTEM.CONST>
0

>  <SCORE.SYSTEM.DIHEDRAL>
0

>  <SCORE.SYSTEM.SOLV>
0

>  <SCORE.SYSTEM.norm>
0

>  <SCORE.heavy>
14

>  <SCORE.norm>
-0.868371

>  <RMSD>
2.009

$$$$
ligand
 OpenBabel11021811413D
libRbt.so/2013.1/901 2013/11/27
 14 13  0  0  0  0  0  0  0  0999 V2000
   44.5278   13.4207   15.7842 N   0  0  0  0  0  0  0  0  0  0  0  0
   44.6525   11.9492   15.8627 C   0  0  0  0  0  0  0  0  0  0  0  0
   45.0967   11.5012   17.2720 C   0  0  0  0  0  0  0  0  0  0  0  0
   45.2603    9.9815   17.4385 C   0  0  0  0  0  0  0  0  0  0  0  0
   45.7089    9.6401   18.8163 N   0  0  0  0  0  0  0  0  0  0  0  0
   45.7898    8.1658   18.9794 C   0  0  0  0  0  0  0  0  0  0  0  0
   45.9947    7.6574   20.4462 C   0  0  0  0  0  0  0  0  0  0  0  0
   46.0432    6.1082   20.5805 C   0  0  0  0  0  0  0  0  0  0  0  0
   44.7596    5.4142   20.1686 C   0  0  0  0  0  0  0  0  0  0  0  0
   44.9509    3.9886   20.3568 N   0  0  0  0  0  0  0  0  0  0  0  0
   45.3649    3.4687   19.0653 C   0  0  0  0  0  0  0  0  0  0  0  0
   45.1905    1.9563   18.9911 C   0  0  0  0  0  0  0  0  0  0  0  0
   45.6908    1.4978   17.6129 C   0  0  0  0  0  0  0  0  0  0  0  0
   45.5190    0.0511   17.4125 N   0  0  0  0  0  0  0  0  0  0  0  0
  1  2  1  0  0  0  0
  2  3  1  0  0  0  0
  3  4  1  0  0  0  0
  4  5  1  0  0  0  0
  5  6  1  0  0  0  0
  6  7  1  0  0  0  0
  7  8  1  0  0  0  0
  8  9  1  0  0  0  0
  9 10  1  0  0  0  0
 10 11  1  0  0  0  0
 11 12  1  0  0  0  0
 12 13  1  0  0  0  0
 13 14  1  0  0  0  0
M  END
>  <CHROM.1>
-179.61962768,179.14408788,176.93031456,-169.29643472,178.72464364,-62.71845380
-179.55094355,-95.07644659,-162.46348389,-178.33978244,-177.76492216,45.32503300
6.77147389,18.48495354,1.86651843,-1.42634538,0.10549609

>  <Name>
ligand

>  <RI>
0

>  <Rbt.Current_Directory>
/home/itssahil/PROJECTS/Mol_Feturizer/New_Systems/rnas/1TN2

>  <Rbt.Executable>
rbdock ($Id: //depot/dev/client3/rdock/2013.1/src/exe/rbdock.cxx#4 $)

>  <Rbt.Library>
libRbt.so (2013.1, Build901 2013/11/27)

>  <Rbt.Parameter_File>
/export/apps/rDock/src/rDock_2013.1_src/data/scripts/dock_solv.prm

>  <Rbt.Receptor>
prm/pocket_docking_8.prm

>  <SCORE>
-6.14227

>  <SCORE.INTER>
-2.87612

>  <SCORE.INTER.CONST>
1

>  <SCORE.INTER.POLAR>
0

>  <SCORE.INTER.ROT>
11

>  <SCORE.INTER.SOLV>
13.2191

>  <SCORE.INTER.VDW>
-17.2571

>  <SCORE.INTER.norm>
-0.205437

>  <SCORE.INTRA>
-3.26615

>  <SCORE.INTRA.DIHEDRAL>
-6.63156

>  <SCORE.INTRA.DIHEDRAL.0>
7.79482

>  <SCORE.INTRA.POLAR>
0

>  <SCORE.INTRA.POLAR.0>
0

>  <SCORE.INTRA.REPUL>
0

>  <SCORE.INTRA.REPUL.0>
0

>  <SCORE.INTRA.SOLV>
0.0924401

>  <SCORE.INTRA.SOLV.lig_0>
-49.456

>  <SCORE.INTRA.VDW>
0.00340362

>  <SCORE.INTRA.VDW.0>
-0.478406

>  <SCORE.INTRA.norm>
-0.233297

>  <SCORE.RESTR>
0

>  <SCORE.RESTR.CAVITY>
0

>  <SCORE.RESTR.norm>
0

>  <SCORE.SYSTEM>
0

>  <SCORE.SYSTEM.CONST>
0

>  <SCORE.SYSTEM.DIHEDRAL>
0

>  <SCORE.SYSTEM.SOLV>
0

>  <SCORE.SYSTEM.norm>
0

>  <SCORE.heavy>
14

>  <SCORE.norm>
-0.438734

>  <RMSD>
2.028

$$$$
ligand
 OpenBabel11021811413D
libRbt.so/2013.1/901 2013/11/27
 14 13  0  0  0  0  0  0  0  0999 V2000
   41.8246   12.2921   18.0540 N   0  0  0  0  0  0  0  0  0  0  0  0
   42.4305   10.9554   18.2363 C   0  0  0  0  0  0  0  0  0  0  0  0
   43.9485   10.9878   17.9558 C   0  0  0  0  0  0  0  0  0  0  0  0
   44.6526    9.6273   18.0871 C   0  0  0  0  0  0  0  0  0  0  0  0
   44.5095    9.0823   19.4651 N   0  0  0  0  0  0  0  0  0  0  0  0
   45.0708    7.7087   19.5348 C   0  0  0  0  0  0  0  0  0  0  0  0
   44.8589    6.9592   20.8933 C   0  0  0  0  0  0  0  0  0  0  0  0
   45.3512    5.4834   20.8879 C   0  0  0  0  0  0  0  0  0  0  0  0
   44.5960    4.5860   19.9270 C   0  0  0  0  0  0  0  0  0  0  0  0
   45.3457    3.3508   19.7981 N   0  0  0  0  0  0  0  0  0  0  0  0
   46.0143    3.4235   18.5107 C   0  0  0  0  0  0  0  0  0  0  0  0
   46.5595    2.0644   18.0880 C   0  0  0  0  0  0  0  0  0  0  0  0
   45.3595    1.1333   17.8579 C   0  0  0  0  0  0  0  0  0  0  0  0
   45.7686   -0.1856   17.3521 N   0  0  0  0  0  0  0  0  0  0  0  0
  1  2  1  0  0  0  0
  2  3  1  0  0  0  0
  3  4  1  0  0  0  0
  4  5  1  0  0  0  0
  5  6  1  0  0  0  0
  6  7  1  0  0  0  0
  7  8  1  0  0  0  0
  8  9  1  0  0  0  0
  9 10  1  0  0  0  0
 10 11  1  0  0  0  0
 11 12  1  0  0  0  0
 12 13  1  0  0  0  0
 13 14  1  0  0  0  0
M  END
>  <CHROM.1>
-178.48433515,-60.36271945,174.09901755,-174.17016353,175.03522569,-64.06769767
166.99436421,-103.87838492,-166.01844368,65.49791226,175.95791766,44.73515529
6.24780366,18.90354114,2.39648341,-1.20080357,0.79914979

>  <Name>
ligand

>  <RI>
0

>  <Rbt.Current_Directory>
/home/itssahil/PROJECTS/Mol_Feturizer/New_Systems/rnas/1TN2

>  <Rbt.Executable>
rbdock ($Id: //depot/dev/client3/rdock/2013.1/src/exe/rbdock.cxx#4 $)

>  <Rbt.Library>
libRbt.so (2013.1, Build901 2013/11/27)

>  <Rbt.Parameter_File>
/export/apps/rDock/src/rDock_2013.1_src/data/scripts/dock_solv.prm

>  <Rbt.Receptor>
prm/pocket_docking_4.prm

>  <SCORE>
-6.60377

>  <SCORE.INTER>
-4.11946

>  <SCORE.INTER.CONST>
1

>  <SCORE.INTER.POLAR>
0

>  <SCORE.INTER.ROT>
11

>  <SCORE.INTER.SOLV>
19.2594

>  <SCORE.INTER.VDW>
-20.0994

>  <SCORE.INTER.norm>
-0.294247

>  <SCORE.INTRA>
-2.48431

>  <SCORE.INTRA.DIHEDRAL>
-5.62451

>  <SCORE.INTRA.DIHEDRAL.0>
7.79482

>  <SCORE.INTRA.POLAR>
0

>  <SCORE.INTRA.POLAR.0>
0

>  <SCORE.INTRA.REPUL>
0

>  <SCORE.INTRA.REPUL.0>
0

>  <SCORE.INTRA.SOLV>
0.885706

>  <SCORE.INTRA.SOLV.lig_0>
-49.456

>  <SCORE.INTRA.VDW>
-0.114904

>  <SCORE.INTRA.VDW.0>
-0.478406

>  <SCORE.INTRA.norm>
-0.17745

>  <SCORE.RESTR>
0

>  <SCORE.RESTR.CAVITY>
0

>  <SCORE.RESTR.norm>
0

>  <SCORE.SYSTEM>
0

>  <SCORE.SYSTEM.CONST>
0

>  <SCORE.SYSTEM.DIHEDRAL>
0

>  <SCORE.SYSTEM.SOLV>
0

>  <SCORE.SYSTEM.norm>
0

>  <SCORE.heavy>
14

>  <SCORE.norm>
-0.471698

>  <RMSD>
2.031

$$$$
ligand
 OpenBabel11021811413D
libRbt.so/2013.1/901 2013/11/27
 14 13  0  0  0  0  0  0  0  0999 V2000
   45.3474    0.5989   15.1103 N   0  0  0  0  0  0  0  0  0  0  0  0
   45.7617    1.5711   16.1448 C   0  0  0  0  0  0  0  0  0  0  0  0
   45.5485    1.0007   17.5638 C   0  0  0  0  0  0  0  0  0  0  0  0
   45.8946    1.9735   18.7030 C   0  0  0  0  0  0  0  0  0  0  0  0
   45.0638    3.2064   18.6239 N   0  0  0  0  0  0  0  0  0  0  0  0
   44.9461    3.8331   19.9656 C   0  0  0  0  0  0  0  0  0  0  0  0
   46.0926    4.8277   20.3508 C   0  0  0  0  0  0  0  0  0  0  0  0
   46.0464    6.1790   19.5811 C   0  0  0  0  0  0  0  0  0  0  0  0
   44.8874    7.0731   19.9763 C   0  0  0  0  0  0  0  0  0  0  0  0
   44.8776    8.2060   19.0703 N   0  0  0  0  0  0  0  0  0  0  0  0
   43.9150    9.1456   19.6182 C   0  0  0  0  0  0  0  0  0  0  0  0
   43.3423   10.0525   18.5353 C   0  0  0  0  0  0  0  0  0  0  0  0
   44.5093   10.8469   17.9294 C   0  0  0  0  0  0  0  0  0  0  0  0
   44.0588   11.8028   16.9066 N   0  0  0  0  0  0  0  0  0  0  0  0
  1  2  1  0  0  0  0
  2  3  1  0  0  0  0
  3  4  1  0  0  0  0
  4  5  1  0  0  0  0
  5  6  1  0  0  0  0
  6  7  1  0  0  0  0
  7  8  1  0  0  0  0
  8  9  1  0  0  0  0
  9 10  1  0  0  0  0
 10 11  1  0  0  0  0
 11 12  1  0  0  0  0
 12 13  1  0  0  0  0
 13 14  1  0  0  0  0
M  END
>  <CHROM.1>
-177.34713571,59.78951925,155.07606729,86.95205049,71.99593252,69.89937836
-173.02508721,-170.28503278,-154.92309959,-61.12057658,-177.51025664,45.02088810
5.73685642,18.43464839,0.77820396,1.34544569,-2.23611943

>  <Name>
ligand

>  <RI>
0

>  <Rbt.Current_Directory>
/home/itssahil/PROJECTS/Mol_Feturizer/New_Systems/rnas/1TN2

>  <Rbt.Executable>
rbdock ($Id: //depot/dev/client3/rdock/2013.1/src/exe/rbdock.cxx#4 $)

>  <Rbt.Library>
libRbt.so (2013.1, Build901 2013/11/27)

>  <Rbt.Parameter_File>
/export/apps/rDock/src/rDock_2013.1_src/data/scripts/dock_solv.prm

>  <Rbt.Receptor>
prm/pocket_docking_3.prm

>  <SCORE>
-7.73704

>  <SCORE.INTER>
-5.54403

>  <SCORE.INTER.CONST>
1

>  <SCORE.INTER.POLAR>
0

>  <SCORE.INTER.ROT>
11

>  <SCORE.INTER.SOLV>
11.2093

>  <SCORE.INTER.VDW>
-18.3658

>  <SCORE.INTER.norm>
-0.396002

>  <SCORE.INTRA>
-2.19301

>  <SCORE.INTRA.DIHEDRAL>
-5.15911

>  <SCORE.INTRA.DIHEDRAL.0>
7.79482

>  <SCORE.INTRA.POLAR>
0

>  <SCORE.INTRA.POLAR.0>
0

>  <SCORE.INTRA.REPUL>
0

>  <SCORE.INTRA.REPUL.0>
0

>  <SCORE.INTRA.SOLV>
1.31018

>  <SCORE.INTRA.SOLV.lig_0>
-49.456

>  <SCORE.INTRA.VDW>
-0.268546

>  <SCORE.INTRA.VDW.0>
-0.478406

>  <SCORE.INTRA.norm>
-0.156643

>  <SCORE.RESTR>
0

>  <SCORE.RESTR.CAVITY>
0

>  <SCORE.RESTR.norm>
0

>  <SCORE.SYSTEM>
0

>  <SCORE.SYSTEM.CONST>
0

>  <SCORE.SYSTEM.DIHEDRAL>
0

>  <SCORE.SYSTEM.SOLV>
0

>  <SCORE.SYSTEM.norm>
0

>  <SCORE.heavy>
14

>  <SCORE.norm>
-0.552646

>  <RMSD>
2.036

$$$$
ligand
 OpenBabel11021811413D
libRbt.so/2013.1/901 2013/11/27
 14 13  0  0  0  0  0  0  0  0999 V2000
   44.0502   11.5487   16.0299 N   0  0  0  0  0  0  0  0  0  0  0  0
   45.3480   10.8975   15.7489 C   0  0  0  0  0  0  0  0  0  0  0  0
   45.6235    9.7498   16.7444 C   0  0  0  0  0  0  0  0  0  0  0  0
   45.7124   10.1867   18.2159 C   0  0  0  0  0  0  0  0  0  0  0  0
   46.0075    9.0265   19.1009 N   0  0  0  0  0  0  0  0  0  0  0  0
   44.7436    8.3812   19.5402 C   0  0  0  0  0  0  0  0  0  0  0  0
   44.9087    7.0492   20.3468 C   0  0  0  0  0  0  0  0  0  0  0  0
   45.7952    5.9842   19.6396 C   0  0  0  0  0  0  0  0  0  0  0  0
   45.8041    4.6342   20.3297 C   0  0  0  0  0  0  0  0  0  0  0  0
   46.6847    3.7615   19.5765 N   0  0  0  0  0  0  0  0  0  0  0  0
   45.8170    2.9160   18.7752 C   0  0  0  0  0  0  0  0  0  0  0  0
   46.4670    1.5689   18.4818 C   0  0  0  0  0  0  0  0  0  0  0  0
   45.4793    0.7507   17.6362 C   0  0  0  0  0  0  0  0  0  0  0  0
   45.2815    1.3288   16.2986 N   0  0  0  0  0  0  0  0  0  0  0  0
  1  2  1  0  0  0  0
  2  3  1  0  0  0  0
  3  4  1  0  0  0  0
  4  5  1  0  0  0  0
  5  6  1  0  0  0  0
  6  7  1  0  0  0  0
  7  8  1  0  0  0  0
  8  9  1  0  0  0  0
  9 10  1  0  0  0  0
 10 11  1  0  0  0  0
 11 12  1  0  0  0  0
 12 13  1  0  0  0  0
 13 14  1  0  0  0  0
M  END
>  <CHROM.1>
-61.34146467,-178.81060311,-89.11211890,173.40975887,-52.74654130,-172.29406806
-178.96011416,-101.36542359,-151.99463773,179.94800775,67.05778694,45.55163857
6.27021871,18.31912600,2.21801935,-1.42502700,0.51993327

>  <Name>
ligand

>  <RI>
0

>  <Rbt.Current_Directory>
/home/itssahil/PROJECTS/Mol_Feturizer/New_Systems/rnas/1TN2

>  <Rbt.Executable>
rbdock ($Id: //depot/dev/client3/rdock/2013.1/src/exe/rbdock.cxx#4 $)

>  <Rbt.Library>
libRbt.so (2013.1, Build901 2013/11/27)

>  <Rbt.Parameter_File>
/export/apps/rDock/src/rDock_2013.1_src/data/scripts/dock_solv.prm

>  <Rbt.Receptor>
prm/pocket_docking_3.prm

>  <SCORE>
-7.89292

>  <SCORE.INTER>
-6.15782

>  <SCORE.INTER.CONST>
1

>  <SCORE.INTER.POLAR>
0

>  <SCORE.INTER.ROT>
11

>  <SCORE.INTER.SOLV>
12.9086

>  <SCORE.INTER.VDW>
-19.3414

>  <SCORE.INTER.norm>
-0.439845

>  <SCORE.INTRA>
-1.73798

>  <SCORE.INTRA.DIHEDRAL>
-5.06856

>  <SCORE.INTRA.DIHEDRAL.0>
7.79482

>  <SCORE.INTRA.POLAR>
0

>  <SCORE.INTRA.POLAR.0>
0

>  <SCORE.INTRA.REPUL>
0

>  <SCORE.INTRA.REPUL.0>
0

>  <SCORE.INTRA.SOLV>
1.81529

>  <SCORE.INTRA.SOLV.lig_0>
-49.456

>  <SCORE.INTRA.VDW>
-0.11134

>  <SCORE.INTRA.VDW.0>
-0.478406

>  <SCORE.INTRA.norm>
-0.124141

>  <SCORE.RESTR>
0.00287901

>  <SCORE.RESTR.CAVITY>
0.00287901

>  <SCORE.RESTR.norm>
0.000205643

>  <SCORE.SYSTEM>
0

>  <SCORE.SYSTEM.CONST>
0

>  <SCORE.SYSTEM.DIHEDRAL>
0

>  <SCORE.SYSTEM.SOLV>
0

>  <SCORE.SYSTEM.norm>
0

>  <SCORE.heavy>
14

>  <SCORE.norm>
-0.56378

>  <RMSD>
2.067

$$$$
ligand
 OpenBabel11021811413D
libRbt.so/2013.1/901 2013/11/27
 14 13  0  0  0  0  0  0  0  0999 V2000
   44.6504   12.6390   16.0433 N   0  0  0  0  0  0  0  0  0  0  0  0
   44.5501   11.3097   15.4029 C   0  0  0  0  0  0  0  0  0  0  0  0
   45.4081   10.2649   16.1487 C   0  0  0  0  0  0  0  0  0  0  0  0
   45.0460   10.0805   17.6316 C   0  0  0  0  0  0  0  0  0  0  0  0
   45.9101    9.0488   18.2683 N   0  0  0  0  0  0  0  0  0  0  0  0
   45.9748    9.2680   19.7361 C   0  0  0  0  0  0  0  0  0  0  0  0
   46.6196    8.1071   20.5660 C   0  0  0  0  0  0  0  0  0  0  0  0
   45.7953    6.7877   20.5592 C   0  0  0  0  0  0  0  0  0  0  0  0
   45.9829    5.9512   19.3086 C   0  0  0  0  0  0  0  0  0  0  0  0
   45.2029    4.7388   19.4698 N   0  0  0  0  0  0  0  0  0  0  0  0
   46.0783    3.6475   19.0796 C   0  0  0  0  0  0  0  0  0  0  0  0
   45.2845    2.3967   18.7211 C   0  0  0  0  0  0  0  0  0  0  0  0
   46.2836    1.3351   18.2366 C   0  0  0  0  0  0  0  0  0  0  0  0
   45.6116    0.1699   17.6422 N   0  0  0  0  0  0  0  0  0  0  0  0
  1  2  1  0  0  0  0
  2  3  1  0  0  0  0
  3  4  1  0  0  0  0
  4  5  1  0  0  0  0
  5  6  1  0  0  0  0
  6  7  1  0  0  0  0
  7  8  1  0  0  0  0
  8  9  1  0  0  0  0
  9 10  1  0  0  0  0
 10 11  1  0  0  0  0
 11 12  1  0  0  0  0
 12 13  1  0  0  0  0
 13 14  1  0  0  0  0
M  END
>  <CHROM.1>
58.40113084,179.43229176,156.13227134,168.77499922,-66.44541212,80.13725667
177.69601520,-133.22098452,-159.70821585,176.36234962,-169.96045052,45.59997207
6.83900990,18.34404378,1.86129282,-1.31131368,0.09012896

>  <Name>
ligand

>  <RI>
0

>  <Rbt.Current_Directory>
/home/itssahil/PROJECTS/Mol_Feturizer/New_Systems/rnas/1TN2

>  <Rbt.Executable>
rbdock ($Id: //depot/dev/client3/rdock/2013.1/src/exe/rbdock.cxx#4 $)

>  <Rbt.Library>
libRbt.so (2013.1, Build901 2013/11/27)

>  <Rbt.Parameter_File>
/export/apps/rDock/src/rDock_2013.1_src/data/scripts/dock_solv.prm

>  <Rbt.Receptor>
prm/pocket_docking_8.prm

>  <SCORE>
-7.24779

>  <SCORE.INTER>
-5.33245

>  <SCORE.INTER.CONST>
1

>  <SCORE.INTER.POLAR>
0

>  <SCORE.INTER.ROT>
11

>  <SCORE.INTER.SOLV>
15.0151

>  <SCORE.INTER.VDW>
-19.4933

>  <SCORE.INTER.norm>
-0.380889

>  <SCORE.INTRA>
-1.91534

>  <SCORE.INTRA.DIHEDRAL>
-3.75537

>  <SCORE.INTRA.DIHEDRAL.0>
7.79482

>  <SCORE.INTRA.POLAR>
0

>  <SCORE.INTRA.POLAR.0>
0

>  <SCORE.INTRA.REPUL>
0

>  <SCORE.INTRA.REPUL.0>
0

>  <SCORE.INTRA.SOLV>
1.52483

>  <SCORE.INTRA.SOLV.lig_0>
-49.456

>  <SCORE.INTRA.VDW>
-0.800074

>  <SCORE.INTRA.VDW.0>
-0.478406

>  <SCORE.INTRA.norm>
-0.13681

>  <SCORE.RESTR>
0

>  <SCORE.RESTR.CAVITY>
0

>  <SCORE.RESTR.norm>
0

>  <SCORE.SYSTEM>
0

>  <SCORE.SYSTEM.CONST>
0

>  <SCORE.SYSTEM.DIHEDRAL>
0

>  <SCORE.SYSTEM.SOLV>
0

>  <SCORE.SYSTEM.norm>
0

>  <SCORE.heavy>
14

>  <SCORE.norm>
-0.517699

>  <RMSD>
2.077

$$$$
ligand
 OpenBabel11021811413D
libRbt.so/2013.1/901 2013/11/27
 14 13  0  0  0  0  0  0  0  0999 V2000
   45.7175   11.8200   16.4624 N   0  0  0  0  0  0  0  0  0  0  0  0
   44.4088   11.2066   16.7752 C   0  0  0  0  0  0  0  0  0  0  0  0
   44.4492   10.4657   18.1293 C   0  0  0  0  0  0  0  0  0  0  0  0
   45.4124    9.2682   18.1750 C   0  0  0  0  0  0  0  0  0  0  0  0
   45.3948    8.6190   19.5146 N   0  0  0  0  0  0  0  0  0  0  0  0
   45.9293    7.2361   19.4220 C   0  0  0  0  0  0  0  0  0  0  0  0
   45.6187    6.3072   20.6438 C   0  0  0  0  0  0  0  0  0  0  0  0
   46.1084    4.8411   20.4677 C   0  0  0  0  0  0  0  0  0  0  0  0
   45.3315    4.0528   19.4314 C   0  0  0  0  0  0  0  0  0  0  0  0
   46.0714    2.8350   19.1602 N   0  0  0  0  0  0  0  0  0  0  0  0
   45.0948    1.8757   18.6746 C   0  0  0  0  0  0  0  0  0  0  0  0
   45.7187    0.8955   17.6880 C   0  0  0  0  0  0  0  0  0  0  0  0
   46.1182    1.6888   16.4346 C   0  0  0  0  0  0  0  0  0  0  0  0
   44.9480    2.1799   15.6915 N   0  0  0  0  0  0  0  0  0  0  0  0
  1  2  1  0  0  0  0
  2  3  1  0  0  0  0
  3  4  1  0  0  0  0
  4  5  1  0  0  0  0
  5  6  1  0  0  0  0
  6  7  1  0  0  0  0
  7  8  1  0  0  0  0
  8  9  1  0  0  0  0
  9 10  1  0  0  0  0
 10 11  1  0  0  0  0
 11 12  1  0  0  0  0
 12 13  1  0  0  0  0
 13 14  1  0  0  0  0
M  END
>  <CHROM.1>
-63.71389131,179.66349926,160.30273700,-164.07586045,175.98145474,-69.73389674
167.39036181,155.40088459,149.27802073,-66.48969092,-68.21074196,45.45151754
5.94922412,18.33385074,2.02492928,-1.43251519,0.43436275

>  <Name>
ligand

>  <RI>
0

>  <Rbt.Current_Directory>
/home/itssahil/PROJECTS/Mol_Feturizer/New_Systems/rnas/1TN2

>  <Rbt.Executable>
rbdock ($Id: //depot/dev/client3/rdock/2013.1/src/exe/rbdock.cxx#4 $)

>  <Rbt.Library>
libRbt.so (2013.1, Build901 2013/11/27)

>  <Rbt.Parameter_File>
/export/apps/rDock/src/rDock_2013.1_src/data/scripts/dock_solv.prm

>  <Rbt.Receptor>
prm/pocket_docking_3.prm

>  <SCORE>
-6.68426

>  <SCORE.INTER>
-5.36751

>  <SCORE.INTER.CONST>
1

>  <SCORE.INTER.POLAR>
0

>  <SCORE.INTER.ROT>
11

>  <SCORE.INTER.SOLV>
10.0832

>  <SCORE.INTER.VDW>
-17.8727

>  <SCORE.INTER.norm>
-0.383393

>  <SCORE.INTRA>
-1.31827

>  <SCORE.INTRA.DIHEDRAL>
-4.75979

>  <SCORE.INTRA.DIHEDRAL.0>
7.79482

>  <SCORE.INTRA.POLAR>
0

>  <SCORE.INTRA.POLAR.0>
0

>  <SCORE.INTRA.REPUL>
0

>  <SCORE.INTRA.REPUL.0>
0

>  <SCORE.INTRA.SOLV>
2.86424

>  <SCORE.INTRA.SOLV.lig_0>
-49.456

>  <SCORE.INTRA.VDW>
-0.370491

>  <SCORE.INTRA.VDW.0>
-0.478406

>  <SCORE.INTRA.norm>
-0.094162

>  <SCORE.RESTR>
0.00151401

>  <SCORE.RESTR.CAVITY>
0.00151401

>  <SCORE.RESTR.norm>
0.000108144

>  <SCORE.SYSTEM>
0

>  <SCORE.SYSTEM.CONST>
0

>  <SCORE.SYSTEM.DIHEDRAL>
0

>  <SCORE.SYSTEM.SOLV>
0

>  <SCORE.SYSTEM.norm>
0

>  <SCORE.heavy>
14

>  <SCORE.norm>
-0.477447

>  <RMSD>
2.101

$$$$
ligand
 OpenBabel11021811413D
libRbt.so/2013.1/901 2013/11/27
 14 13  0  0  0  0  0  0  0  0999 V2000
   45.3498    0.0416   15.7955 N   0  0  0  0  0  0  0  0  0  0  0  0
   45.3694    0.4743   17.2095 C   0  0  0  0  0  0  0  0  0  0  0  0
   45.6174    1.9939   17.3247 C   0  0  0  0  0  0  0  0  0  0  0  0
   45.6622    2.5276   18.7659 C   0  0  0  0  0  0  0  0  0  0  0  0
   45.9213    3.9935   18.7852 N   0  0  0  0  0  0  0  0  0  0  0  0
   46.3738    4.4171   20.1352 C   0  0  0  0  0  0  0  0  0  0  0  0
   45.3051    5.1617   21.0044 C   0  0  0  0  0  0  0  0  0  0  0  0
   44.8075    6.5012   20.3893 C   0  0  0  0  0  0  0  0  0  0  0  0
   45.8857    7.5601   20.2660 C   0  0  0  0  0  0  0  0  0  0  0  0
   45.3029    8.7041   19.5907 N   0  0  0  0  0  0  0  0  0  0  0  0
   46.4125    9.5846   19.2698 C   0  0  0  0  0  0  0  0  0  0  0  0
   45.9484   10.7999   18.4755 C   0  0  0  0  0  0  0  0  0  0  0  0
   45.4671   10.3026   17.1040 C   0  0  0  0  0  0  0  0  0  0  0  0
   45.0371   11.4063   16.2324 N   0  0  0  0  0  0  0  0  0  0  0  0
  1  2  1  0  0  0  0
  2  3  1  0  0  0  0
  3  4  1  0  0  0  0
  4  5  1  0  0  0  0
  5  6  1  0  0  0  0
  6  7  1  0  0  0  0
  7  8  1  0  0  0  0
  8  9  1  0  0  0  0
  9 10  1  0  0  0  0
 10 11  1  0  0  0  0
 11 12  1  0  0  0  0
 12 13  1  0  0  0  0
 13 14  1  0  0  0  0
M  END
>  <CHROM.1>
-179.61703057,179.30717861,-162.57743954,-104.17813133,-61.90938310,-64.12144821
175.78964626,-169.64454447,176.56098869,-66.82748257,-178.01729992,45.60438143
5.96201924,18.59670756,1.66140216,1.49852601,3.13088573

>  <Name>
ligand

>  <RI>
0

>  <Rbt.Current_Directory>
/home/itssahil/PROJECTS/Mol_Feturizer/New_Systems/rnas/1TN2

>  <Rbt.Executable>
rbdock ($Id: //depot/dev/client3/rdock/2013.1/src/exe/rbdock.cxx#4 $)

>  <Rbt.Library>
libRbt.so (2013.1, Build901 2013/11/27)

>  <Rbt.Parameter_File>
/export/apps/rDock/src/rDock_2013.1_src/data/scripts/dock_solv.prm

>  <Rbt.Receptor>
prm/pocket_docking_7.prm

>  <SCORE>
-9.3479

>  <SCORE.INTER>
-6.37708

>  <SCORE.INTER.CONST>
1

>  <SCORE.INTER.POLAR>
0

>  <SCORE.INTER.ROT>
11

>  <SCORE.INTER.SOLV>
11.413

>  <SCORE.INTER.VDW>
-18.989

>  <SCORE.INTER.norm>
-0.455506

>  <SCORE.INTRA>
-2.97082

>  <SCORE.INTRA.DIHEDRAL>
-6.11735

>  <SCORE.INTRA.DIHEDRAL.0>
7.79482

>  <SCORE.INTRA.POLAR>
0

>  <SCORE.INTRA.POLAR.0>
0

>  <SCORE.INTRA.REPUL>
0

>  <SCORE.INTRA.REPUL.0>
0

>  <SCORE.INTRA.SOLV>
1.03145

>  <SCORE.INTRA.SOLV.lig_0>
-49.456

>  <SCORE.INTRA.VDW>
-0.42787

>  <SCORE.INTRA.VDW.0>
-0.478406

>  <SCORE.INTRA.norm>
-0.212202

>  <SCORE.RESTR>
0

>  <SCORE.RESTR.CAVITY>
0

>  <SCORE.RESTR.norm>
0

>  <SCORE.SYSTEM>
0

>  <SCORE.SYSTEM.CONST>
0

>  <SCORE.SYSTEM.DIHEDRAL>
0

>  <SCORE.SYSTEM.SOLV>
0

>  <SCORE.SYSTEM.norm>
0

>  <SCORE.heavy>
14

>  <SCORE.norm>
-0.667707

>  <RMSD>
2.118

$$$$
ligand
 OpenBabel11021811413D
libRbt.so/2013.1/901 2013/11/27
 14 13  0  0  0  0  0  0  0  0999 V2000
   44.8669   11.8467   17.7657 N   0  0  0  0  0  0  0  0  0  0  0  0
   45.9402   10.8828   18.0913 C   0  0  0  0  0  0  0  0  0  0  0  0
   45.5204    9.4397   17.7378 C   0  0  0  0  0  0  0  0  0  0  0  0
   46.5612    8.3652   18.0931 C   0  0  0  0  0  0  0  0  0  0  0  0
   46.8362    8.3508   19.5561 N   0  0  0  0  0  0  0  0  0  0  0  0
   45.7295    7.6737   20.2799 C   0  0  0  0  0  0  0  0  0  0  0  0
   45.9390    6.1476   20.5615 C   0  0  0  0  0  0  0  0  0  0  0  0
   45.9901    5.2666   19.2802 C   0  0  0  0  0  0  0  0  0  0  0  0
   46.1735    3.7872   19.5575 C   0  0  0  0  0  0  0  0  0  0  0  0
   46.0876    3.0886   18.2891 N   0  0  0  0  0  0  0  0  0  0  0  0
   46.0471    1.6739   18.6158 C   0  0  0  0  0  0  0  0  0  0  0  0
   45.7766    0.8236   17.3801 C   0  0  0  0  0  0  0  0  0  0  0  0
   44.3339    1.1015   16.9314 C   0  0  0  0  0  0  0  0  0  0  0  0
   44.1822    2.4431   16.3483 N   0  0  0  0  0  0  0  0  0  0  0  0
  1  2  1  0  0  0  0
  2  3  1  0  0  0  0
  3  4  1  0  0  0  0
  4  5  1  0  0  0  0
  5  6  1  0  0  0  0
  6  7  1  0  0  0  0
  7  8  1  0  0  0  0
  8  9  1  0  0  0  0
  9 10  1  0  0  0  0
 10 11  1  0  0  0  0
 11 12  1  0  0  0  0
 12 13  1  0  0  0  0
 13 14  1  0  0  0  0
M  END
>  <CHROM.1>
-177.85790750,60.68356239,76.98278193,94.17194752,-65.30224800,-179.18703369
175.21321275,-170.91031250,172.71724930,-68.40957297,71.26587949,45.71325681
5.77767093,18.46359603,1.45105014,-1.12088889,-0.01778473

>  <Name>
ligand

>  <RI>
0

>  <Rbt.Current_Directory>
/home/itssahil/PROJECTS/Mol_Feturizer/New_Systems/rnas/1TN2

>  <Rbt.Executable>
rbdock ($Id: //depot/dev/client3/rdock/2013.1/src/exe/rbdock.cxx#4 $)

>  <Rbt.Library>
libRbt.so (2013.1, Build901 2013/11/27)

>  <Rbt.Parameter_File>
/export/apps/rDock/src/rDock_2013.1_src/data/scripts/dock_solv.prm

>  <Rbt.Receptor>
prm/blind_docking_100.prm

>  <SCORE>
-5.50097

>  <SCORE.INTER>
-4.39414

>  <SCORE.INTER.CONST>
1

>  <SCORE.INTER.POLAR>
0

>  <SCORE.INTER.ROT>
11

>  <SCORE.INTER.SOLV>
14.6449

>  <SCORE.INTER.VDW>
-18.7444

>  <SCORE.INTER.norm>
-0.313867

>  <SCORE.INTRA>
-1.10682

>  <SCORE.INTRA.DIHEDRAL>
-5.78954

>  <SCORE.INTRA.DIHEDRAL.0>
7.79482

>  <SCORE.INTRA.POLAR>
0

>  <SCORE.INTRA.POLAR.0>
0

>  <SCORE.INTRA.REPUL>
0

>  <SCORE.INTRA.REPUL.0>
0

>  <SCORE.INTRA.SOLV>
3.84086

>  <SCORE.INTRA.SOLV.lig_0>
-49.456

>  <SCORE.INTRA.VDW>
-0.132483

>  <SCORE.INTRA.VDW.0>
-0.478406

>  <SCORE.INTRA.norm>
-0.0790588

>  <SCORE.RESTR>
0

>  <SCORE.RESTR.CAVITY>
0

>  <SCORE.RESTR.norm>
0

>  <SCORE.SYSTEM>
0

>  <SCORE.SYSTEM.CONST>
0

>  <SCORE.SYSTEM.DIHEDRAL>
0

>  <SCORE.SYSTEM.SOLV>
0

>  <SCORE.SYSTEM.norm>
0

>  <SCORE.heavy>
14

>  <SCORE.norm>
-0.392926

>  <RMSD>
2.127

$$$$
ligand
 OpenBabel11021811413D
libRbt.so/2013.1/901 2013/11/27
 14 13  0  0  0  0  0  0  0  0999 V2000
   46.5693   11.9766   18.0699 N   0  0  0  0  0  0  0  0  0  0  0  0
   45.9735   11.1792   16.9762 C   0  0  0  0  0  0  0  0  0  0  0  0
   45.6267    9.7516   17.4513 C   0  0  0  0  0  0  0  0  0  0  0  0
   44.5037    9.6811   18.4991 C   0  0  0  0  0  0  0  0  0  0  0  0
   44.2970    8.2831   18.9676 N   0  0  0  0  0  0  0  0  0  0  0  0
   45.1970    7.9868   20.1118 C   0  0  0  0  0  0  0  0  0  0  0  0
   46.1382    6.7486   19.9293 C   0  0  0  0  0  0  0  0  0  0  0  0
   45.3885    5.4216   19.6172 C   0  0  0  0  0  0  0  0  0  0  0  0
   46.3014    4.2211   19.4606 C   0  0  0  0  0  0  0  0  0  0  0  0
   45.4945    3.1152   18.9808 N   0  0  0  0  0  0  0  0  0  0  0  0
   46.4273    2.0434   18.6793 C   0  0  0  0  0  0  0  0  0  0  0  0
   45.7959    0.9930   17.7731 C   0  0  0  0  0  0  0  0  0  0  0  0
   45.6533    1.6113   16.3741 C   0  0  0  0  0  0  0  0  0  0  0  0
   45.1328    0.6487   15.3917 N   0  0  0  0  0  0  0  0  0  0  0  0
  1  2  1  0  0  0  0
  2  3  1  0  0  0  0
  3  4  1  0  0  0  0
  4  5  1  0  0  0  0
  5  6  1  0  0  0  0
  6  7  1  0  0  0  0
  7  8  1  0  0  0  0
  8  9  1  0  0  0  0
  9 10  1  0  0  0  0
 10 11  1  0  0  0  0
 11 12  1  0  0  0  0
 12 13  1  0  0  0  0
 13 14  1  0  0  0  0
M  END
>  <CHROM.1>
66.69480583,-176.18802176,87.87365708,-123.98289919,-56.64220774,-179.17901292
-171.63729823,172.79413644,-162.20063364,71.71761275,176.22450866,45.60718244
5.97578520,18.30605138,2.00405111,-1.54204262,0.52345550

>  <Name>
ligand

>  <RI>
0

>  <Rbt.Current_Directory>
/home/itssahil/PROJECTS/Mol_Feturizer/New_Systems/rnas/1TN2

>  <Rbt.Executable>
rbdock ($Id: //depot/dev/client3/rdock/2013.1/src/exe/rbdock.cxx#4 $)

>  <Rbt.Library>
libRbt.so (2013.1, Build901 2013/11/27)

>  <Rbt.Parameter_File>
/export/apps/rDock/src/rDock_2013.1_src/data/scripts/dock_solv.prm

>  <Rbt.Receptor>
prm/pocket_docking_3.prm

>  <SCORE>
-5.83282

>  <SCORE.INTER>
-3.53301

>  <SCORE.INTER.CONST>
1

>  <SCORE.INTER.POLAR>
0

>  <SCORE.INTER.ROT>
11

>  <SCORE.INTER.SOLV>
11.9241

>  <SCORE.INTER.VDW>
-17.2634

>  <SCORE.INTER.norm>
-0.252358

>  <SCORE.INTRA>
-2.31041

>  <SCORE.INTRA.DIHEDRAL>
-4.70451

>  <SCORE.INTRA.DIHEDRAL.0>
7.79482

>  <SCORE.INTRA.POLAR>
0

>  <SCORE.INTRA.POLAR.0>
0

>  <SCORE.INTRA.REPUL>
0

>  <SCORE.INTRA.REPUL.0>
0

>  <SCORE.INTRA.SOLV>
1.31296

>  <SCORE.INTRA.SOLV.lig_0>
-49.456

>  <SCORE.INTRA.VDW>
-0.614634

>  <SCORE.INTRA.VDW.0>
-0.478406

>  <SCORE.INTRA.norm>
-0.165029

>  <SCORE.RESTR>
0.0105958

>  <SCORE.RESTR.CAVITY>
0.0105958

>  <SCORE.RESTR.norm>
0.000756845

>  <SCORE.SYSTEM>
0

>  <SCORE.SYSTEM.CONST>
0

>  <SCORE.SYSTEM.DIHEDRAL>
0

>  <SCORE.SYSTEM.SOLV>
0

>  <SCORE.SYSTEM.norm>
0

>  <SCORE.heavy>
14

>  <SCORE.norm>
-0.41663

>  <RMSD>
2.139

$$$$
ligand
 OpenBabel11021811413D
libRbt.so/2013.1/901 2013/11/27
 14 13  0  0  0  0  0  0  0  0999 V2000
   45.5142   -0.6116   14.9530 N   0  0  0  0  0  0  0  0  0  0  0  0
   44.6525    0.2488   15.7922 C   0  0  0  0  0  0  0  0  0  0  0  0
   45.3780    0.6705   17.0883 C   0  0  0  0  0  0  0  0  0  0  0  0
   44.5610    1.5931   18.0078 C   0  0  0  0  0  0  0  0  0  0  0  0
   45.3730    2.0426   19.1718 N   0  0  0  0  0  0  0  0  0  0  0  0
   46.0408    3.3334   18.8642 C   0  0  0  0  0  0  0  0  0  0  0  0
   45.6298    4.5412   19.7722 C   0  0  0  0  0  0  0  0  0  0  0  0
   46.2617    5.8982   19.3484 C   0  0  0  0  0  0  0  0  0  0  0  0
   45.8280    7.0728   20.2035 C   0  0  0  0  0  0  0  0  0  0  0  0
   44.4167    7.2990   19.9561 N   0  0  0  0  0  0  0  0  0  0  0  0
   44.2906    8.7087   19.6300 C   0  0  0  0  0  0  0  0  0  0  0  0
   42.8714    9.0561   19.1961 C   0  0  0  0  0  0  0  0  0  0  0  0
   42.8805   10.5087   18.6964 C   0  0  0  0  0  0  0  0  0  0  0  0
   43.7929   10.6991   17.5588 N   0  0  0  0  0  0  0  0  0  0  0  0
  1  2  1  0  0  0  0
  2  3  1  0  0  0  0
  3  4  1  0  0  0  0
  4  5  1  0  0  0  0
  5  6  1  0  0  0  0
  6  7  1  0  0  0  0
  7  8  1  0  0  0  0
  8  9  1  0  0  0  0
  9 10  1  0  0  0  0
 10 11  1  0  0  0  0
 11 12  1  0  0  0  0
 12 13  1  0  0  0  0
 13 14  1  0  0  0  0
M  END
>  <CHROM.1>
178.80693956,-175.18795448,92.26396126,117.73200446,-175.33276090,178.20846972
-67.32973292,-128.22644348,173.77874694,-172.57991227,59.92311252,44.82080749
5.07585021,18.44584585,1.27101908,1.02011871,-2.63049237

>  <Name>
ligand

>  <RI>
0

>  <Rbt.Current_Directory>
/home/itssahil/PROJECTS/Mol_Feturizer/New_Systems/rnas/1TN2

>  <Rbt.Executable>
rbdock ($Id: //depot/dev/client3/rdock/2013.1/src/exe/rbdock.cxx#4 $)

>  <Rbt.Library>
libRbt.so (2013.1, Build901 2013/11/27)

>  <Rbt.Parameter_File>
/export/apps/rDock/src/rDock_2013.1_src/data/scripts/dock_solv.prm

>  <Rbt.Receptor>
prm/pocket_docking_3.prm

>  <SCORE>
-8.85308

>  <SCORE.INTER>
-7.19772

>  <SCORE.INTER.CONST>
1

>  <SCORE.INTER.POLAR>
0

>  <SCORE.INTER.ROT>
11

>  <SCORE.INTER.SOLV>
14.4828

>  <SCORE.INTER.VDW>
-20.5594

>  <SCORE.INTER.norm>
-0.514123

>  <SCORE.INTRA>
-1.66956

>  <SCORE.INTRA.DIHEDRAL>
-4.15686

>  <SCORE.INTRA.DIHEDRAL.0>
7.79482

>  <SCORE.INTRA.POLAR>
0

>  <SCORE.INTRA.POLAR.0>
0

>  <SCORE.INTRA.REPUL>
0

>  <SCORE.INTRA.REPUL.0>
0

>  <SCORE.INTRA.SOLV>
1.29239

>  <SCORE.INTRA.SOLV.lig_0>
-49.456

>  <SCORE.INTRA.VDW>
-0.237331

>  <SCORE.INTRA.VDW.0>
-0.478406

>  <SCORE.INTRA.norm>
-0.119255

>  <SCORE.RESTR>
0.0142068

>  <SCORE.RESTR.CAVITY>
0.0142068

>  <SCORE.RESTR.norm>
0.00101477

>  <SCORE.SYSTEM>
0

>  <SCORE.SYSTEM.CONST>
0

>  <SCORE.SYSTEM.DIHEDRAL>
0

>  <SCORE.SYSTEM.SOLV>
0

>  <SCORE.SYSTEM.norm>
0

>  <SCORE.heavy>
14

>  <SCORE.norm>
-0.632363

>  <RMSD>
2.140

$$$$
ligand
 OpenBabel11021811413D
libRbt.so/2013.1/901 2013/11/27
 14 13  0  0  0  0  0  0  0  0999 V2000
   45.1838   -0.5930   15.1167 N   0  0  0  0  0  0  0  0  0  0  0  0
   45.3643   -0.4741   16.5797 C   0  0  0  0  0  0  0  0  0  0  0  0
   45.7862    0.9574   16.9754 C   0  0  0  0  0  0  0  0  0  0  0  0
   46.0561    1.1531   18.4763 C   0  0  0  0  0  0  0  0  0  0  0  0
   46.6802    2.4791   18.7386 N   0  0  0  0  0  0  0  0  0  0  0  0
   45.6448    3.4613   19.1506 C   0  0  0  0  0  0  0  0  0  0  0  0
   46.1822    4.7683   19.8253 C   0  0  0  0  0  0  0  0  0  0  0  0
   45.0845    5.8330   20.1113 C   0  0  0  0  0  0  0  0  0  0  0  0
   45.6300    7.1728   20.5655 C   0  0  0  0  0  0  0  0  0  0  0  0
   46.5537    7.6387   19.5486 N   0  0  0  0  0  0  0  0  0  0  0  0
   46.5364    9.0888   19.6295 C   0  0  0  0  0  0  0  0  0  0  0  0
   45.9962    9.7124   18.3479 C   0  0  0  0  0  0  0  0  0  0  0  0
   46.0593   11.2386   18.5112 C   0  0  0  0  0  0  0  0  0  0  0  0
   45.5639   11.9457   17.3207 N   0  0  0  0  0  0  0  0  0  0  0  0
  1  2  1  0  0  0  0
  2  3  1  0  0  0  0
  3  4  1  0  0  0  0
  4  5  1  0  0  0  0
  5  6  1  0  0  0  0
  6  7  1  0  0  0  0
  7  8  1  0  0  0  0
  8  9  1  0  0  0  0
  9 10  1  0  0  0  0
 10 11  1  0  0  0  0
 11 12  1  0  0  0  0
 12 13  1  0  0  0  0
 13 14  1  0  0  0  0
M  END
>  <CHROM.1>
-177.43488269,170.11415027,97.11306698,164.07649664,174.12274898,-171.13873765
56.45184861,152.31399161,-116.17725241,-178.20176687,179.73085146,45.88007329
5.31297766,18.49299852,1.83474664,1.44390119,3.05608346

>  <Name>
ligand

>  <RI>
0

>  <Rbt.Current_Directory>
/home/itssahil/PROJECTS/Mol_Feturizer/New_Systems/rnas/1TN2

>  <Rbt.Executable>
rbdock ($Id: //depot/dev/client3/rdock/2013.1/src/exe/rbdock.cxx#4 $)

>  <Rbt.Library>
libRbt.so (2013.1, Build901 2013/11/27)

>  <Rbt.Parameter_File>
/export/apps/rDock/src/rDock_2013.1_src/data/scripts/dock_solv.prm

>  <Rbt.Receptor>
prm/pocket_docking_3.prm

>  <SCORE>
-8.86764

>  <SCORE.INTER>
-6.63328

>  <SCORE.INTER.CONST>
1

>  <SCORE.INTER.POLAR>
0

>  <SCORE.INTER.ROT>
11

>  <SCORE.INTER.SOLV>
12.4293

>  <SCORE.INTER.VDW>
-19.4986

>  <SCORE.INTER.norm>
-0.473806

>  <SCORE.INTRA>
-2.23436

>  <SCORE.INTRA.DIHEDRAL>
-4.16467

>  <SCORE.INTRA.DIHEDRAL.0>
7.79482

>  <SCORE.INTRA.POLAR>
0

>  <SCORE.INTRA.POLAR.0>
0

>  <SCORE.INTRA.REPUL>
0

>  <SCORE.INTRA.REPUL.0>
0

>  <SCORE.INTRA.SOLV>
0.415967

>  <SCORE.INTRA.SOLV.lig_0>
-49.456

>  <SCORE.INTRA.VDW>
-0.360008

>  <SCORE.INTRA.VDW.0>
-0.478406

>  <SCORE.INTRA.norm>
-0.159597

>  <SCORE.RESTR>
0

>  <SCORE.RESTR.CAVITY>
0

>  <SCORE.RESTR.norm>
0

>  <SCORE.SYSTEM>
0

>  <SCORE.SYSTEM.CONST>
0

>  <SCORE.SYSTEM.DIHEDRAL>
0

>  <SCORE.SYSTEM.SOLV>
0

>  <SCORE.SYSTEM.norm>
0

>  <SCORE.heavy>
14

>  <SCORE.norm>
-0.633403

>  <RMSD>
2.149

$$$$
ligand
 OpenBabel11021811413D
libRbt.so/2013.1/901 2013/11/27
 14 13  0  0  0  0  0  0  0  0999 V2000
   44.5017   12.7526   15.5280 N   0  0  0  0  0  0  0  0  0  0  0  0
   45.2653   11.5040   15.7407 C   0  0  0  0  0  0  0  0  0  0  0  0
   44.7395   10.7308   16.9694 C   0  0  0  0  0  0  0  0  0  0  0  0
   45.5285    9.4555   17.3085 C   0  0  0  0  0  0  0  0  0  0  0  0
   44.8515    8.6780   18.3826 N   0  0  0  0  0  0  0  0  0  0  0  0
   45.3900    9.0632   19.7124 C   0  0  0  0  0  0  0  0  0  0  0  0
   46.5109    8.1312   20.2844 C   0  0  0  0  0  0  0  0  0  0  0  0
   46.0324    6.6864   20.6065 C   0  0  0  0  0  0  0  0  0  0  0  0
   45.8873    5.7994   19.3854 C   0  0  0  0  0  0  0  0  0  0  0  0
   45.4394    4.4965   19.8394 N   0  0  0  0  0  0  0  0  0  0  0  0
   45.9132    3.5454   18.8491 C   0  0  0  0  0  0  0  0  0  0  0  0
   45.2114    2.1995   18.9879 C   0  0  0  0  0  0  0  0  0  0  0  0
   45.8411    1.2396   17.9672 C   0  0  0  0  0  0  0  0  0  0  0  0
   45.6094    1.6726   16.5810 N   0  0  0  0  0  0  0  0  0  0  0  0
  1  2  1  0  0  0  0
  2  3  1  0  0  0  0
  3  4  1  0  0  0  0
  4  5  1  0  0  0  0
  5  6  1  0  0  0  0
  6  7  1  0  0  0  0
  7  8  1  0  0  0  0
  8  9  1  0  0  0  0
  9 10  1  0  0  0  0
 10 11  1  0  0  0  0
 11 12  1  0  0  0  0
 12 13  1  0  0  0  0
 13 14  1  0  0  0  0
M  END
>  <CHROM.1>
-176.83554362,-172.33173429,-92.89836279,-96.75219951,-65.34714634,77.52125943
179.97264281,-153.17695237,-164.74811702,-176.30938928,-63.94556970,45.48028418
6.85390005,18.29617846,1.97937516,-1.38303355,0.21213893

>  <Name>
ligand

>  <RI>
0

>  <Rbt.Current_Directory>
/home/itssahil/PROJECTS/Mol_Feturizer/New_Systems/rnas/1TN2

>  <Rbt.Executable>
rbdock ($Id: //depot/dev/client3/rdock/2013.1/src/exe/rbdock.cxx#4 $)

>  <Rbt.Library>
libRbt.so (2013.1, Build901 2013/11/27)

>  <Rbt.Parameter_File>
/export/apps/rDock/src/rDock_2013.1_src/data/scripts/dock_solv.prm

>  <Rbt.Receptor>
prm/pocket_docking_4.prm

>  <SCORE>
-6.52685

>  <SCORE.INTER>
-4.93908

>  <SCORE.INTER.CONST>
1

>  <SCORE.INTER.POLAR>
0

>  <SCORE.INTER.ROT>
11

>  <SCORE.INTER.SOLV>
11.4481

>  <SCORE.INTER.VDW>
-18.0421

>  <SCORE.INTER.norm>
-0.352791

>  <SCORE.INTRA>
-1.58777

>  <SCORE.INTRA.DIHEDRAL>
-3.93964

>  <SCORE.INTRA.DIHEDRAL.0>
7.79482

>  <SCORE.INTRA.POLAR>
0

>  <SCORE.INTRA.POLAR.0>
0

>  <SCORE.INTRA.REPUL>
0

>  <SCORE.INTRA.REPUL.0>
0

>  <SCORE.INTRA.SOLV>
1.6462

>  <SCORE.INTRA.SOLV.lig_0>
-49.456

>  <SCORE.INTRA.VDW>
-0.441056

>  <SCORE.INTRA.VDW.0>
-0.478406

>  <SCORE.INTRA.norm>
-0.113412

>  <SCORE.RESTR>
0

>  <SCORE.RESTR.CAVITY>
0

>  <SCORE.RESTR.norm>
0

>  <SCORE.SYSTEM>
0

>  <SCORE.SYSTEM.CONST>
0

>  <SCORE.SYSTEM.DIHEDRAL>
0

>  <SCORE.SYSTEM.SOLV>
0

>  <SCORE.SYSTEM.norm>
0

>  <SCORE.heavy>
14

>  <SCORE.norm>
-0.466204

>  <RMSD>
2.162

$$$$
ligand
 OpenBabel11021811413D
libRbt.so/2013.1/901 2013/11/27
 14 13  0  0  0  0  0  0  0  0999 V2000
   46.8519   10.3287   16.4420 N   0  0  0  0  0  0  0  0  0  0  0  0
   46.5012   11.1088   17.6485 C   0  0  0  0  0  0  0  0  0  0  0  0
   45.1053   10.7173   18.1798 C   0  0  0  0  0  0  0  0  0  0  0  0
   45.0182    9.2982   18.7649 C   0  0  0  0  0  0  0  0  0  0  0  0
   45.9096    9.1524   19.9484 N   0  0  0  0  0  0  0  0  0  0  0  0
   46.3739    7.7467   20.0715 C   0  0  0  0  0  0  0  0  0  0  0  0
   45.3478    6.7483   20.7059 C   0  0  0  0  0  0  0  0  0  0  0  0
   45.8015    5.2607   20.6662 C   0  0  0  0  0  0  0  0  0  0  0  0
   45.9008    4.6846   19.2672 C   0  0  0  0  0  0  0  0  0  0  0  0
   46.3328    3.3052   19.3897 N   0  0  0  0  0  0  0  0  0  0  0  0
   45.6418    2.5770   18.3399 C   0  0  0  0  0  0  0  0  0  0  0  0
   46.0645    1.1130   18.3056 C   0  0  0  0  0  0  0  0  0  0  0  0
   45.3544    0.4521   17.1144 C   0  0  0  0  0  0  0  0  0  0  0  0
   45.7147   -0.9664   16.9703 N   0  0  0  0  0  0  0  0  0  0  0  0
  1  2  1  0  0  0  0
  2  3  1  0  0  0  0
  3  4  1  0  0  0  0
  4  5  1  0  0  0  0
  5  6  1  0  0  0  0
  6  7  1  0  0  0  0
  7  8  1  0  0  0  0
  8  9  1  0  0  0  0
  9 10  1  0  0  0  0
 10 11  1  0  0  0  0
 11 12  1  0  0  0  0
 12 13  1  0  0  0  0
 13 14  1  0  0  0  0
M  END
>  <CHROM.1>
68.30817123,62.46816244,-150.62361610,-79.29670454,173.19840814,-65.93419426
179.90123560,144.18243569,176.94605689,-176.40702568,178.83978718,45.85115865
5.82347356,18.70123079,-1.35432921,-1.48149143,-2.87195520

>  <Name>
ligand

>  <RI>
0

>  <Rbt.Current_Directory>
/home/itssahil/PROJECTS/Mol_Feturizer/New_Systems/rnas/1TN2

>  <Rbt.Executable>
rbdock ($Id: //depot/dev/client3/rdock/2013.1/src/exe/rbdock.cxx#4 $)

>  <Rbt.Library>
libRbt.so (2013.1, Build901 2013/11/27)

>  <Rbt.Parameter_File>
/export/apps/rDock/src/rDock_2013.1_src/data/scripts/dock_solv.prm

>  <Rbt.Receptor>
prm/pocket_docking_6.prm

>  <SCORE>
-7.86004

>  <SCORE.INTER>
-5.70974

>  <SCORE.INTER.CONST>
1

>  <SCORE.INTER.POLAR>
0

>  <SCORE.INTER.ROT>
11

>  <SCORE.INTER.SOLV>
16.8633

>  <SCORE.INTER.VDW>
-20.3609

>  <SCORE.INTER.norm>
-0.407838

>  <SCORE.INTRA>
-2.15031

>  <SCORE.INTRA.DIHEDRAL>
-5.49212

>  <SCORE.INTRA.DIHEDRAL.0>
7.79482

>  <SCORE.INTRA.POLAR>
0

>  <SCORE.INTRA.POLAR.0>
0

>  <SCORE.INTRA.REPUL>
0

>  <SCORE.INTRA.REPUL.0>
0

>  <SCORE.INTRA.SOLV>
1.83917

>  <SCORE.INTRA.SOLV.lig_0>
-49.456

>  <SCORE.INTRA.VDW>
-0.323833

>  <SCORE.INTRA.VDW.0>
-0.478406

>  <SCORE.INTRA.norm>
-0.153593

>  <SCORE.RESTR>
0

>  <SCORE.RESTR.CAVITY>
0

>  <SCORE.RESTR.norm>
0

>  <SCORE.SYSTEM>
0

>  <SCORE.SYSTEM.CONST>
0

>  <SCORE.SYSTEM.DIHEDRAL>
0

>  <SCORE.SYSTEM.SOLV>
0

>  <SCORE.SYSTEM.norm>
0

>  <SCORE.heavy>
14

>  <SCORE.norm>
-0.561432

>  <RMSD>
2.165

$$$$
ligand
 OpenBabel11021811413D
libRbt.so/2013.1/901 2013/11/27
 14 13  0  0  0  0  0  0  0  0999 V2000
   43.8305    0.4182   15.9760 N   0  0  0  0  0  0  0  0  0  0  0  0
   45.2681    0.1186   16.1509 C   0  0  0  0  0  0  0  0  0  0  0  0
   46.0651    1.3936   16.5020 C   0  0  0  0  0  0  0  0  0  0  0  0
   45.7526    1.9823   17.8875 C   0  0  0  0  0  0  0  0  0  0  0  0
   46.5163    3.2392   18.1187 N   0  0  0  0  0  0  0  0  0  0  0  0
   46.0456    3.9049   19.3605 C   0  0  0  0  0  0  0  0  0  0  0  0
   45.9708    5.4680   19.3037 C   0  0  0  0  0  0  0  0  0  0  0  0
   45.5936    6.1354   20.6574 C   0  0  0  0  0  0  0  0  0  0  0  0
   45.3587    7.6303   20.5624 C   0  0  0  0  0  0  0  0  0  0  0  0
   44.0812    7.8334   19.9058 N   0  0  0  0  0  0  0  0  0  0  0  0
   44.1184    9.1838   19.3721 C   0  0  0  0  0  0  0  0  0  0  0  0
   42.7246    9.6738   18.9970 C   0  0  0  0  0  0  0  0  0  0  0  0
   42.8868   10.9987   18.2365 C   0  0  0  0  0  0  0  0  0  0  0  0
   41.5915   11.5939   17.8752 N   0  0  0  0  0  0  0  0  0  0  0  0
  1  2  1  0  0  0  0
  2  3  1  0  0  0  0
  3  4  1  0  0  0  0
  4  5  1  0  0  0  0
  5  6  1  0  0  0  0
  6  7  1  0  0  0  0
  7  8  1  0  0  0  0
  8  9  1  0  0  0  0
  9 10  1  0  0  0  0
 10 11  1  0  0  0  0
 11 12  1  0  0  0  0
 12 13  1  0  0  0  0
 13 14  1  0  0  0  0
M  END
>  <CHROM.1>
67.89730782,-177.44021001,171.07501471,-141.60150479,-174.95479118,-173.03397846
73.78411535,-158.48782531,-164.23656448,-170.82550702,-177.50462780,44.70055896
5.68382019,18.49347689,1.19511297,0.80473264,-2.64292109

>  <Name>
ligand

>  <RI>
0

>  <Rbt.Current_Directory>
/home/itssahil/PROJECTS/Mol_Feturizer/New_Systems/rnas/1TN2

>  <Rbt.Executable>
rbdock ($Id: //depot/dev/client3/rdock/2013.1/src/exe/rbdock.cxx#4 $)

>  <Rbt.Library>
libRbt.so (2013.1, Build901 2013/11/27)

>  <Rbt.Parameter_File>
/export/apps/rDock/src/rDock_2013.1_src/data/scripts/dock_solv.prm

>  <Rbt.Receptor>
prm/pocket_docking_4.prm

>  <SCORE>
-7.2274

>  <SCORE.INTER>
-4.51704

>  <SCORE.INTER.CONST>
1

>  <SCORE.INTER.POLAR>
0

>  <SCORE.INTER.ROT>
11

>  <SCORE.INTER.SOLV>
21.0649

>  <SCORE.INTER.VDW>
-20.9663

>  <SCORE.INTER.norm>
-0.322646

>  <SCORE.INTRA>
-2.71036

>  <SCORE.INTRA.DIHEDRAL>
-4.76151

>  <SCORE.INTRA.DIHEDRAL.0>
7.79482

>  <SCORE.INTRA.POLAR>
0

>  <SCORE.INTRA.POLAR.0>
0

>  <SCORE.INTRA.REPUL>
0

>  <SCORE.INTRA.REPUL.0>
0

>  <SCORE.INTRA.SOLV>
0.952192

>  <SCORE.INTRA.SOLV.lig_0>
-49.456

>  <SCORE.INTRA.VDW>
-0.805702

>  <SCORE.INTRA.VDW.0>
-0.478406

>  <SCORE.INTRA.norm>
-0.193597

>  <SCORE.RESTR>
0

>  <SCORE.RESTR.CAVITY>
0

>  <SCORE.RESTR.norm>
0

>  <SCORE.SYSTEM>
0

>  <SCORE.SYSTEM.CONST>
0

>  <SCORE.SYSTEM.DIHEDRAL>
0

>  <SCORE.SYSTEM.SOLV>
0

>  <SCORE.SYSTEM.norm>
0

>  <SCORE.heavy>
14

>  <SCORE.norm>
-0.516243

>  <RMSD>
2.174

$$$$
ligand
 OpenBabel11021811413D
libRbt.so/2013.1/901 2013/11/27
 14 13  0  0  0  0  0  0  0  0999 V2000
   45.3283    1.6123   16.4639 N   0  0  0  0  0  0  0  0  0  0  0  0
   45.8773    1.0915   17.7346 C   0  0  0  0  0  0  0  0  0  0  0  0
   45.2223    1.7824   18.9502 C   0  0  0  0  0  0  0  0  0  0  0  0
   45.4716    3.2971   19.0363 C   0  0  0  0  0  0  0  0  0  0  0  0
   45.0182    3.8397   20.3465 N   0  0  0  0  0  0  0  0  0  0  0  0
   44.6426    5.2702   20.2075 C   0  0  0  0  0  0  0  0  0  0  0  0
   45.8360    6.2837   20.1813 C   0  0  0  0  0  0  0  0  0  0  0  0
   45.4023    7.7722   20.0516 C   0  0  0  0  0  0  0  0  0  0  0  0
   46.5604    8.7408   19.9120 C   0  0  0  0  0  0  0  0  0  0  0  0
   46.0048   10.0559   19.6550 N   0  0  0  0  0  0  0  0  0  0  0  0
   45.8145   10.1336   18.2172 C   0  0  0  0  0  0  0  0  0  0  0  0
   44.8840   11.2800   17.8389 C   0  0  0  0  0  0  0  0  0  0  0  0
   44.6563   11.2123   16.3211 C   0  0  0  0  0  0  0  0  0  0  0  0
   45.8926   11.4550   15.5626 N   0  0  0  0  0  0  0  0  0  0  0  0
  1  2  1  0  0  0  0
  2  3  1  0  0  0  0
  3  4  1  0  0  0  0
  4  5  1  0  0  0  0
  5  6  1  0  0  0  0
  6  7  1  0  0  0  0
  7  8  1  0  0  0  0
  8  9  1  0  0  0  0
  9 10  1  0  0  0  0
 10 11  1  0  0  0  0
 11 12  1  0  0  0  0
 12 13  1  0  0  0  0
 13 14  1  0  0  0  0
M  END
>  <CHROM.1>
-62.68495946,-169.96387273,-152.71599491,-79.08365858,-179.31522644,-175.24420807
173.84540979,-86.38601064,163.78366554,-175.57388453,-64.83265624,45.47218677
6.70189466,18.60585163,1.83820490,1.51958924,2.77005269

>  <Name>
ligand

>  <RI>
0

>  <Rbt.Current_Directory>
/home/itssahil/PROJECTS/Mol_Feturizer/New_Systems/rnas/1TN2

>  <Rbt.Executable>
rbdock ($Id: //depot/dev/client3/rdock/2013.1/src/exe/rbdock.cxx#4 $)

>  <Rbt.Library>
libRbt.so (2013.1, Build901 2013/11/27)

>  <Rbt.Parameter_File>
/export/apps/rDock/src/rDock_2013.1_src/data/scripts/dock_solv.prm

>  <Rbt.Receptor>
prm/pocket_docking_3.prm

>  <SCORE>
-5.80528

>  <SCORE.INTER>
-4.23949

>  <SCORE.INTER.CONST>
1

>  <SCORE.INTER.POLAR>
0

>  <SCORE.INTER.ROT>
11

>  <SCORE.INTER.SOLV>
11.7139

>  <SCORE.INTER.VDW>
-17.6643

>  <SCORE.INTER.norm>
-0.302821

>  <SCORE.INTRA>
-1.56578

>  <SCORE.INTRA.DIHEDRAL>
-5.51418

>  <SCORE.INTRA.DIHEDRAL.0>
7.79482

>  <SCORE.INTRA.POLAR>
0

>  <SCORE.INTRA.POLAR.0>
0

>  <SCORE.INTRA.REPUL>
0

>  <SCORE.INTRA.REPUL.0>
0

>  <SCORE.INTRA.SOLV>
1.43632

>  <SCORE.INTRA.SOLV.lig_0>
-49.456

>  <SCORE.INTRA.VDW>
0.473148

>  <SCORE.INTRA.VDW.0>
-0.478406

>  <SCORE.INTRA.norm>
-0.111842

>  <SCORE.RESTR>
0

>  <SCORE.RESTR.CAVITY>
0

>  <SCORE.RESTR.norm>
0

>  <SCORE.SYSTEM>
0

>  <SCORE.SYSTEM.CONST>
0

>  <SCORE.SYSTEM.DIHEDRAL>
0

>  <SCORE.SYSTEM.SOLV>
0

>  <SCORE.SYSTEM.norm>
0

>  <SCORE.heavy>
14

>  <SCORE.norm>
-0.414663

>  <RMSD>
2.198

$$$$
ligand
 OpenBabel11021811413D
libRbt.so/2013.1/901 2013/11/27
 14 13  0  0  0  0  0  0  0  0999 V2000
   45.4402    0.7132   17.6389 N   0  0  0  0  0  0  0  0  0  0  0  0
   45.4611    1.7414   18.7017 C   0  0  0  0  0  0  0  0  0  0  0  0
   45.9289    3.1053   18.1495 C   0  0  0  0  0  0  0  0  0  0  0  0
   45.9452    4.2428   19.1838 C   0  0  0  0  0  0  0  0  0  0  0  0
   46.2470    5.5492   18.5367 N   0  0  0  0  0  0  0  0  0  0  0  0
   46.3716    6.6145   19.5644 C   0  0  0  0  0  0  0  0  0  0  0  0
   47.1570    7.8945   19.1205 C   0  0  0  0  0  0  0  0  0  0  0  0
   46.4876    8.6781   17.9552 C   0  0  0  0  0  0  0  0  0  0  0  0
   45.2086    9.3914   18.3478 C   0  0  0  0  0  0  0  0  0  0  0  0
   44.7954   10.2053   17.2203 N   0  0  0  0  0  0  0  0  0  0  0  0
   43.6334   10.9506   17.6721 C   0  0  0  0  0  0  0  0  0  0  0  0
   43.0585   11.8167   16.5573 C   0  0  0  0  0  0  0  0  0  0  0  0
   41.8141   12.5249   17.1139 C   0  0  0  0  0  0  0  0  0  0  0  0
   42.1570   13.5428   18.1185 N   0  0  0  0  0  0  0  0  0  0  0  0
  1  2  1  0  0  0  0
  2  3  1  0  0  0  0
  3  4  1  0  0  0  0
  4  5  1  0  0  0  0
  5  6  1  0  0  0  0
  6  7  1  0  0  0  0
  7  8  1  0  0  0  0
  8  9  1  0  0  0  0
  9 10  1  0  0  0  0
 10 11  1  0  0  0  0
 11 12  1  0  0  0  0
 12 13  1  0  0  0  0
 13 14  1  0  0  0  0
M  END
>  <CHROM.1>
178.50433086,-173.13638915,-175.23762427,159.51996762,63.33244730,70.55392248
172.97064768,-175.55347839,-177.82266449,178.14273652,69.53558430,44.97909746
7.64082243,18.13443895,1.24794193,0.42000251,-3.11377271

>  <Name>
ligand

>  <RI>
0

>  <Rbt.Current_Directory>
/home/itssahil/PROJECTS/Mol_Feturizer/New_Systems/rnas/1TN2

>  <Rbt.Executable>
rbdock ($Id: //depot/dev/client3/rdock/2013.1/src/exe/rbdock.cxx#4 $)

>  <Rbt.Library>
libRbt.so (2013.1, Build901 2013/11/27)

>  <Rbt.Parameter_File>
/export/apps/rDock/src/rDock_2013.1_src/data/scripts/dock_solv.prm

>  <Rbt.Receptor>
prm/pocket_docking_2.prm

>  <SCORE>
-6.79968

>  <SCORE.INTER>
-3.78

>  <SCORE.INTER.CONST>
1

>  <SCORE.INTER.POLAR>
0

>  <SCORE.INTER.ROT>
11

>  <SCORE.INTER.SOLV>
15.4311

>  <SCORE.INTER.VDW>
-18.597

>  <SCORE.INTER.norm>
-0.27

>  <SCORE.INTRA>
-3.05475

>  <SCORE.INTRA.DIHEDRAL>
-6.22609

>  <SCORE.INTRA.DIHEDRAL.0>
7.79482

>  <SCORE.INTRA.POLAR>
0

>  <SCORE.INTRA.POLAR.0>
0

>  <SCORE.INTRA.REPUL>
0

>  <SCORE.INTRA.REPUL.0>
0

>  <SCORE.INTRA.SOLV>
1.27264

>  <SCORE.INTRA.SOLV.lig_0>
-49.456

>  <SCORE.INTRA.VDW>
-0.578023

>  <SCORE.INTRA.VDW.0>
-0.478406

>  <SCORE.INTRA.norm>
-0.218196

>  <SCORE.RESTR>
0.035065

>  <SCORE.RESTR.CAVITY>
0.035065

>  <SCORE.RESTR.norm>
0.00250465

>  <SCORE.SYSTEM>
0

>  <SCORE.SYSTEM.CONST>
0

>  <SCORE.SYSTEM.DIHEDRAL>
0

>  <SCORE.SYSTEM.SOLV>
0

>  <SCORE.SYSTEM.norm>
0

>  <SCORE.heavy>
14

>  <SCORE.norm>
-0.485692

>  <RMSD>
2.200

$$$$
ligand
 OpenBabel11021811413D
libRbt.so/2013.1/901 2013/11/27
 14 13  0  0  0  0  0  0  0  0999 V2000
   45.9332   -1.5514   16.5905 N   0  0  0  0  0  0  0  0  0  0  0  0
   45.3764   -0.3327   15.9645 C   0  0  0  0  0  0  0  0  0  0  0  0
   44.7277    0.5898   17.0191 C   0  0  0  0  0  0  0  0  0  0  0  0
   45.7165    1.2165   18.0159 C   0  0  0  0  0  0  0  0  0  0  0  0
   45.0016    2.0279   19.0391 N   0  0  0  0  0  0  0  0  0  0  0  0
   45.7222    3.3051   19.2767 C   0  0  0  0  0  0  0  0  0  0  0  0
   45.0337    4.2947   20.2762 C   0  0  0  0  0  0  0  0  0  0  0  0
   45.8651    5.5749   20.5764 C   0  0  0  0  0  0  0  0  0  0  0  0
   46.0788    6.4672   19.3694 C   0  0  0  0  0  0  0  0  0  0  0  0
   46.7598    7.6649   19.8234 N   0  0  0  0  0  0  0  0  0  0  0  0
   47.2555    8.3194   18.6253 C   0  0  0  0  0  0  0  0  0  0  0  0
   46.7974    9.7714   18.5528 C   0  0  0  0  0  0  0  0  0  0  0  0
   45.2760    9.7687   18.3406 C   0  0  0  0  0  0  0  0  0  0  0  0
   44.7439   11.1213   18.1166 N   0  0  0  0  0  0  0  0  0  0  0  0
  1  2  1  0  0  0  0
  2  3  1  0  0  0  0
  3  4  1  0  0  0  0
  4  5  1  0  0  0  0
  5  6  1  0  0  0  0
  6  7  1  0  0  0  0
  7  8  1  0  0  0  0
  8  9  1  0  0  0  0
  9 10  1  0  0  0  0
 10 11  1  0  0  0  0
 11 12  1  0  0  0  0
 12 13  1  0  0  0  0
 13 14  1  0  0  0  0
M  END
>  <CHROM.1>
67.01471736,-176.87547620,-137.13859272,176.71694081,175.90822392,64.14118206
175.05652928,165.41374775,126.33449082,-67.77905488,-174.08061580,45.73490291
4.87413832,18.54195785,2.24319931,1.47321007,2.63717715

>  <Name>
ligand

>  <RI>
0

>  <Rbt.Current_Directory>
/home/itssahil/PROJECTS/Mol_Feturizer/New_Systems/rnas/1TN2

>  <Rbt.Executable>
rbdock ($Id: //depot/dev/client3/rdock/2013.1/src/exe/rbdock.cxx#4 $)

>  <Rbt.Library>
libRbt.so (2013.1, Build901 2013/11/27)

>  <Rbt.Parameter_File>
/export/apps/rDock/src/rDock_2013.1_src/data/scripts/dock_solv.prm

>  <Rbt.Receptor>
prm/pocket_docking_5.prm

>  <SCORE>
-7.33849

>  <SCORE.INTER>
-5.20389

>  <SCORE.INTER.CONST>
1

>  <SCORE.INTER.POLAR>
0

>  <SCORE.INTER.ROT>
11

>  <SCORE.INTER.SOLV>
18.1443

>  <SCORE.INTER.VDW>
-20.4507

>  <SCORE.INTER.norm>
-0.371707

>  <SCORE.INTRA>
-2.1346

>  <SCORE.INTRA.DIHEDRAL>
-4.6729

>  <SCORE.INTRA.DIHEDRAL.0>
7.79482

>  <SCORE.INTRA.POLAR>
0

>  <SCORE.INTRA.POLAR.0>
0

>  <SCORE.INTRA.REPUL>
0

>  <SCORE.INTRA.REPUL.0>
0

>  <SCORE.INTRA.SOLV>
1.09847

>  <SCORE.INTRA.SOLV.lig_0>
-49.456

>  <SCORE.INTRA.VDW>
-0.347391

>  <SCORE.INTRA.VDW.0>
-0.478406

>  <SCORE.INTRA.norm>
-0.152472

>  <SCORE.RESTR>
0

>  <SCORE.RESTR.CAVITY>
0

>  <SCORE.RESTR.norm>
0

>  <SCORE.SYSTEM>
0

>  <SCORE.SYSTEM.CONST>
0

>  <SCORE.SYSTEM.DIHEDRAL>
0

>  <SCORE.SYSTEM.SOLV>
0

>  <SCORE.SYSTEM.norm>
0

>  <SCORE.heavy>
14

>  <SCORE.norm>
-0.524178

>  <RMSD>
2.219

$$$$
ligand
 OpenBabel11021811413D
libRbt.so/2013.1/901 2013/11/27
 14 13  0  0  0  0  0  0  0  0999 V2000
   45.4095   -2.1527   15.3925 N   0  0  0  0  0  0  0  0  0  0  0  0
   45.7662   -1.4204   16.6268 C   0  0  0  0  0  0  0  0  0  0  0  0
   45.2755    0.0425   16.5694 C   0  0  0  0  0  0  0  0  0  0  0  0
   45.5413    0.8571   17.8459 C   0  0  0  0  0  0  0  0  0  0  0  0
   45.0038    2.2397   17.7192 N   0  0  0  0  0  0  0  0  0  0  0  0
   45.1727    2.9755   18.9986 C   0  0  0  0  0  0  0  0  0  0  0  0
   45.9352    4.3396   18.8990 C   0  0  0  0  0  0  0  0  0  0  0  0
   45.6832    5.2972   20.0990 C   0  0  0  0  0  0  0  0  0  0  0  0
   46.4160    6.6204   19.9951 C   0  0  0  0  0  0  0  0  0  0  0  0
   45.9536    7.2854   18.7916 N   0  0  0  0  0  0  0  0  0  0  0  0
   46.7567    8.4894   18.6686 C   0  0  0  0  0  0  0  0  0  0  0  0
   46.0005    9.7170   19.1628 C   0  0  0  0  0  0  0  0  0  0  0  0
   44.8246    9.9560   18.2035 C   0  0  0  0  0  0  0  0  0  0  0  0
   45.2671   10.4772   16.9014 N   0  0  0  0  0  0  0  0  0  0  0  0
  1  2  1  0  0  0  0
  2  3  1  0  0  0  0
  3  4  1  0  0  0  0
  4  5  1  0  0  0  0
  5  6  1  0  0  0  0
  6  7  1  0  0  0  0
  7  8  1  0  0  0  0
  8  9  1  0  0  0  0
  9 10  1  0  0  0  0
 10 11  1  0  0  0  0
 11 12  1  0  0  0  0
 12 13  1  0  0  0  0
 13 14  1  0  0  0  0
M  END
>  <CHROM.1>
176.97720574,-178.39866236,175.48052427,125.31956375,160.14632444,-179.63192174
60.47926374,-175.31954751,-100.17030013,-66.61608217,-72.51680451,45.64337168
4.62320487,18.13418944,1.72204419,1.36013129,-3.10214366

>  <Name>
ligand

>  <RI>
0

>  <Rbt.Current_Directory>
/home/itssahil/PROJECTS/Mol_Feturizer/New_Systems/rnas/1TN2

>  <Rbt.Executable>
rbdock ($Id: //depot/dev/client3/rdock/2013.1/src/exe/rbdock.cxx#4 $)

>  <Rbt.Library>
libRbt.so (2013.1, Build901 2013/11/27)

>  <Rbt.Parameter_File>
/export/apps/rDock/src/rDock_2013.1_src/data/scripts/dock_solv.prm

>  <Rbt.Receptor>
prm/pocket_docking_2.prm

>  <SCORE>
-5.66177

>  <SCORE.INTER>
-4.77399

>  <SCORE.INTER.CONST>
1

>  <SCORE.INTER.POLAR>
0

>  <SCORE.INTER.ROT>
11

>  <SCORE.INTER.SOLV>
15.4149

>  <SCORE.INTER.VDW>
-19.2543

>  <SCORE.INTER.norm>
-0.340999

>  <SCORE.INTRA>
-1.00283

>  <SCORE.INTRA.DIHEDRAL>
-3.53553

>  <SCORE.INTRA.DIHEDRAL.0>
7.79482

>  <SCORE.INTRA.POLAR>
0

>  <SCORE.INTRA.POLAR.0>
0

>  <SCORE.INTRA.REPUL>
0

>  <SCORE.INTRA.REPUL.0>
0

>  <SCORE.INTRA.SOLV>
1.94385

>  <SCORE.INTRA.SOLV.lig_0>
-49.456

>  <SCORE.INTRA.VDW>
-0.206993

>  <SCORE.INTRA.VDW.0>
-0.478406

>  <SCORE.INTRA.norm>
-0.071631

>  <SCORE.RESTR>
0.115051

>  <SCORE.RESTR.CAVITY>
0.115051

>  <SCORE.RESTR.norm>
0.0082179

>  <SCORE.SYSTEM>
0

>  <SCORE.SYSTEM.CONST>
0

>  <SCORE.SYSTEM.DIHEDRAL>
0

>  <SCORE.SYSTEM.SOLV>
0

>  <SCORE.SYSTEM.norm>
0

>  <SCORE.heavy>
14

>  <SCORE.norm>
-0.404412

>  <RMSD>
2.228

$$$$
ligand
 OpenBabel11021811413D
libRbt.so/2013.1/901 2013/11/27
 14 13  0  0  0  0  0  0  0  0999 V2000
   41.9736   13.2616   18.2714 N   0  0  0  0  0  0  0  0  0  0  0  0
   42.0402   12.2761   17.1707 C   0  0  0  0  0  0  0  0  0  0  0  0
   43.2791   11.3654   17.3114 C   0  0  0  0  0  0  0  0  0  0  0  0
   43.2257   10.3916   18.5001 C   0  0  0  0  0  0  0  0  0  0  0  0
   44.4794    9.5943   18.5944 N   0  0  0  0  0  0  0  0  0  0  0  0
   44.3240    8.5100   19.5979 C   0  0  0  0  0  0  0  0  0  0  0  0
   45.3262    7.3144   19.4631 C   0  0  0  0  0  0  0  0  0  0  0  0
   45.0894    6.1685   20.4884 C   0  0  0  0  0  0  0  0  0  0  0  0
   45.9589    4.9478   20.2588 C   0  0  0  0  0  0  0  0  0  0  0  0
   45.6233    4.4083   18.9547 N   0  0  0  0  0  0  0  0  0  0  0  0
   46.2754    3.1126   18.8801 C   0  0  0  0  0  0  0  0  0  0  0  0
   46.5219    2.6947   17.4352 C   0  0  0  0  0  0  0  0  0  0  0  0
   45.1550    2.4126   16.7933 C   0  0  0  0  0  0  0  0  0  0  0  0
   44.5021    1.2297   17.3739 N   0  0  0  0  0  0  0  0  0  0  0  0
  1  2  1  0  0  0  0
  2  3  1  0  0  0  0
  3  4  1  0  0  0  0
  4  5  1  0  0  0  0
  5  6  1  0  0  0  0
  6  7  1  0  0  0  0
  7  8  1  0  0  0  0
  8  9  1  0  0  0  0
  9 10  1  0  0  0  0
 10 11  1  0  0  0  0
 11 12  1  0  0  0  0
 12 13  1  0  0  0  0
 13 14  1  0  0  0  0
M  END
>  <CHROM.1>
68.89105150,-177.63575742,-170.59903041,159.58329909,-177.25940249,173.59094307
-62.18976214,-169.25273394,-155.82160569,-68.51135507,-67.35487522,44.55547826
6.97763737,18.50676759,2.19811863,-1.02538074,0.54120103

>  <Name>
ligand

>  <RI>
0

>  <Rbt.Current_Directory>
/home/itssahil/PROJECTS/Mol_Feturizer/New_Systems/rnas/1TN2

>  <Rbt.Executable>
rbdock ($Id: //depot/dev/client3/rdock/2013.1/src/exe/rbdock.cxx#4 $)

>  <Rbt.Library>
libRbt.so (2013.1, Build901 2013/11/27)

>  <Rbt.Parameter_File>
/export/apps/rDock/src/rDock_2013.1_src/data/scripts/dock_solv.prm

>  <Rbt.Receptor>
prm/pocket_docking_3.prm

>  <SCORE>
-7.46114

>  <SCORE.INTER>
-5.39353

>  <SCORE.INTER.CONST>
1

>  <SCORE.INTER.POLAR>
0

>  <SCORE.INTER.ROT>
11

>  <SCORE.INTER.SOLV>
15.5434

>  <SCORE.INTER.VDW>
-19.7102

>  <SCORE.INTER.norm>
-0.385252

>  <SCORE.INTRA>
-2.06761

>  <SCORE.INTRA.DIHEDRAL>
-5.89601

>  <SCORE.INTRA.DIHEDRAL.0>
7.79482

>  <SCORE.INTRA.POLAR>
0

>  <SCORE.INTRA.POLAR.0>
0

>  <SCORE.INTRA.REPUL>
0

>  <SCORE.INTRA.REPUL.0>
0

>  <SCORE.INTRA.SOLV>
2.66636

>  <SCORE.INTRA.SOLV.lig_0>
-49.456

>  <SCORE.INTRA.VDW>
-0.452781

>  <SCORE.INTRA.VDW.0>
-0.478406

>  <SCORE.INTRA.norm>
-0.147686

>  <SCORE.RESTR>
0

>  <SCORE.RESTR.CAVITY>
0

>  <SCORE.RESTR.norm>
0

>  <SCORE.SYSTEM>
0

>  <SCORE.SYSTEM.CONST>
0

>  <SCORE.SYSTEM.DIHEDRAL>
0

>  <SCORE.SYSTEM.SOLV>
0

>  <SCORE.SYSTEM.norm>
0

>  <SCORE.heavy>
14

>  <SCORE.norm>
-0.532938

>  <RMSD>
2.234

$$$$
ligand
 OpenBabel11021811413D
libRbt.so/2013.1/901 2013/11/27
 14 13  0  0  0  0  0  0  0  0999 V2000
   46.1241   10.9213   16.7850 N   0  0  0  0  0  0  0  0  0  0  0  0
   45.7115   11.0595   18.1984 C   0  0  0  0  0  0  0  0  0  0  0  0
   46.3875    9.9906   19.0841 C   0  0  0  0  0  0  0  0  0  0  0  0
   46.0001    8.5415   18.7464 C   0  0  0  0  0  0  0  0  0  0  0  0
   46.7281    7.5772   19.6162 N   0  0  0  0  0  0  0  0  0  0  0  0
   45.7848    6.9231   20.5592 C   0  0  0  0  0  0  0  0  0  0  0  0
   45.1424    5.5867   20.0557 C   0  0  0  0  0  0  0  0  0  0  0  0
   46.1771    4.5012   19.6415 C   0  0  0  0  0  0  0  0  0  0  0  0
   45.5540    3.2457   19.0633 C   0  0  0  0  0  0  0  0  0  0  0  0
   46.6337    2.3715   18.6458 N   0  0  0  0  0  0  0  0  0  0  0  0
   46.0117    1.1020   18.3123 C   0  0  0  0  0  0  0  0  0  0  0  0
   45.8026    0.9613   16.8090 C   0  0  0  0  0  0  0  0  0  0  0  0
   45.3800   -0.4895   16.5324 C   0  0  0  0  0  0  0  0  0  0  0  0
   45.2376   -0.7620   15.0942 N   0  0  0  0  0  0  0  0  0  0  0  0
  1  2  1  0  0  0  0
  2  3  1  0  0  0  0
  3  4  1  0  0  0  0
  4  5  1  0  0  0  0
  5  6  1  0  0  0  0
  6  7  1  0  0  0  0
  7  8  1  0  0  0  0
  8  9  1  0  0  0  0
  9 10  1  0  0  0  0
 10 11  1  0  0  0  0
 11 12  1  0  0  0  0
 12 13  1  0  0  0  0
 13 14  1  0  0  0  0
M  END
>  <CHROM.1>
-63.51527047,178.17624523,110.83005451,91.01612330,55.98803137,-175.92223967
176.30060246,170.61449576,98.81076588,170.11258164,-176.16735365,45.90525878
5.10932885,18.36772867,0.96693888,-1.49372131,-0.42513970

>  <Name>
ligand

>  <RI>
0

>  <Rbt.Current_Directory>
/home/itssahil/PROJECTS/Mol_Feturizer/New_Systems/rnas/1TN2

>  <Rbt.Executable>
rbdock ($Id: //depot/dev/client3/rdock/2013.1/src/exe/rbdock.cxx#4 $)

>  <Rbt.Library>
libRbt.so (2013.1, Build901 2013/11/27)

>  <Rbt.Parameter_File>
/export/apps/rDock/src/rDock_2013.1_src/data/scripts/dock_solv.prm

>  <Rbt.Receptor>
prm/pocket_docking_3.prm

>  <SCORE>
-8.66646

>  <SCORE.INTER>
-6.57296

>  <SCORE.INTER.CONST>
1

>  <SCORE.INTER.POLAR>
0

>  <SCORE.INTER.ROT>
11

>  <SCORE.INTER.SOLV>
11.8609

>  <SCORE.INTER.VDW>
-19.2689

>  <SCORE.INTER.norm>
-0.469497

>  <SCORE.INTRA>
-2.0935

>  <SCORE.INTRA.DIHEDRAL>
-4.43463

>  <SCORE.INTRA.DIHEDRAL.0>
7.79482

>  <SCORE.INTRA.POLAR>
0

>  <SCORE.INTRA.POLAR.0>
0

>  <SCORE.INTRA.REPUL>
0

>  <SCORE.INTRA.REPUL.0>
0

>  <SCORE.INTRA.SOLV>
1.02375

>  <SCORE.INTRA.SOLV.lig_0>
-49.456

>  <SCORE.INTRA.VDW>
-0.388057

>  <SCORE.INTRA.VDW.0>
-0.478406

>  <SCORE.INTRA.norm>
-0.149536

>  <SCORE.RESTR>
0

>  <SCORE.RESTR.CAVITY>
0

>  <SCORE.RESTR.norm>
0

>  <SCORE.SYSTEM>
0

>  <SCORE.SYSTEM.CONST>
0

>  <SCORE.SYSTEM.DIHEDRAL>
0

>  <SCORE.SYSTEM.SOLV>
0

>  <SCORE.SYSTEM.norm>
0

>  <SCORE.heavy>
14

>  <SCORE.norm>
-0.619033

>  <RMSD>
2.242

$$$$
ligand
 OpenBabel11021811413D
libRbt.so/2013.1/901 2013/11/27
 14 13  0  0  0  0  0  0  0  0999 V2000
   44.3660   12.7748   15.6135 N   0  0  0  0  0  0  0  0  0  0  0  0
   44.2623   11.3523   15.2225 C   0  0  0  0  0  0  0  0  0  0  0  0
   45.3109   10.4927   15.9609 C   0  0  0  0  0  0  0  0  0  0  0  0
   45.1739   10.4918   17.4923 C   0  0  0  0  0  0  0  0  0  0  0  0
   46.1600    9.5674   18.1166 N   0  0  0  0  0  0  0  0  0  0  0  0
   46.0144    9.5836   19.5949 C   0  0  0  0  0  0  0  0  0  0  0  0
   46.3973    8.2534   20.3271 C   0  0  0  0  0  0  0  0  0  0  0  0
   45.5294    7.0295   19.9158 C   0  0  0  0  0  0  0  0  0  0  0  0
   45.8748    5.7529   20.6572 C   0  0  0  0  0  0  0  0  0  0  0  0
   45.0090    4.7039   20.1529 N   0  0  0  0  0  0  0  0  0  0  0  0
   45.8707    3.7976   19.4141 C   0  0  0  0  0  0  0  0  0  0  0  0
   45.0715    2.6746   18.7632 C   0  0  0  0  0  0  0  0  0  0  0  0
   46.0742    1.6898   18.1429 C   0  0  0  0  0  0  0  0  0  0  0  0
   45.4073    0.6311   17.3701 N   0  0  0  0  0  0  0  0  0  0  0  0
  1  2  1  0  0  0  0
  2  3  1  0  0  0  0
  3  4  1  0  0  0  0
  4  5  1  0  0  0  0
  5  6  1  0  0  0  0
  6  7  1  0  0  0  0
  7  8  1  0  0  0  0
  8  9  1  0  0  0  0
  9 10  1  0  0  0  0
 10 11  1  0  0  0  0
 11 12  1  0  0  0  0
 12 13  1  0  0  0  0
 13 14  1  0  0  0  0
M  END
>  <CHROM.1>
61.31607270,176.05701214,179.83694062,150.43340171,-61.45293770,-178.24076854
-178.89010496,111.02011277,-177.06977354,-173.82168201,-174.34186198,45.46593029
7.05688198,18.33907200,1.83194841,-1.32167905,0.00803830

>  <Name>
ligand

>  <RI>
0

>  <Rbt.Current_Directory>
/home/itssahil/PROJECTS/Mol_Feturizer/New_Systems/rnas/1TN2

>  <Rbt.Executable>
rbdock ($Id: //depot/dev/client3/rdock/2013.1/src/exe/rbdock.cxx#4 $)

>  <Rbt.Library>
libRbt.so (2013.1, Build901 2013/11/27)

>  <Rbt.Parameter_File>
/export/apps/rDock/src/rDock_2013.1_src/data/scripts/dock_solv.prm

>  <Rbt.Receptor>
prm/pocket_docking_4.prm

>  <SCORE>
-9.32798

>  <SCORE.INTER>
-6.3108

>  <SCORE.INTER.CONST>
1

>  <SCORE.INTER.POLAR>
0

>  <SCORE.INTER.ROT>
11

>  <SCORE.INTER.SOLV>
13.2544

>  <SCORE.INTER.VDW>
-19.5587

>  <SCORE.INTER.norm>
-0.450771

>  <SCORE.INTRA>
-3.01718

>  <SCORE.INTRA.DIHEDRAL>
-5.7123

>  <SCORE.INTRA.DIHEDRAL.0>
7.79482

>  <SCORE.INTRA.POLAR>
0

>  <SCORE.INTRA.POLAR.0>
0

>  <SCORE.INTRA.REPUL>
0

>  <SCORE.INTRA.REPUL.0>
0

>  <SCORE.INTRA.SOLV>
0.990061

>  <SCORE.INTRA.SOLV.lig_0>
-49.456

>  <SCORE.INTRA.VDW>
-0.656064

>  <SCORE.INTRA.VDW.0>
-0.478406

>  <SCORE.INTRA.norm>
-0.215513

>  <SCORE.RESTR>
0

>  <SCORE.RESTR.CAVITY>
0

>  <SCORE.RESTR.norm>
0

>  <SCORE.SYSTEM>
0

>  <SCORE.SYSTEM.CONST>
0

>  <SCORE.SYSTEM.DIHEDRAL>
0

>  <SCORE.SYSTEM.SOLV>
0

>  <SCORE.SYSTEM.norm>
0

>  <SCORE.heavy>
14

>  <SCORE.norm>
-0.666284

>  <RMSD>
2.244

$$$$
ligand
 OpenBabel11021811413D
libRbt.so/2013.1/901 2013/11/27
 14 13  0  0  0  0  0  0  0  0999 V2000
   44.6997   11.0987   17.1652 N   0  0  0  0  0  0  0  0  0  0  0  0
   45.8070   10.6575   18.0406 C   0  0  0  0  0  0  0  0  0  0  0  0
   45.8941    9.1170   18.0967 C   0  0  0  0  0  0  0  0  0  0  0  0
   46.9961    8.5716   19.0198 C   0  0  0  0  0  0  0  0  0  0  0  0
   47.0257    7.0833   18.9953 N   0  0  0  0  0  0  0  0  0  0  0  0
   45.9694    6.5341   19.8838 C   0  0  0  0  0  0  0  0  0  0  0  0
   45.9868    4.9800   20.0752 C   0  0  0  0  0  0  0  0  0  0  0  0
   45.8297    4.1754   18.7529 C   0  0  0  0  0  0  0  0  0  0  0  0
   45.6928    2.6791   18.9555 C   0  0  0  0  0  0  0  0  0  0  0  0
   45.7190    2.0543   17.6466 N   0  0  0  0  0  0  0  0  0  0  0  0
   45.9650    0.6426   17.8843 C   0  0  0  0  0  0  0  0  0  0  0  0
   45.1723   -0.2317   16.9197 C   0  0  0  0  0  0  0  0  0  0  0  0
   45.8647   -0.1590   15.5503 C   0  0  0  0  0  0  0  0  0  0  0  0
   45.9950   -1.4826   14.9227 N   0  0  0  0  0  0  0  0  0  0  0  0
  1  2  1  0  0  0  0
  2  3  1  0  0  0  0
  3  4  1  0  0  0  0
  4  5  1  0  0  0  0
  5  6  1  0  0  0  0
  6  7  1  0  0  0  0
  7  8  1  0  0  0  0
  8  9  1  0  0  0  0
  9 10  1  0  0  0  0
 10 11  1  0  0  0  0
 11 12  1  0  0  0  0
 12 13  1  0  0  0  0
 13 14  1  0  0  0  0
M  END
>  <CHROM.1>
-178.30684252,-178.96833239,-80.57386327,-173.59822292,-59.18025887,-173.58801187
-173.20694847,164.38606420,142.32315166,75.22542410,135.17947729,45.90124500
4.69430239,17.99380617,1.49727867,-1.37655733,0.11824375

>  <Name>
ligand

>  <RI>
0

>  <Rbt.Current_Directory>
/home/itssahil/PROJECTS/Mol_Feturizer/New_Systems/rnas/1TN2

>  <Rbt.Executable>
rbdock ($Id: //depot/dev/client3/rdock/2013.1/src/exe/rbdock.cxx#4 $)

>  <Rbt.Library>
libRbt.so (2013.1, Build901 2013/11/27)

>  <Rbt.Parameter_File>
/export/apps/rDock/src/rDock_2013.1_src/data/scripts/dock_solv.prm

>  <Rbt.Receptor>
prm/pocket_docking_2.prm

>  <SCORE>
-4.09936

>  <SCORE.INTER>
-3.8348

>  <SCORE.INTER.CONST>
1

>  <SCORE.INTER.POLAR>
0

>  <SCORE.INTER.ROT>
11

>  <SCORE.INTER.SOLV>
12.7854

>  <SCORE.INTER.VDW>
-17.7517

>  <SCORE.INTER.norm>
-0.273914

>  <SCORE.INTRA>
-0.278376

>  <SCORE.INTRA.DIHEDRAL>
-0.535612

>  <SCORE.INTRA.DIHEDRAL.0>
7.79482

>  <SCORE.INTRA.POLAR>
0

>  <SCORE.INTRA.POLAR.0>
0

>  <SCORE.INTRA.REPUL>
0

>  <SCORE.INTRA.REPUL.0>
0

>  <SCORE.INTRA.SOLV>
0.701189

>  <SCORE.INTRA.SOLV.lig_0>
-49.456

>  <SCORE.INTRA.VDW>
-0.361165

>  <SCORE.INTRA.VDW.0>
-0.478406

>  <SCORE.INTRA.norm>
-0.019884

>  <SCORE.RESTR>
0.0138086

>  <SCORE.RESTR.CAVITY>
0.0138086

>  <SCORE.RESTR.norm>
0.000986332

>  <SCORE.SYSTEM>
0

>  <SCORE.SYSTEM.CONST>
0

>  <SCORE.SYSTEM.DIHEDRAL>
0

>  <SCORE.SYSTEM.SOLV>
0

>  <SCORE.SYSTEM.norm>
0

>  <SCORE.heavy>
14

>  <SCORE.norm>
-0.292812

>  <RMSD>
2.248

$$$$
ligand
 OpenBabel11021811413D
libRbt.so/2013.1/901 2013/11/27
 14 13  0  0  0  0  0  0  0  0999 V2000
   46.9970    2.2062   15.9935 N   0  0  0  0  0  0  0  0  0  0  0  0
   46.8080    2.3180   17.4560 C   0  0  0  0  0  0  0  0  0  0  0  0
   45.6340    3.2615   17.7964 C   0  0  0  0  0  0  0  0  0  0  0  0
   45.3543    3.4180   19.3002 C   0  0  0  0  0  0  0  0  0  0  0  0
   46.4557    4.1588   19.9744 N   0  0  0  0  0  0  0  0  0  0  0  0
   45.9038    5.0647   21.0143 C   0  0  0  0  0  0  0  0  0  0  0  0
   45.2277    6.3731   20.4824 C   0  0  0  0  0  0  0  0  0  0  0  0
   46.1982    7.3294   19.7314 C   0  0  0  0  0  0  0  0  0  0  0  0
   45.4996    8.3665   18.8740 C   0  0  0  0  0  0  0  0  0  0  0  0
   44.6848    9.1854   19.7514 N   0  0  0  0  0  0  0  0  0  0  0  0
   43.5878    9.6743   18.9346 C   0  0  0  0  0  0  0  0  0  0  0  0
   44.0051   10.8842   18.1067 C   0  0  0  0  0  0  0  0  0  0  0  0
   42.7426   11.4453   17.4349 C   0  0  0  0  0  0  0  0  0  0  0  0
   41.8686   12.1430   18.3899 N   0  0  0  0  0  0  0  0  0  0  0  0
  1  2  1  0  0  0  0
  2  3  1  0  0  0  0
  3  4  1  0  0  0  0
  4  5  1  0  0  0  0
  5  6  1  0  0  0  0
  6  7  1  0  0  0  0
  7  8  1  0  0  0  0
  8  9  1  0  0  0  0
  9 10  1  0  0  0  0
 10 11  1  0  0  0  0
 11 12  1  0  0  0  0
 12 13  1  0  0  0  0
 13 14  1  0  0  0  0
M  END
>  <CHROM.1>
179.11740583,68.72277704,142.01491215,-75.85455536,-63.18924399,162.78163074
61.29261028,-152.53790770,-81.36029064,-172.20911165,73.33309234,45.06910469
6.84486129,18.80297413,0.40919618,1.15563725,-1.98521234

>  <Name>
ligand

>  <RI>
0

>  <Rbt.Current_Directory>
/home/itssahil/PROJECTS/Mol_Feturizer/New_Systems/rnas/1TN2

>  <Rbt.Executable>
rbdock ($Id: //depot/dev/client3/rdock/2013.1/src/exe/rbdock.cxx#4 $)

>  <Rbt.Library>
libRbt.so (2013.1, Build901 2013/11/27)

>  <Rbt.Parameter_File>
/export/apps/rDock/src/rDock_2013.1_src/data/scripts/dock_solv.prm

>  <Rbt.Receptor>
prm/pocket_docking_5.prm

>  <SCORE>
-5.90658

>  <SCORE.INTER>
-5.31786

>  <SCORE.INTER.CONST>
1

>  <SCORE.INTER.POLAR>
0

>  <SCORE.INTER.ROT>
11

>  <SCORE.INTER.SOLV>
16.3807

>  <SCORE.INTER.VDW>
-19.9388

>  <SCORE.INTER.norm>
-0.379847

>  <SCORE.INTRA>
-0.588713

>  <SCORE.INTRA.DIHEDRAL>
-3.53351

>  <SCORE.INTRA.DIHEDRAL.0>
7.79482

>  <SCORE.INTRA.POLAR>
0

>  <SCORE.INTRA.POLAR.0>
0

>  <SCORE.INTRA.REPUL>
0

>  <SCORE.INTRA.REPUL.0>
0

>  <SCORE.INTRA.SOLV>
1.73758

>  <SCORE.INTRA.SOLV.lig_0>
-49.456

>  <SCORE.INTRA.VDW>
0.30925

>  <SCORE.INTRA.VDW.0>
-0.478406

>  <SCORE.INTRA.norm>
-0.0420509

>  <SCORE.RESTR>
0

>  <SCORE.RESTR.CAVITY>
0

>  <SCORE.RESTR.norm>
0

>  <SCORE.SYSTEM>
0

>  <SCORE.SYSTEM.CONST>
0

>  <SCORE.SYSTEM.DIHEDRAL>
0

>  <SCORE.SYSTEM.SOLV>
0

>  <SCORE.SYSTEM.norm>
0

>  <SCORE.heavy>
14

>  <SCORE.norm>
-0.421898

>  <RMSD>
2.254

$$$$
ligand
 OpenBabel11021811413D
libRbt.so/2013.1/901 2013/11/27
 14 13  0  0  0  0  0  0  0  0999 V2000
   45.6879    0.0998   15.8507 N   0  0  0  0  0  0  0  0  0  0  0  0
   44.6217    0.4431   16.8162 C   0  0  0  0  0  0  0  0  0  0  0  0
   44.3160    1.9564   16.7953 C   0  0  0  0  0  0  0  0  0  0  0  0
   45.4749    2.8499   17.2671 C   0  0  0  0  0  0  0  0  0  0  0  0
   45.8065    2.5857   18.6942 N   0  0  0  0  0  0  0  0  0  0  0  0
   46.2052    3.8468   19.3706 C   0  0  0  0  0  0  0  0  0  0  0  0
   45.0425    4.6490   20.0464 C   0  0  0  0  0  0  0  0  0  0  0  0
   45.5157    5.8827   20.8677 C   0  0  0  0  0  0  0  0  0  0  0  0
   46.1129    6.9917   20.0238 C   0  0  0  0  0  0  0  0  0  0  0  0
   45.0453    7.5554   19.2196 N   0  0  0  0  0  0  0  0  0  0  0  0
   44.9231    8.9417   19.6355 C   0  0  0  0  0  0  0  0  0  0  0  0
   44.5572    9.8452   18.4637 C   0  0  0  0  0  0  0  0  0  0  0  0
   45.7494    9.8555   17.4948 C   0  0  0  0  0  0  0  0  0  0  0  0
   45.5634   10.8142   16.3953 N   0  0  0  0  0  0  0  0  0  0  0  0
  1  2  1  0  0  0  0
  2  3  1  0  0  0  0
  3  4  1  0  0  0  0
  4  5  1  0  0  0  0
  5  6  1  0  0  0  0
  6  7  1  0  0  0  0
  7  8  1  0  0  0  0
  8  9  1  0  0  0  0
  9 10  1  0  0  0  0
 10 11  1  0  0  0  0
 11 12  1  0  0  0  0
 12 13  1  0  0  0  0
 13 14  1  0  0  0  0
M  END
>  <CHROM.1>
-64.97962076,-63.36783003,-144.30178689,90.54297199,174.00817991,67.17086892
67.63461804,117.45762662,144.97267535,-66.74658733,-173.76854114,45.33003354
5.45131067,18.35325395,1.68077341,1.48664254,-3.10005095

>  <Name>
ligand

>  <RI>
0

>  <Rbt.Current_Directory>
/home/itssahil/PROJECTS/Mol_Feturizer/New_Systems/rnas/1TN2

>  <Rbt.Executable>
rbdock ($Id: //depot/dev/client3/rdock/2013.1/src/exe/rbdock.cxx#4 $)

>  <Rbt.Library>
libRbt.so (2013.1, Build901 2013/11/27)

>  <Rbt.Parameter_File>
/export/apps/rDock/src/rDock_2013.1_src/data/scripts/dock_solv.prm

>  <Rbt.Receptor>
prm/pocket_docking_3.prm

>  <SCORE>
-5.49605

>  <SCORE.INTER>
-4.83288

>  <SCORE.INTER.CONST>
1

>  <SCORE.INTER.POLAR>
0

>  <SCORE.INTER.ROT>
11

>  <SCORE.INTER.SOLV>
11.6209

>  <SCORE.INTER.VDW>
-18.0289

>  <SCORE.INTER.norm>
-0.345205

>  <SCORE.INTRA>
-0.663179

>  <SCORE.INTRA.DIHEDRAL>
-3.43297

>  <SCORE.INTRA.DIHEDRAL.0>
7.79482

>  <SCORE.INTRA.POLAR>
0

>  <SCORE.INTRA.POLAR.0>
0

>  <SCORE.INTRA.REPUL>
0

>  <SCORE.INTRA.REPUL.0>
0

>  <SCORE.INTRA.SOLV>
2.54443

>  <SCORE.INTRA.SOLV.lig_0>
-49.456

>  <SCORE.INTRA.VDW>
-0.218907

>  <SCORE.INTRA.VDW.0>
-0.478406

>  <SCORE.INTRA.norm>
-0.0473699

>  <SCORE.RESTR>
0

>  <SCORE.RESTR.CAVITY>
0

>  <SCORE.RESTR.norm>
0

>  <SCORE.SYSTEM>
0

>  <SCORE.SYSTEM.CONST>
0

>  <SCORE.SYSTEM.DIHEDRAL>
0

>  <SCORE.SYSTEM.SOLV>
0

>  <SCORE.SYSTEM.norm>
0

>  <SCORE.heavy>
14

>  <SCORE.norm>
-0.392575

>  <RMSD>
2.263

$$$$
ligand
 OpenBabel11021811413D
libRbt.so/2013.1/901 2013/11/27
 14 13  0  0  0  0  0  0  0  0999 V2000
   45.3858   -0.0826   15.2986 N   0  0  0  0  0  0  0  0  0  0  0  0
   44.5024    0.9085   15.9501 C   0  0  0  0  0  0  0  0  0  0  0  0
   44.5495    0.7728   17.4874 C   0  0  0  0  0  0  0  0  0  0  0  0
   45.9018    1.1388   18.1209 C   0  0  0  0  0  0  0  0  0  0  0  0
   46.1870    2.5922   17.9693 N   0  0  0  0  0  0  0  0  0  0  0  0
   45.6668    3.3423   19.1413 C   0  0  0  0  0  0  0  0  0  0  0  0
   46.1199    4.8378   19.2428 C   0  0  0  0  0  0  0  0  0  0  0  0
   45.5173    5.6030   20.4560 C   0  0  0  0  0  0  0  0  0  0  0  0
   45.9064    7.0673   20.5151 C   0  0  0  0  0  0  0  0  0  0  0  0
   45.2965    7.7302   19.3780 N   0  0  0  0  0  0  0  0  0  0  0  0
   45.4012    9.1542   19.6443 C   0  0  0  0  0  0  0  0  0  0  0  0
   44.9299    9.9804   18.4533 C   0  0  0  0  0  0  0  0  0  0  0  0
   45.9585    9.8003   17.3265 C   0  0  0  0  0  0  0  0  0  0  0  0
   45.6805   10.6729   16.1759 N   0  0  0  0  0  0  0  0  0  0  0  0
  1  2  1  0  0  0  0
  2  3  1  0  0  0  0
  3  4  1  0  0  0  0
  4  5  1  0  0  0  0
  5  6  1  0  0  0  0
  6  7  1  0  0  0  0
  7  8  1  0  0  0  0
  8  9  1  0  0  0  0
  9 10  1  0  0  0  0
 10 11  1  0  0  0  0
 11 12  1  0  0  0  0
 12 13  1  0  0  0  0
 13 14  1  0  0  0  0
M  END
>  <CHROM.1>
66.74612102,67.06565465,90.86970921,169.38691153,178.05813321,-177.30256041
66.55249792,166.03306684,173.87730615,-69.41966392,-173.69333315,45.50020426
5.25130786,18.22609868,1.87612320,1.46944476,3.00306355

>  <Name>
ligand

>  <RI>
0

>  <Rbt.Current_Directory>
/home/itssahil/PROJECTS/Mol_Feturizer/New_Systems/rnas/1TN2

>  <Rbt.Executable>
rbdock ($Id: //depot/dev/client3/rdock/2013.1/src/exe/rbdock.cxx#4 $)

>  <Rbt.Library>
libRbt.so (2013.1, Build901 2013/11/27)

>  <Rbt.Parameter_File>
/export/apps/rDock/src/rDock_2013.1_src/data/scripts/dock_solv.prm

>  <Rbt.Receptor>
prm/pocket_docking_3.prm

>  <SCORE>
-8.8427

>  <SCORE.INTER>
-6.53989

>  <SCORE.INTER.CONST>
1

>  <SCORE.INTER.POLAR>
0

>  <SCORE.INTER.ROT>
11

>  <SCORE.INTER.SOLV>
10.6072

>  <SCORE.INTER.VDW>
-18.829

>  <SCORE.INTER.norm>
-0.467135

>  <SCORE.INTRA>
-2.30281

>  <SCORE.INTRA.DIHEDRAL>
-5.85247

>  <SCORE.INTRA.DIHEDRAL.0>
7.79482

>  <SCORE.INTRA.POLAR>
0

>  <SCORE.INTRA.POLAR.0>
0

>  <SCORE.INTRA.REPUL>
0

>  <SCORE.INTRA.REPUL.0>
0

>  <SCORE.INTRA.SOLV>
2.19067

>  <SCORE.INTRA.SOLV.lig_0>
-49.456

>  <SCORE.INTRA.VDW>
-0.471914

>  <SCORE.INTRA.VDW.0>
-0.478406

>  <SCORE.INTRA.norm>
-0.164487

>  <SCORE.RESTR>
0

>  <SCORE.RESTR.CAVITY>
0

>  <SCORE.RESTR.norm>
0

>  <SCORE.SYSTEM>
0

>  <SCORE.SYSTEM.CONST>
0

>  <SCORE.SYSTEM.DIHEDRAL>
0

>  <SCORE.SYSTEM.SOLV>
0

>  <SCORE.SYSTEM.norm>
0

>  <SCORE.heavy>
14

>  <SCORE.norm>
-0.631621

>  <RMSD>
2.265

$$$$
ligand
 OpenBabel11021811413D
libRbt.so/2013.1/901 2013/11/27
 14 13  0  0  0  0  0  0  0  0999 V2000
   41.6791   11.3246   17.8755 N   0  0  0  0  0  0  0  0  0  0  0  0
   41.1435   10.6105   19.0546 C   0  0  0  0  0  0  0  0  0  0  0  0
   41.8424    9.2472   19.2463 C   0  0  0  0  0  0  0  0  0  0  0  0
   43.3673    9.3294   19.4248 C   0  0  0  0  0  0  0  0  0  0  0  0
   43.9562    7.9761   19.6204 N   0  0  0  0  0  0  0  0  0  0  0  0
   45.3969    8.0880   19.9647 C   0  0  0  0  0  0  0  0  0  0  0  0
   46.2484    6.7927   19.7428 C   0  0  0  0  0  0  0  0  0  0  0  0
   45.7055    5.5402   20.4890 C   0  0  0  0  0  0  0  0  0  0  0  0
   46.3926    4.2459   20.0998 C   0  0  0  0  0  0  0  0  0  0  0  0
   46.0870    3.9882   18.7053 N   0  0  0  0  0  0  0  0  0  0  0  0
   45.9464    2.5473   18.5883 C   0  0  0  0  0  0  0  0  0  0  0  0
   45.6566    2.1301   17.1513 C   0  0  0  0  0  0  0  0  0  0  0  0
   45.4219    0.6119   17.1464 C   0  0  0  0  0  0  0  0  0  0  0  0
   45.1432    0.0972   15.7973 N   0  0  0  0  0  0  0  0  0  0  0  0
  1  2  1  0  0  0  0
  2  3  1  0  0  0  0
  3  4  1  0  0  0  0
  4  5  1  0  0  0  0
  5  6  1  0  0  0  0
  6  7  1  0  0  0  0
  7  8  1  0  0  0  0
  8  9  1  0  0  0  0
  9 10  1  0  0  0  0
 10 11  1  0  0  0  0
 11 12  1  0  0  0  0
 12 13  1  0  0  0  0
 13 14  1  0  0  0  0
M  END
>  <CHROM.1>
58.50899115,179.26935964,-172.71333037,-160.77428400,-55.66930353,170.66409762
-65.03965314,-143.91174934,-178.52157835,-175.86226983,-179.48995784,44.57065034
5.89496977,18.77935250,2.05112167,-0.67298203,0.49939927

>  <Name>
ligand

>  <RI>
0

>  <Rbt.Current_Directory>
/home/itssahil/PROJECTS/Mol_Feturizer/New_Systems/rnas/1TN2

>  <Rbt.Executable>
rbdock ($Id: //depot/dev/client3/rdock/2013.1/src/exe/rbdock.cxx#4 $)

>  <Rbt.Library>
libRbt.so (2013.1, Build901 2013/11/27)

>  <Rbt.Parameter_File>
/export/apps/rDock/src/rDock_2013.1_src/data/scripts/dock_solv.prm

>  <Rbt.Receptor>
prm/pocket_docking_7.prm

>  <SCORE>
-12.8083

>  <SCORE.INTER>
-9.86809

>  <SCORE.INTER.CONST>
1

>  <SCORE.INTER.POLAR>
0

>  <SCORE.INTER.ROT>
11

>  <SCORE.INTER.SOLV>
18.6895

>  <SCORE.INTER.VDW>
-23.7419

>  <SCORE.INTER.norm>
-0.704864

>  <SCORE.INTRA>
-2.94016

>  <SCORE.INTRA.DIHEDRAL>
-6.08216

>  <SCORE.INTRA.DIHEDRAL.0>
7.79482

>  <SCORE.INTRA.POLAR>
0

>  <SCORE.INTRA.POLAR.0>
0

>  <SCORE.INTRA.REPUL>
0

>  <SCORE.INTRA.REPUL.0>
0

>  <SCORE.INTRA.SOLV>
1.48686

>  <SCORE.INTRA.SOLV.lig_0>
-49.456

>  <SCORE.INTRA.VDW>
-0.642513

>  <SCORE.INTRA.VDW.0>
-0.478406

>  <SCORE.INTRA.norm>
-0.210011

>  <SCORE.RESTR>
0

>  <SCORE.RESTR.CAVITY>
0

>  <SCORE.RESTR.norm>
0

>  <SCORE.SYSTEM>
0

>  <SCORE.SYSTEM.CONST>
0

>  <SCORE.SYSTEM.DIHEDRAL>
0

>  <SCORE.SYSTEM.SOLV>
0

>  <SCORE.SYSTEM.norm>
0

>  <SCORE.heavy>
14

>  <SCORE.norm>
-0.914875

>  <RMSD>
2.271

$$$$
ligand
 OpenBabel11021811413D
libRbt.so/2013.1/901 2013/11/27
 14 13  0  0  0  0  0  0  0  0999 V2000
   44.7296   10.9670   18.4545 N   0  0  0  0  0  0  0  0  0  0  0  0
   45.4142    9.7252   18.0346 C   0  0  0  0  0  0  0  0  0  0  0  0
   46.4981    9.3133   19.0541 C   0  0  0  0  0  0  0  0  0  0  0  0
   47.3214    8.0794   18.6494 C   0  0  0  0  0  0  0  0  0  0  0  0
   46.4570    6.8720   18.5421 N   0  0  0  0  0  0  0  0  0  0  0  0
   46.2518    6.2667   19.8830 C   0  0  0  0  0  0  0  0  0  0  0  0
   45.4322    4.9325   19.9050 C   0  0  0  0  0  0  0  0  0  0  0  0
   46.0927    3.7683   19.1121 C   0  0  0  0  0  0  0  0  0  0  0  0
   45.9826    3.9086   17.6065 C   0  0  0  0  0  0  0  0  0  0  0  0
   46.5824    2.7300   17.0103 N   0  0  0  0  0  0  0  0  0  0  0  0
   45.4883    1.9872   16.4094 C   0  0  0  0  0  0  0  0  0  0  0  0
   45.7152    0.4832   16.5073 C   0  0  0  0  0  0  0  0  0  0  0  0
   44.7979   -0.1932   15.4773 C   0  0  0  0  0  0  0  0  0  0  0  0
   45.0075   -1.6476   15.4172 N   0  0  0  0  0  0  0  0  0  0  0  0
  1  2  1  0  0  0  0
  2  3  1  0  0  0  0
  3  4  1  0  0  0  0
  4  5  1  0  0  0  0
  5  6  1  0  0  0  0
  6  7  1  0  0  0  0
  7  8  1  0  0  0  0
  8  9  1  0  0  0  0
  9 10  1  0  0  0  0
 10 11  1  0  0  0  0
 11 12  1  0  0  0  0
 12 13  1  0  0  0  0
 13 14  1  0  0  0  0
M  END
>  <CHROM.1>
-176.28965248,-62.77691759,-82.88003066,-176.29575739,61.71564241,-74.67711770
-177.39079640,111.45325547,-145.38550491,-161.58636194,175.81547291,45.84084963
4.79950084,17.86184444,1.42067291,-1.16717951,0.15162146

>  <Name>
ligand

>  <RI>
0

>  <Rbt.Current_Directory>
/home/itssahil/PROJECTS/Mol_Feturizer/New_Systems/rnas/1TN2

>  <Rbt.Executable>
rbdock ($Id: //depot/dev/client3/rdock/2013.1/src/exe/rbdock.cxx#4 $)

>  <Rbt.Library>
libRbt.so (2013.1, Build901 2013/11/27)

>  <Rbt.Parameter_File>
/export/apps/rDock/src/rDock_2013.1_src/data/scripts/dock_solv.prm

>  <Rbt.Receptor>
prm/pocket_docking_2.prm

>  <SCORE>
-2.84903

>  <SCORE.INTER>
-1.47167

>  <SCORE.INTER.CONST>
1

>  <SCORE.INTER.POLAR>
0

>  <SCORE.INTER.ROT>
11

>  <SCORE.INTER.SOLV>
13.9246

>  <SCORE.INTER.VDW>
-16.556

>  <SCORE.INTER.norm>
-0.105119

>  <SCORE.INTRA>
-1.4076

>  <SCORE.INTRA.DIHEDRAL>
-3.28732

>  <SCORE.INTRA.DIHEDRAL.0>
7.79482

>  <SCORE.INTRA.POLAR>
0

>  <SCORE.INTRA.POLAR.0>
0

>  <SCORE.INTRA.REPUL>
0

>  <SCORE.INTRA.REPUL.0>
0

>  <SCORE.INTRA.SOLV>
1.16967

>  <SCORE.INTRA.SOLV.lig_0>
-49.456

>  <SCORE.INTRA.VDW>
-0.34878

>  <SCORE.INTRA.VDW.0>
-0.478406

>  <SCORE.INTRA.norm>
-0.100543

>  <SCORE.RESTR>
0.0302365

>  <SCORE.RESTR.CAVITY>
0.0302365

>  <SCORE.RESTR.norm>
0.00215975

>  <SCORE.SYSTEM>
0

>  <SCORE.SYSTEM.CONST>
0

>  <SCORE.SYSTEM.DIHEDRAL>
0

>  <SCORE.SYSTEM.SOLV>
0

>  <SCORE.SYSTEM.norm>
0

>  <SCORE.heavy>
14

>  <SCORE.norm>
-0.203502

>  <RMSD>
2.276

$$$$
ligand
 OpenBabel11021811413D
libRbt.so/2013.1/901 2013/11/27
 14 13  0  0  0  0  0  0  0  0999 V2000
   45.4089    0.1480   15.5075 N   0  0  0  0  0  0  0  0  0  0  0  0
   45.9618    1.4343   15.9838 C   0  0  0  0  0  0  0  0  0  0  0  0
   45.6332    1.6650   17.4748 C   0  0  0  0  0  0  0  0  0  0  0  0
   46.1362    3.0029   18.0413 C   0  0  0  0  0  0  0  0  0  0  0  0
   45.6731    3.1977   19.4427 N   0  0  0  0  0  0  0  0  0  0  0  0
   46.2523    4.4442   20.0062 C   0  0  0  0  0  0  0  0  0  0  0  0
   45.5531    5.7744   19.5660 C   0  0  0  0  0  0  0  0  0  0  0  0
   46.0740    7.0404   20.3052 C   0  0  0  0  0  0  0  0  0  0  0  0
   45.4060    8.3285   19.8653 C   0  0  0  0  0  0  0  0  0  0  0  0
   43.9722    8.1420   19.9821 N   0  0  0  0  0  0  0  0  0  0  0  0
   43.3707    9.3797   19.5174 C   0  0  0  0  0  0  0  0  0  0  0  0
   41.8752    9.2155   19.2726 C   0  0  0  0  0  0  0  0  0  0  0  0
   41.3009   10.6046   18.9555 C   0  0  0  0  0  0  0  0  0  0  0  0
   41.9425   11.2164   17.7821 N   0  0  0  0  0  0  0  0  0  0  0  0
  1  2  1  0  0  0  0
  2  3  1  0  0  0  0
  3  4  1  0  0  0  0
  4  5  1  0  0  0  0
  5  6  1  0  0  0  0
  6  7  1  0  0  0  0
  7  8  1  0  0  0  0
  8  9  1  0  0  0  0
  9 10  1  0  0  0  0
 10 11  1  0  0  0  0
 11 12  1  0  0  0  0
 12 13  1  0  0  0  0
 13 14  1  0  0  0  0
M  END
>  <CHROM.1>
-178.24227521,174.89752773,175.75065004,78.82785360,173.03517320,179.34206116
53.31800236,-178.43190029,166.53350965,173.13855354,58.66015435,44.61158893
5.97109642,18.69324407,1.05472701,0.76394406,-2.53119054

>  <Name>
ligand

>  <RI>
0

>  <Rbt.Current_Directory>
/home/itssahil/PROJECTS/Mol_Feturizer/New_Systems/rnas/1TN2

>  <Rbt.Executable>
rbdock ($Id: //depot/dev/client3/rdock/2013.1/src/exe/rbdock.cxx#4 $)

>  <Rbt.Library>
libRbt.so (2013.1, Build901 2013/11/27)

>  <Rbt.Parameter_File>
/export/apps/rDock/src/rDock_2013.1_src/data/scripts/dock_solv.prm

>  <Rbt.Receptor>
prm/pocket_docking_4.prm

>  <SCORE>
-11.6108

>  <SCORE.INTER>
-8.89173

>  <SCORE.INTER.CONST>
1

>  <SCORE.INTER.POLAR>
0

>  <SCORE.INTER.ROT>
11

>  <SCORE.INTER.SOLV>
16.6357

>  <SCORE.INTER.VDW>
-22.4064

>  <SCORE.INTER.norm>
-0.635124

>  <SCORE.INTRA>
-2.71903

>  <SCORE.INTRA.DIHEDRAL>
-6.72312

>  <SCORE.INTRA.DIHEDRAL.0>
7.79482

>  <SCORE.INTRA.POLAR>
0

>  <SCORE.INTRA.POLAR.0>
0

>  <SCORE.INTRA.REPUL>
0

>  <SCORE.INTRA.REPUL.0>
0

>  <SCORE.INTRA.SOLV>
1.2924

>  <SCORE.INTRA.SOLV.lig_0>
-49.456

>  <SCORE.INTRA.VDW>
-0.00366732

>  <SCORE.INTRA.VDW.0>
-0.478406

>  <SCORE.INTRA.norm>
-0.194216

>  <SCORE.RESTR>
0

>  <SCORE.RESTR.CAVITY>
0

>  <SCORE.RESTR.norm>
0

>  <SCORE.SYSTEM>
0

>  <SCORE.SYSTEM.CONST>
0

>  <SCORE.SYSTEM.DIHEDRAL>
0

>  <SCORE.SYSTEM.SOLV>
0

>  <SCORE.SYSTEM.norm>
0

>  <SCORE.heavy>
14

>  <SCORE.norm>
-0.82934

>  <RMSD>
2.302

$$$$
ligand
 OpenBabel11021811413D
libRbt.so/2013.1/901 2013/11/27
 14 13  0  0  0  0  0  0  0  0999 V2000
   45.4663   -0.0597   15.7476 N   0  0  0  0  0  0  0  0  0  0  0  0
   44.8745    0.4529   17.0023 C   0  0  0  0  0  0  0  0  0  0  0  0
   45.5446    1.7745   17.4362 C   0  0  0  0  0  0  0  0  0  0  0  0
   44.9676    2.3931   18.7201 C   0  0  0  0  0  0  0  0  0  0  0  0
   45.6157    3.6989   19.0222 N   0  0  0  0  0  0  0  0  0  0  0  0
   45.1295    4.2244   20.3239 C   0  0  0  0  0  0  0  0  0  0  0  0
   45.8054    5.5492   20.8138 C   0  0  0  0  0  0  0  0  0  0  0  0
   45.4398    6.8005   19.9645 C   0  0  0  0  0  0  0  0  0  0  0  0
   46.1791    8.0594   20.3736 C   0  0  0  0  0  0  0  0  0  0  0  0
   45.5738    9.1732   19.6683 N   0  0  0  0  0  0  0  0  0  0  0  0
   46.6418    9.7824   18.8951 C   0  0  0  0  0  0  0  0  0  0  0  0
   46.1184   10.9094   18.0123 C   0  0  0  0  0  0  0  0  0  0  0  0
   47.2950   11.4242   17.1694 C   0  0  0  0  0  0  0  0  0  0  0  0
   46.8880   12.4870   16.2380 N   0  0  0  0  0  0  0  0  0  0  0  0
  1  2  1  0  0  0  0
  2  3  1  0  0  0  0
  3  4  1  0  0  0  0
  4  5  1  0  0  0  0
  5  6  1  0  0  0  0
  6  7  1  0  0  0  0
  7  8  1  0  0  0  0
  8  9  1  0  0  0  0
  9 10  1  0  0  0  0
 10 11  1  0  0  0  0
 11 12  1  0  0  0  0
 12 13  1  0  0  0  0
 13 14  1  0  0  0  0
M  END
>  <CHROM.1>
178.80413958,-176.77187317,-175.19979571,175.94480238,69.12918643,-175.46478945
-170.09447624,-121.59663529,175.50924985,-176.25186051,177.83441024,45.82423029
6.19062734,18.52801689,-2.34453618,1.37000840,0.80619840

>  <Name>
ligand

>  <RI>
0

>  <Rbt.Current_Directory>
/home/itssahil/PROJECTS/Mol_Feturizer/New_Systems/rnas/1TN2

>  <Rbt.Executable>
rbdock ($Id: //depot/dev/client3/rdock/2013.1/src/exe/rbdock.cxx#4 $)

>  <Rbt.Library>
libRbt.so (2013.1, Build901 2013/11/27)

>  <Rbt.Parameter_File>
/export/apps/rDock/src/rDock_2013.1_src/data/scripts/dock_solv.prm

>  <Rbt.Receptor>
prm/pocket_docking_5.prm

>  <SCORE>
-8.27714

>  <SCORE.INTER>
-4.794

>  <SCORE.INTER.CONST>
1

>  <SCORE.INTER.POLAR>
0

>  <SCORE.INTER.ROT>
11

>  <SCORE.INTER.SOLV>
10.0934

>  <SCORE.INTER.VDW>
-17.4938

>  <SCORE.INTER.norm>
-0.342429

>  <SCORE.INTRA>
-3.48314

>  <SCORE.INTRA.DIHEDRAL>
-5.67444

>  <SCORE.INTRA.DIHEDRAL.0>
7.79482

>  <SCORE.INTRA.POLAR>
0

>  <SCORE.INTRA.POLAR.0>
0

>  <SCORE.INTRA.REPUL>
0

>  <SCORE.INTRA.REPUL.0>
0

>  <SCORE.INTRA.SOLV>
0.249107

>  <SCORE.INTRA.SOLV.lig_0>
-49.456

>  <SCORE.INTRA.VDW>
-0.770472

>  <SCORE.INTRA.VDW.0>
-0.478406

>  <SCORE.INTRA.norm>
-0.248796

>  <SCORE.RESTR>
0

>  <SCORE.RESTR.CAVITY>
0

>  <SCORE.RESTR.norm>
0

>  <SCORE.SYSTEM>
0

>  <SCORE.SYSTEM.CONST>
0

>  <SCORE.SYSTEM.DIHEDRAL>
0

>  <SCORE.SYSTEM.SOLV>
0

>  <SCORE.SYSTEM.norm>
0

>  <SCORE.heavy>
14

>  <SCORE.norm>
-0.591224

>  <RMSD>
2.314

$$$$
ligand
 OpenBabel11021811413D
libRbt.so/2013.1/901 2013/11/27
 14 13  0  0  0  0  0  0  0  0999 V2000
   45.3965   -2.1166   15.4493 N   0  0  0  0  0  0  0  0  0  0  0  0
   45.7878   -1.0117   16.3510 C   0  0  0  0  0  0  0  0  0  0  0  0
   44.6585    0.0340   16.4750 C   0  0  0  0  0  0  0  0  0  0  0  0
   44.8818    1.0902   17.5698 C   0  0  0  0  0  0  0  0  0  0  0  0
   45.9954    2.0092   17.2066 N   0  0  0  0  0  0  0  0  0  0  0  0
   46.4723    2.7385   18.4097 C   0  0  0  0  0  0  0  0  0  0  0  0
   45.4157    3.6623   19.1041 C   0  0  0  0  0  0  0  0  0  0  0  0
   46.0181    4.9443   19.7474 C   0  0  0  0  0  0  0  0  0  0  0  0
   46.4980    5.9711   18.7402 C   0  0  0  0  0  0  0  0  0  0  0  0
   46.9978    7.1135   19.4815 N   0  0  0  0  0  0  0  0  0  0  0  0
   46.6054    8.2856   18.7187 C   0  0  0  0  0  0  0  0  0  0  0  0
   45.2295    8.7894   19.1387 C   0  0  0  0  0  0  0  0  0  0  0  0
   44.8095    9.8798   18.1413 C   0  0  0  0  0  0  0  0  0  0  0  0
   45.5957   11.1122   18.3020 N   0  0  0  0  0  0  0  0  0  0  0  0
  1  2  1  0  0  0  0
  2  3  1  0  0  0  0
  3  4  1  0  0  0  0
  4  5  1  0  0  0  0
  5  6  1  0  0  0  0
  6  7  1  0  0  0  0
  7  8  1  0  0  0  0
  8  9  1  0  0  0  0
  9 10  1  0  0  0  0
 10 11  1  0  0  0  0
 11 12  1  0  0  0  0
 12 13  1  0  0  0  0
 13 14  1  0  0  0  0
M  END
>  <CHROM.1>
170.18506083,69.44787532,-162.75928894,-61.94238129,-146.60653507,70.80010395
178.59768198,-142.46709486,89.35242693,-171.32180908,-70.83525965,45.74005035
4.46436978,18.05984604,1.64000799,1.00296067,-2.97345609

>  <Name>
ligand

>  <RI>
0

>  <Rbt.Current_Directory>
/home/itssahil/PROJECTS/Mol_Feturizer/New_Systems/rnas/1TN2

>  <Rbt.Executable>
rbdock ($Id: //depot/dev/client3/rdock/2013.1/src/exe/rbdock.cxx#4 $)

>  <Rbt.Library>
libRbt.so (2013.1, Build901 2013/11/27)

>  <Rbt.Parameter_File>
/export/apps/rDock/src/rDock_2013.1_src/data/scripts/dock_solv.prm

>  <Rbt.Receptor>
prm/pocket_docking_2.prm

>  <SCORE>
-2.99211

>  <SCORE.INTER>
-3.71572

>  <SCORE.INTER.CONST>
1

>  <SCORE.INTER.POLAR>
0

>  <SCORE.INTER.ROT>
11

>  <SCORE.INTER.SOLV>
15.0962

>  <SCORE.INTER.VDW>
-18.4426

>  <SCORE.INTER.norm>
-0.265409

>  <SCORE.INTRA>
0.706742

>  <SCORE.INTRA.DIHEDRAL>
-1.02171

>  <SCORE.INTRA.DIHEDRAL.0>
7.79482

>  <SCORE.INTRA.POLAR>
0

>  <SCORE.INTRA.POLAR.0>
0

>  <SCORE.INTRA.REPUL>
0

>  <SCORE.INTRA.REPUL.0>
0

>  <SCORE.INTRA.SOLV>
1.1671

>  <SCORE.INTRA.SOLV.lig_0>
-49.456

>  <SCORE.INTRA.VDW>
0.634051

>  <SCORE.INTRA.VDW.0>
-0.478406

>  <SCORE.INTRA.norm>
0.0504816

>  <SCORE.RESTR>
0.016868

>  <SCORE.RESTR.CAVITY>
0.016868

>  <SCORE.RESTR.norm>
0.00120486

>  <SCORE.SYSTEM>
0

>  <SCORE.SYSTEM.CONST>
0

>  <SCORE.SYSTEM.DIHEDRAL>
0

>  <SCORE.SYSTEM.SOLV>
0

>  <SCORE.SYSTEM.norm>
0

>  <SCORE.heavy>
14

>  <SCORE.norm>
-0.213722

>  <RMSD>
2.322

$$$$
ligand
 OpenBabel11021811413D
libRbt.so/2013.1/901 2013/11/27
 14 13  0  0  0  0  0  0  0  0999 V2000
   46.1804    1.5010   16.7921 N   0  0  0  0  0  0  0  0  0  0  0  0
   45.8664    1.1622   18.1970 C   0  0  0  0  0  0  0  0  0  0  0  0
   45.1393    2.3271   18.9029 C   0  0  0  0  0  0  0  0  0  0  0  0
   45.9919    3.5925   19.0924 C   0  0  0  0  0  0  0  0  0  0  0  0
   45.1729    4.7129   19.6312 N   0  0  0  0  0  0  0  0  0  0  0  0
   46.0411    5.6907   20.3361 C   0  0  0  0  0  0  0  0  0  0  0  0
   45.4263    7.1161   20.5421 C   0  0  0  0  0  0  0  0  0  0  0  0
   45.1789    7.8981   19.2202 C   0  0  0  0  0  0  0  0  0  0  0  0
   44.4156    9.1949   19.4058 C   0  0  0  0  0  0  0  0  0  0  0  0
   44.2840    9.8178   18.1023 N   0  0  0  0  0  0  0  0  0  0  0  0
   43.2418   10.8196   18.2433 C   0  0  0  0  0  0  0  0  0  0  0  0
   43.0738   11.6332   16.9654 C   0  0  0  0  0  0  0  0  0  0  0  0
   41.9024   12.6031   17.1825 C   0  0  0  0  0  0  0  0  0  0  0  0
   42.2105   13.6294   18.1898 N   0  0  0  0  0  0  0  0  0  0  0  0
  1  2  1  0  0  0  0
  2  3  1  0  0  0  0
  3  4  1  0  0  0  0
  4  5  1  0  0  0  0
  5  6  1  0  0  0  0
  6  7  1  0  0  0  0
  7  8  1  0  0  0  0
  8  9  1  0  0  0  0
  9 10  1  0  0  0  0
 10 11  1  0  0  0  0
 11 12  1  0  0  0  0
 12 13  1  0  0  0  0
 13 14  1  0  0  0  0
M  END
>  <CHROM.1>
-66.38872016,173.32900434,156.01427669,160.81982182,-65.47423077,172.21043988
178.98851992,163.77981758,175.51042410,176.73876090,67.40367012,44.58041142
7.26411447,18.62896586,0.84105119,1.10279282,-2.54152964

>  <Name>
ligand

>  <RI>
0

>  <Rbt.Current_Directory>
/home/itssahil/PROJECTS/Mol_Feturizer/New_Systems/rnas/1TN2

>  <Rbt.Executable>
rbdock ($Id: //depot/dev/client3/rdock/2013.1/src/exe/rbdock.cxx#4 $)

>  <Rbt.Library>
libRbt.so (2013.1, Build901 2013/11/27)

>  <Rbt.Parameter_File>
/export/apps/rDock/src/rDock_2013.1_src/data/scripts/dock_solv.prm

>  <Rbt.Receptor>
prm/pocket_docking_3.prm

>  <SCORE>
-8.95287

>  <SCORE.INTER>
-6.11936

>  <SCORE.INTER.CONST>
1

>  <SCORE.INTER.POLAR>
0

>  <SCORE.INTER.ROT>
11

>  <SCORE.INTER.SOLV>
13.5915

>  <SCORE.INTER.VDW>
-19.5434

>  <SCORE.INTER.norm>
-0.437097

>  <SCORE.INTRA>
-2.83351

>  <SCORE.INTRA.DIHEDRAL>
-5.95042

>  <SCORE.INTRA.DIHEDRAL.0>
7.79482

>  <SCORE.INTRA.POLAR>
0

>  <SCORE.INTRA.POLAR.0>
0

>  <SCORE.INTRA.REPUL>
0

>  <SCORE.INTRA.REPUL.0>
0

>  <SCORE.INTRA.SOLV>
1.70187

>  <SCORE.INTRA.SOLV.lig_0>
-49.456

>  <SCORE.INTRA.VDW>
-0.709233

>  <SCORE.INTRA.VDW.0>
-0.478406

>  <SCORE.INTRA.norm>
-0.202394

>  <SCORE.RESTR>
0

>  <SCORE.RESTR.CAVITY>
0

>  <SCORE.RESTR.norm>
0

>  <SCORE.SYSTEM>
0

>  <SCORE.SYSTEM.CONST>
0

>  <SCORE.SYSTEM.DIHEDRAL>
0

>  <SCORE.SYSTEM.SOLV>
0

>  <SCORE.SYSTEM.norm>
0

>  <SCORE.heavy>
14

>  <SCORE.norm>
-0.639491

>  <RMSD>
2.324

$$$$
ligand
 OpenBabel11021811413D
libRbt.so/2013.1/901 2013/11/27
 14 13  0  0  0  0  0  0  0  0999 V2000
   45.2919   -0.3436   15.3484 N   0  0  0  0  0  0  0  0  0  0  0  0
   45.3676   -0.1475   16.8122 C   0  0  0  0  0  0  0  0  0  0  0  0
   45.0986    1.3246   17.1926 C   0  0  0  0  0  0  0  0  0  0  0  0
   45.2226    1.6303   18.6944 C   0  0  0  0  0  0  0  0  0  0  0  0
   44.9392    3.0651   18.9728 N   0  0  0  0  0  0  0  0  0  0  0  0
   46.1807    3.7601   19.3999 C   0  0  0  0  0  0  0  0  0  0  0  0
   45.9799    4.9571   20.3893 C   0  0  0  0  0  0  0  0  0  0  0  0
   45.1578    6.1384   19.7985 C   0  0  0  0  0  0  0  0  0  0  0  0
   45.0087    7.3167   20.7410 C   0  0  0  0  0  0  0  0  0  0  0  0
   44.3096    8.3666   20.0246 N   0  0  0  0  0  0  0  0  0  0  0  0
   45.3333    9.2993   19.5865 C   0  0  0  0  0  0  0  0  0  0  0  0
   45.3303    9.4591   18.0707 C   0  0  0  0  0  0  0  0  0  0  0  0
   46.4884   10.3979   17.7001 C   0  0  0  0  0  0  0  0  0  0  0  0
   46.2716   11.7676   18.1896 N   0  0  0  0  0  0  0  0  0  0  0  0
  1  2  1  0  0  0  0
  2  3  1  0  0  0  0
  3  4  1  0  0  0  0
  4  5  1  0  0  0  0
  5  6  1  0  0  0  0
  6  7  1  0  0  0  0
  7  8  1  0  0  0  0
  8  9  1  0  0  0  0
  9 10  1  0  0  0  0
 10 11  1  0  0  0  0
 11 12  1  0  0  0  0
 12 13  1  0  0  0  0
 13 14  1  0  0  0  0
M  END
>  <CHROM.1>
-177.29265620,-179.62047764,-111.23239921,-149.60454864,-63.13511713,-177.86856624
175.98096105,-100.00575890,121.50059473,-176.96359056,-66.82157849,45.42725731
5.49932222,18.63739862,-1.79739437,1.40399543,0.40437093

>  <Name>
ligand

>  <RI>
0

>  <Rbt.Current_Directory>
/home/itssahil/PROJECTS/Mol_Feturizer/New_Systems/rnas/1TN2

>  <Rbt.Executable>
rbdock ($Id: //depot/dev/client3/rdock/2013.1/src/exe/rbdock.cxx#4 $)

>  <Rbt.Library>
libRbt.so (2013.1, Build901 2013/11/27)

>  <Rbt.Parameter_File>
/export/apps/rDock/src/rDock_2013.1_src/data/scripts/dock_solv.prm

>  <Rbt.Receptor>
prm/pocket_docking_6.prm

>  <SCORE>
-7.28812

>  <SCORE.INTER>
-5.64799

>  <SCORE.INTER.CONST>
1

>  <SCORE.INTER.POLAR>
0

>  <SCORE.INTER.ROT>
11

>  <SCORE.INTER.SOLV>
12.3017

>  <SCORE.INTER.VDW>
-18.7992

>  <SCORE.INTER.norm>
-0.403428

>  <SCORE.INTRA>
-1.64013

>  <SCORE.INTRA.DIHEDRAL>
-3.59196

>  <SCORE.INTRA.DIHEDRAL.0>
7.79482

>  <SCORE.INTRA.POLAR>
0

>  <SCORE.INTRA.POLAR.0>
0

>  <SCORE.INTRA.REPUL>
0

>  <SCORE.INTRA.REPUL.0>
0

>  <SCORE.INTRA.SOLV>
1.03999

>  <SCORE.INTRA.SOLV.lig_0>
-49.456

>  <SCORE.INTRA.VDW>
-0.364147

>  <SCORE.INTRA.VDW.0>
-0.478406

>  <SCORE.INTRA.norm>
-0.117152

>  <SCORE.RESTR>
0

>  <SCORE.RESTR.CAVITY>
0

>  <SCORE.RESTR.norm>
0

>  <SCORE.SYSTEM>
0

>  <SCORE.SYSTEM.CONST>
0

>  <SCORE.SYSTEM.DIHEDRAL>
0

>  <SCORE.SYSTEM.SOLV>
0

>  <SCORE.SYSTEM.norm>
0

>  <SCORE.heavy>
14

>  <SCORE.norm>
-0.52058

>  <RMSD>
2.331

$$$$
ligand
 OpenBabel11021811413D
libRbt.so/2013.1/901 2013/11/27
 14 13  0  0  0  0  0  0  0  0999 V2000
   46.1459    0.0444   14.9069 N   0  0  0  0  0  0  0  0  0  0  0  0
   45.6583   -0.7482   16.0563 C   0  0  0  0  0  0  0  0  0  0  0  0
   44.8769    0.1357   17.0523 C   0  0  0  0  0  0  0  0  0  0  0  0
   45.7282    1.1942   17.7727 C   0  0  0  0  0  0  0  0  0  0  0  0
   44.9089    1.9665   18.7467 N   0  0  0  0  0  0  0  0  0  0  0  0
   45.6050    3.2248   19.1193 C   0  0  0  0  0  0  0  0  0  0  0  0
   44.8063    4.1862   20.0627 C   0  0  0  0  0  0  0  0  0  0  0  0
   45.6129    5.4315   20.5306 C   0  0  0  0  0  0  0  0  0  0  0  0
   46.0026    6.3706   19.4058 C   0  0  0  0  0  0  0  0  0  0  0  0
   46.6298    7.5346   20.0026 N   0  0  0  0  0  0  0  0  0  0  0  0
   47.1660    8.3087   18.8968 C   0  0  0  0  0  0  0  0  0  0  0  0
   46.5732    9.7124   18.8594 C   0  0  0  0  0  0  0  0  0  0  0  0
   45.0754    9.5761   18.5462 C   0  0  0  0  0  0  0  0  0  0  0  0
   44.4379   10.8788   18.3030 N   0  0  0  0  0  0  0  0  0  0  0  0
  1  2  1  0  0  0  0
  2  3  1  0  0  0  0
  3  4  1  0  0  0  0
  4  5  1  0  0  0  0
  5  6  1  0  0  0  0
  6  7  1  0  0  0  0
  7  8  1  0  0  0  0
  8  9  1  0  0  0  0
  9 10  1  0  0  0  0
 10 11  1  0  0  0  0
 11 12  1  0  0  0  0
 12 13  1  0  0  0  0
 13 14  1  0  0  0  0
M  END
>  <CHROM.1>
-66.52367013,-177.95573467,-162.66055014,175.80245061,174.92669075,64.16783137
174.67781443,171.63432137,120.95758175,-65.86819161,-172.12097093,45.65914857
4.84390371,18.44741883,-1.93625594,1.48360677,0.60943436

>  <Name>
ligand

>  <RI>
0

>  <Rbt.Current_Directory>
/home/itssahil/PROJECTS/Mol_Feturizer/New_Systems/rnas/1TN2

>  <Rbt.Executable>
rbdock ($Id: //depot/dev/client3/rdock/2013.1/src/exe/rbdock.cxx#4 $)

>  <Rbt.Library>
libRbt.so (2013.1, Build901 2013/11/27)

>  <Rbt.Parameter_File>
/export/apps/rDock/src/rDock_2013.1_src/data/scripts/dock_solv.prm

>  <Rbt.Receptor>
prm/blind_docking_80.prm

>  <SCORE>
-8.83551

>  <SCORE.INTER>
-6.37109

>  <SCORE.INTER.CONST>
1

>  <SCORE.INTER.POLAR>
0

>  <SCORE.INTER.ROT>
11

>  <SCORE.INTER.SOLV>
12.8576

>  <SCORE.INTER.VDW>
-19.4666

>  <SCORE.INTER.norm>
-0.455078

>  <SCORE.INTRA>
-2.46442

>  <SCORE.INTRA.DIHEDRAL>
-5.48182

>  <SCORE.INTRA.DIHEDRAL.0>
7.79482

>  <SCORE.INTRA.POLAR>
0

>  <SCORE.INTRA.POLAR.0>
0

>  <SCORE.INTRA.REPUL>
0

>  <SCORE.INTRA.REPUL.0>
0

>  <SCORE.INTRA.SOLV>
1.11626

>  <SCORE.INTRA.SOLV.lig_0>
-49.456

>  <SCORE.INTRA.VDW>
-0.281638

>  <SCORE.INTRA.VDW.0>
-0.478406

>  <SCORE.INTRA.norm>
-0.17603

>  <SCORE.RESTR>
0

>  <SCORE.RESTR.CAVITY>
0

>  <SCORE.RESTR.norm>
0

>  <SCORE.SYSTEM>
0

>  <SCORE.SYSTEM.CONST>
0

>  <SCORE.SYSTEM.DIHEDRAL>
0

>  <SCORE.SYSTEM.SOLV>
0

>  <SCORE.SYSTEM.norm>
0

>  <SCORE.heavy>
14

>  <SCORE.norm>
-0.631108

>  <RMSD>
2.341

$$$$
ligand
 OpenBabel11021811413D
libRbt.so/2013.1/901 2013/11/27
 14 13  0  0  0  0  0  0  0  0999 V2000
   45.2688    0.3488   15.6973 N   0  0  0  0  0  0  0  0  0  0  0  0
   45.5904    1.5913   16.4322 C   0  0  0  0  0  0  0  0  0  0  0  0
   45.8199    1.3086   17.9326 C   0  0  0  0  0  0  0  0  0  0  0  0
   46.1509    2.5518   18.7746 C   0  0  0  0  0  0  0  0  0  0  0  0
   45.0111    3.5095   18.7845 N   0  0  0  0  0  0  0  0  0  0  0  0
   44.7638    3.9990   20.1650 C   0  0  0  0  0  0  0  0  0  0  0  0
   45.6718    5.1850   20.6353 C   0  0  0  0  0  0  0  0  0  0  0  0
   45.2969    6.5589   20.0090 C   0  0  0  0  0  0  0  0  0  0  0  0
   46.2143    7.6938   20.4205 C   0  0  0  0  0  0  0  0  0  0  0  0
   45.6474    8.9258   19.9056 N   0  0  0  0  0  0  0  0  0  0  0  0
   46.5683    9.3910   18.8833 C   0  0  0  0  0  0  0  0  0  0  0  0
   46.0655   10.6673   18.2188 C   0  0  0  0  0  0  0  0  0  0  0  0
   47.0411   11.0160   17.0844 C   0  0  0  0  0  0  0  0  0  0  0  0
   46.6424   12.2344   16.3638 N   0  0  0  0  0  0  0  0  0  0  0  0
  1  2  1  0  0  0  0
  2  3  1  0  0  0  0
  3  4  1  0  0  0  0
  4  5  1  0  0  0  0
  5  6  1  0  0  0  0
  6  7  1  0  0  0  0
  7  8  1  0  0  0  0
  8  9  1  0  0  0  0
  9 10  1  0  0  0  0
 10 11  1  0  0  0  0
 11 12  1  0  0  0  0
 12 13  1  0  0  0  0
 13 14  1  0  0  0  0
M  END
>  <CHROM.1>
-179.59601341,63.81334499,134.64824379,82.93617512,74.54461168,-177.53286634
-172.80620051,-112.40570092,178.06524555,-175.53868984,179.55254645,45.83953503
6.07001621,18.52226781,-2.19513522,1.38641509,0.66376981

>  <Name>
ligand

>  <RI>
0

>  <Rbt.Current_Directory>
/home/itssahil/PROJECTS/Mol_Feturizer/New_Systems/rnas/1TN2

>  <Rbt.Executable>
rbdock ($Id: //depot/dev/client3/rdock/2013.1/src/exe/rbdock.cxx#4 $)

>  <Rbt.Library>
libRbt.so (2013.1, Build901 2013/11/27)

>  <Rbt.Parameter_File>
/export/apps/rDock/src/rDock_2013.1_src/data/scripts/dock_solv.prm

>  <Rbt.Receptor>
prm/pocket_docking_6.prm

>  <SCORE>
-7.43867

>  <SCORE.INTER>
-5.10481

>  <SCORE.INTER.CONST>
1

>  <SCORE.INTER.POLAR>
0

>  <SCORE.INTER.ROT>
11

>  <SCORE.INTER.SOLV>
9.75644

>  <SCORE.INTER.VDW>
-17.5887

>  <SCORE.INTER.norm>
-0.36463

>  <SCORE.INTRA>
-2.33386

>  <SCORE.INTRA.DIHEDRAL>
-4.11088

>  <SCORE.INTRA.DIHEDRAL.0>
7.79482

>  <SCORE.INTRA.POLAR>
0

>  <SCORE.INTRA.POLAR.0>
0

>  <SCORE.INTRA.REPUL>
0

>  <SCORE.INTRA.REPUL.0>
0

>  <SCORE.INTRA.SOLV>
0.526165

>  <SCORE.INTRA.SOLV.lig_0>
-49.456

>  <SCORE.INTRA.VDW>
-0.5415

>  <SCORE.INTRA.VDW.0>
-0.478406

>  <SCORE.INTRA.norm>
-0.166704

>  <SCORE.RESTR>
0

>  <SCORE.RESTR.CAVITY>
0

>  <SCORE.RESTR.norm>
0

>  <SCORE.SYSTEM>
0

>  <SCORE.SYSTEM.CONST>
0

>  <SCORE.SYSTEM.DIHEDRAL>
0

>  <SCORE.SYSTEM.SOLV>
0

>  <SCORE.SYSTEM.norm>
0

>  <SCORE.heavy>
14

>  <SCORE.norm>
-0.531334

>  <RMSD>
2.362

$$$$
ligand
 OpenBabel11021811413D
libRbt.so/2013.1/901 2013/11/27
 14 13  0  0  0  0  0  0  0  0999 V2000
   45.5927   10.8067   17.3773 N   0  0  0  0  0  0  0  0  0  0  0  0
   44.7664   10.1776   18.4303 C   0  0  0  0  0  0  0  0  0  0  0  0
   45.0900    8.6744   18.5699 C   0  0  0  0  0  0  0  0  0  0  0  0
   46.5023    8.3701   19.0962 C   0  0  0  0  0  0  0  0  0  0  0  0
   46.7941    6.9117   19.0311 N   0  0  0  0  0  0  0  0  0  0  0  0
   45.9766    6.1794   20.0322 C   0  0  0  0  0  0  0  0  0  0  0  0
   46.1898    4.6286   20.0761 C   0  0  0  0  0  0  0  0  0  0  0  0
   45.9476    3.9155   18.7147 C   0  0  0  0  0  0  0  0  0  0  0  0
   46.1589    2.4148   18.7599 C   0  0  0  0  0  0  0  0  0  0  0  0
   46.0000    1.9079   17.4100 N   0  0  0  0  0  0  0  0  0  0  0  0
   44.7468    1.1736   17.4055 C   0  0  0  0  0  0  0  0  0  0  0  0
   44.6294    0.2782   16.1776 C   0  0  0  0  0  0  0  0  0  0  0  0
   45.7358   -0.7836   16.2692 C   0  0  0  0  0  0  0  0  0  0  0  0
   45.9121   -1.5127   15.0043 N   0  0  0  0  0  0  0  0  0  0  0  0
  1  2  1  0  0  0  0
  2  3  1  0  0  0  0
  3  4  1  0  0  0  0
  4  5  1  0  0  0  0
  5  6  1  0  0  0  0
  6  7  1  0  0  0  0
  7  8  1  0  0  0  0
  8  9  1  0  0  0  0
  9 10  1  0  0  0  0
 10 11  1  0  0  0  0
 11 12  1  0  0  0  0
 12 13  1  0  0  0  0
 13 14  1  0  0  0  0
M  END
>  <CHROM.1>
66.67228051,-172.54115526,-69.87879090,-179.75565261,-56.49076276,179.82941227
-175.69280492,-108.91455479,-164.64322355,64.43404702,-167.21940318,45.71717277
4.51014274,18.02564090,1.52626545,-1.24136425,0.19196877

>  <Name>
ligand

>  <RI>
0

>  <Rbt.Current_Directory>
/home/itssahil/PROJECTS/Mol_Feturizer/New_Systems/rnas/1TN2

>  <Rbt.Executable>
rbdock ($Id: //depot/dev/client3/rdock/2013.1/src/exe/rbdock.cxx#4 $)

>  <Rbt.Library>
libRbt.so (2013.1, Build901 2013/11/27)

>  <Rbt.Parameter_File>
/export/apps/rDock/src/rDock_2013.1_src/data/scripts/dock_solv.prm

>  <Rbt.Receptor>
prm/pocket_docking_2.prm

>  <SCORE>
-7.05056

>  <SCORE.INTER>
-5.58286

>  <SCORE.INTER.CONST>
1

>  <SCORE.INTER.POLAR>
0

>  <SCORE.INTER.ROT>
11

>  <SCORE.INTER.SOLV>
12.2164

>  <SCORE.INTER.VDW>
-18.7274

>  <SCORE.INTER.norm>
-0.398776

>  <SCORE.INTRA>
-1.46771

>  <SCORE.INTRA.DIHEDRAL>
-5.27047

>  <SCORE.INTRA.DIHEDRAL.0>
7.79482

>  <SCORE.INTRA.POLAR>
0

>  <SCORE.INTRA.POLAR.0>
0

>  <SCORE.INTRA.REPUL>
0

>  <SCORE.INTRA.REPUL.0>
0

>  <SCORE.INTRA.SOLV>
1.54753

>  <SCORE.INTRA.SOLV.lig_0>
-49.456

>  <SCORE.INTRA.VDW>
0.393767

>  <SCORE.INTRA.VDW.0>
-0.478406

>  <SCORE.INTRA.norm>
-0.104836

>  <SCORE.RESTR>
0

>  <SCORE.RESTR.CAVITY>
0

>  <SCORE.RESTR.norm>
0

>  <SCORE.SYSTEM>
0

>  <SCORE.SYSTEM.CONST>
0

>  <SCORE.SYSTEM.DIHEDRAL>
0

>  <SCORE.SYSTEM.SOLV>
0

>  <SCORE.SYSTEM.norm>
0

>  <SCORE.heavy>
14

>  <SCORE.norm>
-0.503612

>  <RMSD>
2.372

$$$$
ligand
 OpenBabel11021811413D
libRbt.so/2013.1/901 2013/11/27
 14 13  0  0  0  0  0  0  0  0999 V2000
   44.5941    1.4200   16.0399 N   0  0  0  0  0  0  0  0  0  0  0  0
   44.6163    0.8190   17.3910 C   0  0  0  0  0  0  0  0  0  0  0  0
   46.0078    0.9654   18.0440 C   0  0  0  0  0  0  0  0  0  0  0  0
   46.4149    2.4129   18.3650 C   0  0  0  0  0  0  0  0  0  0  0  0
   45.5460    2.9892   19.4277 N   0  0  0  0  0  0  0  0  0  0  0  0
   45.6872    4.4676   19.4606 C   0  0  0  0  0  0  0  0  0  0  0  0
   45.3814    5.1461   20.8383 C   0  0  0  0  0  0  0  0  0  0  0  0
   45.2062    6.6901   20.7610 C   0  0  0  0  0  0  0  0  0  0  0  0
   46.4294    7.4233   20.2459 C   0  0  0  0  0  0  0  0  0  0  0  0
   46.1107    8.8380   20.2096 N   0  0  0  0  0  0  0  0  0  0  0  0
   46.6695    9.3401   18.9665 C   0  0  0  0  0  0  0  0  0  0  0  0
   46.1275   10.7245   18.6304 C   0  0  0  0  0  0  0  0  0  0  0  0
   46.7762   11.1698   17.3110 C   0  0  0  0  0  0  0  0  0  0  0  0
   46.3470   12.5174   16.9080 N   0  0  0  0  0  0  0  0  0  0  0  0
  1  2  1  0  0  0  0
  2  3  1  0  0  0  0
  3  4  1  0  0  0  0
  4  5  1  0  0  0  0
  5  6  1  0  0  0  0
  6  7  1  0  0  0  0
  7  8  1  0  0  0  0
  8  9  1  0  0  0  0
  9 10  1  0  0  0  0
 10 11  1  0  0  0  0
 11 12  1  0  0  0  0
 12 13  1  0  0  0  0
 13 14  1  0  0  0  0
M  END
>  <CHROM.1>
66.48615790,66.62764948,-164.17879188,-153.97232431,-166.19564981,-60.36016116
179.09726318,-138.38527445,166.18497345,179.79406455,-178.51499587,45.85110942
6.06579452,18.75730896,3.05267332,1.45493023,1.70340764

>  <Name>
ligand

>  <RI>
0

>  <Rbt.Current_Directory>
/home/itssahil/PROJECTS/Mol_Feturizer/New_Systems/rnas/1TN2

>  <Rbt.Executable>
rbdock ($Id: //depot/dev/client3/rdock/2013.1/src/exe/rbdock.cxx#4 $)

>  <Rbt.Library>
libRbt.so (2013.1, Build901 2013/11/27)

>  <Rbt.Parameter_File>
/export/apps/rDock/src/rDock_2013.1_src/data/scripts/dock_solv.prm

>  <Rbt.Receptor>
prm/pocket_docking_6.prm

>  <SCORE>
-8.91183

>  <SCORE.INTER>
-6.77788

>  <SCORE.INTER.CONST>
1

>  <SCORE.INTER.POLAR>
0

>  <SCORE.INTER.ROT>
11

>  <SCORE.INTER.SOLV>
12.2737

>  <SCORE.INTER.VDW>
-19.5432

>  <SCORE.INTER.norm>
-0.484134

>  <SCORE.INTRA>
-2.13395

>  <SCORE.INTRA.DIHEDRAL>
-5.00689

>  <SCORE.INTRA.DIHEDRAL.0>
7.79482

>  <SCORE.INTRA.POLAR>
0

>  <SCORE.INTRA.POLAR.0>
0

>  <SCORE.INTRA.REPUL>
0

>  <SCORE.INTRA.REPUL.0>
0

>  <SCORE.INTRA.SOLV>
1.62037

>  <SCORE.INTRA.SOLV.lig_0>
-49.456

>  <SCORE.INTRA.VDW>
-0.440685

>  <SCORE.INTRA.VDW.0>
-0.478406

>  <SCORE.INTRA.norm>
-0.152425

>  <SCORE.RESTR>
0

>  <SCORE.RESTR.CAVITY>
0

>  <SCORE.RESTR.norm>
0

>  <SCORE.SYSTEM>
0

>  <SCORE.SYSTEM.CONST>
0

>  <SCORE.SYSTEM.DIHEDRAL>
0

>  <SCORE.SYSTEM.SOLV>
0

>  <SCORE.SYSTEM.norm>
0

>  <SCORE.heavy>
14

>  <SCORE.norm>
-0.636559

>  <RMSD>
2.373

$$$$
ligand
 OpenBabel11021811413D
libRbt.so/2013.1/901 2013/11/27
 14 13  0  0  0  0  0  0  0  0999 V2000
   46.5731    9.8634   15.8216 N   0  0  0  0  0  0  0  0  0  0  0  0
   45.5787   10.6350   16.5980 C   0  0  0  0  0  0  0  0  0  0  0  0
   45.6703   10.3073   18.1041 C   0  0  0  0  0  0  0  0  0  0  0  0
   45.3101    8.8571   18.4664 C   0  0  0  0  0  0  0  0  0  0  0  0
   45.4871    8.6107   19.9239 N   0  0  0  0  0  0  0  0  0  0  0  0
   45.0941    7.2182   20.2606 C   0  0  0  0  0  0  0  0  0  0  0  0
   46.1681    6.1198   19.9568 C   0  0  0  0  0  0  0  0  0  0  0  0
   45.8536    4.7326   20.5870 C   0  0  0  0  0  0  0  0  0  0  0  0
   44.6864    4.0129   19.9400 C   0  0  0  0  0  0  0  0  0  0  0  0
   45.1794    3.3686   18.7375 N   0  0  0  0  0  0  0  0  0  0  0  0
   45.0483    1.9406   18.9688 C   0  0  0  0  0  0  0  0  0  0  0  0
   45.6312    1.1330   17.8150 C   0  0  0  0  0  0  0  0  0  0  0  0
   44.7406    1.3690   16.5858 C   0  0  0  0  0  0  0  0  0  0  0  0
   45.1929    0.6007   15.4163 N   0  0  0  0  0  0  0  0  0  0  0  0
  1  2  1  0  0  0  0
  2  3  1  0  0  0  0
  3  4  1  0  0  0  0
  4  5  1  0  0  0  0
  5  6  1  0  0  0  0
  6  7  1  0  0  0  0
  7  8  1  0  0  0  0
  8  9  1  0  0  0  0
  9 10  1  0  0  0  0
 10 11  1  0  0  0  0
 11 12  1  0  0  0  0
 12 13  1  0  0  0  0
 13 14  1  0  0  0  0
M  END
>  <CHROM.1>
-64.77269674,177.29390304,178.23874961,80.36311888,167.80826785,70.53761877
81.32194857,114.85194782,-175.74366117,-67.68688016,-178.35307319,45.44377465
5.62635278,18.37049416,-0.61793213,-1.48242969,-2.15296321

>  <Name>
ligand

>  <RI>
0

>  <Rbt.Current_Directory>
/home/itssahil/PROJECTS/Mol_Feturizer/New_Systems/rnas/1TN2

>  <Rbt.Executable>
rbdock ($Id: //depot/dev/client3/rdock/2013.1/src/exe/rbdock.cxx#4 $)

>  <Rbt.Library>
libRbt.so (2013.1, Build901 2013/11/27)

>  <Rbt.Parameter_File>
/export/apps/rDock/src/rDock_2013.1_src/data/scripts/dock_solv.prm

>  <Rbt.Receptor>
prm/pocket_docking_3.prm

>  <SCORE>
-5.96946

>  <SCORE.INTER>
-4.85346

>  <SCORE.INTER.CONST>
1

>  <SCORE.INTER.POLAR>
0

>  <SCORE.INTER.ROT>
11

>  <SCORE.INTER.SOLV>
11.3031

>  <SCORE.INTER.VDW>
-17.9367

>  <SCORE.INTER.norm>
-0.346675

>  <SCORE.INTRA>
-1.11601

>  <SCORE.INTRA.DIHEDRAL>
-3.39876

>  <SCORE.INTRA.DIHEDRAL.0>
7.79482

>  <SCORE.INTRA.POLAR>
0

>  <SCORE.INTRA.POLAR.0>
0

>  <SCORE.INTRA.REPUL>
0

>  <SCORE.INTRA.REPUL.0>
0

>  <SCORE.INTRA.SOLV>
1.44278

>  <SCORE.INTRA.SOLV.lig_0>
-49.456

>  <SCORE.INTRA.VDW>
-0.138016

>  <SCORE.INTRA.VDW.0>
-0.478406

>  <SCORE.INTRA.norm>
-0.0797147

>  <SCORE.RESTR>
0

>  <SCORE.RESTR.CAVITY>
0

>  <SCORE.RESTR.norm>
0

>  <SCORE.SYSTEM>
0

>  <SCORE.SYSTEM.CONST>
0

>  <SCORE.SYSTEM.DIHEDRAL>
0

>  <SCORE.SYSTEM.SOLV>
0

>  <SCORE.SYSTEM.norm>
0

>  <SCORE.heavy>
14

>  <SCORE.norm>
-0.42639

>  <RMSD>
2.385

$$$$
ligand
 OpenBabel11021811413D
libRbt.so/2013.1/901 2013/11/27
 14 13  0  0  0  0  0  0  0  0999 V2000
   45.4962   -2.0713   15.4055 N   0  0  0  0  0  0  0  0  0  0  0  0
   45.5536   -0.6036   15.5778 C   0  0  0  0  0  0  0  0  0  0  0  0
   44.9519   -0.1770   16.9343 C   0  0  0  0  0  0  0  0  0  0  0  0
   44.7889    1.3414   17.1128 C   0  0  0  0  0  0  0  0  0  0  0  0
   46.1086    2.0291   17.0707 N   0  0  0  0  0  0  0  0  0  0  0  0
   46.4153    2.6327   18.3930 C   0  0  0  0  0  0  0  0  0  0  0  0
   45.9272    4.1070   18.5935 C   0  0  0  0  0  0  0  0  0  0  0  0
   46.2830    4.7104   19.9827 C   0  0  0  0  0  0  0  0  0  0  0  0
   45.9106    6.1726   20.1322 C   0  0  0  0  0  0  0  0  0  0  0  0
   46.7347    6.9323   19.2113 N   0  0  0  0  0  0  0  0  0  0  0  0
   46.0237    8.1765   18.9746 C   0  0  0  0  0  0  0  0  0  0  0  0
   46.5828    8.9169   17.7652 C   0  0  0  0  0  0  0  0  0  0  0  0
   45.6211   10.0702   17.4409 C   0  0  0  0  0  0  0  0  0  0  0  0
   45.5626   11.0654   18.5220 N   0  0  0  0  0  0  0  0  0  0  0  0
  1  2  1  0  0  0  0
  2  3  1  0  0  0  0
  3  4  1  0  0  0  0
  4  5  1  0  0  0  0
  5  6  1  0  0  0  0
  6  7  1  0  0  0  0
  7  8  1  0  0  0  0
  8  9  1  0  0  0  0
  9 10  1  0  0  0  0
 10 11  1  0  0  0  0
 11 12  1  0  0  0  0
 12 13  1  0  0  0  0
 13 14  1  0  0  0  0
M  END
>  <CHROM.1>
-171.76880125,-62.48811778,-114.17287398,-90.38271190,-179.23796682,175.24029000
-65.81889743,157.57297413,-165.41333274,169.87055152,64.25132728,45.85424172
4.52162012,17.93706451,1.86633732,1.36971849,3.07807895

>  <Name>
ligand

>  <RI>
0

>  <Rbt.Current_Directory>
/home/itssahil/PROJECTS/Mol_Feturizer/New_Systems/rnas/1TN2

>  <Rbt.Executable>
rbdock ($Id: //depot/dev/client3/rdock/2013.1/src/exe/rbdock.cxx#4 $)

>  <Rbt.Library>
libRbt.so (2013.1, Build901 2013/11/27)

>  <Rbt.Parameter_File>
/export/apps/rDock/src/rDock_2013.1_src/data/scripts/dock_solv.prm

>  <Rbt.Receptor>
prm/pocket_docking_2.prm

>  <SCORE>
-5.12697

>  <SCORE.INTER>
-3.21403

>  <SCORE.INTER.CONST>
1

>  <SCORE.INTER.POLAR>
0

>  <SCORE.INTER.ROT>
11

>  <SCORE.INTER.SOLV>
14.2425

>  <SCORE.INTER.VDW>
-17.8235

>  <SCORE.INTER.norm>
-0.229573

>  <SCORE.INTRA>
-1.97125

>  <SCORE.INTRA.DIHEDRAL>
-4.52868

>  <SCORE.INTRA.DIHEDRAL.0>
7.79482

>  <SCORE.INTRA.POLAR>
0

>  <SCORE.INTRA.POLAR.0>
0

>  <SCORE.INTRA.REPUL>
0

>  <SCORE.INTRA.REPUL.0>
0

>  <SCORE.INTRA.SOLV>
1.45831

>  <SCORE.INTRA.SOLV.lig_0>
-49.456

>  <SCORE.INTRA.VDW>
-0.436065

>  <SCORE.INTRA.VDW.0>
-0.478406

>  <SCORE.INTRA.norm>
-0.140804

>  <SCORE.RESTR>
0.0583068

>  <SCORE.RESTR.CAVITY>
0.0583068

>  <SCORE.RESTR.norm>
0.00416477

>  <SCORE.SYSTEM>
0

>  <SCORE.SYSTEM.CONST>
0

>  <SCORE.SYSTEM.DIHEDRAL>
0

>  <SCORE.SYSTEM.SOLV>
0

>  <SCORE.SYSTEM.norm>
0

>  <SCORE.heavy>
14

>  <SCORE.norm>
-0.366212

>  <RMSD>
2.387

$$$$
ligand
 OpenBabel11021811413D
libRbt.so/2013.1/901 2013/11/27
 14 13  0  0  0  0  0  0  0  0999 V2000
   45.3156   -0.2237   15.2819 N   0  0  0  0  0  0  0  0  0  0  0  0
   45.4837   -0.1262   16.7480 C   0  0  0  0  0  0  0  0  0  0  0  0
   45.7088    1.3367   17.1877 C   0  0  0  0  0  0  0  0  0  0  0  0
   45.9475    1.5221   18.6952 C   0  0  0  0  0  0  0  0  0  0  0  0
   46.0687    2.9645   19.0436 N   0  0  0  0  0  0  0  0  0  0  0  0
   44.7453    3.5093   19.4420 C   0  0  0  0  0  0  0  0  0  0  0  0
   44.7205    4.3106   20.7871 C   0  0  0  0  0  0  0  0  0  0  0  0
   45.6111    5.5863   20.7830 C   0  0  0  0  0  0  0  0  0  0  0  0
   45.1074    6.6856   19.8683 C   0  0  0  0  0  0  0  0  0  0  0  0
   46.0273    7.8021   19.9754 N   0  0  0  0  0  0  0  0  0  0  0  0
   45.4910    8.8434   19.1165 C   0  0  0  0  0  0  0  0  0  0  0  0
   46.3621   10.0939   19.1455 C   0  0  0  0  0  0  0  0  0  0  0  0
   45.7002   11.1425   18.2387 C   0  0  0  0  0  0  0  0  0  0  0  0
   45.7580   10.7647   16.8186 N   0  0  0  0  0  0  0  0  0  0  0  0
  1  2  1  0  0  0  0
  2  3  1  0  0  0  0
  3  4  1  0  0  0  0
  4  5  1  0  0  0  0
  5  6  1  0  0  0  0
  6  7  1  0  0  0  0
  7  8  1  0  0  0  0
  8  9  1  0  0  0  0
  9 10  1  0  0  0  0
 10 11  1  0  0  0  0
 11 12  1  0  0  0  0
 12 13  1  0  0  0  0
 13 14  1  0  0  0  0
M  END
>  <CHROM.1>
-177.75812996,-176.41284700,92.93133183,130.19267585,62.01523182,68.35724003
179.68860638,-178.44765139,179.42708542,-178.69932588,-68.67521064,45.57471018
5.30082905,18.65260774,-1.92055434,1.47866884,0.50085603

>  <Name>
ligand

>  <RI>
0

>  <Rbt.Current_Directory>
/home/itssahil/PROJECTS/Mol_Feturizer/New_Systems/rnas/1TN2

>  <Rbt.Executable>
rbdock ($Id: //depot/dev/client3/rdock/2013.1/src/exe/rbdock.cxx#4 $)

>  <Rbt.Library>
libRbt.so (2013.1, Build901 2013/11/27)

>  <Rbt.Parameter_File>
/export/apps/rDock/src/rDock_2013.1_src/data/scripts/dock_solv.prm

>  <Rbt.Receptor>
prm/pocket_docking_5.prm

>  <SCORE>
-8.14596

>  <SCORE.INTER>
-5.80763

>  <SCORE.INTER.CONST>
1

>  <SCORE.INTER.POLAR>
0

>  <SCORE.INTER.ROT>
11

>  <SCORE.INTER.SOLV>
10.4386

>  <SCORE.INTER.VDW>
-18.2846

>  <SCORE.INTER.norm>
-0.414831

>  <SCORE.INTRA>
-2.33833

>  <SCORE.INTRA.DIHEDRAL>
-5.32644

>  <SCORE.INTRA.DIHEDRAL.0>
7.79482

>  <SCORE.INTRA.POLAR>
0

>  <SCORE.INTRA.POLAR.0>
0

>  <SCORE.INTRA.REPUL>
0

>  <SCORE.INTRA.REPUL.0>
0

>  <SCORE.INTRA.SOLV>
1.34045

>  <SCORE.INTRA.SOLV.lig_0>
-49.456

>  <SCORE.INTRA.VDW>
-0.345338

>  <SCORE.INTRA.VDW.0>
-0.478406

>  <SCORE.INTRA.norm>
-0.167024

>  <SCORE.RESTR>
0

>  <SCORE.RESTR.CAVITY>
0

>  <SCORE.RESTR.norm>
0

>  <SCORE.SYSTEM>
0

>  <SCORE.SYSTEM.CONST>
0

>  <SCORE.SYSTEM.DIHEDRAL>
0

>  <SCORE.SYSTEM.SOLV>
0

>  <SCORE.SYSTEM.norm>
0

>  <SCORE.heavy>
14

>  <SCORE.norm>
-0.581854

>  <RMSD>
2.390

$$$$
ligand
 OpenBabel11021811413D
libRbt.so/2013.1/901 2013/11/27
 14 13  0  0  0  0  0  0  0  0999 V2000
   47.5012    9.5273   16.3998 N   0  0  0  0  0  0  0  0  0  0  0  0
   46.0870    9.1259   16.5618 C   0  0  0  0  0  0  0  0  0  0  0  0
   45.5189    9.6160   17.9112 C   0  0  0  0  0  0  0  0  0  0  0  0
   46.4793    9.4653   19.1024 C   0  0  0  0  0  0  0  0  0  0  0  0
   47.1822    8.1536   19.0596 N   0  0  0  0  0  0  0  0  0  0  0  0
   46.3550    7.1064   19.7123 C   0  0  0  0  0  0  0  0  0  0  0  0
   46.3736    5.7012   19.0215 C   0  0  0  0  0  0  0  0  0  0  0  0
   45.3748    4.6785   19.6354 C   0  0  0  0  0  0  0  0  0  0  0  0
   45.6019    3.2491   19.1834 C   0  0  0  0  0  0  0  0  0  0  0  0
   45.5685    3.2363   17.7332 N   0  0  0  0  0  0  0  0  0  0  0  0
   46.4287    2.1394   17.3250 C   0  0  0  0  0  0  0  0  0  0  0  0
   45.6273    0.8691   17.0656 C   0  0  0  0  0  0  0  0  0  0  0  0
   44.7642    1.1107   15.8180 C   0  0  0  0  0  0  0  0  0  0  0  0
   44.0215   -0.0929   15.4147 N   0  0  0  0  0  0  0  0  0  0  0  0
  1  2  1  0  0  0  0
  2  3  1  0  0  0  0
  3  4  1  0  0  0  0
  4  5  1  0  0  0  0
  5  6  1  0  0  0  0
  6  7  1  0  0  0  0
  7  8  1  0  0  0  0
  8  9  1  0  0  0  0
  9 10  1  0  0  0  0
 10 11  1  0  0  0  0
 11 12  1  0  0  0  0
 12 13  1  0  0  0  0
 13 14  1  0  0  0  0
M  END
>  <CHROM.1>
-41.36653220,-42.28585752,-85.91317543,141.21109982,-173.42797879,-167.19427770
-55.21446321,150.96933135,95.72571454,67.88888567,175.64900394,45.92023983
5.27759682,17.85343041,0.42789283,-1.37395587,-0.96015026

>  <Name>
ligand

>  <RI>
0

>  <Rbt.Current_Directory>
/home/itssahil/PROJECTS/Mol_Feturizer/New_Systems/rnas/1TN2

>  <Rbt.Executable>
rbdock ($Id: //depot/dev/client3/rdock/2013.1/src/exe/rbdock.cxx#4 $)

>  <Rbt.Library>
libRbt.so (2013.1, Build901 2013/11/27)

>  <Rbt.Parameter_File>
/export/apps/rDock/src/rDock_2013.1_src/data/scripts/dock_solv.prm

>  <Rbt.Receptor>
prm/pocket_docking_2.prm

>  <SCORE>
0.816379

>  <SCORE.INTER>
-1.31694

>  <SCORE.INTER.CONST>
1

>  <SCORE.INTER.POLAR>
0

>  <SCORE.INTER.ROT>
11

>  <SCORE.INTER.SOLV>
14.7574

>  <SCORE.INTER.VDW>
-16.7304

>  <SCORE.INTER.norm>
-0.094067

>  <SCORE.INTRA>
1.53959

>  <SCORE.INTRA.DIHEDRAL>
-1.57798

>  <SCORE.INTRA.DIHEDRAL.0>
7.79482

>  <SCORE.INTRA.POLAR>
0

>  <SCORE.INTRA.POLAR.0>
0

>  <SCORE.INTRA.REPUL>
0

>  <SCORE.INTRA.REPUL.0>
0

>  <SCORE.INTRA.SOLV>
3.73735

>  <SCORE.INTRA.SOLV.lig_0>
-49.456

>  <SCORE.INTRA.VDW>
0.459902

>  <SCORE.INTRA.VDW.0>
-0.478406

>  <SCORE.INTRA.norm>
0.109971

>  <SCORE.RESTR>
0.593727

>  <SCORE.RESTR.CAVITY>
0.593727

>  <SCORE.RESTR.norm>
0.0424091

>  <SCORE.SYSTEM>
0

>  <SCORE.SYSTEM.CONST>
0

>  <SCORE.SYSTEM.DIHEDRAL>
0

>  <SCORE.SYSTEM.SOLV>
0

>  <SCORE.SYSTEM.norm>
0

>  <SCORE.heavy>
14

>  <SCORE.norm>
0.0583128

>  <RMSD>
2.434

$$$$
ligand
 OpenBabel11021811413D
libRbt.so/2013.1/901 2013/11/27
 14 13  0  0  0  0  0  0  0  0999 V2000
   45.5583   10.8446   17.0352 N   0  0  0  0  0  0  0  0  0  0  0  0
   44.5172   10.6253   18.0624 C   0  0  0  0  0  0  0  0  0  0  0  0
   44.5169    9.1613   18.5529 C   0  0  0  0  0  0  0  0  0  0  0  0
   43.4916    8.8569   19.6576 C   0  0  0  0  0  0  0  0  0  0  0  0
   43.5329    7.4196   20.0435 N   0  0  0  0  0  0  0  0  0  0  0  0
   44.7514    7.1381   20.8452 C   0  0  0  0  0  0  0  0  0  0  0  0
   45.7528    6.1114   20.2165 C   0  0  0  0  0  0  0  0  0  0  0  0
   45.1759    4.6748   20.0618 C   0  0  0  0  0  0  0  0  0  0  0  0
   46.0483    3.7464   19.2397 C   0  0  0  0  0  0  0  0  0  0  0  0
   45.4275    2.4354   19.2510 N   0  0  0  0  0  0  0  0  0  0  0  0
   45.5409    1.9296   17.8942 C   0  0  0  0  0  0  0  0  0  0  0  0
   44.4570    0.9023   17.5895 C   0  0  0  0  0  0  0  0  0  0  0  0
   44.5394    0.5698   16.0920 C   0  0  0  0  0  0  0  0  0  0  0  0
   45.7829   -0.1357   15.7473 N   0  0  0  0  0  0  0  0  0  0  0  0
  1  2  1  0  0  0  0
  2  3  1  0  0  0  0
  3  4  1  0  0  0  0
  4  5  1  0  0  0  0
  5  6  1  0  0  0  0
  6  7  1  0  0  0  0
  7  8  1  0  0  0  0
  8  9  1  0  0  0  0
  9 10  1  0  0  0  0
 10 11  1  0  0  0  0
 11 12  1  0  0  0  0
 12 13  1  0  0  0  0
 13 14  1  0  0  0  0
M  END
>  <CHROM.1>
178.13827473,178.42637120,73.70612233,-117.99792586,-64.12559437,169.91475853
176.63235298,138.04967285,-155.07671469,172.51904752,66.95836485,44.93516727
5.30576177,18.59228355,-2.73542886,-1.48664454,2.16715560

>  <Name>
ligand

>  <RI>
0

>  <Rbt.Current_Directory>
/home/itssahil/PROJECTS/Mol_Feturizer/New_Systems/rnas/1TN2

>  <Rbt.Executable>
rbdock ($Id: //depot/dev/client3/rdock/2013.1/src/exe/rbdock.cxx#4 $)

>  <Rbt.Library>
libRbt.so (2013.1, Build901 2013/11/27)

>  <Rbt.Parameter_File>
/export/apps/rDock/src/rDock_2013.1_src/data/scripts/dock_solv.prm

>  <Rbt.Receptor>
prm/pocket_docking_6.prm

>  <SCORE>
-8.05473

>  <SCORE.INTER>
-6.40123

>  <SCORE.INTER.CONST>
1

>  <SCORE.INTER.POLAR>
0

>  <SCORE.INTER.ROT>
11

>  <SCORE.INTER.SOLV>
12.6114

>  <SCORE.INTER.VDW>
-19.4046

>  <SCORE.INTER.norm>
-0.457231

>  <SCORE.INTRA>
-1.6535

>  <SCORE.INTRA.DIHEDRAL>
-4.1199

>  <SCORE.INTRA.DIHEDRAL.0>
7.79482

>  <SCORE.INTRA.POLAR>
0

>  <SCORE.INTRA.POLAR.0>
0

>  <SCORE.INTRA.REPUL>
0

>  <SCORE.INTRA.REPUL.0>
0

>  <SCORE.INTRA.SOLV>
1.03398

>  <SCORE.INTRA.SOLV.lig_0>
-49.456

>  <SCORE.INTRA.VDW>
-0.110536

>  <SCORE.INTRA.VDW.0>
-0.478406

>  <SCORE.INTRA.norm>
-0.118107

>  <SCORE.RESTR>
0

>  <SCORE.RESTR.CAVITY>
0

>  <SCORE.RESTR.norm>
0

>  <SCORE.SYSTEM>
0

>  <SCORE.SYSTEM.CONST>
0

>  <SCORE.SYSTEM.DIHEDRAL>
0

>  <SCORE.SYSTEM.SOLV>
0

>  <SCORE.SYSTEM.norm>
0

>  <SCORE.heavy>
14

>  <SCORE.norm>
-0.575338

>  <RMSD>
2.438

$$$$
ligand
 OpenBabel11021811413D
libRbt.so/2013.1/901 2013/11/27
 14 13  0  0  0  0  0  0  0  0999 V2000
   45.2776   -2.1988   15.5007 N   0  0  0  0  0  0  0  0  0  0  0  0
   45.7282   -1.2453   16.5375 C   0  0  0  0  0  0  0  0  0  0  0  0
   45.3936    0.2090   16.1413 C   0  0  0  0  0  0  0  0  0  0  0  0
   45.8166    1.2669   17.1737 C   0  0  0  0  0  0  0  0  0  0  0  0
   45.4913    2.6392   16.6967 N   0  0  0  0  0  0  0  0  0  0  0  0
   46.0614    3.6527   17.6212 C   0  0  0  0  0  0  0  0  0  0  0  0
   45.5333    3.5979   19.0943 C   0  0  0  0  0  0  0  0  0  0  0  0
   46.3016    4.5251   20.0793 C   0  0  0  0  0  0  0  0  0  0  0  0
   45.8213    5.9632   20.0725 C   0  0  0  0  0  0  0  0  0  0  0  0
   46.3256    6.5892   18.8650 N   0  0  0  0  0  0  0  0  0  0  0  0
   46.1028    8.0146   19.0327 C   0  0  0  0  0  0  0  0  0  0  0  0
   46.3403    8.7731   17.7321 C   0  0  0  0  0  0  0  0  0  0  0  0
   46.1399   10.2682   18.0227 C   0  0  0  0  0  0  0  0  0  0  0  0
   44.7424   10.5879   18.3504 N   0  0  0  0  0  0  0  0  0  0  0  0
  1  2  1  0  0  0  0
  2  3  1  0  0  0  0
  3  4  1  0  0  0  0
  4  5  1  0  0  0  0
  5  6  1  0  0  0  0
  6  7  1  0  0  0  0
  7  8  1  0  0  0  0
  8  9  1  0  0  0  0
  9 10  1  0  0  0  0
 10 11  1  0  0  0  0
 11 12  1  0  0  0  0
 12 13  1  0  0  0  0
 13 14  1  0  0  0  0
M  END
>  <CHROM.1>
179.41931114,178.44638128,-172.73584549,-61.07518042,171.29381760,83.37160223
-75.29555989,-167.81943411,-169.11568841,-177.63911367,-67.03362948,45.79127575
4.47452226,17.92309169,1.76481919,1.41373503,-3.10580464

>  <Name>
ligand

>  <RI>
0

>  <Rbt.Current_Directory>
/home/itssahil/PROJECTS/Mol_Feturizer/New_Systems/rnas/1TN2

>  <Rbt.Executable>
rbdock ($Id: //depot/dev/client3/rdock/2013.1/src/exe/rbdock.cxx#4 $)

>  <Rbt.Library>
libRbt.so (2013.1, Build901 2013/11/27)

>  <Rbt.Parameter_File>
/export/apps/rDock/src/rDock_2013.1_src/data/scripts/dock_solv.prm

>  <Rbt.Receptor>
prm/pocket_docking_2.prm

>  <SCORE>
-4.38164

>  <SCORE.INTER>
-3.10564

>  <SCORE.INTER.CONST>
1

>  <SCORE.INTER.POLAR>
0

>  <SCORE.INTER.ROT>
11

>  <SCORE.INTER.SOLV>
15.319

>  <SCORE.INTER.VDW>
-18.1101

>  <SCORE.INTER.norm>
-0.221831

>  <SCORE.INTRA>
-1.276

>  <SCORE.INTRA.DIHEDRAL>
-4.18185

>  <SCORE.INTRA.DIHEDRAL.0>
7.79482

>  <SCORE.INTRA.POLAR>
0

>  <SCORE.INTRA.POLAR.0>
0

>  <SCORE.INTRA.REPUL>
0

>  <SCORE.INTRA.REPUL.0>
0

>  <SCORE.INTRA.SOLV>
1.49499

>  <SCORE.INTRA.SOLV.lig_0>
-49.456

>  <SCORE.INTRA.VDW>
0.067434

>  <SCORE.INTRA.VDW.0>
-0.478406

>  <SCORE.INTRA.norm>
-0.0911426

>  <SCORE.RESTR>
0

>  <SCORE.RESTR.CAVITY>
0

>  <SCORE.RESTR.norm>
0

>  <SCORE.SYSTEM>
0

>  <SCORE.SYSTEM.CONST>
0

>  <SCORE.SYSTEM.DIHEDRAL>
0

>  <SCORE.SYSTEM.SOLV>
0

>  <SCORE.SYSTEM.norm>
0

>  <SCORE.heavy>
14

>  <SCORE.norm>
-0.312974

>  <RMSD>
2.454

$$$$
ligand
 OpenBabel11021811413D
libRbt.so/2013.1/901 2013/11/27
 14 13  0  0  0  0  0  0  0  0999 V2000
   46.3952    2.2052   16.3834 N   0  0  0  0  0  0  0  0  0  0  0  0
   45.6187    1.1007   16.9870 C   0  0  0  0  0  0  0  0  0  0  0  0
   44.4419    1.6406   17.8281 C   0  0  0  0  0  0  0  0  0  0  0  0
   44.8592    2.4444   19.0706 C   0  0  0  0  0  0  0  0  0  0  0  0
   45.5254    3.7184   18.6840 N   0  0  0  0  0  0  0  0  0  0  0  0
   46.3281    4.2428   19.8186 C   0  0  0  0  0  0  0  0  0  0  0  0
   45.5156    4.9648   20.9458 C   0  0  0  0  0  0  0  0  0  0  0  0
   44.9095    6.3316   20.5158 C   0  0  0  0  0  0  0  0  0  0  0  0
   45.9451    7.4021   20.2318 C   0  0  0  0  0  0  0  0  0  0  0  0
   45.2389    8.5921   19.7966 N   0  0  0  0  0  0  0  0  0  0  0  0
   46.2304    9.6531   19.7624 C   0  0  0  0  0  0  0  0  0  0  0  0
   46.7268    9.9069   18.3438 C   0  0  0  0  0  0  0  0  0  0  0  0
   45.5604   10.5062   17.5436 C   0  0  0  0  0  0  0  0  0  0  0  0
   45.9367   10.8072   16.1541 N   0  0  0  0  0  0  0  0  0  0  0  0
  1  2  1  0  0  0  0
  2  3  1  0  0  0  0
  3  4  1  0  0  0  0
  4  5  1  0  0  0  0
  5  6  1  0  0  0  0
  6  7  1  0  0  0  0
  7  8  1  0  0  0  0
  8  9  1  0  0  0  0
  9 10  1  0  0  0  0
 10 11  1  0  0  0  0
 11 12  1  0  0  0  0
 12 13  1  0  0  0  0
 13 14  1  0  0  0  0
M  END
>  <CHROM.1>
-65.35799671,66.91960152,-160.26101637,-78.13762221,-69.53377238,-66.73904399
177.83654783,170.24624931,100.10445495,68.03739603,179.31452988,45.65936694
5.96528889,18.71935838,-2.17991737,1.44800269,0.65101577

>  <Name>
ligand

>  <RI>
0

>  <Rbt.Current_Directory>
/home/itssahil/PROJECTS/Mol_Feturizer/New_Systems/rnas/1TN2

>  <Rbt.Executable>
rbdock ($Id: //depot/dev/client3/rdock/2013.1/src/exe/rbdock.cxx#4 $)

>  <Rbt.Library>
libRbt.so (2013.1, Build901 2013/11/27)

>  <Rbt.Parameter_File>
/export/apps/rDock/src/rDock_2013.1_src/data/scripts/dock_solv.prm

>  <Rbt.Receptor>
prm/pocket_docking_4.prm

>  <SCORE>
-6.88777

>  <SCORE.INTER>
-6.15771

>  <SCORE.INTER.CONST>
1

>  <SCORE.INTER.POLAR>
0

>  <SCORE.INTER.ROT>
11

>  <SCORE.INTER.SOLV>
10.9925

>  <SCORE.INTER.VDW>
-18.7026

>  <SCORE.INTER.norm>
-0.439837

>  <SCORE.INTRA>
-0.730058

>  <SCORE.INTRA.DIHEDRAL>
-5.19897

>  <SCORE.INTRA.DIHEDRAL.0>
7.79482

>  <SCORE.INTRA.POLAR>
0

>  <SCORE.INTRA.POLAR.0>
0

>  <SCORE.INTRA.REPUL>
0

>  <SCORE.INTRA.REPUL.0>
0

>  <SCORE.INTRA.SOLV>
3.92979

>  <SCORE.INTRA.SOLV.lig_0>
-49.456

>  <SCORE.INTRA.VDW>
-0.0954679

>  <SCORE.INTRA.VDW.0>
-0.478406

>  <SCORE.INTRA.norm>
-0.052147

>  <SCORE.RESTR>
0

>  <SCORE.RESTR.CAVITY>
0

>  <SCORE.RESTR.norm>
0

>  <SCORE.SYSTEM>
0

>  <SCORE.SYSTEM.CONST>
0

>  <SCORE.SYSTEM.DIHEDRAL>
0

>  <SCORE.SYSTEM.SOLV>
0

>  <SCORE.SYSTEM.norm>
0

>  <SCORE.heavy>
14

>  <SCORE.norm>
-0.491984

>  <RMSD>
2.457

$$$$
ligand
 OpenBabel11021811413D
libRbt.so/2013.1/901 2013/11/27
 14 13  0  0  0  0  0  0  0  0999 V2000
   45.2227    2.3593   15.7179 N   0  0  0  0  0  0  0  0  0  0  0  0
   44.7690    1.1029   16.3526 C   0  0  0  0  0  0  0  0  0  0  0  0
   45.7391    0.6599   17.4691 C   0  0  0  0  0  0  0  0  0  0  0  0
   45.7146    1.5446   18.7264 C   0  0  0  0  0  0  0  0  0  0  0  0
   46.2814    2.8917   18.4429 N   0  0  0  0  0  0  0  0  0  0  0  0
   45.9744    3.8230   19.5588 C   0  0  0  0  0  0  0  0  0  0  0  0
   45.9585    5.3439   19.1860 C   0  0  0  0  0  0  0  0  0  0  0  0
   45.0243    6.2075   20.0815 C   0  0  0  0  0  0  0  0  0  0  0  0
   44.8645    7.6379   19.6046 C   0  0  0  0  0  0  0  0  0  0  0  0
   43.6362    8.1568   20.1758 N   0  0  0  0  0  0  0  0  0  0  0  0
   43.3418    9.3770   19.4450 C   0  0  0  0  0  0  0  0  0  0  0  0
   41.8459    9.5310   19.1964 C   0  0  0  0  0  0  0  0  0  0  0  0
   41.6050   10.9576   18.6798 C   0  0  0  0  0  0  0  0  0  0  0  0
   42.3850   11.2485   17.4675 N   0  0  0  0  0  0  0  0  0  0  0  0
  1  2  1  0  0  0  0
  2  3  1  0  0  0  0
  3  4  1  0  0  0  0
  4  5  1  0  0  0  0
  5  6  1  0  0  0  0
  6  7  1  0  0  0  0
  7  8  1  0  0  0  0
  8  9  1  0  0  0  0
  9 10  1  0  0  0  0
 10 11  1  0  0  0  0
 11 12  1  0  0  0  0
 12 13  1  0  0  0  0
 13 14  1  0  0  0  0
M  END
>  <CHROM.1>
70.47363061,-68.75674603,167.24233559,-155.64224514,152.17198473,-172.13623583
158.56703366,-165.95338829,141.72440791,168.88209531,57.02569281,44.45448803
5.77424552,18.57913824,0.95457947,0.93552646,-2.46214575

>  <Name>
ligand

>  <RI>
0

>  <Rbt.Current_Directory>
/home/itssahil/PROJECTS/Mol_Feturizer/New_Systems/rnas/1TN2

>  <Rbt.Executable>
rbdock ($Id: //depot/dev/client3/rdock/2013.1/src/exe/rbdock.cxx#4 $)

>  <Rbt.Library>
libRbt.so (2013.1, Build901 2013/11/27)

>  <Rbt.Parameter_File>
/export/apps/rDock/src/rDock_2013.1_src/data/scripts/dock_solv.prm

>  <Rbt.Receptor>
prm/pocket_docking_6.prm

>  <SCORE>
-8.64068

>  <SCORE.INTER>
-9.42252

>  <SCORE.INTER.CONST>
1

>  <SCORE.INTER.POLAR>
0

>  <SCORE.INTER.ROT>
11

>  <SCORE.INTER.SOLV>
16.6258

>  <SCORE.INTER.VDW>
-22.7569

>  <SCORE.INTER.norm>
-0.673037

>  <SCORE.INTRA>
0.781839

>  <SCORE.INTRA.DIHEDRAL>
-0.790154

>  <SCORE.INTRA.DIHEDRAL.0>
7.79482

>  <SCORE.INTRA.POLAR>
0

>  <SCORE.INTRA.POLAR.0>
0

>  <SCORE.INTRA.REPUL>
0

>  <SCORE.INTRA.REPUL.0>
0

>  <SCORE.INTRA.SOLV>
3.70001

>  <SCORE.INTRA.SOLV.lig_0>
-49.456

>  <SCORE.INTRA.VDW>
-0.673089

>  <SCORE.INTRA.VDW.0>
-0.478406

>  <SCORE.INTRA.norm>
0.0558457

>  <SCORE.RESTR>
0

>  <SCORE.RESTR.CAVITY>
0

>  <SCORE.RESTR.norm>
0

>  <SCORE.SYSTEM>
0

>  <SCORE.SYSTEM.CONST>
0

>  <SCORE.SYSTEM.DIHEDRAL>
0

>  <SCORE.SYSTEM.SOLV>
0

>  <SCORE.SYSTEM.norm>
0

>  <SCORE.heavy>
14

>  <SCORE.norm>
-0.617192

>  <RMSD>
2.460

$$$$
ligand
 OpenBabel11021811413D
libRbt.so/2013.1/901 2013/11/27
 14 13  0  0  0  0  0  0  0  0999 V2000
   44.6915    1.2841   17.0455 N   0  0  0  0  0  0  0  0  0  0  0  0
   45.7861    1.0777   18.0184 C   0  0  0  0  0  0  0  0  0  0  0  0
   46.4725    2.4132   18.3778 C   0  0  0  0  0  0  0  0  0  0  0  0
   45.5637    3.4283   19.0902 C   0  0  0  0  0  0  0  0  0  0  0  0
   46.2724    4.7193   19.3080 N   0  0  0  0  0  0  0  0  0  0  0  0
   45.8660    5.3154   20.6066 C   0  0  0  0  0  0  0  0  0  0  0  0
   44.6443    6.2933   20.5495 C   0  0  0  0  0  0  0  0  0  0  0  0
   44.8779    7.5504   19.6632 C   0  0  0  0  0  0  0  0  0  0  0  0
   43.6606    8.4444   19.5298 C   0  0  0  0  0  0  0  0  0  0  0  0
   43.9937    9.5040   18.5967 N   0  0  0  0  0  0  0  0  0  0  0  0
   42.8578   10.4092   18.6004 C   0  0  0  0  0  0  0  0  0  0  0  0
   43.0589   11.5604   17.6218 C   0  0  0  0  0  0  0  0  0  0  0  0
   41.9309   12.5756   17.8603 C   0  0  0  0  0  0  0  0  0  0  0  0
   42.1028   13.7957   17.0575 N   0  0  0  0  0  0  0  0  0  0  0  0
  1  2  1  0  0  0  0
  2  3  1  0  0  0  0
  3  4  1  0  0  0  0
  4  5  1  0  0  0  0
  5  6  1  0  0  0  0
  6  7  1  0  0  0  0
  7  8  1  0  0  0  0
  8  9  1  0  0  0  0
  9 10  1  0  0  0  0
 10 11  1  0  0  0  0
 11 12  1  0  0  0  0
 12 13  1  0  0  0  0
 13 14  1  0  0  0  0
M  END
>  <CHROM.1>
63.72991545,-175.77162878,-143.89233569,-91.04890632,-61.61853509,175.84628697
-175.41276554,-174.36672593,-178.33253420,-170.86410690,174.33613288,44.41283801
7.02637269,18.70925942,0.87312076,1.06255250,-2.57410806

>  <Name>
ligand

>  <RI>
0

>  <Rbt.Current_Directory>
/home/itssahil/PROJECTS/Mol_Feturizer/New_Systems/rnas/1TN2

>  <Rbt.Executable>
rbdock ($Id: //depot/dev/client3/rdock/2013.1/src/exe/rbdock.cxx#4 $)

>  <Rbt.Library>
libRbt.so (2013.1, Build901 2013/11/27)

>  <Rbt.Parameter_File>
/export/apps/rDock/src/rDock_2013.1_src/data/scripts/dock_solv.prm

>  <Rbt.Receptor>
prm/pocket_docking_3.prm

>  <SCORE>
-10.7067

>  <SCORE.INTER>
-7.68018

>  <SCORE.INTER.CONST>
1

>  <SCORE.INTER.POLAR>
0

>  <SCORE.INTER.ROT>
11

>  <SCORE.INTER.SOLV>
16.2199

>  <SCORE.INTER.VDW>
-21.4601

>  <SCORE.INTER.norm>
-0.548584

>  <SCORE.INTRA>
-3.03311

>  <SCORE.INTRA.DIHEDRAL>
-5.63373

>  <SCORE.INTRA.DIHEDRAL.0>
7.79482

>  <SCORE.INTRA.POLAR>
0

>  <SCORE.INTRA.POLAR.0>
0

>  <SCORE.INTRA.REPUL>
0

>  <SCORE.INTRA.REPUL.0>
0

>  <SCORE.INTRA.SOLV>
0.984933

>  <SCORE.INTRA.SOLV.lig_0>
-49.456

>  <SCORE.INTRA.VDW>
-0.708716

>  <SCORE.INTRA.VDW.0>
-0.478406

>  <SCORE.INTRA.norm>
-0.216651

>  <SCORE.RESTR>
0.00659729

>  <SCORE.RESTR.CAVITY>
0.00659729

>  <SCORE.RESTR.norm>
0.000471235

>  <SCORE.SYSTEM>
0

>  <SCORE.SYSTEM.CONST>
0

>  <SCORE.SYSTEM.DIHEDRAL>
0

>  <SCORE.SYSTEM.SOLV>
0

>  <SCORE.SYSTEM.norm>
0

>  <SCORE.heavy>
14

>  <SCORE.norm>
-0.764764

>  <RMSD>
2.462

$$$$
ligand
 OpenBabel11021811413D
libRbt.so/2013.1/901 2013/11/27
 14 13  0  0  0  0  0  0  0  0999 V2000
   45.0045    1.5388   15.4561 N   0  0  0  0  0  0  0  0  0  0  0  0
   44.5300    0.8063   16.6500 C   0  0  0  0  0  0  0  0  0  0  0  0
   45.6968    0.4888   17.6101 C   0  0  0  0  0  0  0  0  0  0  0  0
   46.3490    1.7230   18.2546 C   0  0  0  0  0  0  0  0  0  0  0  0
   45.4005    2.4100   19.1737 N   0  0  0  0  0  0  0  0  0  0  0  0
   45.8485    3.8038   19.4256 C   0  0  0  0  0  0  0  0  0  0  0  0
   45.0889    4.5631   20.5653 C   0  0  0  0  0  0  0  0  0  0  0  0
   45.5767    6.0232   20.7902 C   0  0  0  0  0  0  0  0  0  0  0  0
   45.2242    6.9709   19.6604 C   0  0  0  0  0  0  0  0  0  0  0  0
   45.6695    8.2971   20.0442 N   0  0  0  0  0  0  0  0  0  0  0  0
   44.6634    9.2159   19.5408 C   0  0  0  0  0  0  0  0  0  0  0  0
   45.0343    9.7480   18.1615 C   0  0  0  0  0  0  0  0  0  0  0  0
   46.2944   10.6122   18.3201 C   0  0  0  0  0  0  0  0  0  0  0  0
   46.6827   11.2647   17.0607 N   0  0  0  0  0  0  0  0  0  0  0  0
  1  2  1  0  0  0  0
  2  3  1  0  0  0  0
  3  4  1  0  0  0  0
  4  5  1  0  0  0  0
  5  6  1  0  0  0  0
  6  7  1  0  0  0  0
  7  8  1  0  0  0  0
  8  9  1  0  0  0  0
  9 10  1  0  0  0  0
 10 11  1  0  0  0  0
 11 12  1  0  0  0  0
 12 13  1  0  0  0  0
 13 14  1  0  0  0  0
M  END
>  <CHROM.1>
65.93822641,66.24637772,-160.99396279,-169.74211992,-179.44746376,69.49987656
176.70731289,-142.96546486,-93.46887591,-66.14215394,-175.54291768,45.50446347
5.53313054,18.62265148,-2.28808780,1.50477276,0.84328203

>  <Name>
ligand

>  <RI>
0

>  <Rbt.Current_Directory>
/home/itssahil/PROJECTS/Mol_Feturizer/New_Systems/rnas/1TN2

>  <Rbt.Executable>
rbdock ($Id: //depot/dev/client3/rdock/2013.1/src/exe/rbdock.cxx#4 $)

>  <Rbt.Library>
libRbt.so (2013.1, Build901 2013/11/27)

>  <Rbt.Parameter_File>
/export/apps/rDock/src/rDock_2013.1_src/data/scripts/dock_solv.prm

>  <Rbt.Receptor>
prm/pocket_docking_3.prm

>  <SCORE>
-7.58722

>  <SCORE.INTER>
-6.03718

>  <SCORE.INTER.CONST>
1

>  <SCORE.INTER.POLAR>
0

>  <SCORE.INTER.ROT>
11

>  <SCORE.INTER.SOLV>
10.6941

>  <SCORE.INTER.VDW>
-18.5228

>  <SCORE.INTER.norm>
-0.431227

>  <SCORE.INTRA>
-1.55004

>  <SCORE.INTRA.DIHEDRAL>
-5.0047

>  <SCORE.INTRA.DIHEDRAL.0>
7.79482

>  <SCORE.INTRA.POLAR>
0

>  <SCORE.INTRA.POLAR.0>
0

>  <SCORE.INTRA.REPUL>
0

>  <SCORE.INTRA.REPUL.0>
0

>  <SCORE.INTRA.SOLV>
2.04568

>  <SCORE.INTRA.SOLV.lig_0>
-49.456

>  <SCORE.INTRA.VDW>
-0.0705291

>  <SCORE.INTRA.VDW.0>
-0.478406

>  <SCORE.INTRA.norm>
-0.110717

>  <SCORE.RESTR>
0

>  <SCORE.RESTR.CAVITY>
0

>  <SCORE.RESTR.norm>
0

>  <SCORE.SYSTEM>
0

>  <SCORE.SYSTEM.CONST>
0

>  <SCORE.SYSTEM.DIHEDRAL>
0

>  <SCORE.SYSTEM.SOLV>
0

>  <SCORE.SYSTEM.norm>
0

>  <SCORE.heavy>
14

>  <SCORE.norm>
-0.541944

>  <RMSD>
2.467

$$$$
ligand
 OpenBabel11021811413D
libRbt.so/2013.1/901 2013/11/27
 14 13  0  0  0  0  0  0  0  0999 V2000
   46.5701    2.7343   16.3556 N   0  0  0  0  0  0  0  0  0  0  0  0
   45.7798    1.4868   16.4346 C   0  0  0  0  0  0  0  0  0  0  0  0
   45.7353    0.9451   17.8798 C   0  0  0  0  0  0  0  0  0  0  0  0
   44.9353    1.8137   18.8644 C   0  0  0  0  0  0  0  0  0  0  0  0
   45.5975    3.1302   19.0755 N   0  0  0  0  0  0  0  0  0  0  0  0
   44.8308    3.9389   20.0578 C   0  0  0  0  0  0  0  0  0  0  0  0
   45.5271    5.2560   20.5403 C   0  0  0  0  0  0  0  0  0  0  0  0
   45.8049    6.2808   19.4032 C   0  0  0  0  0  0  0  0  0  0  0  0
   46.2567    7.6411   19.8975 C   0  0  0  0  0  0  0  0  0  0  0  0
   46.2759    8.5385   18.7579 N   0  0  0  0  0  0  0  0  0  0  0  0
   46.4179    9.8758   19.3067 C   0  0  0  0  0  0  0  0  0  0  0  0
   45.7876   10.9225   18.3954 C   0  0  0  0  0  0  0  0  0  0  0  0
   46.5002   10.8454   17.0367 C   0  0  0  0  0  0  0  0  0  0  0  0
   47.9172   11.2277   17.1301 N   0  0  0  0  0  0  0  0  0  0  0  0
  1  2  1  0  0  0  0
  2  3  1  0  0  0  0
  3  4  1  0  0  0  0
  4  5  1  0  0  0  0
  5  6  1  0  0  0  0
  6  7  1  0  0  0  0
  7  8  1  0  0  0  0
  8  9  1  0  0  0  0
  9 10  1  0  0  0  0
 10 11  1  0  0  0  0
 11 12  1  0  0  0  0
 12 13  1  0  0  0  0
 13 14  1  0  0  0  0
M  END
>  <CHROM.1>
68.21021282,-66.39965003,-178.40904036,171.02856022,61.46202877,170.07825219
-171.35600800,167.64735013,-151.79451442,-59.83476517,-65.05507859,45.99519956
6.04533534,18.50994902,-1.94905401,1.22632444,0.37161212

>  <Name>
ligand

>  <RI>
0

>  <Rbt.Current_Directory>
/home/itssahil/PROJECTS/Mol_Feturizer/New_Systems/rnas/1TN2

>  <Rbt.Executable>
rbdock ($Id: //depot/dev/client3/rdock/2013.1/src/exe/rbdock.cxx#4 $)

>  <Rbt.Library>
libRbt.so (2013.1, Build901 2013/11/27)

>  <Rbt.Parameter_File>
/export/apps/rDock/src/rDock_2013.1_src/data/scripts/dock_solv.prm

>  <Rbt.Receptor>
prm/pocket_docking_6.prm

>  <SCORE>
-6.23907

>  <SCORE.INTER>
-5.18946

>  <SCORE.INTER.CONST>
1

>  <SCORE.INTER.POLAR>
0

>  <SCORE.INTER.ROT>
11

>  <SCORE.INTER.SOLV>
9.31496

>  <SCORE.INTER.VDW>
-17.498

>  <SCORE.INTER.norm>
-0.370676

>  <SCORE.INTRA>
-1.04961

>  <SCORE.INTRA.DIHEDRAL>
-5.87232

>  <SCORE.INTRA.DIHEDRAL.0>
7.79482

>  <SCORE.INTRA.POLAR>
0

>  <SCORE.INTRA.POLAR.0>
0

>  <SCORE.INTRA.REPUL>
0

>  <SCORE.INTRA.REPUL.0>
0

>  <SCORE.INTRA.SOLV>
4.95433

>  <SCORE.INTRA.SOLV.lig_0>
-49.456

>  <SCORE.INTRA.VDW>
-0.590617

>  <SCORE.INTRA.VDW.0>
-0.478406

>  <SCORE.INTRA.norm>
-0.0749723

>  <SCORE.RESTR>
0

>  <SCORE.RESTR.CAVITY>
0

>  <SCORE.RESTR.norm>
0

>  <SCORE.SYSTEM>
0

>  <SCORE.SYSTEM.CONST>
0

>  <SCORE.SYSTEM.DIHEDRAL>
0

>  <SCORE.SYSTEM.SOLV>
0

>  <SCORE.SYSTEM.norm>
0

>  <SCORE.heavy>
14

>  <SCORE.norm>
-0.445648

>  <RMSD>
2.468

$$$$
ligand
 OpenBabel11021811413D
libRbt.so/2013.1/901 2013/11/27
 14 13  0  0  0  0  0  0  0  0999 V2000
   46.1722   -0.0175   14.8715 N   0  0  0  0  0  0  0  0  0  0  0  0
   44.7832    0.0934   15.3671 C   0  0  0  0  0  0  0  0  0  0  0  0
   44.7534    0.4038   16.8793 C   0  0  0  0  0  0  0  0  0  0  0  0
   45.4074    1.7389   17.2714 C   0  0  0  0  0  0  0  0  0  0  0  0
   45.1767    2.0447   18.7101 N   0  0  0  0  0  0  0  0  0  0  0  0
   45.7499    3.3721   19.0511 C   0  0  0  0  0  0  0  0  0  0  0  0
   44.9706    4.1867   20.1380 C   0  0  0  0  0  0  0  0  0  0  0  0
   45.7251    5.4478   20.6487 C   0  0  0  0  0  0  0  0  0  0  0  0
   45.8851    6.5346   19.6037 C   0  0  0  0  0  0  0  0  0  0  0  0
   46.6381    7.6175   20.2077 N   0  0  0  0  0  0  0  0  0  0  0  0
   46.7690    8.6338   19.1783 C   0  0  0  0  0  0  0  0  0  0  0  0
   46.1108    9.9424   19.5997 C   0  0  0  0  0  0  0  0  0  0  0  0
   46.3518   10.9657   18.4796 C   0  0  0  0  0  0  0  0  0  0  0  0
   45.6837   10.5848   17.2261 N   0  0  0  0  0  0  0  0  0  0  0  0
  1  2  1  0  0  0  0
  2  3  1  0  0  0  0
  3  4  1  0  0  0  0
  4  5  1  0  0  0  0
  5  6  1  0  0  0  0
  6  7  1  0  0  0  0
  7  8  1  0  0  0  0
  8  9  1  0  0  0  0
  9 10  1  0  0  0  0
 10 11  1  0  0  0  0
 11 12  1  0  0  0  0
 12 13  1  0  0  0  0
 13 14  1  0  0  0  0
M  END
>  <CHROM.1>
61.90196679,172.44423568,-176.85262783,146.46030132,169.85224498,67.16464968
-178.17959940,179.99874538,118.83015385,177.65628784,64.77347078,45.72685732
5.11064670,18.37397670,-2.69445203,1.45686424,1.39401251

>  <Name>
ligand

>  <RI>
0

>  <Rbt.Current_Directory>
/home/itssahil/PROJECTS/Mol_Feturizer/New_Systems/rnas/1TN2

>  <Rbt.Executable>
rbdock ($Id: //depot/dev/client3/rdock/2013.1/src/exe/rbdock.cxx#4 $)

>  <Rbt.Library>
libRbt.so (2013.1, Build901 2013/11/27)

>  <Rbt.Parameter_File>
/export/apps/rDock/src/rDock_2013.1_src/data/scripts/dock_solv.prm

>  <Rbt.Receptor>
prm/pocket_docking_5.prm

>  <SCORE>
-7.85999

>  <SCORE.INTER>
-5.89108

>  <SCORE.INTER.CONST>
1

>  <SCORE.INTER.POLAR>
0

>  <SCORE.INTER.ROT>
11

>  <SCORE.INTER.SOLV>
11.1341

>  <SCORE.INTER.VDW>
-18.5721

>  <SCORE.INTER.norm>
-0.420791

>  <SCORE.INTRA>
-1.96892

>  <SCORE.INTRA.DIHEDRAL>
-4.93802

>  <SCORE.INTRA.DIHEDRAL.0>
7.79482

>  <SCORE.INTRA.POLAR>
0

>  <SCORE.INTRA.POLAR.0>
0

>  <SCORE.INTRA.REPUL>
0

>  <SCORE.INTRA.REPUL.0>
0

>  <SCORE.INTRA.SOLV>
1.56815

>  <SCORE.INTRA.SOLV.lig_0>
-49.456

>  <SCORE.INTRA.VDW>
-0.283983

>  <SCORE.INTRA.VDW.0>
-0.478406

>  <SCORE.INTRA.norm>
-0.140637

>  <SCORE.RESTR>
0

>  <SCORE.RESTR.CAVITY>
0

>  <SCORE.RESTR.norm>
0

>  <SCORE.SYSTEM>
0

>  <SCORE.SYSTEM.CONST>
0

>  <SCORE.SYSTEM.DIHEDRAL>
0

>  <SCORE.SYSTEM.SOLV>
0

>  <SCORE.SYSTEM.norm>
0

>  <SCORE.heavy>
14

>  <SCORE.norm>
-0.561428

>  <RMSD>
2.470

$$$$
ligand
 OpenBabel11021811413D
libRbt.so/2013.1/901 2013/11/27
 14 13  0  0  0  0  0  0  0  0999 V2000
   45.3881   10.7409   17.5224 N   0  0  0  0  0  0  0  0  0  0  0  0
   45.3896    9.5056   18.3356 C   0  0  0  0  0  0  0  0  0  0  0  0
   46.3024    9.6527   19.5722 C   0  0  0  0  0  0  0  0  0  0  0  0
   46.4466    8.3759   20.4166 C   0  0  0  0  0  0  0  0  0  0  0  0
   47.0871    7.2854   19.6312 N   0  0  0  0  0  0  0  0  0  0  0  0
   46.0932    6.2270   19.3171 C   0  0  0  0  0  0  0  0  0  0  0  0
   45.8991    5.1322   20.4197 C   0  0  0  0  0  0  0  0  0  0  0  0
   44.8736    4.0249   20.0418 C   0  0  0  0  0  0  0  0  0  0  0  0
   45.3123    3.1488   18.8847 C   0  0  0  0  0  0  0  0  0  0  0  0
   44.2772    2.1558   18.6683 N   0  0  0  0  0  0  0  0  0  0  0  0
   44.3035    1.8565   17.2473 C   0  0  0  0  0  0  0  0  0  0  0  0
   44.8260    0.4491   16.9834 C   0  0  0  0  0  0  0  0  0  0  0  0
   44.8201    0.2287   15.4631 C   0  0  0  0  0  0  0  0  0  0  0  0
   45.2319   -1.1351   15.0979 N   0  0  0  0  0  0  0  0  0  0  0  0
  1  2  1  0  0  0  0
  2  3  1  0  0  0  0
  3  4  1  0  0  0  0
  4  5  1  0  0  0  0
  5  6  1  0  0  0  0
  6  7  1  0  0  0  0
  7  8  1  0  0  0  0
  8  9  1  0  0  0  0
  9 10  1  0  0  0  0
 10 11  1  0  0  0  0
 11 12  1  0  0  0  0
 12 13  1  0  0  0  0
 13 14  1  0  0  0  0
M  END
>  <CHROM.1>
-175.55704767,62.84745630,-109.24720481,-85.79947930,-178.74392142,66.32698062
178.84906177,149.28512249,110.46882858,-179.84762695,-176.54500304,45.44645712
4.83205391,18.40035996,0.68981832,-1.39586170,-0.57932283

>  <Name>
ligand

>  <RI>
0

>  <Rbt.Current_Directory>
/home/itssahil/PROJECTS/Mol_Feturizer/New_Systems/rnas/1TN2

>  <Rbt.Executable>
rbdock ($Id: //depot/dev/client3/rdock/2013.1/src/exe/rbdock.cxx#4 $)

>  <Rbt.Library>
libRbt.so (2013.1, Build901 2013/11/27)

>  <Rbt.Parameter_File>
/export/apps/rDock/src/rDock_2013.1_src/data/scripts/dock_solv.prm

>  <Rbt.Receptor>
prm/pocket_docking_5.prm

>  <SCORE>
-8.05239

>  <SCORE.INTER>
-5.98633

>  <SCORE.INTER.CONST>
1

>  <SCORE.INTER.POLAR>
0

>  <SCORE.INTER.ROT>
11

>  <SCORE.INTER.SOLV>
14.3615

>  <SCORE.INTER.VDW>
-19.7114

>  <SCORE.INTER.norm>
-0.427595

>  <SCORE.INTRA>
-2.06606

>  <SCORE.INTRA.DIHEDRAL>
-4.1416

>  <SCORE.INTRA.DIHEDRAL.0>
7.79482

>  <SCORE.INTRA.POLAR>
0

>  <SCORE.INTRA.POLAR.0>
0

>  <SCORE.INTRA.REPUL>
0

>  <SCORE.INTRA.REPUL.0>
0

>  <SCORE.INTRA.SOLV>
0.431576

>  <SCORE.INTRA.SOLV.lig_0>
-49.456

>  <SCORE.INTRA.VDW>
-0.211047

>  <SCORE.INTRA.VDW.0>
-0.478406

>  <SCORE.INTRA.norm>
-0.147576

>  <SCORE.RESTR>
0

>  <SCORE.RESTR.CAVITY>
0

>  <SCORE.RESTR.norm>
0

>  <SCORE.SYSTEM>
0

>  <SCORE.SYSTEM.CONST>
0

>  <SCORE.SYSTEM.DIHEDRAL>
0

>  <SCORE.SYSTEM.SOLV>
0

>  <SCORE.SYSTEM.norm>
0

>  <SCORE.heavy>
14

>  <SCORE.norm>
-0.57517

>  <RMSD>
2.489

$$$$
ligand
 OpenBabel11021811413D
libRbt.so/2013.1/901 2013/11/27
 14 13  0  0  0  0  0  0  0  0999 V2000
   47.7122    9.9969   16.5361 N   0  0  0  0  0  0  0  0  0  0  0  0
   46.3880   10.5693   16.8618 C   0  0  0  0  0  0  0  0  0  0  0  0
   45.6665    9.7295   17.9380 C   0  0  0  0  0  0  0  0  0  0  0  0
   46.4002    9.6514   19.2869 C   0  0  0  0  0  0  0  0  0  0  0  0
   45.6914    8.7422   20.2289 N   0  0  0  0  0  0  0  0  0  0  0  0
   46.2181    7.3590   20.1017 C   0  0  0  0  0  0  0  0  0  0  0  0
   45.3722    6.2453   20.8060 C   0  0  0  0  0  0  0  0  0  0  0  0
   45.9214    4.8045   20.5993 C   0  0  0  0  0  0  0  0  0  0  0  0
   45.9049    4.3407   19.1558 C   0  0  0  0  0  0  0  0  0  0  0  0
   46.3714    2.9674   19.1302 N   0  0  0  0  0  0  0  0  0  0  0  0
   45.6611    2.3260   18.0376 C   0  0  0  0  0  0  0  0  0  0  0  0
   45.9253    0.8252   18.0054 C   0  0  0  0  0  0  0  0  0  0  0  0
   45.0766    0.2281   16.8727 C   0  0  0  0  0  0  0  0  0  0  0  0
   45.5070    0.7000   15.5480 N   0  0  0  0  0  0  0  0  0  0  0  0
  1  2  1  0  0  0  0
  2  3  1  0  0  0  0
  3  4  1  0  0  0  0
  4  5  1  0  0  0  0
  5  6  1  0  0  0  0
  6  7  1  0  0  0  0
  7  8  1  0  0  0  0
  8  9  1  0  0  0  0
  9 10  1  0  0  0  0
 10 11  1  0  0  0  0
 11 12  1  0  0  0  0
 12 13  1  0  0  0  0
 13 14  1  0  0  0  0
M  END
>  <CHROM.1>
61.53339083,-175.68000411,91.13026247,-167.70071656,177.50342659,-63.63068458
-176.91115418,147.55808595,-172.81938697,176.94763221,65.89116067,45.98674392
5.60610768,18.50801542,-0.94481596,-1.41860888,-2.41412984

>  <Name>
ligand

>  <RI>
0

>  <Rbt.Current_Directory>
/home/itssahil/PROJECTS/Mol_Feturizer/New_Systems/rnas/1TN2

>  <Rbt.Executable>
rbdock ($Id: //depot/dev/client3/rdock/2013.1/src/exe/rbdock.cxx#4 $)

>  <Rbt.Library>
libRbt.so (2013.1, Build901 2013/11/27)

>  <Rbt.Parameter_File>
/export/apps/rDock/src/rDock_2013.1_src/data/scripts/dock_solv.prm

>  <Rbt.Receptor>
prm/pocket_docking_5.prm

>  <SCORE>
-9.00113

>  <SCORE.INTER>
-6.68026

>  <SCORE.INTER.CONST>
1

>  <SCORE.INTER.POLAR>
0

>  <SCORE.INTER.ROT>
11

>  <SCORE.INTER.SOLV>
11.2468

>  <SCORE.INTER.VDW>
-19.1358

>  <SCORE.INTER.norm>
-0.477161

>  <SCORE.INTRA>
-2.32087

>  <SCORE.INTRA.DIHEDRAL>
-5.96141

>  <SCORE.INTRA.DIHEDRAL.0>
7.79482

>  <SCORE.INTRA.POLAR>
0

>  <SCORE.INTRA.POLAR.0>
0

>  <SCORE.INTRA.REPUL>
0

>  <SCORE.INTRA.REPUL.0>
0

>  <SCORE.INTRA.SOLV>
1.6009

>  <SCORE.INTRA.SOLV.lig_0>
-49.456

>  <SCORE.INTRA.VDW>
-0.140614

>  <SCORE.INTRA.VDW.0>
-0.478406

>  <SCORE.INTRA.norm>
-0.165776

>  <SCORE.RESTR>
0

>  <SCORE.RESTR.CAVITY>
0

>  <SCORE.RESTR.norm>
0

>  <SCORE.SYSTEM>
0

>  <SCORE.SYSTEM.CONST>
0

>  <SCORE.SYSTEM.DIHEDRAL>
0

>  <SCORE.SYSTEM.SOLV>
0

>  <SCORE.SYSTEM.norm>
0

>  <SCORE.heavy>
14

>  <SCORE.norm>
-0.642938

>  <RMSD>
2.492

$$$$
ligand
 OpenBabel11021811413D
libRbt.so/2013.1/901 2013/11/27
 14 13  0  0  0  0  0  0  0  0999 V2000
   45.4973   10.6689   17.8241 N   0  0  0  0  0  0  0  0  0  0  0  0
   45.8786    9.5583   16.9249 C   0  0  0  0  0  0  0  0  0  0  0  0
   47.2008    8.9022   17.3781 C   0  0  0  0  0  0  0  0  0  0  0  0
   47.1392    8.2245   18.7569 C   0  0  0  0  0  0  0  0  0  0  0  0
   46.1747    7.0904   18.7522 N   0  0  0  0  0  0  0  0  0  0  0  0
   46.2597    6.3390   20.0309 C   0  0  0  0  0  0  0  0  0  0  0  0
   45.4846    4.9789   20.0693 C   0  0  0  0  0  0  0  0  0  0  0  0
   45.9401    3.9576   18.9876 C   0  0  0  0  0  0  0  0  0  0  0  0
   45.1558    2.6600   18.9972 C   0  0  0  0  0  0  0  0  0  0  0  0
   45.5632    1.8918   17.8361 N   0  0  0  0  0  0  0  0  0  0  0  0
   44.3733    1.1920   17.3843 C   0  0  0  0  0  0  0  0  0  0  0  0
   44.6262    0.4476   16.0785 C   0  0  0  0  0  0  0  0  0  0  0  0
   45.6096   -0.6941   16.3773 C   0  0  0  0  0  0  0  0  0  0  0  0
   45.9966   -1.4262   15.1620 N   0  0  0  0  0  0  0  0  0  0  0  0
  1  2  1  0  0  0  0
  2  3  1  0  0  0  0
  3  4  1  0  0  0  0
  4  5  1  0  0  0  0
  5  6  1  0  0  0  0
  6  7  1  0  0  0  0
  7  8  1  0  0  0  0
  8  9  1  0  0  0  0
  9 10  1  0  0  0  0
 10 11  1  0  0  0  0
 11 12  1  0  0  0  0
 12 13  1  0  0  0  0
 13 14  1  0  0  0  0
M  END
>  <CHROM.1>
63.75659801,63.29831263,172.55149983,-169.80715610,58.83378084,-178.02817694
172.44082941,-145.03493473,174.35239511,67.63159964,-176.10690730,45.77854524
4.55651254,17.89729468,-0.50138897,-1.44692055,-1.89756255

>  <Name>
ligand

>  <RI>
0

>  <Rbt.Current_Directory>
/home/itssahil/PROJECTS/Mol_Feturizer/New_Systems/rnas/1TN2

>  <Rbt.Executable>
rbdock ($Id: //depot/dev/client3/rdock/2013.1/src/exe/rbdock.cxx#4 $)

>  <Rbt.Library>
libRbt.so (2013.1, Build901 2013/11/27)

>  <Rbt.Parameter_File>
/export/apps/rDock/src/rDock_2013.1_src/data/scripts/dock_solv.prm

>  <Rbt.Receptor>
prm/pocket_docking_2.prm

>  <SCORE>
-6.74617

>  <SCORE.INTER>
-4.09597

>  <SCORE.INTER.CONST>
1

>  <SCORE.INTER.POLAR>
0

>  <SCORE.INTER.ROT>
11

>  <SCORE.INTER.SOLV>
12.3499

>  <SCORE.INTER.VDW>
-17.7806

>  <SCORE.INTER.norm>
-0.29257

>  <SCORE.INTRA>
-2.65267

>  <SCORE.INTRA.DIHEDRAL>
-6.28238

>  <SCORE.INTRA.DIHEDRAL.0>
7.79482

>  <SCORE.INTRA.POLAR>
0

>  <SCORE.INTRA.POLAR.0>
0

>  <SCORE.INTRA.REPUL>
0

>  <SCORE.INTRA.REPUL.0>
0

>  <SCORE.INTRA.SOLV>
2.38749

>  <SCORE.INTRA.SOLV.lig_0>
-49.456

>  <SCORE.INTRA.VDW>
-0.705221

>  <SCORE.INTRA.VDW.0>
-0.478406

>  <SCORE.INTRA.norm>
-0.189476

>  <SCORE.RESTR>
0.00246713

>  <SCORE.RESTR.CAVITY>
0.00246713

>  <SCORE.RESTR.norm>
0.000176224

>  <SCORE.SYSTEM>
0

>  <SCORE.SYSTEM.CONST>
0

>  <SCORE.SYSTEM.DIHEDRAL>
0

>  <SCORE.SYSTEM.SOLV>
0

>  <SCORE.SYSTEM.norm>
0

>  <SCORE.heavy>
14

>  <SCORE.norm>
-0.48187

>  <RMSD>
2.495

$$$$
ligand
 OpenBabel11021811413D
libRbt.so/2013.1/901 2013/11/27
 14 13  0  0  0  0  0  0  0  0999 V2000
   45.5559    1.1518   16.0552 N   0  0  0  0  0  0  0  0  0  0  0  0
   44.9998    0.7072   17.3514 C   0  0  0  0  0  0  0  0  0  0  0  0
   45.6656    1.4514   18.5290 C   0  0  0  0  0  0  0  0  0  0  0  0
   45.5147    2.9809   18.4867 C   0  0  0  0  0  0  0  0  0  0  0  0
   46.0881    3.6085   19.7088 N   0  0  0  0  0  0  0  0  0  0  0  0
   46.3295    5.0560   19.4777 C   0  0  0  0  0  0  0  0  0  0  0  0
   45.2006    6.0187   19.9785 C   0  0  0  0  0  0  0  0  0  0  0  0
   45.4583    7.5196   19.6603 C   0  0  0  0  0  0  0  0  0  0  0  0
   44.3428    8.4440   20.1075 C   0  0  0  0  0  0  0  0  0  0  0  0
   43.1549    8.0975   19.3504 N   0  0  0  0  0  0  0  0  0  0  0  0
   42.0558    8.7974   19.9921 C   0  0  0  0  0  0  0  0  0  0  0  0
   41.3368    9.7209   19.0157 C   0  0  0  0  0  0  0  0  0  0  0  0
   42.3457   10.7820   18.5508 C   0  0  0  0  0  0  0  0  0  0  0  0
   41.7419   11.7571   17.6304 N   0  0  0  0  0  0  0  0  0  0  0  0
  1  2  1  0  0  0  0
  2  3  1  0  0  0  0
  3  4  1  0  0  0  0
  4  5  1  0  0  0  0
  5  6  1  0  0  0  0
  6  7  1  0  0  0  0
  7  8  1  0  0  0  0
  8  9  1  0  0  0  0
  9 10  1  0  0  0  0
 10 11  1  0  0  0  0
 11 12  1  0  0  0  0
 12 13  1  0  0  0  0
 13 14  1  0  0  0  0
M  END
>  <CHROM.1>
58.99531527,175.46698689,162.12619145,96.42542097,-177.31626039,178.16274306
-63.96429993,168.39799333,122.10243874,-62.57362485,-178.24155979,44.27078976
6.14949201,18.84987936,1.02842271,0.76428832,-2.62929125

>  <Name>
ligand

>  <RI>
0

>  <Rbt.Current_Directory>
/home/itssahil/PROJECTS/Mol_Feturizer/New_Systems/rnas/1TN2

>  <Rbt.Executable>
rbdock ($Id: //depot/dev/client3/rdock/2013.1/src/exe/rbdock.cxx#4 $)

>  <Rbt.Library>
libRbt.so (2013.1, Build901 2013/11/27)

>  <Rbt.Parameter_File>
/export/apps/rDock/src/rDock_2013.1_src/data/scripts/dock_solv.prm

>  <Rbt.Receptor>
prm/pocket_docking_4.prm

>  <SCORE>
-11.8294

>  <SCORE.INTER>
-9.68923

>  <SCORE.INTER.CONST>
1

>  <SCORE.INTER.POLAR>
0

>  <SCORE.INTER.ROT>
11

>  <SCORE.INTER.SOLV>
17.9143

>  <SCORE.INTER.VDW>
-23.3643

>  <SCORE.INTER.norm>
-0.692088

>  <SCORE.INTRA>
-2.14013

>  <SCORE.INTRA.DIHEDRAL>
-5.2304

>  <SCORE.INTRA.DIHEDRAL.0>
7.79482

>  <SCORE.INTRA.POLAR>
0

>  <SCORE.INTRA.POLAR.0>
0

>  <SCORE.INTRA.REPUL>
0

>  <SCORE.INTRA.REPUL.0>
0

>  <SCORE.INTRA.SOLV>
1.52654

>  <SCORE.INTRA.SOLV.lig_0>
-49.456

>  <SCORE.INTRA.VDW>
-0.288205

>  <SCORE.INTRA.VDW.0>
-0.478406

>  <SCORE.INTRA.norm>
-0.152867

>  <SCORE.RESTR>
0

>  <SCORE.RESTR.CAVITY>
0

>  <SCORE.RESTR.norm>
0

>  <SCORE.SYSTEM>
0

>  <SCORE.SYSTEM.CONST>
0

>  <SCORE.SYSTEM.DIHEDRAL>
0

>  <SCORE.SYSTEM.SOLV>
0

>  <SCORE.SYSTEM.norm>
0

>  <SCORE.heavy>
14

>  <SCORE.norm>
-0.844955

>  <RMSD>
2.509

$$$$
ligand
 OpenBabel11021811413D
libRbt.so/2013.1/901 2013/11/27
 14 13  0  0  0  0  0  0  0  0999 V2000
   45.5771   10.7107   17.4375 N   0  0  0  0  0  0  0  0  0  0  0  0
   44.9569   10.1945   18.6768 C   0  0  0  0  0  0  0  0  0  0  0  0
   45.1408    8.6663   18.7981 C   0  0  0  0  0  0  0  0  0  0  0  0
   46.5954    8.2109   19.0001 C   0  0  0  0  0  0  0  0  0  0  0  0
   46.7164    6.7332   18.8654 N   0  0  0  0  0  0  0  0  0  0  0  0
   46.1742    6.0614   20.0744 C   0  0  0  0  0  0  0  0  0  0  0  0
   46.2631    4.4980   20.0770 C   0  0  0  0  0  0  0  0  0  0  0  0
   45.4841    3.8156   18.9160 C   0  0  0  0  0  0  0  0  0  0  0  0
   45.6397    2.3080   18.8730 C   0  0  0  0  0  0  0  0  0  0  0  0
   44.8609    1.8178   17.7516 N   0  0  0  0  0  0  0  0  0  0  0  0
   45.4793    0.5648   17.3550 C   0  0  0  0  0  0  0  0  0  0  0  0
   44.9356    0.0730   16.0186 C   0  0  0  0  0  0  0  0  0  0  0  0
   45.7458   -1.1685   15.6158 C   0  0  0  0  0  0  0  0  0  0  0  0
   45.6113   -2.2603   16.5919 N   0  0  0  0  0  0  0  0  0  0  0  0
  1  2  1  0  0  0  0
  2  3  1  0  0  0  0
  3  4  1  0  0  0  0
  4  5  1  0  0  0  0
  5  6  1  0  0  0  0
  6  7  1  0  0  0  0
  7  8  1  0  0  0  0
  8  9  1  0  0  0  0
  9 10  1  0  0  0  0
 10 11  1  0  0  0  0
 11 12  1  0  0  0  0
 12 13  1  0  0  0  0
 13 14  1  0  0  0  0
M  END
>  <CHROM.1>
66.81944881,-169.92680073,-74.87519570,-178.92918918,-60.72164494,176.55293413
179.82162634,154.34676352,-168.80380058,174.26068155,61.28691281,45.65573959
4.30183895,18.14671344,1.46554038,-1.29501996,0.10407127

>  <Name>
ligand

>  <RI>
0

>  <Rbt.Current_Directory>
/home/itssahil/PROJECTS/Mol_Feturizer/New_Systems/rnas/1TN2

>  <Rbt.Executable>
rbdock ($Id: //depot/dev/client3/rdock/2013.1/src/exe/rbdock.cxx#4 $)

>  <Rbt.Library>
libRbt.so (2013.1, Build901 2013/11/27)

>  <Rbt.Parameter_File>
/export/apps/rDock/src/rDock_2013.1_src/data/scripts/dock_solv.prm

>  <Rbt.Receptor>
prm/pocket_docking_2.prm

>  <SCORE>
-6.23471

>  <SCORE.INTER>
-4.01158

>  <SCORE.INTER.CONST>
1

>  <SCORE.INTER.POLAR>
0

>  <SCORE.INTER.ROT>
11

>  <SCORE.INTER.SOLV>
18.62

>  <SCORE.INTER.VDW>
-19.8144

>  <SCORE.INTER.norm>
-0.286542

>  <SCORE.INTRA>
-2.22313

>  <SCORE.INTRA.DIHEDRAL>
-6.3252

>  <SCORE.INTRA.DIHEDRAL.0>
7.79482

>  <SCORE.INTRA.POLAR>
0

>  <SCORE.INTRA.POLAR.0>
0

>  <SCORE.INTRA.REPUL>
0

>  <SCORE.INTRA.REPUL.0>
0

>  <SCORE.INTRA.SOLV>
1.83603

>  <SCORE.INTRA.SOLV.lig_0>
-49.456

>  <SCORE.INTRA.VDW>
0.0214569

>  <SCORE.INTRA.VDW.0>
-0.478406

>  <SCORE.INTRA.norm>
-0.158795

>  <SCORE.RESTR>
0

>  <SCORE.RESTR.CAVITY>
0

>  <SCORE.RESTR.norm>
0

>  <SCORE.SYSTEM>
0

>  <SCORE.SYSTEM.CONST>
0

>  <SCORE.SYSTEM.DIHEDRAL>
0

>  <SCORE.SYSTEM.SOLV>
0

>  <SCORE.SYSTEM.norm>
0

>  <SCORE.heavy>
14

>  <SCORE.norm>
-0.445337

>  <RMSD>
2.512

$$$$
ligand
 OpenBabel11021811413D
libRbt.so/2013.1/901 2013/11/27
 14 13  0  0  0  0  0  0  0  0999 V2000
   44.9496   -0.5331   14.6067 N   0  0  0  0  0  0  0  0  0  0  0  0
   45.3718    0.5006   15.5765 C   0  0  0  0  0  0  0  0  0  0  0  0
   45.4666   -0.0793   17.0043 C   0  0  0  0  0  0  0  0  0  0  0  0
   45.9797    0.9098   18.0638 C   0  0  0  0  0  0  0  0  0  0  0  0
   45.0517    2.0646   18.2106 N   0  0  0  0  0  0  0  0  0  0  0  0
   45.7070    3.1557   18.9766 C   0  0  0  0  0  0  0  0  0  0  0  0
   44.7765    3.9495   19.9545 C   0  0  0  0  0  0  0  0  0  0  0  0
   45.4768    5.1387   20.6727 C   0  0  0  0  0  0  0  0  0  0  0  0
   45.9031    6.2559   19.7405 C   0  0  0  0  0  0  0  0  0  0  0  0
   46.3706    7.3577   20.5601 N   0  0  0  0  0  0  0  0  0  0  0  0
   46.7222    8.4208   19.6350 C   0  0  0  0  0  0  0  0  0  0  0  0
   45.5569    9.3790   19.4176 C   0  0  0  0  0  0  0  0  0  0  0  0
   45.9821   10.3918   18.3437 C   0  0  0  0  0  0  0  0  0  0  0  0
   44.9429   11.4007   18.0890 N   0  0  0  0  0  0  0  0  0  0  0  0
  1  2  1  0  0  0  0
  2  3  1  0  0  0  0
  3  4  1  0  0  0  0
  4  5  1  0  0  0  0
  5  6  1  0  0  0  0
  6  7  1  0  0  0  0
  7  8  1  0  0  0  0
  8  9  1  0  0  0  0
  9 10  1  0  0  0  0
 10 11  1  0  0  0  0
 11 12  1  0  0  0  0
 12 13  1  0  0  0  0
 13 14  1  0  0  0  0
M  END
>  <CHROM.1>
176.59190939,62.80981219,-166.31101714,-143.00000310,-176.43004249,65.70520679
172.49699227,-177.98115718,93.22144586,-175.35822889,-177.91019172,45.58992186
4.87936652,18.48966078,1.98074353,1.45073905,3.01241787

>  <Name>
ligand

>  <RI>
0

>  <Rbt.Current_Directory>
/home/itssahil/PROJECTS/Mol_Feturizer/New_Systems/rnas/1TN2

>  <Rbt.Executable>
rbdock ($Id: //depot/dev/client3/rdock/2013.1/src/exe/rbdock.cxx#4 $)

>  <Rbt.Library>
libRbt.so (2013.1, Build901 2013/11/27)

>  <Rbt.Parameter_File>
/export/apps/rDock/src/rDock_2013.1_src/data/scripts/dock_solv.prm

>  <Rbt.Receptor>
prm/pocket_docking_4.prm

>  <SCORE>
-9.07433

>  <SCORE.INTER>
-6.33441

>  <SCORE.INTER.CONST>
1

>  <SCORE.INTER.POLAR>
0

>  <SCORE.INTER.ROT>
11

>  <SCORE.INTER.SOLV>
12.3895

>  <SCORE.INTER.VDW>
-19.2861

>  <SCORE.INTER.norm>
-0.452458

>  <SCORE.INTRA>
-2.73992

>  <SCORE.INTRA.DIHEDRAL>
-5.56297

>  <SCORE.INTRA.DIHEDRAL.0>
7.79482

>  <SCORE.INTRA.POLAR>
0

>  <SCORE.INTRA.POLAR.0>
0

>  <SCORE.INTRA.REPUL>
0

>  <SCORE.INTRA.REPUL.0>
0

>  <SCORE.INTRA.SOLV>
0.403067

>  <SCORE.INTRA.SOLV.lig_0>
-49.456

>  <SCORE.INTRA.VDW>
-0.159973

>  <SCORE.INTRA.VDW.0>
-0.478406

>  <SCORE.INTRA.norm>
-0.195709

>  <SCORE.RESTR>
0

>  <SCORE.RESTR.CAVITY>
0

>  <SCORE.RESTR.norm>
0

>  <SCORE.SYSTEM>
0

>  <SCORE.SYSTEM.CONST>
0

>  <SCORE.SYSTEM.DIHEDRAL>
0

>  <SCORE.SYSTEM.SOLV>
0

>  <SCORE.SYSTEM.norm>
0

>  <SCORE.heavy>
14

>  <SCORE.norm>
-0.648166

>  <RMSD>
2.529

$$$$
ligand
 OpenBabel11021811413D
libRbt.so/2013.1/901 2013/11/27
 14 13  0  0  0  0  0  0  0  0999 V2000
   41.6712   12.0422   17.8009 N   0  0  0  0  0  0  0  0  0  0  0  0
   42.8918   11.2426   18.0419 C   0  0  0  0  0  0  0  0  0  0  0  0
   42.5805    9.9913   18.8912 C   0  0  0  0  0  0  0  0  0  0  0  0
   43.8019    9.1127   19.2077 C   0  0  0  0  0  0  0  0  0  0  0  0
   43.4124    7.9300   20.0238 N   0  0  0  0  0  0  0  0  0  0  0  0
   44.6124    7.1230   20.3637 C   0  0  0  0  0  0  0  0  0  0  0  0
   44.3268    5.6947   20.9385 C   0  0  0  0  0  0  0  0  0  0  0  0
   45.6054    4.8471   21.1978 C   0  0  0  0  0  0  0  0  0  0  0  0
   46.3173    4.4048   19.9344 C   0  0  0  0  0  0  0  0  0  0  0  0
   45.5207    3.3567   19.3252 N   0  0  0  0  0  0  0  0  0  0  0  0
   46.4174    2.6428   18.4329 C   0  0  0  0  0  0  0  0  0  0  0  0
   46.0718    1.1599   18.3642 C   0  0  0  0  0  0  0  0  0  0  0  0
   44.7565    1.0250   17.5819 C   0  0  0  0  0  0  0  0  0  0  0  0
   44.9058    1.4173   16.1724 N   0  0  0  0  0  0  0  0  0  0  0  0
  1  2  1  0  0  0  0
  2  3  1  0  0  0  0
  3  4  1  0  0  0  0
  4  5  1  0  0  0  0
  5  6  1  0  0  0  0
  6  7  1  0  0  0  0
  7  8  1  0  0  0  0
  8  9  1  0  0  0  0
  9 10  1  0  0  0  0
 10 11  1  0  0  0  0
 11 12  1  0  0  0  0
 12 13  1  0  0  0  0
 13 14  1  0  0  0  0
M  END
>  <CHROM.1>
-179.10271823,-179.81947590,-177.79084852,-166.89499028,176.33556738,-69.57527388
-73.27349431,-160.16162818,146.47726470,71.37650116,66.38147137,44.49251516
5.85630626,19.02003806,2.32276105,-1.07951710,0.74159942

>  <Name>
ligand

>  <RI>
0

>  <Rbt.Current_Directory>
/home/itssahil/PROJECTS/Mol_Feturizer/New_Systems/rnas/1TN2

>  <Rbt.Executable>
rbdock ($Id: //depot/dev/client3/rdock/2013.1/src/exe/rbdock.cxx#4 $)

>  <Rbt.Library>
libRbt.so (2013.1, Build901 2013/11/27)

>  <Rbt.Parameter_File>
/export/apps/rDock/src/rDock_2013.1_src/data/scripts/dock_solv.prm

>  <Rbt.Receptor>
prm/pocket_docking_4.prm

>  <SCORE>
-12.054

>  <SCORE.INTER>
-10.2496

>  <SCORE.INTER.CONST>
1

>  <SCORE.INTER.POLAR>
0

>  <SCORE.INTER.ROT>
11

>  <SCORE.INTER.SOLV>
17.5472

>  <SCORE.INTER.VDW>
-23.6154

>  <SCORE.INTER.norm>
-0.732112

>  <SCORE.INTRA>
-1.8044

>  <SCORE.INTRA.DIHEDRAL>
-4.95078

>  <SCORE.INTRA.DIHEDRAL.0>
7.79482

>  <SCORE.INTRA.POLAR>
0

>  <SCORE.INTRA.POLAR.0>
0

>  <SCORE.INTRA.REPUL>
0

>  <SCORE.INTRA.REPUL.0>
0

>  <SCORE.INTRA.SOLV>
2.11566

>  <SCORE.INTRA.SOLV.lig_0>
-49.456

>  <SCORE.INTRA.VDW>
-0.386837

>  <SCORE.INTRA.VDW.0>
-0.478406

>  <SCORE.INTRA.norm>
-0.128886

>  <SCORE.RESTR>
0

>  <SCORE.RESTR.CAVITY>
0

>  <SCORE.RESTR.norm>
0

>  <SCORE.SYSTEM>
0

>  <SCORE.SYSTEM.CONST>
0

>  <SCORE.SYSTEM.DIHEDRAL>
0

>  <SCORE.SYSTEM.SOLV>
0

>  <SCORE.SYSTEM.norm>
0

>  <SCORE.heavy>
14

>  <SCORE.norm>
-0.860998

>  <RMSD>
2.573

$$$$
ligand
 OpenBabel11021811413D
libRbt.so/2013.1/901 2013/11/27
 14 13  0  0  0  0  0  0  0  0999 V2000
   44.8998   -1.2452   15.1279 N   0  0  0  0  0  0  0  0  0  0  0  0
   45.7821   -0.8212   16.2364 C   0  0  0  0  0  0  0  0  0  0  0  0
   45.1313    0.3053   17.0679 C   0  0  0  0  0  0  0  0  0  0  0  0
   46.0582    0.9452   18.1146 C   0  0  0  0  0  0  0  0  0  0  0  0
   45.2980    1.8511   19.0189 N   0  0  0  0  0  0  0  0  0  0  0  0
   45.6789    3.2649   18.7680 C   0  0  0  0  0  0  0  0  0  0  0  0
   45.3997    4.2600   19.9444 C   0  0  0  0  0  0  0  0  0  0  0  0
   45.5405    5.7596   19.5547 C   0  0  0  0  0  0  0  0  0  0  0  0
   45.2331    6.7210   20.6861 C   0  0  0  0  0  0  0  0  0  0  0  0
   45.0474    8.0374   20.1058 N   0  0  0  0  0  0  0  0  0  0  0  0
   46.3469    8.6839   20.1618 C   0  0  0  0  0  0  0  0  0  0  0  0
   46.3941    9.9193   19.2702 C   0  0  0  0  0  0  0  0  0  0  0  0
   46.2407    9.4488   17.8158 C   0  0  0  0  0  0  0  0  0  0  0  0
   46.3330   10.5620   16.8593 N   0  0  0  0  0  0  0  0  0  0  0  0
  1  2  1  0  0  0  0
  2  3  1  0  0  0  0
  3  4  1  0  0  0  0
  4  5  1  0  0  0  0
  5  6  1  0  0  0  0
  6  7  1  0  0  0  0
  7  8  1  0  0  0  0
  8  9  1  0  0  0  0
  9 10  1  0  0  0  0
 10 11  1  0  0  0  0
 11 12  1  0  0  0  0
 12 13  1  0  0  0  0
 13 14  1  0  0  0  0
M  END
>  <CHROM.1>
-171.64688922,-170.45552173,-110.83637168,-158.01884921,-168.39881007,178.43665155
-164.77946337,-92.91500274,165.18933530,-65.15130355,-177.43812228,45.67037314
4.83516369,18.48113153,-2.03654595,1.42106667,0.68823014

>  <Name>
ligand

>  <RI>
0

>  <Rbt.Current_Directory>
/home/itssahil/PROJECTS/Mol_Feturizer/New_Systems/rnas/1TN2

>  <Rbt.Executable>
rbdock ($Id: //depot/dev/client3/rdock/2013.1/src/exe/rbdock.cxx#4 $)

>  <Rbt.Library>
libRbt.so (2013.1, Build901 2013/11/27)

>  <Rbt.Parameter_File>
/export/apps/rDock/src/rDock_2013.1_src/data/scripts/dock_solv.prm

>  <Rbt.Receptor>
prm/pocket_docking_5.prm

>  <SCORE>
-8.26195

>  <SCORE.INTER>
-6.6367

>  <SCORE.INTER.CONST>
1

>  <SCORE.INTER.POLAR>
0

>  <SCORE.INTER.ROT>
11

>  <SCORE.INTER.SOLV>
13.0421

>  <SCORE.INTER.VDW>
-19.7052

>  <SCORE.INTER.norm>
-0.47405

>  <SCORE.INTRA>
-1.62525

>  <SCORE.INTRA.DIHEDRAL>
-3.38743

>  <SCORE.INTRA.DIHEDRAL.0>
7.79482

>  <SCORE.INTRA.POLAR>
0

>  <SCORE.INTRA.POLAR.0>
0

>  <SCORE.INTRA.REPUL>
0

>  <SCORE.INTRA.REPUL.0>
0

>  <SCORE.INTRA.SOLV>
0.384214

>  <SCORE.INTRA.SOLV.lig_0>
-49.456

>  <SCORE.INTRA.VDW>
-0.12364

>  <SCORE.INTRA.VDW.0>
-0.478406

>  <SCORE.INTRA.norm>
-0.116089

>  <SCORE.RESTR>
0

>  <SCORE.RESTR.CAVITY>
0

>  <SCORE.RESTR.norm>
0

>  <SCORE.SYSTEM>
0

>  <SCORE.SYSTEM.CONST>
0

>  <SCORE.SYSTEM.DIHEDRAL>
0

>  <SCORE.SYSTEM.SOLV>
0

>  <SCORE.SYSTEM.norm>
0

>  <SCORE.heavy>
14

>  <SCORE.norm>
-0.590139

>  <RMSD>
2.578

$$$$
ligand
 OpenBabel11021811413D
libRbt.so/2013.1/901 2013/11/27
 14 13  0  0  0  0  0  0  0  0999 V2000
   45.4131    0.7232   15.8966 N   0  0  0  0  0  0  0  0  0  0  0  0
   45.5823    0.0944   17.2244 C   0  0  0  0  0  0  0  0  0  0  0  0
   46.0984    1.1137   18.2630 C   0  0  0  0  0  0  0  0  0  0  0  0
   45.1416    2.2850   18.5401 C   0  0  0  0  0  0  0  0  0  0  0  0
   45.7015    3.1995   19.5729 N   0  0  0  0  0  0  0  0  0  0  0  0
   44.6968    4.2276   19.9472 C   0  0  0  0  0  0  0  0  0  0  0  0
   45.1429    5.2368   21.0583 C   0  0  0  0  0  0  0  0  0  0  0  0
   44.2259    6.4871   21.1861 C   0  0  0  0  0  0  0  0  0  0  0  0
   44.1497    7.3259   19.9254 C   0  0  0  0  0  0  0  0  0  0  0  0
   43.1793    8.3791   20.1564 N   0  0  0  0  0  0  0  0  0  0  0  0
   43.4590    9.4027   19.1645 C   0  0  0  0  0  0  0  0  0  0  0  0
   42.2362   10.2738   18.9019 C   0  0  0  0  0  0  0  0  0  0  0  0
   42.6261   11.3146   17.8414 C   0  0  0  0  0  0  0  0  0  0  0  0
   41.5310   12.2536   17.5555 N   0  0  0  0  0  0  0  0  0  0  0  0
  1  2  1  0  0  0  0
  2  3  1  0  0  0  0
  3  4  1  0  0  0  0
  4  5  1  0  0  0  0
  5  6  1  0  0  0  0
  6  7  1  0  0  0  0
  7  8  1  0  0  0  0
  8  9  1  0  0  0  0
  9 10  1  0  0  0  0
 10 11  1  0  0  0  0
 11 12  1  0  0  0  0
 12 13  1  0  0  0  0
 13 14  1  0  0  0  0
M  END
>  <CHROM.1>
63.08985769,178.67708029,-173.09030694,178.42143464,166.11064653,-60.28914352
175.19075828,160.69138851,157.00765567,-179.71758847,-177.34871747,44.22752326
5.87967742,18.94552699,0.58298294,1.18486807,-2.10823042

>  <Name>
ligand

>  <RI>
0

>  <Rbt.Current_Directory>
/home/itssahil/PROJECTS/Mol_Feturizer/New_Systems/rnas/1TN2

>  <Rbt.Executable>
rbdock ($Id: //depot/dev/client3/rdock/2013.1/src/exe/rbdock.cxx#4 $)

>  <Rbt.Library>
libRbt.so (2013.1, Build901 2013/11/27)

>  <Rbt.Parameter_File>
/export/apps/rDock/src/rDock_2013.1_src/data/scripts/dock_solv.prm

>  <Rbt.Receptor>
prm/pocket_docking_8.prm

>  <SCORE>
-11.3903

>  <SCORE.INTER>
-8.34515

>  <SCORE.INTER.CONST>
1

>  <SCORE.INTER.POLAR>
0

>  <SCORE.INTER.ROT>
11

>  <SCORE.INTER.SOLV>
18.2352

>  <SCORE.INTER.VDW>
-22.5752

>  <SCORE.INTER.norm>
-0.596082

>  <SCORE.INTRA>
-3.04515

>  <SCORE.INTRA.DIHEDRAL>
-6.23262

>  <SCORE.INTRA.DIHEDRAL.0>
7.79482

>  <SCORE.INTRA.POLAR>
0

>  <SCORE.INTRA.POLAR.0>
0

>  <SCORE.INTRA.REPUL>
0

>  <SCORE.INTRA.REPUL.0>
0

>  <SCORE.INTRA.SOLV>
0.847486

>  <SCORE.INTRA.SOLV.lig_0>
-49.456

>  <SCORE.INTRA.VDW>
-0.352578

>  <SCORE.INTRA.VDW.0>
-0.478406

>  <SCORE.INTRA.norm>
-0.21751

>  <SCORE.RESTR>
0

>  <SCORE.RESTR.CAVITY>
0

>  <SCORE.RESTR.norm>
0

>  <SCORE.SYSTEM>
0

>  <SCORE.SYSTEM.CONST>
0

>  <SCORE.SYSTEM.DIHEDRAL>
0

>  <SCORE.SYSTEM.SOLV>
0

>  <SCORE.SYSTEM.norm>
0

>  <SCORE.heavy>
14

>  <SCORE.norm>
-0.813592

>  <RMSD>
2.589

$$$$
ligand
 OpenBabel11021811413D
libRbt.so/2013.1/901 2013/11/27
 14 13  0  0  0  0  0  0  0  0999 V2000
   47.1161    2.3059   15.4737 N   0  0  0  0  0  0  0  0  0  0  0  0
   46.4949    3.1038   16.5528 C   0  0  0  0  0  0  0  0  0  0  0  0
   46.2851    2.2544   17.8250 C   0  0  0  0  0  0  0  0  0  0  0  0
   45.6537    3.0129   19.0039 C   0  0  0  0  0  0  0  0  0  0  0  0
   46.5175    4.1466   19.4341 N   0  0  0  0  0  0  0  0  0  0  0  0
   46.0765    4.6542   20.7587 C   0  0  0  0  0  0  0  0  0  0  0  0
   45.3220    6.0263   20.7406 C   0  0  0  0  0  0  0  0  0  0  0  0
   46.1136    7.1773   20.0559 C   0  0  0  0  0  0  0  0  0  0  0  0
   45.3607    8.4921   19.9972 C   0  0  0  0  0  0  0  0  0  0  0  0
   44.1065    8.2498   19.3098 N   0  0  0  0  0  0  0  0  0  0  0  0
   43.4519    9.5425   19.2086 C   0  0  0  0  0  0  0  0  0  0  0  0
   41.9402    9.3938   19.0825 C   0  0  0  0  0  0  0  0  0  0  0  0
   41.3464   10.8018   18.9243 C   0  0  0  0  0  0  0  0  0  0  0  0
   41.8472   11.4839   17.7215 N   0  0  0  0  0  0  0  0  0  0  0  0
  1  2  1  0  0  0  0
  2  3  1  0  0  0  0
  3  4  1  0  0  0  0
  4  5  1  0  0  0  0
  5  6  1  0  0  0  0
  6  7  1  0  0  0  0
  7  8  1  0  0  0  0
  8  9  1  0  0  0  0
  9 10  1  0  0  0  0
 10 11  1  0  0  0  0
 11 12  1  0  0  0  0
 12 13  1  0  0  0  0
 13 14  1  0  0  0  0
M  END
>  <CHROM.1>
179.47025527,-61.18415586,-166.09531088,-106.12015847,-55.43346866,177.98334390
-56.71783600,-176.89992533,-155.23860346,-177.72692608,60.86452332,44.83086224
6.47462843,18.86382688,0.55370045,0.96700454,-2.06317962

>  <Name>
ligand

>  <RI>
0

>  <Rbt.Current_Directory>
/home/itssahil/PROJECTS/Mol_Feturizer/New_Systems/rnas/1TN2

>  <Rbt.Executable>
rbdock ($Id: //depot/dev/client3/rdock/2013.1/src/exe/rbdock.cxx#4 $)

>  <Rbt.Library>
libRbt.so (2013.1, Build901 2013/11/27)

>  <Rbt.Parameter_File>
/export/apps/rDock/src/rDock_2013.1_src/data/scripts/dock_solv.prm

>  <Rbt.Receptor>
prm/pocket_docking_4.prm

>  <SCORE>
-12.2183

>  <SCORE.INTER>
-9.8224

>  <SCORE.INTER.CONST>
1

>  <SCORE.INTER.POLAR>
0

>  <SCORE.INTER.ROT>
11

>  <SCORE.INTER.SOLV>
17.612

>  <SCORE.INTER.VDW>
-23.3523

>  <SCORE.INTER.norm>
-0.7016

>  <SCORE.INTRA>
-2.39593

>  <SCORE.INTRA.DIHEDRAL>
-5.984

>  <SCORE.INTRA.DIHEDRAL.0>
7.79482

>  <SCORE.INTRA.POLAR>
0

>  <SCORE.INTRA.POLAR.0>
0

>  <SCORE.INTRA.REPUL>
0

>  <SCORE.INTRA.REPUL.0>
0

>  <SCORE.INTRA.SOLV>
1.9947

>  <SCORE.INTRA.SOLV.lig_0>
-49.456

>  <SCORE.INTRA.VDW>
-0.401281

>  <SCORE.INTRA.VDW.0>
-0.478406

>  <SCORE.INTRA.norm>
-0.171138

>  <SCORE.RESTR>
0

>  <SCORE.RESTR.CAVITY>
0

>  <SCORE.RESTR.norm>
0

>  <SCORE.SYSTEM>
0

>  <SCORE.SYSTEM.CONST>
0

>  <SCORE.SYSTEM.DIHEDRAL>
0

>  <SCORE.SYSTEM.SOLV>
0

>  <SCORE.SYSTEM.norm>
0

>  <SCORE.heavy>
14

>  <SCORE.norm>
-0.872738

>  <RMSD>
2.591

$$$$
ligand
 OpenBabel11021811413D
libRbt.so/2013.1/901 2013/11/27
 14 13  0  0  0  0  0  0  0  0999 V2000
   47.7046   10.9197   16.4406 N   0  0  0  0  0  0  0  0  0  0  0  0
   47.1143   11.7090   17.5432 C   0  0  0  0  0  0  0  0  0  0  0  0
   46.0756   10.8798   18.3291 C   0  0  0  0  0  0  0  0  0  0  0  0
   46.6477    9.6376   19.0317 C   0  0  0  0  0  0  0  0  0  0  0  0
   45.5798    8.8923   19.7531 N   0  0  0  0  0  0  0  0  0  0  0  0
   46.0993    7.5854   20.2315 C   0  0  0  0  0  0  0  0  0  0  0  0
   45.0134    6.5386   20.6524 C   0  0  0  0  0  0  0  0  0  0  0  0
   45.5943    5.1697   21.1097 C   0  0  0  0  0  0  0  0  0  0  0  0
   46.3349    4.4203   20.0194 C   0  0  0  0  0  0  0  0  0  0  0  0
   45.3977    4.1767   18.9392 N   0  0  0  0  0  0  0  0  0  0  0  0
   45.9158    3.0299   18.2138 C   0  0  0  0  0  0  0  0  0  0  0  0
   45.1526    1.7576   18.5634 C   0  0  0  0  0  0  0  0  0  0  0  0
   45.6817    0.6348   17.6583 C   0  0  0  0  0  0  0  0  0  0  0  0
   45.4089    0.8925   16.2364 N   0  0  0  0  0  0  0  0  0  0  0  0
  1  2  1  0  0  0  0
  2  3  1  0  0  0  0
  3  4  1  0  0  0  0
  4  5  1  0  0  0  0
  5  6  1  0  0  0  0
  6  7  1  0  0  0  0
  7  8  1  0  0  0  0
  8  9  1  0  0  0  0
  9 10  1  0  0  0  0
 10 11  1  0  0  0  0
 11 12  1  0  0  0  0
 12 13  1  0  0  0  0
 13 14  1  0  0  0  0
M  END
>  <CHROM.1>
62.65561187,-179.49285425,170.57394190,-163.88956459,178.38056413,-63.87919450
-60.01286363,-156.51296881,102.42565671,174.86256074,-63.81577918,45.98002506
6.16024589,18.76622169,-1.05549336,-1.29794393,-2.62476286

>  <Name>
ligand

>  <RI>
0

>  <Rbt.Current_Directory>
/home/itssahil/PROJECTS/Mol_Feturizer/New_Systems/rnas/1TN2

>  <Rbt.Executable>
rbdock ($Id: //depot/dev/client3/rdock/2013.1/src/exe/rbdock.cxx#4 $)

>  <Rbt.Library>
libRbt.so (2013.1, Build901 2013/11/27)

>  <Rbt.Parameter_File>
/export/apps/rDock/src/rDock_2013.1_src/data/scripts/dock_solv.prm

>  <Rbt.Receptor>
prm/pocket_docking_4.prm

>  <SCORE>
-8.63799

>  <SCORE.INTER>
-6.85264

>  <SCORE.INTER.CONST>
1

>  <SCORE.INTER.POLAR>
0

>  <SCORE.INTER.ROT>
11

>  <SCORE.INTER.SOLV>
10.5277

>  <SCORE.INTER.VDW>
-19.011

>  <SCORE.INTER.norm>
-0.489474

>  <SCORE.INTRA>
-1.78536

>  <SCORE.INTRA.DIHEDRAL>
-5.90478

>  <SCORE.INTRA.DIHEDRAL.0>
7.79482

>  <SCORE.INTRA.POLAR>
0

>  <SCORE.INTRA.POLAR.0>
0

>  <SCORE.INTRA.REPUL>
0

>  <SCORE.INTRA.REPUL.0>
0

>  <SCORE.INTRA.SOLV>
2.23215

>  <SCORE.INTRA.SOLV.lig_0>
-49.456

>  <SCORE.INTRA.VDW>
0.0509569

>  <SCORE.INTRA.VDW.0>
-0.478406

>  <SCORE.INTRA.norm>
-0.127526

>  <SCORE.RESTR>
0

>  <SCORE.RESTR.CAVITY>
0

>  <SCORE.RESTR.norm>
0

>  <SCORE.SYSTEM>
0

>  <SCORE.SYSTEM.CONST>
0

>  <SCORE.SYSTEM.DIHEDRAL>
0

>  <SCORE.SYSTEM.SOLV>
0

>  <SCORE.SYSTEM.norm>
0

>  <SCORE.heavy>
14

>  <SCORE.norm>
-0.617

>  <RMSD>
2.593

$$$$
ligand
 OpenBabel11021811413D
libRbt.so/2013.1/901 2013/11/27
 14 13  0  0  0  0  0  0  0  0999 V2000
   42.8301   12.8963   17.8336 N   0  0  0  0  0  0  0  0  0  0  0  0
   41.7938   11.9090   17.4616 C   0  0  0  0  0  0  0  0  0  0  0  0
   41.7144   10.7664   18.4971 C   0  0  0  0  0  0  0  0  0  0  0  0
   43.0210    9.9769   18.6803 C   0  0  0  0  0  0  0  0  0  0  0  0
   42.8168    8.8062   19.5770 N   0  0  0  0  0  0  0  0  0  0  0  0
   44.1245    8.3029   20.0701 C   0  0  0  0  0  0  0  0  0  0  0  0
   44.2670    6.7450   20.1408 C   0  0  0  0  0  0  0  0  0  0  0  0
   45.6455    6.2568   20.6716 C   0  0  0  0  0  0  0  0  0  0  0  0
   45.8512    4.7585   20.5633 C   0  0  0  0  0  0  0  0  0  0  0  0
   46.0676    4.4447   19.1637 N   0  0  0  0  0  0  0  0  0  0  0  0
   45.5471    3.1024   18.9716 C   0  0  0  0  0  0  0  0  0  0  0  0
   46.5413    2.2202   18.2255 C   0  0  0  0  0  0  0  0  0  0  0  0
   45.8550    0.8727   17.9549 C   0  0  0  0  0  0  0  0  0  0  0  0
   44.7452    0.9967   16.9980 N   0  0  0  0  0  0  0  0  0  0  0  0
  1  2  1  0  0  0  0
  2  3  1  0  0  0  0
  3  4  1  0  0  0  0
  4  5  1  0  0  0  0
  5  6  1  0  0  0  0
  6  7  1  0  0  0  0
  7  8  1  0  0  0  0
  8  9  1  0  0  0  0
  9 10  1  0  0  0  0
 10 11  1  0  0  0  0
 11 12  1  0  0  0  0
 12 13  1  0  0  0  0
 13 14  1  0  0  0  0
M  END
>  <CHROM.1>
-59.28343984,-173.67653874,-163.00424755,-139.94227299,-179.56730014,-172.15368363
73.17943346,-149.66697328,-131.62793385,-174.75536480,67.56672370,44.34441423
6.57523509,18.91514877,2.24226665,-0.97926320,0.57790424

>  <Name>
ligand

>  <RI>
0

>  <Rbt.Current_Directory>
/home/itssahil/PROJECTS/Mol_Feturizer/New_Systems/rnas/1TN2

>  <Rbt.Executable>
rbdock ($Id: //depot/dev/client3/rdock/2013.1/src/exe/rbdock.cxx#4 $)

>  <Rbt.Library>
libRbt.so (2013.1, Build901 2013/11/27)

>  <Rbt.Parameter_File>
/export/apps/rDock/src/rDock_2013.1_src/data/scripts/dock_solv.prm

>  <Rbt.Receptor>
prm/pocket_docking_6.prm

>  <SCORE>
-11.6892

>  <SCORE.INTER>
-10.2279

>  <SCORE.INTER.CONST>
1

>  <SCORE.INTER.POLAR>
0

>  <SCORE.INTER.ROT>
11

>  <SCORE.INTER.SOLV>
16.8234

>  <SCORE.INTER.VDW>
-23.3597

>  <SCORE.INTER.norm>
-0.730563

>  <SCORE.INTRA>
-1.46131

>  <SCORE.INTRA.DIHEDRAL>
-3.61241

>  <SCORE.INTRA.DIHEDRAL.0>
7.79482

>  <SCORE.INTRA.POLAR>
0

>  <SCORE.INTRA.POLAR.0>
0

>  <SCORE.INTRA.REPUL>
0

>  <SCORE.INTRA.REPUL.0>
0

>  <SCORE.INTRA.SOLV>
1.84886

>  <SCORE.INTRA.SOLV.lig_0>
-49.456

>  <SCORE.INTRA.VDW>
-0.579532

>  <SCORE.INTRA.VDW.0>
-0.478406

>  <SCORE.INTRA.norm>
-0.104379

>  <SCORE.RESTR>
0

>  <SCORE.RESTR.CAVITY>
0

>  <SCORE.RESTR.norm>
0

>  <SCORE.SYSTEM>
0

>  <SCORE.SYSTEM.CONST>
0

>  <SCORE.SYSTEM.DIHEDRAL>
0

>  <SCORE.SYSTEM.SOLV>
0

>  <SCORE.SYSTEM.norm>
0

>  <SCORE.heavy>
14

>  <SCORE.norm>
-0.834942

>  <RMSD>
2.605

$$$$
ligand
 OpenBabel11021811413D
libRbt.so/2013.1/901 2013/11/27
 14 13  0  0  0  0  0  0  0  0999 V2000
   45.9436   10.5943   16.9359 N   0  0  0  0  0  0  0  0  0  0  0  0
   47.0567    9.9503   16.2056 C   0  0  0  0  0  0  0  0  0  0  0  0
   47.3164    8.5218   16.7311 C   0  0  0  0  0  0  0  0  0  0  0  0
   47.7620    8.4520   18.2010 C   0  0  0  0  0  0  0  0  0  0  0  0
   46.6649    8.8779   19.1128 N   0  0  0  0  0  0  0  0  0  0  0  0
   46.4484    7.8551   20.1682 C   0  0  0  0  0  0  0  0  0  0  0  0
   45.7094    6.5535   19.7078 C   0  0  0  0  0  0  0  0  0  0  0  0
   45.4476    5.5331   20.8526 C   0  0  0  0  0  0  0  0  0  0  0  0
   44.7161    4.2821   20.4067 C   0  0  0  0  0  0  0  0  0  0  0  0
   45.5709    3.5858   19.4639 N   0  0  0  0  0  0  0  0  0  0  0  0
   44.8460    2.3873   19.0794 C   0  0  0  0  0  0  0  0  0  0  0  0
   45.6186    1.5757   18.0461 C   0  0  0  0  0  0  0  0  0  0  0  0
   45.6789    2.4049   16.7543 C   0  0  0  0  0  0  0  0  0  0  0  0
   46.2847    1.6573   15.6422 N   0  0  0  0  0  0  0  0  0  0  0  0
  1  2  1  0  0  0  0
  2  3  1  0  0  0  0
  3  4  1  0  0  0  0
  4  5  1  0  0  0  0
  5  6  1  0  0  0  0
  6  7  1  0  0  0  0
  7  8  1  0  0  0  0
  8  9  1  0  0  0  0
  9 10  1  0  0  0  0
 10 11  1  0  0  0  0
 11 12  1  0  0  0  0
 12 13  1  0  0  0  0
 13 14  1  0  0  0  0
M  END
>  <CHROM.1>
-63.02692698,67.15466907,128.41335920,-74.97104857,-177.53872351,179.25216011
63.72631627,179.09181470,178.15587410,-66.54547085,-174.10706293,46.07599579
5.87351822,18.37936488,-0.89424632,-1.27262600,-2.54544585

>  <Name>
ligand

>  <RI>
0

>  <Rbt.Current_Directory>
/home/itssahil/PROJECTS/Mol_Feturizer/New_Systems/rnas/1TN2

>  <Rbt.Executable>
rbdock ($Id: //depot/dev/client3/rdock/2013.1/src/exe/rbdock.cxx#4 $)

>  <Rbt.Library>
libRbt.so (2013.1, Build901 2013/11/27)

>  <Rbt.Parameter_File>
/export/apps/rDock/src/rDock_2013.1_src/data/scripts/dock_solv.prm

>  <Rbt.Receptor>
prm/pocket_docking_6.prm

>  <SCORE>
-6.68604

>  <SCORE.INTER>
-5.14056

>  <SCORE.INTER.CONST>
1

>  <SCORE.INTER.POLAR>
0

>  <SCORE.INTER.ROT>
11

>  <SCORE.INTER.SOLV>
9.03908

>  <SCORE.INTER.VDW>
-17.3734

>  <SCORE.INTER.norm>
-0.367183

>  <SCORE.INTRA>
-1.54548

>  <SCORE.INTRA.DIHEDRAL>
-5.87908

>  <SCORE.INTRA.DIHEDRAL.0>
7.79482

>  <SCORE.INTRA.POLAR>
0

>  <SCORE.INTRA.POLAR.0>
0

>  <SCORE.INTRA.REPUL>
0

>  <SCORE.INTRA.REPUL.0>
0

>  <SCORE.INTRA.SOLV>
3.59253

>  <SCORE.INTRA.SOLV.lig_0>
-49.456

>  <SCORE.INTRA.VDW>
-0.402202

>  <SCORE.INTRA.VDW.0>
-0.478406

>  <SCORE.INTRA.norm>
-0.110391

>  <SCORE.RESTR>
0

>  <SCORE.RESTR.CAVITY>
0

>  <SCORE.RESTR.norm>
0

>  <SCORE.SYSTEM>
0

>  <SCORE.SYSTEM.CONST>
0

>  <SCORE.SYSTEM.DIHEDRAL>
0

>  <SCORE.SYSTEM.SOLV>
0

>  <SCORE.SYSTEM.norm>
0

>  <SCORE.heavy>
14

>  <SCORE.norm>
-0.477574

>  <RMSD>
2.614

$$$$
ligand
 OpenBabel11021811413D
libRbt.so/2013.1/901 2013/11/27
 14 13  0  0  0  0  0  0  0  0999 V2000
   47.0749   11.5366   17.1811 N   0  0  0  0  0  0  0  0  0  0  0  0
   47.1710   10.0937   17.4911 C   0  0  0  0  0  0  0  0  0  0  0  0
   46.5745    9.7806   18.8804 C   0  0  0  0  0  0  0  0  0  0  0  0
   46.6973    8.3102   19.3128 C   0  0  0  0  0  0  0  0  0  0  0  0
   46.0283    8.0808   20.6229 N   0  0  0  0  0  0  0  0  0  0  0  0
   44.6977    7.4534   20.4169 C   0  0  0  0  0  0  0  0  0  0  0  0
   44.6542    5.8950   20.5643 C   0  0  0  0  0  0  0  0  0  0  0  0
   45.6216    5.1395   19.6084 C   0  0  0  0  0  0  0  0  0  0  0  0
   45.4235    3.6363   19.5942 C   0  0  0  0  0  0  0  0  0  0  0  0
   46.3535    3.0796   18.6301 N   0  0  0  0  0  0  0  0  0  0  0  0
   45.9625    1.6917   18.4555 C   0  0  0  0  0  0  0  0  0  0  0  0
   45.9048    1.3098   16.9810 C   0  0  0  0  0  0  0  0  0  0  0  0
   45.4444   -0.1534   16.8976 C   0  0  0  0  0  0  0  0  0  0  0  0
   45.4100   -0.6468   15.5127 N   0  0  0  0  0  0  0  0  0  0  0  0
  1  2  1  0  0  0  0
  2  3  1  0  0  0  0
  3  4  1  0  0  0  0
  4  5  1  0  0  0  0
  5  6  1  0  0  0  0
  6  7  1  0  0  0  0
  7  8  1  0  0  0  0
  8  9  1  0  0  0  0
  9 10  1  0  0  0  0
 10 11  1  0  0  0  0
 11 12  1  0  0  0  0
 12 13  1  0  0  0  0
 13 14  1  0  0  0  0
M  END
>  <CHROM.1>
-177.08674032,-176.65369092,101.14503741,96.73845514,-57.43368371,-170.83496158
177.93773411,-169.30562281,133.36572566,-178.31649707,-177.49400314,45.92974991
5.37186414,18.58232084,-1.30580204,-1.19931794,-2.71795637

>  <Name>
ligand

>  <RI>
0

>  <Rbt.Current_Directory>
/home/itssahil/PROJECTS/Mol_Feturizer/New_Systems/rnas/1TN2

>  <Rbt.Executable>
rbdock ($Id: //depot/dev/client3/rdock/2013.1/src/exe/rbdock.cxx#4 $)

>  <Rbt.Library>
libRbt.so (2013.1, Build901 2013/11/27)

>  <Rbt.Parameter_File>
/export/apps/rDock/src/rDock_2013.1_src/data/scripts/dock_solv.prm

>  <Rbt.Receptor>
prm/pocket_docking_4.prm

>  <SCORE>
-8.38019

>  <SCORE.INTER>
-5.70255

>  <SCORE.INTER.CONST>
1

>  <SCORE.INTER.POLAR>
0

>  <SCORE.INTER.ROT>
11

>  <SCORE.INTER.SOLV>
13.1182

>  <SCORE.INTER.VDW>
-19.1078

>  <SCORE.INTER.norm>
-0.407325

>  <SCORE.INTRA>
-2.68067

>  <SCORE.INTRA.DIHEDRAL>
-4.41096

>  <SCORE.INTRA.DIHEDRAL.0>
7.79482

>  <SCORE.INTRA.POLAR>
0

>  <SCORE.INTRA.POLAR.0>
0

>  <SCORE.INTRA.REPUL>
0

>  <SCORE.INTRA.REPUL.0>
0

>  <SCORE.INTRA.SOLV>
0.301267

>  <SCORE.INTRA.SOLV.lig_0>
-49.456

>  <SCORE.INTRA.VDW>
-0.625824

>  <SCORE.INTRA.VDW.0>
-0.478406

>  <SCORE.INTRA.norm>
-0.191477

>  <SCORE.RESTR>
0.00303074

>  <SCORE.RESTR.CAVITY>
0.00303074

>  <SCORE.RESTR.norm>
0.000216482

>  <SCORE.SYSTEM>
0

>  <SCORE.SYSTEM.CONST>
0

>  <SCORE.SYSTEM.DIHEDRAL>
0

>  <SCORE.SYSTEM.SOLV>
0

>  <SCORE.SYSTEM.norm>
0

>  <SCORE.heavy>
14

>  <SCORE.norm>
-0.598585

>  <RMSD>
2.616

$$$$
ligand
 OpenBabel11021811413D
libRbt.so/2013.1/901 2013/11/27
 14 13  0  0  0  0  0  0  0  0999 V2000
   41.5544   13.1817   17.3554 N   0  0  0  0  0  0  0  0  0  0  0  0
   42.5020   12.1643   17.8593 C   0  0  0  0  0  0  0  0  0  0  0  0
   43.9420   12.4607   17.3876 C   0  0  0  0  0  0  0  0  0  0  0  0
   45.0038   11.4852   17.9213 C   0  0  0  0  0  0  0  0  0  0  0  0
   44.7380   10.0973   17.4529 N   0  0  0  0  0  0  0  0  0  0  0  0
   44.3670    9.2303   18.6007 C   0  0  0  0  0  0  0  0  0  0  0  0
   45.4916    8.9993   19.6656 C   0  0  0  0  0  0  0  0  0  0  0  0
   46.7609    8.2948   19.1063 C   0  0  0  0  0  0  0  0  0  0  0  0
   46.5492    6.8359   18.7515 C   0  0  0  0  0  0  0  0  0  0  0  0
   46.3752    6.1030   19.9912 N   0  0  0  0  0  0  0  0  0  0  0  0
   45.4544    5.0213   19.6882 C   0  0  0  0  0  0  0  0  0  0  0  0
   46.1815    3.8193   19.0968 C   0  0  0  0  0  0  0  0  0  0  0  0
   45.1249    2.7553   18.7627 C   0  0  0  0  0  0  0  0  0  0  0  0
   45.7099    1.5807   18.0987 N   0  0  0  0  0  0  0  0  0  0  0  0
  1  2  1  0  0  0  0
  2  3  1  0  0  0  0
  3  4  1  0  0  0  0
  4  5  1  0  0  0  0
  5  6  1  0  0  0  0
  6  7  1  0  0  0  0
  7  8  1  0  0  0  0
  8  9  1  0  0  0  0
  9 10  1  0  0  0  0
 10 11  1  0  0  0  0
 11 12  1  0  0  0  0
 12 13  1  0  0  0  0
 13 14  1  0  0  0  0
M  END
>  <CHROM.1>
177.32440361,61.97371919,-112.98592629,-65.26492461,-61.43538488,-70.15249780
-69.90386641,147.25182903,84.19058807,-177.91178005,176.14381095,44.98264438
8.00218486,18.55285163,1.88697116,-0.43960741,-0.00634779

>  <Name>
ligand

>  <RI>
0

>  <Rbt.Current_Directory>
/home/itssahil/PROJECTS/Mol_Feturizer/New_Systems/rnas/1TN2

>  <Rbt.Executable>
rbdock ($Id: //depot/dev/client3/rdock/2013.1/src/exe/rbdock.cxx#4 $)

>  <Rbt.Library>
libRbt.so (2013.1, Build901 2013/11/27)

>  <Rbt.Parameter_File>
/export/apps/rDock/src/rDock_2013.1_src/data/scripts/dock_solv.prm

>  <Rbt.Receptor>
prm/pocket_docking_2.prm

>  <SCORE>
-2.53814

>  <SCORE.INTER>
-1.61006

>  <SCORE.INTER.CONST>
1

>  <SCORE.INTER.POLAR>
0

>  <SCORE.INTER.ROT>
11

>  <SCORE.INTER.SOLV>
15.906

>  <SCORE.INTER.VDW>
-17.3087

>  <SCORE.INTER.norm>
-0.115004

>  <SCORE.INTRA>
-1.00722

>  <SCORE.INTRA.DIHEDRAL>
-4.59862

>  <SCORE.INTRA.DIHEDRAL.0>
7.79482

>  <SCORE.INTRA.POLAR>
0

>  <SCORE.INTRA.POLAR.0>
0

>  <SCORE.INTRA.REPUL>
0

>  <SCORE.INTRA.REPUL.0>
0

>  <SCORE.INTRA.SOLV>
1.3874

>  <SCORE.INTRA.SOLV.lig_0>
-49.456

>  <SCORE.INTRA.VDW>
0.598386

>  <SCORE.INTRA.VDW.0>
-0.478406

>  <SCORE.INTRA.norm>
-0.0719445

>  <SCORE.RESTR>
0.0791415

>  <SCORE.RESTR.CAVITY>
0.0791415

>  <SCORE.RESTR.norm>
0.00565296

>  <SCORE.SYSTEM>
0

>  <SCORE.SYSTEM.CONST>
0

>  <SCORE.SYSTEM.DIHEDRAL>
0

>  <SCORE.SYSTEM.SOLV>
0

>  <SCORE.SYSTEM.norm>
0

>  <SCORE.heavy>
14

>  <SCORE.norm>
-0.181296

>  <RMSD>
2.621

$$$$
ligand
 OpenBabel11021811413D
libRbt.so/2013.1/901 2013/11/27
 14 13  0  0  0  0  0  0  0  0999 V2000
   45.9909   12.7812   14.8893 N   0  0  0  0  0  0  0  0  0  0  0  0
   44.5735   12.4964   15.2007 C   0  0  0  0  0  0  0  0  0  0  0  0
   44.4448   11.3100   16.1804 C   0  0  0  0  0  0  0  0  0  0  0  0
   45.1500   11.5163   17.5311 C   0  0  0  0  0  0  0  0  0  0  0  0
   45.0023   10.3163   18.3998 N   0  0  0  0  0  0  0  0  0  0  0  0
   46.1754   10.1881   19.3021 C   0  0  0  0  0  0  0  0  0  0  0  0
   46.2634    8.8507   20.1118 C   0  0  0  0  0  0  0  0  0  0  0  0
   46.2723    7.5716   19.2263 C   0  0  0  0  0  0  0  0  0  0  0  0
   46.1400    6.2799   20.0093 C   0  0  0  0  0  0  0  0  0  0  0  0
   46.0744    5.1911   19.0530 N   0  0  0  0  0  0  0  0  0  0  0  0
   45.5865    4.0404   19.7929 C   0  0  0  0  0  0  0  0  0  0  0  0
   45.1566    2.9169   18.8568 C   0  0  0  0  0  0  0  0  0  0  0  0
   46.4085    2.4268   18.1134 C   0  0  0  0  0  0  0  0  0  0  0  0
   46.0853    1.4409   17.0712 N   0  0  0  0  0  0  0  0  0  0  0  0
  1  2  1  0  0  0  0
  2  3  1  0  0  0  0
  3  4  1  0  0  0  0
  4  5  1  0  0  0  0
  5  6  1  0  0  0  0
  6  7  1  0  0  0  0
  7  8  1  0  0  0  0
  8  9  1  0  0  0  0
  9 10  1  0  0  0  0
 10 11  1  0  0  0  0
 11 12  1  0  0  0  0
 12 13  1  0  0  0  0
 13 14  1  0  0  0  0
M  END
>  <CHROM.1>
59.45495614,-178.71474260,150.21413767,-170.74095374,57.13844531,-170.99344451
176.27544366,-164.75089986,166.57920779,64.76450558,-173.63924075,45.66592787
7.66628052,18.12445107,2.07440632,-1.40455891,0.25957213

>  <Name>
ligand

>  <RI>
0

>  <Rbt.Current_Directory>
/home/itssahil/PROJECTS/Mol_Feturizer/New_Systems/rnas/1TN2

>  <Rbt.Executable>
rbdock ($Id: //depot/dev/client3/rdock/2013.1/src/exe/rbdock.cxx#4 $)

>  <Rbt.Library>
libRbt.so (2013.1, Build901 2013/11/27)

>  <Rbt.Parameter_File>
/export/apps/rDock/src/rDock_2013.1_src/data/scripts/dock_solv.prm

>  <Rbt.Receptor>
prm/pocket_docking_5.prm

>  <SCORE>
-7.11685

>  <SCORE.INTER>
-4.19574

>  <SCORE.INTER.CONST>
1

>  <SCORE.INTER.POLAR>
0

>  <SCORE.INTER.ROT>
11

>  <SCORE.INTER.SOLV>
12.621

>  <SCORE.INTER.VDW>
-17.9375

>  <SCORE.INTER.norm>
-0.299696

>  <SCORE.INTRA>
-2.92111

>  <SCORE.INTRA.DIHEDRAL>
-6.14725

>  <SCORE.INTRA.DIHEDRAL.0>
7.79482

>  <SCORE.INTRA.POLAR>
0

>  <SCORE.INTRA.POLAR.0>
0

>  <SCORE.INTRA.REPUL>
0

>  <SCORE.INTRA.REPUL.0>
0

>  <SCORE.INTRA.SOLV>
1.54494

>  <SCORE.INTRA.SOLV.lig_0>
-49.456

>  <SCORE.INTRA.VDW>
-0.619957

>  <SCORE.INTRA.VDW.0>
-0.478406

>  <SCORE.INTRA.norm>
-0.208651

>  <SCORE.RESTR>
0

>  <SCORE.RESTR.CAVITY>
0

>  <SCORE.RESTR.norm>
0

>  <SCORE.SYSTEM>
0

>  <SCORE.SYSTEM.CONST>
0

>  <SCORE.SYSTEM.DIHEDRAL>
0

>  <SCORE.SYSTEM.SOLV>
0

>  <SCORE.SYSTEM.norm>
0

>  <SCORE.heavy>
14

>  <SCORE.norm>
-0.508346

>  <RMSD>
2.622

$$$$
ligand
 OpenBabel11021811413D
libRbt.so/2013.1/901 2013/11/27
 14 13  0  0  0  0  0  0  0  0999 V2000
   46.5110   10.6809   17.5313 N   0  0  0  0  0  0  0  0  0  0  0  0
   45.5121    9.6921   17.9914 C   0  0  0  0  0  0  0  0  0  0  0  0
   45.6428    9.4311   19.5076 C   0  0  0  0  0  0  0  0  0  0  0  0
   44.6962    8.3501   20.0547 C   0  0  0  0  0  0  0  0  0  0  0  0
   44.9690    7.0307   19.4213 N   0  0  0  0  0  0  0  0  0  0  0  0
   46.0414    6.3176   20.1618 C   0  0  0  0  0  0  0  0  0  0  0  0
   45.6101    4.9837   20.8595 C   0  0  0  0  0  0  0  0  0  0  0  0
   44.9628    3.9450   19.8990 C   0  0  0  0  0  0  0  0  0  0  0  0
   45.9107    3.4073   18.8448 C   0  0  0  0  0  0  0  0  0  0  0  0
   45.1767    2.4471   18.0426 N   0  0  0  0  0  0  0  0  0  0  0  0
   45.9155    1.2003   18.1393 C   0  0  0  0  0  0  0  0  0  0  0  0
   45.3283    0.1317   17.2246 C   0  0  0  0  0  0  0  0  0  0  0  0
   45.6036    0.5586   15.7748 C   0  0  0  0  0  0  0  0  0  0  0  0
   45.1105   -0.4279   14.8020 N   0  0  0  0  0  0  0  0  0  0  0  0
  1  2  1  0  0  0  0
  2  3  1  0  0  0  0
  3  4  1  0  0  0  0
  4  5  1  0  0  0  0
  5  6  1  0  0  0  0
  6  7  1  0  0  0  0
  7  8  1  0  0  0  0
  8  9  1  0  0  0  0
  9 10  1  0  0  0  0
 10 11  1  0  0  0  0
 11 12  1  0  0  0  0
 12 13  1  0  0  0  0
 13 14  1  0  0  0  0
M  END
>  <CHROM.1>
-176.46767726,61.73779093,86.49025634,115.59327948,55.69336266,65.52736274
179.31139003,-122.54908266,-174.27298560,68.79107049,178.31233115,45.49935702
4.83912361,18.44716369,-1.29298791,-1.48465136,-2.59572186

>  <Name>
ligand

>  <RI>
0

>  <Rbt.Current_Directory>
/home/itssahil/PROJECTS/Mol_Feturizer/New_Systems/rnas/1TN2

>  <Rbt.Executable>
rbdock ($Id: //depot/dev/client3/rdock/2013.1/src/exe/rbdock.cxx#4 $)

>  <Rbt.Library>
libRbt.so (2013.1, Build901 2013/11/27)

>  <Rbt.Parameter_File>
/export/apps/rDock/src/rDock_2013.1_src/data/scripts/dock_solv.prm

>  <Rbt.Receptor>
prm/blind_docking_80.prm

>  <SCORE>
-8.25955

>  <SCORE.INTER>
-6.64324

>  <SCORE.INTER.CONST>
1

>  <SCORE.INTER.POLAR>
0

>  <SCORE.INTER.ROT>
11

>  <SCORE.INTER.SOLV>
10.2475

>  <SCORE.INTER.VDW>
-18.778

>  <SCORE.INTER.norm>
-0.474517

>  <SCORE.INTRA>
-1.61631

>  <SCORE.INTRA.DIHEDRAL>
-4.34348

>  <SCORE.INTRA.DIHEDRAL.0>
7.79482

>  <SCORE.INTRA.POLAR>
0

>  <SCORE.INTRA.POLAR.0>
0

>  <SCORE.INTRA.REPUL>
0

>  <SCORE.INTRA.REPUL.0>
0

>  <SCORE.INTRA.SOLV>
1.36704

>  <SCORE.INTRA.SOLV.lig_0>
-49.456

>  <SCORE.INTRA.VDW>
-0.128088

>  <SCORE.INTRA.VDW.0>
-0.478406

>  <SCORE.INTRA.norm>
-0.115451

>  <SCORE.RESTR>
0

>  <SCORE.RESTR.CAVITY>
0

>  <SCORE.RESTR.norm>
0

>  <SCORE.SYSTEM>
0

>  <SCORE.SYSTEM.CONST>
0

>  <SCORE.SYSTEM.DIHEDRAL>
0

>  <SCORE.SYSTEM.SOLV>
0

>  <SCORE.SYSTEM.norm>
0

>  <SCORE.heavy>
14

>  <SCORE.norm>
-0.589968

>  <RMSD>
2.625

$$$$
ligand
 OpenBabel11021811413D
libRbt.so/2013.1/901 2013/11/27
 14 13  0  0  0  0  0  0  0  0999 V2000
   46.7347   -1.6005   15.4030 N   0  0  0  0  0  0  0  0  0  0  0  0
   45.2639   -1.4457   15.4115 C   0  0  0  0  0  0  0  0  0  0  0  0
   44.8554   -0.0179   15.8339 C   0  0  0  0  0  0  0  0  0  0  0  0
   45.2846    0.3759   17.2568 C   0  0  0  0  0  0  0  0  0  0  0  0
   44.9225    1.7893   17.5523 N   0  0  0  0  0  0  0  0  0  0  0  0
   45.3687    2.1584   18.9203 C   0  0  0  0  0  0  0  0  0  0  0  0
   46.2136    3.4727   19.0250 C   0  0  0  0  0  0  0  0  0  0  0  0
   45.4323    4.6853   19.6077 C   0  0  0  0  0  0  0  0  0  0  0  0
   46.3054    5.8814   19.9329 C   0  0  0  0  0  0  0  0  0  0  0  0
   46.8026    6.4162   18.6794 N   0  0  0  0  0  0  0  0  0  0  0  0
   46.9659    7.8436   18.8926 C   0  0  0  0  0  0  0  0  0  0  0  0
   45.7691    8.6267   18.3656 C   0  0  0  0  0  0  0  0  0  0  0  0
   46.0131   10.1117   18.6740 C   0  0  0  0  0  0  0  0  0  0  0  0
   44.8975   10.9616   18.2313 N   0  0  0  0  0  0  0  0  0  0  0  0
  1  2  1  0  0  0  0
  2  3  1  0  0  0  0
  3  4  1  0  0  0  0
  4  5  1  0  0  0  0
  5  6  1  0  0  0  0
  6  7  1  0  0  0  0
  7  8  1  0  0  0  0
  8  9  1  0  0  0  0
  9 10  1  0  0  0  0
 10 11  1  0  0  0  0
 11 12  1  0  0  0  0
 12 13  1  0  0  0  0
 13 14  1  0  0  0  0
M  END
>  <CHROM.1>
-62.16458971,176.68008740,-178.88877343,128.74012593,104.86862540,169.93959648
67.63746348,149.35049588,-97.62784061,178.27256777,-178.74083253,45.77350153
4.23269974,17.98493985,1.76644767,1.37194787,-3.07867280

>  <Name>
ligand

>  <RI>
0

>  <Rbt.Current_Directory>
/home/itssahil/PROJECTS/Mol_Feturizer/New_Systems/rnas/1TN2

>  <Rbt.Executable>
rbdock ($Id: //depot/dev/client3/rdock/2013.1/src/exe/rbdock.cxx#4 $)

>  <Rbt.Library>
libRbt.so (2013.1, Build901 2013/11/27)

>  <Rbt.Parameter_File>
/export/apps/rDock/src/rDock_2013.1_src/data/scripts/dock_solv.prm

>  <Rbt.Receptor>
prm/pocket_docking_2.prm

>  <SCORE>
-2.80729

>  <SCORE.INTER>
-3.07302

>  <SCORE.INTER.CONST>
1

>  <SCORE.INTER.POLAR>
0

>  <SCORE.INTER.ROT>
11

>  <SCORE.INTER.SOLV>
15.9101

>  <SCORE.INTER.VDW>
-18.2854

>  <SCORE.INTER.norm>
-0.219501

>  <SCORE.INTRA>
0.219896

>  <SCORE.INTRA.DIHEDRAL>
0.205474

>  <SCORE.INTRA.DIHEDRAL.0>
7.79482

>  <SCORE.INTRA.POLAR>
0

>  <SCORE.INTRA.POLAR.0>
0

>  <SCORE.INTRA.REPUL>
0

>  <SCORE.INTRA.REPUL.0>
0

>  <SCORE.INTRA.SOLV>
1.14043

>  <SCORE.INTRA.SOLV.lig_0>
-49.456

>  <SCORE.INTRA.VDW>
-0.453055

>  <SCORE.INTRA.VDW.0>
-0.478406

>  <SCORE.INTRA.norm>
0.0157068

>  <SCORE.RESTR>
0.0458352

>  <SCORE.RESTR.CAVITY>
0.0458352

>  <SCORE.RESTR.norm>
0.00327394

>  <SCORE.SYSTEM>
0

>  <SCORE.SYSTEM.CONST>
0

>  <SCORE.SYSTEM.DIHEDRAL>
0

>  <SCORE.SYSTEM.SOLV>
0

>  <SCORE.SYSTEM.norm>
0

>  <SCORE.heavy>
14

>  <SCORE.norm>
-0.200521

>  <RMSD>
2.625

$$$$
ligand
 OpenBabel11021811413D
libRbt.so/2013.1/901 2013/11/27
 14 13  0  0  0  0  0  0  0  0999 V2000
   45.0830   12.4429   18.0164 N   0  0  0  0  0  0  0  0  0  0  0  0
   44.1009   11.3937   17.6677 C   0  0  0  0  0  0  0  0  0  0  0  0
   44.7353    9.9881   17.7437 C   0  0  0  0  0  0  0  0  0  0  0  0
   45.0494    9.5039   19.1688 C   0  0  0  0  0  0  0  0  0  0  0  0
   43.8016    9.3349   19.9629 N   0  0  0  0  0  0  0  0  0  0  0  0
   43.2214    7.9879   19.7269 C   0  0  0  0  0  0  0  0  0  0  0  0
   43.8300    6.8288   20.5861 C   0  0  0  0  0  0  0  0  0  0  0  0
   45.3378    6.5601   20.3129 C   0  0  0  0  0  0  0  0  0  0  0  0
   45.8624    5.2895   20.9527 C   0  0  0  0  0  0  0  0  0  0  0  0
   45.1737    4.1709   20.3371 N   0  0  0  0  0  0  0  0  0  0  0  0
   46.0788    3.6543   19.3254 C   0  0  0  0  0  0  0  0  0  0  0  0
   45.4324    2.5343   18.5185 C   0  0  0  0  0  0  0  0  0  0  0  0
   46.4389    2.0949   17.4443 C   0  0  0  0  0  0  0  0  0  0  0  0
   45.8887    1.0578   16.5586 N   0  0  0  0  0  0  0  0  0  0  0  0
  1  2  1  0  0  0  0
  2  3  1  0  0  0  0
  3  4  1  0  0  0  0
  4  5  1  0  0  0  0
  5  6  1  0  0  0  0
  6  7  1  0  0  0  0
  7  8  1  0  0  0  0
  8  9  1  0  0  0  0
  9 10  1  0  0  0  0
 10 11  1  0  0  0  0
 11 12  1  0  0  0  0
 12 13  1  0  0  0  0
 13 14  1  0  0  0  0
M  END
>  <CHROM.1>
70.62620003,64.59076033,85.70082450,83.32542225,-63.25815446,-169.59233836
64.46941635,98.57819132,-175.49983831,177.74841353,-177.08772964,45.00246113
6.63150681,19.02311852,-2.26187248,-1.29659637,2.49958121

>  <Name>
ligand

>  <RI>
0

>  <Rbt.Current_Directory>
/home/itssahil/PROJECTS/Mol_Feturizer/New_Systems/rnas/1TN2

>  <Rbt.Executable>
rbdock ($Id: //depot/dev/client3/rdock/2013.1/src/exe/rbdock.cxx#4 $)

>  <Rbt.Library>
libRbt.so (2013.1, Build901 2013/11/27)

>  <Rbt.Parameter_File>
/export/apps/rDock/src/rDock_2013.1_src/data/scripts/dock_solv.prm

>  <Rbt.Receptor>
prm/pocket_docking_7.prm

>  <SCORE>
-6.87701

>  <SCORE.INTER>
-5.77837

>  <SCORE.INTER.CONST>
1

>  <SCORE.INTER.POLAR>
0

>  <SCORE.INTER.ROT>
11

>  <SCORE.INTER.SOLV>
12.577

>  <SCORE.INTER.VDW>
-18.9779

>  <SCORE.INTER.norm>
-0.412741

>  <SCORE.INTRA>
-1.09864

>  <SCORE.INTRA.DIHEDRAL>
-4.95174

>  <SCORE.INTRA.DIHEDRAL.0>
7.79482

>  <SCORE.INTRA.POLAR>
0

>  <SCORE.INTRA.POLAR.0>
0

>  <SCORE.INTRA.REPUL>
0

>  <SCORE.INTRA.REPUL.0>
0

>  <SCORE.INTRA.SOLV>
2.14867

>  <SCORE.INTRA.SOLV.lig_0>
-49.456

>  <SCORE.INTRA.VDW>
0.302893

>  <SCORE.INTRA.VDW.0>
-0.478406

>  <SCORE.INTRA.norm>
-0.0784743

>  <SCORE.RESTR>
0

>  <SCORE.RESTR.CAVITY>
0

>  <SCORE.RESTR.norm>
0

>  <SCORE.SYSTEM>
0

>  <SCORE.SYSTEM.CONST>
0

>  <SCORE.SYSTEM.DIHEDRAL>
0

>  <SCORE.SYSTEM.SOLV>
0

>  <SCORE.SYSTEM.norm>
0

>  <SCORE.heavy>
14

>  <SCORE.norm>
-0.491215

>  <RMSD>
2.640

$$$$
ligand
 OpenBabel11021811413D
libRbt.so/2013.1/901 2013/11/27
 14 13  0  0  0  0  0  0  0  0999 V2000
   45.9409    2.4169   17.0826 N   0  0  0  0  0  0  0  0  0  0  0  0
   46.1675    2.4385   18.5438 C   0  0  0  0  0  0  0  0  0  0  0  0
   45.4578    3.6421   19.2009 C   0  0  0  0  0  0  0  0  0  0  0  0
   46.0249    5.0146   18.8028 C   0  0  0  0  0  0  0  0  0  0  0  0
   45.1679    6.1171   19.3190 N   0  0  0  0  0  0  0  0  0  0  0  0
   45.7784    6.7162   20.5336 C   0  0  0  0  0  0  0  0  0  0  0  0
   46.7531    7.9153   20.2798 C   0  0  0  0  0  0  0  0  0  0  0  0
   46.0378    9.2538   19.9374 C   0  0  0  0  0  0  0  0  0  0  0  0
   45.4121    9.2816   18.5566 C   0  0  0  0  0  0  0  0  0  0  0  0
   44.8297   10.5963   18.3646 N   0  0  0  0  0  0  0  0  0  0  0  0
   44.5045   10.6851   16.9518 C   0  0  0  0  0  0  0  0  0  0  0  0
   43.8647   12.0256   16.6100 C   0  0  0  0  0  0  0  0  0  0  0  0
   42.5552   12.1320   17.4060 C   0  0  0  0  0  0  0  0  0  0  0  0
   41.8829   13.4235   17.1995 N   0  0  0  0  0  0  0  0  0  0  0  0
  1  2  1  0  0  0  0
  2  3  1  0  0  0  0
  3  4  1  0  0  0  0
  4  5  1  0  0  0  0
  5  6  1  0  0  0  0
  6  7  1  0  0  0  0
  7  8  1  0  0  0  0
  8  9  1  0  0  0  0
  9 10  1  0  0  0  0
 10 11  1  0  0  0  0
 11 12  1  0  0  0  0
 12 13  1  0  0  0  0
 13 14  1  0  0  0  0
M  END
>  <CHROM.1>
-66.60645897,171.80509202,101.58785710,90.21331049,76.06363485,-71.77580241
-178.02064446,167.94768894,179.41076341,-61.76536933,177.25321515,45.02720054
7.97554367,18.48509168,1.03148886,0.96386925,-2.84103459

>  <Name>
ligand

>  <RI>
0

>  <Rbt.Current_Directory>
/home/itssahil/PROJECTS/Mol_Feturizer/New_Systems/rnas/1TN2

>  <Rbt.Executable>
rbdock ($Id: //depot/dev/client3/rdock/2013.1/src/exe/rbdock.cxx#4 $)

>  <Rbt.Library>
libRbt.so (2013.1, Build901 2013/11/27)

>  <Rbt.Parameter_File>
/export/apps/rDock/src/rDock_2013.1_src/data/scripts/dock_solv.prm

>  <Rbt.Receptor>
prm/pocket_docking_3.prm

>  <SCORE>
-5.08254

>  <SCORE.INTER>
-3.60322

>  <SCORE.INTER.CONST>
1

>  <SCORE.INTER.POLAR>
0

>  <SCORE.INTER.ROT>
11

>  <SCORE.INTER.SOLV>
12.9754

>  <SCORE.INTER.VDW>
-17.6606

>  <SCORE.INTER.norm>
-0.257373

>  <SCORE.INTRA>
-1.47932

>  <SCORE.INTRA.DIHEDRAL>
-4.17788

>  <SCORE.INTRA.DIHEDRAL.0>
7.79482

>  <SCORE.INTRA.POLAR>
0

>  <SCORE.INTRA.POLAR.0>
0

>  <SCORE.INTRA.REPUL>
0

>  <SCORE.INTRA.REPUL.0>
0

>  <SCORE.INTRA.SOLV>
1.94897

>  <SCORE.INTRA.SOLV.lig_0>
-49.456

>  <SCORE.INTRA.VDW>
-0.364864

>  <SCORE.INTRA.VDW.0>
-0.478406

>  <SCORE.INTRA.norm>
-0.105665

>  <SCORE.RESTR>
0

>  <SCORE.RESTR.CAVITY>
0

>  <SCORE.RESTR.norm>
0

>  <SCORE.SYSTEM>
0

>  <SCORE.SYSTEM.CONST>
0

>  <SCORE.SYSTEM.DIHEDRAL>
0

>  <SCORE.SYSTEM.SOLV>
0

>  <SCORE.SYSTEM.norm>
0

>  <SCORE.heavy>
14

>  <SCORE.norm>
-0.363038

>  <RMSD>
2.644

$$$$
ligand
 OpenBabel11021811413D
libRbt.so/2013.1/901 2013/11/27
 14 13  0  0  0  0  0  0  0  0999 V2000
   46.5252   -0.2532   14.6267 N   0  0  0  0  0  0  0  0  0  0  0  0
   45.2429    0.3921   14.9822 C   0  0  0  0  0  0  0  0  0  0  0  0
   44.8407    0.0698   16.4376 C   0  0  0  0  0  0  0  0  0  0  0  0
   45.7692    0.6701   17.5060 C   0  0  0  0  0  0  0  0  0  0  0  0
   45.7995    2.1557   17.4141 N   0  0  0  0  0  0  0  0  0  0  0  0
   46.2437    2.7410   18.7051 C   0  0  0  0  0  0  0  0  0  0  0  0
   45.7535    4.2006   18.9907 C   0  0  0  0  0  0  0  0  0  0  0  0
   46.1466    4.7390   20.3964 C   0  0  0  0  0  0  0  0  0  0  0  0
   45.6328    6.1357   20.6864 C   0  0  0  0  0  0  0  0  0  0  0  0
   46.2310    7.0340   19.7171 N   0  0  0  0  0  0  0  0  0  0  0  0
   46.2229    8.3486   20.3348 C   0  0  0  0  0  0  0  0  0  0  0  0
   46.5748    9.4391   19.3297 C   0  0  0  0  0  0  0  0  0  0  0  0
   45.4177    9.5350   18.3238 C   0  0  0  0  0  0  0  0  0  0  0  0
   45.6575   10.5605   17.2974 N   0  0  0  0  0  0  0  0  0  0  0  0
  1  2  1  0  0  0  0
  2  3  1  0  0  0  0
  3  4  1  0  0  0  0
  4  5  1  0  0  0  0
  5  6  1  0  0  0  0
  6  7  1  0  0  0  0
  7  8  1  0  0  0  0
  8  9  1  0  0  0  0
  9 10  1  0  0  0  0
 10 11  1  0  0  0  0
 11 12  1  0  0  0  0
 12 13  1  0  0  0  0
 13 14  1  0  0  0  0
M  END
>  <CHROM.1>
66.60569434,60.24543121,158.39050879,-154.39223716,175.55950507,-178.16089084
-62.04963214,-155.48859941,-169.00254046,68.26603904,-179.73379840,45.86120789
4.69764274,18.19666011,1.99275173,1.49131938,3.06321852

>  <Name>
ligand

>  <RI>
0

>  <Rbt.Current_Directory>
/home/itssahil/PROJECTS/Mol_Feturizer/New_Systems/rnas/1TN2

>  <Rbt.Executable>
rbdock ($Id: //depot/dev/client3/rdock/2013.1/src/exe/rbdock.cxx#4 $)

>  <Rbt.Library>
libRbt.so (2013.1, Build901 2013/11/27)

>  <Rbt.Parameter_File>
/export/apps/rDock/src/rDock_2013.1_src/data/scripts/dock_solv.prm

>  <Rbt.Receptor>
prm/pocket_docking_7.prm

>  <SCORE>
-9.41837

>  <SCORE.INTER>
-7.08063

>  <SCORE.INTER.CONST>
1

>  <SCORE.INTER.POLAR>
0

>  <SCORE.INTER.ROT>
11

>  <SCORE.INTER.SOLV>
10.0329

>  <SCORE.INTER.VDW>
-18.9981

>  <SCORE.INTER.norm>
-0.505759

>  <SCORE.INTRA>
-2.33775

>  <SCORE.INTRA.DIHEDRAL>
-5.93734

>  <SCORE.INTRA.DIHEDRAL.0>
7.79482

>  <SCORE.INTRA.POLAR>
0

>  <SCORE.INTRA.POLAR.0>
0

>  <SCORE.INTRA.REPUL>
0

>  <SCORE.INTRA.REPUL.0>
0

>  <SCORE.INTRA.SOLV>
2.3962

>  <SCORE.INTRA.SOLV.lig_0>
-49.456

>  <SCORE.INTRA.VDW>
-0.567178

>  <SCORE.INTRA.VDW.0>
-0.478406

>  <SCORE.INTRA.norm>
-0.166982

>  <SCORE.RESTR>
0

>  <SCORE.RESTR.CAVITY>
0

>  <SCORE.RESTR.norm>
0

>  <SCORE.SYSTEM>
0

>  <SCORE.SYSTEM.CONST>
0

>  <SCORE.SYSTEM.DIHEDRAL>
0

>  <SCORE.SYSTEM.SOLV>
0

>  <SCORE.SYSTEM.norm>
0

>  <SCORE.heavy>
14

>  <SCORE.norm>
-0.672741

>  <RMSD>
2.654

$$$$
ligand
 OpenBabel11021811413D
libRbt.so/2013.1/901 2013/11/27
 14 13  0  0  0  0  0  0  0  0999 V2000
   46.9882    9.3798   17.0823 N   0  0  0  0  0  0  0  0  0  0  0  0
   46.7197   10.3066   18.2031 C   0  0  0  0  0  0  0  0  0  0  0  0
   46.1300    9.5574   19.4176 C   0  0  0  0  0  0  0  0  0  0  0  0
   44.7574    8.9118   19.1663 C   0  0  0  0  0  0  0  0  0  0  0  0
   44.2515    8.2371   20.3932 N   0  0  0  0  0  0  0  0  0  0  0  0
   44.4170    6.7655   20.2750 C   0  0  0  0  0  0  0  0  0  0  0  0
   45.8493    6.2179   20.5924 C   0  0  0  0  0  0  0  0  0  0  0  0
   45.9906    4.6771   20.4298 C   0  0  0  0  0  0  0  0  0  0  0  0
   45.8379    4.1924   19.0012 C   0  0  0  0  0  0  0  0  0  0  0  0
   45.9307    2.7448   19.0162 N   0  0  0  0  0  0  0  0  0  0  0  0
   45.2513    2.2901   17.8156 C   0  0  0  0  0  0  0  0  0  0  0  0
   45.5697    0.8304   17.5136 C   0  0  0  0  0  0  0  0  0  0  0  0
   44.8588    0.4613   16.2027 C   0  0  0  0  0  0  0  0  0  0  0  0
   45.1859   -0.9019   15.7582 N   0  0  0  0  0  0  0  0  0  0  0  0
  1  2  1  0  0  0  0
  2  3  1  0  0  0  0
  3  4  1  0  0  0  0
  4  5  1  0  0  0  0
  5  6  1  0  0  0  0
  6  7  1  0  0  0  0
  7  8  1  0  0  0  0
  8  9  1  0  0  0  0
  9 10  1  0  0  0  0
 10 11  1  0  0  0  0
 11 12  1  0  0  0  0
 12 13  1  0  0  0  0
 13 14  1  0  0  0  0
M  END
>  <CHROM.1>
-63.72719478,-178.82310248,-103.56615348,80.84886354,-178.81509719,66.17669055
-177.38663454,156.87764043,165.54445263,-177.62917721,175.44604830,45.55269441
5.26233179,18.63360027,-1.38750182,-1.26839621,-2.72047548

>  <Name>
ligand

>  <RI>
0

>  <Rbt.Current_Directory>
/home/itssahil/PROJECTS/Mol_Feturizer/New_Systems/rnas/1TN2

>  <Rbt.Executable>
rbdock ($Id: //depot/dev/client3/rdock/2013.1/src/exe/rbdock.cxx#4 $)

>  <Rbt.Library>
libRbt.so (2013.1, Build901 2013/11/27)

>  <Rbt.Parameter_File>
/export/apps/rDock/src/rDock_2013.1_src/data/scripts/dock_solv.prm

>  <Rbt.Receptor>
prm/pocket_docking_8.prm

>  <SCORE>
-8.48859

>  <SCORE.INTER>
-5.72201

>  <SCORE.INTER.CONST>
1

>  <SCORE.INTER.POLAR>
0

>  <SCORE.INTER.ROT>
11

>  <SCORE.INTER.SOLV>
14.0733

>  <SCORE.INTER.VDW>
-19.4391

>  <SCORE.INTER.norm>
-0.408715

>  <SCORE.INTRA>
-2.76658

>  <SCORE.INTRA.DIHEDRAL>
-5.58109

>  <SCORE.INTRA.DIHEDRAL.0>
7.79482

>  <SCORE.INTRA.POLAR>
0

>  <SCORE.INTRA.POLAR.0>
0

>  <SCORE.INTRA.REPUL>
0

>  <SCORE.INTRA.REPUL.0>
0

>  <SCORE.INTRA.SOLV>
0.768605

>  <SCORE.INTRA.SOLV.lig_0>
-49.456

>  <SCORE.INTRA.VDW>
-0.360333

>  <SCORE.INTRA.VDW.0>
-0.478406

>  <SCORE.INTRA.norm>
-0.197613

>  <SCORE.RESTR>
0

>  <SCORE.RESTR.CAVITY>
0

>  <SCORE.RESTR.norm>
0

>  <SCORE.SYSTEM>
0

>  <SCORE.SYSTEM.CONST>
0

>  <SCORE.SYSTEM.DIHEDRAL>
0

>  <SCORE.SYSTEM.SOLV>
0

>  <SCORE.SYSTEM.norm>
0

>  <SCORE.heavy>
14

>  <SCORE.norm>
-0.606328

>  <RMSD>
2.657

$$$$
ligand
 OpenBabel11021811413D
libRbt.so/2013.1/901 2013/11/27
 14 13  0  0  0  0  0  0  0  0999 V2000
   45.6344    0.7746   14.8806 N   0  0  0  0  0  0  0  0  0  0  0  0
   44.5801    0.5680   15.8969 C   0  0  0  0  0  0  0  0  0  0  0  0
   45.1906    0.2118   17.2697 C   0  0  0  0  0  0  0  0  0  0  0  0
   45.9656    1.3569   17.9419 C   0  0  0  0  0  0  0  0  0  0  0  0
   45.0671    2.5045   18.2452 N   0  0  0  0  0  0  0  0  0  0  0  0
   45.8094    3.5555   18.9876 C   0  0  0  0  0  0  0  0  0  0  0  0
   44.9995    4.2939   20.1061 C   0  0  0  0  0  0  0  0  0  0  0  0
   45.8330    5.3284   20.9159 C   0  0  0  0  0  0  0  0  0  0  0  0
   46.2040    6.5706   20.1297 C   0  0  0  0  0  0  0  0  0  0  0  0
   45.0088    7.3825   20.0012 N   0  0  0  0  0  0  0  0  0  0  0  0
   45.3188    8.3922   19.0041 C   0  0  0  0  0  0  0  0  0  0  0  0
   46.0045    9.6014   19.6293 C   0  0  0  0  0  0  0  0  0  0  0  0
   46.1475   10.6713   18.5361 C   0  0  0  0  0  0  0  0  0  0  0  0
   47.0033   10.2220   17.4278 N   0  0  0  0  0  0  0  0  0  0  0  0
  1  2  1  0  0  0  0
  2  3  1  0  0  0  0
  3  4  1  0  0  0  0
  4  5  1  0  0  0  0
  5  6  1  0  0  0  0
  6  7  1  0  0  0  0
  7  8  1  0  0  0  0
  8  9  1  0  0  0  0
  9 10  1  0  0  0  0
 10 11  1  0  0  0  0
 11 12  1  0  0  0  0
 12 13  1  0  0  0  0
 13 14  1  0  0  0  0
M  END
>  <CHROM.1>
68.30632093,63.04611290,175.61755886,-142.55068732,176.62763309,70.65857083
74.12039332,-167.46190628,-85.95141737,-173.73671146,-62.76012107,45.62614757
5.10235383,18.49834430,-2.19393336,1.41596372,0.87877529

>  <Name>
ligand

>  <RI>
0

>  <Rbt.Current_Directory>
/home/itssahil/PROJECTS/Mol_Feturizer/New_Systems/rnas/1TN2

>  <Rbt.Executable>
rbdock ($Id: //depot/dev/client3/rdock/2013.1/src/exe/rbdock.cxx#4 $)

>  <Rbt.Library>
libRbt.so (2013.1, Build901 2013/11/27)

>  <Rbt.Parameter_File>
/export/apps/rDock/src/rDock_2013.1_src/data/scripts/dock_solv.prm

>  <Rbt.Receptor>
prm/pocket_docking_5.prm

>  <SCORE>
-7.67955

>  <SCORE.INTER>
-6.97521

>  <SCORE.INTER.CONST>
1

>  <SCORE.INTER.POLAR>
0

>  <SCORE.INTER.ROT>
11

>  <SCORE.INTER.SOLV>
9.76785

>  <SCORE.INTER.VDW>
-18.8394

>  <SCORE.INTER.norm>
-0.49823

>  <SCORE.INTRA>
-0.704338

>  <SCORE.INTRA.DIHEDRAL>
-4.65683

>  <SCORE.INTRA.DIHEDRAL.0>
7.79482

>  <SCORE.INTRA.POLAR>
0

>  <SCORE.INTRA.POLAR.0>
0

>  <SCORE.INTRA.REPUL>
0

>  <SCORE.INTRA.REPUL.0>
0

>  <SCORE.INTRA.SOLV>
2.92473

>  <SCORE.INTRA.SOLV.lig_0>
-49.456

>  <SCORE.INTRA.VDW>
0.161712

>  <SCORE.INTRA.VDW.0>
-0.478406

>  <SCORE.INTRA.norm>
-0.0503099

>  <SCORE.RESTR>
0

>  <SCORE.RESTR.CAVITY>
0

>  <SCORE.RESTR.norm>
0

>  <SCORE.SYSTEM>
0

>  <SCORE.SYSTEM.CONST>
0

>  <SCORE.SYSTEM.DIHEDRAL>
0

>  <SCORE.SYSTEM.SOLV>
0

>  <SCORE.SYSTEM.norm>
0

>  <SCORE.heavy>
14

>  <SCORE.norm>
-0.548539

>  <RMSD>
2.658

$$$$
ligand
 OpenBabel11021811413D
libRbt.so/2013.1/901 2013/11/27
 14 13  0  0  0  0  0  0  0  0999 V2000
   45.5520   10.4579   18.6498 N   0  0  0  0  0  0  0  0  0  0  0  0
   45.8428    9.4903   17.5698 C   0  0  0  0  0  0  0  0  0  0  0  0
   47.1009    8.6555   17.8924 C   0  0  0  0  0  0  0  0  0  0  0  0
   46.9496    7.7083   19.0941 C   0  0  0  0  0  0  0  0  0  0  0  0
   45.8338    6.7464   18.8791 N   0  0  0  0  0  0  0  0  0  0  0  0
   45.6359    5.9105   20.0910 C   0  0  0  0  0  0  0  0  0  0  0  0
   46.3522    4.5180   20.0770 C   0  0  0  0  0  0  0  0  0  0  0  0
   45.9478    3.6078   18.8818 C   0  0  0  0  0  0  0  0  0  0  0  0
   44.5884    2.9547   19.0380 C   0  0  0  0  0  0  0  0  0  0  0  0
   44.2023    2.4285   17.7424 N   0  0  0  0  0  0  0  0  0  0  0  0
   44.3480    0.9866   17.8389 C   0  0  0  0  0  0  0  0  0  0  0  0
   45.7432    0.5378   17.4204 C   0  0  0  0  0  0  0  0  0  0  0  0
   45.8819    0.7967   15.9125 C   0  0  0  0  0  0  0  0  0  0  0  0
   45.0232   -0.0918   15.1150 N   0  0  0  0  0  0  0  0  0  0  0  0
  1  2  1  0  0  0  0
  2  3  1  0  0  0  0
  3  4  1  0  0  0  0
  4  5  1  0  0  0  0
  5  6  1  0  0  0  0
  6  7  1  0  0  0  0
  7  8  1  0  0  0  0
  8  9  1  0  0  0  0
  9 10  1  0  0  0  0
 10 11  1  0  0  0  0
 11 12  1  0  0  0  0
 12 13  1  0  0  0  0
 13 14  1  0  0  0  0
M  END
>  <CHROM.1>
66.54798545,58.70128830,-175.66007367,-95.67402457,-57.75045392,-76.57477482
165.83921981,106.58248929,-90.51862253,-67.87201330,-68.60156658,45.64319901
4.62183872,18.15752416,-0.49761377,-1.42045868,-1.86174179

>  <Name>
ligand

>  <RI>
0

>  <Rbt.Current_Directory>
/home/itssahil/PROJECTS/Mol_Feturizer/New_Systems/rnas/1TN2

>  <Rbt.Executable>
rbdock ($Id: //depot/dev/client3/rdock/2013.1/src/exe/rbdock.cxx#4 $)

>  <Rbt.Library>
libRbt.so (2013.1, Build901 2013/11/27)

>  <Rbt.Parameter_File>
/export/apps/rDock/src/rDock_2013.1_src/data/scripts/dock_solv.prm

>  <Rbt.Receptor>
prm/pocket_docking_2.prm

>  <SCORE>
-2.46593

>  <SCORE.INTER>
-3.19882

>  <SCORE.INTER.CONST>
1

>  <SCORE.INTER.POLAR>
0

>  <SCORE.INTER.ROT>
11

>  <SCORE.INTER.SOLV>
12.7985

>  <SCORE.INTER.VDW>
-17.3321

>  <SCORE.INTER.norm>
-0.228487

>  <SCORE.INTRA>
0.732895

>  <SCORE.INTRA.DIHEDRAL>
-2.83068

>  <SCORE.INTRA.DIHEDRAL.0>
7.79482

>  <SCORE.INTRA.POLAR>
0

>  <SCORE.INTRA.POLAR.0>
0

>  <SCORE.INTRA.REPUL>
0

>  <SCORE.INTRA.REPUL.0>
0

>  <SCORE.INTRA.SOLV>
3.92869

>  <SCORE.INTRA.SOLV.lig_0>
-49.456

>  <SCORE.INTRA.VDW>
0.183893

>  <SCORE.INTRA.VDW.0>
-0.478406

>  <SCORE.INTRA.norm>
0.0523497

>  <SCORE.RESTR>
0

>  <SCORE.RESTR.CAVITY>
0

>  <SCORE.RESTR.norm>
0

>  <SCORE.SYSTEM>
0

>  <SCORE.SYSTEM.CONST>
0

>  <SCORE.SYSTEM.DIHEDRAL>
0

>  <SCORE.SYSTEM.SOLV>
0

>  <SCORE.SYSTEM.norm>
0

>  <SCORE.heavy>
14

>  <SCORE.norm>
-0.176138

>  <RMSD>
2.665

$$$$
ligand
 OpenBabel11021811413D
libRbt.so/2013.1/901 2013/11/27
 14 13  0  0  0  0  0  0  0  0999 V2000
   46.4044   11.4917   18.4275 N   0  0  0  0  0  0  0  0  0  0  0  0
   46.5009   10.2231   17.6735 C   0  0  0  0  0  0  0  0  0  0  0  0
   47.0017    9.0745   18.5757 C   0  0  0  0  0  0  0  0  0  0  0  0
   46.0882    8.7543   19.7703 C   0  0  0  0  0  0  0  0  0  0  0  0
   46.5255    7.5088   20.4587 N   0  0  0  0  0  0  0  0  0  0  0  0
   45.8691    6.3257   19.8453 C   0  0  0  0  0  0  0  0  0  0  0  0
   45.4814    5.1772   20.8367 C   0  0  0  0  0  0  0  0  0  0  0  0
   44.6646    4.0245   20.1851 C   0  0  0  0  0  0  0  0  0  0  0  0
   45.4422    3.2222   19.1601 C   0  0  0  0  0  0  0  0  0  0  0  0
   44.5536    2.2040   18.6330 N   0  0  0  0  0  0  0  0  0  0  0  0
   45.4137    1.1780   18.0697 C   0  0  0  0  0  0  0  0  0  0  0  0
   44.7429    0.4689   16.8991 C   0  0  0  0  0  0  0  0  0  0  0  0
   45.6770   -0.6627   16.4441 C   0  0  0  0  0  0  0  0  0  0  0  0
   45.1751   -1.3488   15.2441 N   0  0  0  0  0  0  0  0  0  0  0  0
  1  2  1  0  0  0  0
  2  3  1  0  0  0  0
  3  4  1  0  0  0  0
  4  5  1  0  0  0  0
  5  6  1  0  0  0  0
  6  7  1  0  0  0  0
  7  8  1  0  0  0  0
  8  9  1  0  0  0  0
  9 10  1  0  0  0  0
 10 11  1  0  0  0  0
 11 12  1  0  0  0  0
 12 13  1  0  0  0  0
 13 14  1  0  0  0  0
M  END
>  <CHROM.1>
61.33587614,171.07619538,-88.92400713,-143.95714386,173.90144431,66.50692935
-179.32935058,-159.16637065,-149.97985574,-175.67701927,-175.41106569,45.68145642
4.83148515,18.58752009,-0.97529517,-1.33375895,-2.34109607

>  <Name>
ligand

>  <RI>
0

>  <Rbt.Current_Directory>
/home/itssahil/PROJECTS/Mol_Feturizer/New_Systems/rnas/1TN2

>  <Rbt.Executable>
rbdock ($Id: //depot/dev/client3/rdock/2013.1/src/exe/rbdock.cxx#4 $)

>  <Rbt.Library>
libRbt.so (2013.1, Build901 2013/11/27)

>  <Rbt.Parameter_File>
/export/apps/rDock/src/rDock_2013.1_src/data/scripts/dock_solv.prm

>  <Rbt.Receptor>
prm/blind_docking_80.prm

>  <SCORE>
-8.11738

>  <SCORE.INTER>
-5.91961

>  <SCORE.INTER.CONST>
1

>  <SCORE.INTER.POLAR>
0

>  <SCORE.INTER.ROT>
11

>  <SCORE.INTER.SOLV>
15.036

>  <SCORE.INTER.VDW>
-19.8917

>  <SCORE.INTER.norm>
-0.422829

>  <SCORE.INTRA>
-2.19777

>  <SCORE.INTRA.DIHEDRAL>
-4.74893

>  <SCORE.INTRA.DIHEDRAL.0>
7.79482

>  <SCORE.INTRA.POLAR>
0

>  <SCORE.INTRA.POLAR.0>
0

>  <SCORE.INTRA.REPUL>
0

>  <SCORE.INTRA.REPUL.0>
0

>  <SCORE.INTRA.SOLV>
0.778672

>  <SCORE.INTRA.SOLV.lig_0>
-49.456

>  <SCORE.INTRA.VDW>
-0.212641

>  <SCORE.INTRA.VDW.0>
-0.478406

>  <SCORE.INTRA.norm>
-0.156984

>  <SCORE.RESTR>
0

>  <SCORE.RESTR.CAVITY>
0

>  <SCORE.RESTR.norm>
0

>  <SCORE.SYSTEM>
0

>  <SCORE.SYSTEM.CONST>
0

>  <SCORE.SYSTEM.DIHEDRAL>
0

>  <SCORE.SYSTEM.SOLV>
0

>  <SCORE.SYSTEM.norm>
0

>  <SCORE.heavy>
14

>  <SCORE.norm>
-0.579813

>  <RMSD>
2.672

$$$$
ligand
 OpenBabel11021811413D
libRbt.so/2013.1/901 2013/11/27
 14 13  0  0  0  0  0  0  0  0999 V2000
   46.0511    0.4540   15.4155 N   0  0  0  0  0  0  0  0  0  0  0  0
   45.1771   -0.1390   16.4506 C   0  0  0  0  0  0  0  0  0  0  0  0
   44.7449    0.9188   17.4889 C   0  0  0  0  0  0  0  0  0  0  0  0
   45.8921    1.4835   18.3427 C   0  0  0  0  0  0  0  0  0  0  0  0
   45.3895    2.4976   19.3098 N   0  0  0  0  0  0  0  0  0  0  0  0
   45.7590    3.8641   18.8593 C   0  0  0  0  0  0  0  0  0  0  0  0
   46.2404    4.8406   19.9848 C   0  0  0  0  0  0  0  0  0  0  0  0
   45.1769    5.1127   21.0872 C   0  0  0  0  0  0  0  0  0  0  0  0
   43.9384    5.8284   20.5844 C   0  0  0  0  0  0  0  0  0  0  0  0
   44.3456    7.1443   20.1294 N   0  0  0  0  0  0  0  0  0  0  0  0
   43.1183    7.8986   19.9437 C   0  0  0  0  0  0  0  0  0  0  0  0
   43.3819    9.2311   19.2521 C   0  0  0  0  0  0  0  0  0  0  0  0
   42.0322    9.9471   19.0929 C   0  0  0  0  0  0  0  0  0  0  0  0
   42.1646   11.2326   18.3910 N   0  0  0  0  0  0  0  0  0  0  0  0
  1  2  1  0  0  0  0
  2  3  1  0  0  0  0
  3  4  1  0  0  0  0
  4  5  1  0  0  0  0
  5  6  1  0  0  0  0
  6  7  1  0  0  0  0
  7  8  1  0  0  0  0
  8  9  1  0  0  0  0
  9 10  1  0  0  0  0
 10 11  1  0  0  0  0
 11 12  1  0  0  0  0
 12 13  1  0  0  0  0
 13 14  1  0  0  0  0
M  END
>  <CHROM.1>
-65.62065054,179.74895754,-105.29057296,-138.98963418,-60.89163574,-64.37450350
-64.24237921,-167.47063586,-170.82615719,179.62864538,-178.04850816,44.52943728
5.02233713,18.88111761,0.92208030,1.05593054,-2.31299367

>  <Name>
ligand

>  <RI>
0

>  <Rbt.Current_Directory>
/home/itssahil/PROJECTS/Mol_Feturizer/New_Systems/rnas/1TN2

>  <Rbt.Executable>
rbdock ($Id: //depot/dev/client3/rdock/2013.1/src/exe/rbdock.cxx#4 $)

>  <Rbt.Library>
libRbt.so (2013.1, Build901 2013/11/27)

>  <Rbt.Parameter_File>
/export/apps/rDock/src/rDock_2013.1_src/data/scripts/dock_solv.prm

>  <Rbt.Receptor>
prm/pocket_docking_4.prm

>  <SCORE>
-12.9513

>  <SCORE.INTER>
-10.7567

>  <SCORE.INTER.CONST>
1

>  <SCORE.INTER.POLAR>
0

>  <SCORE.INTER.ROT>
11

>  <SCORE.INTER.SOLV>
16.3647

>  <SCORE.INTER.VDW>
-23.5593

>  <SCORE.INTER.norm>
-0.768335

>  <SCORE.INTRA>
-2.19459

>  <SCORE.INTRA.DIHEDRAL>
-5.36009

>  <SCORE.INTRA.DIHEDRAL.0>
7.79482

>  <SCORE.INTRA.POLAR>
0

>  <SCORE.INTRA.POLAR.0>
0

>  <SCORE.INTRA.REPUL>
0

>  <SCORE.INTRA.REPUL.0>
0

>  <SCORE.INTRA.SOLV>
1.83778

>  <SCORE.INTRA.SOLV.lig_0>
-49.456

>  <SCORE.INTRA.VDW>
-0.43344

>  <SCORE.INTRA.VDW.0>
-0.478406

>  <SCORE.INTRA.norm>
-0.156757

>  <SCORE.RESTR>
0

>  <SCORE.RESTR.CAVITY>
0

>  <SCORE.RESTR.norm>
0

>  <SCORE.SYSTEM>
0

>  <SCORE.SYSTEM.CONST>
0

>  <SCORE.SYSTEM.DIHEDRAL>
0

>  <SCORE.SYSTEM.SOLV>
0

>  <SCORE.SYSTEM.norm>
0

>  <SCORE.heavy>
14

>  <SCORE.norm>
-0.925092

>  <RMSD>
2.675

$$$$
ligand
 OpenBabel11021811413D
libRbt.so/2013.1/901 2013/11/27
 14 13  0  0  0  0  0  0  0  0999 V2000
   47.0739    8.6912   17.6810 N   0  0  0  0  0  0  0  0  0  0  0  0
   46.7005    9.4314   18.9057 C   0  0  0  0  0  0  0  0  0  0  0  0
   45.3518   10.1614   18.7271 C   0  0  0  0  0  0  0  0  0  0  0  0
   44.1209    9.2399   18.7241 C   0  0  0  0  0  0  0  0  0  0  0  0
   43.8746    8.6727   20.0783 N   0  0  0  0  0  0  0  0  0  0  0  0
   44.1636    7.2156   20.0850 C   0  0  0  0  0  0  0  0  0  0  0  0
   45.5743    6.8079   20.6289 C   0  0  0  0  0  0  0  0  0  0  0  0
   45.8337    5.2740   20.6348 C   0  0  0  0  0  0  0  0  0  0  0  0
   45.8204    4.6421   19.2565 C   0  0  0  0  0  0  0  0  0  0  0  0
   46.1268    3.2333   19.4161 N   0  0  0  0  0  0  0  0  0  0  0  0
   45.7293    2.5962   18.1727 C   0  0  0  0  0  0  0  0  0  0  0  0
   45.9218    1.0854   18.2338 C   0  0  0  0  0  0  0  0  0  0  0  0
   45.4152    0.4984   16.9076 C   0  0  0  0  0  0  0  0  0  0  0  0
   45.6537   -0.9497   16.8140 N   0  0  0  0  0  0  0  0  0  0  0  0
  1  2  1  0  0  0  0
  2  3  1  0  0  0  0
  3  4  1  0  0  0  0
  4  5  1  0  0  0  0
  5  6  1  0  0  0  0
  6  7  1  0  0  0  0
  7  8  1  0  0  0  0
  8  9  1  0  0  0  0
  9 10  1  0  0  0  0
 10 11  1  0  0  0  0
 11 12  1  0  0  0  0
 12 13  1  0  0  0  0
 13 14  1  0  0  0  0
M  END
>  <CHROM.1>
72.85549723,70.00596710,-110.59608727,97.92952066,179.36127327,62.83663254
177.76976237,163.82844410,-176.62349554,177.36914511,175.39550893,45.52568696
5.47164732,18.87626312,-1.68203381,-1.07795406,-3.05962773

>  <Name>
ligand

>  <RI>
0

>  <Rbt.Current_Directory>
/home/itssahil/PROJECTS/Mol_Feturizer/New_Systems/rnas/1TN2

>  <Rbt.Executable>
rbdock ($Id: //depot/dev/client3/rdock/2013.1/src/exe/rbdock.cxx#4 $)

>  <Rbt.Library>
libRbt.so (2013.1, Build901 2013/11/27)

>  <Rbt.Parameter_File>
/export/apps/rDock/src/rDock_2013.1_src/data/scripts/dock_solv.prm

>  <Rbt.Receptor>
prm/pocket_docking_4.prm

>  <SCORE>
-7.86673

>  <SCORE.INTER>
-6.20431

>  <SCORE.INTER.CONST>
1

>  <SCORE.INTER.POLAR>
0

>  <SCORE.INTER.ROT>
11

>  <SCORE.INTER.SOLV>
18.2374

>  <SCORE.INTER.VDW>
-21.1487

>  <SCORE.INTER.norm>
-0.443165

>  <SCORE.INTRA>
-1.66242

>  <SCORE.INTRA.DIHEDRAL>
-4.47998

>  <SCORE.INTRA.DIHEDRAL.0>
7.79482

>  <SCORE.INTRA.POLAR>
0

>  <SCORE.INTRA.POLAR.0>
0

>  <SCORE.INTRA.REPUL>
0

>  <SCORE.INTRA.REPUL.0>
0

>  <SCORE.INTRA.SOLV>
2.69475

>  <SCORE.INTRA.SOLV.lig_0>
-49.456

>  <SCORE.INTRA.VDW>
-0.769802

>  <SCORE.INTRA.VDW.0>
-0.478406

>  <SCORE.INTRA.norm>
-0.118744

>  <SCORE.RESTR>
0

>  <SCORE.RESTR.CAVITY>
0

>  <SCORE.RESTR.norm>
0

>  <SCORE.SYSTEM>
0

>  <SCORE.SYSTEM.CONST>
0

>  <SCORE.SYSTEM.DIHEDRAL>
0

>  <SCORE.SYSTEM.SOLV>
0

>  <SCORE.SYSTEM.norm>
0

>  <SCORE.heavy>
14

>  <SCORE.norm>
-0.561909

>  <RMSD>
2.677

$$$$
ligand
 OpenBabel11021811413D
libRbt.so/2013.1/901 2013/11/27
 14 13  0  0  0  0  0  0  0  0999 V2000
   45.3715   -1.1088   14.8551 N   0  0  0  0  0  0  0  0  0  0  0  0
   44.5705   -0.0853   15.5608 C   0  0  0  0  0  0  0  0  0  0  0  0
   45.2280    0.3123   16.9000 C   0  0  0  0  0  0  0  0  0  0  0  0
   44.4671    1.3883   17.6919 C   0  0  0  0  0  0  0  0  0  0  0  0
   45.2404    1.8174   18.8895 N   0  0  0  0  0  0  0  0  0  0  0  0
   46.2006    2.8901   18.5233 C   0  0  0  0  0  0  0  0  0  0  0  0
   46.3906    4.0213   19.5894 C   0  0  0  0  0  0  0  0  0  0  0  0
   45.1231    4.8925   19.8236 C   0  0  0  0  0  0  0  0  0  0  0  0
   45.3236    6.0143   20.8238 C   0  0  0  0  0  0  0  0  0  0  0  0
   46.3629    6.8839   20.3063 N   0  0  0  0  0  0  0  0  0  0  0  0
   45.7023    8.1294   19.9568 C   0  0  0  0  0  0  0  0  0  0  0  0
   46.5985    9.0142   19.0982 C   0  0  0  0  0  0  0  0  0  0  0  0
   45.7926   10.2671   18.7231 C   0  0  0  0  0  0  0  0  0  0  0  0
   46.5740   11.2056   17.9039 N   0  0  0  0  0  0  0  0  0  0  0  0
  1  2  1  0  0  0  0
  2  3  1  0  0  0  0
  3  4  1  0  0  0  0
  4  5  1  0  0  0  0
  5  6  1  0  0  0  0
  6  7  1  0  0  0  0
  7  8  1  0  0  0  0
  8  9  1  0  0  0  0
  9 10  1  0  0  0  0
 10 11  1  0  0  0  0
 11 12  1  0  0  0  0
 12 13  1  0  0  0  0
 13 14  1  0  0  0  0
M  END
>  <CHROM.1>
179.25186117,-173.83327674,85.70642871,142.29788251,-65.93395399,-178.15217580
60.82050968,111.27315200,-166.40956867,177.20083555,179.20687762,45.63887539
4.68873389,18.47489251,-2.81352287,1.45150153,1.52906370

>  <Name>
ligand

>  <RI>
0

>  <Rbt.Current_Directory>
/home/itssahil/PROJECTS/Mol_Feturizer/New_Systems/rnas/1TN2

>  <Rbt.Executable>
rbdock ($Id: //depot/dev/client3/rdock/2013.1/src/exe/rbdock.cxx#4 $)

>  <Rbt.Library>
libRbt.so (2013.1, Build901 2013/11/27)

>  <Rbt.Parameter_File>
/export/apps/rDock/src/rDock_2013.1_src/data/scripts/dock_solv.prm

>  <Rbt.Receptor>
prm/pocket_docking_3.prm

>  <SCORE>
-8.32354

>  <SCORE.INTER>
-5.90601

>  <SCORE.INTER.CONST>
1

>  <SCORE.INTER.POLAR>
0

>  <SCORE.INTER.ROT>
11

>  <SCORE.INTER.SOLV>
12.9152

>  <SCORE.INTER.VDW>
-19.1757

>  <SCORE.INTER.norm>
-0.421858

>  <SCORE.INTRA>
-2.43778

>  <SCORE.INTRA.DIHEDRAL>
-4.88333

>  <SCORE.INTRA.DIHEDRAL.0>
7.79482

>  <SCORE.INTRA.POLAR>
0

>  <SCORE.INTRA.POLAR.0>
0

>  <SCORE.INTRA.REPUL>
0

>  <SCORE.INTRA.REPUL.0>
0

>  <SCORE.INTRA.SOLV>
0.684556

>  <SCORE.INTRA.SOLV.lig_0>
-49.456

>  <SCORE.INTRA.VDW>
-0.338397

>  <SCORE.INTRA.VDW.0>
-0.478406

>  <SCORE.INTRA.norm>
-0.174127

>  <SCORE.RESTR>
0.0202538

>  <SCORE.RESTR.CAVITY>
0.0202538

>  <SCORE.RESTR.norm>
0.0014467

>  <SCORE.SYSTEM>
0

>  <SCORE.SYSTEM.CONST>
0

>  <SCORE.SYSTEM.DIHEDRAL>
0

>  <SCORE.SYSTEM.SOLV>
0

>  <SCORE.SYSTEM.norm>
0

>  <SCORE.heavy>
14

>  <SCORE.norm>
-0.594538

>  <RMSD>
2.678

$$$$
ligand
 OpenBabel11021811413D
libRbt.so/2013.1/901 2013/11/27
 14 13  0  0  0  0  0  0  0  0999 V2000
   45.2545   -1.7812   14.4925 N   0  0  0  0  0  0  0  0  0  0  0  0
   45.8675   -1.3561   15.7695 C   0  0  0  0  0  0  0  0  0  0  0  0
   45.1416   -0.1253   16.3544 C   0  0  0  0  0  0  0  0  0  0  0  0
   45.8074    0.4769   17.6027 C   0  0  0  0  0  0  0  0  0  0  0  0
   45.0030    1.6060   18.1452 N   0  0  0  0  0  0  0  0  0  0  0  0
   45.8984    2.6611   18.6855 C   0  0  0  0  0  0  0  0  0  0  0  0
   45.1877    3.8160   19.4687 C   0  0  0  0  0  0  0  0  0  0  0  0
   46.1270    4.9956   19.8515 C   0  0  0  0  0  0  0  0  0  0  0  0
   45.4316    6.1204   20.5932 C   0  0  0  0  0  0  0  0  0  0  0  0
   46.3376    7.2529   20.6233 N   0  0  0  0  0  0  0  0  0  0  0  0
   45.9227    8.1235   19.5372 C   0  0  0  0  0  0  0  0  0  0  0  0
   46.5656    9.5009   19.6498 C   0  0  0  0  0  0  0  0  0  0  0  0
   46.1498   10.3105   18.4122 C   0  0  0  0  0  0  0  0  0  0  0  0
   44.7084   10.6014   18.3972 N   0  0  0  0  0  0  0  0  0  0  0  0
  1  2  1  0  0  0  0
  2  3  1  0  0  0  0
  3  4  1  0  0  0  0
  4  5  1  0  0  0  0
  5  6  1  0  0  0  0
  6  7  1  0  0  0  0
  7  8  1  0  0  0  0
  8  9  1  0  0  0  0
  9 10  1  0  0  0  0
 10 11  1  0  0  0  0
 11 12  1  0  0  0  0
 12 13  1  0  0  0  0
 13 14  1  0  0  0  0
M  END
>  <CHROM.1>
-173.66965032,-176.72268653,-144.20034535,-171.75614556,-172.14747756,179.22000245
-167.76501750,97.95631264,166.47652737,176.01073150,66.65511338,45.67176366
4.44305133,18.39898358,1.91167214,1.45439394,3.11803446

>  <Name>
ligand

>  <RI>
0

>  <Rbt.Current_Directory>
/home/itssahil/PROJECTS/Mol_Feturizer/New_Systems/rnas/1TN2

>  <Rbt.Executable>
rbdock ($Id: //depot/dev/client3/rdock/2013.1/src/exe/rbdock.cxx#4 $)

>  <Rbt.Library>
libRbt.so (2013.1, Build901 2013/11/27)

>  <Rbt.Parameter_File>
/export/apps/rDock/src/rDock_2013.1_src/data/scripts/dock_solv.prm

>  <Rbt.Receptor>
prm/pocket_docking_7.prm

>  <SCORE>
-9.0753

>  <SCORE.INTER>
-6.75918

>  <SCORE.INTER.CONST>
1

>  <SCORE.INTER.POLAR>
0

>  <SCORE.INTER.ROT>
11

>  <SCORE.INTER.SOLV>
14.6277

>  <SCORE.INTER.VDW>
-20.3154

>  <SCORE.INTER.norm>
-0.482799

>  <SCORE.INTRA>
-2.31612

>  <SCORE.INTRA.DIHEDRAL>
-4.7769

>  <SCORE.INTRA.DIHEDRAL.0>
7.79482

>  <SCORE.INTRA.POLAR>
0

>  <SCORE.INTRA.POLAR.0>
0

>  <SCORE.INTRA.REPUL>
0

>  <SCORE.INTRA.REPUL.0>
0

>  <SCORE.INTRA.SOLV>
0.715957

>  <SCORE.INTRA.SOLV.lig_0>
-49.456

>  <SCORE.INTRA.VDW>
-0.285646

>  <SCORE.INTRA.VDW.0>
-0.478406

>  <SCORE.INTRA.norm>
-0.165437

>  <SCORE.RESTR>
0

>  <SCORE.RESTR.CAVITY>
0

>  <SCORE.RESTR.norm>
0

>  <SCORE.SYSTEM>
0

>  <SCORE.SYSTEM.CONST>
0

>  <SCORE.SYSTEM.DIHEDRAL>
0

>  <SCORE.SYSTEM.SOLV>
0

>  <SCORE.SYSTEM.norm>
0

>  <SCORE.heavy>
14

>  <SCORE.norm>
-0.648236

>  <RMSD>
2.686

$$$$
ligand
 OpenBabel11021811413D
libRbt.so/2013.1/901 2013/11/27
 14 13  0  0  0  0  0  0  0  0999 V2000
   41.5937   11.5293   18.2816 N   0  0  0  0  0  0  0  0  0  0  0  0
   41.4447   10.3138   19.1108 C   0  0  0  0  0  0  0  0  0  0  0  0
   42.7351    9.4663   19.0956 C   0  0  0  0  0  0  0  0  0  0  0  0
   42.7114    8.2478   20.0330 C   0  0  0  0  0  0  0  0  0  0  0  0
   43.9706    7.4616   19.9195 N   0  0  0  0  0  0  0  0  0  0  0  0
   44.1205    6.5604   21.0908 C   0  0  0  0  0  0  0  0  0  0  0  0
   44.6387    5.1173   20.7724 C   0  0  0  0  0  0  0  0  0  0  0  0
   45.8759    5.0803   19.8300 C   0  0  0  0  0  0  0  0  0  0  0  0
   46.3042    3.6816   19.4311 C   0  0  0  0  0  0  0  0  0  0  0  0
   45.1958    3.0671   18.7254 N   0  0  0  0  0  0  0  0  0  0  0  0
   45.7163    1.8324   18.1649 C   0  0  0  0  0  0  0  0  0  0  0  0
   44.5943    0.9325   17.6602 C   0  0  0  0  0  0  0  0  0  0  0  0
   45.2409   -0.2293   16.8907 C   0  0  0  0  0  0  0  0  0  0  0  0
   45.8574    0.2136   15.6312 N   0  0  0  0  0  0  0  0  0  0  0  0
  1  2  1  0  0  0  0
  2  3  1  0  0  0  0
  3  4  1  0  0  0  0
  4  5  1  0  0  0  0
  5  6  1  0  0  0  0
  6  7  1  0  0  0  0
  7  8  1  0  0  0  0
  8  9  1  0  0  0  0
  9 10  1  0  0  0  0
 10 11  1  0  0  0  0
 11 12  1  0  0  0  0
 12 13  1  0  0  0  0
 13 14  1  0  0  0  0
M  END
>  <CHROM.1>
174.78310516,177.93875570,162.63494446,138.38073864,47.19892062,-175.17876044
60.72643018,170.49613641,167.36911199,171.08329256,-68.94605993,44.28573567
5.23377960,18.90298123,2.19911762,-0.96469230,0.75690184

>  <Name>
ligand

>  <RI>
0

>  <Rbt.Current_Directory>
/home/itssahil/PROJECTS/Mol_Feturizer/New_Systems/rnas/1TN2

>  <Rbt.Executable>
rbdock ($Id: //depot/dev/client3/rdock/2013.1/src/exe/rbdock.cxx#4 $)

>  <Rbt.Library>
libRbt.so (2013.1, Build901 2013/11/27)

>  <Rbt.Parameter_File>
/export/apps/rDock/src/rDock_2013.1_src/data/scripts/dock_solv.prm

>  <Rbt.Receptor>
prm/pocket_docking_7.prm

>  <SCORE>
-12.4477

>  <SCORE.INTER>
-10.2256

>  <SCORE.INTER.CONST>
1

>  <SCORE.INTER.POLAR>
0

>  <SCORE.INTER.ROT>
11

>  <SCORE.INTER.SOLV>
18.2169

>  <SCORE.INTER.VDW>
-23.8227

>  <SCORE.INTER.norm>
-0.7304

>  <SCORE.INTRA>
-2.22207

>  <SCORE.INTRA.DIHEDRAL>
-5.01409

>  <SCORE.INTRA.DIHEDRAL.0>
7.79482

>  <SCORE.INTRA.POLAR>
0

>  <SCORE.INTRA.POLAR.0>
0

>  <SCORE.INTRA.REPUL>
0

>  <SCORE.INTRA.REPUL.0>
0

>  <SCORE.INTRA.SOLV>
1.62561

>  <SCORE.INTRA.SOLV.lig_0>
-49.456

>  <SCORE.INTRA.VDW>
-0.527829

>  <SCORE.INTRA.VDW.0>
-0.478406

>  <SCORE.INTRA.norm>
-0.158719

>  <SCORE.RESTR>
0

>  <SCORE.RESTR.CAVITY>
0

>  <SCORE.RESTR.norm>
0

>  <SCORE.SYSTEM>
0

>  <SCORE.SYSTEM.CONST>
0

>  <SCORE.SYSTEM.DIHEDRAL>
0

>  <SCORE.SYSTEM.SOLV>
0

>  <SCORE.SYSTEM.norm>
0

>  <SCORE.heavy>
14

>  <SCORE.norm>
-0.889119

>  <RMSD>
2.686

$$$$
ligand
 OpenBabel11021811413D
libRbt.so/2013.1/901 2013/11/27
 14 13  0  0  0  0  0  0  0  0999 V2000
   45.2994    1.2964   15.8406 N   0  0  0  0  0  0  0  0  0  0  0  0
   46.4980    2.1622   15.8112 C   0  0  0  0  0  0  0  0  0  0  0  0
   46.3198    3.3931   16.7261 C   0  0  0  0  0  0  0  0  0  0  0  0
   46.1151    3.0607   18.2133 C   0  0  0  0  0  0  0  0  0  0  0  0
   46.0110    4.3018   19.0289 N   0  0  0  0  0  0  0  0  0  0  0  0
   44.9659    4.1440   20.0727 C   0  0  0  0  0  0  0  0  0  0  0  0
   45.0425    5.1558   21.2654 C   0  0  0  0  0  0  0  0  0  0  0  0
   44.7954    6.6369   20.8586 C   0  0  0  0  0  0  0  0  0  0  0  0
   45.9038    7.2368   20.0157 C   0  0  0  0  0  0  0  0  0  0  0  0
   45.5434    8.6128   19.7306 N   0  0  0  0  0  0  0  0  0  0  0  0
   46.4049    9.0319   18.6390 C   0  0  0  0  0  0  0  0  0  0  0  0
   46.0676   10.4434   18.1727 C   0  0  0  0  0  0  0  0  0  0  0  0
   46.9461   10.7515   16.9507 C   0  0  0  0  0  0  0  0  0  0  0  0
   46.6827   12.0895   16.4004 N   0  0  0  0  0  0  0  0  0  0  0  0
  1  2  1  0  0  0  0
  2  3  1  0  0  0  0
  3  4  1  0  0  0  0
  4  5  1  0  0  0  0
  5  6  1  0  0  0  0
  6  7  1  0  0  0  0
  7  8  1  0  0  0  0
  8  9  1  0  0  0  0
  9 10  1  0  0  0  0
 10 11  1  0  0  0  0
 11 12  1  0  0  0  0
 12 13  1  0  0  0  0
 13 14  1  0  0  0  0
M  END
>  <CHROM.1>
61.53312658,177.55746133,140.13206724,161.63652237,64.87193535,-69.09060003
-179.33104912,-164.36548143,176.25726527,-175.44024614,178.93727143,45.89969256
6.30822812,18.40926199,-1.82987867,1.28984317,0.31298317

>  <Name>
ligand

>  <RI>
0

>  <Rbt.Current_Directory>
/home/itssahil/PROJECTS/Mol_Feturizer/New_Systems/rnas/1TN2

>  <Rbt.Executable>
rbdock ($Id: //depot/dev/client3/rdock/2013.1/src/exe/rbdock.cxx#4 $)

>  <Rbt.Library>
libRbt.so (2013.1, Build901 2013/11/27)

>  <Rbt.Parameter_File>
/export/apps/rDock/src/rDock_2013.1_src/data/scripts/dock_solv.prm

>  <Rbt.Receptor>
prm/pocket_docking_4.prm

>  <SCORE>
-6.50071

>  <SCORE.INTER>
-3.66393

>  <SCORE.INTER.CONST>
1

>  <SCORE.INTER.POLAR>
0

>  <SCORE.INTER.ROT>
11

>  <SCORE.INTER.SOLV>
8.55683

>  <SCORE.INTER.VDW>
-16.2282

>  <SCORE.INTER.norm>
-0.26171

>  <SCORE.INTRA>
-2.83678

>  <SCORE.INTRA.DIHEDRAL>
-5.8951

>  <SCORE.INTRA.DIHEDRAL.0>
7.79482

>  <SCORE.INTRA.POLAR>
0

>  <SCORE.INTRA.POLAR.0>
0

>  <SCORE.INTRA.REPUL>
0

>  <SCORE.INTRA.REPUL.0>
0

>  <SCORE.INTRA.SOLV>
1.59445

>  <SCORE.INTRA.SOLV.lig_0>
-49.456

>  <SCORE.INTRA.VDW>
-0.686453

>  <SCORE.INTRA.VDW.0>
-0.478406

>  <SCORE.INTRA.norm>
-0.202627

>  <SCORE.RESTR>
0

>  <SCORE.RESTR.CAVITY>
0

>  <SCORE.RESTR.norm>
0

>  <SCORE.SYSTEM>
0

>  <SCORE.SYSTEM.CONST>
0

>  <SCORE.SYSTEM.DIHEDRAL>
0

>  <SCORE.SYSTEM.SOLV>
0

>  <SCORE.SYSTEM.norm>
0

>  <SCORE.heavy>
14

>  <SCORE.norm>
-0.464337

>  <RMSD>
2.691

$$$$
ligand
 OpenBabel11021811413D
libRbt.so/2013.1/901 2013/11/27
 14 13  0  0  0  0  0  0  0  0999 V2000
   45.2461    1.5632   16.4360 N   0  0  0  0  0  0  0  0  0  0  0  0
   45.6676    1.0106   17.7413 C   0  0  0  0  0  0  0  0  0  0  0  0
   46.5135    2.0315   18.5326 C   0  0  0  0  0  0  0  0  0  0  0  0
   45.7306    3.2524   19.0430 C   0  0  0  0  0  0  0  0  0  0  0  0
   46.6036    4.1475   19.8510 N   0  0  0  0  0  0  0  0  0  0  0  0
   45.8019    4.8485   20.8866 C   0  0  0  0  0  0  0  0  0  0  0  0
   45.1353    6.1908   20.4327 C   0  0  0  0  0  0  0  0  0  0  0  0
   46.1488    7.2874   19.9961 C   0  0  0  0  0  0  0  0  0  0  0  0
   45.4988    8.5694   19.5135 C   0  0  0  0  0  0  0  0  0  0  0  0
   46.5586    9.4780   19.1192 N   0  0  0  0  0  0  0  0  0  0  0  0
   45.8961   10.6435   18.5602 C   0  0  0  0  0  0  0  0  0  0  0  0
   46.2614   10.8428   17.0939 C   0  0  0  0  0  0  0  0  0  0  0  0
   47.7531   11.2047   17.0315 C   0  0  0  0  0  0  0  0  0  0  0  0
   48.1986   11.4899   15.6594 N   0  0  0  0  0  0  0  0  0  0  0  0
  1  2  1  0  0  0  0
  2  3  1  0  0  0  0
  3  4  1  0  0  0  0
  4  5  1  0  0  0  0
  5  6  1  0  0  0  0
  6  7  1  0  0  0  0
  7  8  1  0  0  0  0
  8  9  1  0  0  0  0
  9 10  1  0  0  0  0
 10 11  1  0  0  0  0
 11 12  1  0  0  0  0
 12 13  1  0  0  0  0
 13 14  1  0  0  0  0
M  END
>  <CHROM.1>
69.33235574,177.11560134,-149.79250057,-87.22732949,-61.64272347,178.07016588
-178.86864249,175.31475911,-117.85555649,-66.83613117,-176.98576810,46.21510379
6.61143003,18.56439221,-2.06674453,1.29156438,0.36721733

>  <Name>
ligand

>  <RI>
0

>  <Rbt.Current_Directory>
/home/itssahil/PROJECTS/Mol_Feturizer/New_Systems/rnas/1TN2

>  <Rbt.Executable>
rbdock ($Id: //depot/dev/client3/rdock/2013.1/src/exe/rbdock.cxx#4 $)

>  <Rbt.Library>
libRbt.so (2013.1, Build901 2013/11/27)

>  <Rbt.Parameter_File>
/export/apps/rDock/src/rDock_2013.1_src/data/scripts/dock_solv.prm

>  <Rbt.Receptor>
prm/pocket_docking_4.prm

>  <SCORE>
-8.48555

>  <SCORE.INTER>
-6.20246

>  <SCORE.INTER.CONST>
1

>  <SCORE.INTER.POLAR>
0

>  <SCORE.INTER.ROT>
11

>  <SCORE.INTER.SOLV>
10.5541

>  <SCORE.INTER.VDW>
-18.5863

>  <SCORE.INTER.norm>
-0.443033

>  <SCORE.INTRA>
-2.2831

>  <SCORE.INTRA.DIHEDRAL>
-4.86662

>  <SCORE.INTRA.DIHEDRAL.0>
7.79482

>  <SCORE.INTRA.POLAR>
0

>  <SCORE.INTRA.POLAR.0>
0

>  <SCORE.INTRA.REPUL>
0

>  <SCORE.INTRA.REPUL.0>
0

>  <SCORE.INTRA.SOLV>
1.32007

>  <SCORE.INTRA.SOLV.lig_0>
-49.456

>  <SCORE.INTRA.VDW>
-0.50982

>  <SCORE.INTRA.VDW.0>
-0.478406

>  <SCORE.INTRA.norm>
-0.163078

>  <SCORE.RESTR>
0

>  <SCORE.RESTR.CAVITY>
0

>  <SCORE.RESTR.norm>
0

>  <SCORE.SYSTEM>
0

>  <SCORE.SYSTEM.CONST>
0

>  <SCORE.SYSTEM.DIHEDRAL>
0

>  <SCORE.SYSTEM.SOLV>
0

>  <SCORE.SYSTEM.norm>
0

>  <SCORE.heavy>
14

>  <SCORE.norm>
-0.606111

>  <RMSD>
2.694

$$$$
ligand
 OpenBabel11021811413D
libRbt.so/2013.1/901 2013/11/27
 14 13  0  0  0  0  0  0  0  0999 V2000
   45.9179   10.6570   17.1956 N   0  0  0  0  0  0  0  0  0  0  0  0
   45.5109    9.6117   18.1594 C   0  0  0  0  0  0  0  0  0  0  0  0
   46.5477    9.4647   19.2941 C   0  0  0  0  0  0  0  0  0  0  0  0
   46.2286    8.3583   20.3130 C   0  0  0  0  0  0  0  0  0  0  0  0
   46.2042    7.0209   19.6595 N   0  0  0  0  0  0  0  0  0  0  0  0
   45.7110    5.9931   20.6119 C   0  0  0  0  0  0  0  0  0  0  0  0
   46.1841    4.5271   20.3303 C   0  0  0  0  0  0  0  0  0  0  0  0
   45.7065    3.9570   18.9638 C   0  0  0  0  0  0  0  0  0  0  0  0
   46.1389    2.5263   18.7088 C   0  0  0  0  0  0  0  0  0  0  0  0
   45.5143    2.0922   17.4736 N   0  0  0  0  0  0  0  0  0  0  0  0
   45.6965    0.6521   17.4202 C   0  0  0  0  0  0  0  0  0  0  0  0
   45.4023    0.1040   16.0287 C   0  0  0  0  0  0  0  0  0  0  0  0
   45.6827   -1.4062   16.0553 C   0  0  0  0  0  0  0  0  0  0  0  0
   45.4711   -2.0337   14.7422 N   0  0  0  0  0  0  0  0  0  0  0  0
  1  2  1  0  0  0  0
  2  3  1  0  0  0  0
  3  4  1  0  0  0  0
  4  5  1  0  0  0  0
  5  6  1  0  0  0  0
  6  7  1  0  0  0  0
  7  8  1  0  0  0  0
  8  9  1  0  0  0  0
  9 10  1  0  0  0  0
 10 11  1  0  0  0  0
 11 12  1  0  0  0  0
 12 13  1  0  0  0  0
 13 14  1  0  0  0  0
M  END
>  <CHROM.1>
-177.72612306,62.07337665,-172.12399431,-154.78846790,-62.18707347,-178.63555499
174.39398996,-167.39872372,-165.83902588,177.47288356,-178.15674712,45.85122762
4.39459258,18.21157083,1.11154294,-1.46518653,-0.16650260

>  <Name>
ligand

>  <RI>
0

>  <Rbt.Current_Directory>
/home/itssahil/PROJECTS/Mol_Feturizer/New_Systems/rnas/1TN2

>  <Rbt.Executable>
rbdock ($Id: //depot/dev/client3/rdock/2013.1/src/exe/rbdock.cxx#4 $)

>  <Rbt.Library>
libRbt.so (2013.1, Build901 2013/11/27)

>  <Rbt.Parameter_File>
/export/apps/rDock/src/rDock_2013.1_src/data/scripts/dock_solv.prm

>  <Rbt.Receptor>
prm/pocket_docking_5.prm

>  <SCORE>
-11.9758

>  <SCORE.INTER>
-8.04741

>  <SCORE.INTER.CONST>
1

>  <SCORE.INTER.POLAR>
0

>  <SCORE.INTER.ROT>
11

>  <SCORE.INTER.SOLV>
12.0237

>  <SCORE.INTER.VDW>
-20.3062

>  <SCORE.INTER.norm>
-0.574815

>  <SCORE.INTRA>
-3.92837

>  <SCORE.INTRA.DIHEDRAL>
-6.79325

>  <SCORE.INTRA.DIHEDRAL.0>
7.79482

>  <SCORE.INTRA.POLAR>
0

>  <SCORE.INTRA.POLAR.0>
0

>  <SCORE.INTRA.REPUL>
0

>  <SCORE.INTRA.REPUL.0>
0

>  <SCORE.INTRA.SOLV>
0.59641

>  <SCORE.INTRA.SOLV.lig_0>
-49.456

>  <SCORE.INTRA.VDW>
-0.829956

>  <SCORE.INTRA.VDW.0>
-0.478406

>  <SCORE.INTRA.norm>
-0.280598

>  <SCORE.RESTR>
0

>  <SCORE.RESTR.CAVITY>
0

>  <SCORE.RESTR.norm>
0

>  <SCORE.SYSTEM>
0

>  <SCORE.SYSTEM.CONST>
0

>  <SCORE.SYSTEM.DIHEDRAL>
0

>  <SCORE.SYSTEM.SOLV>
0

>  <SCORE.SYSTEM.norm>
0

>  <SCORE.heavy>
14

>  <SCORE.norm>
-0.855413

>  <RMSD>
2.703

$$$$
ligand
 OpenBabel11021811413D
libRbt.so/2013.1/901 2013/11/27
 14 13  0  0  0  0  0  0  0  0999 V2000
   45.1964   -0.7691   14.4429 N   0  0  0  0  0  0  0  0  0  0  0  0
   45.8564   -1.3528   15.6306 C   0  0  0  0  0  0  0  0  0  0  0  0
   45.4286   -0.6225   16.9220 C   0  0  0  0  0  0  0  0  0  0  0  0
   45.7699    0.8763   16.9525 C   0  0  0  0  0  0  0  0  0  0  0  0
   45.3141    1.5024   18.2240 N   0  0  0  0  0  0  0  0  0  0  0  0
   46.0777    2.7497   18.4847 C   0  0  0  0  0  0  0  0  0  0  0  0
   45.3857    3.7796   19.4400 C   0  0  0  0  0  0  0  0  0  0  0  0
   46.1840    5.1006   19.6352 C   0  0  0  0  0  0  0  0  0  0  0  0
   45.4971    6.1074   20.5371 C   0  0  0  0  0  0  0  0  0  0  0  0
   46.3278    7.2958   20.5818 N   0  0  0  0  0  0  0  0  0  0  0  0
   45.7319    8.2335   19.6463 C   0  0  0  0  0  0  0  0  0  0  0  0
   46.4536    9.5758   19.6661 C   0  0  0  0  0  0  0  0  0  0  0  0
   45.7477   10.4980   18.6605 C   0  0  0  0  0  0  0  0  0  0  0  0
   45.8908   10.0231   17.2760 N   0  0  0  0  0  0  0  0  0  0  0  0
  1  2  1  0  0  0  0
  2  3  1  0  0  0  0
  3  4  1  0  0  0  0
  4  5  1  0  0  0  0
  5  6  1  0  0  0  0
  6  7  1  0  0  0  0
  7  8  1  0  0  0  0
  8  9  1  0  0  0  0
  9 10  1  0  0  0  0
 10 11  1  0  0  0  0
 11 12  1  0  0  0  0
 12 13  1  0  0  0  0
 13 14  1  0  0  0  0
M  END
>  <CHROM.1>
-60.29360764,179.53892559,157.99634445,157.81063172,-177.24913089,178.75791123
-177.84812740,99.32153887,175.92639422,-179.49982903,-65.58304071,45.77587029
4.49985041,18.29311463,2.54130426,1.51601237,2.48001331

>  <Name>
ligand

>  <RI>
0

>  <Rbt.Current_Directory>
/home/itssahil/PROJECTS/Mol_Feturizer/New_Systems/rnas/1TN2

>  <Rbt.Executable>
rbdock ($Id: //depot/dev/client3/rdock/2013.1/src/exe/rbdock.cxx#4 $)

>  <Rbt.Library>
libRbt.so (2013.1, Build901 2013/11/27)

>  <Rbt.Parameter_File>
/export/apps/rDock/src/rDock_2013.1_src/data/scripts/dock_solv.prm

>  <Rbt.Receptor>
prm/pocket_docking_3.prm

>  <SCORE>
-9.50251

>  <SCORE.INTER>
-6.99578

>  <SCORE.INTER.CONST>
1

>  <SCORE.INTER.POLAR>
0

>  <SCORE.INTER.ROT>
11

>  <SCORE.INTER.SOLV>
12.3843

>  <SCORE.INTER.VDW>
-19.7253

>  <SCORE.INTER.norm>
-0.499699

>  <SCORE.INTRA>
-2.50673

>  <SCORE.INTRA.DIHEDRAL>
-6.01068

>  <SCORE.INTRA.DIHEDRAL.0>
7.79482

>  <SCORE.INTRA.POLAR>
0

>  <SCORE.INTRA.POLAR.0>
0

>  <SCORE.INTRA.REPUL>
0

>  <SCORE.INTRA.REPUL.0>
0

>  <SCORE.INTRA.SOLV>
1.46415

>  <SCORE.INTRA.SOLV.lig_0>
-49.456

>  <SCORE.INTRA.VDW>
-0.233461

>  <SCORE.INTRA.VDW.0>
-0.478406

>  <SCORE.INTRA.norm>
-0.179052

>  <SCORE.RESTR>
0

>  <SCORE.RESTR.CAVITY>
0

>  <SCORE.RESTR.norm>
0

>  <SCORE.SYSTEM>
0

>  <SCORE.SYSTEM.CONST>
0

>  <SCORE.SYSTEM.DIHEDRAL>
0

>  <SCORE.SYSTEM.SOLV>
0

>  <SCORE.SYSTEM.norm>
0

>  <SCORE.heavy>
14

>  <SCORE.norm>
-0.678751

>  <RMSD>
2.704

$$$$
ligand
 OpenBabel11021811413D
libRbt.so/2013.1/901 2013/11/27
 14 13  0  0  0  0  0  0  0  0999 V2000
   46.6601   11.3637   17.3078 N   0  0  0  0  0  0  0  0  0  0  0  0
   45.7579   10.8083   18.3396 C   0  0  0  0  0  0  0  0  0  0  0  0
   46.1363    9.3521   18.6866 C   0  0  0  0  0  0  0  0  0  0  0  0
   45.2192    8.6822   19.7230 C   0  0  0  0  0  0  0  0  0  0  0  0
   45.6494    7.2826   19.9918 N   0  0  0  0  0  0  0  0  0  0  0  0
   44.6927    6.6197   20.9149 C   0  0  0  0  0  0  0  0  0  0  0  0
   45.0083    5.1246   21.2573 C   0  0  0  0  0  0  0  0  0  0  0  0
   44.9073    4.1596   20.0412 C   0  0  0  0  0  0  0  0  0  0  0  0
   46.0135    4.3388   19.0198 C   0  0  0  0  0  0  0  0  0  0  0  0
   45.7392    3.4419   17.9132 N   0  0  0  0  0  0  0  0  0  0  0  0
   46.7061    2.3638   18.0255 C   0  0  0  0  0  0  0  0  0  0  0  0
   46.0439    1.0649   18.4700 C   0  0  0  0  0  0  0  0  0  0  0  0
   45.3716    0.4406   17.2379 C   0  0  0  0  0  0  0  0  0  0  0  0
   44.3198    1.3047   16.6814 N   0  0  0  0  0  0  0  0  0  0  0  0
  1  2  1  0  0  0  0
  2  3  1  0  0  0  0
  3  4  1  0  0  0  0
  4  5  1  0  0  0  0
  5  6  1  0  0  0  0
  6  7  1  0  0  0  0
  7  8  1  0  0  0  0
  8  9  1  0  0  0  0
  9 10  1  0  0  0  0
 10 11  1  0  0  0  0
 11 12  1  0  0  0  0
 12 13  1  0  0  0  0
 13 14  1  0  0  0  0
M  END
>  <CHROM.1>
-178.20831939,179.65624037,-175.69862111,178.61813655,-65.32954338,70.47598108
-176.29880308,-106.66631920,108.65463329,79.44961103,-61.97583057,45.58751975
5.45323016,18.82962278,-1.38959817,-1.30442755,-2.86434504

>  <Name>
ligand

>  <RI>
0

>  <Rbt.Current_Directory>
/home/itssahil/PROJECTS/Mol_Feturizer/New_Systems/rnas/1TN2

>  <Rbt.Executable>
rbdock ($Id: //depot/dev/client3/rdock/2013.1/src/exe/rbdock.cxx#4 $)

>  <Rbt.Library>
libRbt.so (2013.1, Build901 2013/11/27)

>  <Rbt.Parameter_File>
/export/apps/rDock/src/rDock_2013.1_src/data/scripts/dock_solv.prm

>  <Rbt.Receptor>
prm/pocket_docking_4.prm

>  <SCORE>
-7.15063

>  <SCORE.INTER>
-6.96627

>  <SCORE.INTER.CONST>
1

>  <SCORE.INTER.POLAR>
0

>  <SCORE.INTER.ROT>
11

>  <SCORE.INTER.SOLV>
12.3376

>  <SCORE.INTER.VDW>
-19.69

>  <SCORE.INTER.norm>
-0.497591

>  <SCORE.INTRA>
-0.18436

>  <SCORE.INTRA.DIHEDRAL>
-3.67488

>  <SCORE.INTRA.DIHEDRAL.0>
7.79482

>  <SCORE.INTRA.POLAR>
0

>  <SCORE.INTRA.POLAR.0>
0

>  <SCORE.INTRA.REPUL>
0

>  <SCORE.INTRA.REPUL.0>
0

>  <SCORE.INTRA.SOLV>
3.98755

>  <SCORE.INTRA.SOLV.lig_0>
-49.456

>  <SCORE.INTRA.VDW>
-0.340693

>  <SCORE.INTRA.VDW.0>
-0.478406

>  <SCORE.INTRA.norm>
-0.0131686

>  <SCORE.RESTR>
0

>  <SCORE.RESTR.CAVITY>
0

>  <SCORE.RESTR.norm>
0

>  <SCORE.SYSTEM>
0

>  <SCORE.SYSTEM.CONST>
0

>  <SCORE.SYSTEM.DIHEDRAL>
0

>  <SCORE.SYSTEM.SOLV>
0

>  <SCORE.SYSTEM.norm>
0

>  <SCORE.heavy>
14

>  <SCORE.norm>
-0.51076

>  <RMSD>
2.706

$$$$
ligand
 OpenBabel11021811413D
libRbt.so/2013.1/901 2013/11/27
 14 13  0  0  0  0  0  0  0  0999 V2000
   44.9589    1.5673   15.3626 N   0  0  0  0  0  0  0  0  0  0  0  0
   44.4562    0.8321   16.5432 C   0  0  0  0  0  0  0  0  0  0  0  0
   45.6023    0.4988   17.5227 C   0  0  0  0  0  0  0  0  0  0  0  0
   46.2544    1.7235   18.1851 C   0  0  0  0  0  0  0  0  0  0  0  0
   45.2814    2.4436   19.0519 N   0  0  0  0  0  0  0  0  0  0  0  0
   45.8165    3.7781   19.4257 C   0  0  0  0  0  0  0  0  0  0  0  0
   45.0038    4.5512   20.5184 C   0  0  0  0  0  0  0  0  0  0  0  0
   45.5896    5.9473   20.8764 C   0  0  0  0  0  0  0  0  0  0  0  0
   45.5346    6.9480   19.7387 C   0  0  0  0  0  0  0  0  0  0  0  0
   46.1640    8.1713   20.1988 N   0  0  0  0  0  0  0  0  0  0  0  0
   46.0977    9.0975   19.0819 C   0  0  0  0  0  0  0  0  0  0  0  0
   47.3305    8.9876   18.1923 C   0  0  0  0  0  0  0  0  0  0  0  0
   47.1121    9.9055   16.9799 C   0  0  0  0  0  0  0  0  0  0  0  0
   47.0744   11.3261   17.3583 N   0  0  0  0  0  0  0  0  0  0  0  0
  1  2  1  0  0  0  0
  2  3  1  0  0  0  0
  3  4  1  0  0  0  0
  4  5  1  0  0  0  0
  5  6  1  0  0  0  0
  6  7  1  0  0  0  0
  7  8  1  0  0  0  0
  8  9  1  0  0  0  0
  9 10  1  0  0  0  0
 10 11  1  0  0  0  0
 11 12  1  0  0  0  0
 12 13  1  0  0  0  0
 13 14  1  0  0  0  0
M  END
>  <CHROM.1>
65.86641787,64.18561086,-166.78955856,-170.59737063,-179.63231744,65.59981860
-177.51826211,179.68707410,-90.30599614,174.97691257,66.29261142,45.87688360
5.41252371,18.50277499,-2.45811029,1.34381393,0.98877781

>  <Name>
ligand

>  <RI>
0

>  <Rbt.Current_Directory>
/home/itssahil/PROJECTS/Mol_Feturizer/New_Systems/rnas/1TN2

>  <Rbt.Executable>
rbdock ($Id: //depot/dev/client3/rdock/2013.1/src/exe/rbdock.cxx#4 $)

>  <Rbt.Library>
libRbt.so (2013.1, Build901 2013/11/27)

>  <Rbt.Parameter_File>
/export/apps/rDock/src/rDock_2013.1_src/data/scripts/dock_solv.prm

>  <Rbt.Receptor>
prm/pocket_docking_5.prm

>  <SCORE>
-7.53578

>  <SCORE.INTER>
-5.61363

>  <SCORE.INTER.CONST>
1

>  <SCORE.INTER.POLAR>
0

>  <SCORE.INTER.ROT>
11

>  <SCORE.INTER.SOLV>
11.3628

>  <SCORE.INTER.VDW>
-18.4633

>  <SCORE.INTER.norm>
-0.400973

>  <SCORE.INTRA>
-1.92216

>  <SCORE.INTRA.DIHEDRAL>
-6.38302

>  <SCORE.INTRA.DIHEDRAL.0>
7.79482

>  <SCORE.INTRA.POLAR>
0

>  <SCORE.INTRA.POLAR.0>
0

>  <SCORE.INTRA.REPUL>
0

>  <SCORE.INTRA.REPUL.0>
0

>  <SCORE.INTRA.SOLV>
2.45508

>  <SCORE.INTRA.SOLV.lig_0>
-49.456

>  <SCORE.INTRA.VDW>
0.0418161

>  <SCORE.INTRA.VDW.0>
-0.478406

>  <SCORE.INTRA.norm>
-0.137297

>  <SCORE.RESTR>
0

>  <SCORE.RESTR.CAVITY>
0

>  <SCORE.RESTR.norm>
0

>  <SCORE.SYSTEM>
0

>  <SCORE.SYSTEM.CONST>
0

>  <SCORE.SYSTEM.DIHEDRAL>
0

>  <SCORE.SYSTEM.SOLV>
0

>  <SCORE.SYSTEM.norm>
0

>  <SCORE.heavy>
14

>  <SCORE.norm>
-0.53827

>  <RMSD>
2.716

$$$$
ligand
 OpenBabel11021811413D
libRbt.so/2013.1/901 2013/11/27
 14 13  0  0  0  0  0  0  0  0999 V2000
   45.2100   -0.3377   15.3533 N   0  0  0  0  0  0  0  0  0  0  0  0
   45.3382   -0.0826   16.8044 C   0  0  0  0  0  0  0  0  0  0  0  0
   45.7722    1.3736   17.0787 C   0  0  0  0  0  0  0  0  0  0  0  0
   45.9825    1.7094   18.5643 C   0  0  0  0  0  0  0  0  0  0  0  0
   46.4704    3.1059   18.7326 N   0  0  0  0  0  0  0  0  0  0  0  0
   45.4289    3.9381   19.3880 C   0  0  0  0  0  0  0  0  0  0  0  0
   45.8647    4.6463   20.7149 C   0  0  0  0  0  0  0  0  0  0  0  0
   44.7392    5.4843   21.3868 C   0  0  0  0  0  0  0  0  0  0  0  0
   44.3598    6.7344   20.6173 C   0  0  0  0  0  0  0  0  0  0  0  0
   45.5190    7.6063   20.5964 N   0  0  0  0  0  0  0  0  0  0  0  0
   45.1554    8.7317   19.7533 C   0  0  0  0  0  0  0  0  0  0  0  0
   46.3858    9.5075   19.2976 C   0  0  0  0  0  0  0  0  0  0  0  0
   45.9106   10.6139   18.3436 C   0  0  0  0  0  0  0  0  0  0  0  0
   47.0327   11.3657   17.7620 N   0  0  0  0  0  0  0  0  0  0  0  0
  1  2  1  0  0  0  0
  2  3  1  0  0  0  0
  3  4  1  0  0  0  0
  4  5  1  0  0  0  0
  5  6  1  0  0  0  0
  6  7  1  0  0  0  0
  7  8  1  0  0  0  0
  8  9  1  0  0  0  0
  9 10  1  0  0  0  0
 10 11  1  0  0  0  0
 11 12  1  0  0  0  0
 12 13  1  0  0  0  0
 13 14  1  0  0  0  0
M  END
>  <CHROM.1>
-177.74299363,176.87543211,112.04574903,123.07955312,-178.80439300,-69.47943769
-63.86871340,175.03125372,-162.79476497,176.35230035,-175.74562013,45.65478915
5.31400763,18.88554786,-1.73119675,1.30655306,0.38428916

>  <Name>
ligand

>  <RI>
0

>  <Rbt.Current_Directory>
/home/itssahil/PROJECTS/Mol_Feturizer/New_Systems/rnas/1TN2

>  <Rbt.Executable>
rbdock ($Id: //depot/dev/client3/rdock/2013.1/src/exe/rbdock.cxx#4 $)

>  <Rbt.Library>
libRbt.so (2013.1, Build901 2013/11/27)

>  <Rbt.Parameter_File>
/export/apps/rDock/src/rDock_2013.1_src/data/scripts/dock_solv.prm

>  <Rbt.Receptor>
prm/pocket_docking_6.prm

>  <SCORE>
-10.2481

>  <SCORE.INTER>
-7.72281

>  <SCORE.INTER.CONST>
1

>  <SCORE.INTER.POLAR>
0

>  <SCORE.INTER.ROT>
11

>  <SCORE.INTER.SOLV>
12.9367

>  <SCORE.INTER.VDW>
-20.3941

>  <SCORE.INTER.norm>
-0.551629

>  <SCORE.INTRA>
-2.52528

>  <SCORE.INTRA.DIHEDRAL>
-4.60069

>  <SCORE.INTRA.DIHEDRAL.0>
7.79482

>  <SCORE.INTRA.POLAR>
0

>  <SCORE.INTRA.POLAR.0>
0

>  <SCORE.INTRA.REPUL>
0

>  <SCORE.INTRA.REPUL.0>
0

>  <SCORE.INTRA.SOLV>
0.580934

>  <SCORE.INTRA.SOLV.lig_0>
-49.456

>  <SCORE.INTRA.VDW>
-0.515407

>  <SCORE.INTRA.VDW.0>
-0.478406

>  <SCORE.INTRA.norm>
-0.180377

>  <SCORE.RESTR>
0

>  <SCORE.RESTR.CAVITY>
0

>  <SCORE.RESTR.norm>
0

>  <SCORE.SYSTEM>
0

>  <SCORE.SYSTEM.CONST>
0

>  <SCORE.SYSTEM.DIHEDRAL>
0

>  <SCORE.SYSTEM.SOLV>
0

>  <SCORE.SYSTEM.norm>
0

>  <SCORE.heavy>
14

>  <SCORE.norm>
-0.732007

>  <RMSD>
2.726

$$$$
ligand
 OpenBabel11021811413D
libRbt.so/2013.1/901 2013/11/27
 14 13  0  0  0  0  0  0  0  0999 V2000
   45.6348   10.7706   17.5715 N   0  0  0  0  0  0  0  0  0  0  0  0
   45.4444    9.8743   18.7323 C   0  0  0  0  0  0  0  0  0  0  0  0
   46.6824    8.9789   18.9550 C   0  0  0  0  0  0  0  0  0  0  0  0
   46.5338    7.9523   20.0899 C   0  0  0  0  0  0  0  0  0  0  0  0
   45.4371    6.9887   19.7986 N   0  0  0  0  0  0  0  0  0  0  0  0
   45.4701    5.8645   20.7691 C   0  0  0  0  0  0  0  0  0  0  0  0
   46.2020    4.5694   20.2799 C   0  0  0  0  0  0  0  0  0  0  0  0
   45.5678    3.9205   19.0161 C   0  0  0  0  0  0  0  0  0  0  0  0
   46.1912    2.5945   18.6264 C   0  0  0  0  0  0  0  0  0  0  0  0
   45.4905    2.1073   17.4534 N   0  0  0  0  0  0  0  0  0  0  0  0
   45.7189    0.6733   17.4203 C   0  0  0  0  0  0  0  0  0  0  0  0
   45.3717    0.0846   16.0578 C   0  0  0  0  0  0  0  0  0  0  0  0
   45.6721   -1.4210   16.1119 C   0  0  0  0  0  0  0  0  0  0  0  0
   45.4265   -2.0831   14.8220 N   0  0  0  0  0  0  0  0  0  0  0  0
  1  2  1  0  0  0  0
  2  3  1  0  0  0  0
  3  4  1  0  0  0  0
  4  5  1  0  0  0  0
  5  6  1  0  0  0  0
  6  7  1  0  0  0  0
  7  8  1  0  0  0  0
  8  9  1  0  0  0  0
  9 10  1  0  0  0  0
 10 11  1  0  0  0  0
 11 12  1  0  0  0  0
 12 13  1  0  0  0  0
 13 14  1  0  0  0  0
M  END
>  <CHROM.1>
-176.32235657,62.41603021,169.55263555,-96.97810111,-60.88861493,-174.22430714
179.22680034,-158.19282663,-164.44154799,178.84057188,-177.50807882,45.77462897
4.34816453,18.26493404,1.19727040,-1.47576586,-0.07422911

>  <Name>
ligand

>  <RI>
0

>  <Rbt.Current_Directory>
/home/itssahil/PROJECTS/Mol_Feturizer/New_Systems/rnas/1TN2

>  <Rbt.Executable>
rbdock ($Id: //depot/dev/client3/rdock/2013.1/src/exe/rbdock.cxx#4 $)

>  <Rbt.Library>
libRbt.so (2013.1, Build901 2013/11/27)

>  <Rbt.Parameter_File>
/export/apps/rDock/src/rDock_2013.1_src/data/scripts/dock_solv.prm

>  <Rbt.Receptor>
prm/pocket_docking_3.prm

>  <SCORE>
-11.2223

>  <SCORE.INTER>
-7.66962

>  <SCORE.INTER.CONST>
1

>  <SCORE.INTER.POLAR>
0

>  <SCORE.INTER.ROT>
11

>  <SCORE.INTER.SOLV>
12.3894

>  <SCORE.INTER.VDW>
-20.1762

>  <SCORE.INTER.norm>
-0.54783

>  <SCORE.INTRA>
-3.55266

>  <SCORE.INTRA.DIHEDRAL>
-6.10841

>  <SCORE.INTRA.DIHEDRAL.0>
7.79482

>  <SCORE.INTRA.POLAR>
0

>  <SCORE.INTRA.POLAR.0>
0

>  <SCORE.INTRA.REPUL>
0

>  <SCORE.INTRA.REPUL.0>
0

>  <SCORE.INTRA.SOLV>
0.598715

>  <SCORE.INTRA.SOLV.lig_0>
-49.456

>  <SCORE.INTRA.VDW>
-0.797809

>  <SCORE.INTRA.VDW.0>
-0.478406

>  <SCORE.INTRA.norm>
-0.253761

>  <SCORE.RESTR>
0

>  <SCORE.RESTR.CAVITY>
0

>  <SCORE.RESTR.norm>
0

>  <SCORE.SYSTEM>
0

>  <SCORE.SYSTEM.CONST>
0

>  <SCORE.SYSTEM.DIHEDRAL>
0

>  <SCORE.SYSTEM.SOLV>
0

>  <SCORE.SYSTEM.norm>
0

>  <SCORE.heavy>
14

>  <SCORE.norm>
-0.801591

>  <RMSD>
2.740

$$$$
ligand
 OpenBabel11021811413D
libRbt.so/2013.1/901 2013/11/27
 14 13  0  0  0  0  0  0  0  0999 V2000
   45.7030   10.6589   17.2811 N   0  0  0  0  0  0  0  0  0  0  0  0
   45.4109    9.5713   18.2398 C   0  0  0  0  0  0  0  0  0  0  0  0
   46.4891    9.4947   19.3423 C   0  0  0  0  0  0  0  0  0  0  0  0
   46.2704    8.3765   20.3746 C   0  0  0  0  0  0  0  0  0  0  0  0
   46.3470    7.0350   19.7336 N   0  0  0  0  0  0  0  0  0  0  0  0
   45.7053    6.0140   20.6011 C   0  0  0  0  0  0  0  0  0  0  0  0
   46.1667    4.5367   20.3626 C   0  0  0  0  0  0  0  0  0  0  0  0
   45.8385    3.9902   18.9434 C   0  0  0  0  0  0  0  0  0  0  0  0
   46.2175    2.5361   18.7410 C   0  0  0  0  0  0  0  0  0  0  0  0
   45.7786    2.1483   17.4139 N   0  0  0  0  0  0  0  0  0  0  0  0
   45.4255    0.7425   17.5064 C   0  0  0  0  0  0  0  0  0  0  0  0
   44.7148    0.2619   16.2465 C   0  0  0  0  0  0  0  0  0  0  0  0
   45.7615    0.1804   15.1250 C   0  0  0  0  0  0  0  0  0  0  0  0
   46.2733    1.5059   14.7454 N   0  0  0  0  0  0  0  0  0  0  0  0
  1  2  1  0  0  0  0
  2  3  1  0  0  0  0
  3  4  1  0  0  0  0
  4  5  1  0  0  0  0
  5  6  1  0  0  0  0
  6  7  1  0  0  0  0
  7  8  1  0  0  0  0
  8  9  1  0  0  0  0
  9 10  1  0  0  0  0
 10 11  1  0  0  0  0
 11 12  1  0  0  0  0
 12 13  1  0  0  0  0
 13 14  1  0  0  0  0
M  END
>  <CHROM.1>
-179.30401400,63.68442701,-161.24920878,-157.44118811,-62.77945844,-176.80565037
176.47576363,-147.84735810,169.94676209,72.17686214,-66.82324393,45.86436594
4.78922292,18.19013057,0.96552626,-1.49268674,-0.27635937

>  <Name>
ligand

>  <RI>
0

>  <Rbt.Current_Directory>
/home/itssahil/PROJECTS/Mol_Feturizer/New_Systems/rnas/1TN2

>  <Rbt.Executable>
rbdock ($Id: //depot/dev/client3/rdock/2013.1/src/exe/rbdock.cxx#4 $)

>  <Rbt.Library>
libRbt.so (2013.1, Build901 2013/11/27)

>  <Rbt.Parameter_File>
/export/apps/rDock/src/rDock_2013.1_src/data/scripts/dock_solv.prm

>  <Rbt.Receptor>
prm/pocket_docking_6.prm

>  <SCORE>
-8.86178

>  <SCORE.INTER>
-7.18888

>  <SCORE.INTER.CONST>
1

>  <SCORE.INTER.POLAR>
0

>  <SCORE.INTER.ROT>
11

>  <SCORE.INTER.SOLV>
8.91146

>  <SCORE.INTER.VDW>
-18.6964

>  <SCORE.INTER.norm>
-0.513491

>  <SCORE.INTRA>
-1.6729

>  <SCORE.INTRA.DIHEDRAL>
-5.51906

>  <SCORE.INTRA.DIHEDRAL.0>
7.79482

>  <SCORE.INTRA.POLAR>
0

>  <SCORE.INTRA.POLAR.0>
0

>  <SCORE.INTRA.REPUL>
0

>  <SCORE.INTRA.REPUL.0>
0

>  <SCORE.INTRA.SOLV>
3.6011

>  <SCORE.INTRA.SOLV.lig_0>
-49.456

>  <SCORE.INTRA.VDW>
-0.71392

>  <SCORE.INTRA.VDW.0>
-0.478406

>  <SCORE.INTRA.norm>
-0.119493

>  <SCORE.RESTR>
0

>  <SCORE.RESTR.CAVITY>
0

>  <SCORE.RESTR.norm>
0

>  <SCORE.SYSTEM>
0

>  <SCORE.SYSTEM.CONST>
0

>  <SCORE.SYSTEM.DIHEDRAL>
0

>  <SCORE.SYSTEM.SOLV>
0

>  <SCORE.SYSTEM.norm>
0

>  <SCORE.heavy>
14

>  <SCORE.norm>
-0.632984

>  <RMSD>
2.742

$$$$
ligand
 OpenBabel11021811413D
libRbt.so/2013.1/901 2013/11/27
 14 13  0  0  0  0  0  0  0  0999 V2000
   45.6169   10.6799   17.5212 N   0  0  0  0  0  0  0  0  0  0  0  0
   45.3014    9.6222   18.5055 C   0  0  0  0  0  0  0  0  0  0  0  0
   46.5479    9.2398   19.3326 C   0  0  0  0  0  0  0  0  0  0  0  0
   46.3212    8.1038   20.3435 C   0  0  0  0  0  0  0  0  0  0  0  0
   45.9179    6.8474   19.6541 N   0  0  0  0  0  0  0  0  0  0  0  0
   45.5160    5.8214   20.6503 C   0  0  0  0  0  0  0  0  0  0  0  0
   45.1148    4.4270   20.0614 C   0  0  0  0  0  0  0  0  0  0  0  0
   46.2253    3.7572   19.2020 C   0  0  0  0  0  0  0  0  0  0  0  0
   45.8699    2.3672   18.7116 C   0  0  0  0  0  0  0  0  0  0  0  0
   44.7456    2.4957   17.8040 N   0  0  0  0  0  0  0  0  0  0  0  0
   45.1984    1.9618   16.5314 C   0  0  0  0  0  0  0  0  0  0  0  0
   44.7635    0.5124   16.3482 C   0  0  0  0  0  0  0  0  0  0  0  0
   45.3851    0.0026   15.0391 C   0  0  0  0  0  0  0  0  0  0  0  0
   45.0717   -1.4124   14.7895 N   0  0  0  0  0  0  0  0  0  0  0  0
  1  2  1  0  0  0  0
  2  3  1  0  0  0  0
  3  4  1  0  0  0  0
  4  5  1  0  0  0  0
  5  6  1  0  0  0  0
  6  7  1  0  0  0  0
  7  8  1  0  0  0  0
  8  9  1  0  0  0  0
  9 10  1  0  0  0  0
 10 11  1  0  0  0  0
 11 12  1  0  0  0  0
 12 13  1  0  0  0  0
 13 14  1  0  0  0  0
M  END
>  <CHROM.1>
-177.64266808,61.33402218,-171.90634152,-177.90723821,57.47275212,176.06584673
64.95650163,120.43387117,97.17852320,-175.30336342,177.71953097,45.54262696
4.60182903,18.17846326,0.80225515,-1.45487262,-0.41307175

>  <Name>
ligand

>  <RI>
0

>  <Rbt.Current_Directory>
/home/itssahil/PROJECTS/Mol_Feturizer/New_Systems/rnas/1TN2

>  <Rbt.Executable>
rbdock ($Id: //depot/dev/client3/rdock/2013.1/src/exe/rbdock.cxx#4 $)

>  <Rbt.Library>
libRbt.so (2013.1, Build901 2013/11/27)

>  <Rbt.Parameter_File>
/export/apps/rDock/src/rDock_2013.1_src/data/scripts/dock_solv.prm

>  <Rbt.Receptor>
prm/pocket_docking_3.prm

>  <SCORE>
-8.65817

>  <SCORE.INTER>
-6.09827

>  <SCORE.INTER.CONST>
1

>  <SCORE.INTER.POLAR>
0

>  <SCORE.INTER.ROT>
11

>  <SCORE.INTER.SOLV>
11.0898

>  <SCORE.INTER.VDW>
-18.6954

>  <SCORE.INTER.norm>
-0.43559

>  <SCORE.INTRA>
-2.55991

>  <SCORE.INTRA.DIHEDRAL>
-5.40639

>  <SCORE.INTRA.DIHEDRAL.0>
7.79482

>  <SCORE.INTRA.POLAR>
0

>  <SCORE.INTRA.POLAR.0>
0

>  <SCORE.INTRA.REPUL>
0

>  <SCORE.INTRA.REPUL.0>
0

>  <SCORE.INTRA.SOLV>
1.01698

>  <SCORE.INTRA.SOLV.lig_0>
-49.456

>  <SCORE.INTRA.VDW>
-0.365201

>  <SCORE.INTRA.VDW.0>
-0.478406

>  <SCORE.INTRA.norm>
-0.182851

>  <SCORE.RESTR>
0

>  <SCORE.RESTR.CAVITY>
0

>  <SCORE.RESTR.norm>
0

>  <SCORE.SYSTEM>
0

>  <SCORE.SYSTEM.CONST>
0

>  <SCORE.SYSTEM.DIHEDRAL>
0

>  <SCORE.SYSTEM.SOLV>
0

>  <SCORE.SYSTEM.norm>
0

>  <SCORE.heavy>
14

>  <SCORE.norm>
-0.618441

>  <RMSD>
2.743

$$$$
ligand
 OpenBabel11021811413D
libRbt.so/2013.1/901 2013/11/27
 14 13  0  0  0  0  0  0  0  0999 V2000
   45.7581   -0.9917   14.5609 N   0  0  0  0  0  0  0  0  0  0  0  0
   45.6215   -1.1997   16.0187 C   0  0  0  0  0  0  0  0  0  0  0  0
   44.9777    0.0275   16.6995 C   0  0  0  0  0  0  0  0  0  0  0  0
   45.8298    1.3064   16.6512 C   0  0  0  0  0  0  0  0  0  0  0  0
   45.1338    2.4379   17.3234 N   0  0  0  0  0  0  0  0  0  0  0  0
   45.3069    2.3451   18.7959 C   0  0  0  0  0  0  0  0  0  0  0  0
   45.0200    3.6607   19.5952 C   0  0  0  0  0  0  0  0  0  0  0  0
   46.0405    4.8034   19.3249 C   0  0  0  0  0  0  0  0  0  0  0  0
   45.7811    6.0631   20.1279 C   0  0  0  0  0  0  0  0  0  0  0  0
   46.7546    7.0560   19.7145 N   0  0  0  0  0  0  0  0  0  0  0  0
   46.4326    8.2622   20.4568 C   0  0  0  0  0  0  0  0  0  0  0  0
   45.7260    9.2866   19.5767 C   0  0  0  0  0  0  0  0  0  0  0  0
   46.7174    9.7278   18.4893 C   0  0  0  0  0  0  0  0  0  0  0  0
   46.1449   10.7458   17.5956 N   0  0  0  0  0  0  0  0  0  0  0  0
  1  2  1  0  0  0  0
  2  3  1  0  0  0  0
  3  4  1  0  0  0  0
  4  5  1  0  0  0  0
  5  6  1  0  0  0  0
  6  7  1  0  0  0  0
  7  8  1  0  0  0  0
  8  9  1  0  0  0  0
  9 10  1  0  0  0  0
 10 11  1  0  0  0  0
 11 12  1  0  0  0  0
 12 13  1  0  0  0  0
 13 14  1  0  0  0  0
M  END
>  <CHROM.1>
-65.65023965,179.76570225,80.62874862,162.10727192,-67.26612592,-178.46618680
-176.66871984,177.32307176,-103.77868502,-64.84822955,-178.70244882,45.80314481
4.53782921,18.20969160,-2.16521335,1.41994972,0.90276607

>  <Name>
ligand

>  <RI>
0

>  <Rbt.Current_Directory>
/home/itssahil/PROJECTS/Mol_Feturizer/New_Systems/rnas/1TN2

>  <Rbt.Executable>
rbdock ($Id: //depot/dev/client3/rdock/2013.1/src/exe/rbdock.cxx#4 $)

>  <Rbt.Library>
libRbt.so (2013.1, Build901 2013/11/27)

>  <Rbt.Parameter_File>
/export/apps/rDock/src/rDock_2013.1_src/data/scripts/dock_solv.prm

>  <Rbt.Receptor>
prm/blind_docking_60.prm

>  <SCORE>
-8.89415

>  <SCORE.INTER>
-6.62737

>  <SCORE.INTER.CONST>
1

>  <SCORE.INTER.POLAR>
0

>  <SCORE.INTER.ROT>
11

>  <SCORE.INTER.SOLV>
10.9293

>  <SCORE.INTER.VDW>
-18.9947

>  <SCORE.INTER.norm>
-0.473384

>  <SCORE.INTRA>
-2.26678

>  <SCORE.INTRA.DIHEDRAL>
-5.76675

>  <SCORE.INTRA.DIHEDRAL.0>
7.79482

>  <SCORE.INTRA.POLAR>
0

>  <SCORE.INTRA.POLAR.0>
0

>  <SCORE.INTRA.REPUL>
0

>  <SCORE.INTRA.REPUL.0>
0

>  <SCORE.INTRA.SOLV>
1.35514

>  <SCORE.INTRA.SOLV.lig_0>
-49.456

>  <SCORE.INTRA.VDW>
-0.0609729

>  <SCORE.INTRA.VDW.0>
-0.478406

>  <SCORE.INTRA.norm>
-0.161913

>  <SCORE.RESTR>
0

>  <SCORE.RESTR.CAVITY>
0

>  <SCORE.RESTR.norm>
0

>  <SCORE.SYSTEM>
0

>  <SCORE.SYSTEM.CONST>
0

>  <SCORE.SYSTEM.DIHEDRAL>
0

>  <SCORE.SYSTEM.SOLV>
0

>  <SCORE.SYSTEM.norm>
0

>  <SCORE.heavy>
14

>  <SCORE.norm>
-0.635296

>  <RMSD>
2.744

$$$$
ligand
 OpenBabel11021811413D
libRbt.so/2013.1/901 2013/11/27
 14 13  0  0  0  0  0  0  0  0999 V2000
   45.7127   -1.5861   14.3514 N   0  0  0  0  0  0  0  0  0  0  0  0
   45.2693   -0.3690   15.0652 C   0  0  0  0  0  0  0  0  0  0  0  0
   45.4363   -0.5256   16.5921 C   0  0  0  0  0  0  0  0  0  0  0  0
   45.0321    0.7118   17.4102 C   0  0  0  0  0  0  0  0  0  0  0  0
   45.9214    1.8667   17.1071 N   0  0  0  0  0  0  0  0  0  0  0  0
   46.4302    2.4674   18.3669 C   0  0  0  0  0  0  0  0  0  0  0  0
   45.7904    3.8388   18.7693 C   0  0  0  0  0  0  0  0  0  0  0  0
   46.3256    4.4205   20.1093 C   0  0  0  0  0  0  0  0  0  0  0  0
   45.6494    5.7092   20.5346 C   0  0  0  0  0  0  0  0  0  0  0  0
   46.0630    6.7482   19.6106 N   0  0  0  0  0  0  0  0  0  0  0  0
   46.1466    7.9680   20.3947 C   0  0  0  0  0  0  0  0  0  0  0  0
   46.4571    9.1749   19.5171 C   0  0  0  0  0  0  0  0  0  0  0  0
   45.2299    9.4322   18.6295 C   0  0  0  0  0  0  0  0  0  0  0  0
   45.3976   10.6215   17.7809 N   0  0  0  0  0  0  0  0  0  0  0  0
  1  2  1  0  0  0  0
  2  3  1  0  0  0  0
  3  4  1  0  0  0  0
  4  5  1  0  0  0  0
  5  6  1  0  0  0  0
  6  7  1  0  0  0  0
  7  8  1  0  0  0  0
  8  9  1  0  0  0  0
  9 10  1  0  0  0  0
 10 11  1  0  0  0  0
 11 12  1  0  0  0  0
 12 13  1  0  0  0  0
 13 14  1  0  0  0  0
M  END
>  <CHROM.1>
178.47133247,-64.54078917,-129.96822277,-106.02640193,178.71610325,-176.79248123
-69.45144438,-145.63624854,-175.04629561,68.31077924,177.31669432,45.77583697
4.31985915,18.16029551,1.74144830,1.39104666,-2.95564857

>  <Name>
ligand

>  <RI>
0

>  <Rbt.Current_Directory>
/home/itssahil/PROJECTS/Mol_Feturizer/New_Systems/rnas/1TN2

>  <Rbt.Executable>
rbdock ($Id: //depot/dev/client3/rdock/2013.1/src/exe/rbdock.cxx#4 $)

>  <Rbt.Library>
libRbt.so (2013.1, Build901 2013/11/27)

>  <Rbt.Parameter_File>
/export/apps/rDock/src/rDock_2013.1_src/data/scripts/dock_solv.prm

>  <Rbt.Receptor>
prm/pocket_docking_7.prm

>  <SCORE>
-11.0372

>  <SCORE.INTER>
-8.85602

>  <SCORE.INTER.CONST>
1

>  <SCORE.INTER.POLAR>
0

>  <SCORE.INTER.ROT>
11

>  <SCORE.INTER.SOLV>
10.1277

>  <SCORE.INTER.VDW>
-20.2133

>  <SCORE.INTER.norm>
-0.632573

>  <SCORE.INTRA>
-2.18119

>  <SCORE.INTRA.DIHEDRAL>
-4.12099

>  <SCORE.INTRA.DIHEDRAL.0>
7.79482

>  <SCORE.INTRA.POLAR>
0

>  <SCORE.INTRA.POLAR.0>
0

>  <SCORE.INTRA.REPUL>
0

>  <SCORE.INTRA.REPUL.0>
0

>  <SCORE.INTRA.SOLV>
0.987738

>  <SCORE.INTRA.SOLV.lig_0>
-49.456

>  <SCORE.INTRA.VDW>
-0.614564

>  <SCORE.INTRA.VDW.0>
-0.478406

>  <SCORE.INTRA.norm>
-0.155799

>  <SCORE.RESTR>
0

>  <SCORE.RESTR.CAVITY>
0

>  <SCORE.RESTR.norm>
0

>  <SCORE.SYSTEM>
0

>  <SCORE.SYSTEM.CONST>
0

>  <SCORE.SYSTEM.DIHEDRAL>
0

>  <SCORE.SYSTEM.SOLV>
0

>  <SCORE.SYSTEM.norm>
0

>  <SCORE.heavy>
14

>  <SCORE.norm>
-0.788372

>  <RMSD>
2.745

$$$$
ligand
 OpenBabel11021811413D
libRbt.so/2013.1/901 2013/11/27
 14 13  0  0  0  0  0  0  0  0999 V2000
   45.5286   -1.7108   14.4104 N   0  0  0  0  0  0  0  0  0  0  0  0
   45.6101   -1.2967   15.8278 C   0  0  0  0  0  0  0  0  0  0  0  0
   45.5403    0.2396   15.9653 C   0  0  0  0  0  0  0  0  0  0  0  0
   45.6208    0.7570   17.4109 C   0  0  0  0  0  0  0  0  0  0  0  0
   45.6883    2.2439   17.4433 N   0  0  0  0  0  0  0  0  0  0  0  0
   45.8826    2.7187   18.8374 C   0  0  0  0  0  0  0  0  0  0  0  0
   45.7509    4.2644   19.0504 C   0  0  0  0  0  0  0  0  0  0  0  0
   45.8365    4.7101   20.5385 C   0  0  0  0  0  0  0  0  0  0  0  0
   45.5328    6.1790   20.7596 C   0  0  0  0  0  0  0  0  0  0  0  0
   46.5748    6.9466   20.1045 N   0  0  0  0  0  0  0  0  0  0  0  0
   46.1084    8.3221   20.0928 C   0  0  0  0  0  0  0  0  0  0  0  0
   46.6468    9.0834   18.8871 C   0  0  0  0  0  0  0  0  0  0  0  0
   46.0608   10.5027   18.9340 C   0  0  0  0  0  0  0  0  0  0  0  0
   46.4863   11.3176   17.7862 N   0  0  0  0  0  0  0  0  0  0  0  0
  1  2  1  0  0  0  0
  2  3  1  0  0  0  0
  3  4  1  0  0  0  0
  4  5  1  0  0  0  0
  5  6  1  0  0  0  0
  6  7  1  0  0  0  0
  7  8  1  0  0  0  0
  8  9  1  0  0  0  0
  9 10  1  0  0  0  0
 10 11  1  0  0  0  0
 11 12  1  0  0  0  0
 12 13  1  0  0  0  0
 13 14  1  0  0  0  0
M  END
>  <CHROM.1>
-179.90345731,174.13894224,-175.16424938,-170.94327359,174.91908106,-172.58867290
-65.30988469,168.33917813,-149.99101568,177.94367079,-178.28984850,45.91907431
4.59121312,18.28950863,-2.36337622,1.47614327,1.10988790

>  <Name>
ligand

>  <RI>
0

>  <Rbt.Current_Directory>
/home/itssahil/PROJECTS/Mol_Feturizer/New_Systems/rnas/1TN2

>  <Rbt.Executable>
rbdock ($Id: //depot/dev/client3/rdock/2013.1/src/exe/rbdock.cxx#4 $)

>  <Rbt.Library>
libRbt.so (2013.1, Build901 2013/11/27)

>  <Rbt.Parameter_File>
/export/apps/rDock/src/rDock_2013.1_src/data/scripts/dock_solv.prm

>  <Rbt.Receptor>
prm/pocket_docking_7.prm

>  <SCORE>
-11.272

>  <SCORE.INTER>
-7.50021

>  <SCORE.INTER.CONST>
1

>  <SCORE.INTER.POLAR>
0

>  <SCORE.INTER.ROT>
11

>  <SCORE.INTER.SOLV>
11.5414

>  <SCORE.INTER.VDW>
-19.7806

>  <SCORE.INTER.norm>
-0.535729

>  <SCORE.INTRA>
-3.7718

>  <SCORE.INTRA.DIHEDRAL>
-6.41417

>  <SCORE.INTRA.DIHEDRAL.0>
7.79482

>  <SCORE.INTRA.POLAR>
0

>  <SCORE.INTRA.POLAR.0>
0

>  <SCORE.INTRA.REPUL>
0

>  <SCORE.INTRA.REPUL.0>
0

>  <SCORE.INTRA.SOLV>
0.317372

>  <SCORE.INTRA.SOLV.lig_0>
-49.456

>  <SCORE.INTRA.VDW>
-0.723402

>  <SCORE.INTRA.VDW.0>
-0.478406

>  <SCORE.INTRA.norm>
-0.269414

>  <SCORE.RESTR>
0

>  <SCORE.RESTR.CAVITY>
0

>  <SCORE.RESTR.norm>
0

>  <SCORE.SYSTEM>
0

>  <SCORE.SYSTEM.CONST>
0

>  <SCORE.SYSTEM.DIHEDRAL>
0

>  <SCORE.SYSTEM.SOLV>
0

>  <SCORE.SYSTEM.norm>
0

>  <SCORE.heavy>
14

>  <SCORE.norm>
-0.805143

>  <RMSD>
2.755

$$$$
ligand
 OpenBabel11021811413D
libRbt.so/2013.1/901 2013/11/27
 14 13  0  0  0  0  0  0  0  0999 V2000
   45.6183   10.6054   17.6436 N   0  0  0  0  0  0  0  0  0  0  0  0
   47.0073   10.1153   17.5111 C   0  0  0  0  0  0  0  0  0  0  0  0
   47.0487    8.5750   17.4134 C   0  0  0  0  0  0  0  0  0  0  0  0
   46.5400    7.8405   18.6647 C   0  0  0  0  0  0  0  0  0  0  0  0
   46.5677    6.3652   18.4667 N   0  0  0  0  0  0  0  0  0  0  0  0
   45.7149    5.6949   19.4817 C   0  0  0  0  0  0  0  0  0  0  0  0
   46.2550    4.3286   20.0235 C   0  0  0  0  0  0  0  0  0  0  0  0
   46.3077    3.1982   18.9558 C   0  0  0  0  0  0  0  0  0  0  0  0
   44.9532    2.6061   18.6188 C   0  0  0  0  0  0  0  0  0  0  0  0
   45.1805    1.4088   17.8320 N   0  0  0  0  0  0  0  0  0  0  0  0
   44.2917    1.5097   16.6877 C   0  0  0  0  0  0  0  0  0  0  0  0
   44.9391    0.9480   15.4274 C   0  0  0  0  0  0  0  0  0  0  0  0
   45.0179   -0.5780   15.5859 C   0  0  0  0  0  0  0  0  0  0  0  0
   45.9208   -0.9774   16.6758 N   0  0  0  0  0  0  0  0  0  0  0  0
  1  2  1  0  0  0  0
  2  3  1  0  0  0  0
  3  4  1  0  0  0  0
  4  5  1  0  0  0  0
  5  6  1  0  0  0  0
  6  7  1  0  0  0  0
  7  8  1  0  0  0  0
  8  9  1  0  0  0  0
  9 10  1  0  0  0  0
 10 11  1  0  0  0  0
 11 12  1  0  0  0  0
 12 13  1  0  0  0  0
 13 14  1  0  0  0  0
M  END
>  <CHROM.1>
-63.69165948,177.92014330,-162.98191351,-142.98316990,-65.84145217,-75.42120098
-168.76332342,-131.86268917,143.44378984,70.75144186,-65.48230047,45.81162725
4.40290074,17.78492384,0.68998448,-1.37740754,-0.71242596

>  <Name>
ligand

>  <RI>
0

>  <Rbt.Current_Directory>
/home/itssahil/PROJECTS/Mol_Feturizer/New_Systems/rnas/1TN2

>  <Rbt.Executable>
rbdock ($Id: //depot/dev/client3/rdock/2013.1/src/exe/rbdock.cxx#4 $)

>  <Rbt.Library>
libRbt.so (2013.1, Build901 2013/11/27)

>  <Rbt.Parameter_File>
/export/apps/rDock/src/rDock_2013.1_src/data/scripts/dock_solv.prm

>  <Rbt.Receptor>
prm/pocket_docking_2.prm

>  <SCORE>
-1.8976

>  <SCORE.INTER>
-2.29929

>  <SCORE.INTER.CONST>
1

>  <SCORE.INTER.POLAR>
0

>  <SCORE.INTER.ROT>
11

>  <SCORE.INTER.SOLV>
14.4732

>  <SCORE.INTER.VDW>
-17.2906

>  <SCORE.INTER.norm>
-0.164235

>  <SCORE.INTRA>
0.280332

>  <SCORE.INTRA.DIHEDRAL>
-2.72332

>  <SCORE.INTRA.DIHEDRAL.0>
7.79482

>  <SCORE.INTRA.POLAR>
0

>  <SCORE.INTRA.POLAR.0>
0

>  <SCORE.INTRA.REPUL>
0

>  <SCORE.INTRA.REPUL.0>
0

>  <SCORE.INTRA.SOLV>
4.1841

>  <SCORE.INTRA.SOLV.lig_0>
-49.456

>  <SCORE.INTRA.VDW>
-0.450056

>  <SCORE.INTRA.VDW.0>
-0.478406

>  <SCORE.INTRA.norm>
0.0200237

>  <SCORE.RESTR>
0.121361

>  <SCORE.RESTR.CAVITY>
0.121361

>  <SCORE.RESTR.norm>
0.00866866

>  <SCORE.SYSTEM>
0

>  <SCORE.SYSTEM.CONST>
0

>  <SCORE.SYSTEM.DIHEDRAL>
0

>  <SCORE.SYSTEM.SOLV>
0

>  <SCORE.SYSTEM.norm>
0

>  <SCORE.heavy>
14

>  <SCORE.norm>
-0.135543

>  <RMSD>
2.758

$$$$
ligand
 OpenBabel11021811413D
libRbt.so/2013.1/901 2013/11/27
 14 13  0  0  0  0  0  0  0  0999 V2000
   41.5555   10.9430   18.2763 N   0  0  0  0  0  0  0  0  0  0  0  0
   42.3428    9.9845   19.0816 C   0  0  0  0  0  0  0  0  0  0  0  0
   41.4917    8.7596   19.4805 C   0  0  0  0  0  0  0  0  0  0  0  0
   42.1954    7.7719   20.4257 C   0  0  0  0  0  0  0  0  0  0  0  0
   43.4595    7.2652   19.8244 N   0  0  0  0  0  0  0  0  0  0  0  0
   44.3597    6.7441   20.8850 C   0  0  0  0  0  0  0  0  0  0  0  0
   45.8645    6.5903   20.4800 C   0  0  0  0  0  0  0  0  0  0  0  0
   46.1159    5.5457   19.3549 C   0  0  0  0  0  0  0  0  0  0  0  0
   45.7479    4.1260   19.7397 C   0  0  0  0  0  0  0  0  0  0  0  0
   46.0101    3.2778   18.5924 N   0  0  0  0  0  0  0  0  0  0  0  0
   45.4066    1.9932   18.9010 C   0  0  0  0  0  0  0  0  0  0  0  0
   45.7697    0.9418   17.8589 C   0  0  0  0  0  0  0  0  0  0  0  0
   45.0117    1.2858   16.5678 C   0  0  0  0  0  0  0  0  0  0  0  0
   45.2523    0.3004   15.5030 N   0  0  0  0  0  0  0  0  0  0  0  0
  1  2  1  0  0  0  0
  2  3  1  0  0  0  0
  3  4  1  0  0  0  0
  4  5  1  0  0  0  0
  5  6  1  0  0  0  0
  6  7  1  0  0  0  0
  7  8  1  0  0  0  0
  8  9  1  0  0  0  0
  9 10  1  0  0  0  0
 10 11  1  0  0  0  0
 11 12  1  0  0  0  0
 12 13  1  0  0  0  0
 13 14  1  0  0  0  0
M  END
>  <CHROM.1>
-174.78495032,-57.83880456,158.97323478,-161.93387606,-64.12364723,-63.46742436
178.90257312,-169.05604832,-172.22636983,-71.44471770,-177.89358317,44.32748015
5.39493291,18.92686969,2.11420226,-0.76545277,0.65557714

>  <Name>
ligand

>  <RI>
0

>  <Rbt.Current_Directory>
/home/itssahil/PROJECTS/Mol_Feturizer/New_Systems/rnas/1TN2

>  <Rbt.Executable>
rbdock ($Id: //depot/dev/client3/rdock/2013.1/src/exe/rbdock.cxx#4 $)

>  <Rbt.Library>
libRbt.so (2013.1, Build901 2013/11/27)

>  <Rbt.Parameter_File>
/export/apps/rDock/src/rDock_2013.1_src/data/scripts/dock_solv.prm

>  <Rbt.Receptor>
prm/blind_docking_100.prm

>  <SCORE>
-13.8155

>  <SCORE.INTER>
-10.7943

>  <SCORE.INTER.CONST>
1

>  <SCORE.INTER.POLAR>
0

>  <SCORE.INTER.ROT>
11

>  <SCORE.INTER.SOLV>
18.7176

>  <SCORE.INTER.VDW>
-24.3687

>  <SCORE.INTER.norm>
-0.771023

>  <SCORE.INTRA>
-3.02117

>  <SCORE.INTRA.DIHEDRAL>
-6.33608

>  <SCORE.INTRA.DIHEDRAL.0>
7.79482

>  <SCORE.INTRA.POLAR>
0

>  <SCORE.INTRA.POLAR.0>
0

>  <SCORE.INTRA.REPUL>
0

>  <SCORE.INTRA.REPUL.0>
0

>  <SCORE.INTRA.SOLV>
1.27798

>  <SCORE.INTRA.SOLV.lig_0>
-49.456

>  <SCORE.INTRA.VDW>
-0.492113

>  <SCORE.INTRA.VDW.0>
-0.478406

>  <SCORE.INTRA.norm>
-0.215798

>  <SCORE.RESTR>
0

>  <SCORE.RESTR.CAVITY>
0

>  <SCORE.RESTR.norm>
0

>  <SCORE.SYSTEM>
0

>  <SCORE.SYSTEM.CONST>
0

>  <SCORE.SYSTEM.DIHEDRAL>
0

>  <SCORE.SYSTEM.SOLV>
0

>  <SCORE.SYSTEM.norm>
0

>  <SCORE.heavy>
14

>  <SCORE.norm>
-0.98682

>  <RMSD>
2.766

$$$$
ligand
 OpenBabel11021811413D
libRbt.so/2013.1/901 2013/11/27
 14 13  0  0  0  0  0  0  0  0999 V2000
   46.0904    2.8177   14.5908 N   0  0  0  0  0  0  0  0  0  0  0  0
   46.5304    3.2155   15.9455 C   0  0  0  0  0  0  0  0  0  0  0  0
   45.9082    2.3031   17.0246 C   0  0  0  0  0  0  0  0  0  0  0  0
   46.2882    2.6692   18.4688 C   0  0  0  0  0  0  0  0  0  0  0  0
   45.7207    3.9912   18.8519 N   0  0  0  0  0  0  0  0  0  0  0  0
   46.3153    4.4535   20.1323 C   0  0  0  0  0  0  0  0  0  0  0  0
   45.3445    5.2226   21.0905 C   0  0  0  0  0  0  0  0  0  0  0  0
   44.8404    6.5820   20.5265 C   0  0  0  0  0  0  0  0  0  0  0  0
   45.9439    7.5904   20.2728 C   0  0  0  0  0  0  0  0  0  0  0  0
   45.3259    8.7979   19.7587 N   0  0  0  0  0  0  0  0  0  0  0  0
   46.3934    9.5532   19.1265 C   0  0  0  0  0  0  0  0  0  0  0  0
   45.8444   10.7128   18.3035 C   0  0  0  0  0  0  0  0  0  0  0  0
   47.0380   11.4222   17.6461 C   0  0  0  0  0  0  0  0  0  0  0  0
   46.6185   12.5598   16.8139 N   0  0  0  0  0  0  0  0  0  0  0  0
  1  2  1  0  0  0  0
  2  3  1  0  0  0  0
  3  4  1  0  0  0  0
  4  5  1  0  0  0  0
  5  6  1  0  0  0  0
  6  7  1  0  0  0  0
  7  8  1  0  0  0  0
  8  9  1  0  0  0  0
  9 10  1  0  0  0  0
 10 11  1  0  0  0  0
 11 12  1  0  0  0  0
 12 13  1  0  0  0  0
 13 14  1  0  0  0  0
M  END
>  <CHROM.1>
-178.61348651,66.33219183,-168.59704936,-143.53024313,-65.09772536,-61.92163013
-179.77646126,-161.77128846,168.73965600,-178.40752464,179.56949678,46.01448174
6.56345251,18.46841831,-1.72603152,1.37213446,0.26154415

>  <Name>
ligand

>  <RI>
0

>  <Rbt.Current_Directory>
/home/itssahil/PROJECTS/Mol_Feturizer/New_Systems/rnas/1TN2

>  <Rbt.Executable>
rbdock ($Id: //depot/dev/client3/rdock/2013.1/src/exe/rbdock.cxx#4 $)

>  <Rbt.Library>
libRbt.so (2013.1, Build901 2013/11/27)

>  <Rbt.Parameter_File>
/export/apps/rDock/src/rDock_2013.1_src/data/scripts/dock_solv.prm

>  <Rbt.Receptor>
prm/pocket_docking_4.prm

>  <SCORE>
-8.54752

>  <SCORE.INTER>
-5.31363

>  <SCORE.INTER.CONST>
1

>  <SCORE.INTER.POLAR>
0

>  <SCORE.INTER.ROT>
11

>  <SCORE.INTER.SOLV>
9.19552

>  <SCORE.INTER.VDW>
-17.5409

>  <SCORE.INTER.norm>
-0.379545

>  <SCORE.INTRA>
-3.23389

>  <SCORE.INTRA.DIHEDRAL>
-6.25589

>  <SCORE.INTRA.DIHEDRAL.0>
7.79482

>  <SCORE.INTRA.POLAR>
0

>  <SCORE.INTRA.POLAR.0>
0

>  <SCORE.INTRA.REPUL>
0

>  <SCORE.INTRA.REPUL.0>
0

>  <SCORE.INTRA.SOLV>
0.90345

>  <SCORE.INTRA.SOLV.lig_0>
-49.456

>  <SCORE.INTRA.VDW>
-0.557669

>  <SCORE.INTRA.VDW.0>
-0.478406

>  <SCORE.INTRA.norm>
-0.230992

>  <SCORE.RESTR>
0

>  <SCORE.RESTR.CAVITY>
0

>  <SCORE.RESTR.norm>
0

>  <SCORE.SYSTEM>
0

>  <SCORE.SYSTEM.CONST>
0

>  <SCORE.SYSTEM.DIHEDRAL>
0

>  <SCORE.SYSTEM.SOLV>
0

>  <SCORE.SYSTEM.norm>
0

>  <SCORE.heavy>
14

>  <SCORE.norm>
-0.610537

>  <RMSD>
2.766

$$$$
ligand
 OpenBabel11021811413D
libRbt.so/2013.1/901 2013/11/27
 14 13  0  0  0  0  0  0  0  0999 V2000
   48.0019    9.1162   16.5572 N   0  0  0  0  0  0  0  0  0  0  0  0
   46.5267    9.2160   16.5244 C   0  0  0  0  0  0  0  0  0  0  0  0
   45.9664    9.6538   17.8949 C   0  0  0  0  0  0  0  0  0  0  0  0
   46.3959    8.7664   19.0748 C   0  0  0  0  0  0  0  0  0  0  0  0
   45.8724    7.3813   18.9199 N   0  0  0  0  0  0  0  0  0  0  0  0
   46.3031    6.5387   20.0650 C   0  0  0  0  0  0  0  0  0  0  0  0
   45.7298    5.0816   20.0863 C   0  0  0  0  0  0  0  0  0  0  0  0
   46.0566    4.2519   18.8114 C   0  0  0  0  0  0  0  0  0  0  0  0
   45.5122    2.8371   18.8415 C   0  0  0  0  0  0  0  0  0  0  0  0
   45.6624    2.2802   17.5105 N   0  0  0  0  0  0  0  0  0  0  0  0
   45.7075    0.8389   17.6849 C   0  0  0  0  0  0  0  0  0  0  0  0
   45.4835    0.1102   16.3650 C   0  0  0  0  0  0  0  0  0  0  0  0
   45.6869   -1.3906   16.6224 C   0  0  0  0  0  0  0  0  0  0  0  0
   45.3954   -2.2030   15.4317 N   0  0  0  0  0  0  0  0  0  0  0  0
  1  2  1  0  0  0  0
  2  3  1  0  0  0  0
  3  4  1  0  0  0  0
  4  5  1  0  0  0  0
  5  6  1  0  0  0  0
  6  7  1  0  0  0  0
  7  8  1  0  0  0  0
  8  9  1  0  0  0  0
  9 10  1  0  0  0  0
 10 11  1  0  0  0  0
 11 12  1  0  0  0  0
 12 13  1  0  0  0  0
 13 14  1  0  0  0  0
M  END
>  <CHROM.1>
-55.10801702,-63.55617070,179.72637605,175.50142982,57.30482858,179.40912964
169.15187606,155.51690642,164.53131365,174.47428514,175.71913245,46.02138849
4.46289089,17.88531503,-1.09652392,-1.33672168,-2.52299051

>  <Name>
ligand

>  <RI>
0

>  <Rbt.Current_Directory>
/home/itssahil/PROJECTS/Mol_Feturizer/New_Systems/rnas/1TN2

>  <Rbt.Executable>
rbdock ($Id: //depot/dev/client3/rdock/2013.1/src/exe/rbdock.cxx#4 $)

>  <Rbt.Library>
libRbt.so (2013.1, Build901 2013/11/27)

>  <Rbt.Parameter_File>
/export/apps/rDock/src/rDock_2013.1_src/data/scripts/dock_solv.prm

>  <Rbt.Receptor>
prm/pocket_docking_2.prm

>  <SCORE>
-6.92498

>  <SCORE.INTER>
-4.09756

>  <SCORE.INTER.CONST>
1

>  <SCORE.INTER.POLAR>
0

>  <SCORE.INTER.ROT>
11

>  <SCORE.INTER.SOLV>
13.1757

>  <SCORE.INTER.VDW>
-18.0569

>  <SCORE.INTER.norm>
-0.292683

>  <SCORE.INTRA>
-2.86763

>  <SCORE.INTRA.DIHEDRAL>
-6.37903

>  <SCORE.INTRA.DIHEDRAL.0>
7.79482

>  <SCORE.INTRA.POLAR>
0

>  <SCORE.INTRA.POLAR.0>
0

>  <SCORE.INTRA.REPUL>
0

>  <SCORE.INTRA.REPUL.0>
0

>  <SCORE.INTRA.SOLV>
2.18496

>  <SCORE.INTRA.SOLV.lig_0>
-49.456

>  <SCORE.INTRA.VDW>
-0.770599

>  <SCORE.INTRA.VDW.0>
-0.478406

>  <SCORE.INTRA.norm>
-0.204831

>  <SCORE.RESTR>
0.040217

>  <SCORE.RESTR.CAVITY>
0.040217

>  <SCORE.RESTR.norm>
0.00287265

>  <SCORE.SYSTEM>
0

>  <SCORE.SYSTEM.CONST>
0

>  <SCORE.SYSTEM.DIHEDRAL>
0

>  <SCORE.SYSTEM.SOLV>
0

>  <SCORE.SYSTEM.norm>
0

>  <SCORE.heavy>
14

>  <SCORE.norm>
-0.494641

>  <RMSD>
2.780

$$$$
ligand
 OpenBabel11021811413D
libRbt.so/2013.1/901 2013/11/27
 14 13  0  0  0  0  0  0  0  0999 V2000
   46.9681    2.5150   15.7488 N   0  0  0  0  0  0  0  0  0  0  0  0
   46.3592    3.3052   16.8405 C   0  0  0  0  0  0  0  0  0  0  0  0
   46.2054    2.4593   18.1230 C   0  0  0  0  0  0  0  0  0  0  0  0
   45.5000    3.1795   19.2839 C   0  0  0  0  0  0  0  0  0  0  0  0
   46.3158    4.3225   19.7782 N   0  0  0  0  0  0  0  0  0  0  0  0
   45.7778    4.8156   21.0722 C   0  0  0  0  0  0  0  0  0  0  0  0
   44.5363    5.7646   20.9712 C   0  0  0  0  0  0  0  0  0  0  0  0
   44.8248    7.1133   20.2512 C   0  0  0  0  0  0  0  0  0  0  0  0
   43.6008    7.9903   20.0737 C   0  0  0  0  0  0  0  0  0  0  0  0
   44.0246    9.2062   19.4057 N   0  0  0  0  0  0  0  0  0  0  0  0
   42.8096    9.8406   18.9251 C   0  0  0  0  0  0  0  0  0  0  0  0
   43.1192   11.0755   18.0870 C   0  0  0  0  0  0  0  0  0  0  0  0
   41.7807   11.7264   17.7064 C   0  0  0  0  0  0  0  0  0  0  0  0
   41.9648   13.0017   16.9977 N   0  0  0  0  0  0  0  0  0  0  0  0
  1  2  1  0  0  0  0
  2  3  1  0  0  0  0
  3  4  1  0  0  0  0
  4  5  1  0  0  0  0
  5  6  1  0  0  0  0
  6  7  1  0  0  0  0
  7  8  1  0  0  0  0
  8  9  1  0  0  0  0
  9 10  1  0  0  0  0
 10 11  1  0  0  0  0
 11 12  1  0  0  0  0
 12 13  1  0  0  0  0
 13 14  1  0  0  0  0
M  END
>  <CHROM.1>
-176.41869851,-65.73497092,-167.54251450,-80.48632880,-64.15042049,176.16536694
179.45807588,164.61322961,-174.82158781,-176.26891259,174.69853194,44.55611707
6.87954900,18.80494857,-0.11650359,1.13721259,-1.46568621

>  <Name>
ligand

>  <RI>
0

>  <Rbt.Current_Directory>
/home/itssahil/PROJECTS/Mol_Feturizer/New_Systems/rnas/1TN2

>  <Rbt.Executable>
rbdock ($Id: //depot/dev/client3/rdock/2013.1/src/exe/rbdock.cxx#4 $)

>  <Rbt.Library>
libRbt.so (2013.1, Build901 2013/11/27)

>  <Rbt.Parameter_File>
/export/apps/rDock/src/rDock_2013.1_src/data/scripts/dock_solv.prm

>  <Rbt.Receptor>
prm/pocket_docking_4.prm

>  <SCORE>
-11.806

>  <SCORE.INTER>
-8.05497

>  <SCORE.INTER.CONST>
1

>  <SCORE.INTER.POLAR>
0

>  <SCORE.INTER.ROT>
11

>  <SCORE.INTER.SOLV>
16.7092

>  <SCORE.INTER.VDW>
-21.8731

>  <SCORE.INTER.norm>
-0.575355

>  <SCORE.INTRA>
-3.751

>  <SCORE.INTRA.DIHEDRAL>
-6.69444

>  <SCORE.INTRA.DIHEDRAL.0>
7.79482

>  <SCORE.INTRA.POLAR>
0

>  <SCORE.INTRA.POLAR.0>
0

>  <SCORE.INTRA.REPUL>
0

>  <SCORE.INTRA.REPUL.0>
0

>  <SCORE.INTRA.SOLV>
0.582478

>  <SCORE.INTRA.SOLV.lig_0>
-49.456

>  <SCORE.INTRA.VDW>
-0.695017

>  <SCORE.INTRA.VDW.0>
-0.478406

>  <SCORE.INTRA.norm>
-0.267929

>  <SCORE.RESTR>
0

>  <SCORE.RESTR.CAVITY>
0

>  <SCORE.RESTR.norm>
0

>  <SCORE.SYSTEM>
0

>  <SCORE.SYSTEM.CONST>
0

>  <SCORE.SYSTEM.DIHEDRAL>
0

>  <SCORE.SYSTEM.SOLV>
0

>  <SCORE.SYSTEM.norm>
0

>  <SCORE.heavy>
14

>  <SCORE.norm>
-0.843283

>  <RMSD>
2.783

$$$$
ligand
 OpenBabel11021811413D
libRbt.so/2013.1/901 2013/11/27
 14 13  0  0  0  0  0  0  0  0999 V2000
   45.4281    0.1355   15.3717 N   0  0  0  0  0  0  0  0  0  0  0  0
   45.0826    1.1775   16.3626 C   0  0  0  0  0  0  0  0  0  0  0  0
   45.6735    0.8461   17.7501 C   0  0  0  0  0  0  0  0  0  0  0  0
   45.3348    1.8657   18.8499 C   0  0  0  0  0  0  0  0  0  0  0  0
   45.9722    3.1823   18.5728 N   0  0  0  0  0  0  0  0  0  0  0  0
   45.6863    4.1337   19.6773 C   0  0  0  0  0  0  0  0  0  0  0  0
   45.9707    5.6411   19.3626 C   0  0  0  0  0  0  0  0  0  0  0  0
   45.6788    6.6037   20.5494 C   0  0  0  0  0  0  0  0  0  0  0  0
   44.2164    6.6679   20.9445 C   0  0  0  0  0  0  0  0  0  0  0  0
   43.4972    7.3143   19.8632 N   0  0  0  0  0  0  0  0  0  0  0  0
   42.2566    7.7980   20.4435 C   0  0  0  0  0  0  0  0  0  0  0  0
   41.4959    8.6901   19.4695 C   0  0  0  0  0  0  0  0  0  0  0  0
   42.3996    9.8854   19.1311 C   0  0  0  0  0  0  0  0  0  0  0  0
   41.7278   10.8603   18.2588 N   0  0  0  0  0  0  0  0  0  0  0  0
  1  2  1  0  0  0  0
  2  3  1  0  0  0  0
  3  4  1  0  0  0  0
  4  5  1  0  0  0  0
  5  6  1  0  0  0  0
  6  7  1  0  0  0  0
  7  8  1  0  0  0  0
  8  9  1  0  0  0  0
  9 10  1  0  0  0  0
 10 11  1  0  0  0  0
 11 12  1  0  0  0  0
 12 13  1  0  0  0  0
 13 14  1  0  0  0  0
M  END
>  <CHROM.1>
-178.72106324,-66.19058312,-177.34604441,-164.92164691,-179.16491629,-65.00693728
-68.23867525,-159.58994516,171.12140174,-60.11242859,-176.37771551,44.31581592
5.34294360,18.90085629,1.01581350,0.82294394,-2.43236393

>  <Name>
ligand

>  <RI>
0

>  <Rbt.Current_Directory>
/home/itssahil/PROJECTS/Mol_Feturizer/New_Systems/rnas/1TN2

>  <Rbt.Executable>
rbdock ($Id: //depot/dev/client3/rdock/2013.1/src/exe/rbdock.cxx#4 $)

>  <Rbt.Library>
libRbt.so (2013.1, Build901 2013/11/27)

>  <Rbt.Parameter_File>
/export/apps/rDock/src/rDock_2013.1_src/data/scripts/dock_solv.prm

>  <Rbt.Receptor>
prm/pocket_docking_7.prm

>  <SCORE>
-13.7814

>  <SCORE.INTER>
-10.8134

>  <SCORE.INTER.CONST>
1

>  <SCORE.INTER.POLAR>
0

>  <SCORE.INTER.ROT>
11

>  <SCORE.INTER.SOLV>
17.7682

>  <SCORE.INTER.VDW>
-24.065

>  <SCORE.INTER.norm>
-0.772386

>  <SCORE.INTRA>
-2.96802

>  <SCORE.INTRA.DIHEDRAL>
-6.67717

>  <SCORE.INTRA.DIHEDRAL.0>
7.79482

>  <SCORE.INTRA.POLAR>
0

>  <SCORE.INTRA.POLAR.0>
0

>  <SCORE.INTRA.REPUL>
0

>  <SCORE.INTRA.REPUL.0>
0

>  <SCORE.INTRA.SOLV>
1.33063

>  <SCORE.INTRA.SOLV.lig_0>
-49.456

>  <SCORE.INTRA.VDW>
-0.294749

>  <SCORE.INTRA.VDW.0>
-0.478406

>  <SCORE.INTRA.norm>
-0.212001

>  <SCORE.RESTR>
0

>  <SCORE.RESTR.CAVITY>
0

>  <SCORE.RESTR.norm>
0

>  <SCORE.SYSTEM>
0

>  <SCORE.SYSTEM.CONST>
0

>  <SCORE.SYSTEM.DIHEDRAL>
0

>  <SCORE.SYSTEM.SOLV>
0

>  <SCORE.SYSTEM.norm>
0

>  <SCORE.heavy>
14

>  <SCORE.norm>
-0.984387

>  <RMSD>
2.784

$$$$
ligand
 OpenBabel11021811413D
libRbt.so/2013.1/901 2013/11/27
 14 13  0  0  0  0  0  0  0  0999 V2000
   46.0556   10.3802   17.0513 N   0  0  0  0  0  0  0  0  0  0  0  0
   47.4062   10.1133   17.5915 C   0  0  0  0  0  0  0  0  0  0  0  0
   47.4165    8.8394   18.4640 C   0  0  0  0  0  0  0  0  0  0  0  0
   46.5262    8.9138   19.7153 C   0  0  0  0  0  0  0  0  0  0  0  0
   46.6689    7.6869   20.5464 N   0  0  0  0  0  0  0  0  0  0  0  0
   45.8277    6.5932   19.9960 C   0  0  0  0  0  0  0  0  0  0  0  0
   45.5295    5.4097   20.9771 C   0  0  0  0  0  0  0  0  0  0  0  0
   44.6917    4.2594   20.3484 C   0  0  0  0  0  0  0  0  0  0  0  0
   45.4147    3.4983   19.2543 C   0  0  0  0  0  0  0  0  0  0  0  0
   44.5789    2.3751   18.8744 N   0  0  0  0  0  0  0  0  0  0  0  0
   45.3812    1.5699   17.9703 C   0  0  0  0  0  0  0  0  0  0  0  0
   44.5392    0.5075   17.2734 C   0  0  0  0  0  0  0  0  0  0  0  0
   45.4821   -0.3329   16.3989 C   0  0  0  0  0  0  0  0  0  0  0  0
   46.0331    0.4393   15.2751 N   0  0  0  0  0  0  0  0  0  0  0  0
  1  2  1  0  0  0  0
  2  3  1  0  0  0  0
  3  4  1  0  0  0  0
  4  5  1  0  0  0  0
  5  6  1  0  0  0  0
  6  7  1  0  0  0  0
  7  8  1  0  0  0  0
  8  9  1  0  0  0  0
  9 10  1  0  0  0  0
 10 11  1  0  0  0  0
 11 12  1  0  0  0  0
 12 13  1  0  0  0  0
 13 14  1  0  0  0  0
M  END
>  <CHROM.1>
-62.56538131,-175.98711329,-81.24386104,-162.03882562,-177.79966272,66.75409080
173.64538055,-172.10206517,-168.60694580,-177.19277328,-67.48833187,45.82511229
5.01799319,18.55285424,-0.97267271,-1.26106649,-2.37685080

>  <Name>
ligand

>  <RI>
0

>  <Rbt.Current_Directory>
/home/itssahil/PROJECTS/Mol_Feturizer/New_Systems/rnas/1TN2

>  <Rbt.Executable>
rbdock ($Id: //depot/dev/client3/rdock/2013.1/src/exe/rbdock.cxx#4 $)

>  <Rbt.Library>
libRbt.so (2013.1, Build901 2013/11/27)

>  <Rbt.Parameter_File>
/export/apps/rDock/src/rDock_2013.1_src/data/scripts/dock_solv.prm

>  <Rbt.Receptor>
prm/pocket_docking_4.prm

>  <SCORE>
-8.52103

>  <SCORE.INTER>
-6.11173

>  <SCORE.INTER.CONST>
1

>  <SCORE.INTER.POLAR>
0

>  <SCORE.INTER.ROT>
11

>  <SCORE.INTER.SOLV>
12.8637

>  <SCORE.INTER.VDW>
-19.2957

>  <SCORE.INTER.norm>
-0.436552

>  <SCORE.INTRA>
-2.4093

>  <SCORE.INTRA.DIHEDRAL>
-6.37602

>  <SCORE.INTRA.DIHEDRAL.0>
7.79482

>  <SCORE.INTRA.POLAR>
0

>  <SCORE.INTRA.POLAR.0>
0

>  <SCORE.INTRA.REPUL>
0

>  <SCORE.INTRA.REPUL.0>
0

>  <SCORE.INTRA.SOLV>
1.52322

>  <SCORE.INTRA.SOLV.lig_0>
-49.456

>  <SCORE.INTRA.VDW>
0.0170944

>  <SCORE.INTRA.VDW.0>
-0.478406

>  <SCORE.INTRA.norm>
-0.172093

>  <SCORE.RESTR>
0

>  <SCORE.RESTR.CAVITY>
0

>  <SCORE.RESTR.norm>
0

>  <SCORE.SYSTEM>
0

>  <SCORE.SYSTEM.CONST>
0

>  <SCORE.SYSTEM.DIHEDRAL>
0

>  <SCORE.SYSTEM.SOLV>
0

>  <SCORE.SYSTEM.norm>
0

>  <SCORE.heavy>
14

>  <SCORE.norm>
-0.608645

>  <RMSD>
2.785

$$$$
ligand
 OpenBabel11021811413D
libRbt.so/2013.1/901 2013/11/27
 14 13  0  0  0  0  0  0  0  0999 V2000
   42.0643   10.8710   18.3091 N   0  0  0  0  0  0  0  0  0  0  0  0
   41.1540   10.2056   19.2660 C   0  0  0  0  0  0  0  0  0  0  0  0
   41.5136    8.7134   19.4329 C   0  0  0  0  0  0  0  0  0  0  0  0
   42.9521    8.4512   19.9083 C   0  0  0  0  0  0  0  0  0  0  0  0
   43.2118    6.9918   20.0462 N   0  0  0  0  0  0  0  0  0  0  0  0
   44.3100    6.7553   21.0182 C   0  0  0  0  0  0  0  0  0  0  0  0
   45.7608    6.8551   20.4375 C   0  0  0  0  0  0  0  0  0  0  0  0
   46.0906    5.7788   19.3636 C   0  0  0  0  0  0  0  0  0  0  0  0
   46.0504    4.3559   19.8858 C   0  0  0  0  0  0  0  0  0  0  0  0
   46.3606    3.4724   18.7779 N   0  0  0  0  0  0  0  0  0  0  0  0
   45.4319    2.3606   18.8833 C   0  0  0  0  0  0  0  0  0  0  0  0
   45.7865    1.2434   17.9089 C   0  0  0  0  0  0  0  0  0  0  0  0
   45.5886    1.7875   16.4860 C   0  0  0  0  0  0  0  0  0  0  0  0
   45.8545    0.7684   15.4596 N   0  0  0  0  0  0  0  0  0  0  0  0
  1  2  1  0  0  0  0
  2  3  1  0  0  0  0
  3  4  1  0  0  0  0
  4  5  1  0  0  0  0
  5  6  1  0  0  0  0
  6  7  1  0  0  0  0
  7  8  1  0  0  0  0
  8  9  1  0  0  0  0
  9 10  1  0  0  0  0
 10 11  1  0  0  0  0
 11 12  1  0  0  0  0
 12 13  1  0  0  0  0
 13 14  1  0  0  0  0
M  END
>  <CHROM.1>
57.98068403,179.82253927,-155.51089351,-84.25932536,-63.97715252,-63.06959671
179.35767527,-137.63965021,-171.04875710,-65.58712743,-177.76905992,44.43785713
5.61505981,18.94196572,2.22147041,-0.78873992,0.75968774

>  <Name>
ligand

>  <RI>
0

>  <Rbt.Current_Directory>
/home/itssahil/PROJECTS/Mol_Feturizer/New_Systems/rnas/1TN2

>  <Rbt.Executable>
rbdock ($Id: //depot/dev/client3/rdock/2013.1/src/exe/rbdock.cxx#4 $)

>  <Rbt.Library>
libRbt.so (2013.1, Build901 2013/11/27)

>  <Rbt.Parameter_File>
/export/apps/rDock/src/rDock_2013.1_src/data/scripts/dock_solv.prm

>  <Rbt.Receptor>
prm/pocket_docking_6.prm

>  <SCORE>
-13.6804

>  <SCORE.INTER>
-11.587

>  <SCORE.INTER.CONST>
1

>  <SCORE.INTER.POLAR>
0

>  <SCORE.INTER.ROT>
11

>  <SCORE.INTER.SOLV>
17.5175

>  <SCORE.INTER.VDW>
-24.4971

>  <SCORE.INTER.norm>
-0.827639

>  <SCORE.INTRA>
-2.0935

>  <SCORE.INTRA.DIHEDRAL>
-5.6645

>  <SCORE.INTRA.DIHEDRAL.0>
7.79482

>  <SCORE.INTRA.POLAR>
0

>  <SCORE.INTRA.POLAR.0>
0

>  <SCORE.INTRA.REPUL>
0

>  <SCORE.INTRA.REPUL.0>
0

>  <SCORE.INTRA.SOLV>
1.76248

>  <SCORE.INTRA.SOLV.lig_0>
-49.456

>  <SCORE.INTRA.VDW>
-0.142484

>  <SCORE.INTRA.VDW.0>
-0.478406

>  <SCORE.INTRA.norm>
-0.149535

>  <SCORE.RESTR>
0

>  <SCORE.RESTR.CAVITY>
0

>  <SCORE.RESTR.norm>
0

>  <SCORE.SYSTEM>
0

>  <SCORE.SYSTEM.CONST>
0

>  <SCORE.SYSTEM.DIHEDRAL>
0

>  <SCORE.SYSTEM.SOLV>
0

>  <SCORE.SYSTEM.norm>
0

>  <SCORE.heavy>
14

>  <SCORE.norm>
-0.977175

>  <RMSD>
2.789

$$$$
ligand
 OpenBabel11021811413D
libRbt.so/2013.1/901 2013/11/27
 14 13  0  0  0  0  0  0  0  0999 V2000
   44.9709   10.8894   18.1128 N   0  0  0  0  0  0  0  0  0  0  0  0
   45.3972    9.7335   18.9310 C   0  0  0  0  0  0  0  0  0  0  0  0
   44.1972    8.8302   19.2886 C   0  0  0  0  0  0  0  0  0  0  0  0
   44.5489    7.6155   20.1632 C   0  0  0  0  0  0  0  0  0  0  0  0
   45.5692    6.7574   19.5006 N   0  0  0  0  0  0  0  0  0  0  0  0
   46.0511    5.7135   20.4411 C   0  0  0  0  0  0  0  0  0  0  0  0
   45.3890    4.3031   20.2836 C   0  0  0  0  0  0  0  0  0  0  0  0
   45.7891    3.5558   18.9790 C   0  0  0  0  0  0  0  0  0  0  0  0
   45.1872    2.1699   18.8543 C   0  0  0  0  0  0  0  0  0  0  0  0
   45.5579    1.6452   17.5536 N   0  0  0  0  0  0  0  0  0  0  0  0
   44.3653    1.0035   17.0287 C   0  0  0  0  0  0  0  0  0  0  0  0
   44.6159    0.4033   15.6502 C   0  0  0  0  0  0  0  0  0  0  0  0
   45.5514   -0.8017   15.8310 C   0  0  0  0  0  0  0  0  0  0  0  0
   45.8340   -1.4815   14.5579 N   0  0  0  0  0  0  0  0  0  0  0  0
  1  2  1  0  0  0  0
  2  3  1  0  0  0  0
  3  4  1  0  0  0  0
  4  5  1  0  0  0  0
  5  6  1  0  0  0  0
  6  7  1  0  0  0  0
  7  8  1  0  0  0  0
  8  9  1  0  0  0  0
  9 10  1  0  0  0  0
 10 11  1  0  0  0  0
 11 12  1  0  0  0  0
 12 13  1  0  0  0  0
 13 14  1  0  0  0  0
M  END
>  <CHROM.1>
-178.89084277,-58.14503661,171.18562487,98.48005175,69.64437786,177.85138598
175.52877764,-137.58029327,179.94836150,69.77525745,178.54908527,45.21590160
4.30974353,18.22714484,1.76155308,-1.42409315,0.53227917

>  <Name>
ligand

>  <RI>
0

>  <Rbt.Current_Directory>
/home/itssahil/PROJECTS/Mol_Feturizer/New_Systems/rnas/1TN2

>  <Rbt.Executable>
rbdock ($Id: //depot/dev/client3/rdock/2013.1/src/exe/rbdock.cxx#4 $)

>  <Rbt.Library>
libRbt.so (2013.1, Build901 2013/11/27)

>  <Rbt.Parameter_File>
/export/apps/rDock/src/rDock_2013.1_src/data/scripts/dock_solv.prm

>  <Rbt.Receptor>
prm/blind_docking_80.prm

>  <SCORE>
-9.71614

>  <SCORE.INTER>
-6.95796

>  <SCORE.INTER.CONST>
1

>  <SCORE.INTER.POLAR>
0

>  <SCORE.INTER.ROT>
11

>  <SCORE.INTER.SOLV>
11.011

>  <SCORE.INTER.VDW>
-19.2423

>  <SCORE.INTER.norm>
-0.496997

>  <SCORE.INTRA>
-2.75818

>  <SCORE.INTRA.DIHEDRAL>
-5.09261

>  <SCORE.INTRA.DIHEDRAL.0>
7.79482

>  <SCORE.INTRA.POLAR>
0

>  <SCORE.INTRA.POLAR.0>
0

>  <SCORE.INTRA.REPUL>
0

>  <SCORE.INTRA.REPUL.0>
0

>  <SCORE.INTRA.SOLV>
0.936701

>  <SCORE.INTRA.SOLV.lig_0>
-49.456

>  <SCORE.INTRA.VDW>
-0.680232

>  <SCORE.INTRA.VDW.0>
-0.478406

>  <SCORE.INTRA.norm>
-0.197013

>  <SCORE.RESTR>
0

>  <SCORE.RESTR.CAVITY>
0

>  <SCORE.RESTR.norm>
0

>  <SCORE.SYSTEM>
0

>  <SCORE.SYSTEM.CONST>
0

>  <SCORE.SYSTEM.DIHEDRAL>
0

>  <SCORE.SYSTEM.SOLV>
0

>  <SCORE.SYSTEM.norm>
0

>  <SCORE.heavy>
14

>  <SCORE.norm>
-0.69401

>  <RMSD>
2.790

$$$$
ligand
 OpenBabel11021811413D
libRbt.so/2013.1/901 2013/11/27
 14 13  0  0  0  0  0  0  0  0999 V2000
   45.8460   10.5243   18.1312 N   0  0  0  0  0  0  0  0  0  0  0  0
   46.2117    9.4063   17.2348 C   0  0  0  0  0  0  0  0  0  0  0  0
   47.4199    8.6199   17.7879 C   0  0  0  0  0  0  0  0  0  0  0  0
   47.1373    7.8402   19.0827 C   0  0  0  0  0  0  0  0  0  0  0  0
   46.0947    6.8003   18.8636 N   0  0  0  0  0  0  0  0  0  0  0  0
   45.9133    5.9880   20.0940 C   0  0  0  0  0  0  0  0  0  0  0  0
   46.2473    4.4645   19.9544 C   0  0  0  0  0  0  0  0  0  0  0  0
   45.3948    3.7227   18.8851 C   0  0  0  0  0  0  0  0  0  0  0  0
   45.7194    2.2475   18.7541 C   0  0  0  0  0  0  0  0  0  0  0  0
   44.8287    1.6887   17.7547 N   0  0  0  0  0  0  0  0  0  0  0  0
   45.4984    0.5065   17.2412 C   0  0  0  0  0  0  0  0  0  0  0  0
   44.9019    0.0612   15.9110 C   0  0  0  0  0  0  0  0  0  0  0  0
   45.7035   -1.1565   15.4267 C   0  0  0  0  0  0  0  0  0  0  0  0
   45.5881   -2.2988   16.3456 N   0  0  0  0  0  0  0  0  0  0  0  0
  1  2  1  0  0  0  0
  2  3  1  0  0  0  0
  3  4  1  0  0  0  0
  4  5  1  0  0  0  0
  5  6  1  0  0  0  0
  6  7  1  0  0  0  0
  7  8  1  0  0  0  0
  8  9  1  0  0  0  0
  9 10  1  0  0  0  0
 10 11  1  0  0  0  0
 11 12  1  0  0  0  0
 12 13  1  0  0  0  0
 13 14  1  0  0  0  0
M  END
>  <CHROM.1>
67.61418315,62.31455585,175.51490662,-117.74301003,-59.48285367,-179.91251181
178.51614466,156.13242171,-162.52944535,177.99455558,62.91043031,45.89334447
4.17248655,17.96199394,-0.19320827,-1.45621988,-1.56659553

>  <Name>
ligand

>  <RI>
0

>  <Rbt.Current_Directory>
/home/itssahil/PROJECTS/Mol_Feturizer/New_Systems/rnas/1TN2

>  <Rbt.Executable>
rbdock ($Id: //depot/dev/client3/rdock/2013.1/src/exe/rbdock.cxx#4 $)

>  <Rbt.Library>
libRbt.so (2013.1, Build901 2013/11/27)

>  <Rbt.Parameter_File>
/export/apps/rDock/src/rDock_2013.1_src/data/scripts/dock_solv.prm

>  <Rbt.Receptor>
prm/pocket_docking_2.prm

>  <SCORE>
-5.78955

>  <SCORE.INTER>
-3.68403

>  <SCORE.INTER.CONST>
1

>  <SCORE.INTER.POLAR>
0

>  <SCORE.INTER.ROT>
11

>  <SCORE.INTER.SOLV>
17.6476

>  <SCORE.INTER.VDW>
-19.2719

>  <SCORE.INTER.norm>
-0.263145

>  <SCORE.INTRA>
-2.10872

>  <SCORE.INTRA.DIHEDRAL>
-5.64463

>  <SCORE.INTRA.DIHEDRAL.0>
7.79482

>  <SCORE.INTRA.POLAR>
0

>  <SCORE.INTRA.POLAR.0>
0

>  <SCORE.INTRA.REPUL>
0

>  <SCORE.INTRA.REPUL.0>
0

>  <SCORE.INTRA.SOLV>
2.71129

>  <SCORE.INTRA.SOLV.lig_0>
-49.456

>  <SCORE.INTRA.VDW>
-0.64205

>  <SCORE.INTRA.VDW.0>
-0.478406

>  <SCORE.INTRA.norm>
-0.150623

>  <SCORE.RESTR>
0.00320451

>  <SCORE.RESTR.CAVITY>
0.00320451

>  <SCORE.RESTR.norm>
0.000228894

>  <SCORE.SYSTEM>
0

>  <SCORE.SYSTEM.CONST>
0

>  <SCORE.SYSTEM.DIHEDRAL>
0

>  <SCORE.SYSTEM.SOLV>
0

>  <SCORE.SYSTEM.norm>
0

>  <SCORE.heavy>
14

>  <SCORE.norm>
-0.413539

>  <RMSD>
2.797

$$$$
ligand
 OpenBabel11021811413D
libRbt.so/2013.1/901 2013/11/27
 14 13  0  0  0  0  0  0  0  0999 V2000
   45.5605   10.2842   18.7950 N   0  0  0  0  0  0  0  0  0  0  0  0
   44.4043    9.4874   18.3310 C   0  0  0  0  0  0  0  0  0  0  0  0
   43.6820    8.8099   19.5157 C   0  0  0  0  0  0  0  0  0  0  0  0
   44.5436    7.8083   20.3021 C   0  0  0  0  0  0  0  0  0  0  0  0
   44.9730    6.6767   19.4353 N   0  0  0  0  0  0  0  0  0  0  0  0
   46.0699    5.9171   20.0884 C   0  0  0  0  0  0  0  0  0  0  0  0
   45.8826    4.3631   20.1349 C   0  0  0  0  0  0  0  0  0  0  0  0
   45.9026    3.6790   18.7377 C   0  0  0  0  0  0  0  0  0  0  0  0
   45.6297    2.1881   18.7785 C   0  0  0  0  0  0  0  0  0  0  0  0
   45.7073    1.6899   17.4183 N   0  0  0  0  0  0  0  0  0  0  0  0
   44.5396    0.8454   17.2365 C   0  0  0  0  0  0  0  0  0  0  0  0
   44.5093    0.2280   15.8432 C   0  0  0  0  0  0  0  0  0  0  0  0
   45.6357   -0.8141   15.7721 C   0  0  0  0  0  0  0  0  0  0  0  0
   45.7348   -1.4352   14.4428 N   0  0  0  0  0  0  0  0  0  0  0  0
  1  2  1  0  0  0  0
  2  3  1  0  0  0  0
  3  4  1  0  0  0  0
  4  5  1  0  0  0  0
  5  6  1  0  0  0  0
  6  7  1  0  0  0  0
  7  8  1  0  0  0  0
  8  9  1  0  0  0  0
  9 10  1  0  0  0  0
 10 11  1  0  0  0  0
 11 12  1  0  0  0  0
 12 13  1  0  0  0  0
 13 14  1  0  0  0  0
M  END
>  <CHROM.1>
-62.00113910,-62.07131054,165.43522465,130.82573497,65.83903386,-176.16805886
-178.86630843,-133.42224222,-178.89620383,70.23679007,-177.55063283,45.19808002
4.26624411,18.20253301,1.75012816,-1.24861357,0.53278304

>  <Name>
ligand

>  <RI>
0

>  <Rbt.Current_Directory>
/home/itssahil/PROJECTS/Mol_Feturizer/New_Systems/rnas/1TN2

>  <Rbt.Executable>
rbdock ($Id: //depot/dev/client3/rdock/2013.1/src/exe/rbdock.cxx#4 $)

>  <Rbt.Library>
libRbt.so (2013.1, Build901 2013/11/27)

>  <Rbt.Parameter_File>
/export/apps/rDock/src/rDock_2013.1_src/data/scripts/dock_solv.prm

>  <Rbt.Receptor>
prm/pocket_docking_4.prm

>  <SCORE>
-9.48569

>  <SCORE.INTER>
-7.57527

>  <SCORE.INTER.CONST>
1

>  <SCORE.INTER.POLAR>
0

>  <SCORE.INTER.ROT>
11

>  <SCORE.INTER.SOLV>
11.1925

>  <SCORE.INTER.VDW>
-19.7143

>  <SCORE.INTER.norm>
-0.541091

>  <SCORE.INTRA>
-1.91041

>  <SCORE.INTRA.DIHEDRAL>
-4.82833

>  <SCORE.INTRA.DIHEDRAL.0>
7.79482

>  <SCORE.INTRA.POLAR>
0

>  <SCORE.INTRA.POLAR.0>
0

>  <SCORE.INTRA.REPUL>
0

>  <SCORE.INTRA.REPUL.0>
0

>  <SCORE.INTRA.SOLV>
2.46576

>  <SCORE.INTRA.SOLV.lig_0>
-49.456

>  <SCORE.INTRA.VDW>
-0.729127

>  <SCORE.INTRA.VDW.0>
-0.478406

>  <SCORE.INTRA.norm>
-0.136458

>  <SCORE.RESTR>
0

>  <SCORE.RESTR.CAVITY>
0

>  <SCORE.RESTR.norm>
0

>  <SCORE.SYSTEM>
0

>  <SCORE.SYSTEM.CONST>
0

>  <SCORE.SYSTEM.DIHEDRAL>
0

>  <SCORE.SYSTEM.SOLV>
0

>  <SCORE.SYSTEM.norm>
0

>  <SCORE.heavy>
14

>  <SCORE.norm>
-0.677549

>  <RMSD>
2.799

$$$$
ligand
 OpenBabel11021811413D
libRbt.so/2013.1/901 2013/11/27
 14 13  0  0  0  0  0  0  0  0999 V2000
   45.4203   -0.5225   15.5117 N   0  0  0  0  0  0  0  0  0  0  0  0
   44.4763    0.5472   15.9012 C   0  0  0  0  0  0  0  0  0  0  0  0
   44.8011    1.0929   17.3086 C   0  0  0  0  0  0  0  0  0  0  0  0
   46.1908    1.7374   17.4398 C   0  0  0  0  0  0  0  0  0  0  0  0
   46.3650    2.3638   18.7791 N   0  0  0  0  0  0  0  0  0  0  0  0
   45.8964    3.7732   18.7516 C   0  0  0  0  0  0  0  0  0  0  0  0
   46.0213    4.5543   20.1031 C   0  0  0  0  0  0  0  0  0  0  0  0
   45.5490    6.0347   20.0269 C   0  0  0  0  0  0  0  0  0  0  0  0
   46.4013    6.9071   19.1261 C   0  0  0  0  0  0  0  0  0  0  0  0
   45.6439    8.1094   18.8342 N   0  0  0  0  0  0  0  0  0  0  0  0
   46.5788    9.2123   18.9730 C   0  0  0  0  0  0  0  0  0  0  0  0
   46.8983    9.8457   17.6239 C   0  0  0  0  0  0  0  0  0  0  0  0
   47.9520    8.9652   16.9351 C   0  0  0  0  0  0  0  0  0  0  0  0
   47.3879    7.6933   16.4591 N   0  0  0  0  0  0  0  0  0  0  0  0
  1  2  1  0  0  0  0
  2  3  1  0  0  0  0
  3  4  1  0  0  0  0
  4  5  1  0  0  0  0
  5  6  1  0  0  0  0
  6  7  1  0  0  0  0
  7  8  1  0  0  0  0
  8  9  1  0  0  0  0
  9 10  1  0  0  0  0
 10 11  1  0  0  0  0
 11 12  1  0  0  0  0
 12 13  1  0  0  0  0
 13 14  1  0  0  0  0
M  END
>  <CHROM.1>
61.72113699,173.92342062,-89.14687373,179.92115207,178.76414002,-65.45173746
163.25197591,135.96645106,110.45373534,-80.44593038,72.34761973,46.11299556
5.02267455,17.98406097,-2.26505668,1.27870523,0.84037395

>  <Name>
ligand

>  <RI>
0

>  <Rbt.Current_Directory>
/home/itssahil/PROJECTS/Mol_Feturizer/New_Systems/rnas/1TN2

>  <Rbt.Executable>
rbdock ($Id: //depot/dev/client3/rdock/2013.1/src/exe/rbdock.cxx#4 $)

>  <Rbt.Library>
libRbt.so (2013.1, Build901 2013/11/27)

>  <Rbt.Parameter_File>
/export/apps/rDock/src/rDock_2013.1_src/data/scripts/dock_solv.prm

>  <Rbt.Receptor>
prm/pocket_docking_2.prm

>  <SCORE>
-2.47613

>  <SCORE.INTER>
-3.98682

>  <SCORE.INTER.CONST>
1

>  <SCORE.INTER.POLAR>
0

>  <SCORE.INTER.ROT>
11

>  <SCORE.INTER.SOLV>
12.1859

>  <SCORE.INTER.VDW>
-17.6532

>  <SCORE.INTER.norm>
-0.284773

>  <SCORE.INTRA>
1.50493

>  <SCORE.INTRA.DIHEDRAL>
-1.82531

>  <SCORE.INTRA.DIHEDRAL.0>
7.79482

>  <SCORE.INTRA.POLAR>
0

>  <SCORE.INTRA.POLAR.0>
0

>  <SCORE.INTRA.REPUL>
0

>  <SCORE.INTRA.REPUL.0>
0

>  <SCORE.INTRA.SOLV>
4.70522

>  <SCORE.INTRA.SOLV.lig_0>
-49.456

>  <SCORE.INTRA.VDW>
0.0649711

>  <SCORE.INTRA.VDW.0>
-0.478406

>  <SCORE.INTRA.norm>
0.107495

>  <SCORE.RESTR>
0.0057592

>  <SCORE.RESTR.CAVITY>
0.0057592

>  <SCORE.RESTR.norm>
0.000411371

>  <SCORE.SYSTEM>
0

>  <SCORE.SYSTEM.CONST>
0

>  <SCORE.SYSTEM.DIHEDRAL>
0

>  <SCORE.SYSTEM.SOLV>
0

>  <SCORE.SYSTEM.norm>
0

>  <SCORE.heavy>
14

>  <SCORE.norm>
-0.176867

>  <RMSD>
2.800

$$$$
ligand
 OpenBabel11021811413D
libRbt.so/2013.1/901 2013/11/27
 14 13  0  0  0  0  0  0  0  0999 V2000
   42.5928   12.7035   18.1529 N   0  0  0  0  0  0  0  0  0  0  0  0
   41.7186   11.6222   17.6493 C   0  0  0  0  0  0  0  0  0  0  0  0
   41.6532   10.4466   18.6482 C   0  0  0  0  0  0  0  0  0  0  0  0
   42.9975    9.7432   18.8974 C   0  0  0  0  0  0  0  0  0  0  0  0
   42.8139    8.5150   19.7185 N   0  0  0  0  0  0  0  0  0  0  0  0
   44.1272    8.0252   20.2104 C   0  0  0  0  0  0  0  0  0  0  0  0
   44.3412    6.4756   20.1396 C   0  0  0  0  0  0  0  0  0  0  0  0
   45.7746    6.0139   20.5302 C   0  0  0  0  0  0  0  0  0  0  0  0
   46.0128    4.5273   20.3506 C   0  0  0  0  0  0  0  0  0  0  0  0
   46.0073    4.2503   18.9267 N   0  0  0  0  0  0  0  0  0  0  0  0
   45.9958    2.8032   18.8027 C   0  0  0  0  0  0  0  0  0  0  0  0
   45.7857    2.3689   17.3569 C   0  0  0  0  0  0  0  0  0  0  0  0
   47.0415    2.7649   16.5656 C   0  0  0  0  0  0  0  0  0  0  0  0
   46.9744    2.3294   15.1625 N   0  0  0  0  0  0  0  0  0  0  0  0
  1  2  1  0  0  0  0
  2  3  1  0  0  0  0
  3  4  1  0  0  0  0
  4  5  1  0  0  0  0
  5  6  1  0  0  0  0
  6  7  1  0  0  0  0
  7  8  1  0  0  0  0
  8  9  1  0  0  0  0
  9 10  1  0  0  0  0
 10 11  1  0  0  0  0
 11 12  1  0  0  0  0
 12 13  1  0  0  0  0
 13 14  1  0  0  0  0
M  END
>  <CHROM.1>
-62.77011550,-172.16303117,-167.01694282,-137.63235404,174.28294312,-175.19607512
68.71050904,-170.03243415,171.76220740,68.15741894,177.10925685,44.55973533
6.61337035,18.65108961,2.97996082,-1.09475894,1.52055606

>  <Name>
ligand

>  <RI>
0

>  <Rbt.Current_Directory>
/home/itssahil/PROJECTS/Mol_Feturizer/New_Systems/rnas/1TN2

>  <Rbt.Executable>
rbdock ($Id: //depot/dev/client3/rdock/2013.1/src/exe/rbdock.cxx#4 $)

>  <Rbt.Library>
libRbt.so (2013.1, Build901 2013/11/27)

>  <Rbt.Parameter_File>
/export/apps/rDock/src/rDock_2013.1_src/data/scripts/dock_solv.prm

>  <Rbt.Receptor>
prm/pocket_docking_5.prm

>  <SCORE>
-11.3039

>  <SCORE.INTER>
-8.63068

>  <SCORE.INTER.CONST>
1

>  <SCORE.INTER.POLAR>
0

>  <SCORE.INTER.ROT>
11

>  <SCORE.INTER.SOLV>
14.8098

>  <SCORE.INTER.VDW>
-21.6237

>  <SCORE.INTER.norm>
-0.616477

>  <SCORE.INTRA>
-2.67319

>  <SCORE.INTRA.DIHEDRAL>
-5.52591

>  <SCORE.INTRA.DIHEDRAL.0>
7.79482

>  <SCORE.INTRA.POLAR>
0

>  <SCORE.INTRA.POLAR.0>
0

>  <SCORE.INTRA.REPUL>
0

>  <SCORE.INTRA.REPUL.0>
0

>  <SCORE.INTRA.SOLV>
1.38502

>  <SCORE.INTRA.SOLV.lig_0>
-49.456

>  <SCORE.INTRA.VDW>
-0.602748

>  <SCORE.INTRA.VDW.0>
-0.478406

>  <SCORE.INTRA.norm>
-0.190942

>  <SCORE.RESTR>
0

>  <SCORE.RESTR.CAVITY>
0

>  <SCORE.RESTR.norm>
0

>  <SCORE.SYSTEM>
0

>  <SCORE.SYSTEM.CONST>
0

>  <SCORE.SYSTEM.DIHEDRAL>
0

>  <SCORE.SYSTEM.SOLV>
0

>  <SCORE.SYSTEM.norm>
0

>  <SCORE.heavy>
14

>  <SCORE.norm>
-0.80742

>  <RMSD>
2.809

$$$$
ligand
 OpenBabel11021811413D
libRbt.so/2013.1/901 2013/11/27
 14 13  0  0  0  0  0  0  0  0999 V2000
   41.6756   11.3880   18.2713 N   0  0  0  0  0  0  0  0  0  0  0  0
   41.5105   10.1366   19.0420 C   0  0  0  0  0  0  0  0  0  0  0  0
   42.8657    9.4269   19.2507 C   0  0  0  0  0  0  0  0  0  0  0  0
   42.7867    8.1220   20.0600 C   0  0  0  0  0  0  0  0  0  0  0  0
   44.1369    7.5200   20.2365 N   0  0  0  0  0  0  0  0  0  0  0  0
   44.0974    6.4695   21.2861 C   0  0  0  0  0  0  0  0  0  0  0  0
   43.9689    4.9980   20.7661 C   0  0  0  0  0  0  0  0  0  0  0  0
   45.1947    4.5054   19.9444 C   0  0  0  0  0  0  0  0  0  0  0  0
   44.9891    3.1583   19.2798 C   0  0  0  0  0  0  0  0  0  0  0  0
   46.1796    2.8644   18.5047 N   0  0  0  0  0  0  0  0  0  0  0  0
   45.7250    2.1180   17.3446 C   0  0  0  0  0  0  0  0  0  0  0  0
   45.7176    0.6179   17.6144 C   0  0  0  0  0  0  0  0  0  0  0  0
   45.1082   -0.0725   16.3848 C   0  0  0  0  0  0  0  0  0  0  0  0
   45.9058    0.1515   15.1697 N   0  0  0  0  0  0  0  0  0  0  0  0
  1  2  1  0  0  0  0
  2  3  1  0  0  0  0
  3  4  1  0  0  0  0
  4  5  1  0  0  0  0
  5  6  1  0  0  0  0
  6  7  1  0  0  0  0
  7  8  1  0  0  0  0
  8  9  1  0  0  0  0
  9 10  1  0  0  0  0
 10 11  1  0  0  0  0
 11 12  1  0  0  0  0
 12 13  1  0  0  0  0
 13 14  1  0  0  0  0
M  END
>  <CHROM.1>
179.29091038,-178.85990460,165.88616741,97.93712655,65.10024360,-171.86453244
177.28175626,-146.71376274,-90.03039895,175.03696360,62.08834929,44.27575763
5.10012292,18.79709832,2.45218476,-1.11536246,1.10574294

>  <Name>
ligand

>  <RI>
0

>  <Rbt.Current_Directory>
/home/itssahil/PROJECTS/Mol_Feturizer/New_Systems/rnas/1TN2

>  <Rbt.Executable>
rbdock ($Id: //depot/dev/client3/rdock/2013.1/src/exe/rbdock.cxx#4 $)

>  <Rbt.Library>
libRbt.so (2013.1, Build901 2013/11/27)

>  <Rbt.Parameter_File>
/export/apps/rDock/src/rDock_2013.1_src/data/scripts/dock_solv.prm

>  <Rbt.Receptor>
prm/pocket_docking_8.prm

>  <SCORE>
-11.0375

>  <SCORE.INTER>
-8.99565

>  <SCORE.INTER.CONST>
1

>  <SCORE.INTER.POLAR>
0

>  <SCORE.INTER.ROT>
11

>  <SCORE.INTER.SOLV>
17.2796

>  <SCORE.INTER.VDW>
-22.6903

>  <SCORE.INTER.norm>
-0.642546

>  <SCORE.INTRA>
-2.04186

>  <SCORE.INTRA.DIHEDRAL>
-4.97722

>  <SCORE.INTRA.DIHEDRAL.0>
7.79482

>  <SCORE.INTRA.POLAR>
0

>  <SCORE.INTRA.POLAR.0>
0

>  <SCORE.INTRA.REPUL>
0

>  <SCORE.INTRA.REPUL.0>
0

>  <SCORE.INTRA.SOLV>
1.12961

>  <SCORE.INTRA.SOLV.lig_0>
-49.456

>  <SCORE.INTRA.VDW>
-0.118053

>  <SCORE.INTRA.VDW.0>
-0.478406

>  <SCORE.INTRA.norm>
-0.145847

>  <SCORE.RESTR>
0

>  <SCORE.RESTR.CAVITY>
0

>  <SCORE.RESTR.norm>
0

>  <SCORE.SYSTEM>
0

>  <SCORE.SYSTEM.CONST>
0

>  <SCORE.SYSTEM.DIHEDRAL>
0

>  <SCORE.SYSTEM.SOLV>
0

>  <SCORE.SYSTEM.norm>
0

>  <SCORE.heavy>
14

>  <SCORE.norm>
-0.788393

>  <RMSD>
2.822

$$$$
ligand
 OpenBabel11021811413D
libRbt.so/2013.1/901 2013/11/27
 14 13  0  0  0  0  0  0  0  0999 V2000
   41.6862   11.2620   18.4263 N   0  0  0  0  0  0  0  0  0  0  0  0
   41.5609   10.0127   19.2078 C   0  0  0  0  0  0  0  0  0  0  0  0
   42.8875    9.2228   19.2137 C   0  0  0  0  0  0  0  0  0  0  0  0
   42.8506    7.9162   20.0234 C   0  0  0  0  0  0  0  0  0  0  0  0
   44.1506    7.1960   19.9352 N   0  0  0  0  0  0  0  0  0  0  0  0
   44.2036    6.1069   20.9441 C   0  0  0  0  0  0  0  0  0  0  0  0
   45.5642    5.3374   21.0383 C   0  0  0  0  0  0  0  0  0  0  0  0
   45.9434    4.5574   19.7467 C   0  0  0  0  0  0  0  0  0  0  0  0
   44.9905    3.4280   19.4075 C   0  0  0  0  0  0  0  0  0  0  0  0
   45.6130    2.6235   18.3732 N   0  0  0  0  0  0  0  0  0  0  0  0
   44.6649    1.5668   18.0663 C   0  0  0  0  0  0  0  0  0  0  0  0
   45.3267    0.4303   17.2957 C   0  0  0  0  0  0  0  0  0  0  0  0
   45.8182    1.0012   15.9568 C   0  0  0  0  0  0  0  0  0  0  0  0
   44.7067    1.4226   15.0911 N   0  0  0  0  0  0  0  0  0  0  0  0
  1  2  1  0  0  0  0
  2  3  1  0  0  0  0
  3  4  1  0  0  0  0
  4  5  1  0  0  0  0
  5  6  1  0  0  0  0
  6  7  1  0  0  0  0
  7  8  1  0  0  0  0
  8  9  1  0  0  0  0
  9 10  1  0  0  0  0
 10 11  1  0  0  0  0
 11 12  1  0  0  0  0
 12 13  1  0  0  0  0
 13 14  1  0  0  0  0
M  END
>  <CHROM.1>
179.15136900,177.94287779,167.69919996,-175.37851679,-63.76196185,-64.49730148
-167.89049220,-179.31209936,-163.90962807,-62.78138817,-66.03569905,44.28345321
5.14864342,18.76647008,2.21794105,-1.00881842,0.85080319

>  <Name>
ligand

>  <RI>
0

>  <Rbt.Current_Directory>
/home/itssahil/PROJECTS/Mol_Feturizer/New_Systems/rnas/1TN2

>  <Rbt.Executable>
rbdock ($Id: //depot/dev/client3/rdock/2013.1/src/exe/rbdock.cxx#4 $)

>  <Rbt.Library>
libRbt.so (2013.1, Build901 2013/11/27)

>  <Rbt.Parameter_File>
/export/apps/rDock/src/rDock_2013.1_src/data/scripts/dock_solv.prm

>  <Rbt.Receptor>
prm/pocket_docking_6.prm

>  <SCORE>
-11.5752

>  <SCORE.INTER>
-9.21893

>  <SCORE.INTER.CONST>
1

>  <SCORE.INTER.POLAR>
0

>  <SCORE.INTER.ROT>
11

>  <SCORE.INTER.SOLV>
17.8371

>  <SCORE.INTER.VDW>
-23.025

>  <SCORE.INTER.norm>
-0.658495

>  <SCORE.INTRA>
-2.35629

>  <SCORE.INTRA.DIHEDRAL>
-6.59722

>  <SCORE.INTRA.DIHEDRAL.0>
7.79482

>  <SCORE.INTRA.POLAR>
0

>  <SCORE.INTRA.POLAR.0>
0

>  <SCORE.INTRA.REPUL>
0

>  <SCORE.INTRA.REPUL.0>
0

>  <SCORE.INTRA.SOLV>
2.4117

>  <SCORE.INTRA.SOLV.lig_0>
-49.456

>  <SCORE.INTRA.VDW>
-0.263524

>  <SCORE.INTRA.VDW.0>
-0.478406

>  <SCORE.INTRA.norm>
-0.168306

>  <SCORE.RESTR>
0

>  <SCORE.RESTR.CAVITY>
0

>  <SCORE.RESTR.norm>
0

>  <SCORE.SYSTEM>
0

>  <SCORE.SYSTEM.CONST>
0

>  <SCORE.SYSTEM.DIHEDRAL>
0

>  <SCORE.SYSTEM.SOLV>
0

>  <SCORE.SYSTEM.norm>
0

>  <SCORE.heavy>
14

>  <SCORE.norm>
-0.826801

>  <RMSD>
2.830

$$$$
ligand
 OpenBabel11021811413D
libRbt.so/2013.1/901 2013/11/27
 14 13  0  0  0  0  0  0  0  0999 V2000
   46.8126   10.2237   17.6140 N   0  0  0  0  0  0  0  0  0  0  0  0
   45.6540   10.2097   18.5330 C   0  0  0  0  0  0  0  0  0  0  0  0
   45.1876    8.7663   18.8211 C   0  0  0  0  0  0  0  0  0  0  0  0
   43.9622    8.6620   19.7438 C   0  0  0  0  0  0  0  0  0  0  0  0
   43.6033    7.2394   19.9969 N   0  0  0  0  0  0  0  0  0  0  0  0
   44.4639    6.6756   21.0684 C   0  0  0  0  0  0  0  0  0  0  0  0
   44.9891    5.2215   20.8197 C   0  0  0  0  0  0  0  0  0  0  0  0
   45.9053    5.0822   19.5701 C   0  0  0  0  0  0  0  0  0  0  0  0
   46.2610    3.6494   19.2243 C   0  0  0  0  0  0  0  0  0  0  0  0
   45.0563    3.0023   18.7403 N   0  0  0  0  0  0  0  0  0  0  0  0
   45.3295    1.5761   18.7744 C   0  0  0  0  0  0  0  0  0  0  0  0
   44.8160    0.8798   17.5195 C   0  0  0  0  0  0  0  0  0  0  0  0
   45.6737    1.3585   16.3384 C   0  0  0  0  0  0  0  0  0  0  0  0
   45.2617    0.7438   15.0675 N   0  0  0  0  0  0  0  0  0  0  0  0
  1  2  1  0  0  0  0
  2  3  1  0  0  0  0
  3  4  1  0  0  0  0
  4  5  1  0  0  0  0
  5  6  1  0  0  0  0
  6  7  1  0  0  0  0
  7  8  1  0  0  0  0
  8  9  1  0  0  0  0
  9 10  1  0  0  0  0
 10 11  1  0  0  0  0
 11 12  1  0  0  0  0
 12 13  1  0  0  0  0
 13 14  1  0  0  0  0
M  END
>  <CHROM.1>
-178.58379314,-178.51380810,81.65393759,-138.12614203,62.45941794,-172.25416562
69.56126060,-164.59150727,-137.32044487,68.18414433,179.96983438,45.21259563
5.23499295,18.70259392,-1.61860424,-1.24078495,-2.93402083

>  <Name>
ligand

>  <RI>
0

>  <Rbt.Current_Directory>
/home/itssahil/PROJECTS/Mol_Feturizer/New_Systems/rnas/1TN2

>  <Rbt.Executable>
rbdock ($Id: //depot/dev/client3/rdock/2013.1/src/exe/rbdock.cxx#4 $)

>  <Rbt.Library>
libRbt.so (2013.1, Build901 2013/11/27)

>  <Rbt.Parameter_File>
/export/apps/rDock/src/rDock_2013.1_src/data/scripts/dock_solv.prm

>  <Rbt.Receptor>
prm/pocket_docking_4.prm

>  <SCORE>
-9.18891

>  <SCORE.INTER>
-6.87128

>  <SCORE.INTER.CONST>
1

>  <SCORE.INTER.POLAR>
0

>  <SCORE.INTER.ROT>
11

>  <SCORE.INTER.SOLV>
11.0929

>  <SCORE.INTER.VDW>
-19.2118

>  <SCORE.INTER.norm>
-0.490805

>  <SCORE.INTRA>
-2.31763

>  <SCORE.INTRA.DIHEDRAL>
-4.46939

>  <SCORE.INTRA.DIHEDRAL.0>
7.79482

>  <SCORE.INTRA.POLAR>
0

>  <SCORE.INTRA.POLAR.0>
0

>  <SCORE.INTRA.REPUL>
0

>  <SCORE.INTRA.REPUL.0>
0

>  <SCORE.INTRA.SOLV>
1.06737

>  <SCORE.INTRA.SOLV.lig_0>
-49.456

>  <SCORE.INTRA.VDW>
-0.616628

>  <SCORE.INTRA.VDW.0>
-0.478406

>  <SCORE.INTRA.norm>
-0.165545

>  <SCORE.RESTR>
0

>  <SCORE.RESTR.CAVITY>
0

>  <SCORE.RESTR.norm>
0

>  <SCORE.SYSTEM>
0

>  <SCORE.SYSTEM.CONST>
0

>  <SCORE.SYSTEM.DIHEDRAL>
0

>  <SCORE.SYSTEM.SOLV>
0

>  <SCORE.SYSTEM.norm>
0

>  <SCORE.heavy>
14

>  <SCORE.norm>
-0.656351

>  <RMSD>
2.840

$$$$
ligand
 OpenBabel11021811413D
libRbt.so/2013.1/901 2013/11/27
 14 13  0  0  0  0  0  0  0  0999 V2000
   46.3294   10.9856   18.2066 N   0  0  0  0  0  0  0  0  0  0  0  0
   46.2527    9.8707   19.1751 C   0  0  0  0  0  0  0  0  0  0  0  0
   44.8787    9.1693   19.1109 C   0  0  0  0  0  0  0  0  0  0  0  0
   44.7330    7.9601   20.0494 C   0  0  0  0  0  0  0  0  0  0  0  0
   45.7140    6.8947   19.7045 N   0  0  0  0  0  0  0  0  0  0  0  0
   45.6171    5.7740   20.6748 C   0  0  0  0  0  0  0  0  0  0  0  0
   46.3041    4.4372   20.2353 C   0  0  0  0  0  0  0  0  0  0  0  0
   45.6796    3.7894   18.9661 C   0  0  0  0  0  0  0  0  0  0  0  0
   46.3064    2.4641   18.5796 C   0  0  0  0  0  0  0  0  0  0  0  0
   45.6204    1.9823   17.3957 N   0  0  0  0  0  0  0  0  0  0  0  0
   45.6291    0.5331   17.4927 C   0  0  0  0  0  0  0  0  0  0  0  0
   45.0098   -0.1122   16.2585 C   0  0  0  0  0  0  0  0  0  0  0  0
   45.9616    0.1342   15.0781 C   0  0  0  0  0  0  0  0  0  0  0  0
   45.4780   -0.4864   13.8357 N   0  0  0  0  0  0  0  0  0  0  0  0
  1  2  1  0  0  0  0
  2  3  1  0  0  0  0
  3  4  1  0  0  0  0
  4  5  1  0  0  0  0
  5  6  1  0  0  0  0
  6  7  1  0  0  0  0
  7  8  1  0  0  0  0
  8  9  1  0  0  0  0
  9 10  1  0  0  0  0
 10 11  1  0  0  0  0
 11 12  1  0  0  0  0
 12 13  1  0  0  0  0
 13 14  1  0  0  0  0
M  END
>  <CHROM.1>
177.71886189,-61.80275011,176.37087293,164.55828466,-63.37555794,-177.40284263
179.59481427,-147.68577780,-176.47370418,68.96988851,178.23158099,45.67951613
4.52815669,18.19774098,0.08340430,-1.56049774,-1.11337571

>  <Name>
ligand

>  <RI>
0

>  <Rbt.Current_Directory>
/home/itssahil/PROJECTS/Mol_Feturizer/New_Systems/rnas/1TN2

>  <Rbt.Executable>
rbdock ($Id: //depot/dev/client3/rdock/2013.1/src/exe/rbdock.cxx#4 $)

>  <Rbt.Library>
libRbt.so (2013.1, Build901 2013/11/27)

>  <Rbt.Parameter_File>
/export/apps/rDock/src/rDock_2013.1_src/data/scripts/dock_solv.prm

>  <Rbt.Receptor>
prm/pocket_docking_5.prm

>  <SCORE>
-10.2643

>  <SCORE.INTER>
-6.7482

>  <SCORE.INTER.CONST>
1

>  <SCORE.INTER.POLAR>
0

>  <SCORE.INTER.ROT>
11

>  <SCORE.INTER.SOLV>
9.07286

>  <SCORE.INTER.VDW>
-18.4564

>  <SCORE.INTER.norm>
-0.482014

>  <SCORE.INTRA>
-3.51609

>  <SCORE.INTRA.DIHEDRAL>
-6.50114

>  <SCORE.INTRA.DIHEDRAL.0>
7.79482

>  <SCORE.INTRA.POLAR>
0

>  <SCORE.INTRA.POLAR.0>
0

>  <SCORE.INTRA.REPUL>
0

>  <SCORE.INTRA.REPUL.0>
0

>  <SCORE.INTRA.SOLV>
0.965315

>  <SCORE.INTRA.SOLV.lig_0>
-49.456

>  <SCORE.INTRA.VDW>
-0.74818

>  <SCORE.INTRA.VDW.0>
-0.478406

>  <SCORE.INTRA.norm>
-0.25115

>  <SCORE.RESTR>
0

>  <SCORE.RESTR.CAVITY>
0

>  <SCORE.RESTR.norm>
0

>  <SCORE.SYSTEM>
0

>  <SCORE.SYSTEM.CONST>
0

>  <SCORE.SYSTEM.DIHEDRAL>
0

>  <SCORE.SYSTEM.SOLV>
0

>  <SCORE.SYSTEM.norm>
0

>  <SCORE.heavy>
14

>  <SCORE.norm>
-0.733164

>  <RMSD>
2.853

$$$$
ligand
 OpenBabel11021811413D
libRbt.so/2013.1/901 2013/11/27
 14 13  0  0  0  0  0  0  0  0999 V2000
   45.1133    1.4685   16.4711 N   0  0  0  0  0  0  0  0  0  0  0  0
   45.6996    0.8967   17.7025 C   0  0  0  0  0  0  0  0  0  0  0  0
   46.5550    1.9418   18.4508 C   0  0  0  0  0  0  0  0  0  0  0  0
   45.7657    3.1445   18.9936 C   0  0  0  0  0  0  0  0  0  0  0  0
   46.6526    4.0655   19.7562 N   0  0  0  0  0  0  0  0  0  0  0  0
   45.8609    4.8340   20.7509 C   0  0  0  0  0  0  0  0  0  0  0  0
   44.8347    5.8559   20.1554 C   0  0  0  0  0  0  0  0  0  0  0  0
   43.8939    6.5009   21.2133 C   0  0  0  0  0  0  0  0  0  0  0  0
   42.8112    7.3806   20.6194 C   0  0  0  0  0  0  0  0  0  0  0  0
   43.4643    8.4885   19.9482 N   0  0  0  0  0  0  0  0  0  0  0  0
   42.3965    9.3112   19.4071 C   0  0  0  0  0  0  0  0  0  0  0  0
   42.9454   10.4354   18.5363 C   0  0  0  0  0  0  0  0  0  0  0  0
   41.7657   11.3383   18.1449 C   0  0  0  0  0  0  0  0  0  0  0  0
   42.1961   12.5063   17.3618 N   0  0  0  0  0  0  0  0  0  0  0  0
  1  2  1  0  0  0  0
  2  3  1  0  0  0  0
  3  4  1  0  0  0  0
  4  5  1  0  0  0  0
  5  6  1  0  0  0  0
  6  7  1  0  0  0  0
  7  8  1  0  0  0  0
  8  9  1  0  0  0  0
  9 10  1  0  0  0  0
 10 11  1  0  0  0  0
 11 12  1  0  0  0  0
 12 13  1  0  0  0  0
 13 14  1  0  0  0  0
M  END
>  <CHROM.1>
64.69204617,177.19178959,-154.50578718,-66.99024115,172.23171001,-174.10741100
-63.16443524,-179.42952172,-173.59316906,-173.65311378,176.73506020,44.28247535
6.29758723,19.10826226,0.43217910,1.13373323,-2.01341033

>  <Name>
ligand

>  <RI>
0

>  <Rbt.Current_Directory>
/home/itssahil/PROJECTS/Mol_Feturizer/New_Systems/rnas/1TN2

>  <Rbt.Executable>
rbdock ($Id: //depot/dev/client3/rdock/2013.1/src/exe/rbdock.cxx#4 $)

>  <Rbt.Library>
libRbt.so (2013.1, Build901 2013/11/27)

>  <Rbt.Parameter_File>
/export/apps/rDock/src/rDock_2013.1_src/data/scripts/dock_solv.prm

>  <Rbt.Receptor>
prm/blind_docking_60.prm

>  <SCORE>
-13.963

>  <SCORE.INTER>
-11.0901

>  <SCORE.INTER.CONST>
1

>  <SCORE.INTER.POLAR>
0

>  <SCORE.INTER.ROT>
11

>  <SCORE.INTER.SOLV>
17.9167

>  <SCORE.INTER.VDW>
-24.299

>  <SCORE.INTER.norm>
-0.792149

>  <SCORE.INTRA>
-2.87291

>  <SCORE.INTRA.DIHEDRAL>
-6.55024

>  <SCORE.INTRA.DIHEDRAL.0>
7.79482

>  <SCORE.INTRA.POLAR>
0

>  <SCORE.INTRA.POLAR.0>
0

>  <SCORE.INTRA.REPUL>
0

>  <SCORE.INTRA.REPUL.0>
0

>  <SCORE.INTRA.SOLV>
1.01719

>  <SCORE.INTRA.SOLV.lig_0>
-49.456

>  <SCORE.INTRA.VDW>
-0.106387

>  <SCORE.INTRA.VDW.0>
-0.478406

>  <SCORE.INTRA.norm>
-0.205208

>  <SCORE.RESTR>
0

>  <SCORE.RESTR.CAVITY>
0

>  <SCORE.RESTR.norm>
0

>  <SCORE.SYSTEM>
0

>  <SCORE.SYSTEM.CONST>
0

>  <SCORE.SYSTEM.DIHEDRAL>
0

>  <SCORE.SYSTEM.SOLV>
0

>  <SCORE.SYSTEM.norm>
0

>  <SCORE.heavy>
14

>  <SCORE.norm>
-0.997357

>  <RMSD>
2.872

$$$$
ligand
 OpenBabel11021811413D
libRbt.so/2013.1/901 2013/11/27
 14 13  0  0  0  0  0  0  0  0999 V2000
   45.9102   11.1486   16.8132 N   0  0  0  0  0  0  0  0  0  0  0  0
   45.6617    9.8470   17.4699 C   0  0  0  0  0  0  0  0  0  0  0  0
   44.4614    9.9303   18.4375 C   0  0  0  0  0  0  0  0  0  0  0  0
   44.1669    8.6310   19.2050 C   0  0  0  0  0  0  0  0  0  0  0  0
   45.2990    8.2724   20.1030 N   0  0  0  0  0  0  0  0  0  0  0  0
   45.2236    6.8365   20.4759 C   0  0  0  0  0  0  0  0  0  0  0  0
   43.9660    6.4192   21.3105 C   0  0  0  0  0  0  0  0  0  0  0  0
   43.9777    4.9353   21.7778 C   0  0  0  0  0  0  0  0  0  0  0  0
   43.9224    3.9319   20.6424 C   0  0  0  0  0  0  0  0  0  0  0  0
   45.2316    3.9021   20.0183 N   0  0  0  0  0  0  0  0  0  0  0  0
   45.0820    3.0979   18.8180 C   0  0  0  0  0  0  0  0  0  0  0  0
   46.4200    2.5343   18.3540 C   0  0  0  0  0  0  0  0  0  0  0  0
   46.1965    1.8737   16.9852 C   0  0  0  0  0  0  0  0  0  0  0  0
   45.2680    0.7359   17.0625 N   0  0  0  0  0  0  0  0  0  0  0  0
  1  2  1  0  0  0  0
  2  3  1  0  0  0  0
  3  4  1  0  0  0  0
  4  5  1  0  0  0  0
  5  6  1  0  0  0  0
  6  7  1  0  0  0  0
  7  8  1  0  0  0  0
  8  9  1  0  0  0  0
  9 10  1  0  0  0  0
 10 11  1  0  0  0  0
 11 12  1  0  0  0  0
 12 13  1  0  0  0  0
 13 14  1  0  0  0  0
M  END
>  <CHROM.1>
-177.76506175,63.74159902,-160.94492740,-63.74456055,-175.39882247,-64.49907889
74.97357605,-171.27672175,-158.11590050,-172.11857629,-63.16307058,45.05607504
5.86394313,19.10548716,-1.67169970,-1.18423668,3.04234328

>  <Name>
ligand

>  <RI>
0

>  <Rbt.Current_Directory>
/home/itssahil/PROJECTS/Mol_Feturizer/New_Systems/rnas/1TN2

>  <Rbt.Executable>
rbdock ($Id: //depot/dev/client3/rdock/2013.1/src/exe/rbdock.cxx#4 $)

>  <Rbt.Library>
libRbt.so (2013.1, Build901 2013/11/27)

>  <Rbt.Parameter_File>
/export/apps/rDock/src/rDock_2013.1_src/data/scripts/dock_solv.prm

>  <Rbt.Receptor>
prm/pocket_docking_5.prm

>  <SCORE>
-6.54381

>  <SCORE.INTER>
-4.99791

>  <SCORE.INTER.CONST>
1

>  <SCORE.INTER.POLAR>
0

>  <SCORE.INTER.ROT>
11

>  <SCORE.INTER.SOLV>
12.0962

>  <SCORE.INTER.VDW>
-18.2973

>  <SCORE.INTER.norm>
-0.356993

>  <SCORE.INTRA>
-1.5459

>  <SCORE.INTRA.DIHEDRAL>
-5.78347

>  <SCORE.INTRA.DIHEDRAL.0>
7.79482

>  <SCORE.INTRA.POLAR>
0

>  <SCORE.INTRA.POLAR.0>
0

>  <SCORE.INTRA.REPUL>
0

>  <SCORE.INTRA.REPUL.0>
0

>  <SCORE.INTRA.SOLV>
2.01295

>  <SCORE.INTRA.SOLV.lig_0>
-49.456

>  <SCORE.INTRA.VDW>
0.339358

>  <SCORE.INTRA.VDW.0>
-0.478406

>  <SCORE.INTRA.norm>
-0.110422

>  <SCORE.RESTR>
0

>  <SCORE.RESTR.CAVITY>
0

>  <SCORE.RESTR.norm>
0

>  <SCORE.SYSTEM>
0

>  <SCORE.SYSTEM.CONST>
0

>  <SCORE.SYSTEM.DIHEDRAL>
0

>  <SCORE.SYSTEM.SOLV>
0

>  <SCORE.SYSTEM.norm>
0

>  <SCORE.heavy>
14

>  <SCORE.norm>
-0.467415

>  <RMSD>
2.872

$$$$
ligand
 OpenBabel11021811413D
libRbt.so/2013.1/901 2013/11/27
 14 13  0  0  0  0  0  0  0  0999 V2000
   45.4433   10.6347   17.5820 N   0  0  0  0  0  0  0  0  0  0  0  0
   45.2407    9.6255   18.6439 C   0  0  0  0  0  0  0  0  0  0  0  0
   46.5888    9.1575   19.2334 C   0  0  0  0  0  0  0  0  0  0  0  0
   46.4729    8.0553   20.2991 C   0  0  0  0  0  0  0  0  0  0  0  0
   45.9203    6.8026   19.7145 N   0  0  0  0  0  0  0  0  0  0  0  0
   45.8777    5.7313   20.7427 C   0  0  0  0  0  0  0  0  0  0  0  0
   45.0470    4.4599   20.3612 C   0  0  0  0  0  0  0  0  0  0  0  0
   45.6306    3.6556   19.1641 C   0  0  0  0  0  0  0  0  0  0  0  0
   44.8693    2.3831   18.8479 C   0  0  0  0  0  0  0  0  0  0  0  0
   45.5226    1.7494   17.7183 N   0  0  0  0  0  0  0  0  0  0  0  0
   44.7558    0.5482   17.4376 C   0  0  0  0  0  0  0  0  0  0  0  0
   45.5051   -0.3835   16.4922 C   0  0  0  0  0  0  0  0  0  0  0  0
   45.4736    0.2505   15.0933 C   0  0  0  0  0  0  0  0  0  0  0  0
   46.2932    1.4692   15.0171 N   0  0  0  0  0  0  0  0  0  0  0  0
  1  2  1  0  0  0  0
  2  3  1  0  0  0  0
  3  4  1  0  0  0  0
  4  5  1  0  0  0  0
  5  6  1  0  0  0  0
  6  7  1  0  0  0  0
  7  8  1  0  0  0  0
  8  9  1  0  0  0  0
  9 10  1  0  0  0  0
 10 11  1  0  0  0  0
 11 12  1  0  0  0  0
 12 13  1  0  0  0  0
 13 14  1  0  0  0  0
M  END
>  <CHROM.1>
-177.16868680,64.27015333,177.26659314,167.57876001,65.07097679,176.69838489
179.86691260,-179.29522999,-166.72796326,-72.60428090,69.10631275,45.61712371
4.58114058,18.31085169,-0.96535225,-1.48254133,-2.22637691

>  <Name>
ligand

>  <RI>
0

>  <Rbt.Current_Directory>
/home/itssahil/PROJECTS/Mol_Feturizer/New_Systems/rnas/1TN2

>  <Rbt.Executable>
rbdock ($Id: //depot/dev/client3/rdock/2013.1/src/exe/rbdock.cxx#4 $)

>  <Rbt.Library>
libRbt.so (2013.1, Build901 2013/11/27)

>  <Rbt.Parameter_File>
/export/apps/rDock/src/rDock_2013.1_src/data/scripts/dock_solv.prm

>  <Rbt.Receptor>
prm/blind_docking_80.prm

>  <SCORE>
-9.52025

>  <SCORE.INTER>
-7.30834

>  <SCORE.INTER.CONST>
1

>  <SCORE.INTER.POLAR>
0

>  <SCORE.INTER.ROT>
11

>  <SCORE.INTER.SOLV>
9.20271

>  <SCORE.INTER.VDW>
-18.8731

>  <SCORE.INTER.norm>
-0.522024

>  <SCORE.INTRA>
-2.21191

>  <SCORE.INTRA.DIHEDRAL>
-6.3979

>  <SCORE.INTRA.DIHEDRAL.0>
7.79482

>  <SCORE.INTRA.POLAR>
0

>  <SCORE.INTRA.POLAR.0>
0

>  <SCORE.INTRA.REPUL>
0

>  <SCORE.INTRA.REPUL.0>
0

>  <SCORE.INTRA.SOLV>
3.48404

>  <SCORE.INTRA.SOLV.lig_0>
-49.456

>  <SCORE.INTRA.VDW>
-0.754982

>  <SCORE.INTRA.VDW.0>
-0.478406

>  <SCORE.INTRA.norm>
-0.157994

>  <SCORE.RESTR>
0

>  <SCORE.RESTR.CAVITY>
0

>  <SCORE.RESTR.norm>
0

>  <SCORE.SYSTEM>
0

>  <SCORE.SYSTEM.CONST>
0

>  <SCORE.SYSTEM.DIHEDRAL>
0

>  <SCORE.SYSTEM.SOLV>
0

>  <SCORE.SYSTEM.norm>
0

>  <SCORE.heavy>
14

>  <SCORE.norm>
-0.680018

>  <RMSD>
2.884

$$$$
ligand
 OpenBabel11021811413D
libRbt.so/2013.1/901 2013/11/27
 14 13  0  0  0  0  0  0  0  0999 V2000
   45.6173   -1.7283   14.4151 N   0  0  0  0  0  0  0  0  0  0  0  0
   45.6003   -1.3180   15.8358 C   0  0  0  0  0  0  0  0  0  0  0  0
   45.6248    0.2197   15.9729 C   0  0  0  0  0  0  0  0  0  0  0  0
   45.6671    0.7323   17.4218 C   0  0  0  0  0  0  0  0  0  0  0  0
   45.8479    2.2095   17.4610 N   0  0  0  0  0  0  0  0  0  0  0  0
   45.8811    2.6856   18.8678 C   0  0  0  0  0  0  0  0  0  0  0  0
   45.9017    4.2400   19.0559 C   0  0  0  0  0  0  0  0  0  0  0  0
   45.7653    4.7027   20.5350 C   0  0  0  0  0  0  0  0  0  0  0  0
   45.4617    6.1798   20.6924 C   0  0  0  0  0  0  0  0  0  0  0  0
   44.2643    6.4665   19.9254 N   0  0  0  0  0  0  0  0  0  0  0  0
   43.6734    7.6447   20.5356 C   0  0  0  0  0  0  0  0  0  0  0  0
   43.5284    8.7805   19.5296 C   0  0  0  0  0  0  0  0  0  0  0  0
   44.9399    9.1805   19.0737 C   0  0  0  0  0  0  0  0  0  0  0  0
   44.9287   10.3733   18.2137 N   0  0  0  0  0  0  0  0  0  0  0  0
  1  2  1  0  0  0  0
  2  3  1  0  0  0  0
  3  4  1  0  0  0  0
  4  5  1  0  0  0  0
  5  6  1  0  0  0  0
  6  7  1  0  0  0  0
  7  8  1  0  0  0  0
  8  9  1  0  0  0  0
  9 10  1  0  0  0  0
 10 11  1  0  0  0  0
 11 12  1  0  0  0  0
 12 13  1  0  0  0  0
 13 14  1  0  0  0  0
M  END
>  <CHROM.1>
-177.62404026,173.41090782,179.79115119,-173.25592991,173.08974920,-166.50118643
55.40354090,155.24658265,122.01256576,-63.34180822,-173.52731870,45.19301364
4.31204449,18.39577299,0.88173572,1.37440290,-2.07650096

>  <Name>
ligand

>  <RI>
0

>  <Rbt.Current_Directory>
/home/itssahil/PROJECTS/Mol_Feturizer/New_Systems/rnas/1TN2

>  <Rbt.Executable>
rbdock ($Id: //depot/dev/client3/rdock/2013.1/src/exe/rbdock.cxx#4 $)

>  <Rbt.Library>
libRbt.so (2013.1, Build901 2013/11/27)

>  <Rbt.Parameter_File>
/export/apps/rDock/src/rDock_2013.1_src/data/scripts/dock_solv.prm

>  <Rbt.Receptor>
prm/blind_docking_80.prm

>  <SCORE>
-10.869

>  <SCORE.INTER>
-8.56711

>  <SCORE.INTER.CONST>
1

>  <SCORE.INTER.POLAR>
0

>  <SCORE.INTER.ROT>
11

>  <SCORE.INTER.SOLV>
12.0787

>  <SCORE.INTER.VDW>
-20.671

>  <SCORE.INTER.norm>
-0.611936

>  <SCORE.INTRA>
-2.30192

>  <SCORE.INTRA.DIHEDRAL>
-4.74947

>  <SCORE.INTRA.DIHEDRAL.0>
7.79482

>  <SCORE.INTRA.POLAR>
0

>  <SCORE.INTRA.POLAR.0>
0

>  <SCORE.INTRA.REPUL>
0

>  <SCORE.INTRA.REPUL.0>
0

>  <SCORE.INTRA.SOLV>
0.842566

>  <SCORE.INTRA.SOLV.lig_0>
-49.456

>  <SCORE.INTRA.VDW>
-0.348471

>  <SCORE.INTRA.VDW.0>
-0.478406

>  <SCORE.INTRA.norm>
-0.164423

>  <SCORE.RESTR>
0

>  <SCORE.RESTR.CAVITY>
0

>  <SCORE.RESTR.norm>
0

>  <SCORE.SYSTEM>
0

>  <SCORE.SYSTEM.CONST>
0

>  <SCORE.SYSTEM.DIHEDRAL>
0

>  <SCORE.SYSTEM.SOLV>
0

>  <SCORE.SYSTEM.norm>
0

>  <SCORE.heavy>
14

>  <SCORE.norm>
-0.776359

>  <RMSD>
2.888

$$$$
ligand
 OpenBabel11021811413D
libRbt.so/2013.1/901 2013/11/27
 14 13  0  0  0  0  0  0  0  0999 V2000
   45.0491   10.6811   18.1156 N   0  0  0  0  0  0  0  0  0  0  0  0
   45.0426    9.5731   19.0951 C   0  0  0  0  0  0  0  0  0  0  0  0
   46.4709    9.0444   19.3490 C   0  0  0  0  0  0  0  0  0  0  0  0
   46.5503    7.8588   20.3247 C   0  0  0  0  0  0  0  0  0  0  0  0
   45.8364    6.6707   19.7812 N   0  0  0  0  0  0  0  0  0  0  0  0
   45.8047    5.5836   20.7930 C   0  0  0  0  0  0  0  0  0  0  0  0
   44.9778    4.3142   20.3967 C   0  0  0  0  0  0  0  0  0  0  0  0
   45.5777    3.5115   19.2066 C   0  0  0  0  0  0  0  0  0  0  0  0
   44.8162    2.2435   18.8733 C   0  0  0  0  0  0  0  0  0  0  0  0
   45.4411    1.6495   17.7067 N   0  0  0  0  0  0  0  0  0  0  0  0
   44.3609    1.0674   16.9295 C   0  0  0  0  0  0  0  0  0  0  0  0
   44.8739    0.4601   15.6291 C   0  0  0  0  0  0  0  0  0  0  0  0
   45.6309   -0.8285   15.9847 C   0  0  0  0  0  0  0  0  0  0  0  0
   46.1621   -1.5075   14.7933 N   0  0  0  0  0  0  0  0  0  0  0  0
  1  2  1  0  0  0  0
  2  3  1  0  0  0  0
  3  4  1  0  0  0  0
  4  5  1  0  0  0  0
  5  6  1  0  0  0  0
  6  7  1  0  0  0  0
  7  8  1  0  0  0  0
  8  9  1  0  0  0  0
  9 10  1  0  0  0  0
 10 11  1  0  0  0  0
 11 12  1  0  0  0  0
 12 13  1  0  0  0  0
 13 14  1  0  0  0  0
M  END
>  <CHROM.1>
-178.18247158,63.41737190,-174.24180948,175.08700703,66.51251386,176.91203276
176.77621149,-144.19405194,177.29355722,72.62760730,179.48687927,45.47099176
4.30867683,18.35592021,0.83818167,-1.51809068,-0.37954053

>  <Name>
ligand

>  <RI>
0

>  <Rbt.Current_Directory>
/home/itssahil/PROJECTS/Mol_Feturizer/New_Systems/rnas/1TN2

>  <Rbt.Executable>
rbdock ($Id: //depot/dev/client3/rdock/2013.1/src/exe/rbdock.cxx#4 $)

>  <Rbt.Library>
libRbt.so (2013.1, Build901 2013/11/27)

>  <Rbt.Parameter_File>
/export/apps/rDock/src/rDock_2013.1_src/data/scripts/dock_solv.prm

>  <Rbt.Receptor>
prm/blind_docking_100.prm

>  <SCORE>
-10.3187

>  <SCORE.INTER>
-6.93208

>  <SCORE.INTER.CONST>
1

>  <SCORE.INTER.POLAR>
0

>  <SCORE.INTER.ROT>
11

>  <SCORE.INTER.SOLV>
12.3905

>  <SCORE.INTER.VDW>
-19.6849

>  <SCORE.INTER.norm>
-0.495149

>  <SCORE.INTRA>
-3.38663

>  <SCORE.INTRA.DIHEDRAL>
-6.08517

>  <SCORE.INTRA.DIHEDRAL.0>
7.79482

>  <SCORE.INTRA.POLAR>
0

>  <SCORE.INTRA.POLAR.0>
0

>  <SCORE.INTRA.REPUL>
0

>  <SCORE.INTRA.REPUL.0>
0

>  <SCORE.INTRA.SOLV>
0.90051

>  <SCORE.INTRA.SOLV.lig_0>
-49.456

>  <SCORE.INTRA.VDW>
-0.794302

>  <SCORE.INTRA.VDW.0>
-0.478406

>  <SCORE.INTRA.norm>
-0.241902

>  <SCORE.RESTR>
0

>  <SCORE.RESTR.CAVITY>
0

>  <SCORE.RESTR.norm>
0

>  <SCORE.SYSTEM>
0

>  <SCORE.SYSTEM.CONST>
0

>  <SCORE.SYSTEM.DIHEDRAL>
0

>  <SCORE.SYSTEM.SOLV>
0

>  <SCORE.SYSTEM.norm>
0

>  <SCORE.heavy>
14

>  <SCORE.norm>
-0.737051

>  <RMSD>
2.889

$$$$
ligand
 OpenBabel11021811413D
libRbt.so/2013.1/901 2013/11/27
 14 13  0  0  0  0  0  0  0  0999 V2000
   45.2322   10.7681   17.9463 N   0  0  0  0  0  0  0  0  0  0  0  0
   45.7412    9.4192   18.2755 C   0  0  0  0  0  0  0  0  0  0  0  0
   45.9908    9.2717   19.7920 C   0  0  0  0  0  0  0  0  0  0  0  0
   46.5707    7.9122   20.2158 C   0  0  0  0  0  0  0  0  0  0  0  0
   45.6702    6.7977   19.8115 N   0  0  0  0  0  0  0  0  0  0  0  0
   45.8031    5.6610   20.7586 C   0  0  0  0  0  0  0  0  0  0  0  0
   45.1643    4.3106   20.2889 C   0  0  0  0  0  0  0  0  0  0  0  0
   45.8503    3.6836   19.0412 C   0  0  0  0  0  0  0  0  0  0  0  0
   45.3159    2.3147   18.6679 C   0  0  0  0  0  0  0  0  0  0  0  0
   45.9368    1.9272   17.4154 N   0  0  0  0  0  0  0  0  0  0  0  0
   45.5053    0.5636   17.1624 C   0  0  0  0  0  0  0  0  0  0  0  0
   45.7602    0.1574   15.7155 C   0  0  0  0  0  0  0  0  0  0  0  0
   45.4433   -1.3406   15.5907 C   0  0  0  0  0  0  0  0  0  0  0  0
   45.5876   -1.8257   14.2099 N   0  0  0  0  0  0  0  0  0  0  0  0
  1  2  1  0  0  0  0
  2  3  1  0  0  0  0
  3  4  1  0  0  0  0
  4  5  1  0  0  0  0
  5  6  1  0  0  0  0
  6  7  1  0  0  0  0
  7  8  1  0  0  0  0
  8  9  1  0  0  0  0
  9 10  1  0  0  0  0
 10 11  1  0  0  0  0
 11 12  1  0  0  0  0
 12 13  1  0  0  0  0
 13 14  1  0  0  0  0
M  END
>  <CHROM.1>
-177.89056146,-58.58450623,-150.45978578,-166.95676881,65.61567214,174.52712349
173.77529331,174.43507971,164.39890066,172.88516865,176.95054940,45.68374265
4.25855579,18.20689845,0.94848986,-1.53593508,-0.26349093

>  <Name>
ligand

>  <RI>
0

>  <Rbt.Current_Directory>
/home/itssahil/PROJECTS/Mol_Feturizer/New_Systems/rnas/1TN2

>  <Rbt.Executable>
rbdock ($Id: //depot/dev/client3/rdock/2013.1/src/exe/rbdock.cxx#4 $)

>  <Rbt.Library>
libRbt.so (2013.1, Build901 2013/11/27)

>  <Rbt.Parameter_File>
/export/apps/rDock/src/rDock_2013.1_src/data/scripts/dock_solv.prm

>  <Rbt.Receptor>
prm/blind_docking_100.prm

>  <SCORE>
-10.8867

>  <SCORE.INTER>
-7.25597

>  <SCORE.INTER.CONST>
1

>  <SCORE.INTER.POLAR>
0

>  <SCORE.INTER.ROT>
11

>  <SCORE.INTER.SOLV>
10.2609

>  <SCORE.INTER.VDW>
-19.1909

>  <SCORE.INTER.norm>
-0.518283

>  <SCORE.INTRA>
-3.63072

>  <SCORE.INTRA.DIHEDRAL>
-6.22276

>  <SCORE.INTRA.DIHEDRAL.0>
7.79482

>  <SCORE.INTRA.POLAR>
0

>  <SCORE.INTRA.POLAR.0>
0

>  <SCORE.INTRA.REPUL>
0

>  <SCORE.INTRA.REPUL.0>
0

>  <SCORE.INTRA.SOLV>
0.582569

>  <SCORE.INTRA.SOLV.lig_0>
-49.456

>  <SCORE.INTRA.VDW>
-0.810621

>  <SCORE.INTRA.VDW.0>
-0.478406

>  <SCORE.INTRA.norm>
-0.259337

>  <SCORE.RESTR>
0

>  <SCORE.RESTR.CAVITY>
0

>  <SCORE.RESTR.norm>
0

>  <SCORE.SYSTEM>
0

>  <SCORE.SYSTEM.CONST>
0

>  <SCORE.SYSTEM.DIHEDRAL>
0

>  <SCORE.SYSTEM.SOLV>
0

>  <SCORE.SYSTEM.norm>
0

>  <SCORE.heavy>
14

>  <SCORE.norm>
-0.77762

>  <RMSD>
2.891

$$$$
ligand
 OpenBabel11021811413D
libRbt.so/2013.1/901 2013/11/27
 14 13  0  0  0  0  0  0  0  0999 V2000
   46.8942    9.5811   16.5840 N   0  0  0  0  0  0  0  0  0  0  0  0
   47.5649    9.4843   17.8985 C   0  0  0  0  0  0  0  0  0  0  0  0
   46.5355    9.4417   19.0484 C   0  0  0  0  0  0  0  0  0  0  0  0
   45.6132    8.2115   19.0364 C   0  0  0  0  0  0  0  0  0  0  0  0
   46.4025    6.9511   19.1059 N   0  0  0  0  0  0  0  0  0  0  0  0
   45.7708    6.0017   20.0579 C   0  0  0  0  0  0  0  0  0  0  0  0
   46.2429    4.5131   19.9425 C   0  0  0  0  0  0  0  0  0  0  0  0
   45.8308    3.8174   18.6134 C   0  0  0  0  0  0  0  0  0  0  0  0
   46.2415    2.3603   18.5283 C   0  0  0  0  0  0  0  0  0  0  0  0
   45.7404    1.8353   17.2723 N   0  0  0  0  0  0  0  0  0  0  0  0
   44.9170    0.6903   17.6197 C   0  0  0  0  0  0  0  0  0  0  0  0
   45.4859   -0.6011   17.0435 C   0  0  0  0  0  0  0  0  0  0  0  0
   45.2754   -0.5636   15.5223 C   0  0  0  0  0  0  0  0  0  0  0  0
   46.0047    0.5446   14.8877 N   0  0  0  0  0  0  0  0  0  0  0  0
  1  2  1  0  0  0  0
  2  3  1  0  0  0  0
  3  4  1  0  0  0  0
  4  5  1  0  0  0  0
  5  6  1  0  0  0  0
  6  7  1  0  0  0  0
  7  8  1  0  0  0  0
  8  9  1  0  0  0  0
  9 10  1  0  0  0  0
 10 11  1  0  0  0  0
 11 12  1  0  0  0  0
 12 13  1  0  0  0  0
 13 14  1  0  0  0  0
M  END
>  <CHROM.1>
63.59326923,58.40118284,136.69234417,163.60604768,-66.71272073,-177.69584816
177.44810574,-123.62762194,-116.88710988,-70.97660161,62.71144536,46.03703040
4.44756563,17.94045850,-0.93383082,-1.35948736,-2.29211122

>  <Name>
ligand

>  <RI>
0

>  <Rbt.Current_Directory>
/home/itssahil/PROJECTS/Mol_Feturizer/New_Systems/rnas/1TN2

>  <Rbt.Executable>
rbdock ($Id: //depot/dev/client3/rdock/2013.1/src/exe/rbdock.cxx#4 $)

>  <Rbt.Library>
libRbt.so (2013.1, Build901 2013/11/27)

>  <Rbt.Parameter_File>
/export/apps/rDock/src/rDock_2013.1_src/data/scripts/dock_solv.prm

>  <Rbt.Receptor>
prm/pocket_docking_2.prm

>  <SCORE>
-5.19278

>  <SCORE.INTER>
-6.20966

>  <SCORE.INTER.CONST>
1

>  <SCORE.INTER.POLAR>
0

>  <SCORE.INTER.ROT>
11

>  <SCORE.INTER.SOLV>
9.18595

>  <SCORE.INTER.VDW>
-18.1351

>  <SCORE.INTER.norm>
-0.443547

>  <SCORE.INTRA>
0.486199

>  <SCORE.INTRA.DIHEDRAL>
-3.47556

>  <SCORE.INTRA.DIHEDRAL.0>
7.79482

>  <SCORE.INTRA.POLAR>
0

>  <SCORE.INTRA.POLAR.0>
0

>  <SCORE.INTRA.REPUL>
0

>  <SCORE.INTRA.REPUL.0>
0

>  <SCORE.INTRA.SOLV>
5.16143

>  <SCORE.INTRA.SOLV.lig_0>
-49.456

>  <SCORE.INTRA.VDW>
-0.356734

>  <SCORE.INTRA.VDW.0>
-0.478406

>  <SCORE.INTRA.norm>
0.0347285

>  <SCORE.RESTR>
0.530687

>  <SCORE.RESTR.CAVITY>
0.530687

>  <SCORE.RESTR.norm>
0.0379062

>  <SCORE.SYSTEM>
0

>  <SCORE.SYSTEM.CONST>
0

>  <SCORE.SYSTEM.DIHEDRAL>
0

>  <SCORE.SYSTEM.SOLV>
0

>  <SCORE.SYSTEM.norm>
0

>  <SCORE.heavy>
14

>  <SCORE.norm>
-0.370913

>  <RMSD>
2.892

$$$$
ligand
 OpenBabel11021811413D
libRbt.so/2013.1/901 2013/11/27
 14 13  0  0  0  0  0  0  0  0999 V2000
   45.1079   -1.9138   14.7199 N   0  0  0  0  0  0  0  0  0  0  0  0
   44.9928   -0.4502   14.8985 C   0  0  0  0  0  0  0  0  0  0  0  0
   45.5590   -0.0087   16.2654 C   0  0  0  0  0  0  0  0  0  0  0  0
   45.6051    1.5135   16.4774 C   0  0  0  0  0  0  0  0  0  0  0  0
   46.2605    1.8534   17.7702 N   0  0  0  0  0  0  0  0  0  0  0  0
   45.2409    1.9929   18.8415 C   0  0  0  0  0  0  0  0  0  0  0  0
   44.9767    3.4543   19.3381 C   0  0  0  0  0  0  0  0  0  0  0  0
   46.2279    4.1568   19.9392 C   0  0  0  0  0  0  0  0  0  0  0  0
   45.9334    5.5025   20.5727 C   0  0  0  0  0  0  0  0  0  0  0  0
   45.5409    6.4109   19.5120 N   0  0  0  0  0  0  0  0  0  0  0  0
   46.0077    7.7245   19.9199 C   0  0  0  0  0  0  0  0  0  0  0  0
   45.5923    8.7987   18.9216 C   0  0  0  0  0  0  0  0  0  0  0  0
   46.2429   10.1189   19.3618 C   0  0  0  0  0  0  0  0  0  0  0  0
   45.9462   11.2209   18.4344 N   0  0  0  0  0  0  0  0  0  0  0  0
  1  2  1  0  0  0  0
  2  3  1  0  0  0  0
  3  4  1  0  0  0  0
  4  5  1  0  0  0  0
  5  6  1  0  0  0  0
  6  7  1  0  0  0  0
  7  8  1  0  0  0  0
  8  9  1  0  0  0  0
  9 10  1  0  0  0  0
 10 11  1  0  0  0  0
 11 12  1  0  0  0  0
 12 13  1  0  0  0  0
 13 14  1  0  0  0  0
M  END
>  <CHROM.1>
174.29728844,-175.53363377,-93.12390074,-108.23740061,-60.34330836,-172.88005289
-66.99646692,-147.68099970,-176.91822763,-174.56430083,177.90148156,45.65955585
4.31242644,18.21257251,2.46671048,1.49342418,2.59530054

>  <Name>
ligand

>  <RI>
0

>  <Rbt.Current_Directory>
/home/itssahil/PROJECTS/Mol_Feturizer/New_Systems/rnas/1TN2

>  <Rbt.Executable>
rbdock ($Id: //depot/dev/client3/rdock/2013.1/src/exe/rbdock.cxx#4 $)

>  <Rbt.Library>
libRbt.so (2013.1, Build901 2013/11/27)

>  <Rbt.Parameter_File>
/export/apps/rDock/src/rDock_2013.1_src/data/scripts/dock_solv.prm

>  <Rbt.Receptor>
prm/pocket_docking_3.prm

>  <SCORE>
-7.74007

>  <SCORE.INTER>
-5.22513

>  <SCORE.INTER.CONST>
1

>  <SCORE.INTER.POLAR>
0

>  <SCORE.INTER.ROT>
11

>  <SCORE.INTER.SOLV>
13.0577

>  <SCORE.INTER.VDW>
-18.7693

>  <SCORE.INTER.norm>
-0.373223

>  <SCORE.INTRA>
-2.51494

>  <SCORE.INTRA.DIHEDRAL>
-4.60819

>  <SCORE.INTRA.DIHEDRAL.0>
7.79482

>  <SCORE.INTRA.POLAR>
0

>  <SCORE.INTRA.POLAR.0>
0

>  <SCORE.INTRA.REPUL>
0

>  <SCORE.INTRA.REPUL.0>
0

>  <SCORE.INTRA.SOLV>
0.650537

>  <SCORE.INTRA.SOLV.lig_0>
-49.456

>  <SCORE.INTRA.VDW>
-0.536114

>  <SCORE.INTRA.VDW.0>
-0.478406

>  <SCORE.INTRA.norm>
-0.179639

>  <SCORE.RESTR>
0

>  <SCORE.RESTR.CAVITY>
0

>  <SCORE.RESTR.norm>
0

>  <SCORE.SYSTEM>
0

>  <SCORE.SYSTEM.CONST>
0

>  <SCORE.SYSTEM.DIHEDRAL>
0

>  <SCORE.SYSTEM.SOLV>
0

>  <SCORE.SYSTEM.norm>
0

>  <SCORE.heavy>
14

>  <SCORE.norm>
-0.552862

>  <RMSD>
2.901

$$$$
ligand
 OpenBabel11021811413D
libRbt.so/2013.1/901 2013/11/27
 14 13  0  0  0  0  0  0  0  0999 V2000
   45.3661   -1.3205   14.7954 N   0  0  0  0  0  0  0  0  0  0  0  0
   44.4797   -0.1621   15.0391 C   0  0  0  0  0  0  0  0  0  0  0  0
   45.1799    0.9027   15.9108 C   0  0  0  0  0  0  0  0  0  0  0  0
   45.5167    0.4406   17.3380 C   0  0  0  0  0  0  0  0  0  0  0  0
   46.2688    1.4920   18.0766 N   0  0  0  0  0  0  0  0  0  0  0  0
   45.3319    2.3419   18.8556 C   0  0  0  0  0  0  0  0  0  0  0  0
   45.9068    3.7163   19.3378 C   0  0  0  0  0  0  0  0  0  0  0  0
   44.9284    4.5374   20.2262 C   0  0  0  0  0  0  0  0  0  0  0  0
   45.5224    5.8213   20.7717 C   0  0  0  0  0  0  0  0  0  0  0  0
   45.8506    6.6688   19.6410 N   0  0  0  0  0  0  0  0  0  0  0  0
   46.5012    7.8417   20.1983 C   0  0  0  0  0  0  0  0  0  0  0  0
   46.8781    8.8402   19.1101 C   0  0  0  0  0  0  0  0  0  0  0  0
   45.5748    9.4182   18.5380 C   0  0  0  0  0  0  0  0  0  0  0  0
   45.8229   10.3854   17.4583 N   0  0  0  0  0  0  0  0  0  0  0  0
  1  2  1  0  0  0  0
  2  3  1  0  0  0  0
  3  4  1  0  0  0  0
  4  5  1  0  0  0  0
  5  6  1  0  0  0  0
  6  7  1  0  0  0  0
  7  8  1  0  0  0  0
  8  9  1  0  0  0  0
  9 10  1  0  0  0  0
 10 11  1  0  0  0  0
 11 12  1  0  0  0  0
 12 13  1  0  0  0  0
 13 14  1  0  0  0  0
M  END
>  <CHROM.1>
-64.56385080,176.17782055,93.44531433,-162.87349725,-176.29014875,175.91300334
62.51475520,-176.04901185,-178.84296528,68.17614735,-179.13926920,45.65196121
4.35172363,18.23577965,2.69727593,1.47466609,2.35580197

>  <Name>
ligand

>  <RI>
0

>  <Rbt.Current_Directory>
/home/itssahil/PROJECTS/Mol_Feturizer/New_Systems/rnas/1TN2

>  <Rbt.Executable>
rbdock ($Id: //depot/dev/client3/rdock/2013.1/src/exe/rbdock.cxx#4 $)

>  <Rbt.Library>
libRbt.so (2013.1, Build901 2013/11/27)

>  <Rbt.Parameter_File>
/export/apps/rDock/src/rDock_2013.1_src/data/scripts/dock_solv.prm

>  <Rbt.Receptor>
prm/pocket_docking_3.prm

>  <SCORE>
-9.72739

>  <SCORE.INTER>
-6.89139

>  <SCORE.INTER.CONST>
1

>  <SCORE.INTER.POLAR>
0

>  <SCORE.INTER.ROT>
11

>  <SCORE.INTER.SOLV>
11.6871

>  <SCORE.INTER.VDW>
-19.4233

>  <SCORE.INTER.norm>
-0.492242

>  <SCORE.INTRA>
-2.84093

>  <SCORE.INTRA.DIHEDRAL>
-6.31678

>  <SCORE.INTRA.DIHEDRAL.0>
7.79482

>  <SCORE.INTRA.POLAR>
0

>  <SCORE.INTRA.POLAR.0>
0

>  <SCORE.INTRA.REPUL>
0

>  <SCORE.INTRA.REPUL.0>
0

>  <SCORE.INTRA.SOLV>
1.41304

>  <SCORE.INTRA.SOLV.lig_0>
-49.456

>  <SCORE.INTRA.VDW>
-0.389058

>  <SCORE.INTRA.VDW.0>
-0.478406

>  <SCORE.INTRA.norm>
-0.202923

>  <SCORE.RESTR>
0.00492605

>  <SCORE.RESTR.CAVITY>
0.00492605

>  <SCORE.RESTR.norm>
0.00035186

>  <SCORE.SYSTEM>
0

>  <SCORE.SYSTEM.CONST>
0

>  <SCORE.SYSTEM.DIHEDRAL>
0

>  <SCORE.SYSTEM.SOLV>
0

>  <SCORE.SYSTEM.norm>
0

>  <SCORE.heavy>
14

>  <SCORE.norm>
-0.694813

>  <RMSD>
2.919

$$$$
ligand
 OpenBabel11021811413D
libRbt.so/2013.1/901 2013/11/27
 14 13  0  0  0  0  0  0  0  0999 V2000
   46.1597   11.2418   17.6866 N   0  0  0  0  0  0  0  0  0  0  0  0
   46.3723   10.3552   18.8511 C   0  0  0  0  0  0  0  0  0  0  0  0
   46.1125    8.8784   18.4829 C   0  0  0  0  0  0  0  0  0  0  0  0
   46.3033    7.8868   19.6423 C   0  0  0  0  0  0  0  0  0  0  0  0
   46.0251    6.4916   19.2035 N   0  0  0  0  0  0  0  0  0  0  0  0
   45.9272    5.5926   20.3820 C   0  0  0  0  0  0  0  0  0  0  0  0
   45.2758    4.1941   20.1140 C   0  0  0  0  0  0  0  0  0  0  0  0
   45.9398    3.3957   18.9555 C   0  0  0  0  0  0  0  0  0  0  0  0
   45.2886    2.0545   18.6799 C   0  0  0  0  0  0  0  0  0  0  0  0
   45.9327    1.4852   17.5114 N   0  0  0  0  0  0  0  0  0  0  0  0
   45.1633    0.3014   17.1700 C   0  0  0  0  0  0  0  0  0  0  0  0
   44.2695    0.5470   15.9601 C   0  0  0  0  0  0  0  0  0  0  0  0
   45.1807    0.7030   14.7332 C   0  0  0  0  0  0  0  0  0  0  0  0
   45.8803   -0.5464   14.3983 N   0  0  0  0  0  0  0  0  0  0  0  0
  1  2  1  0  0  0  0
  2  3  1  0  0  0  0
  3  4  1  0  0  0  0
  4  5  1  0  0  0  0
  5  6  1  0  0  0  0
  6  7  1  0  0  0  0
  7  8  1  0  0  0  0
  8  9  1  0  0  0  0
  9 10  1  0  0  0  0
 10 11  1  0  0  0  0
 11 12  1  0  0  0  0
 12 13  1  0  0  0  0
 13 14  1  0  0  0  0
M  END
>  <CHROM.1>
-179.64869955,179.64112029,-167.87972557,164.58335689,53.92081450,-178.80830280
175.08494965,-172.23386480,103.93853362,68.85772492,66.68014636,45.70207072
4.46998583,17.98394315,-0.25183514,-1.46922997,-1.51916322

>  <Name>
ligand

>  <RI>
0

>  <Rbt.Current_Directory>
/home/itssahil/PROJECTS/Mol_Feturizer/New_Systems/rnas/1TN2

>  <Rbt.Executable>
rbdock ($Id: //depot/dev/client3/rdock/2013.1/src/exe/rbdock.cxx#4 $)

>  <Rbt.Library>
libRbt.so (2013.1, Build901 2013/11/27)

>  <Rbt.Parameter_File>
/export/apps/rDock/src/rDock_2013.1_src/data/scripts/dock_solv.prm

>  <Rbt.Receptor>
prm/pocket_docking_3.prm

>  <SCORE>
-7.92973

>  <SCORE.INTER>
-5.65311

>  <SCORE.INTER.CONST>
1

>  <SCORE.INTER.POLAR>
0

>  <SCORE.INTER.ROT>
11

>  <SCORE.INTER.SOLV>
9.46915

>  <SCORE.INTER.VDW>
-17.8585

>  <SCORE.INTER.norm>
-0.403794

>  <SCORE.INTRA>
-2.27834

>  <SCORE.INTRA.DIHEDRAL>
-5.74882

>  <SCORE.INTRA.DIHEDRAL.0>
7.79482

>  <SCORE.INTRA.POLAR>
0

>  <SCORE.INTRA.POLAR.0>
0

>  <SCORE.INTRA.REPUL>
0

>  <SCORE.INTRA.REPUL.0>
0

>  <SCORE.INTRA.SOLV>
2.02313

>  <SCORE.INTRA.SOLV.lig_0>
-49.456

>  <SCORE.INTRA.VDW>
-0.415491

>  <SCORE.INTRA.VDW.0>
-0.478406

>  <SCORE.INTRA.norm>
-0.162738

>  <SCORE.RESTR>
0.00172429

>  <SCORE.RESTR.CAVITY>
0.00172429

>  <SCORE.RESTR.norm>
0.000123164

>  <SCORE.SYSTEM>
0

>  <SCORE.SYSTEM.CONST>
0

>  <SCORE.SYSTEM.DIHEDRAL>
0

>  <SCORE.SYSTEM.SOLV>
0

>  <SCORE.SYSTEM.norm>
0

>  <SCORE.heavy>
14

>  <SCORE.norm>
-0.566409

>  <RMSD>
2.920

$$$$
ligand
 OpenBabel11021811413D
libRbt.so/2013.1/901 2013/11/27
 14 13  0  0  0  0  0  0  0  0999 V2000
   45.5062   12.1309   17.9272 N   0  0  0  0  0  0  0  0  0  0  0  0
   44.6374   11.0730   17.3676 C   0  0  0  0  0  0  0  0  0  0  0  0
   45.0902    9.6732   17.8361 C   0  0  0  0  0  0  0  0  0  0  0  0
   44.9197    9.4165   19.3424 C   0  0  0  0  0  0  0  0  0  0  0  0
   43.4797    9.3776   19.7183 N   0  0  0  0  0  0  0  0  0  0  0  0
   42.9333    8.0109   19.5171 C   0  0  0  0  0  0  0  0  0  0  0  0
   43.0953    7.0323   20.7288 C   0  0  0  0  0  0  0  0  0  0  0  0
   44.5650    6.8484   21.2047 C   0  0  0  0  0  0  0  0  0  0  0  0
   45.4358    6.0793   20.2305 C   0  0  0  0  0  0  0  0  0  0  0  0
   44.9309    4.7208   20.1679 N   0  0  0  0  0  0  0  0  0  0  0  0
   45.8926    3.9749   19.3752 C   0  0  0  0  0  0  0  0  0  0  0  0
   45.2510    2.7568   18.7211 C   0  0  0  0  0  0  0  0  0  0  0  0
   46.3329    2.0525   17.8884 C   0  0  0  0  0  0  0  0  0  0  0  0
   45.8053    0.8860   17.1647 N   0  0  0  0  0  0  0  0  0  0  0  0
  1  2  1  0  0  0  0
  2  3  1  0  0  0  0
  3  4  1  0  0  0  0
  4  5  1  0  0  0  0
  5  6  1  0  0  0  0
  6  7  1  0  0  0  0
  7  8  1  0  0  0  0
  8  9  1  0  0  0  0
  9 10  1  0  0  0  0
 10 11  1  0  0  0  0
 11 12  1  0  0  0  0
 12 13  1  0  0  0  0
 13 14  1  0  0  0  0
M  END
>  <CHROM.1>
66.61231859,66.91808472,85.91884662,87.44902367,-56.31446965,-69.91753957
-65.99486262,-172.37915662,-155.30627083,178.93776257,-177.65804179,44.84819714
6.71662846,19.08514387,-1.85866061,-1.04934395,2.90508577

>  <Name>
ligand

>  <RI>
0

>  <Rbt.Current_Directory>
/home/itssahil/PROJECTS/Mol_Feturizer/New_Systems/rnas/1TN2

>  <Rbt.Executable>
rbdock ($Id: //depot/dev/client3/rdock/2013.1/src/exe/rbdock.cxx#4 $)

>  <Rbt.Library>
libRbt.so (2013.1, Build901 2013/11/27)

>  <Rbt.Parameter_File>
/export/apps/rDock/src/rDock_2013.1_src/data/scripts/dock_solv.prm

>  <Rbt.Receptor>
prm/pocket_docking_8.prm

>  <SCORE>
-6.39329

>  <SCORE.INTER>
-4.97755

>  <SCORE.INTER.CONST>
1

>  <SCORE.INTER.POLAR>
0

>  <SCORE.INTER.ROT>
11

>  <SCORE.INTER.SOLV>
13.7415

>  <SCORE.INTER.VDW>
-18.8322

>  <SCORE.INTER.norm>
-0.355539

>  <SCORE.INTRA>
-1.41575

>  <SCORE.INTRA.DIHEDRAL>
-5.36206

>  <SCORE.INTRA.DIHEDRAL.0>
7.79482

>  <SCORE.INTRA.POLAR>
0

>  <SCORE.INTRA.POLAR.0>
0

>  <SCORE.INTRA.REPUL>
0

>  <SCORE.INTRA.REPUL.0>
0

>  <SCORE.INTRA.SOLV>
2.64778

>  <SCORE.INTRA.SOLV.lig_0>
-49.456

>  <SCORE.INTRA.VDW>
-0.0586087

>  <SCORE.INTRA.VDW.0>
-0.478406

>  <SCORE.INTRA.norm>
-0.101125

>  <SCORE.RESTR>
0

>  <SCORE.RESTR.CAVITY>
0

>  <SCORE.RESTR.norm>
0

>  <SCORE.SYSTEM>
0

>  <SCORE.SYSTEM.CONST>
0

>  <SCORE.SYSTEM.DIHEDRAL>
0

>  <SCORE.SYSTEM.SOLV>
0

>  <SCORE.SYSTEM.norm>
0

>  <SCORE.heavy>
14

>  <SCORE.norm>
-0.456664

>  <RMSD>
2.922

$$$$
ligand
 OpenBabel11021811413D
libRbt.so/2013.1/901 2013/11/27
 14 13  0  0  0  0  0  0  0  0999 V2000
   45.3783   10.7168   17.8156 N   0  0  0  0  0  0  0  0  0  0  0  0
   45.9066    9.3951   18.2171 C   0  0  0  0  0  0  0  0  0  0  0  0
   46.0078    9.2778   19.7534 C   0  0  0  0  0  0  0  0  0  0  0  0
   46.6160    7.9581   20.2557 C   0  0  0  0  0  0  0  0  0  0  0  0
   45.8204    6.7904   19.7868 N   0  0  0  0  0  0  0  0  0  0  0  0
   45.9136    5.6786   20.7676 C   0  0  0  0  0  0  0  0  0  0  0  0
   45.0892    4.3946   20.4153 C   0  0  0  0  0  0  0  0  0  0  0  0
   45.6062    3.6320   19.1617 C   0  0  0  0  0  0  0  0  0  0  0  0
   44.8472    2.3541   18.8622 C   0  0  0  0  0  0  0  0  0  0  0  0
   45.4561    1.7447   17.6951 N   0  0  0  0  0  0  0  0  0  0  0  0
   44.6949    0.5353   17.4347 C   0  0  0  0  0  0  0  0  0  0  0  0
   45.4318   -0.3916   16.4750 C   0  0  0  0  0  0  0  0  0  0  0  0
   45.3869    0.2520   15.0808 C   0  0  0  0  0  0  0  0  0  0  0  0
   46.2393    1.4472   14.9931 N   0  0  0  0  0  0  0  0  0  0  0  0
  1  2  1  0  0  0  0
  2  3  1  0  0  0  0
  3  4  1  0  0  0  0
  4  5  1  0  0  0  0
  5  6  1  0  0  0  0
  6  7  1  0  0  0  0
  7  8  1  0  0  0  0
  8  9  1  0  0  0  0
  9 10  1  0  0  0  0
 10 11  1  0  0  0  0
 11 12  1  0  0  0  0
 12 13  1  0  0  0  0
 13 14  1  0  0  0  0
M  END
>  <CHROM.1>
-177.05802053,-58.91162273,-150.04871186,178.47186767,67.07117753,177.23914083
-178.76487341,-179.46026551,-165.05150357,-71.49475924,70.76093442,45.59954899
4.55582708,18.33701994,-0.88253154,-1.47631504,-2.13272112

>  <Name>
ligand

>  <RI>
0

>  <Rbt.Current_Directory>
/home/itssahil/PROJECTS/Mol_Feturizer/New_Systems/rnas/1TN2

>  <Rbt.Executable>
rbdock ($Id: //depot/dev/client3/rdock/2013.1/src/exe/rbdock.cxx#4 $)

>  <Rbt.Library>
libRbt.so (2013.1, Build901 2013/11/27)

>  <Rbt.Parameter_File>
/export/apps/rDock/src/rDock_2013.1_src/data/scripts/dock_solv.prm

>  <Rbt.Receptor>
prm/blind_docking_100.prm

>  <SCORE>
-8.94388

>  <SCORE.INTER>
-7.0297

>  <SCORE.INTER.CONST>
1

>  <SCORE.INTER.POLAR>
0

>  <SCORE.INTER.ROT>
11

>  <SCORE.INTER.SOLV>
9.2114

>  <SCORE.INTER.VDW>
-18.6903

>  <SCORE.INTER.norm>
-0.502121

>  <SCORE.INTRA>
-1.91418

>  <SCORE.INTRA.DIHEDRAL>
-5.84611

>  <SCORE.INTRA.DIHEDRAL.0>
7.79482

>  <SCORE.INTRA.POLAR>
0

>  <SCORE.INTRA.POLAR.0>
0

>  <SCORE.INTRA.REPUL>
0

>  <SCORE.INTRA.REPUL.0>
0

>  <SCORE.INTRA.SOLV>
3.46158

>  <SCORE.INTRA.SOLV.lig_0>
-49.456

>  <SCORE.INTRA.VDW>
-0.721917

>  <SCORE.INTRA.VDW.0>
-0.478406

>  <SCORE.INTRA.norm>
-0.136727

>  <SCORE.RESTR>
0

>  <SCORE.RESTR.CAVITY>
0

>  <SCORE.RESTR.norm>
0

>  <SCORE.SYSTEM>
0

>  <SCORE.SYSTEM.CONST>
0

>  <SCORE.SYSTEM.DIHEDRAL>
0

>  <SCORE.SYSTEM.SOLV>
0

>  <SCORE.SYSTEM.norm>
0

>  <SCORE.heavy>
14

>  <SCORE.norm>
-0.638848

>  <RMSD>
2.945

$$$$
ligand
 OpenBabel11021811413D
libRbt.so/2013.1/901 2013/11/27
 14 13  0  0  0  0  0  0  0  0999 V2000
   46.2374    9.9842   17.6200 N   0  0  0  0  0  0  0  0  0  0  0  0
   45.3761    9.7042   18.7891 C   0  0  0  0  0  0  0  0  0  0  0  0
   46.2122    9.2305   19.9976 C   0  0  0  0  0  0  0  0  0  0  0  0
   46.8298    7.8314   19.8394 C   0  0  0  0  0  0  0  0  0  0  0  0
   45.7878    6.7728   19.9398 N   0  0  0  0  0  0  0  0  0  0  0  0
   46.2524    5.5302   19.2714 C   0  0  0  0  0  0  0  0  0  0  0  0
   45.5802    4.2047   19.7646 C   0  0  0  0  0  0  0  0  0  0  0  0
   46.0123    2.9393   18.9692 C   0  0  0  0  0  0  0  0  0  0  0  0
   45.4895    2.8982   17.5466 C   0  0  0  0  0  0  0  0  0  0  0  0
   45.8412    1.6071   16.9864 N   0  0  0  0  0  0  0  0  0  0  0  0
   44.5831    0.9255   16.7368 C   0  0  0  0  0  0  0  0  0  0  0  0
   44.6052    0.1839   15.4054 C   0  0  0  0  0  0  0  0  0  0  0  0
   45.6087   -0.9721   15.5339 C   0  0  0  0  0  0  0  0  0  0  0  0
   45.7578   -1.7208   14.2769 N   0  0  0  0  0  0  0  0  0  0  0  0
  1  2  1  0  0  0  0
  2  3  1  0  0  0  0
  3  4  1  0  0  0  0
  4  5  1  0  0  0  0
  5  6  1  0  0  0  0
  6  7  1  0  0  0  0
  7  8  1  0  0  0  0
  8  9  1  0  0  0  0
  9 10  1  0  0  0  0
 10 11  1  0  0  0  0
 11 12  1  0  0  0  0
 12 13  1  0  0  0  0
 13 14  1  0  0  0  0
M  END
>  <CHROM.1>
-69.75027729,-72.33579096,157.48136017,156.18965396,175.61459938,-69.64149465
-173.67177078,115.16016891,138.81889538,67.61637798,-177.27394981,45.72662164
4.22281152,17.90580080,0.84059072,-1.45433847,-0.34708392

>  <Name>
ligand

>  <RI>
0

>  <Rbt.Current_Directory>
/home/itssahil/PROJECTS/Mol_Feturizer/New_Systems/rnas/1TN2

>  <Rbt.Executable>
rbdock ($Id: //depot/dev/client3/rdock/2013.1/src/exe/rbdock.cxx#4 $)

>  <Rbt.Library>
libRbt.so (2013.1, Build901 2013/11/27)

>  <Rbt.Parameter_File>
/export/apps/rDock/src/rDock_2013.1_src/data/scripts/dock_solv.prm

>  <Rbt.Receptor>
prm/pocket_docking_4.prm

>  <SCORE>
-7.64441

>  <SCORE.INTER>
-6.58514

>  <SCORE.INTER.CONST>
1

>  <SCORE.INTER.POLAR>
0

>  <SCORE.INTER.ROT>
11

>  <SCORE.INTER.SOLV>
9.77496

>  <SCORE.INTER.VDW>
-18.5817

>  <SCORE.INTER.norm>
-0.470367

>  <SCORE.INTRA>
-1.05927

>  <SCORE.INTRA.DIHEDRAL>
-3.14574

>  <SCORE.INTRA.DIHEDRAL.0>
7.79482

>  <SCORE.INTRA.POLAR>
0

>  <SCORE.INTRA.POLAR.0>
0

>  <SCORE.INTRA.REPUL>
0

>  <SCORE.INTRA.REPUL.0>
0

>  <SCORE.INTRA.SOLV>
1.82778

>  <SCORE.INTRA.SOLV.lig_0>
-49.456

>  <SCORE.INTRA.VDW>
-0.400286

>  <SCORE.INTRA.VDW.0>
-0.478406

>  <SCORE.INTRA.norm>
-0.075662

>  <SCORE.RESTR>
0

>  <SCORE.RESTR.CAVITY>
0

>  <SCORE.RESTR.norm>
0

>  <SCORE.SYSTEM>
0

>  <SCORE.SYSTEM.CONST>
0

>  <SCORE.SYSTEM.DIHEDRAL>
0

>  <SCORE.SYSTEM.SOLV>
0

>  <SCORE.SYSTEM.norm>
0

>  <SCORE.heavy>
14

>  <SCORE.norm>
-0.546029

>  <RMSD>
2.946

$$$$
ligand
 OpenBabel11021811413D
libRbt.so/2013.1/901 2013/11/27
 14 13  0  0  0  0  0  0  0  0999 V2000
   47.0301   10.6281   17.4029 N   0  0  0  0  0  0  0  0  0  0  0  0
   47.2366    9.4371   18.2551 C   0  0  0  0  0  0  0  0  0  0  0  0
   46.3125    9.4689   19.4917 C   0  0  0  0  0  0  0  0  0  0  0  0
   46.4410    8.2485   20.4180 C   0  0  0  0  0  0  0  0  0  0  0  0
   46.1008    6.9916   19.6964 N   0  0  0  0  0  0  0  0  0  0  0  0
   45.7133    5.9330   20.6638 C   0  0  0  0  0  0  0  0  0  0  0  0
   46.1835    4.4831   20.3047 C   0  0  0  0  0  0  0  0  0  0  0  0
   45.5497    3.9140   19.0029 C   0  0  0  0  0  0  0  0  0  0  0  0
   45.9519    2.4846   18.6964 C   0  0  0  0  0  0  0  0  0  0  0  0
   45.1581    2.0373   17.5676 N   0  0  0  0  0  0  0  0  0  0  0  0
   45.7025    0.7461   17.1850 C   0  0  0  0  0  0  0  0  0  0  0  0
   44.9544    0.1558   15.9954 C   0  0  0  0  0  0  0  0  0  0  0  0
   45.6374   -1.1703   15.6284 C   0  0  0  0  0  0  0  0  0  0  0  0
   45.6083   -2.1357   16.7374 N   0  0  0  0  0  0  0  0  0  0  0  0
  1  2  1  0  0  0  0
  2  3  1  0  0  0  0
  3  4  1  0  0  0  0
  4  5  1  0  0  0  0
  5  6  1  0  0  0  0
  6  7  1  0  0  0  0
  7  8  1  0  0  0  0
  8  9  1  0  0  0  0
  9 10  1  0  0  0  0
 10 11  1  0  0  0  0
 11 12  1  0  0  0  0
 12 13  1  0  0  0  0
 13 14  1  0  0  0  0
M  END
>  <CHROM.1>
178.72228165,-60.47942572,-158.00934930,-142.89229558,-64.50212478,-177.03005877
172.69855253,172.02439282,-179.90895647,177.55206286,60.17770821,45.97000060
4.37299983,18.36061057,-0.85486457,-1.39132026,-2.17418518

>  <Name>
ligand

>  <RI>
0

>  <Rbt.Current_Directory>
/home/itssahil/PROJECTS/Mol_Feturizer/New_Systems/rnas/1TN2

>  <Rbt.Executable>
rbdock ($Id: //depot/dev/client3/rdock/2013.1/src/exe/rbdock.cxx#4 $)

>  <Rbt.Library>
libRbt.so (2013.1, Build901 2013/11/27)

>  <Rbt.Parameter_File>
/export/apps/rDock/src/rDock_2013.1_src/data/scripts/dock_solv.prm

>  <Rbt.Receptor>
prm/pocket_docking_3.prm

>  <SCORE>
-8.85236

>  <SCORE.INTER>
-5.89722

>  <SCORE.INTER.CONST>
1

>  <SCORE.INTER.POLAR>
0

>  <SCORE.INTER.ROT>
11

>  <SCORE.INTER.SOLV>
18.268

>  <SCORE.INTER.VDW>
-20.9542

>  <SCORE.INTER.norm>
-0.42123

>  <SCORE.INTRA>
-2.95515

>  <SCORE.INTRA.DIHEDRAL>
-6.22708

>  <SCORE.INTRA.DIHEDRAL.0>
7.79482

>  <SCORE.INTRA.POLAR>
0

>  <SCORE.INTRA.POLAR.0>
0

>  <SCORE.INTRA.REPUL>
0

>  <SCORE.INTRA.REPUL.0>
0

>  <SCORE.INTRA.SOLV>
1.47319

>  <SCORE.INTRA.SOLV.lig_0>
-49.456

>  <SCORE.INTRA.VDW>
-0.578203

>  <SCORE.INTRA.VDW.0>
-0.478406

>  <SCORE.INTRA.norm>
-0.211082

>  <SCORE.RESTR>
0

>  <SCORE.RESTR.CAVITY>
0

>  <SCORE.RESTR.norm>
0

>  <SCORE.SYSTEM>
0

>  <SCORE.SYSTEM.CONST>
0

>  <SCORE.SYSTEM.DIHEDRAL>
0

>  <SCORE.SYSTEM.SOLV>
0

>  <SCORE.SYSTEM.norm>
0

>  <SCORE.heavy>
14

>  <SCORE.norm>
-0.632312

>  <RMSD>
2.955

$$$$
ligand
 OpenBabel11021811413D
libRbt.so/2013.1/901 2013/11/27
 14 13  0  0  0  0  0  0  0  0999 V2000
   48.4375    9.2651   16.7195 N   0  0  0  0  0  0  0  0  0  0  0  0
   47.6196    8.7189   17.8240 C   0  0  0  0  0  0  0  0  0  0  0  0
   46.8950    9.8457   18.5917 C   0  0  0  0  0  0  0  0  0  0  0  0
   46.0149    9.3629   19.7564 C   0  0  0  0  0  0  0  0  0  0  0  0
   44.9253    8.4729   19.2696 N   0  0  0  0  0  0  0  0  0  0  0  0
   44.7412    7.3302   20.2008 C   0  0  0  0  0  0  0  0  0  0  0  0
   45.9616    6.3573   20.3277 C   0  0  0  0  0  0  0  0  0  0  0  0
   45.6410    5.0301   21.0735 C   0  0  0  0  0  0  0  0  0  0  0  0
   44.7856    4.0663   20.2745 C   0  0  0  0  0  0  0  0  0  0  0  0
   45.6121    3.5199   19.2150 N   0  0  0  0  0  0  0  0  0  0  0  0
   44.8421    2.4375   18.6275 C   0  0  0  0  0  0  0  0  0  0  0  0
   45.6703    1.6452   17.6228 C   0  0  0  0  0  0  0  0  0  0  0  0
   44.7515    0.5857   16.9958 C   0  0  0  0  0  0  0  0  0  0  0  0
   45.4018   -0.1270   15.8859 N   0  0  0  0  0  0  0  0  0  0  0  0
  1  2  1  0  0  0  0
  2  3  1  0  0  0  0
  3  4  1  0  0  0  0
  4  5  1  0  0  0  0
  5  6  1  0  0  0  0
  6  7  1  0  0  0  0
  7  8  1  0  0  0  0
  8  9  1  0  0  0  0
  9 10  1  0  0  0  0
 10 11  1  0  0  0  0
 11 12  1  0  0  0  0
 12 13  1  0  0  0  0
 13 14  1  0  0  0  0
M  END
>  <CHROM.1>
179.74447074,-61.51647398,139.22087342,-63.70896292,-168.19013652,72.33507691
71.99366069,170.10766668,-172.12577391,-176.55607183,172.72693092,45.80699390
5.46513679,18.74216055,-1.19911333,-1.03935238,-2.65678185

>  <Name>
ligand

>  <RI>
0

>  <Rbt.Current_Directory>
/home/itssahil/PROJECTS/Mol_Feturizer/New_Systems/rnas/1TN2

>  <Rbt.Executable>
rbdock ($Id: //depot/dev/client3/rdock/2013.1/src/exe/rbdock.cxx#4 $)

>  <Rbt.Library>
libRbt.so (2013.1, Build901 2013/11/27)

>  <Rbt.Parameter_File>
/export/apps/rDock/src/rDock_2013.1_src/data/scripts/dock_solv.prm

>  <Rbt.Receptor>
prm/pocket_docking_5.prm

>  <SCORE>
-8.4939

>  <SCORE.INTER>
-6.39325

>  <SCORE.INTER.CONST>
1

>  <SCORE.INTER.POLAR>
0

>  <SCORE.INTER.ROT>
11

>  <SCORE.INTER.SOLV>
11.6798

>  <SCORE.INTER.VDW>
-19.0888

>  <SCORE.INTER.norm>
-0.456661

>  <SCORE.INTRA>
-2.10065

>  <SCORE.INTRA.DIHEDRAL>
-4.82821

>  <SCORE.INTRA.DIHEDRAL.0>
7.79482

>  <SCORE.INTRA.POLAR>
0

>  <SCORE.INTRA.POLAR.0>
0

>  <SCORE.INTRA.REPUL>
0

>  <SCORE.INTRA.REPUL.0>
0

>  <SCORE.INTRA.SOLV>
0.861888

>  <SCORE.INTRA.SOLV.lig_0>
-49.456

>  <SCORE.INTRA.VDW>
-0.117488

>  <SCORE.INTRA.VDW.0>
-0.478406

>  <SCORE.INTRA.norm>
-0.150046

>  <SCORE.RESTR>
0

>  <SCORE.RESTR.CAVITY>
0

>  <SCORE.RESTR.norm>
0

>  <SCORE.SYSTEM>
0

>  <SCORE.SYSTEM.CONST>
0

>  <SCORE.SYSTEM.DIHEDRAL>
0

>  <SCORE.SYSTEM.SOLV>
0

>  <SCORE.SYSTEM.norm>
0

>  <SCORE.heavy>
14

>  <SCORE.norm>
-0.606707

>  <RMSD>
2.956

$$$$
ligand
 OpenBabel11021811413D
libRbt.so/2013.1/901 2013/11/27
 14 13  0  0  0  0  0  0  0  0999 V2000
   45.0230   10.9324   18.2769 N   0  0  0  0  0  0  0  0  0  0  0  0
   45.8268    9.8877   18.9474 C   0  0  0  0  0  0  0  0  0  0  0  0
   44.9372    8.7193   19.4243 C   0  0  0  0  0  0  0  0  0  0  0  0
   45.6956    7.5862   20.1347 C   0  0  0  0  0  0  0  0  0  0  0  0
   44.7839    6.4554   20.4610 N   0  0  0  0  0  0  0  0  0  0  0  0
   45.5470    5.3445   21.0860 C   0  0  0  0  0  0  0  0  0  0  0  0
   46.2838    4.3858   20.0909 C   0  0  0  0  0  0  0  0  0  0  0  0
   45.3301    3.5675   19.1737 C   0  0  0  0  0  0  0  0  0  0  0  0
   46.0265    2.4877   18.3689 C   0  0  0  0  0  0  0  0  0  0  0  0
   45.0204    1.8224   17.5630 N   0  0  0  0  0  0  0  0  0  0  0  0
   45.5356    0.4894   17.3038 C   0  0  0  0  0  0  0  0  0  0  0  0
   45.2788    0.0626   15.8632 C   0  0  0  0  0  0  0  0  0  0  0  0
   45.7990   -1.3741   15.7043 C   0  0  0  0  0  0  0  0  0  0  0  0
   45.6138   -1.8840   14.3374 N   0  0  0  0  0  0  0  0  0  0  0  0
  1  2  1  0  0  0  0
  2  3  1  0  0  0  0
  3  4  1  0  0  0  0
  4  5  1  0  0  0  0
  5  6  1  0  0  0  0
  6  7  1  0  0  0  0
  7  8  1  0  0  0  0
  8  9  1  0  0  0  0
  9 10  1  0  0  0  0
 10 11  1  0  0  0  0
 11 12  1  0  0  0  0
 12 13  1  0  0  0  0
 13 14  1  0  0  0  0
M  END
>  <CHROM.1>
-179.98543783,-175.38028748,177.23690889,-82.41357365,-65.14743436,-170.88735250
-179.61886631,-154.65333992,-138.46753616,-177.50725331,-179.35535292,45.47882803
4.17728004,18.33852102,1.84903986,-1.48811897,0.64036839

>  <Name>
ligand

>  <RI>
0

>  <Rbt.Current_Directory>
/home/itssahil/PROJECTS/Mol_Feturizer/New_Systems/rnas/1TN2

>  <Rbt.Executable>
rbdock ($Id: //depot/dev/client3/rdock/2013.1/src/exe/rbdock.cxx#4 $)

>  <Rbt.Library>
libRbt.so (2013.1, Build901 2013/11/27)

>  <Rbt.Parameter_File>
/export/apps/rDock/src/rDock_2013.1_src/data/scripts/dock_solv.prm

>  <Rbt.Receptor>
prm/pocket_docking_4.prm

>  <SCORE>
-11.016

>  <SCORE.INTER>
-7.72538

>  <SCORE.INTER.CONST>
1

>  <SCORE.INTER.POLAR>
0

>  <SCORE.INTER.ROT>
11

>  <SCORE.INTER.SOLV>
11.6789

>  <SCORE.INTER.VDW>
-19.9765

>  <SCORE.INTER.norm>
-0.551813

>  <SCORE.INTRA>
-3.29061

>  <SCORE.INTRA.DIHEDRAL>
-5.47738

>  <SCORE.INTRA.DIHEDRAL.0>
7.79482

>  <SCORE.INTRA.POLAR>
0

>  <SCORE.INTRA.POLAR.0>
0

>  <SCORE.INTRA.REPUL>
0

>  <SCORE.INTRA.REPUL.0>
0

>  <SCORE.INTRA.SOLV>
0.24456

>  <SCORE.INTRA.SOLV.lig_0>
-49.456

>  <SCORE.INTRA.VDW>
-0.674197

>  <SCORE.INTRA.VDW.0>
-0.478406

>  <SCORE.INTRA.norm>
-0.235043

>  <SCORE.RESTR>
0

>  <SCORE.RESTR.CAVITY>
0

>  <SCORE.RESTR.norm>
0

>  <SCORE.SYSTEM>
0

>  <SCORE.SYSTEM.CONST>
0

>  <SCORE.SYSTEM.DIHEDRAL>
0

>  <SCORE.SYSTEM.SOLV>
0

>  <SCORE.SYSTEM.norm>
0

>  <SCORE.heavy>
14

>  <SCORE.norm>
-0.786856

>  <RMSD>
2.967

$$$$
ligand
 OpenBabel11021811413D
libRbt.so/2013.1/901 2013/11/27
 14 13  0  0  0  0  0  0  0  0999 V2000
   41.3470   10.0046   18.7394 N   0  0  0  0  0  0  0  0  0  0  0  0
   42.4867    9.3136   19.3804 C   0  0  0  0  0  0  0  0  0  0  0  0
   42.0190    8.0552   20.1430 C   0  0  0  0  0  0  0  0  0  0  0  0
   43.1462    7.2690   20.8324 C   0  0  0  0  0  0  0  0  0  0  0  0
   44.1328    6.7659   19.8375 N   0  0  0  0  0  0  0  0  0  0  0  0
   45.3347    6.2343   20.5300 C   0  0  0  0  0  0  0  0  0  0  0  0
   46.1604    5.1701   19.7314 C   0  0  0  0  0  0  0  0  0  0  0  0
   45.3998    3.8372   19.4756 C   0  0  0  0  0  0  0  0  0  0  0  0
   46.2069    2.8043   18.7137 C   0  0  0  0  0  0  0  0  0  0  0  0
   45.4476    1.5682   18.7108 N   0  0  0  0  0  0  0  0  0  0  0  0
   45.7296    0.9310   17.4364 C   0  0  0  0  0  0  0  0  0  0  0  0
   44.4627    0.7586   16.6066 C   0  0  0  0  0  0  0  0  0  0  0  0
   44.8698    0.1438   15.2589 C   0  0  0  0  0  0  0  0  0  0  0  0
   45.4010   -1.2194   15.4080 N   0  0  0  0  0  0  0  0  0  0  0  0
  1  2  1  0  0  0  0
  2  3  1  0  0  0  0
  3  4  1  0  0  0  0
  4  5  1  0  0  0  0
  5  6  1  0  0  0  0
  6  7  1  0  0  0  0
  7  8  1  0  0  0  0
  8  9  1  0  0  0  0
  9 10  1  0  0  0  0
 10 11  1  0  0  0  0
 11 12  1  0  0  0  0
 12 13  1  0  0  0  0
 13 14  1  0  0  0  0
M  END
>  <CHROM.1>
179.56529536,-61.51298901,169.48543878,155.58723118,-65.45474899,-179.44673646
172.37372247,146.03204858,-118.87930835,177.28313771,65.57920199,44.43900490
4.40265360,18.62905306,1.95637383,-0.70491795,0.63672361

>  <Name>
ligand

>  <RI>
0

>  <Rbt.Current_Directory>
/home/itssahil/PROJECTS/Mol_Feturizer/New_Systems/rnas/1TN2

>  <Rbt.Executable>
rbdock ($Id: //depot/dev/client3/rdock/2013.1/src/exe/rbdock.cxx#4 $)

>  <Rbt.Library>
libRbt.so (2013.1, Build901 2013/11/27)

>  <Rbt.Parameter_File>
/export/apps/rDock/src/rDock_2013.1_src/data/scripts/dock_solv.prm

>  <Rbt.Receptor>
prm/blind_docking_100.prm

>  <SCORE>
-11.172

>  <SCORE.INTER>
-8.74006

>  <SCORE.INTER.CONST>
1

>  <SCORE.INTER.POLAR>
0

>  <SCORE.INTER.ROT>
11

>  <SCORE.INTER.SOLV>
20.6279

>  <SCORE.INTER.VDW>
-23.636

>  <SCORE.INTER.norm>
-0.62429

>  <SCORE.INTRA>
-2.43191

>  <SCORE.INTRA.DIHEDRAL>
-4.87206

>  <SCORE.INTRA.DIHEDRAL.0>
7.79482

>  <SCORE.INTRA.POLAR>
0

>  <SCORE.INTRA.POLAR.0>
0

>  <SCORE.INTRA.REPUL>
0

>  <SCORE.INTRA.REPUL.0>
0

>  <SCORE.INTRA.SOLV>
1.37735

>  <SCORE.INTRA.SOLV.lig_0>
-49.456

>  <SCORE.INTRA.VDW>
-0.684552

>  <SCORE.INTRA.VDW.0>
-0.478406

>  <SCORE.INTRA.norm>
-0.173708

>  <SCORE.RESTR>
0

>  <SCORE.RESTR.CAVITY>
0

>  <SCORE.RESTR.norm>
0

>  <SCORE.SYSTEM>
0

>  <SCORE.SYSTEM.CONST>
0

>  <SCORE.SYSTEM.DIHEDRAL>
0

>  <SCORE.SYSTEM.SOLV>
0

>  <SCORE.SYSTEM.norm>
0

>  <SCORE.heavy>
14

>  <SCORE.norm>
-0.797998

>  <RMSD>
2.970

$$$$
ligand
 OpenBabel11021811413D
libRbt.so/2013.1/901 2013/11/27
 14 13  0  0  0  0  0  0  0  0999 V2000
   45.7218   -1.8452   14.4497 N   0  0  0  0  0  0  0  0  0  0  0  0
   44.9189   -0.7630   15.0591 C   0  0  0  0  0  0  0  0  0  0  0  0
   45.5024   -0.3355   16.4231 C   0  0  0  0  0  0  0  0  0  0  0  0
   44.7914    0.8609   17.0766 C   0  0  0  0  0  0  0  0  0  0  0  0
   45.5673    1.3738   18.2391 N   0  0  0  0  0  0  0  0  0  0  0  0
   44.7691    2.3801   18.9853 C   0  0  0  0  0  0  0  0  0  0  0  0
   45.5375    3.6793   19.4024 C   0  0  0  0  0  0  0  0  0  0  0  0
   44.7232    4.6298   20.3264 C   0  0  0  0  0  0  0  0  0  0  0  0
   45.5017    5.8402   20.8037 C   0  0  0  0  0  0  0  0  0  0  0  0
   45.7794    6.6686   19.6458 N   0  0  0  0  0  0  0  0  0  0  0  0
   46.6490    7.7324   20.1168 C   0  0  0  0  0  0  0  0  0  0  0  0
   46.9122    8.7624   19.0245 C   0  0  0  0  0  0  0  0  0  0  0  0
   45.5876    9.4864   18.7396 C   0  0  0  0  0  0  0  0  0  0  0  0
   45.7264   10.5052   17.6882 N   0  0  0  0  0  0  0  0  0  0  0  0
  1  2  1  0  0  0  0
  2  3  1  0  0  0  0
  3  4  1  0  0  0  0
  4  5  1  0  0  0  0
  5  6  1  0  0  0  0
  6  7  1  0  0  0  0
  7  8  1  0  0  0  0
  8  9  1  0  0  0  0
  9 10  1  0  0  0  0
 10 11  1  0  0  0  0
 11 12  1  0  0  0  0
 12 13  1  0  0  0  0
 13 14  1  0  0  0  0
M  END
>  <CHROM.1>
175.48220463,-168.89663670,-171.00720955,-135.17394994,-172.99266167,176.11062818
66.42523286,-173.77772307,-174.39363492,67.32962653,-179.71134766,45.54909007
4.21254215,18.28462013,-2.09650706,1.41862077,0.85881078

>  <Name>
ligand

>  <RI>
0

>  <Rbt.Current_Directory>
/home/itssahil/PROJECTS/Mol_Feturizer/New_Systems/rnas/1TN2

>  <Rbt.Executable>
rbdock ($Id: //depot/dev/client3/rdock/2013.1/src/exe/rbdock.cxx#4 $)

>  <Rbt.Library>
libRbt.so (2013.1, Build901 2013/11/27)

>  <Rbt.Parameter_File>
/export/apps/rDock/src/rDock_2013.1_src/data/scripts/dock_solv.prm

>  <Rbt.Receptor>
prm/pocket_docking_3.prm

>  <SCORE>
-10.0683

>  <SCORE.INTER>
-7.05055

>  <SCORE.INTER.CONST>
1

>  <SCORE.INTER.POLAR>
0

>  <SCORE.INTER.ROT>
11

>  <SCORE.INTER.SOLV>
11.3464

>  <SCORE.INTER.VDW>
-19.4158

>  <SCORE.INTER.norm>
-0.50361

>  <SCORE.INTRA>
-3.01779

>  <SCORE.INTRA.DIHEDRAL>
-5.51887

>  <SCORE.INTRA.DIHEDRAL.0>
7.79482

>  <SCORE.INTRA.POLAR>
0

>  <SCORE.INTRA.POLAR.0>
0

>  <SCORE.INTRA.REPUL>
0

>  <SCORE.INTRA.REPUL.0>
0

>  <SCORE.INTRA.SOLV>
0.718576

>  <SCORE.INTRA.SOLV.lig_0>
-49.456

>  <SCORE.INTRA.VDW>
-0.617643

>  <SCORE.INTRA.VDW.0>
-0.478406

>  <SCORE.INTRA.norm>
-0.215557

>  <SCORE.RESTR>
0

>  <SCORE.RESTR.CAVITY>
0

>  <SCORE.RESTR.norm>
0

>  <SCORE.SYSTEM>
0

>  <SCORE.SYSTEM.CONST>
0

>  <SCORE.SYSTEM.DIHEDRAL>
0

>  <SCORE.SYSTEM.SOLV>
0

>  <SCORE.SYSTEM.norm>
0

>  <SCORE.heavy>
14

>  <SCORE.norm>
-0.719167

>  <RMSD>
2.971

$$$$
ligand
 OpenBabel11021811413D
libRbt.so/2013.1/901 2013/11/27
 14 13  0  0  0  0  0  0  0  0999 V2000
   45.6465    1.7671   17.2714 N   0  0  0  0  0  0  0  0  0  0  0  0
   46.1934    3.0540   17.7528 C   0  0  0  0  0  0  0  0  0  0  0  0
   45.7293    3.3532   19.1947 C   0  0  0  0  0  0  0  0  0  0  0  0
   46.1999    4.7072   19.7505 C   0  0  0  0  0  0  0  0  0  0  0  0
   45.8424    4.8479   21.1889 N   0  0  0  0  0  0  0  0  0  0  0  0
   44.4104    5.2177   21.3282 C   0  0  0  0  0  0  0  0  0  0  0  0
   44.0941    6.7482   21.2298 C   0  0  0  0  0  0  0  0  0  0  0  0
   44.3273    7.3553   19.8165 C   0  0  0  0  0  0  0  0  0  0  0  0
   44.0872    8.8505   19.7416 C   0  0  0  0  0  0  0  0  0  0  0  0
   44.1396    9.2345   18.3437 N   0  0  0  0  0  0  0  0  0  0  0  0
   45.4815    9.7438   18.1209 C   0  0  0  0  0  0  0  0  0  0  0  0
   45.8129    9.8109   16.6346 C   0  0  0  0  0  0  0  0  0  0  0  0
   44.9258   10.8981   16.0093 C   0  0  0  0  0  0  0  0  0  0  0  0
   45.3447   12.2516   16.4036 N   0  0  0  0  0  0  0  0  0  0  0  0
  1  2  1  0  0  0  0
  2  3  1  0  0  0  0
  3  4  1  0  0  0  0
  4  5  1  0  0  0  0
  5  6  1  0  0  0  0
  6  7  1  0  0  0  0
  7  8  1  0  0  0  0
  8  9  1  0  0  0  0
  9 10  1  0  0  0  0
 10 11  1  0  0  0  0
 11 12  1  0  0  0  0
 12 13  1  0  0  0  0
 13 14  1  0  0  0  0
M  END
>  <CHROM.1>
-177.27048439,-173.56481821,-79.07298317,-85.31043124,67.95560039,-177.08759618
-171.39379993,-97.77693476,163.66009380,67.91304025,71.96303247,45.15960450
6.98856405,18.77065641,-1.34081260,1.23786477,-0.51376284

>  <Name>
ligand

>  <RI>
0

>  <Rbt.Current_Directory>
/home/itssahil/PROJECTS/Mol_Feturizer/New_Systems/rnas/1TN2

>  <Rbt.Executable>
rbdock ($Id: //depot/dev/client3/rdock/2013.1/src/exe/rbdock.cxx#4 $)

>  <Rbt.Library>
libRbt.so (2013.1, Build901 2013/11/27)

>  <Rbt.Parameter_File>
/export/apps/rDock/src/rDock_2013.1_src/data/scripts/dock_solv.prm

>  <Rbt.Receptor>
prm/pocket_docking_6.prm

>  <SCORE>
-7.20204

>  <SCORE.INTER>
-6.25618

>  <SCORE.INTER.CONST>
1

>  <SCORE.INTER.POLAR>
0

>  <SCORE.INTER.ROT>
11

>  <SCORE.INTER.SOLV>
12.1525

>  <SCORE.INTER.VDW>
-19.155

>  <SCORE.INTER.norm>
-0.44687

>  <SCORE.INTRA>
-0.945865

>  <SCORE.INTRA.DIHEDRAL>
-4.53351

>  <SCORE.INTRA.DIHEDRAL.0>
7.79482

>  <SCORE.INTRA.POLAR>
0

>  <SCORE.INTRA.POLAR.0>
0

>  <SCORE.INTRA.REPUL>
0

>  <SCORE.INTRA.REPUL.0>
0

>  <SCORE.INTRA.SOLV>
1.84677

>  <SCORE.INTRA.SOLV.lig_0>
-49.456

>  <SCORE.INTRA.VDW>
0.397506

>  <SCORE.INTRA.VDW.0>
-0.478406

>  <SCORE.INTRA.norm>
-0.0675618

>  <SCORE.RESTR>
0

>  <SCORE.RESTR.CAVITY>
0

>  <SCORE.RESTR.norm>
0

>  <SCORE.SYSTEM>
0

>  <SCORE.SYSTEM.CONST>
0

>  <SCORE.SYSTEM.DIHEDRAL>
0

>  <SCORE.SYSTEM.SOLV>
0

>  <SCORE.SYSTEM.norm>
0

>  <SCORE.heavy>
14

>  <SCORE.norm>
-0.514431

>  <RMSD>
2.976

$$$$
ligand
 OpenBabel11021811413D
libRbt.so/2013.1/901 2013/11/27
 14 13  0  0  0  0  0  0  0  0999 V2000
   45.2010   -1.2278   14.4103 N   0  0  0  0  0  0  0  0  0  0  0  0
   45.2409   -0.0409   15.2917 C   0  0  0  0  0  0  0  0  0  0  0  0
   45.5396   -0.4407   16.7528 C   0  0  0  0  0  0  0  0  0  0  0  0
   45.6589    0.7419   17.7282 C   0  0  0  0  0  0  0  0  0  0  0  0
   44.3586    1.4536   17.8666 N   0  0  0  0  0  0  0  0  0  0  0  0
   44.3144    2.1967   19.1522 C   0  0  0  0  0  0  0  0  0  0  0  0
   45.1549    3.5171   19.1998 C   0  0  0  0  0  0  0  0  0  0  0  0
   44.9899    4.3278   20.5174 C   0  0  0  0  0  0  0  0  0  0  0  0
   45.8353    5.5850   20.5764 C   0  0  0  0  0  0  0  0  0  0  0  0
   45.3013    6.5197   19.6040 N   0  0  0  0  0  0  0  0  0  0  0  0
   46.0706    7.7415   19.7622 C   0  0  0  0  0  0  0  0  0  0  0  0
   45.4988    8.8739   18.9172 C   0  0  0  0  0  0  0  0  0  0  0  0
   46.3920   10.1062   19.1259 C   0  0  0  0  0  0  0  0  0  0  0  0
   45.9197   11.2704   18.3615 N   0  0  0  0  0  0  0  0  0  0  0  0
  1  2  1  0  0  0  0
  2  3  1  0  0  0  0
  3  4  1  0  0  0  0
  4  5  1  0  0  0  0
  5  6  1  0  0  0  0
  6  7  1  0  0  0  0
  7  8  1  0  0  0  0
  8  9  1  0  0  0  0
  9 10  1  0  0  0  0
 10 11  1  0  0  0  0
 11 12  1  0  0  0  0
 12 13  1  0  0  0  0
 13 14  1  0  0  0  0
M  END
>  <CHROM.1>
177.49785697,65.33869866,157.18935040,75.47772971,175.14602251,178.34300879
68.73358197,175.80731350,-172.87100378,-178.76330051,-179.41130894,45.39122345
4.33024945,18.37648488,-2.01371099,1.39302151,0.74123104

>  <Name>
ligand

>  <RI>
0

>  <Rbt.Current_Directory>
/home/itssahil/PROJECTS/Mol_Feturizer/New_Systems/rnas/1TN2

>  <Rbt.Executable>
rbdock ($Id: //depot/dev/client3/rdock/2013.1/src/exe/rbdock.cxx#4 $)

>  <Rbt.Library>
libRbt.so (2013.1, Build901 2013/11/27)

>  <Rbt.Parameter_File>
/export/apps/rDock/src/rDock_2013.1_src/data/scripts/dock_solv.prm

>  <Rbt.Receptor>
prm/pocket_docking_3.prm

>  <SCORE>
-9.18527

>  <SCORE.INTER>
-5.74327

>  <SCORE.INTER.CONST>
1

>  <SCORE.INTER.POLAR>
0

>  <SCORE.INTER.ROT>
11

>  <SCORE.INTER.SOLV>
12.3993

>  <SCORE.INTER.VDW>
-18.8953

>  <SCORE.INTER.norm>
-0.410234

>  <SCORE.INTRA>
-3.442

>  <SCORE.INTRA.DIHEDRAL>
-6.65155

>  <SCORE.INTRA.DIHEDRAL.0>
7.79482

>  <SCORE.INTRA.POLAR>
0

>  <SCORE.INTRA.POLAR.0>
0

>  <SCORE.INTRA.REPUL>
0

>  <SCORE.INTRA.REPUL.0>
0

>  <SCORE.INTRA.SOLV>
0.627209

>  <SCORE.INTRA.SOLV.lig_0>
-49.456

>  <SCORE.INTRA.VDW>
-0.429831

>  <SCORE.INTRA.VDW.0>
-0.478406

>  <SCORE.INTRA.norm>
-0.245857

>  <SCORE.RESTR>
0

>  <SCORE.RESTR.CAVITY>
0

>  <SCORE.RESTR.norm>
0

>  <SCORE.SYSTEM>
0

>  <SCORE.SYSTEM.CONST>
0

>  <SCORE.SYSTEM.DIHEDRAL>
0

>  <SCORE.SYSTEM.SOLV>
0

>  <SCORE.SYSTEM.norm>
0

>  <SCORE.heavy>
14

>  <SCORE.norm>
-0.656091

>  <RMSD>
3.001

$$$$
ligand
 OpenBabel11021811413D
libRbt.so/2013.1/901 2013/11/27
 14 13  0  0  0  0  0  0  0  0999 V2000
   45.9981   -1.5785   14.7923 N   0  0  0  0  0  0  0  0  0  0  0  0
   45.4223   -0.3649   15.4109 C   0  0  0  0  0  0  0  0  0  0  0  0
   45.4340   -0.4648   16.9517 C   0  0  0  0  0  0  0  0  0  0  0  0
   44.9526    0.8016   17.6786 C   0  0  0  0  0  0  0  0  0  0  0  0
   45.8164    1.9683   17.3485 N   0  0  0  0  0  0  0  0  0  0  0  0
   46.2426    2.6598   18.5923 C   0  0  0  0  0  0  0  0  0  0  0  0
   45.9057    4.1873   18.6667 C   0  0  0  0  0  0  0  0  0  0  0  0
   46.3477    4.8712   19.9923 C   0  0  0  0  0  0  0  0  0  0  0  0
   45.9010    6.3146   20.1190 C   0  0  0  0  0  0  0  0  0  0  0  0
   46.5366    7.0663   19.0535 N   0  0  0  0  0  0  0  0  0  0  0  0
   45.7493    8.2767   18.8959 C   0  0  0  0  0  0  0  0  0  0  0  0
   46.6372    9.5129   18.8143 C   0  0  0  0  0  0  0  0  0  0  0  0
   47.3768    9.4658   17.4687 C   0  0  0  0  0  0  0  0  0  0  0  0
   48.4449    8.4550   17.4569 N   0  0  0  0  0  0  0  0  0  0  0  0
  1  2  1  0  0  0  0
  2  3  1  0  0  0  0
  3  4  1  0  0  0  0
  4  5  1  0  0  0  0
  5  6  1  0  0  0  0
  6  7  1  0  0  0  0
  7  8  1  0  0  0  0
  8  9  1  0  0  0  0
  9 10  1  0  0  0  0
 10 11  1  0  0  0  0
 11 12  1  0  0  0  0
 12 13  1  0  0  0  0
 13 14  1  0  0  0  0
M  END
>  <CHROM.1>
175.48602467,-60.57533628,-130.20496930,-124.53108139,179.10620693,-174.33080715
-62.92213670,159.93472110,133.37018467,70.08387985,-73.66208010,46.19730618
4.36952994,17.94614128,-1.93858078,1.16448012,0.59953861

>  <Name>
ligand

>  <RI>
0

>  <Rbt.Current_Directory>
/home/itssahil/PROJECTS/Mol_Feturizer/New_Systems/rnas/1TN2

>  <Rbt.Executable>
rbdock ($Id: //depot/dev/client3/rdock/2013.1/src/exe/rbdock.cxx#4 $)

>  <Rbt.Library>
libRbt.so (2013.1, Build901 2013/11/27)

>  <Rbt.Parameter_File>
/export/apps/rDock/src/rDock_2013.1_src/data/scripts/dock_solv.prm

>  <Rbt.Receptor>
prm/pocket_docking_2.prm

>  <SCORE>
-5.39927

>  <SCORE.INTER>
-5.34889

>  <SCORE.INTER.CONST>
1

>  <SCORE.INTER.POLAR>
0

>  <SCORE.INTER.ROT>
11

>  <SCORE.INTER.SOLV>
12.0002

>  <SCORE.INTER.VDW>
-18.4993

>  <SCORE.INTER.norm>
-0.382064

>  <SCORE.INTRA>
-0.291349

>  <SCORE.INTRA.DIHEDRAL>
-2.83511

>  <SCORE.INTRA.DIHEDRAL.0>
7.79482

>  <SCORE.INTRA.POLAR>
0

>  <SCORE.INTRA.POLAR.0>
0

>  <SCORE.INTRA.REPUL>
0

>  <SCORE.INTRA.REPUL.0>
0

>  <SCORE.INTRA.SOLV>
3.47398

>  <SCORE.INTRA.SOLV.lig_0>
-49.456

>  <SCORE.INTRA.VDW>
-0.610785

>  <SCORE.INTRA.VDW.0>
-0.478406

>  <SCORE.INTRA.norm>
-0.0208107

>  <SCORE.RESTR>
0.240971

>  <SCORE.RESTR.CAVITY>
0.240971

>  <SCORE.RESTR.norm>
0.0172122

>  <SCORE.SYSTEM>
0

>  <SCORE.SYSTEM.CONST>
0

>  <SCORE.SYSTEM.DIHEDRAL>
0

>  <SCORE.SYSTEM.SOLV>
0

>  <SCORE.SYSTEM.norm>
0

>  <SCORE.heavy>
14

>  <SCORE.norm>
-0.385662

>  <RMSD>
3.005

$$$$
ligand
 OpenBabel11021811413D
libRbt.so/2013.1/901 2013/11/27
 14 13  0  0  0  0  0  0  0  0999 V2000
   46.2650    1.2479   14.6483 N   0  0  0  0  0  0  0  0  0  0  0  0
   45.4279    0.0351   14.7732 C   0  0  0  0  0  0  0  0  0  0  0  0
   45.5423   -0.5788   16.1853 C   0  0  0  0  0  0  0  0  0  0  0  0
   44.9504    0.2871   17.3094 C   0  0  0  0  0  0  0  0  0  0  0  0
   45.7401    1.5355   17.4946 N   0  0  0  0  0  0  0  0  0  0  0  0
   45.2801    2.2588   18.7078 C   0  0  0  0  0  0  0  0  0  0  0  0
   45.9375    3.6592   18.9508 C   0  0  0  0  0  0  0  0  0  0  0  0
   45.4325    4.3843   20.2312 C   0  0  0  0  0  0  0  0  0  0  0  0
   46.0641    5.7438   20.4583 C   0  0  0  0  0  0  0  0  0  0  0  0
   45.6828    6.5964   19.3483 N   0  0  0  0  0  0  0  0  0  0  0  0
   46.7102    7.6194   19.2609 C   0  0  0  0  0  0  0  0  0  0  0  0
   46.3044    8.8828   20.0108 C   0  0  0  0  0  0  0  0  0  0  0  0
   45.1123    9.5026   19.2661 C   0  0  0  0  0  0  0  0  0  0  0  0
   43.8929    8.6910   19.3967 N   0  0  0  0  0  0  0  0  0  0  0  0
  1  2  1  0  0  0  0
  2  3  1  0  0  0  0
  3  4  1  0  0  0  0
  4  5  1  0  0  0  0
  5  6  1  0  0  0  0
  6  7  1  0  0  0  0
  7  8  1  0  0  0  0
  8  9  1  0  0  0  0
  9 10  1  0  0  0  0
 10 11  1  0  0  0  0
 11 12  1  0  0  0  0
 12 13  1  0  0  0  0
 13 14  1  0  0  0  0
M  END
>  <CHROM.1>
66.90526456,-67.13566497,-171.63961077,-174.61147617,-179.90152308,-179.60987577
63.14041164,-155.52578899,-95.15345428,-67.02248671,69.62331365,45.59596344
4.27597844,18.28893271,-1.14529067,1.56159913,0.00381288

>  <Name>
ligand

>  <RI>
0

>  <Rbt.Current_Directory>
/home/itssahil/PROJECTS/Mol_Feturizer/New_Systems/rnas/1TN2

>  <Rbt.Executable>
rbdock ($Id: //depot/dev/client3/rdock/2013.1/src/exe/rbdock.cxx#4 $)

>  <Rbt.Library>
libRbt.so (2013.1, Build901 2013/11/27)

>  <Rbt.Parameter_File>
/export/apps/rDock/src/rDock_2013.1_src/data/scripts/dock_solv.prm

>  <Rbt.Receptor>
prm/pocket_docking_7.prm

>  <SCORE>
-6.84681

>  <SCORE.INTER>
-6.97265

>  <SCORE.INTER.CONST>
1

>  <SCORE.INTER.POLAR>
0

>  <SCORE.INTER.ROT>
11

>  <SCORE.INTER.SOLV>
12.4656

>  <SCORE.INTER.VDW>
-19.737

>  <SCORE.INTER.norm>
-0.498046

>  <SCORE.INTRA>
0.125837

>  <SCORE.INTRA.DIHEDRAL>
-5.5915

>  <SCORE.INTRA.DIHEDRAL.0>
7.79482

>  <SCORE.INTRA.POLAR>
0

>  <SCORE.INTRA.POLAR.0>
0

>  <SCORE.INTRA.REPUL>
0

>  <SCORE.INTRA.REPUL.0>
0

>  <SCORE.INTRA.SOLV>
6.4049

>  <SCORE.INTRA.SOLV.lig_0>
-49.456

>  <SCORE.INTRA.VDW>
-0.280863

>  <SCORE.INTRA.VDW.0>
-0.478406

>  <SCORE.INTRA.norm>
0.00898834

>  <SCORE.RESTR>
0

>  <SCORE.RESTR.CAVITY>
0

>  <SCORE.RESTR.norm>
0

>  <SCORE.SYSTEM>
0

>  <SCORE.SYSTEM.CONST>
0

>  <SCORE.SYSTEM.DIHEDRAL>
0

>  <SCORE.SYSTEM.SOLV>
0

>  <SCORE.SYSTEM.norm>
0

>  <SCORE.heavy>
14

>  <SCORE.norm>
-0.489058

>  <RMSD>
3.010

$$$$
ligand
 OpenBabel11021811413D
libRbt.so/2013.1/901 2013/11/27
 14 13  0  0  0  0  0  0  0  0999 V2000
   41.3021    9.9862   18.5927 N   0  0  0  0  0  0  0  0  0  0  0  0
   42.4016    9.3252   19.3284 C   0  0  0  0  0  0  0  0  0  0  0  0
   41.9293    8.0005   19.9658 C   0  0  0  0  0  0  0  0  0  0  0  0
   42.9996    7.2722   20.7953 C   0  0  0  0  0  0  0  0  0  0  0  0
   44.1512    6.8663   19.9436 N   0  0  0  0  0  0  0  0  0  0  0  0
   45.2014    6.2217   20.7734 C   0  0  0  0  0  0  0  0  0  0  0  0
   46.1054    5.1802   20.0317 C   0  0  0  0  0  0  0  0  0  0  0  0
   45.3456    3.9131   19.5441 C   0  0  0  0  0  0  0  0  0  0  0  0
   46.2183    2.9194   18.8026 C   0  0  0  0  0  0  0  0  0  0  0  0
   45.4017    1.7602   18.4965 N   0  0  0  0  0  0  0  0  0  0  0  0
   45.8923    1.2516   17.2275 C   0  0  0  0  0  0  0  0  0  0  0  0
   45.1402   -0.0038   16.8016 C   0  0  0  0  0  0  0  0  0  0  0  0
   45.7107   -0.4502   15.4469 C   0  0  0  0  0  0  0  0  0  0  0  0
   45.0142   -1.6300   14.9124 N   0  0  0  0  0  0  0  0  0  0  0  0
  1  2  1  0  0  0  0
  2  3  1  0  0  0  0
  3  4  1  0  0  0  0
  4  5  1  0  0  0  0
  5  6  1  0  0  0  0
  6  7  1  0  0  0  0
  7  8  1  0  0  0  0
  8  9  1  0  0  0  0
  9 10  1  0  0  0  0
 10 11  1  0  0  0  0
 11 12  1  0  0  0  0
 12 13  1  0  0  0  0
 13 14  1  0  0  0  0
M  END
>  <CHROM.1>
-177.85148777,-62.77780200,177.36222352,152.34003537,-65.35364381,178.86267248
176.05295881,146.94267064,178.38375571,179.09035374,-177.62980476,44.48691063
4.32951408,18.61900456,1.97307033,-0.71438424,0.65611535

>  <Name>
ligand

>  <RI>
0

>  <Rbt.Current_Directory>
/home/itssahil/PROJECTS/Mol_Feturizer/New_Systems/rnas/1TN2

>  <Rbt.Executable>
rbdock ($Id: //depot/dev/client3/rdock/2013.1/src/exe/rbdock.cxx#4 $)

>  <Rbt.Library>
libRbt.so (2013.1, Build901 2013/11/27)

>  <Rbt.Parameter_File>
/export/apps/rDock/src/rDock_2013.1_src/data/scripts/dock_solv.prm

>  <Rbt.Receptor>
prm/pocket_docking_8.prm

>  <SCORE>
-12.1218

>  <SCORE.INTER>
-8.38912

>  <SCORE.INTER.CONST>
1

>  <SCORE.INTER.POLAR>
0

>  <SCORE.INTER.ROT>
11

>  <SCORE.INTER.SOLV>
20.3714

>  <SCORE.INTER.VDW>
-23.3166

>  <SCORE.INTER.norm>
-0.599223

>  <SCORE.INTRA>
-3.73271

>  <SCORE.INTRA.DIHEDRAL>
-6.32182

>  <SCORE.INTRA.DIHEDRAL.0>
7.79482

>  <SCORE.INTRA.POLAR>
0

>  <SCORE.INTRA.POLAR.0>
0

>  <SCORE.INTRA.REPUL>
0

>  <SCORE.INTRA.REPUL.0>
0

>  <SCORE.INTRA.SOLV>
0.580818

>  <SCORE.INTRA.SOLV.lig_0>
-49.456

>  <SCORE.INTRA.VDW>
-0.86221

>  <SCORE.INTRA.VDW.0>
-0.478406

>  <SCORE.INTRA.norm>
-0.266622

>  <SCORE.RESTR>
0

>  <SCORE.RESTR.CAVITY>
0

>  <SCORE.RESTR.norm>
0

>  <SCORE.SYSTEM>
0

>  <SCORE.SYSTEM.CONST>
0

>  <SCORE.SYSTEM.DIHEDRAL>
0

>  <SCORE.SYSTEM.SOLV>
0

>  <SCORE.SYSTEM.norm>
0

>  <SCORE.heavy>
14

>  <SCORE.norm>
-0.865845

>  <RMSD>
3.012

$$$$
ligand
 OpenBabel11021811413D
libRbt.so/2013.1/901 2013/11/27
 14 13  0  0  0  0  0  0  0  0999 V2000
   45.4435    1.4302   17.4954 N   0  0  0  0  0  0  0  0  0  0  0  0
   46.3046    2.2742   18.3517 C   0  0  0  0  0  0  0  0  0  0  0  0
   45.4780    3.3548   19.0817 C   0  0  0  0  0  0  0  0  0  0  0  0
   46.3089    4.3317   19.9298 C   0  0  0  0  0  0  0  0  0  0  0  0
   45.4333    5.3183   20.6200 N   0  0  0  0  0  0  0  0  0  0  0  0
   45.2145    6.5050   19.7535 C   0  0  0  0  0  0  0  0  0  0  0  0
   45.4927    7.8927   20.4236 C   0  0  0  0  0  0  0  0  0  0  0  0
   45.1613    9.1132   19.5176 C   0  0  0  0  0  0  0  0  0  0  0  0
   43.6849    9.2681   19.2092 C   0  0  0  0  0  0  0  0  0  0  0  0
   43.5312   10.4460   18.3766 N   0  0  0  0  0  0  0  0  0  0  0  0
   42.1103   10.7472   18.3716 C   0  0  0  0  0  0  0  0  0  0  0  0
   41.7971   11.9447   17.4822 C   0  0  0  0  0  0  0  0  0  0  0  0
   42.4663   13.1771   18.1094 C   0  0  0  0  0  0  0  0  0  0  0  0
   42.1636   14.4109   17.3687 N   0  0  0  0  0  0  0  0  0  0  0  0
  1  2  1  0  0  0  0
  2  3  1  0  0  0  0
  3  4  1  0  0  0  0
  4  5  1  0  0  0  0
  5  6  1  0  0  0  0
  6  7  1  0  0  0  0
  7  8  1  0  0  0  0
  8  9  1  0  0  0  0
  9 10  1  0  0  0  0
 10 11  1  0  0  0  0
 11 12  1  0  0  0  0
 12 13  1  0  0  0  0
 13 14  1  0  0  0  0
M  END
>  <CHROM.1>
-176.50174718,-178.75727223,-88.83373500,-128.93588876,-176.09269696,66.30712326
179.35000845,-166.56674022,-177.84117553,-65.21190418,-176.75999027,44.32794903
7.87241450,18.86381871,0.95684177,0.93655388,-2.73023262

>  <Name>
ligand

>  <RI>
0

>  <Rbt.Current_Directory>
/home/itssahil/PROJECTS/Mol_Feturizer/New_Systems/rnas/1TN2

>  <Rbt.Executable>
rbdock ($Id: //depot/dev/client3/rdock/2013.1/src/exe/rbdock.cxx#4 $)

>  <Rbt.Library>
libRbt.so (2013.1, Build901 2013/11/27)

>  <Rbt.Parameter_File>
/export/apps/rDock/src/rDock_2013.1_src/data/scripts/dock_solv.prm

>  <Rbt.Receptor>
prm/pocket_docking_7.prm

>  <SCORE>
-10.9583

>  <SCORE.INTER>
-8.31453

>  <SCORE.INTER.CONST>
1

>  <SCORE.INTER.POLAR>
0

>  <SCORE.INTER.ROT>
11

>  <SCORE.INTER.SOLV>
12.9834

>  <SCORE.INTER.VDW>
-20.8042

>  <SCORE.INTER.norm>
-0.593895

>  <SCORE.INTRA>
-2.64377

>  <SCORE.INTRA.DIHEDRAL>
-5.53142

>  <SCORE.INTRA.DIHEDRAL.0>
7.79482

>  <SCORE.INTRA.POLAR>
0

>  <SCORE.INTRA.POLAR.0>
0

>  <SCORE.INTRA.REPUL>
0

>  <SCORE.INTRA.REPUL.0>
0

>  <SCORE.INTRA.SOLV>
0.496903

>  <SCORE.INTRA.SOLV.lig_0>
-49.456

>  <SCORE.INTRA.VDW>
-0.126512

>  <SCORE.INTRA.VDW.0>
-0.478406

>  <SCORE.INTRA.norm>
-0.188841

>  <SCORE.RESTR>
0

>  <SCORE.RESTR.CAVITY>
0

>  <SCORE.RESTR.norm>
0

>  <SCORE.SYSTEM>
0

>  <SCORE.SYSTEM.CONST>
0

>  <SCORE.SYSTEM.DIHEDRAL>
0

>  <SCORE.SYSTEM.SOLV>
0

>  <SCORE.SYSTEM.norm>
0

>  <SCORE.heavy>
14

>  <SCORE.norm>
-0.782736

>  <RMSD>
3.013

$$$$
ligand
 OpenBabel11021811413D
libRbt.so/2013.1/901 2013/11/27
 14 13  0  0  0  0  0  0  0  0999 V2000
   42.6165   11.2374   17.1777 N   0  0  0  0  0  0  0  0  0  0  0  0
   42.3087   11.4852   18.6028 C   0  0  0  0  0  0  0  0  0  0  0  0
   41.2424   10.4972   19.1234 C   0  0  0  0  0  0  0  0  0  0  0  0
   41.6928    9.0275   19.1545 C   0  0  0  0  0  0  0  0  0  0  0  0
   42.8695    8.8480   20.0487 N   0  0  0  0  0  0  0  0  0  0  0  0
   43.4996    7.5243   19.8085 C   0  0  0  0  0  0  0  0  0  0  0  0
   44.6832    7.1548   20.7649 C   0  0  0  0  0  0  0  0  0  0  0  0
   45.4427    5.8577   20.3636 C   0  0  0  0  0  0  0  0  0  0  0  0
   44.5737    4.6153   20.3485 C   0  0  0  0  0  0  0  0  0  0  0  0
   45.1504    3.6873   19.3943 N   0  0  0  0  0  0  0  0  0  0  0  0
   44.3330    2.4885   19.4610 C   0  0  0  0  0  0  0  0  0  0  0  0
   44.6012    1.5641   18.2791 C   0  0  0  0  0  0  0  0  0  0  0  0
   46.0678    1.1147   18.3640 C   0  0  0  0  0  0  0  0  0  0  0  0
   47.0003    2.1878   17.9878 N   0  0  0  0  0  0  0  0  0  0  0  0
  1  2  1  0  0  0  0
  2  3  1  0  0  0  0
  3  4  1  0  0  0  0
  4  5  1  0  0  0  0
  5  6  1  0  0  0  0
  6  7  1  0  0  0  0
  7  8  1  0  0  0  0
  8  9  1  0  0  0  0
  9 10  1  0  0  0  0
 10 11  1  0  0  0  0
 11 12  1  0  0  0  0
 12 13  1  0  0  0  0
 13 14  1  0  0  0  0
M  END
>  <CHROM.1>
65.46127568,60.68248923,-165.69707554,-175.26247175,-172.01972354,-60.42805429
152.72922237,177.08545426,165.80339553,62.91307593,-73.75663674,44.00568076
6.23489497,19.20585315,2.75609634,-1.14927091,1.15331915

>  <Name>
ligand

>  <RI>
0

>  <Rbt.Current_Directory>
/home/itssahil/PROJECTS/Mol_Feturizer/New_Systems/rnas/1TN2

>  <Rbt.Executable>
rbdock ($Id: //depot/dev/client3/rdock/2013.1/src/exe/rbdock.cxx#4 $)

>  <Rbt.Library>
libRbt.so (2013.1, Build901 2013/11/27)

>  <Rbt.Parameter_File>
/export/apps/rDock/src/rDock_2013.1_src/data/scripts/dock_solv.prm

>  <Rbt.Receptor>
prm/pocket_docking_4.prm

>  <SCORE>
-8.61612

>  <SCORE.INTER>
-8.86347

>  <SCORE.INTER.CONST>
1

>  <SCORE.INTER.POLAR>
0

>  <SCORE.INTER.ROT>
11

>  <SCORE.INTER.SOLV>
21.4866

>  <SCORE.INTER.VDW>
-24.0045

>  <SCORE.INTER.norm>
-0.633105

>  <SCORE.INTRA>
0.247346

>  <SCORE.INTRA.DIHEDRAL>
-4.01408

>  <SCORE.INTRA.DIHEDRAL.0>
7.79482

>  <SCORE.INTRA.POLAR>
0

>  <SCORE.INTRA.POLAR.0>
0

>  <SCORE.INTRA.REPUL>
0

>  <SCORE.INTRA.REPUL.0>
0

>  <SCORE.INTRA.SOLV>
4.93397

>  <SCORE.INTRA.SOLV.lig_0>
-49.456

>  <SCORE.INTRA.VDW>
-0.212595

>  <SCORE.INTRA.VDW.0>
-0.478406

>  <SCORE.INTRA.norm>
0.0176676

>  <SCORE.RESTR>
0

>  <SCORE.RESTR.CAVITY>
0

>  <SCORE.RESTR.norm>
0

>  <SCORE.SYSTEM>
0

>  <SCORE.SYSTEM.CONST>
0

>  <SCORE.SYSTEM.DIHEDRAL>
0

>  <SCORE.SYSTEM.SOLV>
0

>  <SCORE.SYSTEM.norm>
0

>  <SCORE.heavy>
14

>  <SCORE.norm>
-0.615437

>  <RMSD>
3.018

$$$$
ligand
 OpenBabel11021811413D
libRbt.so/2013.1/901 2013/11/27
 14 13  0  0  0  0  0  0  0  0999 V2000
   46.4195   11.4527   17.5842 N   0  0  0  0  0  0  0  0  0  0  0  0
   46.3429   10.4581   18.6759 C   0  0  0  0  0  0  0  0  0  0  0  0
   46.8886    9.0872   18.2211 C   0  0  0  0  0  0  0  0  0  0  0  0
   46.8843    8.0031   19.3114 C   0  0  0  0  0  0  0  0  0  0  0  0
   45.5117    7.7887   19.8464 N   0  0  0  0  0  0  0  0  0  0  0  0
   45.4012    6.4356   20.4494 C   0  0  0  0  0  0  0  0  0  0  0  0
   44.0850    6.1572   21.2507 C   0  0  0  0  0  0  0  0  0  0  0  0
   43.9670    4.7038   21.7931 C   0  0  0  0  0  0  0  0  0  0  0  0
   43.7506    3.6601   20.7148 C   0  0  0  0  0  0  0  0  0  0  0  0
   44.9851    3.5437   19.9619 N   0  0  0  0  0  0  0  0  0  0  0  0
   44.7400    2.5313   18.9496 C   0  0  0  0  0  0  0  0  0  0  0  0
   46.0114    1.7619   18.6110 C   0  0  0  0  0  0  0  0  0  0  0  0
   45.6490    0.7074   17.5543 C   0  0  0  0  0  0  0  0  0  0  0  0
   45.3044    1.3138   16.2597 N   0  0  0  0  0  0  0  0  0  0  0  0
  1  2  1  0  0  0  0
  2  3  1  0  0  0  0
  3  4  1  0  0  0  0
  4  5  1  0  0  0  0
  5  6  1  0  0  0  0
  6  7  1  0  0  0  0
  7  8  1  0  0  0  0
  8  9  1  0  0  0  0
  9 10  1  0  0  0  0
 10 11  1  0  0  0  0
 11 12  1  0  0  0  0
 12 13  1  0  0  0  0
 13 14  1  0  0  0  0
M  END
>  <CHROM.1>
178.27277760,57.72120618,157.00737087,170.72093496,176.46259720,-69.85734520
70.30768961,179.59260553,-148.78163615,179.17296044,68.57886898,45.42428175
5.54297055,19.22773296,-1.23523591,-1.08732001,-2.81635596

>  <Name>
ligand

>  <RI>
0

>  <Rbt.Current_Directory>
/home/itssahil/PROJECTS/Mol_Feturizer/New_Systems/rnas/1TN2

>  <Rbt.Executable>
rbdock ($Id: //depot/dev/client3/rdock/2013.1/src/exe/rbdock.cxx#4 $)

>  <Rbt.Library>
libRbt.so (2013.1, Build901 2013/11/27)

>  <Rbt.Parameter_File>
/export/apps/rDock/src/rDock_2013.1_src/data/scripts/dock_solv.prm

>  <Rbt.Receptor>
prm/pocket_docking_7.prm

>  <SCORE>
-8.51919

>  <SCORE.INTER>
-6.41089

>  <SCORE.INTER.CONST>
1

>  <SCORE.INTER.POLAR>
0

>  <SCORE.INTER.ROT>
11

>  <SCORE.INTER.SOLV>
11.1951

>  <SCORE.INTER.VDW>
-18.939

>  <SCORE.INTER.norm>
-0.457921

>  <SCORE.INTRA>
-2.1083

>  <SCORE.INTRA.DIHEDRAL>
-5.55683

>  <SCORE.INTRA.DIHEDRAL.0>
7.79482

>  <SCORE.INTRA.POLAR>
0

>  <SCORE.INTRA.POLAR.0>
0

>  <SCORE.INTRA.REPUL>
0

>  <SCORE.INTRA.REPUL.0>
0

>  <SCORE.INTRA.SOLV>
2.05211

>  <SCORE.INTRA.SOLV.lig_0>
-49.456

>  <SCORE.INTRA.VDW>
-0.355943

>  <SCORE.INTRA.VDW.0>
-0.478406

>  <SCORE.INTRA.norm>
-0.150593

>  <SCORE.RESTR>
0

>  <SCORE.RESTR.CAVITY>
0

>  <SCORE.RESTR.norm>
0

>  <SCORE.SYSTEM>
0

>  <SCORE.SYSTEM.CONST>
0

>  <SCORE.SYSTEM.DIHEDRAL>
0

>  <SCORE.SYSTEM.SOLV>
0

>  <SCORE.SYSTEM.norm>
0

>  <SCORE.heavy>
14

>  <SCORE.norm>
-0.608513

>  <RMSD>
3.019

$$$$
ligand
 OpenBabel11021811413D
libRbt.so/2013.1/901 2013/11/27
 14 13  0  0  0  0  0  0  0  0999 V2000
   45.3895   -0.9325   16.1072 N   0  0  0  0  0  0  0  0  0  0  0  0
   45.5588    0.5323   16.2205 C   0  0  0  0  0  0  0  0  0  0  0  0
   45.5503    0.9825   17.6974 C   0  0  0  0  0  0  0  0  0  0  0  0
   45.8455    2.4759   17.9129 C   0  0  0  0  0  0  0  0  0  0  0  0
   45.7161    2.8444   19.3496 N   0  0  0  0  0  0  0  0  0  0  0  0
   46.2039    4.2301   19.5701 C   0  0  0  0  0  0  0  0  0  0  0  0
   45.4917    5.0237   20.7169 C   0  0  0  0  0  0  0  0  0  0  0  0
   43.9395    5.0350   20.6123 C   0  0  0  0  0  0  0  0  0  0  0  0
   43.2749    6.1202   21.4368 C   0  0  0  0  0  0  0  0  0  0  0  0
   43.6932    7.4001   20.8972 N   0  0  0  0  0  0  0  0  0  0  0  0
   42.5078    7.9847   20.2949 C   0  0  0  0  0  0  0  0  0  0  0  0
   42.8445    9.2513   19.5166 C   0  0  0  0  0  0  0  0  0  0  0  0
   41.5206    9.8776   19.0529 C   0  0  0  0  0  0  0  0  0  0  0  0
   41.7267   11.1450   18.3361 N   0  0  0  0  0  0  0  0  0  0  0  0
  1  2  1  0  0  0  0
  2  3  1  0  0  0  0
  3  4  1  0  0  0  0
  4  5  1  0  0  0  0
  5  6  1  0  0  0  0
  6  7  1  0  0  0  0
  7  8  1  0  0  0  0
  8  9  1  0  0  0  0
  9 10  1  0  0  0  0
 10 11  1  0  0  0  0
 11 12  1  0  0  0  0
 12 13  1  0  0  0  0
 13 14  1  0  0  0  0
M  END
>  <CHROM.1>
174.83566229,175.70066184,171.34859374,148.60040569,-51.96922079,-162.24350687
64.18833890,111.59156150,-172.09369694,-173.81602282,177.54812261,44.23310197
5.14074086,19.12315381,0.79161263,1.04085657,-2.16448438

>  <Name>
ligand

>  <RI>
0

>  <Rbt.Current_Directory>
/home/itssahil/PROJECTS/Mol_Feturizer/New_Systems/rnas/1TN2

>  <Rbt.Executable>
rbdock ($Id: //depot/dev/client3/rdock/2013.1/src/exe/rbdock.cxx#4 $)

>  <Rbt.Library>
libRbt.so (2013.1, Build901 2013/11/27)

>  <Rbt.Parameter_File>
/export/apps/rDock/src/rDock_2013.1_src/data/scripts/dock_solv.prm

>  <Rbt.Receptor>
prm/blind_docking_100.prm

>  <SCORE>
-11.6403

>  <SCORE.INTER>
-9.36528

>  <SCORE.INTER.CONST>
1

>  <SCORE.INTER.POLAR>
0

>  <SCORE.INTER.ROT>
11

>  <SCORE.INTER.SOLV>
21.5463

>  <SCORE.INTER.VDW>
-24.359

>  <SCORE.INTER.norm>
-0.668948

>  <SCORE.INTRA>
-2.27498

>  <SCORE.INTRA.DIHEDRAL>
-4.02436

>  <SCORE.INTRA.DIHEDRAL.0>
7.79482

>  <SCORE.INTRA.POLAR>
0

>  <SCORE.INTRA.POLAR.0>
0

>  <SCORE.INTRA.REPUL>
0

>  <SCORE.INTRA.REPUL.0>
0

>  <SCORE.INTRA.SOLV>
0.766625

>  <SCORE.INTRA.SOLV.lig_0>
-49.456

>  <SCORE.INTRA.VDW>
-0.646118

>  <SCORE.INTRA.VDW.0>
-0.478406

>  <SCORE.INTRA.norm>
-0.162499

>  <SCORE.RESTR>
0

>  <SCORE.RESTR.CAVITY>
0

>  <SCORE.RESTR.norm>
0

>  <SCORE.SYSTEM>
0

>  <SCORE.SYSTEM.CONST>
0

>  <SCORE.SYSTEM.DIHEDRAL>
0

>  <SCORE.SYSTEM.SOLV>
0

>  <SCORE.SYSTEM.norm>
0

>  <SCORE.heavy>
14

>  <SCORE.norm>
-0.831447

>  <RMSD>
3.021

$$$$
ligand
 OpenBabel11021811413D
libRbt.so/2013.1/901 2013/11/27
 14 13  0  0  0  0  0  0  0  0999 V2000
   40.7670    7.4755   20.5239 N   0  0  0  0  0  0  0  0  0  0  0  0
   40.7193    8.9129   20.1793 C   0  0  0  0  0  0  0  0  0  0  0  0
   41.8000    9.2729   19.1368 C   0  0  0  0  0  0  0  0  0  0  0  0
   43.2461    9.0731   19.6192 C   0  0  0  0  0  0  0  0  0  0  0  0
   43.5350    7.6326   19.8598 N   0  0  0  0  0  0  0  0  0  0  0  0
   44.8213    7.4815   20.5873 C   0  0  0  0  0  0  0  0  0  0  0  0
   45.3417    6.0129   20.7441 C   0  0  0  0  0  0  0  0  0  0  0  0
   45.7313    5.3305   19.4013 C   0  0  0  0  0  0  0  0  0  0  0  0
   46.1182    3.8712   19.5420 C   0  0  0  0  0  0  0  0  0  0  0  0
   46.3494    3.3475   18.2092 N   0  0  0  0  0  0  0  0  0  0  0  0
   45.9563    1.9500   18.2569 C   0  0  0  0  0  0  0  0  0  0  0  0
   45.8937    1.3403   16.8614 C   0  0  0  0  0  0  0  0  0  0  0  0
   45.4437   -0.1208   17.0123 C   0  0  0  0  0  0  0  0  0  0  0  0
   45.4482   -0.8388   15.7289 N   0  0  0  0  0  0  0  0  0  0  0  0
  1  2  1  0  0  0  0
  2  3  1  0  0  0  0
  3  4  1  0  0  0  0
  4  5  1  0  0  0  0
  5  6  1  0  0  0  0
  6  7  1  0  0  0  0
  7  8  1  0  0  0  0
  8  9  1  0  0  0  0
  9 10  1  0  0  0  0
 10 11  1  0  0  0  0
 11 12  1  0  0  0  0
 12 13  1  0  0  0  0
 13 14  1  0  0  0  0
M  END
>  <CHROM.1>
-63.35944652,65.77293795,-168.17911061,-172.38030293,65.78833890,-174.90200964
175.54519320,-147.96570386,169.09336277,-178.82556879,-175.60784962,44.36952910
5.05320975,18.97605872,1.99923713,-0.30806508,0.50269859

>  <Name>
ligand

>  <RI>
0

>  <Rbt.Current_Directory>
/home/itssahil/PROJECTS/Mol_Feturizer/New_Systems/rnas/1TN2

>  <Rbt.Executable>
rbdock ($Id: //depot/dev/client3/rdock/2013.1/src/exe/rbdock.cxx#4 $)

>  <Rbt.Library>
libRbt.so (2013.1, Build901 2013/11/27)

>  <Rbt.Parameter_File>
/export/apps/rDock/src/rDock_2013.1_src/data/scripts/dock_solv.prm

>  <Rbt.Receptor>
prm/blind_docking_60.prm

>  <SCORE>
-13.8167

>  <SCORE.INTER>
-11.3745

>  <SCORE.INTER.CONST>
1

>  <SCORE.INTER.POLAR>
0

>  <SCORE.INTER.ROT>
11

>  <SCORE.INTER.SOLV>
16.2887

>  <SCORE.INTER.VDW>
-23.9459

>  <SCORE.INTER.norm>
-0.812465

>  <SCORE.INTRA>
-2.44215

>  <SCORE.INTRA.DIHEDRAL>
-6.32289

>  <SCORE.INTRA.DIHEDRAL.0>
7.79482

>  <SCORE.INTRA.POLAR>
0

>  <SCORE.INTRA.POLAR.0>
0

>  <SCORE.INTRA.REPUL>
0

>  <SCORE.INTRA.REPUL.0>
0

>  <SCORE.INTRA.SOLV>
3.29713

>  <SCORE.INTRA.SOLV.lig_0>
-49.456

>  <SCORE.INTRA.VDW>
-0.92927

>  <SCORE.INTRA.VDW.0>
-0.478406

>  <SCORE.INTRA.norm>
-0.174439

>  <SCORE.RESTR>
0

>  <SCORE.RESTR.CAVITY>
0

>  <SCORE.RESTR.norm>
0

>  <SCORE.SYSTEM>
0

>  <SCORE.SYSTEM.CONST>
0

>  <SCORE.SYSTEM.DIHEDRAL>
0

>  <SCORE.SYSTEM.SOLV>
0

>  <SCORE.SYSTEM.norm>
0

>  <SCORE.heavy>
14

>  <SCORE.norm>
-0.986904

>  <RMSD>
3.032

$$$$
ligand
 OpenBabel11021811413D
libRbt.so/2013.1/901 2013/11/27
 14 13  0  0  0  0  0  0  0  0999 V2000
   45.3900   -1.2501   14.7431 N   0  0  0  0  0  0  0  0  0  0  0  0
   44.4412   -0.1543   15.0366 C   0  0  0  0  0  0  0  0  0  0  0  0
   45.1102    0.9517   15.8812 C   0  0  0  0  0  0  0  0  0  0  0  0
   45.5686    0.5011   17.2779 C   0  0  0  0  0  0  0  0  0  0  0  0
   46.2156    1.6211   18.0151 N   0  0  0  0  0  0  0  0  0  0  0  0
   45.2466    2.2472   18.9510 C   0  0  0  0  0  0  0  0  0  0  0  0
   45.5751    3.7162   19.3826 C   0  0  0  0  0  0  0  0  0  0  0  0
   44.6433    4.2743   20.4964 C   0  0  0  0  0  0  0  0  0  0  0  0
   44.9908    5.6814   20.9418 C   0  0  0  0  0  0  0  0  0  0  0  0
   44.7475    6.5697   19.8211 N   0  0  0  0  0  0  0  0  0  0  0  0
   45.5473    7.7558   20.0725 C   0  0  0  0  0  0  0  0  0  0  0  0
   45.1914    8.8827   19.1098 C   0  0  0  0  0  0  0  0  0  0  0  0
   46.1744   10.0363   19.3609 C   0  0  0  0  0  0  0  0  0  0  0  0
   45.9222   11.1836   18.4761 N   0  0  0  0  0  0  0  0  0  0  0  0
  1  2  1  0  0  0  0
  2  3  1  0  0  0  0
  3  4  1  0  0  0  0
  4  5  1  0  0  0  0
  5  6  1  0  0  0  0
  6  7  1  0  0  0  0
  7  8  1  0  0  0  0
  8  9  1  0  0  0  0
  9 10  1  0  0  0  0
 10 11  1  0  0  0  0
 11 12  1  0  0  0  0
 12 13  1  0  0  0  0
 13 14  1  0  0  0  0
M  END
>  <CHROM.1>
-63.48441307,179.29999068,98.55280196,-157.89663843,-172.66918474,178.22650804
65.88025693,-158.34568166,-169.33370980,-174.60589981,179.83377189,45.34020712
4.42972293,18.39783272,-1.91905211,1.46718693,0.70654651

>  <Name>
ligand

>  <RI>
0

>  <Rbt.Current_Directory>
/home/itssahil/PROJECTS/Mol_Feturizer/New_Systems/rnas/1TN2

>  <Rbt.Executable>
rbdock ($Id: //depot/dev/client3/rdock/2013.1/src/exe/rbdock.cxx#4 $)

>  <Rbt.Library>
libRbt.so (2013.1, Build901 2013/11/27)

>  <Rbt.Parameter_File>
/export/apps/rDock/src/rDock_2013.1_src/data/scripts/dock_solv.prm

>  <Rbt.Receptor>
prm/blind_docking_60.prm

>  <SCORE>
-8.74049

>  <SCORE.INTER>
-5.8353

>  <SCORE.INTER.CONST>
1

>  <SCORE.INTER.POLAR>
0

>  <SCORE.INTER.ROT>
11

>  <SCORE.INTER.SOLV>
12.3821

>  <SCORE.INTER.VDW>
-18.9509

>  <SCORE.INTER.norm>
-0.416807

>  <SCORE.INTRA>
-2.90519

>  <SCORE.INTRA.DIHEDRAL>
-5.63792

>  <SCORE.INTRA.DIHEDRAL.0>
7.79482

>  <SCORE.INTRA.POLAR>
0

>  <SCORE.INTRA.POLAR.0>
0

>  <SCORE.INTRA.REPUL>
0

>  <SCORE.INTRA.REPUL.0>
0

>  <SCORE.INTRA.SOLV>
1.01972

>  <SCORE.INTRA.SOLV.lig_0>
-49.456

>  <SCORE.INTRA.VDW>
-0.596092

>  <SCORE.INTRA.VDW.0>
-0.478406

>  <SCORE.INTRA.norm>
-0.207514

>  <SCORE.RESTR>
0

>  <SCORE.RESTR.CAVITY>
0

>  <SCORE.RESTR.norm>
0

>  <SCORE.SYSTEM>
0

>  <SCORE.SYSTEM.CONST>
0

>  <SCORE.SYSTEM.DIHEDRAL>
0

>  <SCORE.SYSTEM.SOLV>
0

>  <SCORE.SYSTEM.norm>
0

>  <SCORE.heavy>
14

>  <SCORE.norm>
-0.624321

>  <RMSD>
3.033

$$$$
ligand
 OpenBabel11021811413D
libRbt.so/2013.1/901 2013/11/27
 14 13  0  0  0  0  0  0  0  0999 V2000
   42.4518   11.0770   17.8192 N   0  0  0  0  0  0  0  0  0  0  0  0
   41.4728   10.6832   18.8554 C   0  0  0  0  0  0  0  0  0  0  0  0
   41.5711    9.1750   19.1714 C   0  0  0  0  0  0  0  0  0  0  0  0
   42.9407    8.7204   19.7020 C   0  0  0  0  0  0  0  0  0  0  0  0
   42.9270    7.2715   20.0442 N   0  0  0  0  0  0  0  0  0  0  0  0
   44.1430    6.9158   20.8198 C   0  0  0  0  0  0  0  0  0  0  0  0
   44.0930    5.5380   21.5624 C   0  0  0  0  0  0  0  0  0  0  0  0
   43.9983    4.3084   20.6139 C   0  0  0  0  0  0  0  0  0  0  0  0
   45.2464    4.0720   19.7861 C   0  0  0  0  0  0  0  0  0  0  0  0
   45.0132    2.8994   18.9646 N   0  0  0  0  0  0  0  0  0  0  0  0
   46.3028    2.5494   18.3953 C   0  0  0  0  0  0  0  0  0  0  0  0
   46.1521    1.9367   17.0078 C   0  0  0  0  0  0  0  0  0  0  0  0
   45.3637    0.6272   17.1613 C   0  0  0  0  0  0  0  0  0  0  0  0
   45.1852   -0.0675   15.8774 N   0  0  0  0  0  0  0  0  0  0  0  0
  1  2  1  0  0  0  0
  2  3  1  0  0  0  0
  3  4  1  0  0  0  0
  4  5  1  0  0  0  0
  5  6  1  0  0  0  0
  6  7  1  0  0  0  0
  7  8  1  0  0  0  0
  8  9  1  0  0  0  0
  9 10  1  0  0  0  0
 10 11  1  0  0  0  0
 11 12  1  0  0  0  0
 12 13  1  0  0  0  0
 13 14  1  0  0  0  0
M  END
>  <CHROM.1>
60.34736427,177.15224649,-167.80918393,164.68607615,64.43546794,67.90989538
179.69423704,-168.91159713,-147.64864726,-63.18677324,-178.71796676,44.06158300
5.40765058,18.98467405,2.70903797,-1.15647736,1.31112036

>  <Name>
ligand

>  <RI>
0

>  <Rbt.Current_Directory>
/home/itssahil/PROJECTS/Mol_Feturizer/New_Systems/rnas/1TN2

>  <Rbt.Executable>
rbdock ($Id: //depot/dev/client3/rdock/2013.1/src/exe/rbdock.cxx#4 $)

>  <Rbt.Library>
libRbt.so (2013.1, Build901 2013/11/27)

>  <Rbt.Parameter_File>
/export/apps/rDock/src/rDock_2013.1_src/data/scripts/dock_solv.prm

>  <Rbt.Receptor>
prm/pocket_docking_5.prm

>  <SCORE>
-12.5383

>  <SCORE.INTER>
-9.88029

>  <SCORE.INTER.CONST>
1

>  <SCORE.INTER.POLAR>
0

>  <SCORE.INTER.ROT>
11

>  <SCORE.INTER.SOLV>
17.7802

>  <SCORE.INTER.VDW>
-23.4469

>  <SCORE.INTER.norm>
-0.705735

>  <SCORE.INTRA>
-2.65801

>  <SCORE.INTRA.DIHEDRAL>
-6.31312

>  <SCORE.INTRA.DIHEDRAL.0>
7.79482

>  <SCORE.INTRA.POLAR>
0

>  <SCORE.INTRA.POLAR.0>
0

>  <SCORE.INTRA.REPUL>
0

>  <SCORE.INTRA.REPUL.0>
0

>  <SCORE.INTRA.SOLV>
1.73111

>  <SCORE.INTRA.SOLV.lig_0>
-49.456

>  <SCORE.INTRA.VDW>
-0.367004

>  <SCORE.INTRA.VDW.0>
-0.478406

>  <SCORE.INTRA.norm>
-0.189858

>  <SCORE.RESTR>
0

>  <SCORE.RESTR.CAVITY>
0

>  <SCORE.RESTR.norm>
0

>  <SCORE.SYSTEM>
0

>  <SCORE.SYSTEM.CONST>
0

>  <SCORE.SYSTEM.DIHEDRAL>
0

>  <SCORE.SYSTEM.SOLV>
0

>  <SCORE.SYSTEM.norm>
0

>  <SCORE.heavy>
14

>  <SCORE.norm>
-0.895593

>  <RMSD>
3.035

$$$$
ligand
 OpenBabel11021811413D
libRbt.so/2013.1/901 2013/11/27
 14 13  0  0  0  0  0  0  0  0999 V2000
   46.7274   -1.2858   14.5172 N   0  0  0  0  0  0  0  0  0  0  0  0
   45.3340   -1.5117   14.9582 C   0  0  0  0  0  0  0  0  0  0  0  0
   44.7542   -0.2544   15.6414 C   0  0  0  0  0  0  0  0  0  0  0  0
   45.4431    0.1323   16.9605 C   0  0  0  0  0  0  0  0  0  0  0  0
   44.7955    1.3253   17.5719 N   0  0  0  0  0  0  0  0  0  0  0  0
   45.7978    2.1263   18.3206 C   0  0  0  0  0  0  0  0  0  0  0  0
   45.2358    3.3764   19.0780 C   0  0  0  0  0  0  0  0  0  0  0  0
   46.3260    4.2380   19.7778 C   0  0  0  0  0  0  0  0  0  0  0  0
   45.7702    5.3793   20.6069 C   0  0  0  0  0  0  0  0  0  0  0  0
   45.1653    6.3312   19.6945 N   0  0  0  0  0  0  0  0  0  0  0  0
   45.8751    7.5822   19.8962 C   0  0  0  0  0  0  0  0  0  0  0  0
   45.3001    8.6958   19.0288 C   0  0  0  0  0  0  0  0  0  0  0  0
   46.2231    9.9161   19.1668 C   0  0  0  0  0  0  0  0  0  0  0  0
   45.7588   11.0575   18.3641 N   0  0  0  0  0  0  0  0  0  0  0  0
  1  2  1  0  0  0  0
  2  3  1  0  0  0  0
  3  4  1  0  0  0  0
  4  5  1  0  0  0  0
  5  6  1  0  0  0  0
  6  7  1  0  0  0  0
  7  8  1  0  0  0  0
  8  9  1  0  0  0  0
  9 10  1  0  0  0  0
 10 11  1  0  0  0  0
 11 12  1  0  0  0  0
 12 13  1  0  0  0  0
 13 14  1  0  0  0  0
M  END
>  <CHROM.1>
-65.23333442,-178.17153273,-148.43175091,-177.00698372,-176.46765914,-175.09612457
-67.40149569,-120.28342776,-177.81414285,-172.55521468,179.95513830,45.60758916
4.07905712,18.11330907,-1.91186905,1.50589209,0.69594271

>  <Name>
ligand

>  <RI>
0

>  <Rbt.Current_Directory>
/home/itssahil/PROJECTS/Mol_Feturizer/New_Systems/rnas/1TN2

>  <Rbt.Executable>
rbdock ($Id: //depot/dev/client3/rdock/2013.1/src/exe/rbdock.cxx#4 $)

>  <Rbt.Library>
libRbt.so (2013.1, Build901 2013/11/27)

>  <Rbt.Parameter_File>
/export/apps/rDock/src/rDock_2013.1_src/data/scripts/dock_solv.prm

>  <Rbt.Receptor>
prm/pocket_docking_3.prm

>  <SCORE>
-9.16924

>  <SCORE.INTER>
-6.42171

>  <SCORE.INTER.CONST>
1

>  <SCORE.INTER.POLAR>
0

>  <SCORE.INTER.ROT>
11

>  <SCORE.INTER.SOLV>
12.4973

>  <SCORE.INTER.VDW>
-19.3802

>  <SCORE.INTER.norm>
-0.458694

>  <SCORE.INTRA>
-2.75438

>  <SCORE.INTRA.DIHEDRAL>
-5.25966

>  <SCORE.INTRA.DIHEDRAL.0>
7.79482

>  <SCORE.INTRA.POLAR>
0

>  <SCORE.INTRA.POLAR.0>
0

>  <SCORE.INTRA.REPUL>
0

>  <SCORE.INTRA.REPUL.0>
0

>  <SCORE.INTRA.SOLV>
0.983714

>  <SCORE.INTRA.SOLV.lig_0>
-49.456

>  <SCORE.INTRA.VDW>
-0.616412

>  <SCORE.INTRA.VDW.0>
-0.478406

>  <SCORE.INTRA.norm>
-0.196742

>  <SCORE.RESTR>
0.00685181

>  <SCORE.RESTR.CAVITY>
0.00685181

>  <SCORE.RESTR.norm>
0.000489415

>  <SCORE.SYSTEM>
0

>  <SCORE.SYSTEM.CONST>
0

>  <SCORE.SYSTEM.DIHEDRAL>
0

>  <SCORE.SYSTEM.SOLV>
0

>  <SCORE.SYSTEM.norm>
0

>  <SCORE.heavy>
14

>  <SCORE.norm>
-0.654946

>  <RMSD>
3.044

$$$$
ligand
 OpenBabel11021811413D
libRbt.so/2013.1/901 2013/11/27
 14 13  0  0  0  0  0  0  0  0999 V2000
   46.2479   10.4493   17.4256 N   0  0  0  0  0  0  0  0  0  0  0  0
   45.7804    9.4910   18.4504 C   0  0  0  0  0  0  0  0  0  0  0  0
   46.9692    8.7874   19.1400 C   0  0  0  0  0  0  0  0  0  0  0  0
   46.5738    7.8235   20.2707 C   0  0  0  0  0  0  0  0  0  0  0  0
   45.7901    6.6731   19.7426 N   0  0  0  0  0  0  0  0  0  0  0  0
   45.6878    5.6062   20.7712 C   0  0  0  0  0  0  0  0  0  0  0  0
   44.9176    4.3151   20.3328 C   0  0  0  0  0  0  0  0  0  0  0  0
   45.5798    3.5514   19.1502 C   0  0  0  0  0  0  0  0  0  0  0  0
   44.8743    2.2619   18.7782 C   0  0  0  0  0  0  0  0  0  0  0  0
   45.5648    1.6975   17.6342 N   0  0  0  0  0  0  0  0  0  0  0  0
   44.8127    0.5125   17.2601 C   0  0  0  0  0  0  0  0  0  0  0  0
   44.4056    0.5509   15.7917 C   0  0  0  0  0  0  0  0  0  0  0  0
   45.6801    0.3789   14.9515 C   0  0  0  0  0  0  0  0  0  0  0  0
   46.2166   -0.9882   15.0295 N   0  0  0  0  0  0  0  0  0  0  0  0
  1  2  1  0  0  0  0
  2  3  1  0  0  0  0
  3  4  1  0  0  0  0
  4  5  1  0  0  0  0
  5  6  1  0  0  0  0
  6  7  1  0  0  0  0
  7  8  1  0  0  0  0
  8  9  1  0  0  0  0
  9 10  1  0  0  0  0
 10 11  1  0  0  0  0
 11 12  1  0  0  0  0
 12 13  1  0  0  0  0
 13 14  1  0  0  0  0
M  END
>  <CHROM.1>
177.09302902,64.82920743,166.92364329,-178.43571852,62.54980606,176.81862756
177.56957192,-176.61458145,125.71992444,69.67757736,71.07520993,45.64992595
4.36498696,18.19520393,-1.03521961,-1.37501252,-2.27518273

>  <Name>
ligand

>  <RI>
0

>  <Rbt.Current_Directory>
/home/itssahil/PROJECTS/Mol_Feturizer/New_Systems/rnas/1TN2

>  <Rbt.Executable>
rbdock ($Id: //depot/dev/client3/rdock/2013.1/src/exe/rbdock.cxx#4 $)

>  <Rbt.Library>
libRbt.so (2013.1, Build901 2013/11/27)

>  <Rbt.Parameter_File>
/export/apps/rDock/src/rDock_2013.1_src/data/scripts/dock_solv.prm

>  <Rbt.Receptor>
prm/pocket_docking_4.prm

>  <SCORE>
-8.72006

>  <SCORE.INTER>
-6.41624

>  <SCORE.INTER.CONST>
1

>  <SCORE.INTER.POLAR>
0

>  <SCORE.INTER.ROT>
11

>  <SCORE.INTER.SOLV>
10.4094

>  <SCORE.INTER.VDW>
-18.6806

>  <SCORE.INTER.norm>
-0.458303

>  <SCORE.INTRA>
-2.30382

>  <SCORE.INTRA.DIHEDRAL>
-5.46796

>  <SCORE.INTRA.DIHEDRAL.0>
7.79482

>  <SCORE.INTRA.POLAR>
0

>  <SCORE.INTRA.POLAR.0>
0

>  <SCORE.INTRA.REPUL>
0

>  <SCORE.INTRA.REPUL.0>
0

>  <SCORE.INTRA.SOLV>
2.14841

>  <SCORE.INTRA.SOLV.lig_0>
-49.456

>  <SCORE.INTRA.VDW>
-0.64405

>  <SCORE.INTRA.VDW.0>
-0.478406

>  <SCORE.INTRA.norm>
-0.164559

>  <SCORE.RESTR>
0

>  <SCORE.RESTR.CAVITY>
0

>  <SCORE.RESTR.norm>
0

>  <SCORE.SYSTEM>
0

>  <SCORE.SYSTEM.CONST>
0

>  <SCORE.SYSTEM.DIHEDRAL>
0

>  <SCORE.SYSTEM.SOLV>
0

>  <SCORE.SYSTEM.norm>
0

>  <SCORE.heavy>
14

>  <SCORE.norm>
-0.622862

>  <RMSD>
3.048

$$$$
ligand
 OpenBabel11021811413D
libRbt.so/2013.1/901 2013/11/27
 14 13  0  0  0  0  0  0  0  0999 V2000
   48.3649    8.9599   16.9808 N   0  0  0  0  0  0  0  0  0  0  0  0
   47.3774    8.3065   17.8668 C   0  0  0  0  0  0  0  0  0  0  0  0
   46.5740    9.3502   18.6726 C   0  0  0  0  0  0  0  0  0  0  0  0
   45.4758    8.7579   19.5710 C   0  0  0  0  0  0  0  0  0  0  0  0
   46.0607    7.8817   20.6229 N   0  0  0  0  0  0  0  0  0  0  0  0
   45.4130    6.5451   20.5962 C   0  0  0  0  0  0  0  0  0  0  0  0
   46.0952    5.4808   19.6721 C   0  0  0  0  0  0  0  0  0  0  0  0
   45.3859    4.0962   19.6669 C   0  0  0  0  0  0  0  0  0  0  0  0
   46.0426    3.0715   18.7626 C   0  0  0  0  0  0  0  0  0  0  0  0
   45.2111    1.8829   18.7688 N   0  0  0  0  0  0  0  0  0  0  0  0
   45.9030    0.9088   17.9429 C   0  0  0  0  0  0  0  0  0  0  0  0
   44.9645    0.2762   16.9220 C   0  0  0  0  0  0  0  0  0  0  0  0
   45.7530   -0.8119   16.1774 C   0  0  0  0  0  0  0  0  0  0  0  0
   44.9762   -1.4086   15.0805 N   0  0  0  0  0  0  0  0  0  0  0  0
  1  2  1  0  0  0  0
  2  3  1  0  0  0  0
  3  4  1  0  0  0  0
  4  5  1  0  0  0  0
  5  6  1  0  0  0  0
  6  7  1  0  0  0  0
  7  8  1  0  0  0  0
  8  9  1  0  0  0  0
  9 10  1  0  0  0  0
 10 11  1  0  0  0  0
 11 12  1  0  0  0  0
 12 13  1  0  0  0  0
 13 14  1  0  0  0  0
M  END
>  <CHROM.1>
177.17825773,63.17914671,-126.70638693,90.33195019,-179.80148238,179.53501335
-174.99641807,-177.49054449,-131.22609124,-175.56294340,-174.84761491,45.97116046
4.52131851,18.37903077,-1.25783009,-1.09960819,-2.59524930

>  <Name>
ligand

>  <RI>
0

>  <Rbt.Current_Directory>
/home/itssahil/PROJECTS/Mol_Feturizer/New_Systems/rnas/1TN2

>  <Rbt.Executable>
rbdock ($Id: //depot/dev/client3/rdock/2013.1/src/exe/rbdock.cxx#4 $)

>  <Rbt.Library>
libRbt.so (2013.1, Build901 2013/11/27)

>  <Rbt.Parameter_File>
/export/apps/rDock/src/rDock_2013.1_src/data/scripts/dock_solv.prm

>  <Rbt.Receptor>
prm/pocket_docking_4.prm

>  <SCORE>
-10.2492

>  <SCORE.INTER>
-7.21177

>  <SCORE.INTER.CONST>
1

>  <SCORE.INTER.POLAR>
0

>  <SCORE.INTER.ROT>
11

>  <SCORE.INTER.SOLV>
13.4058

>  <SCORE.INTER.VDW>
-20.2098

>  <SCORE.INTER.norm>
-0.515126

>  <SCORE.INTRA>
-3.03744

>  <SCORE.INTRA.DIHEDRAL>
-4.5791

>  <SCORE.INTRA.DIHEDRAL.0>
7.79482

>  <SCORE.INTRA.POLAR>
0

>  <SCORE.INTRA.POLAR.0>
0

>  <SCORE.INTRA.REPUL>
0

>  <SCORE.INTRA.REPUL.0>
0

>  <SCORE.INTRA.SOLV>
0.285951

>  <SCORE.INTRA.SOLV.lig_0>
-49.456

>  <SCORE.INTRA.VDW>
-0.890867

>  <SCORE.INTRA.VDW.0>
-0.478406

>  <SCORE.INTRA.norm>
-0.21696

>  <SCORE.RESTR>
0

>  <SCORE.RESTR.CAVITY>
0

>  <SCORE.RESTR.norm>
0

>  <SCORE.SYSTEM>
0

>  <SCORE.SYSTEM.CONST>
0

>  <SCORE.SYSTEM.DIHEDRAL>
0

>  <SCORE.SYSTEM.SOLV>
0

>  <SCORE.SYSTEM.norm>
0

>  <SCORE.heavy>
14

>  <SCORE.norm>
-0.732086

>  <RMSD>
3.051

$$$$
ligand
 OpenBabel11021811413D
libRbt.so/2013.1/901 2013/11/27
 14 13  0  0  0  0  0  0  0  0999 V2000
   45.6408   -1.9020   14.1403 N   0  0  0  0  0  0  0  0  0  0  0  0
   44.8551   -0.8893   14.8781 C   0  0  0  0  0  0  0  0  0  0  0  0
   45.6150   -0.3956   16.1282 C   0  0  0  0  0  0  0  0  0  0  0  0
   44.9197    0.7439   16.8911 C   0  0  0  0  0  0  0  0  0  0  0  0
   45.7888    1.2650   17.9818 N   0  0  0  0  0  0  0  0  0  0  0  0
   45.8217    2.7498   17.9469 C   0  0  0  0  0  0  0  0  0  0  0  0
   45.8679    3.4585   19.3426 C   0  0  0  0  0  0  0  0  0  0  0  0
   45.7882    5.0105   19.2696 C   0  0  0  0  0  0  0  0  0  0  0  0
   45.6536    5.6841   20.6213 C   0  0  0  0  0  0  0  0  0  0  0  0
   45.3636    7.0860   20.3867 N   0  0  0  0  0  0  0  0  0  0  0  0
   43.9383    7.2419   20.6191 C   0  0  0  0  0  0  0  0  0  0  0  0
   43.3513    8.3542   19.7581 C   0  0  0  0  0  0  0  0  0  0  0  0
   41.8437    8.4184   20.0462 C   0  0  0  0  0  0  0  0  0  0  0  0
   41.1765    9.4819   19.2803 N   0  0  0  0  0  0  0  0  0  0  0  0
  1  2  1  0  0  0  0
  2  3  1  0  0  0  0
  3  4  1  0  0  0  0
  4  5  1  0  0  0  0
  5  6  1  0  0  0  0
  6  7  1  0  0  0  0
  7  8  1  0  0  0  0
  8  9  1  0  0  0  0
  9 10  1  0  0  0  0
 10 11  1  0  0  0  0
 11 12  1  0  0  0  0
 12 13  1  0  0  0  0
 13 14  1  0  0  0  0
M  END
>  <CHROM.1>
175.21737396,-173.35940916,132.79968244,143.38344357,-175.42627196,172.55789070
-170.45575918,102.25007294,-149.76884455,178.58872098,178.98077284,44.68751219
4.02198067,18.37804363,1.29226218,0.58009690,-2.51582535

>  <Name>
ligand

>  <RI>
0

>  <Rbt.Current_Directory>
/home/itssahil/PROJECTS/Mol_Feturizer/New_Systems/rnas/1TN2

>  <Rbt.Executable>
rbdock ($Id: //depot/dev/client3/rdock/2013.1/src/exe/rbdock.cxx#4 $)

>  <Rbt.Library>
libRbt.so (2013.1, Build901 2013/11/27)

>  <Rbt.Parameter_File>
/export/apps/rDock/src/rDock_2013.1_src/data/scripts/dock_solv.prm

>  <Rbt.Receptor>
prm/blind_docking_60.prm

>  <SCORE>
-10.6863

>  <SCORE.INTER>
-8.36461

>  <SCORE.INTER.CONST>
1

>  <SCORE.INTER.POLAR>
0

>  <SCORE.INTER.ROT>
11

>  <SCORE.INTER.SOLV>
17.8143

>  <SCORE.INTER.VDW>
-22.4478

>  <SCORE.INTER.norm>
-0.597472

>  <SCORE.INTRA>
-2.32166

>  <SCORE.INTRA.DIHEDRAL>
-3.44621

>  <SCORE.INTRA.DIHEDRAL.0>
7.79482

>  <SCORE.INTRA.POLAR>
0

>  <SCORE.INTRA.POLAR.0>
0

>  <SCORE.INTRA.REPUL>
0

>  <SCORE.INTRA.REPUL.0>
0

>  <SCORE.INTRA.SOLV>
-0.0536138

>  <SCORE.INTRA.SOLV.lig_0>
-49.456

>  <SCORE.INTRA.VDW>
-0.57175

>  <SCORE.INTRA.VDW.0>
-0.478406

>  <SCORE.INTRA.norm>
-0.165833

>  <SCORE.RESTR>
0

>  <SCORE.RESTR.CAVITY>
0

>  <SCORE.RESTR.norm>
0

>  <SCORE.SYSTEM>
0

>  <SCORE.SYSTEM.CONST>
0

>  <SCORE.SYSTEM.DIHEDRAL>
0

>  <SCORE.SYSTEM.SOLV>
0

>  <SCORE.SYSTEM.norm>
0

>  <SCORE.heavy>
14

>  <SCORE.norm>
-0.763306

>  <RMSD>
3.065

$$$$
ligand
 OpenBabel11021811413D
libRbt.so/2013.1/901 2013/11/27
 14 13  0  0  0  0  0  0  0  0999 V2000
   45.6943   -0.1021   15.6893 N   0  0  0  0  0  0  0  0  0  0  0  0
   45.1032    0.2521   16.9978 C   0  0  0  0  0  0  0  0  0  0  0  0
   45.7131    1.5584   17.5504 C   0  0  0  0  0  0  0  0  0  0  0  0
   45.0765    2.0591   18.8573 C   0  0  0  0  0  0  0  0  0  0  0  0
   45.6261    3.3873   19.2449 N   0  0  0  0  0  0  0  0  0  0  0  0
   44.7187    4.0558   20.2126 C   0  0  0  0  0  0  0  0  0  0  0  0
   45.2404    5.4075   20.8069 C   0  0  0  0  0  0  0  0  0  0  0  0
   45.4052    6.5420   19.7552 C   0  0  0  0  0  0  0  0  0  0  0  0
   45.9702    7.8297   20.3223 C   0  0  0  0  0  0  0  0  0  0  0  0
   46.0169    8.8007   19.2457 N   0  0  0  0  0  0  0  0  0  0  0  0
   47.3901    8.8045   18.7724 C   0  0  0  0  0  0  0  0  0  0  0  0
   47.5791    9.7805   17.6170 C   0  0  0  0  0  0  0  0  0  0  0  0
   49.0571    9.7279   17.2012 C   0  0  0  0  0  0  0  0  0  0  0  0
   49.3731   10.7051   16.1486 N   0  0  0  0  0  0  0  0  0  0  0  0
  1  2  1  0  0  0  0
  2  3  1  0  0  0  0
  3  4  1  0  0  0  0
  4  5  1  0  0  0  0
  5  6  1  0  0  0  0
  6  7  1  0  0  0  0
  7  8  1  0  0  0  0
  8  9  1  0  0  0  0
  9 10  1  0  0  0  0
 10 11  1  0  0  0  0
 11 12  1  0  0  0  0
 12 13  1  0  0  0  0
 13 14  1  0  0  0  0
M  END
>  <CHROM.1>
175.46409736,-174.27777728,161.20651430,174.60352939,64.58790212,-177.35943339
-177.83326781,-99.39274648,179.34094861,179.22558155,-176.02761994,46.28297727
5.62915891,18.45905012,-2.13168135,0.97885710,0.50737560

>  <Name>
ligand

>  <RI>
0

>  <Rbt.Current_Directory>
/home/itssahil/PROJECTS/Mol_Feturizer/New_Systems/rnas/1TN2

>  <Rbt.Executable>
rbdock ($Id: //depot/dev/client3/rdock/2013.1/src/exe/rbdock.cxx#4 $)

>  <Rbt.Library>
libRbt.so (2013.1, Build901 2013/11/27)

>  <Rbt.Parameter_File>
/export/apps/rDock/src/rDock_2013.1_src/data/scripts/dock_solv.prm

>  <Rbt.Receptor>
prm/pocket_docking_5.prm

>  <SCORE>
-9.06028

>  <SCORE.INTER>
-5.56933

>  <SCORE.INTER.CONST>
1

>  <SCORE.INTER.POLAR>
0

>  <SCORE.INTER.ROT>
11

>  <SCORE.INTER.SOLV>
10.6185

>  <SCORE.INTER.VDW>
-18.1857

>  <SCORE.INTER.norm>
-0.397809

>  <SCORE.INTRA>
-3.49095

>  <SCORE.INTRA.DIHEDRAL>
-6.23116

>  <SCORE.INTRA.DIHEDRAL.0>
7.79482

>  <SCORE.INTRA.POLAR>
0

>  <SCORE.INTRA.POLAR.0>
0

>  <SCORE.INTRA.REPUL>
0

>  <SCORE.INTRA.REPUL.0>
0

>  <SCORE.INTRA.SOLV>
0.271226

>  <SCORE.INTRA.SOLV.lig_0>
-49.456

>  <SCORE.INTRA.VDW>
-0.510983

>  <SCORE.INTRA.VDW.0>
-0.478406

>  <SCORE.INTRA.norm>
-0.249354

>  <SCORE.RESTR>
0

>  <SCORE.RESTR.CAVITY>
0

>  <SCORE.RESTR.norm>
0

>  <SCORE.SYSTEM>
0

>  <SCORE.SYSTEM.CONST>
0

>  <SCORE.SYSTEM.DIHEDRAL>
0

>  <SCORE.SYSTEM.SOLV>
0

>  <SCORE.SYSTEM.norm>
0

>  <SCORE.heavy>
14

>  <SCORE.norm>
-0.647163

>  <RMSD>
3.069

$$$$
ligand
 OpenBabel11021811413D
libRbt.so/2013.1/901 2013/11/27
 14 13  0  0  0  0  0  0  0  0999 V2000
   46.8610   10.7068   17.3661 N   0  0  0  0  0  0  0  0  0  0  0  0
   46.2306    9.4024   17.0690 C   0  0  0  0  0  0  0  0  0  0  0  0
   47.0336    8.2398   17.6917 C   0  0  0  0  0  0  0  0  0  0  0  0
   47.0814    8.2462   19.2285 C   0  0  0  0  0  0  0  0  0  0  0  0
   45.7165    8.1060   19.8062 N   0  0  0  0  0  0  0  0  0  0  0  0
   45.5340    6.7426   20.3671 C   0  0  0  0  0  0  0  0  0  0  0  0
   44.1734    6.4888   21.0997 C   0  0  0  0  0  0  0  0  0  0  0  0
   44.0508    5.0763   21.7400 C   0  0  0  0  0  0  0  0  0  0  0  0
   43.8401    3.9609   20.7348 C   0  0  0  0  0  0  0  0  0  0  0  0
   45.0698    3.8117   19.9799 N   0  0  0  0  0  0  0  0  0  0  0  0
   44.8560    2.6841   19.0897 C   0  0  0  0  0  0  0  0  0  0  0  0
   46.1753    2.1304   18.5642 C   0  0  0  0  0  0  0  0  0  0  0  0
   45.8523    0.9037   17.6978 C   0  0  0  0  0  0  0  0  0  0  0  0
   45.1394    1.2672   16.4640 N   0  0  0  0  0  0  0  0  0  0  0  0
  1  2  1  0  0  0  0
  2  3  1  0  0  0  0
  3  4  1  0  0  0  0
  4  5  1  0  0  0  0
  5  6  1  0  0  0  0
  6  7  1  0  0  0  0
  7  8  1  0  0  0  0
  8  9  1  0  0  0  0
  9 10  1  0  0  0  0
 10 11  1  0  0  0  0
 11 12  1  0  0  0  0
 12 13  1  0  0  0  0
 13 14  1  0  0  0  0
M  END
>  <CHROM.1>
64.26222973,61.97649349,106.29369667,175.84722427,-176.84687344,-73.57477862
69.10648921,176.54380306,-161.79904717,177.06193353,67.72905235,45.54380251
5.55461468,19.06445839,-1.17152342,-1.09381352,-2.81775465

>  <Name>
ligand

>  <RI>
0

>  <Rbt.Current_Directory>
/home/itssahil/PROJECTS/Mol_Feturizer/New_Systems/rnas/1TN2

>  <Rbt.Executable>
rbdock ($Id: //depot/dev/client3/rdock/2013.1/src/exe/rbdock.cxx#4 $)

>  <Rbt.Library>
libRbt.so (2013.1, Build901 2013/11/27)

>  <Rbt.Parameter_File>
/export/apps/rDock/src/rDock_2013.1_src/data/scripts/dock_solv.prm

>  <Rbt.Receptor>
prm/pocket_docking_5.prm

>  <SCORE>
-7.42043

>  <SCORE.INTER>
-6.16829

>  <SCORE.INTER.CONST>
1

>  <SCORE.INTER.POLAR>
0

>  <SCORE.INTER.ROT>
11

>  <SCORE.INTER.SOLV>
10.7491

>  <SCORE.INTER.VDW>
-18.6285

>  <SCORE.INTER.norm>
-0.440592

>  <SCORE.INTRA>
-1.25214

>  <SCORE.INTRA.DIHEDRAL>
-5.04135

>  <SCORE.INTRA.DIHEDRAL.0>
7.79482

>  <SCORE.INTRA.POLAR>
0

>  <SCORE.INTRA.POLAR.0>
0

>  <SCORE.INTRA.REPUL>
0

>  <SCORE.INTRA.REPUL.0>
0

>  <SCORE.INTRA.SOLV>
3.31963

>  <SCORE.INTRA.SOLV.lig_0>
-49.456

>  <SCORE.INTRA.VDW>
-0.391286

>  <SCORE.INTRA.VDW.0>
-0.478406

>  <SCORE.INTRA.norm>
-0.0894387

>  <SCORE.RESTR>
0

>  <SCORE.RESTR.CAVITY>
0

>  <SCORE.RESTR.norm>
0

>  <SCORE.SYSTEM>
0

>  <SCORE.SYSTEM.CONST>
0

>  <SCORE.SYSTEM.DIHEDRAL>
0

>  <SCORE.SYSTEM.SOLV>
0

>  <SCORE.SYSTEM.norm>
0

>  <SCORE.heavy>
14

>  <SCORE.norm>
-0.530031

>  <RMSD>
3.082

$$$$
ligand
 OpenBabel11021811413D
libRbt.so/2013.1/901 2013/11/27
 14 13  0  0  0  0  0  0  0  0999 V2000
   47.4671   10.0446   16.8452 N   0  0  0  0  0  0  0  0  0  0  0  0
   46.7012    9.6269   18.0393 C   0  0  0  0  0  0  0  0  0  0  0  0
   47.3096    8.3593   18.6772 C   0  0  0  0  0  0  0  0  0  0  0  0
   46.5415    7.8252   19.8973 C   0  0  0  0  0  0  0  0  0  0  0  0
   45.1690    7.3917   19.5169 N   0  0  0  0  0  0  0  0  0  0  0  0
   44.3665    7.1020   20.7330 C   0  0  0  0  0  0  0  0  0  0  0  0
   44.2775    5.5929   21.1414 C   0  0  0  0  0  0  0  0  0  0  0  0
   45.6580    4.8864   21.2665 C   0  0  0  0  0  0  0  0  0  0  0  0
   46.2325    4.4192   19.9434 C   0  0  0  0  0  0  0  0  0  0  0  0
   45.3816    3.3548   19.4462 N   0  0  0  0  0  0  0  0  0  0  0  0
   45.9754    2.9231   18.1929 C   0  0  0  0  0  0  0  0  0  0  0  0
   45.2269    1.7344   17.6014 C   0  0  0  0  0  0  0  0  0  0  0  0
   45.8680    1.4105   16.2434 C   0  0  0  0  0  0  0  0  0  0  0  0
   45.2460    0.2438   15.5996 N   0  0  0  0  0  0  0  0  0  0  0  0
  1  2  1  0  0  0  0
  2  3  1  0  0  0  0
  3  4  1  0  0  0  0
  4  5  1  0  0  0  0
  5  6  1  0  0  0  0
  6  7  1  0  0  0  0
  7  8  1  0  0  0  0
  8  9  1  0  0  0  0
  9 10  1  0  0  0  0
 10 11  1  0  0  0  0
 11 12  1  0  0  0  0
 12 13  1  0  0  0  0
 13 14  1  0  0  0  0
M  END
>  <CHROM.1>
-177.83476009,63.45903753,-170.25256682,-97.94571464,52.48508392,-81.87389924
-67.17837924,-179.15788871,176.21571907,176.42450401,178.17759152,45.81576691
5.35108595,18.79635672,-1.23749148,-1.16598730,-2.59605486

>  <Name>
ligand

>  <RI>
0

>  <Rbt.Current_Directory>
/home/itssahil/PROJECTS/Mol_Feturizer/New_Systems/rnas/1TN2

>  <Rbt.Executable>
rbdock ($Id: //depot/dev/client3/rdock/2013.1/src/exe/rbdock.cxx#4 $)

>  <Rbt.Library>
libRbt.so (2013.1, Build901 2013/11/27)

>  <Rbt.Parameter_File>
/export/apps/rDock/src/rDock_2013.1_src/data/scripts/dock_solv.prm

>  <Rbt.Receptor>
prm/pocket_docking_4.prm

>  <SCORE>
-9.65797

>  <SCORE.INTER>
-7.46454

>  <SCORE.INTER.CONST>
1

>  <SCORE.INTER.POLAR>
0

>  <SCORE.INTER.ROT>
11

>  <SCORE.INTER.SOLV>
10.5214

>  <SCORE.INTER.VDW>
-19.4168

>  <SCORE.INTER.norm>
-0.533182

>  <SCORE.INTRA>
-2.19343

>  <SCORE.INTRA.DIHEDRAL>
-4.53936

>  <SCORE.INTRA.DIHEDRAL.0>
7.79482

>  <SCORE.INTRA.POLAR>
0

>  <SCORE.INTRA.POLAR.0>
0

>  <SCORE.INTRA.REPUL>
0

>  <SCORE.INTRA.REPUL.0>
0

>  <SCORE.INTRA.SOLV>
1.86004

>  <SCORE.INTRA.SOLV.lig_0>
-49.456

>  <SCORE.INTRA.VDW>
-0.853771

>  <SCORE.INTRA.VDW.0>
-0.478406

>  <SCORE.INTRA.norm>
-0.156674

>  <SCORE.RESTR>
0

>  <SCORE.RESTR.CAVITY>
0

>  <SCORE.RESTR.norm>
0

>  <SCORE.SYSTEM>
0

>  <SCORE.SYSTEM.CONST>
0

>  <SCORE.SYSTEM.DIHEDRAL>
0

>  <SCORE.SYSTEM.SOLV>
0

>  <SCORE.SYSTEM.norm>
0

>  <SCORE.heavy>
14

>  <SCORE.norm>
-0.689855

>  <RMSD>
3.088

$$$$
ligand
 OpenBabel11021811413D
libRbt.so/2013.1/901 2013/11/27
 14 13  0  0  0  0  0  0  0  0999 V2000
   46.5931   -0.1118   14.5721 N   0  0  0  0  0  0  0  0  0  0  0  0
   45.2569    0.3787   14.9735 C   0  0  0  0  0  0  0  0  0  0  0  0
   44.9207   -0.0395   16.4213 C   0  0  0  0  0  0  0  0  0  0  0  0
   45.7749    0.6463   17.5001 C   0  0  0  0  0  0  0  0  0  0  0  0
   45.6371    2.1270   17.4294 N   0  0  0  0  0  0  0  0  0  0  0  0
   46.2086    2.7546   18.6486 C   0  0  0  0  0  0  0  0  0  0  0  0
   45.5436    4.1013   19.0917 C   0  0  0  0  0  0  0  0  0  0  0  0
   46.1338    4.7007   20.4003 C   0  0  0  0  0  0  0  0  0  0  0  0
   45.5137    6.0236   20.8058 C   0  0  0  0  0  0  0  0  0  0  0  0
   45.7622    6.9715   19.7363 N   0  0  0  0  0  0  0  0  0  0  0  0
   46.4241    8.1062   20.3560 C   0  0  0  0  0  0  0  0  0  0  0  0
   46.4839    9.3011   19.4114 C   0  0  0  0  0  0  0  0  0  0  0  0
   47.3484    8.8986   18.2070 C   0  0  0  0  0  0  0  0  0  0  0  0
   47.4663    9.9830   17.2207 N   0  0  0  0  0  0  0  0  0  0  0  0
  1  2  1  0  0  0  0
  2  3  1  0  0  0  0
  3  4  1  0  0  0  0
  4  5  1  0  0  0  0
  5  6  1  0  0  0  0
  6  7  1  0  0  0  0
  7  8  1  0  0  0  0
  8  9  1  0  0  0  0
  9 10  1  0  0  0  0
 10 11  1  0  0  0  0
 11 12  1  0  0  0  0
 12 13  1  0  0  0  0
 13 14  1  0  0  0  0
M  END
>  <CHROM.1>
68.26574449,58.52269845,167.17289604,-149.85970870,177.87402144,178.41700411
-60.68780572,-125.04690795,-168.03420975,-63.67404627,179.61248588,46.07611608
4.56001599,18.19854845,-1.95072882,1.26169978,0.72942673

>  <Name>
ligand

>  <RI>
0

>  <Rbt.Current_Directory>
/home/itssahil/PROJECTS/Mol_Feturizer/New_Systems/rnas/1TN2

>  <Rbt.Executable>
rbdock ($Id: //depot/dev/client3/rdock/2013.1/src/exe/rbdock.cxx#4 $)

>  <Rbt.Library>
libRbt.so (2013.1, Build901 2013/11/27)

>  <Rbt.Parameter_File>
/export/apps/rDock/src/rDock_2013.1_src/data/scripts/dock_solv.prm

>  <Rbt.Receptor>
prm/pocket_docking_4.prm

>  <SCORE>
-9.12888

>  <SCORE.INTER>
-7.21002

>  <SCORE.INTER.CONST>
1

>  <SCORE.INTER.POLAR>
0

>  <SCORE.INTER.ROT>
11

>  <SCORE.INTER.SOLV>
9.76412

>  <SCORE.INTER.VDW>
-18.9947

>  <SCORE.INTER.norm>
-0.515001

>  <SCORE.INTRA>
-1.91886

>  <SCORE.INTRA.DIHEDRAL>
-5.42338

>  <SCORE.INTRA.DIHEDRAL.0>
7.79482

>  <SCORE.INTRA.POLAR>
0

>  <SCORE.INTRA.POLAR.0>
0

>  <SCORE.INTRA.REPUL>
0

>  <SCORE.INTRA.REPUL.0>
0

>  <SCORE.INTRA.SOLV>
2.45925

>  <SCORE.INTRA.SOLV.lig_0>
-49.456

>  <SCORE.INTRA.VDW>
-0.436799

>  <SCORE.INTRA.VDW.0>
-0.478406

>  <SCORE.INTRA.norm>
-0.137062

>  <SCORE.RESTR>
0

>  <SCORE.RESTR.CAVITY>
0

>  <SCORE.RESTR.norm>
0

>  <SCORE.SYSTEM>
0

>  <SCORE.SYSTEM.CONST>
0

>  <SCORE.SYSTEM.DIHEDRAL>
0

>  <SCORE.SYSTEM.SOLV>
0

>  <SCORE.SYSTEM.norm>
0

>  <SCORE.heavy>
14

>  <SCORE.norm>
-0.652063

>  <RMSD>
3.098

$$$$
ligand
 OpenBabel11021811413D
libRbt.so/2013.1/901 2013/11/27
 14 13  0  0  0  0  0  0  0  0999 V2000
   45.0564    1.2048   16.2807 N   0  0  0  0  0  0  0  0  0  0  0  0
   44.4789    1.4283   17.6237 C   0  0  0  0  0  0  0  0  0  0  0  0
   45.5859    1.5711   18.6905 C   0  0  0  0  0  0  0  0  0  0  0  0
   46.4975    2.7955   18.5067 C   0  0  0  0  0  0  0  0  0  0  0  0
   45.7540    4.0590   18.7660 N   0  0  0  0  0  0  0  0  0  0  0  0
   45.9795    4.5099   20.1634 C   0  0  0  0  0  0  0  0  0  0  0  0
   44.7449    5.1630   20.8713 C   0  0  0  0  0  0  0  0  0  0  0  0
   44.3503    6.5563   20.3025 C   0  0  0  0  0  0  0  0  0  0  0  0
   43.0369    7.0908   20.8393 C   0  0  0  0  0  0  0  0  0  0  0  0
   42.8737    8.4416   20.3361 N   0  0  0  0  0  0  0  0  0  0  0  0
   41.5307    8.5020   19.7863 C   0  0  0  0  0  0  0  0  0  0  0  0
   41.1166    9.9371   19.4824 C   0  0  0  0  0  0  0  0  0  0  0  0
   42.1344   10.5136   18.4866 C   0  0  0  0  0  0  0  0  0  0  0  0
   41.8372   11.9102   18.1344 N   0  0  0  0  0  0  0  0  0  0  0  0
  1  2  1  0  0  0  0
  2  3  1  0  0  0  0
  3  4  1  0  0  0  0
  4  5  1  0  0  0  0
  5  6  1  0  0  0  0
  6  7  1  0  0  0  0
  7  8  1  0  0  0  0
  8  9  1  0  0  0  0
  9 10  1  0  0  0  0
 10 11  1  0  0  0  0
 11 12  1  0  0  0  0
 12 13  1  0  0  0  0
 13 14  1  0  0  0  0
M  END
>  <CHROM.1>
64.11879613,68.67437400,96.24345431,-143.14941218,-69.59238227,171.15812761
174.04585987,130.77539280,168.20004284,58.59084894,-179.30954204,43.92692960
5.97718983,19.16245407,0.71647409,0.99195184,-2.24039009

>  <Name>
ligand

>  <RI>
0

>  <Rbt.Current_Directory>
/home/itssahil/PROJECTS/Mol_Feturizer/New_Systems/rnas/1TN2

>  <Rbt.Executable>
rbdock ($Id: //depot/dev/client3/rdock/2013.1/src/exe/rbdock.cxx#4 $)

>  <Rbt.Library>
libRbt.so (2013.1, Build901 2013/11/27)

>  <Rbt.Parameter_File>
/export/apps/rDock/src/rDock_2013.1_src/data/scripts/dock_solv.prm

>  <Rbt.Receptor>
prm/pocket_docking_7.prm

>  <SCORE>
-13.4574

>  <SCORE.INTER>
-12.2697

>  <SCORE.INTER.CONST>
1

>  <SCORE.INTER.POLAR>
0

>  <SCORE.INTER.ROT>
11

>  <SCORE.INTER.SOLV>
18.177

>  <SCORE.INTER.VDW>
-25.1722

>  <SCORE.INTER.norm>
-0.876411

>  <SCORE.INTRA>
-1.18761

>  <SCORE.INTRA.DIHEDRAL>
-3.8245

>  <SCORE.INTRA.DIHEDRAL.0>
7.79482

>  <SCORE.INTRA.POLAR>
0

>  <SCORE.INTRA.POLAR.0>
0

>  <SCORE.INTRA.REPUL>
0

>  <SCORE.INTRA.REPUL.0>
0

>  <SCORE.INTRA.SOLV>
2.31547

>  <SCORE.INTRA.SOLV.lig_0>
-49.456

>  <SCORE.INTRA.VDW>
-0.4331

>  <SCORE.INTRA.VDW.0>
-0.478406

>  <SCORE.INTRA.norm>
-0.0848295

>  <SCORE.RESTR>
0

>  <SCORE.RESTR.CAVITY>
0

>  <SCORE.RESTR.norm>
0

>  <SCORE.SYSTEM>
0

>  <SCORE.SYSTEM.CONST>
0

>  <SCORE.SYSTEM.DIHEDRAL>
0

>  <SCORE.SYSTEM.SOLV>
0

>  <SCORE.SYSTEM.norm>
0

>  <SCORE.heavy>
14

>  <SCORE.norm>
-0.96124

>  <RMSD>
3.104

$$$$
ligand
 OpenBabel11021811413D
libRbt.so/2013.1/901 2013/11/27
 14 13  0  0  0  0  0  0  0  0999 V2000
   42.2953   10.5867   18.6268 N   0  0  0  0  0  0  0  0  0  0  0  0
   41.1576    9.9783   19.3496 C   0  0  0  0  0  0  0  0  0  0  0  0
   41.3562    8.4570   19.5235 C   0  0  0  0  0  0  0  0  0  0  0  0
   42.6025    8.0628   20.3330 C   0  0  0  0  0  0  0  0  0  0  0  0
   42.7280    6.5828   20.4341 N   0  0  0  0  0  0  0  0  0  0  0  0
   43.8282    6.2232   21.3652 C   0  0  0  0  0  0  0  0  0  0  0  0
   45.2770    6.3688   20.7891 C   0  0  0  0  0  0  0  0  0  0  0  0
   45.9923    5.0139   20.5192 C   0  0  0  0  0  0  0  0  0  0  0  0
   45.2904    4.1399   19.4983 C   0  0  0  0  0  0  0  0  0  0  0  0
   46.1395    2.9913   19.2452 N   0  0  0  0  0  0  0  0  0  0  0  0
   45.2822    1.9888   18.6372 C   0  0  0  0  0  0  0  0  0  0  0  0
   45.9541    1.3350   17.4355 C   0  0  0  0  0  0  0  0  0  0  0  0
   44.9620    0.3237   16.8415 C   0  0  0  0  0  0  0  0  0  0  0  0
   45.4695   -0.2927   15.6065 N   0  0  0  0  0  0  0  0  0  0  0  0
  1  2  1  0  0  0  0
  2  3  1  0  0  0  0
  3  4  1  0  0  0  0
  4  5  1  0  0  0  0
  5  6  1  0  0  0  0
  6  7  1  0  0  0  0
  7  8  1  0  0  0  0
  8  9  1  0  0  0  0
  9 10  1  0  0  0  0
 10 11  1  0  0  0  0
 11 12  1  0  0  0  0
 12 13  1  0  0  0  0
 13 14  1  0  0  0  0
M  END
>  <CHROM.1>
60.98799724,-179.14202415,-172.50924310,-77.10991571,-108.86576865,61.35328630
173.89735105,161.65779975,135.19057190,-178.50178984,175.47431252,44.16676110
5.12573720,19.15774703,2.15581669,-0.80793282,0.74149588

>  <Name>
ligand

>  <RI>
0

>  <Rbt.Current_Directory>
/home/itssahil/PROJECTS/Mol_Feturizer/New_Systems/rnas/1TN2

>  <Rbt.Executable>
rbdock ($Id: //depot/dev/client3/rdock/2013.1/src/exe/rbdock.cxx#4 $)

>  <Rbt.Library>
libRbt.so (2013.1, Build901 2013/11/27)

>  <Rbt.Parameter_File>
/export/apps/rDock/src/rDock_2013.1_src/data/scripts/dock_solv.prm

>  <Rbt.Receptor>
prm/pocket_docking_7.prm

>  <SCORE>
-11.3264

>  <SCORE.INTER>
-11.3161

>  <SCORE.INTER.CONST>
1

>  <SCORE.INTER.POLAR>
0

>  <SCORE.INTER.ROT>
11

>  <SCORE.INTER.SOLV>
18.5983

>  <SCORE.INTER.VDW>
-24.6768

>  <SCORE.INTER.norm>
-0.808293

>  <SCORE.INTRA>
-0.0103216

>  <SCORE.INTRA.DIHEDRAL>
-0.944481

>  <SCORE.INTRA.DIHEDRAL.0>
7.79482

>  <SCORE.INTRA.POLAR>
0

>  <SCORE.INTRA.POLAR.0>
0

>  <SCORE.INTRA.REPUL>
0

>  <SCORE.INTRA.REPUL.0>
0

>  <SCORE.INTRA.SOLV>
1.24049

>  <SCORE.INTRA.SOLV.lig_0>
-49.456

>  <SCORE.INTRA.VDW>
-0.158325

>  <SCORE.INTRA.VDW.0>
-0.478406

>  <SCORE.INTRA.norm>
-0.000737257

>  <SCORE.RESTR>
0

>  <SCORE.RESTR.CAVITY>
0

>  <SCORE.RESTR.norm>
0

>  <SCORE.SYSTEM>
0

>  <SCORE.SYSTEM.CONST>
0

>  <SCORE.SYSTEM.DIHEDRAL>
0

>  <SCORE.SYSTEM.SOLV>
0

>  <SCORE.SYSTEM.norm>
0

>  <SCORE.heavy>
14

>  <SCORE.norm>
-0.80903

>  <RMSD>
3.109

$$$$
ligand
 OpenBabel11021811413D
libRbt.so/2013.1/901 2013/11/27
 14 13  0  0  0  0  0  0  0  0999 V2000
   45.1114   -0.3032   14.3813 N   0  0  0  0  0  0  0  0  0  0  0  0
   45.8173    0.4547   15.4369 C   0  0  0  0  0  0  0  0  0  0  0  0
   45.1951    0.1898   16.8249 C   0  0  0  0  0  0  0  0  0  0  0  0
   45.9039    0.9000   17.9900 C   0  0  0  0  0  0  0  0  0  0  0  0
   45.7847    2.3789   17.8663 N   0  0  0  0  0  0  0  0  0  0  0  0
   45.4590    2.9798   19.1852 C   0  0  0  0  0  0  0  0  0  0  0  0
   45.6433    4.5316   19.2859 C   0  0  0  0  0  0  0  0  0  0  0  0
   45.2232    5.1333   20.6577 C   0  0  0  0  0  0  0  0  0  0  0  0
   45.2136    6.6492   20.6878 C   0  0  0  0  0  0  0  0  0  0  0  0
   46.5721    7.1019   20.4554 N   0  0  0  0  0  0  0  0  0  0  0  0
   46.4554    8.3538   19.7282 C   0  0  0  0  0  0  0  0  0  0  0  0
   47.3109    8.3477   18.4667 C   0  0  0  0  0  0  0  0  0  0  0  0
   47.1782    9.7295   17.8086 C   0  0  0  0  0  0  0  0  0  0  0  0
   47.9365    9.8214   16.5519 N   0  0  0  0  0  0  0  0  0  0  0  0
  1  2  1  0  0  0  0
  2  3  1  0  0  0  0
  3  4  1  0  0  0  0
  4  5  1  0  0  0  0
  5  6  1  0  0  0  0
  6  7  1  0  0  0  0
  7  8  1  0  0  0  0
  8  9  1  0  0  0  0
  9 10  1  0  0  0  0
 10 11  1  0  0  0  0
 11 12  1  0  0  0  0
 12 13  1  0  0  0  0
 13 14  1  0  0  0  0
M  END
>  <CHROM.1>
177.82236683,64.73473412,136.41737608,165.76028137,177.01932000,-171.71221468
-62.93098401,147.06848540,-128.45714849,-177.17971077,-178.25661178,46.05736844
4.73345443,18.23799844,-2.07375634,1.21944258,0.77274581

>  <Name>
ligand

>  <RI>
0

>  <Rbt.Current_Directory>
/home/itssahil/PROJECTS/Mol_Feturizer/New_Systems/rnas/1TN2

>  <Rbt.Executable>
rbdock ($Id: //depot/dev/client3/rdock/2013.1/src/exe/rbdock.cxx#4 $)

>  <Rbt.Library>
libRbt.so (2013.1, Build901 2013/11/27)

>  <Rbt.Parameter_File>
/export/apps/rDock/src/rDock_2013.1_src/data/scripts/dock_solv.prm

>  <Rbt.Receptor>
prm/pocket_docking_4.prm

>  <SCORE>
-8.92142

>  <SCORE.INTER>
-6.31295

>  <SCORE.INTER.CONST>
1

>  <SCORE.INTER.POLAR>
0

>  <SCORE.INTER.ROT>
11

>  <SCORE.INTER.SOLV>
10.5714

>  <SCORE.INTER.VDW>
-18.6658

>  <SCORE.INTER.norm>
-0.450925

>  <SCORE.INTRA>
-2.60847

>  <SCORE.INTRA.DIHEDRAL>
-4.31669

>  <SCORE.INTRA.DIHEDRAL.0>
7.79482

>  <SCORE.INTRA.POLAR>
0

>  <SCORE.INTRA.POLAR.0>
0

>  <SCORE.INTRA.REPUL>
0

>  <SCORE.INTRA.REPUL.0>
0

>  <SCORE.INTRA.SOLV>
0.646799

>  <SCORE.INTRA.SOLV.lig_0>
-49.456

>  <SCORE.INTRA.VDW>
-0.77352

>  <SCORE.INTRA.VDW.0>
-0.478406

>  <SCORE.INTRA.norm>
-0.186319

>  <SCORE.RESTR>
0

>  <SCORE.RESTR.CAVITY>
0

>  <SCORE.RESTR.norm>
0

>  <SCORE.SYSTEM>
0

>  <SCORE.SYSTEM.CONST>
0

>  <SCORE.SYSTEM.DIHEDRAL>
0

>  <SCORE.SYSTEM.SOLV>
0

>  <SCORE.SYSTEM.norm>
0

>  <SCORE.heavy>
14

>  <SCORE.norm>
-0.637244

>  <RMSD>
3.113

$$$$
ligand
 OpenBabel11021811413D
libRbt.so/2013.1/901 2013/11/27
 14 13  0  0  0  0  0  0  0  0999 V2000
   46.3088   10.6004   18.1434 N   0  0  0  0  0  0  0  0  0  0  0  0
   46.3813    9.5207   19.1515 C   0  0  0  0  0  0  0  0  0  0  0  0
   45.0376    8.7680   19.2606 C   0  0  0  0  0  0  0  0  0  0  0  0
   45.0239    7.6297   20.2941 C   0  0  0  0  0  0  0  0  0  0  0  0
   45.9883    6.5583   19.9218 N   0  0  0  0  0  0  0  0  0  0  0  0
   45.8358    5.3923   20.8296 C   0  0  0  0  0  0  0  0  0  0  0  0
   44.9374    4.2283   20.2911 C   0  0  0  0  0  0  0  0  0  0  0  0
   45.5630    3.4400   19.1046 C   0  0  0  0  0  0  0  0  0  0  0  0
   44.7076    2.2895   18.6109 C   0  0  0  0  0  0  0  0  0  0  0  0
   45.4802    1.5599   17.6234 N   0  0  0  0  0  0  0  0  0  0  0  0
   44.6627    0.4223   17.2398 C   0  0  0  0  0  0  0  0  0  0  0  0
   45.5105   -0.7027   16.6577 C   0  0  0  0  0  0  0  0  0  0  0  0
   45.9650   -0.2652   15.2570 C   0  0  0  0  0  0  0  0  0  0  0  0
   44.8362   -0.1277   14.3244 N   0  0  0  0  0  0  0  0  0  0  0  0
  1  2  1  0  0  0  0
  2  3  1  0  0  0  0
  3  4  1  0  0  0  0
  4  5  1  0  0  0  0
  5  6  1  0  0  0  0
  6  7  1  0  0  0  0
  7  8  1  0  0  0  0
  8  9  1  0  0  0  0
  9 10  1  0  0  0  0
 10 11  1  0  0  0  0
 11 12  1  0  0  0  0
 12 13  1  0  0  0  0
 13 14  1  0  0  0  0
M  END
>  <CHROM.1>
-179.73662451,-63.40701225,-172.67635725,96.78483509,69.67444469,178.39047404
-173.39297822,176.47123910,-157.54208484,-72.99101094,-65.35211339,45.44551569
4.23652079,18.33676368,-1.18011450,-1.41537666,-2.39599806

>  <Name>
ligand

>  <RI>
0

>  <Rbt.Current_Directory>
/home/itssahil/PROJECTS/Mol_Feturizer/New_Systems/rnas/1TN2

>  <Rbt.Executable>
rbdock ($Id: //depot/dev/client3/rdock/2013.1/src/exe/rbdock.cxx#4 $)

>  <Rbt.Library>
libRbt.so (2013.1, Build901 2013/11/27)

>  <Rbt.Parameter_File>
/export/apps/rDock/src/rDock_2013.1_src/data/scripts/dock_solv.prm

>  <Rbt.Receptor>
prm/pocket_docking_4.prm

>  <SCORE>
-8.79661

>  <SCORE.INTER>
-6.63463

>  <SCORE.INTER.CONST>
1

>  <SCORE.INTER.POLAR>
0

>  <SCORE.INTER.ROT>
11

>  <SCORE.INTER.SOLV>
11.212

>  <SCORE.INTER.VDW>
-19.0938

>  <SCORE.INTER.norm>
-0.473902

>  <SCORE.INTRA>
-2.16198

>  <SCORE.INTRA.DIHEDRAL>
-5.27621

>  <SCORE.INTRA.DIHEDRAL.0>
7.79482

>  <SCORE.INTRA.POLAR>
0

>  <SCORE.INTRA.POLAR.0>
0

>  <SCORE.INTRA.REPUL>
0

>  <SCORE.INTRA.REPUL.0>
0

>  <SCORE.INTRA.SOLV>
2.19212

>  <SCORE.INTRA.SOLV.lig_0>
-49.456

>  <SCORE.INTRA.VDW>
-0.619935

>  <SCORE.INTRA.VDW.0>
-0.478406

>  <SCORE.INTRA.norm>
-0.154427

>  <SCORE.RESTR>
0

>  <SCORE.RESTR.CAVITY>
0

>  <SCORE.RESTR.norm>
0

>  <SCORE.SYSTEM>
0

>  <SCORE.SYSTEM.CONST>
0

>  <SCORE.SYSTEM.DIHEDRAL>
0

>  <SCORE.SYSTEM.SOLV>
0

>  <SCORE.SYSTEM.norm>
0

>  <SCORE.heavy>
14

>  <SCORE.norm>
-0.628329

>  <RMSD>
3.120

$$$$
ligand
 OpenBabel11021811413D
libRbt.so/2013.1/901 2013/11/27
 14 13  0  0  0  0  0  0  0  0999 V2000
   47.1086    8.8035   17.1783 N   0  0  0  0  0  0  0  0  0  0  0  0
   47.5014    8.9602   18.5955 C   0  0  0  0  0  0  0  0  0  0  0  0
   46.3909    9.6603   19.4082 C   0  0  0  0  0  0  0  0  0  0  0  0
   45.1593    8.7856   19.6944 C   0  0  0  0  0  0  0  0  0  0  0  0
   45.5117    7.6383   20.5753 N   0  0  0  0  0  0  0  0  0  0  0  0
   45.2289    6.3543   19.8837 C   0  0  0  0  0  0  0  0  0  0  0  0
   44.9854    5.1217   20.8182 C   0  0  0  0  0  0  0  0  0  0  0  0
   44.4642    3.8565   20.0778 C   0  0  0  0  0  0  0  0  0  0  0  0
   45.4795    3.2281   19.1435 C   0  0  0  0  0  0  0  0  0  0  0  0
   44.8551    2.0714   18.5299 N   0  0  0  0  0  0  0  0  0  0  0  0
   45.9446    1.2285   18.0692 C   0  0  0  0  0  0  0  0  0  0  0  0
   45.4291    0.0409   17.2648 C   0  0  0  0  0  0  0  0  0  0  0  0
   44.8465    0.5864   15.9522 C   0  0  0  0  0  0  0  0  0  0  0  0
   45.8921    1.0764   15.0416 N   0  0  0  0  0  0  0  0  0  0  0  0
  1  2  1  0  0  0  0
  2  3  1  0  0  0  0
  3  4  1  0  0  0  0
  4  5  1  0  0  0  0
  5  6  1  0  0  0  0
  6  7  1  0  0  0  0
  7  8  1  0  0  0  0
  8  9  1  0  0  0  0
  9 10  1  0  0  0  0
 10 11  1  0  0  0  0
 11 12  1  0  0  0  0
 12 13  1  0  0  0  0
 13 14  1  0  0  0  0
M  END
>  <CHROM.1>
73.19576039,65.07740329,-119.66462105,-156.08288505,170.41983271,68.08211223
-179.92651613,-158.93201428,-173.81404944,68.14229443,70.98562589,45.62829240
4.81513363,18.58835051,-1.31767916,-1.13112154,-2.62170523

>  <Name>
ligand

>  <RI>
0

>  <Rbt.Current_Directory>
/home/itssahil/PROJECTS/Mol_Feturizer/New_Systems/rnas/1TN2

>  <Rbt.Executable>
rbdock ($Id: //depot/dev/client3/rdock/2013.1/src/exe/rbdock.cxx#4 $)

>  <Rbt.Library>
libRbt.so (2013.1, Build901 2013/11/27)

>  <Rbt.Parameter_File>
/export/apps/rDock/src/rDock_2013.1_src/data/scripts/dock_solv.prm

>  <Rbt.Receptor>
prm/blind_docking_100.prm

>  <SCORE>
-7.22521

>  <SCORE.INTER>
-6.60859

>  <SCORE.INTER.CONST>
1

>  <SCORE.INTER.POLAR>
0

>  <SCORE.INTER.ROT>
11

>  <SCORE.INTER.SOLV>
11.0153

>  <SCORE.INTER.VDW>
-19.0108

>  <SCORE.INTER.norm>
-0.472042

>  <SCORE.INTRA>
-0.616626

>  <SCORE.INTRA.DIHEDRAL>
-3.79098

>  <SCORE.INTRA.DIHEDRAL.0>
7.79482

>  <SCORE.INTRA.POLAR>
0

>  <SCORE.INTRA.POLAR.0>
0

>  <SCORE.INTRA.REPUL>
0

>  <SCORE.INTRA.REPUL.0>
0

>  <SCORE.INTRA.SOLV>
3.55197

>  <SCORE.INTRA.SOLV.lig_0>
-49.456

>  <SCORE.INTRA.VDW>
-0.497119

>  <SCORE.INTRA.VDW.0>
-0.478406

>  <SCORE.INTRA.norm>
-0.0440447

>  <SCORE.RESTR>
0

>  <SCORE.RESTR.CAVITY>
0

>  <SCORE.RESTR.norm>
0

>  <SCORE.SYSTEM>
0

>  <SCORE.SYSTEM.CONST>
0

>  <SCORE.SYSTEM.DIHEDRAL>
0

>  <SCORE.SYSTEM.SOLV>
0

>  <SCORE.SYSTEM.norm>
0

>  <SCORE.heavy>
14

>  <SCORE.norm>
-0.516087

>  <RMSD>
3.122

$$$$
ligand
 OpenBabel11021811413D
libRbt.so/2013.1/901 2013/11/27
 14 13  0  0  0  0  0  0  0  0999 V2000
   45.6820   -1.9343   14.0886 N   0  0  0  0  0  0  0  0  0  0  0  0
   45.5994   -1.1503   15.3398 C   0  0  0  0  0  0  0  0  0  0  0  0
   44.5183   -0.0524   15.2402 C   0  0  0  0  0  0  0  0  0  0  0  0
   44.4695    0.9083   16.4396 C   0  0  0  0  0  0  0  0  0  0  0  0
   45.7424    1.6701   16.5662 N   0  0  0  0  0  0  0  0  0  0  0  0
   45.5308    2.8907   17.3860 C   0  0  0  0  0  0  0  0  0  0  0  0
   45.6278    2.6900   18.9360 C   0  0  0  0  0  0  0  0  0  0  0  0
   45.2497    3.9513   19.7646 C   0  0  0  0  0  0  0  0  0  0  0  0
   46.1908    5.1233   19.5658 C   0  0  0  0  0  0  0  0  0  0  0  0
   45.7003    6.2229   20.3748 N   0  0  0  0  0  0  0  0  0  0  0  0
   45.6361    7.3716   19.4882 C   0  0  0  0  0  0  0  0  0  0  0  0
   44.5628    8.3590   19.9314 C   0  0  0  0  0  0  0  0  0  0  0  0
   44.4470    9.4384   18.8445 C   0  0  0  0  0  0  0  0  0  0  0  0
   45.6975   10.1937   18.6762 N   0  0  0  0  0  0  0  0  0  0  0  0
  1  2  1  0  0  0  0
  2  3  1  0  0  0  0
  3  4  1  0  0  0  0
  4  5  1  0  0  0  0
  5  6  1  0  0  0  0
  6  7  1  0  0  0  0
  7  8  1  0  0  0  0
  8  9  1  0  0  0  0
  9 10  1  0  0  0  0
 10 11  1  0  0  0  0
 11 12  1  0  0  0  0
 12 13  1  0  0  0  0
 13 14  1  0  0  0  0
M  END
>  <CHROM.1>
-173.65788578,62.66585748,160.26804221,84.72437375,-173.70785386,-64.72966360
178.93219197,-129.33308368,152.11077575,-172.88255559,-62.05277565,45.33229937
3.97729014,17.90318469,1.54445191,1.36315360,-2.68684344

>  <Name>
ligand

>  <RI>
0

>  <Rbt.Current_Directory>
/home/itssahil/PROJECTS/Mol_Feturizer/New_Systems/rnas/1TN2

>  <Rbt.Executable>
rbdock ($Id: //depot/dev/client3/rdock/2013.1/src/exe/rbdock.cxx#4 $)

>  <Rbt.Library>
libRbt.so (2013.1, Build901 2013/11/27)

>  <Rbt.Parameter_File>
/export/apps/rDock/src/rDock_2013.1_src/data/scripts/dock_solv.prm

>  <Rbt.Receptor>
prm/pocket_docking_5.prm

>  <SCORE>
-8.1589

>  <SCORE.INTER>
-6.28019

>  <SCORE.INTER.CONST>
1

>  <SCORE.INTER.POLAR>
0

>  <SCORE.INTER.ROT>
11

>  <SCORE.INTER.SOLV>
10.3491

>  <SCORE.INTER.VDW>
-18.5698

>  <SCORE.INTER.norm>
-0.448585

>  <SCORE.INTRA>
-1.87872

>  <SCORE.INTRA.DIHEDRAL>
-4.77302

>  <SCORE.INTRA.DIHEDRAL.0>
7.79482

>  <SCORE.INTRA.POLAR>
0

>  <SCORE.INTRA.POLAR.0>
0

>  <SCORE.INTRA.REPUL>
0

>  <SCORE.INTRA.REPUL.0>
0

>  <SCORE.INTRA.SOLV>
1.25668

>  <SCORE.INTRA.SOLV.lig_0>
-49.456

>  <SCORE.INTRA.VDW>
-0.120547

>  <SCORE.INTRA.VDW.0>
-0.478406

>  <SCORE.INTRA.norm>
-0.134194

>  <SCORE.RESTR>
0

>  <SCORE.RESTR.CAVITY>
0

>  <SCORE.RESTR.norm>
0

>  <SCORE.SYSTEM>
0

>  <SCORE.SYSTEM.CONST>
0

>  <SCORE.SYSTEM.DIHEDRAL>
0

>  <SCORE.SYSTEM.SOLV>
0

>  <SCORE.SYSTEM.norm>
0

>  <SCORE.heavy>
14

>  <SCORE.norm>
-0.582779

>  <RMSD>
3.123

$$$$
ligand
 OpenBabel11021811413D
libRbt.so/2013.1/901 2013/11/27
 14 13  0  0  0  0  0  0  0  0999 V2000
   46.2753   10.4228   17.4420 N   0  0  0  0  0  0  0  0  0  0  0  0
   45.9053    9.9077   18.7780 C   0  0  0  0  0  0  0  0  0  0  0  0
   46.3930    8.4555   18.9709 C   0  0  0  0  0  0  0  0  0  0  0  0
   45.9780    7.8129   20.3046 C   0  0  0  0  0  0  0  0  0  0  0  0
   46.5023    6.4239   20.4146 N   0  0  0  0  0  0  0  0  0  0  0  0
   45.4168    5.4434   20.1555 C   0  0  0  0  0  0  0  0  0  0  0  0
   45.8763    4.0618   19.5791 C   0  0  0  0  0  0  0  0  0  0  0  0
   44.7196    3.0410   19.3783 C   0  0  0  0  0  0  0  0  0  0  0  0
   45.1759    1.6840   18.8790 C   0  0  0  0  0  0  0  0  0  0  0  0
   45.6268    1.8485   17.5100 N   0  0  0  0  0  0  0  0  0  0  0  0
   45.3593    0.5835   16.8482 C   0  0  0  0  0  0  0  0  0  0  0  0
   44.7773    0.7949   15.4554 C   0  0  0  0  0  0  0  0  0  0  0  0
   44.5511   -0.5903   14.8310 C   0  0  0  0  0  0  0  0  0  0  0  0
   45.8139   -1.3060   14.5947 N   0  0  0  0  0  0  0  0  0  0  0  0
  1  2  1  0  0  0  0
  2  3  1  0  0  0  0
  3  4  1  0  0  0  0
  4  5  1  0  0  0  0
  5  6  1  0  0  0  0
  6  7  1  0  0  0  0
  7  8  1  0  0  0  0
  8  9  1  0  0  0  0
  9 10  1  0  0  0  0
 10 11  1  0  0  0  0
 11 12  1  0  0  0  0
 12 13  1  0  0  0  0
 13 14  1  0  0  0  0
M  END
>  <CHROM.1>
-176.59507780,-179.30281704,-103.04438577,152.40668627,177.51703154,-177.40611174
-69.38525775,-149.66524752,137.42441081,179.10065506,-65.72799650,45.59773549
4.18446148,18.08177333,-0.41626503,-1.45768623,-1.62770848

>  <Name>
ligand

>  <RI>
0

>  <Rbt.Current_Directory>
/home/itssahil/PROJECTS/Mol_Feturizer/New_Systems/rnas/1TN2

>  <Rbt.Executable>
rbdock ($Id: //depot/dev/client3/rdock/2013.1/src/exe/rbdock.cxx#4 $)

>  <Rbt.Library>
libRbt.so (2013.1, Build901 2013/11/27)

>  <Rbt.Parameter_File>
/export/apps/rDock/src/rDock_2013.1_src/data/scripts/dock_solv.prm

>  <Rbt.Receptor>
prm/blind_docking_60.prm

>  <SCORE>
-7.72348

>  <SCORE.INTER>
-5.67811

>  <SCORE.INTER.CONST>
1

>  <SCORE.INTER.POLAR>
0

>  <SCORE.INTER.ROT>
11

>  <SCORE.INTER.SOLV>
11.0307

>  <SCORE.INTER.VDW>
-18.3956

>  <SCORE.INTER.norm>
-0.405579

>  <SCORE.INTRA>
-2.04537

>  <SCORE.INTRA.DIHEDRAL>
-4.16398

>  <SCORE.INTRA.DIHEDRAL.0>
7.79482

>  <SCORE.INTRA.POLAR>
0

>  <SCORE.INTRA.POLAR.0>
0

>  <SCORE.INTRA.REPUL>
0

>  <SCORE.INTRA.REPUL.0>
0

>  <SCORE.INTRA.SOLV>
1.115

>  <SCORE.INTRA.SOLV.lig_0>
-49.456

>  <SCORE.INTRA.VDW>
-0.520885

>  <SCORE.INTRA.VDW.0>
-0.478406

>  <SCORE.INTRA.norm>
-0.146098

>  <SCORE.RESTR>
0

>  <SCORE.RESTR.CAVITY>
0

>  <SCORE.RESTR.norm>
0

>  <SCORE.SYSTEM>
0

>  <SCORE.SYSTEM.CONST>
0

>  <SCORE.SYSTEM.DIHEDRAL>
0

>  <SCORE.SYSTEM.SOLV>
0

>  <SCORE.SYSTEM.norm>
0

>  <SCORE.heavy>
14

>  <SCORE.norm>
-0.551677

>  <RMSD>
3.133

$$$$
ligand
 OpenBabel11021811413D
libRbt.so/2013.1/901 2013/11/27
 14 13  0  0  0  0  0  0  0  0999 V2000
   46.1532    1.7796   15.9494 N   0  0  0  0  0  0  0  0  0  0  0  0
   46.7112    2.5730   17.0658 C   0  0  0  0  0  0  0  0  0  0  0  0
   45.6389    2.8554   18.1403 C   0  0  0  0  0  0  0  0  0  0  0  0
   46.0794    3.8325   19.2426 C   0  0  0  0  0  0  0  0  0  0  0  0
   44.9812    4.0654   20.2204 N   0  0  0  0  0  0  0  0  0  0  0  0
   45.3526    5.1546   21.1598 C   0  0  0  0  0  0  0  0  0  0  0  0
   45.1238    6.6109   20.6316 C   0  0  0  0  0  0  0  0  0  0  0  0
   43.6473    6.9256   20.2557 C   0  0  0  0  0  0  0  0  0  0  0  0
   43.4052    8.3717   19.8697 C   0  0  0  0  0  0  0  0  0  0  0  0
   42.0321    8.4810   19.4145 N   0  0  0  0  0  0  0  0  0  0  0  0
   41.7067    9.8956   19.4672 C   0  0  0  0  0  0  0  0  0  0  0  0
   42.2588   10.6403   18.2573 C   0  0  0  0  0  0  0  0  0  0  0  0
   41.9675   12.1351   18.4590 C   0  0  0  0  0  0  0  0  0  0  0  0
   42.4874   12.9562   17.3553 N   0  0  0  0  0  0  0  0  0  0  0  0
  1  2  1  0  0  0  0
  2  3  1  0  0  0  0
  3  4  1  0  0  0  0
  4  5  1  0  0  0  0
  5  6  1  0  0  0  0
  6  7  1  0  0  0  0
  7  8  1  0  0  0  0
  8  9  1  0  0  0  0
  9 10  1  0  0  0  0
 10 11  1  0  0  0  0
 11 12  1  0  0  0  0
 12 13  1  0  0  0  0
 13 14  1  0  0  0  0
M  END
>  <CHROM.1>
-172.13272293,179.03607971,-171.81627651,82.01102458,59.47171426,174.53887391
174.12114077,162.14662705,79.88587249,-175.41111908,178.75391018,44.11045021
6.87692782,18.96376563,-0.08045048,1.13328592,-1.43256929

>  <Name>
ligand

>  <RI>
0

>  <Rbt.Current_Directory>
/home/itssahil/PROJECTS/Mol_Feturizer/New_Systems/rnas/1TN2

>  <Rbt.Executable>
rbdock ($Id: //depot/dev/client3/rdock/2013.1/src/exe/rbdock.cxx#4 $)

>  <Rbt.Library>
libRbt.so (2013.1, Build901 2013/11/27)

>  <Rbt.Parameter_File>
/export/apps/rDock/src/rDock_2013.1_src/data/scripts/dock_solv.prm

>  <Rbt.Receptor>
prm/pocket_docking_6.prm

>  <SCORE>
-12.6517

>  <SCORE.INTER>
-9.89108

>  <SCORE.INTER.CONST>
1

>  <SCORE.INTER.POLAR>
0

>  <SCORE.INTER.ROT>
11

>  <SCORE.INTER.SOLV>
14.5037

>  <SCORE.INTER.VDW>
-22.3619

>  <SCORE.INTER.norm>
-0.706506

>  <SCORE.INTRA>
-2.76058

>  <SCORE.INTRA.DIHEDRAL>
-6.26921

>  <SCORE.INTRA.DIHEDRAL.0>
7.79482

>  <SCORE.INTRA.POLAR>
0

>  <SCORE.INTRA.POLAR.0>
0

>  <SCORE.INTRA.REPUL>
0

>  <SCORE.INTRA.REPUL.0>
0

>  <SCORE.INTRA.SOLV>
0.294536

>  <SCORE.INTRA.SOLV.lig_0>
-49.456

>  <SCORE.INTRA.VDW>
0.226755

>  <SCORE.INTRA.VDW.0>
-0.478406

>  <SCORE.INTRA.norm>
-0.197184

>  <SCORE.RESTR>
0

>  <SCORE.RESTR.CAVITY>
0

>  <SCORE.RESTR.norm>
0

>  <SCORE.SYSTEM>
0

>  <SCORE.SYSTEM.CONST>
0

>  <SCORE.SYSTEM.DIHEDRAL>
0

>  <SCORE.SYSTEM.SOLV>
0

>  <SCORE.SYSTEM.norm>
0

>  <SCORE.heavy>
14

>  <SCORE.norm>
-0.90369

>  <RMSD>
3.136

$$$$
ligand
 OpenBabel11021811413D
libRbt.so/2013.1/901 2013/11/27
 14 13  0  0  0  0  0  0  0  0999 V2000
   45.4620   -1.7102   15.0341 N   0  0  0  0  0  0  0  0  0  0  0  0
   45.1046   -0.3122   14.7099 C   0  0  0  0  0  0  0  0  0  0  0  0
   44.3194    0.3453   15.8654 C   0  0  0  0  0  0  0  0  0  0  0  0
   45.1383    0.5748   17.1463 C   0  0  0  0  0  0  0  0  0  0  0  0
   46.2531    1.5312   16.9036 N   0  0  0  0  0  0  0  0  0  0  0  0
   46.5932    2.2520   18.1573 C   0  0  0  0  0  0  0  0  0  0  0  0
   45.5468    3.3163   18.6310 C   0  0  0  0  0  0  0  0  0  0  0  0
   46.1223    4.3818   19.6077 C   0  0  0  0  0  0  0  0  0  0  0  0
   45.1138    5.4274   20.0418 C   0  0  0  0  0  0  0  0  0  0  0  0
   45.8520    6.5475   20.5938 N   0  0  0  0  0  0  0  0  0  0  0  0
   45.6730    7.6427   19.6567 C   0  0  0  0  0  0  0  0  0  0  0  0
   46.5266    8.8469   20.0367 C   0  0  0  0  0  0  0  0  0  0  0  0
   46.2657    9.9480   18.9977 C   0  0  0  0  0  0  0  0  0  0  0  0
   46.7698    9.5848   17.6648 N   0  0  0  0  0  0  0  0  0  0  0  0
  1  2  1  0  0  0  0
  2  3  1  0  0  0  0
  3  4  1  0  0  0  0
  4  5  1  0  0  0  0
  5  6  1  0  0  0  0
  6  7  1  0  0  0  0
  7  8  1  0  0  0  0
  8  9  1  0  0  0  0
  9 10  1  0  0  0  0
 10 11  1  0  0  0  0
 11 12  1  0  0  0  0
 12 13  1  0  0  0  0
 13 14  1  0  0  0  0
M  END
>  <CHROM.1>
67.77735123,63.50678101,152.00236605,-71.93695062,-159.35290688,178.80536629
-163.02061592,111.38678444,-173.71809257,-179.74313251,-67.10312047,45.76705660
4.16980801,18.07499025,-2.38376254,1.43529249,1.19710035

>  <Name>
ligand

>  <RI>
0

>  <Rbt.Current_Directory>
/home/itssahil/PROJECTS/Mol_Feturizer/New_Systems/rnas/1TN2

>  <Rbt.Executable>
rbdock ($Id: //depot/dev/client3/rdock/2013.1/src/exe/rbdock.cxx#4 $)

>  <Rbt.Library>
libRbt.so (2013.1, Build901 2013/11/27)

>  <Rbt.Parameter_File>
/export/apps/rDock/src/rDock_2013.1_src/data/scripts/dock_solv.prm

>  <Rbt.Receptor>
prm/pocket_docking_3.prm

>  <SCORE>
-7.44381

>  <SCORE.INTER>
-6.91814

>  <SCORE.INTER.CONST>
1

>  <SCORE.INTER.POLAR>
0

>  <SCORE.INTER.ROT>
11

>  <SCORE.INTER.SOLV>
12.3637

>  <SCORE.INTER.VDW>
-19.6666

>  <SCORE.INTER.norm>
-0.494153

>  <SCORE.INTRA>
-0.525672

>  <SCORE.INTRA.DIHEDRAL>
-3.02246

>  <SCORE.INTRA.DIHEDRAL.0>
7.79482

>  <SCORE.INTRA.POLAR>
0

>  <SCORE.INTRA.POLAR.0>
0

>  <SCORE.INTRA.REPUL>
0

>  <SCORE.INTRA.REPUL.0>
0

>  <SCORE.INTRA.SOLV>
2.30803

>  <SCORE.INTRA.SOLV.lig_0>
-49.456

>  <SCORE.INTRA.VDW>
-0.168461

>  <SCORE.INTRA.VDW.0>
-0.478406

>  <SCORE.INTRA.norm>
-0.037548

>  <SCORE.RESTR>
0

>  <SCORE.RESTR.CAVITY>
0

>  <SCORE.RESTR.norm>
0

>  <SCORE.SYSTEM>
0

>  <SCORE.SYSTEM.CONST>
0

>  <SCORE.SYSTEM.DIHEDRAL>
0

>  <SCORE.SYSTEM.SOLV>
0

>  <SCORE.SYSTEM.norm>
0

>  <SCORE.heavy>
14

>  <SCORE.norm>
-0.531701

>  <RMSD>
3.154

$$$$
ligand
 OpenBabel11021811413D
libRbt.so/2013.1/901 2013/11/27
 14 13  0  0  0  0  0  0  0  0999 V2000
   42.1745   11.5958   18.0934 N   0  0  0  0  0  0  0  0  0  0  0  0
   42.3188   10.2139   18.6000 C   0  0  0  0  0  0  0  0  0  0  0  0
   41.0882    9.7934   19.4325 C   0  0  0  0  0  0  0  0  0  0  0  0
   41.1307    8.3468   19.9514 C   0  0  0  0  0  0  0  0  0  0  0  0
   42.2901    8.1395   20.8621 N   0  0  0  0  0  0  0  0  0  0  0  0
   43.2957    7.2548   20.2197 C   0  0  0  0  0  0  0  0  0  0  0  0
   44.6479    7.0941   20.9930 C   0  0  0  0  0  0  0  0  0  0  0  0
   45.6538    6.1182   20.3174 C   0  0  0  0  0  0  0  0  0  0  0  0
   45.1660    4.6845   20.2448 C   0  0  0  0  0  0  0  0  0  0  0  0
   46.1999    3.9010   19.5956 N   0  0  0  0  0  0  0  0  0  0  0  0
   45.5070    2.8491   18.8723 C   0  0  0  0  0  0  0  0  0  0  0  0
   46.4745    1.7769   18.3849 C   0  0  0  0  0  0  0  0  0  0  0  0
   45.6671    0.7621   17.5614 C   0  0  0  0  0  0  0  0  0  0  0  0
   45.1337    1.3501   16.3234 N   0  0  0  0  0  0  0  0  0  0  0  0
  1  2  1  0  0  0  0
  2  3  1  0  0  0  0
  3  4  1  0  0  0  0
  4  5  1  0  0  0  0
  5  6  1  0  0  0  0
  6  7  1  0  0  0  0
  7  8  1  0  0  0  0
  8  9  1  0  0  0  0
  9 10  1  0  0  0  0
 10 11  1  0  0  0  0
 11 12  1  0  0  0  0
 12 13  1  0  0  0  0
 13 14  1  0  0  0  0
M  END
>  <CHROM.1>
177.65260779,61.70086407,-110.66408861,172.73314073,177.77543812,-63.66020410
179.96465097,-148.22032182,-167.91629673,-176.48668404,66.17065896,44.05344277
5.99132795,19.24678421,2.36297754,-0.90640209,0.83332883

>  <Name>
ligand

>  <RI>
0

>  <Rbt.Current_Directory>
/home/itssahil/PROJECTS/Mol_Feturizer/New_Systems/rnas/1TN2

>  <Rbt.Executable>
rbdock ($Id: //depot/dev/client3/rdock/2013.1/src/exe/rbdock.cxx#4 $)

>  <Rbt.Library>
libRbt.so (2013.1, Build901 2013/11/27)

>  <Rbt.Parameter_File>
/export/apps/rDock/src/rDock_2013.1_src/data/scripts/dock_solv.prm

>  <Rbt.Receptor>
prm/pocket_docking_7.prm

>  <SCORE>
-15.3896

>  <SCORE.INTER>
-12.8809

>  <SCORE.INTER.CONST>
1

>  <SCORE.INTER.POLAR>
0

>  <SCORE.INTER.ROT>
11

>  <SCORE.INTER.SOLV>
18.0685

>  <SCORE.INTER.VDW>
-25.5434

>  <SCORE.INTER.norm>
-0.920066

>  <SCORE.INTRA>
-2.50869

>  <SCORE.INTRA.DIHEDRAL>
-5.55434

>  <SCORE.INTRA.DIHEDRAL.0>
7.79482

>  <SCORE.INTRA.POLAR>
0

>  <SCORE.INTRA.POLAR.0>
0

>  <SCORE.INTRA.REPUL>
0

>  <SCORE.INTRA.REPUL.0>
0

>  <SCORE.INTRA.SOLV>
1.26263

>  <SCORE.INTRA.SOLV.lig_0>
-49.456

>  <SCORE.INTRA.VDW>
-0.362838

>  <SCORE.INTRA.VDW.0>
-0.478406

>  <SCORE.INTRA.norm>
-0.179192

>  <SCORE.RESTR>
0

>  <SCORE.RESTR.CAVITY>
0

>  <SCORE.RESTR.norm>
0

>  <SCORE.SYSTEM>
0

>  <SCORE.SYSTEM.CONST>
0

>  <SCORE.SYSTEM.DIHEDRAL>
0

>  <SCORE.SYSTEM.SOLV>
0

>  <SCORE.SYSTEM.norm>
0

>  <SCORE.heavy>
14

>  <SCORE.norm>
-1.09926

>  <RMSD>
3.158

$$$$
ligand
 OpenBabel11021811413D
libRbt.so/2013.1/901 2013/11/27
 14 13  0  0  0  0  0  0  0  0999 V2000
   40.4077    7.1121   21.0387 N   0  0  0  0  0  0  0  0  0  0  0  0
   40.4551    8.0260   19.8769 C   0  0  0  0  0  0  0  0  0  0  0  0
   41.7235    8.9058   19.9104 C   0  0  0  0  0  0  0  0  0  0  0  0
   43.0458    8.1253   19.8312 C   0  0  0  0  0  0  0  0  0  0  0  0
   44.2141    9.0384   19.9640 N   0  0  0  0  0  0  0  0  0  0  0  0
   45.4094    8.4405   19.3155 C   0  0  0  0  0  0  0  0  0  0  0  0
   46.3680    7.6457   20.2650 C   0  0  0  0  0  0  0  0  0  0  0  0
   45.9284    6.1764   20.5263 C   0  0  0  0  0  0  0  0  0  0  0  0
   46.0220    5.2798   19.3071 C   0  0  0  0  0  0  0  0  0  0  0  0
   45.7579    3.9207   19.7399 N   0  0  0  0  0  0  0  0  0  0  0  0
   45.3997    3.1836   18.5407 C   0  0  0  0  0  0  0  0  0  0  0  0
   45.2089    1.7001   18.8341 C   0  0  0  0  0  0  0  0  0  0  0  0
   44.7125    1.0312   17.5433 C   0  0  0  0  0  0  0  0  0  0  0  0
   45.6998    1.1189   16.4570 N   0  0  0  0  0  0  0  0  0  0  0  0
  1  2  1  0  0  0  0
  2  3  1  0  0  0  0
  3  4  1  0  0  0  0
  4  5  1  0  0  0  0
  5  6  1  0  0  0  0
  6  7  1  0  0  0  0
  7  8  1  0  0  0  0
  8  9  1  0  0  0  0
  9 10  1  0  0  0  0
 10 11  1  0  0  0  0
 11 12  1  0  0  0  0
 12 13  1  0  0  0  0
 13 14  1  0  0  0  0
M  END
>  <CHROM.1>
62.14915317,-176.08589672,-155.15260396,-95.00588912,83.23898930,67.78696545
172.47246273,160.83063346,175.17010115,175.00207679,63.15275465,44.31103144
5.69332756,19.36788054,1.98240903,0.01254418,0.31827804

>  <Name>
ligand

>  <RI>
0

>  <Rbt.Current_Directory>
/home/itssahil/PROJECTS/Mol_Feturizer/New_Systems/rnas/1TN2

>  <Rbt.Executable>
rbdock ($Id: //depot/dev/client3/rdock/2013.1/src/exe/rbdock.cxx#4 $)

>  <Rbt.Library>
libRbt.so (2013.1, Build901 2013/11/27)

>  <Rbt.Parameter_File>
/export/apps/rDock/src/rDock_2013.1_src/data/scripts/dock_solv.prm

>  <Rbt.Receptor>
prm/blind_docking_100.prm

>  <SCORE>
-12.7815

>  <SCORE.INTER>
-11.363

>  <SCORE.INTER.CONST>
1

>  <SCORE.INTER.POLAR>
0

>  <SCORE.INTER.ROT>
11

>  <SCORE.INTER.SOLV>
14.2079

>  <SCORE.INTER.VDW>
-23.2446

>  <SCORE.INTER.norm>
-0.811641

>  <SCORE.INTRA>
-1.41854

>  <SCORE.INTRA.DIHEDRAL>
-3.8301

>  <SCORE.INTRA.DIHEDRAL.0>
7.79482

>  <SCORE.INTRA.POLAR>
0

>  <SCORE.INTRA.POLAR.0>
0

>  <SCORE.INTRA.REPUL>
0

>  <SCORE.INTRA.REPUL.0>
0

>  <SCORE.INTRA.SOLV>
1.93328

>  <SCORE.INTRA.SOLV.lig_0>
-49.456

>  <SCORE.INTRA.VDW>
-0.470131

>  <SCORE.INTRA.VDW.0>
-0.478406

>  <SCORE.INTRA.norm>
-0.101324

>  <SCORE.RESTR>
0

>  <SCORE.RESTR.CAVITY>
0

>  <SCORE.RESTR.norm>
0

>  <SCORE.SYSTEM>
0

>  <SCORE.SYSTEM.CONST>
0

>  <SCORE.SYSTEM.DIHEDRAL>
0

>  <SCORE.SYSTEM.SOLV>
0

>  <SCORE.SYSTEM.norm>
0

>  <SCORE.heavy>
14

>  <SCORE.norm>
-0.912965

>  <RMSD>
3.164

$$$$
ligand
 OpenBabel11021811413D
libRbt.so/2013.1/901 2013/11/27
 14 13  0  0  0  0  0  0  0  0999 V2000
   45.1341   -1.6828   14.4048 N   0  0  0  0  0  0  0  0  0  0  0  0
   44.6177   -0.3033   14.5367 C   0  0  0  0  0  0  0  0  0  0  0  0
   45.3973    0.4840   15.6121 C   0  0  0  0  0  0  0  0  0  0  0  0
   45.3262   -0.1198   17.0243 C   0  0  0  0  0  0  0  0  0  0  0  0
   46.1269    0.6826   17.9894 N   0  0  0  0  0  0  0  0  0  0  0  0
   45.3444    1.8566   18.4544 C   0  0  0  0  0  0  0  0  0  0  0  0
   46.1862    3.0505   19.0186 C   0  0  0  0  0  0  0  0  0  0  0  0
   45.3306    4.2431   19.5342 C   0  0  0  0  0  0  0  0  0  0  0  0
   46.1479    5.3861   20.1039 C   0  0  0  0  0  0  0  0  0  0  0  0
   45.2606    6.5221   20.2672 N   0  0  0  0  0  0  0  0  0  0  0  0
   46.0241    7.6863   19.8534 C   0  0  0  0  0  0  0  0  0  0  0  0
   45.1291    8.9081   19.6819 C   0  0  0  0  0  0  0  0  0  0  0  0
   46.0108   10.0642   19.1859 C   0  0  0  0  0  0  0  0  0  0  0  0
   46.4913    9.8469   17.8131 N   0  0  0  0  0  0  0  0  0  0  0  0
  1  2  1  0  0  0  0
  2  3  1  0  0  0  0
  3  4  1  0  0  0  0
  4  5  1  0  0  0  0
  5  6  1  0  0  0  0
  6  7  1  0  0  0  0
  7  8  1  0  0  0  0
  8  9  1  0  0  0  0
  9 10  1  0  0  0  0
 10 11  1  0  0  0  0
 11 12  1  0  0  0  0
 12 13  1  0  0  0  0
 13 14  1  0  0  0  0
M  END
>  <CHROM.1>
-60.41184372,178.76019605,81.95805367,-157.92788657,-178.27332135,178.90085058
167.72654312,-139.55884696,167.53202427,-177.52803079,68.77226433,45.60903119
4.04470297,18.10589815,2.43559863,1.48792479,2.65655621

>  <Name>
ligand

>  <RI>
0

>  <Rbt.Current_Directory>
/home/itssahil/PROJECTS/Mol_Feturizer/New_Systems/rnas/1TN2

>  <Rbt.Executable>
rbdock ($Id: //depot/dev/client3/rdock/2013.1/src/exe/rbdock.cxx#4 $)

>  <Rbt.Library>
libRbt.so (2013.1, Build901 2013/11/27)

>  <Rbt.Parameter_File>
/export/apps/rDock/src/rDock_2013.1_src/data/scripts/dock_solv.prm

>  <Rbt.Receptor>
prm/pocket_docking_3.prm

>  <SCORE>
-8.51207

>  <SCORE.INTER>
-6.4027

>  <SCORE.INTER.CONST>
1

>  <SCORE.INTER.POLAR>
0

>  <SCORE.INTER.ROT>
11

>  <SCORE.INTER.SOLV>
12.3471

>  <SCORE.INTER.VDW>
-19.3175

>  <SCORE.INTER.norm>
-0.457336

>  <SCORE.INTRA>
-2.10937

>  <SCORE.INTRA.DIHEDRAL>
-5.16423

>  <SCORE.INTRA.DIHEDRAL.0>
7.79482

>  <SCORE.INTRA.POLAR>
0

>  <SCORE.INTRA.POLAR.0>
0

>  <SCORE.INTRA.REPUL>
0

>  <SCORE.INTRA.REPUL.0>
0

>  <SCORE.INTRA.SOLV>
1.43748

>  <SCORE.INTRA.SOLV.lig_0>
-49.456

>  <SCORE.INTRA.VDW>
-0.245989

>  <SCORE.INTRA.VDW.0>
-0.478406

>  <SCORE.INTRA.norm>
-0.150669

>  <SCORE.RESTR>
0

>  <SCORE.RESTR.CAVITY>
0

>  <SCORE.RESTR.norm>
0

>  <SCORE.SYSTEM>
0

>  <SCORE.SYSTEM.CONST>
0

>  <SCORE.SYSTEM.DIHEDRAL>
0

>  <SCORE.SYSTEM.SOLV>
0

>  <SCORE.SYSTEM.norm>
0

>  <SCORE.heavy>
14

>  <SCORE.norm>
-0.608005

>  <RMSD>
3.166

$$$$
ligand
 OpenBabel11021811413D
libRbt.so/2013.1/901 2013/11/27
 14 13  0  0  0  0  0  0  0  0999 V2000
   47.5997    9.6423   16.8350 N   0  0  0  0  0  0  0  0  0  0  0  0
   47.7691    9.0572   18.1827 C   0  0  0  0  0  0  0  0  0  0  0  0
   46.4400    8.4734   18.7087 C   0  0  0  0  0  0  0  0  0  0  0  0
   46.5276    7.8427   20.1081 C   0  0  0  0  0  0  0  0  0  0  0  0
   45.2437    7.1872   20.4801 N   0  0  0  0  0  0  0  0  0  0  0  0
   45.1131    5.8816   19.7836 C   0  0  0  0  0  0  0  0  0  0  0  0
   46.0255    4.7306   20.3267 C   0  0  0  0  0  0  0  0  0  0  0  0
   46.3354    3.6196   19.2826 C   0  0  0  0  0  0  0  0  0  0  0  0
   45.1211    2.8163   18.8598 C   0  0  0  0  0  0  0  0  0  0  0  0
   45.5215    1.9613   17.7585 N   0  0  0  0  0  0  0  0  0  0  0  0
   44.4583    0.9834   17.6068 C   0  0  0  0  0  0  0  0  0  0  0  0
   44.3064    0.5455   16.1547 C   0  0  0  0  0  0  0  0  0  0  0  0
   45.5604   -0.2581   15.7781 C   0  0  0  0  0  0  0  0  0  0  0  0
   45.6633   -1.5145   16.5353 N   0  0  0  0  0  0  0  0  0  0  0  0
  1  2  1  0  0  0  0
  2  3  1  0  0  0  0
  3  4  1  0  0  0  0
  4  5  1  0  0  0  0
  5  6  1  0  0  0  0
  6  7  1  0  0  0  0
  7  8  1  0  0  0  0
  8  9  1  0  0  0  0
  9 10  1  0  0  0  0
 10 11  1  0  0  0  0
 11 12  1  0  0  0  0
 12 13  1  0  0  0  0
 13 14  1  0  0  0  0
M  END
>  <CHROM.1>
179.97587993,-174.34635385,77.11636380,73.41484743,-155.37423724,-65.97424441
171.96851000,165.94983365,148.70782510,68.13069911,65.47552600,45.83458594
4.35491307,18.31450227,-1.08456066,-1.16574568,-2.44168503

>  <Name>
ligand

>  <RI>
0

>  <Rbt.Current_Directory>
/home/itssahil/PROJECTS/Mol_Feturizer/New_Systems/rnas/1TN2

>  <Rbt.Executable>
rbdock ($Id: //depot/dev/client3/rdock/2013.1/src/exe/rbdock.cxx#4 $)

>  <Rbt.Library>
libRbt.so (2013.1, Build901 2013/11/27)

>  <Rbt.Parameter_File>
/export/apps/rDock/src/rDock_2013.1_src/data/scripts/dock_solv.prm

>  <Rbt.Receptor>
prm/pocket_docking_3.prm

>  <SCORE>
-5.82588

>  <SCORE.INTER>
-5.41567

>  <SCORE.INTER.CONST>
1

>  <SCORE.INTER.POLAR>
0

>  <SCORE.INTER.ROT>
11

>  <SCORE.INTER.SOLV>
15.4476

>  <SCORE.INTER.VDW>
-19.693

>  <SCORE.INTER.norm>
-0.386833

>  <SCORE.INTRA>
-0.410211

>  <SCORE.INTRA.DIHEDRAL>
-3.77022

>  <SCORE.INTRA.DIHEDRAL.0>
7.79482

>  <SCORE.INTRA.POLAR>
0

>  <SCORE.INTRA.POLAR.0>
0

>  <SCORE.INTRA.REPUL>
0

>  <SCORE.INTRA.REPUL.0>
0

>  <SCORE.INTRA.SOLV>
1.81792

>  <SCORE.INTRA.SOLV.lig_0>
-49.456

>  <SCORE.INTRA.VDW>
0.565941

>  <SCORE.INTRA.VDW.0>
-0.478406

>  <SCORE.INTRA.norm>
-0.0293008

>  <SCORE.RESTR>
0

>  <SCORE.RESTR.CAVITY>
0

>  <SCORE.RESTR.norm>
0

>  <SCORE.SYSTEM>
0

>  <SCORE.SYSTEM.CONST>
0

>  <SCORE.SYSTEM.DIHEDRAL>
0

>  <SCORE.SYSTEM.SOLV>
0

>  <SCORE.SYSTEM.norm>
0

>  <SCORE.heavy>
14

>  <SCORE.norm>
-0.416134

>  <RMSD>
3.166

$$$$
ligand
 OpenBabel11021811413D
libRbt.so/2013.1/901 2013/11/27
 14 13  0  0  0  0  0  0  0  0999 V2000
   45.5104   -1.8125   13.6775 N   0  0  0  0  0  0  0  0  0  0  0  0
   44.8765   -1.3145   14.9174 C   0  0  0  0  0  0  0  0  0  0  0  0
   45.7655   -0.2624   15.6150 C   0  0  0  0  0  0  0  0  0  0  0  0
   45.1671    0.3291   16.9019 C   0  0  0  0  0  0  0  0  0  0  0  0
   46.0384    1.4037   17.4516 N   0  0  0  0  0  0  0  0  0  0  0  0
   45.3347    2.1283   18.5409 C   0  0  0  0  0  0  0  0  0  0  0  0
   46.0112    3.4582   19.0162 C   0  0  0  0  0  0  0  0  0  0  0  0
   45.1866    4.2477   20.0732 C   0  0  0  0  0  0  0  0  0  0  0  0
   45.8921    5.4772   20.6112 C   0  0  0  0  0  0  0  0  0  0  0  0
   46.0594    6.4054   19.5090 N   0  0  0  0  0  0  0  0  0  0  0  0
   46.4263    7.6755   20.1104 C   0  0  0  0  0  0  0  0  0  0  0  0
   45.3323    8.7195   19.9199 C   0  0  0  0  0  0  0  0  0  0  0  0
   45.2659    9.0553   18.4223 C   0  0  0  0  0  0  0  0  0  0  0  0
   46.4753    9.7489   17.9544 N   0  0  0  0  0  0  0  0  0  0  0  0
  1  2  1  0  0  0  0
  2  3  1  0  0  0  0
  3  4  1  0  0  0  0
  4  5  1  0  0  0  0
  5  6  1  0  0  0  0
  6  7  1  0  0  0  0
  7  8  1  0  0  0  0
  8  9  1  0  0  0  0
  9 10  1  0  0  0  0
 10 11  1  0  0  0  0
 11 12  1  0  0  0  0
 12 13  1  0  0  0  0
 13 14  1  0  0  0  0
M  END
>  <CHROM.1>
178.87827120,-175.74043364,169.68592292,-168.29143575,175.20152766,175.47395474
64.45772043,166.33572419,-113.03140066,-67.86941478,-67.21875721,45.66712469
3.94711188,18.05186456,-2.64453816,1.51505369,1.49184552

>  <Name>
ligand

>  <RI>
0

>  <Rbt.Current_Directory>
/home/itssahil/PROJECTS/Mol_Feturizer/New_Systems/rnas/1TN2

>  <Rbt.Executable>
rbdock ($Id: //depot/dev/client3/rdock/2013.1/src/exe/rbdock.cxx#4 $)

>  <Rbt.Library>
libRbt.so (2013.1, Build901 2013/11/27)

>  <Rbt.Parameter_File>
/export/apps/rDock/src/rDock_2013.1_src/data/scripts/dock_solv.prm

>  <Rbt.Receptor>
prm/pocket_docking_5.prm

>  <SCORE>
-9.65596

>  <SCORE.INTER>
-7.49968

>  <SCORE.INTER.CONST>
1

>  <SCORE.INTER.POLAR>
0

>  <SCORE.INTER.ROT>
11

>  <SCORE.INTER.SOLV>
9.68551

>  <SCORE.INTER.VDW>
-19.1616

>  <SCORE.INTER.norm>
-0.535691

>  <SCORE.INTRA>
-2.15628

>  <SCORE.INTRA.DIHEDRAL>
-5.54659

>  <SCORE.INTRA.DIHEDRAL.0>
7.79482

>  <SCORE.INTRA.POLAR>
0

>  <SCORE.INTRA.POLAR.0>
0

>  <SCORE.INTRA.REPUL>
0

>  <SCORE.INTRA.REPUL.0>
0

>  <SCORE.INTRA.SOLV>
2.0026

>  <SCORE.INTRA.SOLV.lig_0>
-49.456

>  <SCORE.INTRA.VDW>
-0.384287

>  <SCORE.INTRA.VDW.0>
-0.478406

>  <SCORE.INTRA.norm>
-0.15402

>  <SCORE.RESTR>
0

>  <SCORE.RESTR.CAVITY>
0

>  <SCORE.RESTR.norm>
0

>  <SCORE.SYSTEM>
0

>  <SCORE.SYSTEM.CONST>
0

>  <SCORE.SYSTEM.DIHEDRAL>
0

>  <SCORE.SYSTEM.SOLV>
0

>  <SCORE.SYSTEM.norm>
0

>  <SCORE.heavy>
14

>  <SCORE.norm>
-0.689711

>  <RMSD>
3.167

$$$$
ligand
 OpenBabel11021811413D
libRbt.so/2013.1/901 2013/11/27
 14 13  0  0  0  0  0  0  0  0999 V2000
   45.0680   -0.2540   14.3875 N   0  0  0  0  0  0  0  0  0  0  0  0
   45.6695    0.5515   15.4721 C   0  0  0  0  0  0  0  0  0  0  0  0
   44.9918    0.2567   16.8278 C   0  0  0  0  0  0  0  0  0  0  0  0
   45.5914    1.0176   18.0217 C   0  0  0  0  0  0  0  0  0  0  0  0
   45.3559    2.4822   17.8947 N   0  0  0  0  0  0  0  0  0  0  0  0
   46.2782    3.2298   18.7877 C   0  0  0  0  0  0  0  0  0  0  0  0
   45.6693    4.4929   19.4847 C   0  0  0  0  0  0  0  0  0  0  0  0
   44.4734    4.1822   20.4300 C   0  0  0  0  0  0  0  0  0  0  0  0
   44.0315    5.3630   21.2722 C   0  0  0  0  0  0  0  0  0  0  0  0
   43.6054    6.4134   20.3669 N   0  0  0  0  0  0  0  0  0  0  0  0
   44.6604    7.4114   20.3904 C   0  0  0  0  0  0  0  0  0  0  0  0
   44.3867    8.5357   19.3983 C   0  0  0  0  0  0  0  0  0  0  0  0
   45.6318    9.4348   19.3596 C   0  0  0  0  0  0  0  0  0  0  0  0
   45.4883   10.5414   18.4018 N   0  0  0  0  0  0  0  0  0  0  0  0
  1  2  1  0  0  0  0
  2  3  1  0  0  0  0
  3  4  1  0  0  0  0
  4  5  1  0  0  0  0
  5  6  1  0  0  0  0
  6  7  1  0  0  0  0
  7  8  1  0  0  0  0
  8  9  1  0  0  0  0
  9 10  1  0  0  0  0
 10 11  1  0  0  0  0
 11 12  1  0  0  0  0
 12 13  1  0  0  0  0
 13 14  1  0  0  0  0
M  END
>  <CHROM.1>
177.94588744,66.18623127,-162.18822715,-142.09555022,61.80551149,170.59821322
61.10038449,-105.79196483,175.91805041,-172.63108043,178.56260810,45.06446418
4.54694597,18.60715624,-1.32873979,1.31855791,0.16982707

>  <Name>
ligand

>  <RI>
0

>  <Rbt.Current_Directory>
/home/itssahil/PROJECTS/Mol_Feturizer/New_Systems/rnas/1TN2

>  <Rbt.Executable>
rbdock ($Id: //depot/dev/client3/rdock/2013.1/src/exe/rbdock.cxx#4 $)

>  <Rbt.Library>
libRbt.so (2013.1, Build901 2013/11/27)

>  <Rbt.Parameter_File>
/export/apps/rDock/src/rDock_2013.1_src/data/scripts/dock_solv.prm

>  <Rbt.Receptor>
prm/blind_docking_60.prm

>  <SCORE>
-9.10478

>  <SCORE.INTER>
-6.71014

>  <SCORE.INTER.CONST>
1

>  <SCORE.INTER.POLAR>
0

>  <SCORE.INTER.ROT>
11

>  <SCORE.INTER.SOLV>
11.3019

>  <SCORE.INTER.VDW>
-19.1741

>  <SCORE.INTER.norm>
-0.479296

>  <SCORE.INTRA>
-2.39463

>  <SCORE.INTRA.DIHEDRAL>
-4.90538

>  <SCORE.INTRA.DIHEDRAL.0>
7.79482

>  <SCORE.INTRA.POLAR>
0

>  <SCORE.INTRA.POLAR.0>
0

>  <SCORE.INTRA.REPUL>
0

>  <SCORE.INTRA.REPUL.0>
0

>  <SCORE.INTRA.SOLV>
0.972701

>  <SCORE.INTRA.SOLV.lig_0>
-49.456

>  <SCORE.INTRA.VDW>
-0.428296

>  <SCORE.INTRA.VDW.0>
-0.478406

>  <SCORE.INTRA.norm>
-0.171045

>  <SCORE.RESTR>
0

>  <SCORE.RESTR.CAVITY>
0

>  <SCORE.RESTR.norm>
0

>  <SCORE.SYSTEM>
0

>  <SCORE.SYSTEM.CONST>
0

>  <SCORE.SYSTEM.DIHEDRAL>
0

>  <SCORE.SYSTEM.SOLV>
0

>  <SCORE.SYSTEM.norm>
0

>  <SCORE.heavy>
14

>  <SCORE.norm>
-0.650341

>  <RMSD>
3.169

$$$$
ligand
 OpenBabel11021811413D
libRbt.so/2013.1/901 2013/11/27
 14 13  0  0  0  0  0  0  0  0999 V2000
   46.1295   10.3459   17.5314 N   0  0  0  0  0  0  0  0  0  0  0  0
   45.6738    9.3517   18.5269 C   0  0  0  0  0  0  0  0  0  0  0  0
   46.8700    8.7092   19.2618 C   0  0  0  0  0  0  0  0  0  0  0  0
   46.4845    7.6488   20.3064 C   0  0  0  0  0  0  0  0  0  0  0  0
   45.8375    6.4735   19.6612 N   0  0  0  0  0  0  0  0  0  0  0  0
   45.4760    5.4600   20.6853 C   0  0  0  0  0  0  0  0  0  0  0  0
   44.7167    4.1990   20.1510 C   0  0  0  0  0  0  0  0  0  0  0  0
   45.5276    3.3570   19.1244 C   0  0  0  0  0  0  0  0  0  0  0  0
   44.7897    2.1365   18.6098 C   0  0  0  0  0  0  0  0  0  0  0  0
   45.6947    1.4107   17.7389 N   0  0  0  0  0  0  0  0  0  0  0  0
   44.8514    0.6520   16.8318 C   0  0  0  0  0  0  0  0  0  0  0  0
   45.6794   -0.2468   15.9208 C   0  0  0  0  0  0  0  0  0  0  0  0
   44.7337   -0.8319   14.8610 C   0  0  0  0  0  0  0  0  0  0  0  0
   45.4497   -1.6419   13.8640 N   0  0  0  0  0  0  0  0  0  0  0  0
  1  2  1  0  0  0  0
  2  3  1  0  0  0  0
  3  4  1  0  0  0  0
  4  5  1  0  0  0  0
  5  6  1  0  0  0  0
  6  7  1  0  0  0  0
  7  8  1  0  0  0  0
  8  9  1  0  0  0  0
  9 10  1  0  0  0  0
 10 11  1  0  0  0  0
 11 12  1  0  0  0  0
 12 13  1  0  0  0  0
 13 14  1  0  0  0  0
M  END
>  <CHROM.1>
-179.33491695,64.61594191,179.86177215,176.91655347,61.80432080,179.96574798
-176.31329027,-155.20019104,-175.67753354,-171.17327239,175.81163258,45.56520992
4.07309870,18.07711136,-0.97342648,-1.40256070,-2.16983693

>  <Name>
ligand

>  <RI>
0

>  <Rbt.Current_Directory>
/home/itssahil/PROJECTS/Mol_Feturizer/New_Systems/rnas/1TN2

>  <Rbt.Executable>
rbdock ($Id: //depot/dev/client3/rdock/2013.1/src/exe/rbdock.cxx#4 $)

>  <Rbt.Library>
libRbt.so (2013.1, Build901 2013/11/27)

>  <Rbt.Parameter_File>
/export/apps/rDock/src/rDock_2013.1_src/data/scripts/dock_solv.prm

>  <Rbt.Receptor>
prm/blind_docking_80.prm

>  <SCORE>
-10.7936

>  <SCORE.INTER>
-6.82972

>  <SCORE.INTER.CONST>
1

>  <SCORE.INTER.POLAR>
0

>  <SCORE.INTER.ROT>
11

>  <SCORE.INTER.SOLV>
9.55595

>  <SCORE.INTER.VDW>
-18.6718

>  <SCORE.INTER.norm>
-0.487837

>  <SCORE.INTRA>
-3.96389

>  <SCORE.INTRA.DIHEDRAL>
-6.83193

>  <SCORE.INTRA.DIHEDRAL.0>
7.79482

>  <SCORE.INTRA.POLAR>
0

>  <SCORE.INTRA.POLAR.0>
0

>  <SCORE.INTRA.REPUL>
0

>  <SCORE.INTRA.REPUL.0>
0

>  <SCORE.INTRA.SOLV>
0.592161

>  <SCORE.INTRA.SOLV.lig_0>
-49.456

>  <SCORE.INTRA.VDW>
-0.84401

>  <SCORE.INTRA.VDW.0>
-0.478406

>  <SCORE.INTRA.norm>
-0.283135

>  <SCORE.RESTR>
0

>  <SCORE.RESTR.CAVITY>
0

>  <SCORE.RESTR.norm>
0

>  <SCORE.SYSTEM>
0

>  <SCORE.SYSTEM.CONST>
0

>  <SCORE.SYSTEM.DIHEDRAL>
0

>  <SCORE.SYSTEM.SOLV>
0

>  <SCORE.SYSTEM.norm>
0

>  <SCORE.heavy>
14

>  <SCORE.norm>
-0.770972

>  <RMSD>
3.175

$$$$
ligand
 OpenBabel11021811413D
libRbt.so/2013.1/901 2013/11/27
 14 13  0  0  0  0  0  0  0  0999 V2000
   45.9809    0.4913   14.4468 N   0  0  0  0  0  0  0  0  0  0  0  0
   44.8830   -0.0965   15.2445 C   0  0  0  0  0  0  0  0  0  0  0  0
   45.1388    0.0750   16.7575 C   0  0  0  0  0  0  0  0  0  0  0  0
   45.1549    1.5340   17.2423 C   0  0  0  0  0  0  0  0  0  0  0  0
   45.3852    1.6064   18.7114 N   0  0  0  0  0  0  0  0  0  0  0  0
   45.0185    2.9521   19.2228 C   0  0  0  0  0  0  0  0  0  0  0  0
   46.2157    3.9291   19.4761 C   0  0  0  0  0  0  0  0  0  0  0  0
   45.9582    4.9704   20.6030 C   0  0  0  0  0  0  0  0  0  0  0  0
   44.9884    6.0695   20.2155 C   0  0  0  0  0  0  0  0  0  0  0  0
   45.6917    6.9874   19.3396 N   0  0  0  0  0  0  0  0  0  0  0  0
   46.2213    8.0313   20.1995 C   0  0  0  0  0  0  0  0  0  0  0  0
   46.4593    9.3232   19.4265 C   0  0  0  0  0  0  0  0  0  0  0  0
   47.5916    9.0618   18.4217 C   0  0  0  0  0  0  0  0  0  0  0  0
   47.1510    8.2286   17.2928 N   0  0  0  0  0  0  0  0  0  0  0  0
  1  2  1  0  0  0  0
  2  3  1  0  0  0  0
  3  4  1  0  0  0  0
  4  5  1  0  0  0  0
  5  6  1  0  0  0  0
  6  7  1  0  0  0  0
  7  8  1  0  0  0  0
  8  9  1  0  0  0  0
  9 10  1  0  0  0  0
 10 11  1  0  0  0  0
 11 12  1  0  0  0  0
 12 13  1  0  0  0  0
 13 14  1  0  0  0  0
M  END
>  <CHROM.1>
64.48256959,179.08802136,-163.89963139,-100.82163430,-151.00946016,-73.00872637
-75.56493187,-93.34485230,-156.04577069,-66.65774947,73.41221282,45.84551858
4.51176750,18.32893133,-2.02368181,1.22129709,0.79909019

>  <Name>
ligand

>  <RI>
0

>  <Rbt.Current_Directory>
/home/itssahil/PROJECTS/Mol_Feturizer/New_Systems/rnas/1TN2

>  <Rbt.Executable>
rbdock ($Id: //depot/dev/client3/rdock/2013.1/src/exe/rbdock.cxx#4 $)

>  <Rbt.Library>
libRbt.so (2013.1, Build901 2013/11/27)

>  <Rbt.Parameter_File>
/export/apps/rDock/src/rDock_2013.1_src/data/scripts/dock_solv.prm

>  <Rbt.Receptor>
prm/pocket_docking_3.prm

>  <SCORE>
-5.34242

>  <SCORE.INTER>
-7.17719

>  <SCORE.INTER.CONST>
1

>  <SCORE.INTER.POLAR>
0

>  <SCORE.INTER.ROT>
11

>  <SCORE.INTER.SOLV>
11.096

>  <SCORE.INTER.VDW>
-19.4168

>  <SCORE.INTER.norm>
-0.512657

>  <SCORE.INTRA>
1.83175

>  <SCORE.INTRA.DIHEDRAL>
-0.492261

>  <SCORE.INTRA.DIHEDRAL.0>
7.79482

>  <SCORE.INTRA.POLAR>
0

>  <SCORE.INTRA.POLAR.0>
0

>  <SCORE.INTRA.REPUL>
0

>  <SCORE.INTRA.REPUL.0>
0

>  <SCORE.INTRA.SOLV>
3.96251

>  <SCORE.INTRA.SOLV.lig_0>
-49.456

>  <SCORE.INTRA.VDW>
0.0966249

>  <SCORE.INTRA.VDW.0>
-0.478406

>  <SCORE.INTRA.norm>
0.130839

>  <SCORE.RESTR>
0.00302078

>  <SCORE.RESTR.CAVITY>
0.00302078

>  <SCORE.RESTR.norm>
0.00021577

>  <SCORE.SYSTEM>
0

>  <SCORE.SYSTEM.CONST>
0

>  <SCORE.SYSTEM.DIHEDRAL>
0

>  <SCORE.SYSTEM.SOLV>
0

>  <SCORE.SYSTEM.norm>
0

>  <SCORE.heavy>
14

>  <SCORE.norm>
-0.381602

>  <RMSD>
3.176

$$$$
ligand
 OpenBabel11021811413D
libRbt.so/2013.1/901 2013/11/27
 14 13  0  0  0  0  0  0  0  0999 V2000
   45.0224    0.0693   17.2958 N   0  0  0  0  0  0  0  0  0  0  0  0
   45.9190    1.1184   17.8276 C   0  0  0  0  0  0  0  0  0  0  0  0
   45.1220    2.2020   18.5856 C   0  0  0  0  0  0  0  0  0  0  0  0
   45.9725    3.3671   19.1177 C   0  0  0  0  0  0  0  0  0  0  0  0
   45.1632    4.2674   19.9842 N   0  0  0  0  0  0  0  0  0  0  0  0
   46.0517    5.1851   20.7426 C   0  0  0  0  0  0  0  0  0  0  0  0
   46.0872    6.6659   20.2346 C   0  0  0  0  0  0  0  0  0  0  0  0
   44.8825    7.5289   20.7083 C   0  0  0  0  0  0  0  0  0  0  0  0
   43.5431    7.0637   20.1713 C   0  0  0  0  0  0  0  0  0  0  0  0
   42.5133    7.8650   20.8051 N   0  0  0  0  0  0  0  0  0  0  0  0
   41.4078    7.9093   19.8639 C   0  0  0  0  0  0  0  0  0  0  0  0
   40.9995    9.3440   19.5504 C   0  0  0  0  0  0  0  0  0  0  0  0
   42.1873   10.0233   18.8521 C   0  0  0  0  0  0  0  0  0  0  0  0
   41.8959   11.4190   18.4921 N   0  0  0  0  0  0  0  0  0  0  0  0
  1  2  1  0  0  0  0
  2  3  1  0  0  0  0
  3  4  1  0  0  0  0
  4  5  1  0  0  0  0
  5  6  1  0  0  0  0
  6  7  1  0  0  0  0
  7  8  1  0  0  0  0
  8  9  1  0  0  0  0
  9 10  1  0  0  0  0
 10 11  1  0  0  0  0
 11 12  1  0  0  0  0
 12 13  1  0  0  0  0
 13 14  1  0  0  0  0
M  END
>  <CHROM.1>
-177.35071396,-172.47719911,166.48903465,105.16488962,80.11236364,-64.36206118
174.00440888,152.02833564,-125.51925805,63.83957518,179.51773145,44.05497337
6.00208128,19.44522546,1.06225063,0.55429075,-2.72063627

>  <Name>
ligand

>  <RI>
0

>  <Rbt.Current_Directory>
/home/itssahil/PROJECTS/Mol_Feturizer/New_Systems/rnas/1TN2

>  <Rbt.Executable>
rbdock ($Id: //depot/dev/client3/rdock/2013.1/src/exe/rbdock.cxx#4 $)

>  <Rbt.Library>
libRbt.so (2013.1, Build901 2013/11/27)

>  <Rbt.Parameter_File>
/export/apps/rDock/src/rDock_2013.1_src/data/scripts/dock_solv.prm

>  <Rbt.Receptor>
prm/pocket_docking_5.prm

>  <SCORE>
-13.1223

>  <SCORE.INTER>
-11.7392

>  <SCORE.INTER.CONST>
1

>  <SCORE.INTER.POLAR>
0

>  <SCORE.INTER.ROT>
11

>  <SCORE.INTER.SOLV>
21.2488

>  <SCORE.INTER.VDW>
-25.8424

>  <SCORE.INTER.norm>
-0.838512

>  <SCORE.INTRA>
-1.38315

>  <SCORE.INTRA.DIHEDRAL>
-3.00863

>  <SCORE.INTRA.DIHEDRAL.0>
7.79482

>  <SCORE.INTRA.POLAR>
0

>  <SCORE.INTRA.POLAR.0>
0

>  <SCORE.INTRA.REPUL>
0

>  <SCORE.INTRA.REPUL.0>
0

>  <SCORE.INTRA.SOLV>
1.26677

>  <SCORE.INTRA.SOLV.lig_0>
-49.456

>  <SCORE.INTRA.VDW>
-0.512222

>  <SCORE.INTRA.VDW.0>
-0.478406

>  <SCORE.INTRA.norm>
-0.0987967

>  <SCORE.RESTR>
0

>  <SCORE.RESTR.CAVITY>
0

>  <SCORE.RESTR.norm>
0

>  <SCORE.SYSTEM>
0

>  <SCORE.SYSTEM.CONST>
0

>  <SCORE.SYSTEM.DIHEDRAL>
0

>  <SCORE.SYSTEM.SOLV>
0

>  <SCORE.SYSTEM.norm>
0

>  <SCORE.heavy>
14

>  <SCORE.norm>
-0.937309

>  <RMSD>
3.180

$$$$
ligand
 OpenBabel11021811413D
libRbt.so/2013.1/901 2013/11/27
 14 13  0  0  0  0  0  0  0  0999 V2000
   45.7463   -2.1073   16.5060 N   0  0  0  0  0  0  0  0  0  0  0  0
   45.8760   -0.9962   15.5387 C   0  0  0  0  0  0  0  0  0  0  0  0
   44.7006   -0.0035   15.6682 C   0  0  0  0  0  0  0  0  0  0  0  0
   44.6523    0.7606   17.0016 C   0  0  0  0  0  0  0  0  0  0  0  0
   45.8468    1.6348   17.1601 N   0  0  0  0  0  0  0  0  0  0  0  0
   45.8759    2.2220   18.5243 C   0  0  0  0  0  0  0  0  0  0  0  0
   46.0987    3.7706   18.5899 C   0  0  0  0  0  0  0  0  0  0  0  0
   46.0044    4.3656   20.0243 C   0  0  0  0  0  0  0  0  0  0  0  0
   46.2761    5.8558   20.0917 C   0  0  0  0  0  0  0  0  0  0  0  0
   45.3760    6.5090   19.1603 N   0  0  0  0  0  0  0  0  0  0  0  0
   45.8541    7.8750   19.0364 C   0  0  0  0  0  0  0  0  0  0  0  0
   46.8621    8.0123   17.9013 C   0  0  0  0  0  0  0  0  0  0  0  0
   47.3216    9.4776   17.8625 C   0  0  0  0  0  0  0  0  0  0  0  0
   48.1924    9.7565   16.7107 N   0  0  0  0  0  0  0  0  0  0  0  0
  1  2  1  0  0  0  0
  2  3  1  0  0  0  0
  3  4  1  0  0  0  0
  4  5  1  0  0  0  0
  5  6  1  0  0  0  0
  6  7  1  0  0  0  0
  7  8  1  0  0  0  0
  8  9  1  0  0  0  0
  9 10  1  0  0  0  0
 10 11  1  0  0  0  0
 11 12  1  0  0  0  0
 12 13  1  0  0  0  0
 13 14  1  0  0  0  0
M  END
>  <CHROM.1>
65.83698772,63.87155373,-172.40839548,-130.53911610,175.13993586,177.65312960
54.55604439,-167.97937002,90.52257139,-179.21226484,-173.96676668,46.04871234
4.08096778,17.84132374,-2.07523140,1.22712977,0.68203495

>  <Name>
ligand

>  <RI>
0

>  <Rbt.Current_Directory>
/home/itssahil/PROJECTS/Mol_Feturizer/New_Systems/rnas/1TN2

>  <Rbt.Executable>
rbdock ($Id: //depot/dev/client3/rdock/2013.1/src/exe/rbdock.cxx#4 $)

>  <Rbt.Library>
libRbt.so (2013.1, Build901 2013/11/27)

>  <Rbt.Parameter_File>
/export/apps/rDock/src/rDock_2013.1_src/data/scripts/dock_solv.prm

>  <Rbt.Receptor>
prm/pocket_docking_2.prm

>  <SCORE>
-4.8263

>  <SCORE.INTER>
-3.5324

>  <SCORE.INTER.CONST>
1

>  <SCORE.INTER.POLAR>
0

>  <SCORE.INTER.ROT>
11

>  <SCORE.INTER.SOLV>
16.2538

>  <SCORE.INTER.VDW>
-18.7062

>  <SCORE.INTER.norm>
-0.252314

>  <SCORE.INTRA>
-1.8366

>  <SCORE.INTRA.DIHEDRAL>
-5.35905

>  <SCORE.INTRA.DIHEDRAL.0>
7.79482

>  <SCORE.INTRA.POLAR>
0

>  <SCORE.INTRA.POLAR.0>
0

>  <SCORE.INTRA.REPUL>
0

>  <SCORE.INTRA.REPUL.0>
0

>  <SCORE.INTRA.SOLV>
2.00715

>  <SCORE.INTRA.SOLV.lig_0>
-49.456

>  <SCORE.INTRA.VDW>
-0.160643

>  <SCORE.INTRA.VDW.0>
-0.478406

>  <SCORE.INTRA.norm>
-0.131185

>  <SCORE.RESTR>
0.542695

>  <SCORE.RESTR.CAVITY>
0.542695

>  <SCORE.RESTR.norm>
0.0387639

>  <SCORE.SYSTEM>
0

>  <SCORE.SYSTEM.CONST>
0

>  <SCORE.SYSTEM.DIHEDRAL>
0

>  <SCORE.SYSTEM.SOLV>
0

>  <SCORE.SYSTEM.norm>
0

>  <SCORE.heavy>
14

>  <SCORE.norm>
-0.344736

>  <RMSD>
3.181

$$$$
ligand
 OpenBabel11021811413D
libRbt.so/2013.1/901 2013/11/27
 14 13  0  0  0  0  0  0  0  0999 V2000
   45.8183   13.3396   16.5804 N   0  0  0  0  0  0  0  0  0  0  0  0
   44.6112   12.7263   15.9856 C   0  0  0  0  0  0  0  0  0  0  0  0
   44.5796   11.2026   16.2334 C   0  0  0  0  0  0  0  0  0  0  0  0
   44.3494   10.7972   17.6985 C   0  0  0  0  0  0  0  0  0  0  0  0
   45.5034   11.1952   18.5508 N   0  0  0  0  0  0  0  0  0  0  0  0
   46.5196   10.1120   18.5776 C   0  0  0  0  0  0  0  0  0  0  0  0
   46.3508    9.0539   19.7195 C   0  0  0  0  0  0  0  0  0  0  0  0
   45.0074    8.2711   19.6665 C   0  0  0  0  0  0  0  0  0  0  0  0
   44.8915    7.1761   20.7088 C   0  0  0  0  0  0  0  0  0  0  0  0
   45.9143    6.1877   20.4234 N   0  0  0  0  0  0  0  0  0  0  0  0
   45.4296    4.9394   20.9859 C   0  0  0  0  0  0  0  0  0  0  0  0
   44.9228    3.9979   19.8997 C   0  0  0  0  0  0  0  0  0  0  0  0
   46.1321    3.5693   19.0548 C   0  0  0  0  0  0  0  0  0  0  0  0
   45.7590    2.6284   17.9880 N   0  0  0  0  0  0  0  0  0  0  0  0
  1  2  1  0  0  0  0
  2  3  1  0  0  0  0
  3  4  1  0  0  0  0
  4  5  1  0  0  0  0
  5  6  1  0  0  0  0
  6  7  1  0  0  0  0
  7  8  1  0  0  0  0
  8  9  1  0  0  0  0
  9 10  1  0  0  0  0
 10 11  1  0  0  0  0
 11 12  1  0  0  0  0
 12 13  1  0  0  0  0
 13 14  1  0  0  0  0
M  END
>  <CHROM.1>
69.12978253,-66.58922006,-88.88579887,-90.26696049,60.86504624,175.61380726
-63.96682379,-154.81542382,104.65264720,66.99787304,178.69451472,45.41335672
8.22829887,18.71962913,1.96133477,-1.44391731,0.05966075

>  <Name>
ligand

>  <RI>
0

>  <Rbt.Current_Directory>
/home/itssahil/PROJECTS/Mol_Feturizer/New_Systems/rnas/1TN2

>  <Rbt.Executable>
rbdock ($Id: //depot/dev/client3/rdock/2013.1/src/exe/rbdock.cxx#4 $)

>  <Rbt.Library>
libRbt.so (2013.1, Build901 2013/11/27)

>  <Rbt.Parameter_File>
/export/apps/rDock/src/rDock_2013.1_src/data/scripts/dock_solv.prm

>  <Rbt.Receptor>
prm/pocket_docking_7.prm

>  <SCORE>
-4.76403

>  <SCORE.INTER>
-4.52436

>  <SCORE.INTER.CONST>
1

>  <SCORE.INTER.POLAR>
0

>  <SCORE.INTER.ROT>
11

>  <SCORE.INTER.SOLV>
9.6719

>  <SCORE.INTER.VDW>
-17.1735

>  <SCORE.INTER.norm>
-0.323168

>  <SCORE.INTRA>
-0.239672

>  <SCORE.INTRA.DIHEDRAL>
-4.35044

>  <SCORE.INTRA.DIHEDRAL.0>
7.79482

>  <SCORE.INTRA.POLAR>
0

>  <SCORE.INTRA.POLAR.0>
0

>  <SCORE.INTRA.REPUL>
0

>  <SCORE.INTRA.REPUL.0>
0

>  <SCORE.INTRA.SOLV>
4.12263

>  <SCORE.INTRA.SOLV.lig_0>
-49.456

>  <SCORE.INTRA.VDW>
-0.125771

>  <SCORE.INTRA.VDW.0>
-0.478406

>  <SCORE.INTRA.norm>
-0.0171194

>  <SCORE.RESTR>
0

>  <SCORE.RESTR.CAVITY>
0

>  <SCORE.RESTR.norm>
0

>  <SCORE.SYSTEM>
0

>  <SCORE.SYSTEM.CONST>
0

>  <SCORE.SYSTEM.DIHEDRAL>
0

>  <SCORE.SYSTEM.SOLV>
0

>  <SCORE.SYSTEM.norm>
0

>  <SCORE.heavy>
14

>  <SCORE.norm>
-0.340288

>  <RMSD>
3.182

$$$$
ligand
 OpenBabel11021811413D
libRbt.so/2013.1/901 2013/11/27
 14 13  0  0  0  0  0  0  0  0999 V2000
   42.1372   10.3010   18.5855 N   0  0  0  0  0  0  0  0  0  0  0  0
   42.7863    9.3031   19.4629 C   0  0  0  0  0  0  0  0  0  0  0  0
   41.8468    8.1099   19.7415 C   0  0  0  0  0  0  0  0  0  0  0  0
   42.3968    7.0831   20.7450 C   0  0  0  0  0  0  0  0  0  0  0  0
   43.6972    6.5261   20.2811 N   0  0  0  0  0  0  0  0  0  0  0  0
   44.1714    5.4781   21.2211 C   0  0  0  0  0  0  0  0  0  0  0  0
   45.6618    5.0323   21.0416 C   0  0  0  0  0  0  0  0  0  0  0  0
   45.9940    4.4821   19.6248 C   0  0  0  0  0  0  0  0  0  0  0  0
   45.2331    3.2225   19.2597 C   0  0  0  0  0  0  0  0  0  0  0  0
   45.6231    2.8482   17.9136 N   0  0  0  0  0  0  0  0  0  0  0  0
   45.5167    1.4007   17.8564 C   0  0  0  0  0  0  0  0  0  0  0  0
   45.5162    0.8980   16.4174 C   0  0  0  0  0  0  0  0  0  0  0  0
   45.4629   -0.6366   16.4613 C   0  0  0  0  0  0  0  0  0  0  0  0
   45.4202   -1.2297   15.1162 N   0  0  0  0  0  0  0  0  0  0  0  0
  1  2  1  0  0  0  0
  2  3  1  0  0  0  0
  3  4  1  0  0  0  0
  4  5  1  0  0  0  0
  5  6  1  0  0  0  0
  6  7  1  0  0  0  0
  7  8  1  0  0  0  0
  8  9  1  0  0  0  0
  9 10  1  0  0  0  0
 10 11  1  0  0  0  0
 11 12  1  0  0  0  0
 12 13  1  0  0  0  0
 13 14  1  0  0  0  0
M  END
>  <CHROM.1>
-174.92792116,-58.13850182,-176.59477991,-166.88871087,-58.10356352,-62.95773964
178.84598328,149.67634097,164.09920027,177.56674284,178.40156350,44.39033722
4.48701225,18.83808347,2.13409470,-0.95495897,0.85907989

>  <Name>
ligand

>  <RI>
0

>  <Rbt.Current_Directory>
/home/itssahil/PROJECTS/Mol_Feturizer/New_Systems/rnas/1TN2

>  <Rbt.Executable>
rbdock ($Id: //depot/dev/client3/rdock/2013.1/src/exe/rbdock.cxx#4 $)

>  <Rbt.Library>
libRbt.so (2013.1, Build901 2013/11/27)

>  <Rbt.Parameter_File>
/export/apps/rDock/src/rDock_2013.1_src/data/scripts/dock_solv.prm

>  <Rbt.Receptor>
prm/blind_docking_60.prm

>  <SCORE>
-12.9542

>  <SCORE.INTER>
-9.62811

>  <SCORE.INTER.CONST>
1

>  <SCORE.INTER.POLAR>
0

>  <SCORE.INTER.ROT>
11

>  <SCORE.INTER.SOLV>
18.0591

>  <SCORE.INTER.VDW>
-23.3718

>  <SCORE.INTER.norm>
-0.687722

>  <SCORE.INTRA>
-3.3261

>  <SCORE.INTRA.DIHEDRAL>
-6.64586

>  <SCORE.INTRA.DIHEDRAL.0>
7.79482

>  <SCORE.INTRA.POLAR>
0

>  <SCORE.INTRA.POLAR.0>
0

>  <SCORE.INTRA.REPUL>
0

>  <SCORE.INTRA.REPUL.0>
0

>  <SCORE.INTRA.SOLV>
0.990462

>  <SCORE.INTRA.SOLV.lig_0>
-49.456

>  <SCORE.INTRA.VDW>
-0.498397

>  <SCORE.INTRA.VDW.0>
-0.478406

>  <SCORE.INTRA.norm>
-0.237578

>  <SCORE.RESTR>
0

>  <SCORE.RESTR.CAVITY>
0

>  <SCORE.RESTR.norm>
0

>  <SCORE.SYSTEM>
0

>  <SCORE.SYSTEM.CONST>
0

>  <SCORE.SYSTEM.DIHEDRAL>
0

>  <SCORE.SYSTEM.SOLV>
0

>  <SCORE.SYSTEM.norm>
0

>  <SCORE.heavy>
14

>  <SCORE.norm>
-0.925301

>  <RMSD>
3.186

$$$$
ligand
 OpenBabel11021811413D
libRbt.so/2013.1/901 2013/11/27
 14 13  0  0  0  0  0  0  0  0999 V2000
   45.5846   -0.0041   15.3327 N   0  0  0  0  0  0  0  0  0  0  0  0
   44.7204    1.0092   15.9758 C   0  0  0  0  0  0  0  0  0  0  0  0
   44.6406    0.7872   17.5017 C   0  0  0  0  0  0  0  0  0  0  0  0
   45.9535    1.0528   18.2565 C   0  0  0  0  0  0  0  0  0  0  0  0
   46.3479    2.4847   18.1552 N   0  0  0  0  0  0  0  0  0  0  0  0
   45.5846    3.2982   19.1363 C   0  0  0  0  0  0  0  0  0  0  0  0
   46.1160    4.7528   19.3683 C   0  0  0  0  0  0  0  0  0  0  0  0
   45.2396    5.6029   20.3325 C   0  0  0  0  0  0  0  0  0  0  0  0
   45.7334    7.0238   20.5218 C   0  0  0  0  0  0  0  0  0  0  0  0
   45.7139    7.6723   19.2243 N   0  0  0  0  0  0  0  0  0  0  0  0
   47.0527    8.1980   19.0219 C   0  0  0  0  0  0  0  0  0  0  0  0
   47.2589    8.6604   17.5842 C   0  0  0  0  0  0  0  0  0  0  0  0
   48.7196    9.1160   17.4475 C   0  0  0  0  0  0  0  0  0  0  0  0
   49.0141    9.6422   16.1062 N   0  0  0  0  0  0  0  0  0  0  0  0
  1  2  1  0  0  0  0
  2  3  1  0  0  0  0
  3  4  1  0  0  0  0
  4  5  1  0  0  0  0
  5  6  1  0  0  0  0
  6  7  1  0  0  0  0
  7  8  1  0  0  0  0
  8  9  1  0  0  0  0
  9 10  1  0  0  0  0
 10 11  1  0  0  0  0
 11 12  1  0  0  0  0
 12 13  1  0  0  0  0
 13 14  1  0  0  0  0
M  END
>  <CHROM.1>
68.00766982,64.25132709,80.53936206,166.82687864,176.30772755,-178.23876519
60.75922488,-126.02283227,168.53225131,-176.59432126,-177.43607299,46.26268294
4.94973561,18.14072184,-2.15611268,1.04478356,0.65319021

>  <Name>
ligand

>  <RI>
0

>  <Rbt.Current_Directory>
/home/itssahil/PROJECTS/Mol_Feturizer/New_Systems/rnas/1TN2

>  <Rbt.Executable>
rbdock ($Id: //depot/dev/client3/rdock/2013.1/src/exe/rbdock.cxx#4 $)

>  <Rbt.Library>
libRbt.so (2013.1, Build901 2013/11/27)

>  <Rbt.Parameter_File>
/export/apps/rDock/src/rDock_2013.1_src/data/scripts/dock_solv.prm

>  <Rbt.Receptor>
prm/pocket_docking_5.prm

>  <SCORE>
-8.8147

>  <SCORE.INTER>
-6.65652

>  <SCORE.INTER.CONST>
1

>  <SCORE.INTER.POLAR>
0

>  <SCORE.INTER.ROT>
11

>  <SCORE.INTER.SOLV>
9.85935

>  <SCORE.INTER.VDW>
-18.6575

>  <SCORE.INTER.norm>
-0.475466

>  <SCORE.INTRA>
-2.15818

>  <SCORE.INTRA.DIHEDRAL>
-5.62515

>  <SCORE.INTRA.DIHEDRAL.0>
7.79482

>  <SCORE.INTRA.POLAR>
0

>  <SCORE.INTRA.POLAR.0>
0

>  <SCORE.INTRA.REPUL>
0

>  <SCORE.INTRA.REPUL.0>
0

>  <SCORE.INTRA.SOLV>
1.91902

>  <SCORE.INTRA.SOLV.lig_0>
-49.456

>  <SCORE.INTRA.VDW>
-0.305114

>  <SCORE.INTRA.VDW.0>
-0.478406

>  <SCORE.INTRA.norm>
-0.154156

>  <SCORE.RESTR>
0

>  <SCORE.RESTR.CAVITY>
0

>  <SCORE.RESTR.norm>
0

>  <SCORE.SYSTEM>
0

>  <SCORE.SYSTEM.CONST>
0

>  <SCORE.SYSTEM.DIHEDRAL>
0

>  <SCORE.SYSTEM.SOLV>
0

>  <SCORE.SYSTEM.norm>
0

>  <SCORE.heavy>
14

>  <SCORE.norm>
-0.629622

>  <RMSD>
3.186

$$$$
ligand
 OpenBabel11021811413D
libRbt.so/2013.1/901 2013/11/27
 14 13  0  0  0  0  0  0  0  0999 V2000
   45.7749   -2.1029   13.4447 N   0  0  0  0  0  0  0  0  0  0  0  0
   45.0566   -1.8010   14.7018 C   0  0  0  0  0  0  0  0  0  0  0  0
   45.9446   -0.9913   15.6712 C   0  0  0  0  0  0  0  0  0  0  0  0
   45.2293   -0.5118   16.9450 C   0  0  0  0  0  0  0  0  0  0  0  0
   46.1275    0.3373   17.7748 N   0  0  0  0  0  0  0  0  0  0  0  0
   45.8272    1.7747   17.5501 C   0  0  0  0  0  0  0  0  0  0  0  0
   46.2576    2.7441   18.7022 C   0  0  0  0  0  0  0  0  0  0  0  0
   45.9211    4.2390   18.4333 C   0  0  0  0  0  0  0  0  0  0  0  0
   46.2302    5.1587   19.5984 C   0  0  0  0  0  0  0  0  0  0  0  0
   45.9388    6.5157   19.1764 N   0  0  0  0  0  0  0  0  0  0  0  0
   46.2395    7.3610   20.3186 C   0  0  0  0  0  0  0  0  0  0  0  0
   46.5065    8.7999   19.8926 C   0  0  0  0  0  0  0  0  0  0  0  0
   45.2569    9.3060   19.1562 C   0  0  0  0  0  0  0  0  0  0  0  0
   45.4512   10.6498   18.5912 N   0  0  0  0  0  0  0  0  0  0  0  0
  1  2  1  0  0  0  0
  2  3  1  0  0  0  0
  3  4  1  0  0  0  0
  4  5  1  0  0  0  0
  5  6  1  0  0  0  0
  6  7  1  0  0  0  0
  7  8  1  0  0  0  0
  8  9  1  0  0  0  0
  9 10  1  0  0  0  0
 10 11  1  0  0  0  0
 11 12  1  0  0  0  0
 12 13  1  0  0  0  0
 13 14  1  0  0  0  0
M  END
>  <CHROM.1>
174.10562374,-176.05244491,99.62927958,157.11527895,-179.74323620,175.03622388
176.81974816,179.67767315,157.83992220,58.43622067,-174.77698008,45.84013664
3.67703081,17.85426765,1.67182183,1.32769262,-2.85286017

>  <Name>
ligand

>  <RI>
0

>  <Rbt.Current_Directory>
/home/itssahil/PROJECTS/Mol_Feturizer/New_Systems/rnas/1TN2

>  <Rbt.Executable>
rbdock ($Id: //depot/dev/client3/rdock/2013.1/src/exe/rbdock.cxx#4 $)

>  <Rbt.Library>
libRbt.so (2013.1, Build901 2013/11/27)

>  <Rbt.Parameter_File>
/export/apps/rDock/src/rDock_2013.1_src/data/scripts/dock_solv.prm

>  <Rbt.Receptor>
prm/pocket_docking_4.prm

>  <SCORE>
-9.22295

>  <SCORE.INTER>
-6.24311

>  <SCORE.INTER.CONST>
1

>  <SCORE.INTER.POLAR>
0

>  <SCORE.INTER.ROT>
11

>  <SCORE.INTER.SOLV>
12.9187

>  <SCORE.INTER.VDW>
-19.4016

>  <SCORE.INTER.norm>
-0.445937

>  <SCORE.INTRA>
-2.97984

>  <SCORE.INTRA.DIHEDRAL>
-5.72055

>  <SCORE.INTRA.DIHEDRAL.0>
7.79482

>  <SCORE.INTRA.POLAR>
0

>  <SCORE.INTRA.POLAR.0>
0

>  <SCORE.INTRA.REPUL>
0

>  <SCORE.INTRA.REPUL.0>
0

>  <SCORE.INTRA.SOLV>
0.504562

>  <SCORE.INTRA.SOLV.lig_0>
-49.456

>  <SCORE.INTRA.VDW>
-0.371849

>  <SCORE.INTRA.VDW.0>
-0.478406

>  <SCORE.INTRA.norm>
-0.212846

>  <SCORE.RESTR>
0

>  <SCORE.RESTR.CAVITY>
0

>  <SCORE.RESTR.norm>
0

>  <SCORE.SYSTEM>
0

>  <SCORE.SYSTEM.CONST>
0

>  <SCORE.SYSTEM.DIHEDRAL>
0

>  <SCORE.SYSTEM.SOLV>
0

>  <SCORE.SYSTEM.norm>
0

>  <SCORE.heavy>
14

>  <SCORE.norm>
-0.658782

>  <RMSD>
3.194

$$$$
ligand
 OpenBabel11021811413D
libRbt.so/2013.1/901 2013/11/27
 14 13  0  0  0  0  0  0  0  0999 V2000
   43.5152   11.3346   16.6467 N   0  0  0  0  0  0  0  0  0  0  0  0
   42.2832   12.0640   17.0173 C   0  0  0  0  0  0  0  0  0  0  0  0
   41.9416   11.8604   18.5092 C   0  0  0  0  0  0  0  0  0  0  0  0
   41.5157   10.4300   18.8787 C   0  0  0  0  0  0  0  0  0  0  0  0
   42.6407    9.4728   18.6933 N   0  0  0  0  0  0  0  0  0  0  0  0
   42.8128    8.6405   19.9117 C   0  0  0  0  0  0  0  0  0  0  0  0
   43.9367    7.5528   19.8350 C   0  0  0  0  0  0  0  0  0  0  0  0
   44.1178    6.7333   21.1450 C   0  0  0  0  0  0  0  0  0  0  0  0
   45.1057    5.5895   21.0239 C   0  0  0  0  0  0  0  0  0  0  0  0
   44.5570    4.6329   20.0816 N   0  0  0  0  0  0  0  0  0  0  0  0
   45.6870    3.8618   19.5936 C   0  0  0  0  0  0  0  0  0  0  0  0
   45.3064    3.0211   18.3805 C   0  0  0  0  0  0  0  0  0  0  0  0
   46.5213    2.1545   18.0160 C   0  0  0  0  0  0  0  0  0  0  0  0
   46.2968    1.3695   16.7928 N   0  0  0  0  0  0  0  0  0  0  0  0
  1  2  1  0  0  0  0
  2  3  1  0  0  0  0
  3  4  1  0  0  0  0
  4  5  1  0  0  0  0
  5  6  1  0  0  0  0
  6  7  1  0  0  0  0
  7  8  1  0  0  0  0
  8  9  1  0  0  0  0
  9 10  1  0  0  0  0
 10 11  1  0  0  0  0
 11 12  1  0  0  0  0
 12 13  1  0  0  0  0
 13 14  1  0  0  0  0
M  END
>  <CHROM.1>
-67.94814432,65.48338664,129.93332087,178.03478990,178.10115621,174.08105377
-65.10745611,158.24206880,-167.83967730,-175.10420748,-175.85632447,44.01687909
7.05138810,18.89500434,-2.80205637,-1.14759880,1.88336830

>  <Name>
ligand

>  <RI>
0

>  <Rbt.Current_Directory>
/home/itssahil/PROJECTS/Mol_Feturizer/New_Systems/rnas/1TN2

>  <Rbt.Executable>
rbdock ($Id: //depot/dev/client3/rdock/2013.1/src/exe/rbdock.cxx#4 $)

>  <Rbt.Library>
libRbt.so (2013.1, Build901 2013/11/27)

>  <Rbt.Parameter_File>
/export/apps/rDock/src/rDock_2013.1_src/data/scripts/dock_solv.prm

>  <Rbt.Receptor>
prm/blind_docking_100.prm

>  <SCORE>
-11.7388

>  <SCORE.INTER>
-9.75059

>  <SCORE.INTER.CONST>
1

>  <SCORE.INTER.POLAR>
0

>  <SCORE.INTER.ROT>
11

>  <SCORE.INTER.SOLV>
16.0987

>  <SCORE.INTER.VDW>
-22.8

>  <SCORE.INTER.norm>
-0.696471

>  <SCORE.INTRA>
-1.98817

>  <SCORE.INTRA.DIHEDRAL>
-5.44343

>  <SCORE.INTRA.DIHEDRAL.0>
7.79482

>  <SCORE.INTRA.POLAR>
0

>  <SCORE.INTRA.POLAR.0>
0

>  <SCORE.INTRA.REPUL>
0

>  <SCORE.INTRA.REPUL.0>
0

>  <SCORE.INTRA.SOLV>
3.15215

>  <SCORE.INTRA.SOLV.lig_0>
-49.456

>  <SCORE.INTRA.VDW>
-0.842527

>  <SCORE.INTRA.VDW.0>
-0.478406

>  <SCORE.INTRA.norm>
-0.142012

>  <SCORE.RESTR>
0

>  <SCORE.RESTR.CAVITY>
0

>  <SCORE.RESTR.norm>
0

>  <SCORE.SYSTEM>
0

>  <SCORE.SYSTEM.CONST>
0

>  <SCORE.SYSTEM.DIHEDRAL>
0

>  <SCORE.SYSTEM.SOLV>
0

>  <SCORE.SYSTEM.norm>
0

>  <SCORE.heavy>
14

>  <SCORE.norm>
-0.838483

>  <RMSD>
3.199

$$$$
ligand
 OpenBabel11021811413D
libRbt.so/2013.1/901 2013/11/27
 14 13  0  0  0  0  0  0  0  0999 V2000
   44.8978   -0.9556   14.3183 N   0  0  0  0  0  0  0  0  0  0  0  0
   46.0270   -1.2024   15.2409 C   0  0  0  0  0  0  0  0  0  0  0  0
   45.5983   -1.0102   16.7116 C   0  0  0  0  0  0  0  0  0  0  0  0
   45.1344    0.4132   17.0621 C   0  0  0  0  0  0  0  0  0  0  0  0
   46.2302    1.3991   16.8531 N   0  0  0  0  0  0  0  0  0  0  0  0
   46.5287    2.1115   18.1220 C   0  0  0  0  0  0  0  0  0  0  0  0
   45.5938    3.3231   18.4539 C   0  0  0  0  0  0  0  0  0  0  0  0
   46.0971    4.2105   19.6285 C   0  0  0  0  0  0  0  0  0  0  0  0
   45.1954    5.3890   19.9398 C   0  0  0  0  0  0  0  0  0  0  0  0
   45.9017    6.2489   20.8704 N   0  0  0  0  0  0  0  0  0  0  0  0
   45.5345    7.6081   20.5136 C   0  0  0  0  0  0  0  0  0  0  0  0
   46.6673    8.3177   19.7811 C   0  0  0  0  0  0  0  0  0  0  0  0
   46.2452    9.7809   19.5787 C   0  0  0  0  0  0  0  0  0  0  0  0
   45.1141    9.9090   18.6476 N   0  0  0  0  0  0  0  0  0  0  0  0
  1  2  1  0  0  0  0
  2  3  1  0  0  0  0
  3  4  1  0  0  0  0
  4  5  1  0  0  0  0
  5  6  1  0  0  0  0
  6  7  1  0  0  0  0
  7  8  1  0  0  0  0
  8  9  1  0  0  0  0
  9 10  1  0  0  0  0
 10 11  1  0  0  0  0
 11 12  1  0  0  0  0
 12 13  1  0  0  0  0
 13 14  1  0  0  0  0
M  END
>  <CHROM.1>
-62.37850940,-61.49361062,-121.22000666,-82.79346598,-168.61554400,179.52711932
-169.72950628,144.30076704,-104.83487749,-174.15841867,-67.26840864,45.76905249
3.96727069,18.26607177,1.75029902,1.42509081,-2.90744079

>  <Name>
ligand

>  <RI>
0

>  <Rbt.Current_Directory>
/home/itssahil/PROJECTS/Mol_Feturizer/New_Systems/rnas/1TN2

>  <Rbt.Executable>
rbdock ($Id: //depot/dev/client3/rdock/2013.1/src/exe/rbdock.cxx#4 $)

>  <Rbt.Library>
libRbt.so (2013.1, Build901 2013/11/27)

>  <Rbt.Parameter_File>
/export/apps/rDock/src/rDock_2013.1_src/data/scripts/dock_solv.prm

>  <Rbt.Receptor>
prm/pocket_docking_7.prm

>  <SCORE>
-8.97198

>  <SCORE.INTER>
-8.30381

>  <SCORE.INTER.CONST>
1

>  <SCORE.INTER.POLAR>
0

>  <SCORE.INTER.ROT>
11

>  <SCORE.INTER.SOLV>
13.6198

>  <SCORE.INTER.VDW>
-21.0091

>  <SCORE.INTER.norm>
-0.593129

>  <SCORE.INTRA>
-0.668171

>  <SCORE.INTRA.DIHEDRAL>
-3.19825

>  <SCORE.INTRA.DIHEDRAL.0>
7.79482

>  <SCORE.INTRA.POLAR>
0

>  <SCORE.INTRA.POLAR.0>
0

>  <SCORE.INTRA.REPUL>
0

>  <SCORE.INTRA.REPUL.0>
0

>  <SCORE.INTRA.SOLV>
2.43887

>  <SCORE.INTRA.SOLV.lig_0>
-49.456

>  <SCORE.INTRA.VDW>
-0.288478

>  <SCORE.INTRA.VDW.0>
-0.478406

>  <SCORE.INTRA.norm>
-0.0477265

>  <SCORE.RESTR>
0

>  <SCORE.RESTR.CAVITY>
0

>  <SCORE.RESTR.norm>
0

>  <SCORE.SYSTEM>
0

>  <SCORE.SYSTEM.CONST>
0

>  <SCORE.SYSTEM.DIHEDRAL>
0

>  <SCORE.SYSTEM.SOLV>
0

>  <SCORE.SYSTEM.norm>
0

>  <SCORE.heavy>
14

>  <SCORE.norm>
-0.640856

>  <RMSD>
3.205

$$$$
ligand
 OpenBabel11021811413D
libRbt.so/2013.1/901 2013/11/27
 14 13  0  0  0  0  0  0  0  0999 V2000
   46.3478   10.0527   17.8566 N   0  0  0  0  0  0  0  0  0  0  0  0
   45.7397    9.5318   19.1000 C   0  0  0  0  0  0  0  0  0  0  0  0
   45.4538    8.0185   18.9899 C   0  0  0  0  0  0  0  0  0  0  0  0
   46.7089    7.1353   18.8969 C   0  0  0  0  0  0  0  0  0  0  0  0
   46.3804    5.7978   18.3315 N   0  0  0  0  0  0  0  0  0  0  0  0
   46.2944    4.7883   19.4179 C   0  0  0  0  0  0  0  0  0  0  0  0
   45.1382    3.7414   19.2789 C   0  0  0  0  0  0  0  0  0  0  0  0
   45.1722    2.9301   17.9518 C   0  0  0  0  0  0  0  0  0  0  0  0
   46.2219    1.8363   17.9258 C   0  0  0  0  0  0  0  0  0  0  0  0
   46.0415    1.0832   16.6991 N   0  0  0  0  0  0  0  0  0  0  0  0
   45.0349    0.0783   16.9935 C   0  0  0  0  0  0  0  0  0  0  0  0
   45.5912   -1.3318   16.8334 C   0  0  0  0  0  0  0  0  0  0  0  0
   45.7762   -1.5906   15.3305 C   0  0  0  0  0  0  0  0  0  0  0  0
   47.0049   -0.9743   14.8079 N   0  0  0  0  0  0  0  0  0  0  0  0
  1  2  1  0  0  0  0
  2  3  1  0  0  0  0
  3  4  1  0  0  0  0
  4  5  1  0  0  0  0
  5  6  1  0  0  0  0
  6  7  1  0  0  0  0
  7  8  1  0  0  0  0
  8  9  1  0  0  0  0
  9 10  1  0  0  0  0
 10 11  1  0  0  0  0
 11 12  1  0  0  0  0
 12 13  1  0  0  0  0
 13 14  1  0  0  0  0
M  END
>  <CHROM.1>
66.75586821,-160.31184074,-101.51626108,139.96159589,57.10722430,76.61711969
174.07903096,-85.79887979,-118.22998336,-71.88205115,79.57348093,45.92164753
3.64965130,17.74416324,-1.53484297,-1.16025950,-2.82899882

>  <Name>
ligand

>  <RI>
0

>  <Rbt.Current_Directory>
/home/itssahil/PROJECTS/Mol_Feturizer/New_Systems/rnas/1TN2

>  <Rbt.Executable>
rbdock ($Id: //depot/dev/client3/rdock/2013.1/src/exe/rbdock.cxx#4 $)

>  <Rbt.Library>
libRbt.so (2013.1, Build901 2013/11/27)

>  <Rbt.Parameter_File>
/export/apps/rDock/src/rDock_2013.1_src/data/scripts/dock_solv.prm

>  <Rbt.Receptor>
prm/pocket_docking_2.prm

>  <SCORE>
-0.698648

>  <SCORE.INTER>
-3.95865

>  <SCORE.INTER.CONST>
1

>  <SCORE.INTER.POLAR>
0

>  <SCORE.INTER.ROT>
11

>  <SCORE.INTER.SOLV>
13.4018

>  <SCORE.INTER.VDW>
-18.0397

>  <SCORE.INTER.norm>
-0.28276

>  <SCORE.INTRA>
2.47841

>  <SCORE.INTRA.DIHEDRAL>
0.319317

>  <SCORE.INTRA.DIHEDRAL.0>
7.79482

>  <SCORE.INTRA.POLAR>
0

>  <SCORE.INTRA.POLAR.0>
0

>  <SCORE.INTRA.REPUL>
0

>  <SCORE.INTRA.REPUL.0>
0

>  <SCORE.INTRA.SOLV>
3.97997

>  <SCORE.INTRA.SOLV.lig_0>
-49.456

>  <SCORE.INTRA.VDW>
0.328769

>  <SCORE.INTRA.VDW.0>
-0.478406

>  <SCORE.INTRA.norm>
0.177029

>  <SCORE.RESTR>
0.781588

>  <SCORE.RESTR.CAVITY>
0.781588

>  <SCORE.RESTR.norm>
0.0558277

>  <SCORE.SYSTEM>
0

>  <SCORE.SYSTEM.CONST>
0

>  <SCORE.SYSTEM.DIHEDRAL>
0

>  <SCORE.SYSTEM.SOLV>
0

>  <SCORE.SYSTEM.norm>
0

>  <SCORE.heavy>
14

>  <SCORE.norm>
-0.0499034

>  <RMSD>
3.206

$$$$
ligand
 OpenBabel11021811413D
libRbt.so/2013.1/901 2013/11/27
 14 13  0  0  0  0  0  0  0  0999 V2000
   48.4264    9.2698   16.5322 N   0  0  0  0  0  0  0  0  0  0  0  0
   47.8717    7.9218   16.7821 C   0  0  0  0  0  0  0  0  0  0  0  0
   47.7060    7.6581   18.2944 C   0  0  0  0  0  0  0  0  0  0  0  0
   46.6906    8.5748   18.9962 C   0  0  0  0  0  0  0  0  0  0  0  0
   46.5316    8.1989   20.4279 N   0  0  0  0  0  0  0  0  0  0  0  0
   45.2872    7.4097   20.6163 C   0  0  0  0  0  0  0  0  0  0  0  0
   45.4750    5.8566   20.6862 C   0  0  0  0  0  0  0  0  0  0  0  0
   45.8746    5.2036   19.3318 C   0  0  0  0  0  0  0  0  0  0  0  0
   46.0340    3.6973   19.3980 C   0  0  0  0  0  0  0  0  0  0  0  0
   46.2646    3.2201   18.0477 N   0  0  0  0  0  0  0  0  0  0  0  0
   46.3664    1.7747   18.1483 C   0  0  0  0  0  0  0  0  0  0  0  0
   45.0180    1.1031   17.9160 C   0  0  0  0  0  0  0  0  0  0  0  0
   44.6170    1.3587   16.4553 C   0  0  0  0  0  0  0  0  0  0  0  0
   45.5183    0.6879   15.5063 N   0  0  0  0  0  0  0  0  0  0  0  0
  1  2  1  0  0  0  0
  2  3  1  0  0  0  0
  3  4  1  0  0  0  0
  4  5  1  0  0  0  0
  5  6  1  0  0  0  0
  6  7  1  0  0  0  0
  7  8  1  0  0  0  0
  8  9  1  0  0  0  0
  9 10  1  0  0  0  0
 10 11  1  0  0  0  0
 11 12  1  0  0  0  0
 12 13  1  0  0  0  0
 13 14  1  0  0  0  0
M  END
>  <CHROM.1>
64.19649961,176.51046902,-101.20985607,98.91895667,-70.19091127,-179.07918103
174.08101493,-178.12942083,92.93609810,66.02921033,66.12749308,46.26277483
5.13813497,18.36736641,-1.05685863,-1.07857228,-2.45558000

>  <Name>
ligand

>  <RI>
0

>  <Rbt.Current_Directory>
/home/itssahil/PROJECTS/Mol_Feturizer/New_Systems/rnas/1TN2

>  <Rbt.Executable>
rbdock ($Id: //depot/dev/client3/rdock/2013.1/src/exe/rbdock.cxx#4 $)

>  <Rbt.Library>
libRbt.so (2013.1, Build901 2013/11/27)

>  <Rbt.Parameter_File>
/export/apps/rDock/src/rDock_2013.1_src/data/scripts/dock_solv.prm

>  <Rbt.Receptor>
prm/pocket_docking_4.prm

>  <SCORE>
-7.89537

>  <SCORE.INTER>
-6.88286

>  <SCORE.INTER.CONST>
1

>  <SCORE.INTER.POLAR>
0

>  <SCORE.INTER.ROT>
11

>  <SCORE.INTER.SOLV>
11.5374

>  <SCORE.INTER.VDW>
-19.3677

>  <SCORE.INTER.norm>
-0.491633

>  <SCORE.INTRA>
-1.01251

>  <SCORE.INTRA.DIHEDRAL>
-4.38939

>  <SCORE.INTRA.DIHEDRAL.0>
7.79482

>  <SCORE.INTRA.POLAR>
0

>  <SCORE.INTRA.POLAR.0>
0

>  <SCORE.INTRA.REPUL>
0

>  <SCORE.INTRA.REPUL.0>
0

>  <SCORE.INTRA.SOLV>
2.68491

>  <SCORE.INTRA.SOLV.lig_0>
-49.456

>  <SCORE.INTRA.VDW>
-0.16027

>  <SCORE.INTRA.VDW.0>
-0.478406

>  <SCORE.INTRA.norm>
-0.0723223

>  <SCORE.RESTR>
0

>  <SCORE.RESTR.CAVITY>
0

>  <SCORE.RESTR.norm>
0

>  <SCORE.SYSTEM>
0

>  <SCORE.SYSTEM.CONST>
0

>  <SCORE.SYSTEM.DIHEDRAL>
0

>  <SCORE.SYSTEM.SOLV>
0

>  <SCORE.SYSTEM.norm>
0

>  <SCORE.heavy>
14

>  <SCORE.norm>
-0.563955

>  <RMSD>
3.216

$$$$
ligand
 OpenBabel11021811413D
libRbt.so/2013.1/901 2013/11/27
 14 13  0  0  0  0  0  0  0  0999 V2000
   45.6073   10.2655   18.7132 N   0  0  0  0  0  0  0  0  0  0  0  0
   46.6581    9.3449   19.1983 C   0  0  0  0  0  0  0  0  0  0  0  0
   46.1290    7.8979   19.2996 C   0  0  0  0  0  0  0  0  0  0  0  0
   45.0104    7.6967   20.3350 C   0  0  0  0  0  0  0  0  0  0  0  0
   44.4943    6.3006   20.2997 N   0  0  0  0  0  0  0  0  0  0  0  0
   45.4584    5.3802   20.9555 C   0  0  0  0  0  0  0  0  0  0  0  0
   46.2727    4.4537   19.9909 C   0  0  0  0  0  0  0  0  0  0  0  0
   45.4131    3.3765   19.2689 C   0  0  0  0  0  0  0  0  0  0  0  0
   46.2149    2.4376   18.3889 C   0  0  0  0  0  0  0  0  0  0  0  0
   45.3140    1.4051   17.9127 N   0  0  0  0  0  0  0  0  0  0  0  0
   45.7643    1.0709   16.5728 C   0  0  0  0  0  0  0  0  0  0  0  0
   45.3561   -0.3453   16.1842 C   0  0  0  0  0  0  0  0  0  0  0  0
   45.8455   -0.5929   14.7493 C   0  0  0  0  0  0  0  0  0  0  0  0
   45.4727   -1.9278   14.2578 N   0  0  0  0  0  0  0  0  0  0  0  0
  1  2  1  0  0  0  0
  2  3  1  0  0  0  0
  3  4  1  0  0  0  0
  4  5  1  0  0  0  0
  5  6  1  0  0  0  0
  6  7  1  0  0  0  0
  7  8  1  0  0  0  0
  8  9  1  0  0  0  0
  9 10  1  0  0  0  0
 10 11  1  0  0  0  0
 11 12  1  0  0  0  0
 12 13  1  0  0  0  0
 13 14  1  0  0  0  0
M  END
>  <CHROM.1>
-64.49752811,175.99636358,75.59897533,-106.46398078,-67.81228161,-177.12387369
173.44956058,145.88261989,154.97885604,178.73170207,-178.56243763,45.64381244
4.05456202,18.29495720,-1.50716661,-1.40876819,-2.64450561

>  <Name>
ligand

>  <RI>
0

>  <Rbt.Current_Directory>
/home/itssahil/PROJECTS/Mol_Feturizer/New_Systems/rnas/1TN2

>  <Rbt.Executable>
rbdock ($Id: //depot/dev/client3/rdock/2013.1/src/exe/rbdock.cxx#4 $)

>  <Rbt.Library>
libRbt.so (2013.1, Build901 2013/11/27)

>  <Rbt.Parameter_File>
/export/apps/rDock/src/rDock_2013.1_src/data/scripts/dock_solv.prm

>  <Rbt.Receptor>
prm/pocket_docking_4.prm

>  <SCORE>
-9.32202

>  <SCORE.INTER>
-7.12096

>  <SCORE.INTER.CONST>
1

>  <SCORE.INTER.POLAR>
0

>  <SCORE.INTER.ROT>
11

>  <SCORE.INTER.SOLV>
11.3942

>  <SCORE.INTER.VDW>
-19.4787

>  <SCORE.INTER.norm>
-0.50864

>  <SCORE.INTRA>
-2.20106

>  <SCORE.INTRA.DIHEDRAL>
-4.80278

>  <SCORE.INTRA.DIHEDRAL.0>
7.79482

>  <SCORE.INTRA.POLAR>
0

>  <SCORE.INTRA.POLAR.0>
0

>  <SCORE.INTRA.REPUL>
0

>  <SCORE.INTRA.REPUL.0>
0

>  <SCORE.INTRA.SOLV>
0.917326

>  <SCORE.INTRA.SOLV.lig_0>
-49.456

>  <SCORE.INTRA.VDW>
-0.258338

>  <SCORE.INTRA.VDW.0>
-0.478406

>  <SCORE.INTRA.norm>
-0.157219

>  <SCORE.RESTR>
0

>  <SCORE.RESTR.CAVITY>
0

>  <SCORE.RESTR.norm>
0

>  <SCORE.SYSTEM>
0

>  <SCORE.SYSTEM.CONST>
0

>  <SCORE.SYSTEM.DIHEDRAL>
0

>  <SCORE.SYSTEM.SOLV>
0

>  <SCORE.SYSTEM.norm>
0

>  <SCORE.heavy>
14

>  <SCORE.norm>
-0.665859

>  <RMSD>
3.217

$$$$
ligand
 OpenBabel11021811413D
libRbt.so/2013.1/901 2013/11/27
 14 13  0  0  0  0  0  0  0  0999 V2000
   39.8004    8.2348   20.1084 N   0  0  0  0  0  0  0  0  0  0  0  0
   41.1873    8.4917   19.6638 C   0  0  0  0  0  0  0  0  0  0  0  0
   42.2036    7.7157   20.5293 C   0  0  0  0  0  0  0  0  0  0  0  0
   43.6700    7.8821   20.0981 C   0  0  0  0  0  0  0  0  0  0  0  0
   44.5829    7.1407   21.0111 N   0  0  0  0  0  0  0  0  0  0  0  0
   45.9563    7.1051   20.4460 C   0  0  0  0  0  0  0  0  0  0  0  0
   46.2010    6.0351   19.3292 C   0  0  0  0  0  0  0  0  0  0  0  0
   45.8570    4.5796   19.7578 C   0  0  0  0  0  0  0  0  0  0  0  0
   46.0603    3.5511   18.6625 C   0  0  0  0  0  0  0  0  0  0  0  0
   45.5004    2.2966   19.1283 N   0  0  0  0  0  0  0  0  0  0  0  0
   45.9432    1.2874   18.1822 C   0  0  0  0  0  0  0  0  0  0  0  0
   44.7658    0.6559   17.4486 C   0  0  0  0  0  0  0  0  0  0  0  0
   44.1557    1.7311   16.5366 C   0  0  0  0  0  0  0  0  0  0  0  0
   45.0631    2.1131   15.4443 N   0  0  0  0  0  0  0  0  0  0  0  0
  1  2  1  0  0  0  0
  2  3  1  0  0  0  0
  3  4  1  0  0  0  0
  4  5  1  0  0  0  0
  5  6  1  0  0  0  0
  6  7  1  0  0  0  0
  7  8  1  0  0  0  0
  8  9  1  0  0  0  0
  9 10  1  0  0  0  0
 10 11  1  0  0  0  0
 11 12  1  0  0  0  0
 12 13  1  0  0  0  0
 13 14  1  0  0  0  0
M  END
>  <CHROM.1>
177.65835043,178.06181176,169.71888003,-79.74982410,-55.76225754,178.46995632
-170.86134866,-169.01951562,-116.66306967,68.06674050,67.26441939,44.35360014
4.91571526,19.02476751,2.00046842,-0.29715916,0.56174545

>  <Name>
ligand

>  <RI>
0

>  <Rbt.Current_Directory>
/home/itssahil/PROJECTS/Mol_Feturizer/New_Systems/rnas/1TN2

>  <Rbt.Executable>
rbdock ($Id: //depot/dev/client3/rdock/2013.1/src/exe/rbdock.cxx#4 $)

>  <Rbt.Library>
libRbt.so (2013.1, Build901 2013/11/27)

>  <Rbt.Parameter_File>
/export/apps/rDock/src/rDock_2013.1_src/data/scripts/dock_solv.prm

>  <Rbt.Receptor>
prm/blind_docking_60.prm

>  <SCORE>
-11.8734

>  <SCORE.INTER>
-10.2368

>  <SCORE.INTER.CONST>
1

>  <SCORE.INTER.POLAR>
0

>  <SCORE.INTER.ROT>
11

>  <SCORE.INTER.SOLV>
18.3671

>  <SCORE.INTER.VDW>
-23.8802

>  <SCORE.INTER.norm>
-0.731199

>  <SCORE.INTRA>
-1.6366

>  <SCORE.INTRA.DIHEDRAL>
-5.26722

>  <SCORE.INTRA.DIHEDRAL.0>
7.79482

>  <SCORE.INTRA.POLAR>
0

>  <SCORE.INTRA.POLAR.0>
0

>  <SCORE.INTRA.REPUL>
0

>  <SCORE.INTRA.REPUL.0>
0

>  <SCORE.INTRA.SOLV>
2.80195

>  <SCORE.INTRA.SOLV.lig_0>
-49.456

>  <SCORE.INTRA.VDW>
-0.403963

>  <SCORE.INTRA.VDW.0>
-0.478406

>  <SCORE.INTRA.norm>
-0.1169

>  <SCORE.RESTR>
0

>  <SCORE.RESTR.CAVITY>
0

>  <SCORE.RESTR.norm>
0

>  <SCORE.SYSTEM>
0

>  <SCORE.SYSTEM.CONST>
0

>  <SCORE.SYSTEM.DIHEDRAL>
0

>  <SCORE.SYSTEM.SOLV>
0

>  <SCORE.SYSTEM.norm>
0

>  <SCORE.heavy>
14

>  <SCORE.norm>
-0.848099

>  <RMSD>
3.219

$$$$
ligand
 OpenBabel11021811413D
libRbt.so/2013.1/901 2013/11/27
 14 13  0  0  0  0  0  0  0  0999 V2000
   44.9786   -1.4717   14.3066 N   0  0  0  0  0  0  0  0  0  0  0  0
   44.5002   -0.2303   14.9526 C   0  0  0  0  0  0  0  0  0  0  0  0
   45.4775    0.2389   16.0521 C   0  0  0  0  0  0  0  0  0  0  0  0
   45.0867    1.5603   16.7340 C   0  0  0  0  0  0  0  0  0  0  0  0
   46.1428    2.0036   17.6850 N   0  0  0  0  0  0  0  0  0  0  0  0
   45.7438    3.2767   18.3384 C   0  0  0  0  0  0  0  0  0  0  0  0
   44.7360    3.1395   19.5290 C   0  0  0  0  0  0  0  0  0  0  0  0
   44.3665    4.4900   20.2072 C   0  0  0  0  0  0  0  0  0  0  0  0
   45.5382    5.1859   20.8717 C   0  0  0  0  0  0  0  0  0  0  0  0
   46.3384    5.7946   19.8260 N   0  0  0  0  0  0  0  0  0  0  0  0
   46.1510    7.2282   19.9649 C   0  0  0  0  0  0  0  0  0  0  0  0
   46.9657    7.9997   18.9332 C   0  0  0  0  0  0  0  0  0  0  0  0
   46.6703    9.4942   19.1309 C   0  0  0  0  0  0  0  0  0  0  0  0
   45.2830    9.8369   18.7838 N   0  0  0  0  0  0  0  0  0  0  0  0
  1  2  1  0  0  0  0
  2  3  1  0  0  0  0
  3  4  1  0  0  0  0
  4  5  1  0  0  0  0
  5  6  1  0  0  0  0
  6  7  1  0  0  0  0
  7  8  1  0  0  0  0
  8  9  1  0  0  0  0
  9 10  1  0  0  0  0
 10 11  1  0  0  0  0
 11 12  1  0  0  0  0
 12 13  1  0  0  0  0
 13 14  1  0  0  0  0
M  END
>  <CHROM.1>
177.41951474,-174.64413903,-179.69846195,80.04303376,178.72420356,-63.66854073
76.45298723,109.92116100,178.91569922,178.30392942,-67.28795357,45.56986659
4.18195370,18.23704858,-2.09834477,1.34467300,0.95814639

>  <Name>
ligand

>  <RI>
0

>  <Rbt.Current_Directory>
/home/itssahil/PROJECTS/Mol_Feturizer/New_Systems/rnas/1TN2

>  <Rbt.Executable>
rbdock ($Id: //depot/dev/client3/rdock/2013.1/src/exe/rbdock.cxx#4 $)

>  <Rbt.Library>
libRbt.so (2013.1, Build901 2013/11/27)

>  <Rbt.Parameter_File>
/export/apps/rDock/src/rDock_2013.1_src/data/scripts/dock_solv.prm

>  <Rbt.Receptor>
prm/pocket_docking_8.prm

>  <SCORE>
-7.07928

>  <SCORE.INTER>
-5.47535

>  <SCORE.INTER.CONST>
1

>  <SCORE.INTER.POLAR>
0

>  <SCORE.INTER.ROT>
11

>  <SCORE.INTER.SOLV>
12.7375

>  <SCORE.INTER.VDW>
-18.8294

>  <SCORE.INTER.norm>
-0.391096

>  <SCORE.INTRA>
-1.60393

>  <SCORE.INTRA.DIHEDRAL>
-5.00707

>  <SCORE.INTRA.DIHEDRAL.0>
7.79482

>  <SCORE.INTRA.POLAR>
0

>  <SCORE.INTRA.POLAR.0>
0

>  <SCORE.INTRA.REPUL>
0

>  <SCORE.INTRA.REPUL.0>
0

>  <SCORE.INTRA.SOLV>
1.67652

>  <SCORE.INTRA.SOLV.lig_0>
-49.456

>  <SCORE.INTRA.VDW>
0.0613439

>  <SCORE.INTRA.VDW.0>
-0.478406

>  <SCORE.INTRA.norm>
-0.114566

>  <SCORE.RESTR>
0

>  <SCORE.RESTR.CAVITY>
0

>  <SCORE.RESTR.norm>
0

>  <SCORE.SYSTEM>
0

>  <SCORE.SYSTEM.CONST>
0

>  <SCORE.SYSTEM.DIHEDRAL>
0

>  <SCORE.SYSTEM.SOLV>
0

>  <SCORE.SYSTEM.norm>
0

>  <SCORE.heavy>
14

>  <SCORE.norm>
-0.505663

>  <RMSD>
3.221

$$$$
ligand
 OpenBabel11021811413D
libRbt.so/2013.1/901 2013/11/27
 14 13  0  0  0  0  0  0  0  0999 V2000
   45.9791    1.4669   17.0046 N   0  0  0  0  0  0  0  0  0  0  0  0
   45.6128    2.0025   18.3336 C   0  0  0  0  0  0  0  0  0  0  0  0
   45.9611    3.5025   18.4460 C   0  0  0  0  0  0  0  0  0  0  0  0
   45.5166    4.1659   19.7599 C   0  0  0  0  0  0  0  0  0  0  0  0
   45.8171    5.6240   19.7507 N   0  0  0  0  0  0  0  0  0  0  0  0
   45.1657    6.2897   20.9080 C   0  0  0  0  0  0  0  0  0  0  0  0
   43.8118    7.0131   20.5984 C   0  0  0  0  0  0  0  0  0  0  0  0
   43.9501    8.2434   19.6562 C   0  0  0  0  0  0  0  0  0  0  0  0
   42.6562    9.0049   19.4443 C   0  0  0  0  0  0  0  0  0  0  0  0
   42.9474   10.1346   18.5821 N   0  0  0  0  0  0  0  0  0  0  0  0
   41.7052   10.8786   18.4679 C   0  0  0  0  0  0  0  0  0  0  0  0
   41.8077   11.9769   17.4159 C   0  0  0  0  0  0  0  0  0  0  0  0
   42.8923   12.9623   17.8770 C   0  0  0  0  0  0  0  0  0  0  0  0
   43.0425   14.0957   16.9520 N   0  0  0  0  0  0  0  0  0  0  0  0
  1  2  1  0  0  0  0
  2  3  1  0  0  0  0
  3  4  1  0  0  0  0
  4  5  1  0  0  0  0
  5  6  1  0  0  0  0
  6  7  1  0  0  0  0
  7  8  1  0  0  0  0
  8  9  1  0  0  0  0
  9 10  1  0  0  0  0
 10 11  1  0  0  0  0
 11 12  1  0  0  0  0
 12 13  1  0  0  0  0
 13 14  1  0  0  0  0
M  END
>  <CHROM.1>
175.63228553,-176.59221324,169.72326822,-98.82451597,-66.15589428,-175.51877865
178.46094821,-176.76344541,-171.21805812,-62.50755054,-177.98748176,44.06166682
7.66855792,18.80005152,-0.05368414,1.23042084,-1.60144855

>  <Name>
ligand

>  <RI>
0

>  <Rbt.Current_Directory>
/home/itssahil/PROJECTS/Mol_Feturizer/New_Systems/rnas/1TN2

>  <Rbt.Executable>
rbdock ($Id: //depot/dev/client3/rdock/2013.1/src/exe/rbdock.cxx#4 $)

>  <Rbt.Library>
libRbt.so (2013.1, Build901 2013/11/27)

>  <Rbt.Parameter_File>
/export/apps/rDock/src/rDock_2013.1_src/data/scripts/dock_solv.prm

>  <Rbt.Receptor>
prm/pocket_docking_4.prm

>  <SCORE>
-13.4193

>  <SCORE.INTER>
-9.95882

>  <SCORE.INTER.CONST>
1

>  <SCORE.INTER.POLAR>
0

>  <SCORE.INTER.ROT>
11

>  <SCORE.INTER.SOLV>
13.1871

>  <SCORE.INTER.VDW>
-21.9682

>  <SCORE.INTER.norm>
-0.711344

>  <SCORE.INTRA>
-3.46049

>  <SCORE.INTRA.DIHEDRAL>
-6.38196

>  <SCORE.INTRA.DIHEDRAL.0>
7.79482

>  <SCORE.INTRA.POLAR>
0

>  <SCORE.INTRA.POLAR.0>
0

>  <SCORE.INTRA.REPUL>
0

>  <SCORE.INTRA.REPUL.0>
0

>  <SCORE.INTRA.SOLV>
0.700266

>  <SCORE.INTRA.SOLV.lig_0>
-49.456

>  <SCORE.INTRA.VDW>
-0.619641

>  <SCORE.INTRA.VDW.0>
-0.478406

>  <SCORE.INTRA.norm>
-0.247178

>  <SCORE.RESTR>
0

>  <SCORE.RESTR.CAVITY>
0

>  <SCORE.RESTR.norm>
0

>  <SCORE.SYSTEM>
0

>  <SCORE.SYSTEM.CONST>
0

>  <SCORE.SYSTEM.DIHEDRAL>
0

>  <SCORE.SYSTEM.SOLV>
0

>  <SCORE.SYSTEM.norm>
0

>  <SCORE.heavy>
14

>  <SCORE.norm>
-0.958522

>  <RMSD>
3.226

$$$$
ligand
 OpenBabel11021811413D
libRbt.so/2013.1/901 2013/11/27
 14 13  0  0  0  0  0  0  0  0999 V2000
   45.8965   -0.3460   13.8801 N   0  0  0  0  0  0  0  0  0  0  0  0
   44.9681   -0.9706   14.8471 C   0  0  0  0  0  0  0  0  0  0  0  0
   45.4821   -0.8145   16.2947 C   0  0  0  0  0  0  0  0  0  0  0  0
   45.5448    0.6367   16.7985 C   0  0  0  0  0  0  0  0  0  0  0  0
   46.1158    0.7015   18.1719 N   0  0  0  0  0  0  0  0  0  0  0  0
   46.2767    2.1164   18.5948 C   0  0  0  0  0  0  0  0  0  0  0  0
   44.9739    2.8247   19.0979 C   0  0  0  0  0  0  0  0  0  0  0  0
   45.2331    4.1012   19.9486 C   0  0  0  0  0  0  0  0  0  0  0  0
   45.9510    5.2058   19.1981 C   0  0  0  0  0  0  0  0  0  0  0  0
   46.1697    6.2981   20.1273 N   0  0  0  0  0  0  0  0  0  0  0  0
   45.8550    7.5125   19.3952 C   0  0  0  0  0  0  0  0  0  0  0  0
   46.4979    8.7348   20.0400 C   0  0  0  0  0  0  0  0  0  0  0  0
   46.0303    9.9723   19.2590 C   0  0  0  0  0  0  0  0  0  0  0  0
   46.4988    9.9591   17.8650 N   0  0  0  0  0  0  0  0  0  0  0  0
  1  2  1  0  0  0  0
  2  3  1  0  0  0  0
  3  4  1  0  0  0  0
  4  5  1  0  0  0  0
  5  6  1  0  0  0  0
  6  7  1  0  0  0  0
  7  8  1  0  0  0  0
  8  9  1  0  0  0  0
  9 10  1  0  0  0  0
 10 11  1  0  0  0  0
 11 12  1  0  0  0  0
 12 13  1  0  0  0  0
 13 14  1  0  0  0  0
M  END
>  <CHROM.1>
64.84600697,-177.04710068,175.14426982,79.62553683,161.09433757,62.19220235
-177.67210646,-137.24718739,-159.46339960,-176.08975000,-63.91488566,45.82083423
3.99508267,18.10868404,-2.26856925,1.46600584,1.06191401

>  <Name>
ligand

>  <RI>
0

>  <Rbt.Current_Directory>
/home/itssahil/PROJECTS/Mol_Feturizer/New_Systems/rnas/1TN2

>  <Rbt.Executable>
rbdock ($Id: //depot/dev/client3/rdock/2013.1/src/exe/rbdock.cxx#4 $)

>  <Rbt.Library>
libRbt.so (2013.1, Build901 2013/11/27)

>  <Rbt.Parameter_File>
/export/apps/rDock/src/rDock_2013.1_src/data/scripts/dock_solv.prm

>  <Rbt.Receptor>
prm/pocket_docking_5.prm

>  <SCORE>
-9.21539

>  <SCORE.INTER>
-7.69045

>  <SCORE.INTER.CONST>
1

>  <SCORE.INTER.POLAR>
0

>  <SCORE.INTER.ROT>
11

>  <SCORE.INTER.SOLV>
11.4753

>  <SCORE.INTER.VDW>
-19.8854

>  <SCORE.INTER.norm>
-0.549318

>  <SCORE.INTRA>
-1.52494

>  <SCORE.INTRA.DIHEDRAL>
-4.6767

>  <SCORE.INTRA.DIHEDRAL.0>
7.79482

>  <SCORE.INTRA.POLAR>
0

>  <SCORE.INTRA.POLAR.0>
0

>  <SCORE.INTRA.REPUL>
0

>  <SCORE.INTRA.REPUL.0>
0

>  <SCORE.INTRA.SOLV>
1.56828

>  <SCORE.INTRA.SOLV.lig_0>
-49.456

>  <SCORE.INTRA.VDW>
0.0292756

>  <SCORE.INTRA.VDW.0>
-0.478406

>  <SCORE.INTRA.norm>
-0.108924

>  <SCORE.RESTR>
0

>  <SCORE.RESTR.CAVITY>
0

>  <SCORE.RESTR.norm>
0

>  <SCORE.SYSTEM>
0

>  <SCORE.SYSTEM.CONST>
0

>  <SCORE.SYSTEM.DIHEDRAL>
0

>  <SCORE.SYSTEM.SOLV>
0

>  <SCORE.SYSTEM.norm>
0

>  <SCORE.heavy>
14

>  <SCORE.norm>
-0.658242

>  <RMSD>
3.229

$$$$
ligand
 OpenBabel11021811413D
libRbt.so/2013.1/901 2013/11/27
 14 13  0  0  0  0  0  0  0  0999 V2000
   47.7292    9.6526   17.0246 N   0  0  0  0  0  0  0  0  0  0  0  0
   47.4577    8.5682   17.9928 C   0  0  0  0  0  0  0  0  0  0  0  0
   46.6855    9.0970   19.2209 C   0  0  0  0  0  0  0  0  0  0  0  0
   46.4304    8.0487   20.3164 C   0  0  0  0  0  0  0  0  0  0  0  0
   45.5757    6.9410   19.8074 N   0  0  0  0  0  0  0  0  0  0  0  0
   45.5450    5.8247   20.7870 C   0  0  0  0  0  0  0  0  0  0  0  0
   46.2161    4.4911   20.3144 C   0  0  0  0  0  0  0  0  0  0  0  0
   45.5401    3.8459   19.0705 C   0  0  0  0  0  0  0  0  0  0  0  0
   46.1267    2.5040   18.6779 C   0  0  0  0  0  0  0  0  0  0  0  0
   45.4496    2.0643   17.4727 N   0  0  0  0  0  0  0  0  0  0  0  0
   45.6925    0.6353   17.3785 C   0  0  0  0  0  0  0  0  0  0  0  0
   45.3380    0.0992   15.9964 C   0  0  0  0  0  0  0  0  0  0  0  0
   45.6608   -1.4026   15.9837 C   0  0  0  0  0  0  0  0  0  0  0  0
   45.4229   -2.0108   14.6660 N   0  0  0  0  0  0  0  0  0  0  0  0
  1  2  1  0  0  0  0
  2  3  1  0  0  0  0
  3  4  1  0  0  0  0
  4  5  1  0  0  0  0
  5  6  1  0  0  0  0
  6  7  1  0  0  0  0
  7  8  1  0  0  0  0
  8  9  1  0  0  0  0
  9 10  1  0  0  0  0
 10 11  1  0  0  0  0
 11 12  1  0  0  0  0
 12 13  1  0  0  0  0
 13 14  1  0  0  0  0
M  END
>  <CHROM.1>
-176.72491786,-62.72228754,169.63955808,-113.79234977,-62.27557593,-175.70723626
-177.05685867,-161.49693242,-165.94765851,178.58033926,-176.91792977,46.06216675
4.16847165,18.19391190,-1.16954053,-1.23690795,-2.43552360

>  <Name>
ligand

>  <RI>
0

>  <Rbt.Current_Directory>
/home/itssahil/PROJECTS/Mol_Feturizer/New_Systems/rnas/1TN2

>  <Rbt.Executable>
rbdock ($Id: //depot/dev/client3/rdock/2013.1/src/exe/rbdock.cxx#4 $)

>  <Rbt.Library>
libRbt.so (2013.1, Build901 2013/11/27)

>  <Rbt.Parameter_File>
/export/apps/rDock/src/rDock_2013.1_src/data/scripts/dock_solv.prm

>  <Rbt.Receptor>
prm/pocket_docking_5.prm

>  <SCORE>
-11.6612

>  <SCORE.INTER>
-8.12341

>  <SCORE.INTER.CONST>
1

>  <SCORE.INTER.POLAR>
0

>  <SCORE.INTER.ROT>
11

>  <SCORE.INTER.SOLV>
11.6968

>  <SCORE.INTER.VDW>
-20.2479

>  <SCORE.INTER.norm>
-0.580244

>  <SCORE.INTRA>
-3.53782

>  <SCORE.INTRA.DIHEDRAL>
-5.88344

>  <SCORE.INTRA.DIHEDRAL.0>
7.79482

>  <SCORE.INTRA.POLAR>
0

>  <SCORE.INTRA.POLAR.0>
0

>  <SCORE.INTRA.REPUL>
0

>  <SCORE.INTRA.REPUL.0>
0

>  <SCORE.INTRA.SOLV>
0.588388

>  <SCORE.INTRA.SOLV.lig_0>
-49.456

>  <SCORE.INTRA.VDW>
-0.890294

>  <SCORE.INTRA.VDW.0>
-0.478406

>  <SCORE.INTRA.norm>
-0.252702

>  <SCORE.RESTR>
0

>  <SCORE.RESTR.CAVITY>
0

>  <SCORE.RESTR.norm>
0

>  <SCORE.SYSTEM>
0

>  <SCORE.SYSTEM.CONST>
0

>  <SCORE.SYSTEM.DIHEDRAL>
0

>  <SCORE.SYSTEM.SOLV>
0

>  <SCORE.SYSTEM.norm>
0

>  <SCORE.heavy>
14

>  <SCORE.norm>
-0.832945

>  <RMSD>
3.234

$$$$
ligand
 OpenBabel11021811413D
libRbt.so/2013.1/901 2013/11/27
 14 13  0  0  0  0  0  0  0  0999 V2000
   44.2552   10.3617   18.4910 N   0  0  0  0  0  0  0  0  0  0  0  0
   43.8280    9.1250   19.1803 C   0  0  0  0  0  0  0  0  0  0  0  0
   45.0435    8.3281   19.7012 C   0  0  0  0  0  0  0  0  0  0  0  0
   44.6991    6.9547   20.3005 C   0  0  0  0  0  0  0  0  0  0  0  0
   45.9282    6.2428   20.7465 N   0  0  0  0  0  0  0  0  0  0  0  0
   45.7564    4.7754   20.5913 C   0  0  0  0  0  0  0  0  0  0  0  0
   46.0031    4.2139   19.1505 C   0  0  0  0  0  0  0  0  0  0  0  0
   45.7851    2.6789   19.0212 C   0  0  0  0  0  0  0  0  0  0  0  0
   46.0479    2.1349   17.6305 C   0  0  0  0  0  0  0  0  0  0  0  0
   45.7691    0.7115   17.6556 N   0  0  0  0  0  0  0  0  0  0  0  0
   45.1299    0.4087   16.3870 C   0  0  0  0  0  0  0  0  0  0  0  0
   45.6327   -0.9094   15.8098 C   0  0  0  0  0  0  0  0  0  0  0  0
   44.9746   -1.0955   14.4342 C   0  0  0  0  0  0  0  0  0  0  0  0
   45.4700   -2.2929   13.7388 N   0  0  0  0  0  0  0  0  0  0  0  0
  1  2  1  0  0  0  0
  2  3  1  0  0  0  0
  3  4  1  0  0  0  0
  4  5  1  0  0  0  0
  5  6  1  0  0  0  0
  6  7  1  0  0  0  0
  7  8  1  0  0  0  0
  8  9  1  0  0  0  0
  9 10  1  0  0  0  0
 10 11  1  0  0  0  0
 11 12  1  0  0  0  0
 12 13  1  0  0  0  0
 13 14  1  0  0  0  0
M  END
>  <CHROM.1>
-173.84979521,178.63519219,-148.08782984,81.60969797,-178.79798067,-179.00618484
-178.41248823,141.43569476,139.27445486,-176.28400454,175.65567378,45.30874421
3.68838479,18.06003843,1.74167936,-1.16174109,0.59998411

>  <Name>
ligand

>  <RI>
0

>  <Rbt.Current_Directory>
/home/itssahil/PROJECTS/Mol_Feturizer/New_Systems/rnas/1TN2

>  <Rbt.Executable>
rbdock ($Id: //depot/dev/client3/rdock/2013.1/src/exe/rbdock.cxx#4 $)

>  <Rbt.Library>
libRbt.so (2013.1, Build901 2013/11/27)

>  <Rbt.Parameter_File>
/export/apps/rDock/src/rDock_2013.1_src/data/scripts/dock_solv.prm

>  <Rbt.Receptor>
prm/pocket_docking_5.prm

>  <SCORE>
-9.99738

>  <SCORE.INTER>
-7.01272

>  <SCORE.INTER.CONST>
1

>  <SCORE.INTER.POLAR>
0

>  <SCORE.INTER.ROT>
11

>  <SCORE.INTER.SOLV>
14.5757

>  <SCORE.INTER.VDW>
-20.4671

>  <SCORE.INTER.norm>
-0.500909

>  <SCORE.INTRA>
-2.98466

>  <SCORE.INTRA.DIHEDRAL>
-4.71916

>  <SCORE.INTRA.DIHEDRAL.0>
7.79482

>  <SCORE.INTRA.POLAR>
0

>  <SCORE.INTRA.POLAR.0>
0

>  <SCORE.INTRA.REPUL>
0

>  <SCORE.INTRA.REPUL.0>
0

>  <SCORE.INTRA.SOLV>
-0.0562973

>  <SCORE.INTRA.SOLV.lig_0>
-49.456

>  <SCORE.INTRA.VDW>
-0.596931

>  <SCORE.INTRA.VDW.0>
-0.478406

>  <SCORE.INTRA.norm>
-0.21319

>  <SCORE.RESTR>
0

>  <SCORE.RESTR.CAVITY>
0

>  <SCORE.RESTR.norm>
0

>  <SCORE.SYSTEM>
0

>  <SCORE.SYSTEM.CONST>
0

>  <SCORE.SYSTEM.DIHEDRAL>
0

>  <SCORE.SYSTEM.SOLV>
0

>  <SCORE.SYSTEM.norm>
0

>  <SCORE.heavy>
14

>  <SCORE.norm>
-0.714099

>  <RMSD>
3.237

$$$$
ligand
 OpenBabel11021811413D
libRbt.so/2013.1/901 2013/11/27
 14 13  0  0  0  0  0  0  0  0999 V2000
   45.5397   -2.1454   13.6449 N   0  0  0  0  0  0  0  0  0  0  0  0
   44.8317   -1.1920   14.5263 C   0  0  0  0  0  0  0  0  0  0  0  0
   45.6641   -0.8739   15.7872 C   0  0  0  0  0  0  0  0  0  0  0  0
   45.0507    0.1956   16.7059 C   0  0  0  0  0  0  0  0  0  0  0  0
   45.9605    0.5102   17.8415 N   0  0  0  0  0  0  0  0  0  0  0  0
   45.3810    1.5914   18.6793 C   0  0  0  0  0  0  0  0  0  0  0  0
   46.1471    2.9567   18.6472 C   0  0  0  0  0  0  0  0  0  0  0  0
   45.5397    4.0478   19.5751 C   0  0  0  0  0  0  0  0  0  0  0  0
   46.2734    5.3739   19.5280 C   0  0  0  0  0  0  0  0  0  0  0  0
   45.6053    6.2784   20.4444 N   0  0  0  0  0  0  0  0  0  0  0  0
   46.2698    7.5610   20.2929 C   0  0  0  0  0  0  0  0  0  0  0  0
   45.4080    8.5470   19.5129 C   0  0  0  0  0  0  0  0  0  0  0  0
   46.2330    9.8271   19.3113 C   0  0  0  0  0  0  0  0  0  0  0  0
   45.5181   10.8274   18.5044 N   0  0  0  0  0  0  0  0  0  0  0  0
  1  2  1  0  0  0  0
  2  3  1  0  0  0  0
  3  4  1  0  0  0  0
  4  5  1  0  0  0  0
  5  6  1  0  0  0  0
  6  7  1  0  0  0  0
  7  8  1  0  0  0  0
  8  9  1  0  0  0  0
  9 10  1  0  0  0  0
 10 11  1  0  0  0  0
 11 12  1  0  0  0  0
 12 13  1  0  0  0  0
 13 14  1  0  0  0  0
M  END
>  <CHROM.1>
175.41205563,-175.94355143,177.23444060,-112.09164079,-177.94419982,-179.25338659
-179.50989275,-175.67457406,105.56558151,-175.69683183,177.03306486,45.67301653
3.82177222,18.07170304,1.95846681,1.45398518,-3.13144022

>  <Name>
ligand

>  <RI>
0

>  <Rbt.Current_Directory>
/home/itssahil/PROJECTS/Mol_Feturizer/New_Systems/rnas/1TN2

>  <Rbt.Executable>
rbdock ($Id: //depot/dev/client3/rdock/2013.1/src/exe/rbdock.cxx#4 $)

>  <Rbt.Library>
libRbt.so (2013.1, Build901 2013/11/27)

>  <Rbt.Parameter_File>
/export/apps/rDock/src/rDock_2013.1_src/data/scripts/dock_solv.prm

>  <Rbt.Receptor>
prm/blind_docking_80.prm

>  <SCORE>
-11.5751

>  <SCORE.INTER>
-8.27533

>  <SCORE.INTER.CONST>
1

>  <SCORE.INTER.POLAR>
0

>  <SCORE.INTER.ROT>
11

>  <SCORE.INTER.SOLV>
12.4986

>  <SCORE.INTER.VDW>
-20.6164

>  <SCORE.INTER.norm>
-0.591095

>  <SCORE.INTRA>
-3.29982

>  <SCORE.INTRA.DIHEDRAL>
-5.32379

>  <SCORE.INTRA.DIHEDRAL.0>
7.79482

>  <SCORE.INTRA.POLAR>
0

>  <SCORE.INTRA.POLAR.0>
0

>  <SCORE.INTRA.REPUL>
0

>  <SCORE.INTRA.REPUL.0>
0

>  <SCORE.INTRA.SOLV>
-0.0546812

>  <SCORE.INTRA.SOLV.lig_0>
-49.456

>  <SCORE.INTRA.VDW>
-0.610581

>  <SCORE.INTRA.VDW.0>
-0.478406

>  <SCORE.INTRA.norm>
-0.235701

>  <SCORE.RESTR>
0

>  <SCORE.RESTR.CAVITY>
0

>  <SCORE.RESTR.norm>
0

>  <SCORE.SYSTEM>
0

>  <SCORE.SYSTEM.CONST>
0

>  <SCORE.SYSTEM.DIHEDRAL>
0

>  <SCORE.SYSTEM.SOLV>
0

>  <SCORE.SYSTEM.norm>
0

>  <SCORE.heavy>
14

>  <SCORE.norm>
-0.826796

>  <RMSD>
3.245

$$$$
ligand
 OpenBabel11021811413D
libRbt.so/2013.1/901 2013/11/27
 14 13  0  0  0  0  0  0  0  0999 V2000
   46.2686    1.5831   15.4172 N   0  0  0  0  0  0  0  0  0  0  0  0
   45.1033    1.2840   16.2773 C   0  0  0  0  0  0  0  0  0  0  0  0
   45.5467    0.9194   17.7107 C   0  0  0  0  0  0  0  0  0  0  0  0
   46.2046    2.0705   18.4892 C   0  0  0  0  0  0  0  0  0  0  0  0
   45.2580    3.2059   18.6657 N   0  0  0  0  0  0  0  0  0  0  0  0
   44.2502    2.8771   19.7064 C   0  0  0  0  0  0  0  0  0  0  0  0
   43.7594    4.0820   20.5779 C   0  0  0  0  0  0  0  0  0  0  0  0
   44.8606    4.6972   21.4887 C   0  0  0  0  0  0  0  0  0  0  0  0
   45.9400    5.4445   20.7303 C   0  0  0  0  0  0  0  0  0  0  0  0
   45.3579    6.6797   20.2405 N   0  0  0  0  0  0  0  0  0  0  0  0
   46.4495    7.4207   19.6330 C   0  0  0  0  0  0  0  0  0  0  0  0
   45.9530    8.6974   18.9647 C   0  0  0  0  0  0  0  0  0  0  0  0
   47.1709    9.4048   18.3513 C   0  0  0  0  0  0  0  0  0  0  0  0
   46.7989   10.6411   17.6471 N   0  0  0  0  0  0  0  0  0  0  0  0
  1  2  1  0  0  0  0
  2  3  1  0  0  0  0
  3  4  1  0  0  0  0
  4  5  1  0  0  0  0
  5  6  1  0  0  0  0
  6  7  1  0  0  0  0
  7  8  1  0  0  0  0
  8  9  1  0  0  0  0
  9 10  1  0  0  0  0
 10 11  1  0  0  0  0
 11 12  1  0  0  0  0
 12 13  1  0  0  0  0
 13 14  1  0  0  0  0
M  END
>  <CHROM.1>
66.02749121,61.72857758,75.09317821,146.14457055,-66.06833447,69.81034386
72.08368300,174.75891883,175.05703667,-179.82396735,178.58258251,45.63715663
4.92886324,18.85034219,-1.93692618,1.16201238,0.51778594

>  <Name>
ligand

>  <RI>
0

>  <Rbt.Current_Directory>
/home/itssahil/PROJECTS/Mol_Feturizer/New_Systems/rnas/1TN2

>  <Rbt.Executable>
rbdock ($Id: //depot/dev/client3/rdock/2013.1/src/exe/rbdock.cxx#4 $)

>  <Rbt.Library>
libRbt.so (2013.1, Build901 2013/11/27)

>  <Rbt.Parameter_File>
/export/apps/rDock/src/rDock_2013.1_src/data/scripts/dock_solv.prm

>  <Rbt.Receptor>
prm/pocket_docking_7.prm

>  <SCORE>
-7.28167

>  <SCORE.INTER>
-5.83862

>  <SCORE.INTER.CONST>
1

>  <SCORE.INTER.POLAR>
0

>  <SCORE.INTER.ROT>
11

>  <SCORE.INTER.SOLV>
10.6114

>  <SCORE.INTER.VDW>
-18.3629

>  <SCORE.INTER.norm>
-0.417045

>  <SCORE.INTRA>
-1.44304

>  <SCORE.INTRA.DIHEDRAL>
-5.63165

>  <SCORE.INTRA.DIHEDRAL.0>
7.79482

>  <SCORE.INTRA.POLAR>
0

>  <SCORE.INTRA.POLAR.0>
0

>  <SCORE.INTRA.REPUL>
0

>  <SCORE.INTRA.REPUL.0>
0

>  <SCORE.INTRA.SOLV>
3.3209

>  <SCORE.INTRA.SOLV.lig_0>
-49.456

>  <SCORE.INTRA.VDW>
-0.287668

>  <SCORE.INTRA.VDW.0>
-0.478406

>  <SCORE.INTRA.norm>
-0.103075

>  <SCORE.RESTR>
0

>  <SCORE.RESTR.CAVITY>
0

>  <SCORE.RESTR.norm>
0

>  <SCORE.SYSTEM>
0

>  <SCORE.SYSTEM.CONST>
0

>  <SCORE.SYSTEM.DIHEDRAL>
0

>  <SCORE.SYSTEM.SOLV>
0

>  <SCORE.SYSTEM.norm>
0

>  <SCORE.heavy>
14

>  <SCORE.norm>
-0.520119

>  <RMSD>
3.255

$$$$
ligand
 OpenBabel11021811413D
libRbt.so/2013.1/901 2013/11/27
 14 13  0  0  0  0  0  0  0  0999 V2000
   44.4235    1.1038   17.6519 N   0  0  0  0  0  0  0  0  0  0  0  0
   45.7220    1.6329   17.1817 C   0  0  0  0  0  0  0  0  0  0  0  0
   46.4883    2.3297   18.3268 C   0  0  0  0  0  0  0  0  0  0  0  0
   45.7443    3.5131   18.9672 C   0  0  0  0  0  0  0  0  0  0  0  0
   46.5924    4.1883   19.9877 N   0  0  0  0  0  0  0  0  0  0  0  0
   45.7392    4.8745   20.9917 C   0  0  0  0  0  0  0  0  0  0  0  0
   45.2172    6.2924   20.5803 C   0  0  0  0  0  0  0  0  0  0  0  0
   46.3444    7.3160   20.2608 C   0  0  0  0  0  0  0  0  0  0  0  0
   45.8352    8.6813   19.8415 C   0  0  0  0  0  0  0  0  0  0  0  0
   46.9838    9.4793   19.4563 N   0  0  0  0  0  0  0  0  0  0  0  0
   46.9541    9.5453   18.0056 C   0  0  0  0  0  0  0  0  0  0  0  0
   48.3255    9.8869   17.4348 C   0  0  0  0  0  0  0  0  0  0  0  0
   48.1841    9.9758   15.9077 C   0  0  0  0  0  0  0  0  0  0  0  0
   49.4516   10.3319   15.2523 N   0  0  0  0  0  0  0  0  0  0  0  0
  1  2  1  0  0  0  0
  2  3  1  0  0  0  0
  3  4  1  0  0  0  0
  4  5  1  0  0  0  0
  5  6  1  0  0  0  0
  6  7  1  0  0  0  0
  7  8  1  0  0  0  0
  8  9  1  0  0  0  0
  9 10  1  0  0  0  0
 10 11  1  0  0  0  0
 11 12  1  0  0  0  0
 12 13  1  0  0  0  0
 13 14  1  0  0  0  0
M  END
>  <CHROM.1>
-59.34235335,-175.74056287,-154.55394845,-82.62205666,-58.72672305,179.07816795
-174.63668762,105.24299020,-158.86695578,-178.30150454,178.75849944,46.57170744
6.36796287,18.56063074,-2.34931024,1.11830154,0.54498827

>  <Name>
ligand

>  <RI>
0

>  <Rbt.Current_Directory>
/home/itssahil/PROJECTS/Mol_Feturizer/New_Systems/rnas/1TN2

>  <Rbt.Executable>
rbdock ($Id: //depot/dev/client3/rdock/2013.1/src/exe/rbdock.cxx#4 $)

>  <Rbt.Library>
libRbt.so (2013.1, Build901 2013/11/27)

>  <Rbt.Parameter_File>
/export/apps/rDock/src/rDock_2013.1_src/data/scripts/dock_solv.prm

>  <Rbt.Receptor>
prm/pocket_docking_8.prm

>  <SCORE>
-7.41427

>  <SCORE.INTER>
-4.82261

>  <SCORE.INTER.CONST>
1

>  <SCORE.INTER.POLAR>
0

>  <SCORE.INTER.ROT>
11

>  <SCORE.INTER.SOLV>
14.4743

>  <SCORE.INTER.VDW>
-18.9732

>  <SCORE.INTER.norm>
-0.344472

>  <SCORE.INTRA>
-2.59165

>  <SCORE.INTRA.DIHEDRAL>
-5.39709

>  <SCORE.INTRA.DIHEDRAL.0>
7.79482

>  <SCORE.INTRA.POLAR>
0

>  <SCORE.INTRA.POLAR.0>
0

>  <SCORE.INTRA.REPUL>
0

>  <SCORE.INTRA.REPUL.0>
0

>  <SCORE.INTRA.SOLV>
1.02535

>  <SCORE.INTRA.SOLV.lig_0>
-49.456

>  <SCORE.INTRA.VDW>
-0.405786

>  <SCORE.INTRA.VDW.0>
-0.478406

>  <SCORE.INTRA.norm>
-0.185118

>  <SCORE.RESTR>
0

>  <SCORE.RESTR.CAVITY>
0

>  <SCORE.RESTR.norm>
0

>  <SCORE.SYSTEM>
0

>  <SCORE.SYSTEM.CONST>
0

>  <SCORE.SYSTEM.DIHEDRAL>
0

>  <SCORE.SYSTEM.SOLV>
0

>  <SCORE.SYSTEM.norm>
0

>  <SCORE.heavy>
14

>  <SCORE.norm>
-0.529591

>  <RMSD>
3.255

$$$$
ligand
 OpenBabel11021811413D
libRbt.so/2013.1/901 2013/11/27
 14 13  0  0  0  0  0  0  0  0999 V2000
   48.1044    8.2659   17.2598 N   0  0  0  0  0  0  0  0  0  0  0  0
   47.3638    8.4898   18.5201 C   0  0  0  0  0  0  0  0  0  0  0  0
   45.8542    8.6763   18.2547 C   0  0  0  0  0  0  0  0  0  0  0  0
   45.0178    8.9861   19.5071 C   0  0  0  0  0  0  0  0  0  0  0  0
   45.2025    7.9361   20.5462 N   0  0  0  0  0  0  0  0  0  0  0  0
   44.2505    6.8182   20.3213 C   0  0  0  0  0  0  0  0  0  0  0  0
   44.4660    5.5545   21.2207 C   0  0  0  0  0  0  0  0  0  0  0  0
   45.8729    4.9059   21.0781 C   0  0  0  0  0  0  0  0  0  0  0  0
   46.1236    4.2711   19.7242 C   0  0  0  0  0  0  0  0  0  0  0  0
   45.1195    3.2426   19.5284 N   0  0  0  0  0  0  0  0  0  0  0  0
   45.6977    2.2952   18.5915 C   0  0  0  0  0  0  0  0  0  0  0  0
   44.6546    1.3072   18.0824 C   0  0  0  0  0  0  0  0  0  0  0  0
   45.3659    0.3256   17.1387 C   0  0  0  0  0  0  0  0  0  0  0  0
   45.8622    0.9857   15.9219 N   0  0  0  0  0  0  0  0  0  0  0  0
  1  2  1  0  0  0  0
  2  3  1  0  0  0  0
  3  4  1  0  0  0  0
  4  5  1  0  0  0  0
  5  6  1  0  0  0  0
  6  7  1  0  0  0  0
  7  8  1  0  0  0  0
  8  9  1  0  0  0  0
  9 10  1  0  0  0  0
 10 11  1  0  0  0  0
 11 12  1  0  0  0  0
 12 13  1  0  0  0  0
 13 14  1  0  0  0  0
M  END
>  <CHROM.1>
-177.03906740,-55.90032591,-86.70026861,171.87619931,-58.65032772,-67.59516452
-59.58536452,-155.18557007,-168.81511110,-178.25278706,-65.94205437,45.63951714
5.14718052,18.97849945,-1.41086028,-1.02200820,-2.77900445

>  <Name>
ligand

>  <RI>
0

>  <Rbt.Current_Directory>
/home/itssahil/PROJECTS/Mol_Feturizer/New_Systems/rnas/1TN2

>  <Rbt.Executable>
rbdock ($Id: //depot/dev/client3/rdock/2013.1/src/exe/rbdock.cxx#4 $)

>  <Rbt.Library>
libRbt.so (2013.1, Build901 2013/11/27)

>  <Rbt.Parameter_File>
/export/apps/rDock/src/rDock_2013.1_src/data/scripts/dock_solv.prm

>  <Rbt.Receptor>
prm/pocket_docking_4.prm

>  <SCORE>
-10.5069

>  <SCORE.INTER>
-8.26418

>  <SCORE.INTER.CONST>
1

>  <SCORE.INTER.POLAR>
0

>  <SCORE.INTER.ROT>
11

>  <SCORE.INTER.SOLV>
12.2574

>  <SCORE.INTER.VDW>
-20.5286

>  <SCORE.INTER.norm>
-0.590298

>  <SCORE.INTRA>
-2.24277

>  <SCORE.INTRA.DIHEDRAL>
-6.2186

>  <SCORE.INTRA.DIHEDRAL.0>
7.79482

>  <SCORE.INTRA.POLAR>
0

>  <SCORE.INTRA.POLAR.0>
0

>  <SCORE.INTRA.REPUL>
0

>  <SCORE.INTRA.REPUL.0>
0

>  <SCORE.INTRA.SOLV>
2.32922

>  <SCORE.INTRA.SOLV.lig_0>
-49.456

>  <SCORE.INTRA.VDW>
-0.298079

>  <SCORE.INTRA.VDW.0>
-0.478406

>  <SCORE.INTRA.norm>
-0.160198

>  <SCORE.RESTR>
0

>  <SCORE.RESTR.CAVITY>
0

>  <SCORE.RESTR.norm>
0

>  <SCORE.SYSTEM>
0

>  <SCORE.SYSTEM.CONST>
0

>  <SCORE.SYSTEM.DIHEDRAL>
0

>  <SCORE.SYSTEM.SOLV>
0

>  <SCORE.SYSTEM.norm>
0

>  <SCORE.heavy>
14

>  <SCORE.norm>
-0.750496

>  <RMSD>
3.256

$$$$
ligand
 OpenBabel11021811413D
libRbt.so/2013.1/901 2013/11/27
 14 13  0  0  0  0  0  0  0  0999 V2000
   40.6394    7.5200   20.3947 N   0  0  0  0  0  0  0  0  0  0  0  0
   42.0905    7.3626   20.6330 C   0  0  0  0  0  0  0  0  0  0  0  0
   42.9035    8.4030   19.8327 C   0  0  0  0  0  0  0  0  0  0  0  0
   44.4283    8.2804   19.9878 C   0  0  0  0  0  0  0  0  0  0  0  0
   44.9160    6.9765   19.4602 N   0  0  0  0  0  0  0  0  0  0  0  0
   45.4869    6.1584   20.5609 C   0  0  0  0  0  0  0  0  0  0  0  0
   46.1777    4.8229   20.1234 C   0  0  0  0  0  0  0  0  0  0  0  0
   45.2337    3.8327   19.3827 C   0  0  0  0  0  0  0  0  0  0  0  0
   45.9397    2.6163   18.8162 C   0  0  0  0  0  0  0  0  0  0  0  0
   44.9550    1.8335   18.0937 N   0  0  0  0  0  0  0  0  0  0  0  0
   45.6421    0.6281   17.6643 C   0  0  0  0  0  0  0  0  0  0  0  0
   45.0177    0.0509   16.3993 C   0  0  0  0  0  0  0  0  0  0  0  0
   45.7800   -1.2364   16.0503 C   0  0  0  0  0  0  0  0  0  0  0  0
   45.3621   -1.7960   14.7561 N   0  0  0  0  0  0  0  0  0  0  0  0
  1  2  1  0  0  0  0
  2  3  1  0  0  0  0
  3  4  1  0  0  0  0
  4  5  1  0  0  0  0
  5  6  1  0  0  0  0
  6  7  1  0  0  0  0
  7  8  1  0  0  0  0
  8  9  1  0  0  0  0
  9 10  1  0  0  0  0
 10 11  1  0  0  0  0
 11 12  1  0  0  0  0
 12 13  1  0  0  0  0
 13 14  1  0  0  0  0
M  END
>  <CHROM.1>
-178.11132918,63.15165514,-115.40786259,-173.70352942,-59.97790460,173.11171331
-176.69289314,-175.36513110,-152.72079320,-178.30128315,-173.35062465,44.61258735
3.96105156,18.72560022,1.82732015,-0.23093602,0.51152165

>  <Name>
ligand

>  <RI>
0

>  <Rbt.Current_Directory>
/home/itssahil/PROJECTS/Mol_Feturizer/New_Systems/rnas/1TN2

>  <Rbt.Executable>
rbdock ($Id: //depot/dev/client3/rdock/2013.1/src/exe/rbdock.cxx#4 $)

>  <Rbt.Library>
libRbt.so (2013.1, Build901 2013/11/27)

>  <Rbt.Parameter_File>
/export/apps/rDock/src/rDock_2013.1_src/data/scripts/dock_solv.prm

>  <Rbt.Receptor>
prm/pocket_docking_7.prm

>  <SCORE>
-12.718

>  <SCORE.INTER>
-9.33137

>  <SCORE.INTER.CONST>
1

>  <SCORE.INTER.POLAR>
0

>  <SCORE.INTER.ROT>
11

>  <SCORE.INTER.SOLV>
15.8592

>  <SCORE.INTER.VDW>
-22.4406

>  <SCORE.INTER.norm>
-0.666527

>  <SCORE.INTRA>
-3.3866

>  <SCORE.INTRA.DIHEDRAL>
-5.58173

>  <SCORE.INTRA.DIHEDRAL.0>
7.79482

>  <SCORE.INTRA.POLAR>
0

>  <SCORE.INTRA.POLAR.0>
0

>  <SCORE.INTRA.REPUL>
0

>  <SCORE.INTRA.REPUL.0>
0

>  <SCORE.INTRA.SOLV>
0.639523

>  <SCORE.INTRA.SOLV.lig_0>
-49.456

>  <SCORE.INTRA.VDW>
-0.915495

>  <SCORE.INTRA.VDW.0>
-0.478406

>  <SCORE.INTRA.norm>
-0.2419

>  <SCORE.RESTR>
0

>  <SCORE.RESTR.CAVITY>
0

>  <SCORE.RESTR.norm>
0

>  <SCORE.SYSTEM>
0

>  <SCORE.SYSTEM.CONST>
0

>  <SCORE.SYSTEM.DIHEDRAL>
0

>  <SCORE.SYSTEM.SOLV>
0

>  <SCORE.SYSTEM.norm>
0

>  <SCORE.heavy>
14

>  <SCORE.norm>
-0.908427

>  <RMSD>
3.258

$$$$
ligand
 OpenBabel11021811413D
libRbt.so/2013.1/901 2013/11/27
 14 13  0  0  0  0  0  0  0  0999 V2000
   47.8277    8.4135   15.9554 N   0  0  0  0  0  0  0  0  0  0  0  0
   48.6647    7.8423   17.0325 C   0  0  0  0  0  0  0  0  0  0  0  0
   47.8255    7.5475   18.2946 C   0  0  0  0  0  0  0  0  0  0  0  0
   47.2062    8.7899   18.9557 C   0  0  0  0  0  0  0  0  0  0  0  0
   46.5860    8.4456   20.2646 N   0  0  0  0  0  0  0  0  0  0  0  0
   45.1781    8.0143   20.0680 C   0  0  0  0  0  0  0  0  0  0  0  0
   44.8619    6.5336   20.4677 C   0  0  0  0  0  0  0  0  0  0  0  0
   45.6924    5.4741   19.6879 C   0  0  0  0  0  0  0  0  0  0  0  0
   45.2424    4.0452   19.9221 C   0  0  0  0  0  0  0  0  0  0  0  0
   46.1056    3.1792   19.1416 N   0  0  0  0  0  0  0  0  0  0  0  0
   45.2560    2.1085   18.6503 C   0  0  0  0  0  0  0  0  0  0  0  0
   45.8658    1.4280   17.4303 C   0  0  0  0  0  0  0  0  0  0  0  0
   44.8405    0.4123   16.9038 C   0  0  0  0  0  0  0  0  0  0  0  0
   45.2914   -0.2414   15.6660 N   0  0  0  0  0  0  0  0  0  0  0  0
  1  2  1  0  0  0  0
  2  3  1  0  0  0  0
  3  4  1  0  0  0  0
  4  5  1  0  0  0  0
  5  6  1  0  0  0  0
  6  7  1  0  0  0  0
  7  8  1  0  0  0  0
  8  9  1  0  0  0  0
  9 10  1  0  0  0  0
 10 11  1  0  0  0  0
 11 12  1  0  0  0  0
 12 13  1  0  0  0  0
 13 14  1  0  0  0  0
M  END
>  <CHROM.1>
-63.57508517,-171.71213392,-87.78929454,116.52111145,-59.46278821,-171.31159366
-179.74882646,-143.10822890,158.88962929,-174.52993902,176.12434262,46.17446152
5.14240923,18.46032435,-1.15842565,-0.97279491,-2.59287600

>  <Name>
ligand

>  <RI>
0

>  <Rbt.Current_Directory>
/home/itssahil/PROJECTS/Mol_Feturizer/New_Systems/rnas/1TN2

>  <Rbt.Executable>
rbdock ($Id: //depot/dev/client3/rdock/2013.1/src/exe/rbdock.cxx#4 $)

>  <Rbt.Library>
libRbt.so (2013.1, Build901 2013/11/27)

>  <Rbt.Parameter_File>
/export/apps/rDock/src/rDock_2013.1_src/data/scripts/dock_solv.prm

>  <Rbt.Receptor>
prm/pocket_docking_3.prm

>  <SCORE>
-8.2557

>  <SCORE.INTER>
-5.98878

>  <SCORE.INTER.CONST>
1

>  <SCORE.INTER.POLAR>
0

>  <SCORE.INTER.ROT>
11

>  <SCORE.INTER.SOLV>
13.0557

>  <SCORE.INTER.VDW>
-19.2778

>  <SCORE.INTER.norm>
-0.42777

>  <SCORE.INTRA>
-2.26692

>  <SCORE.INTRA.DIHEDRAL>
-4.14585

>  <SCORE.INTRA.DIHEDRAL.0>
7.79482

>  <SCORE.INTRA.POLAR>
0

>  <SCORE.INTRA.POLAR.0>
0

>  <SCORE.INTRA.REPUL>
0

>  <SCORE.INTRA.REPUL.0>
0

>  <SCORE.INTRA.SOLV>
0.960313

>  <SCORE.INTRA.SOLV.lig_0>
-49.456

>  <SCORE.INTRA.VDW>
-0.674154

>  <SCORE.INTRA.VDW.0>
-0.478406

>  <SCORE.INTRA.norm>
-0.161923

>  <SCORE.RESTR>
0

>  <SCORE.RESTR.CAVITY>
0

>  <SCORE.RESTR.norm>
0

>  <SCORE.SYSTEM>
0

>  <SCORE.SYSTEM.CONST>
0

>  <SCORE.SYSTEM.DIHEDRAL>
0

>  <SCORE.SYSTEM.SOLV>
0

>  <SCORE.SYSTEM.norm>
0

>  <SCORE.heavy>
14

>  <SCORE.norm>
-0.589693

>  <RMSD>
3.260

$$$$
ligand
 OpenBabel11021811413D
libRbt.so/2013.1/901 2013/11/27
 14 13  0  0  0  0  0  0  0  0999 V2000
   48.3649    7.9297   15.5704 N   0  0  0  0  0  0  0  0  0  0  0  0
   48.7526    9.1436   16.3209 C   0  0  0  0  0  0  0  0  0  0  0  0
   48.5067    8.9659   17.8349 C   0  0  0  0  0  0  0  0  0  0  0  0
   47.0365    8.7362   18.2217 C   0  0  0  0  0  0  0  0  0  0  0  0
   46.8913    8.5684   19.6939 N   0  0  0  0  0  0  0  0  0  0  0  0
   45.4730    8.2962   20.0421 C   0  0  0  0  0  0  0  0  0  0  0  0
   44.9935    6.8216   19.8233 C   0  0  0  0  0  0  0  0  0  0  0  0
   45.7706    5.7695   20.6656 C   0  0  0  0  0  0  0  0  0  0  0  0
   45.3705    4.3352   20.3799 C   0  0  0  0  0  0  0  0  0  0  0  0
   45.8456    4.0031   19.0502 N   0  0  0  0  0  0  0  0  0  0  0  0
   45.5066    2.6059   18.8438 C   0  0  0  0  0  0  0  0  0  0  0  0
   45.8402    2.1545   17.4267 C   0  0  0  0  0  0  0  0  0  0  0  0
   45.3712    0.6990   17.2800 C   0  0  0  0  0  0  0  0  0  0  0  0
   45.6207    0.1682   15.9314 N   0  0  0  0  0  0  0  0  0  0  0  0
  1  2  1  0  0  0  0
  2  3  1  0  0  0  0
  3  4  1  0  0  0  0
  4  5  1  0  0  0  0
  5  6  1  0  0  0  0
  6  7  1  0  0  0  0
  7  8  1  0  0  0  0
  8  9  1  0  0  0  0
  9 10  1  0  0  0  0
 10 11  1  0  0  0  0
 11 12  1  0  0  0  0
 12 13  1  0  0  0  0
 13 14  1  0  0  0  0
M  END
>  <CHROM.1>
-62.15890679,179.70271729,-177.84368293,79.69083576,60.73337486,-175.94139070
69.78992691,177.05838474,174.90090813,-176.65436679,178.80042631,46.38158493
5.58566266,18.36351740,-1.04793663,-1.00992627,-2.62210870

>  <Name>
ligand

>  <RI>
0

>  <Rbt.Current_Directory>
/home/itssahil/PROJECTS/Mol_Feturizer/New_Systems/rnas/1TN2

>  <Rbt.Executable>
rbdock ($Id: //depot/dev/client3/rdock/2013.1/src/exe/rbdock.cxx#4 $)

>  <Rbt.Library>
libRbt.so (2013.1, Build901 2013/11/27)

>  <Rbt.Parameter_File>
/export/apps/rDock/src/rDock_2013.1_src/data/scripts/dock_solv.prm

>  <Rbt.Receptor>
prm/pocket_docking_3.prm

>  <SCORE>
-7.31398

>  <SCORE.INTER>
-3.94008

>  <SCORE.INTER.CONST>
1

>  <SCORE.INTER.POLAR>
0

>  <SCORE.INTER.ROT>
11

>  <SCORE.INTER.SOLV>
11.6629

>  <SCORE.INTER.VDW>
-17.4477

>  <SCORE.INTER.norm>
-0.281434

>  <SCORE.INTRA>
-3.39857

>  <SCORE.INTRA.DIHEDRAL>
-6.97977

>  <SCORE.INTRA.DIHEDRAL.0>
7.79482

>  <SCORE.INTRA.POLAR>
0

>  <SCORE.INTRA.POLAR.0>
0

>  <SCORE.INTRA.REPUL>
0

>  <SCORE.INTRA.REPUL.0>
0

>  <SCORE.INTRA.SOLV>
1.37088

>  <SCORE.INTRA.SOLV.lig_0>
-49.456

>  <SCORE.INTRA.VDW>
-0.594124

>  <SCORE.INTRA.VDW.0>
-0.478406

>  <SCORE.INTRA.norm>
-0.242755

>  <SCORE.RESTR>
0.0246695

>  <SCORE.RESTR.CAVITY>
0.0246695

>  <SCORE.RESTR.norm>
0.00176211

>  <SCORE.SYSTEM>
0

>  <SCORE.SYSTEM.CONST>
0

>  <SCORE.SYSTEM.DIHEDRAL>
0

>  <SCORE.SYSTEM.SOLV>
0

>  <SCORE.SYSTEM.norm>
0

>  <SCORE.heavy>
14

>  <SCORE.norm>
-0.522427

>  <RMSD>
3.262

$$$$
ligand
 OpenBabel11021811413D
libRbt.so/2013.1/901 2013/11/27
 14 13  0  0  0  0  0  0  0  0999 V2000
   45.7535    1.2847   16.4482 N   0  0  0  0  0  0  0  0  0  0  0  0
   45.9358    0.9277   17.8717 C   0  0  0  0  0  0  0  0  0  0  0  0
   44.8695    1.6067   18.7582 C   0  0  0  0  0  0  0  0  0  0  0  0
   44.9628    3.1405   18.8101 C   0  0  0  0  0  0  0  0  0  0  0  0
   46.1702    3.5773   19.5635 N   0  0  0  0  0  0  0  0  0  0  0  0
   46.0843    5.0273   19.8751 C   0  0  0  0  0  0  0  0  0  0  0  0
   44.8848    5.4535   20.7871 C   0  0  0  0  0  0  0  0  0  0  0  0
   44.8000    6.9844   21.0506 C   0  0  0  0  0  0  0  0  0  0  0  0
   44.5451    7.8103   19.8049 C   0  0  0  0  0  0  0  0  0  0  0  0
   45.7460    7.7623   18.9925 N   0  0  0  0  0  0  0  0  0  0  0  0
   45.8204    9.0454   18.3160 C   0  0  0  0  0  0  0  0  0  0  0  0
   46.8221    9.0130   17.1675 C   0  0  0  0  0  0  0  0  0  0  0  0
   48.2136    8.7697   17.7712 C   0  0  0  0  0  0  0  0  0  0  0  0
   49.2705    8.7693   16.7486 N   0  0  0  0  0  0  0  0  0  0  0  0
  1  2  1  0  0  0  0
  2  3  1  0  0  0  0
  3  4  1  0  0  0  0
  4  5  1  0  0  0  0
  5  6  1  0  0  0  0
  6  7  1  0  0  0  0
  7  8  1  0  0  0  0
  8  9  1  0  0  0  0
  9 10  1  0  0  0  0
 10 11  1  0  0  0  0
 11 12  1  0  0  0  0
 12 13  1  0  0  0  0
 13 14  1  0  0  0  0
M  END
>  <CHROM.1>
-65.52541750,-70.02743426,-166.94220784,62.09780951,-177.99591639,63.89142713
-70.16627018,-147.41357631,-165.46677492,-64.11729469,-177.89262988,45.99102452
5.65527813,18.71212411,-1.91406575,0.87772535,0.24365077

>  <Name>
ligand

>  <RI>
0

>  <Rbt.Current_Directory>
/home/itssahil/PROJECTS/Mol_Feturizer/New_Systems/rnas/1TN2

>  <Rbt.Executable>
rbdock ($Id: //depot/dev/client3/rdock/2013.1/src/exe/rbdock.cxx#4 $)

>  <Rbt.Library>
libRbt.so (2013.1, Build901 2013/11/27)

>  <Rbt.Parameter_File>
/export/apps/rDock/src/rDock_2013.1_src/data/scripts/dock_solv.prm

>  <Rbt.Receptor>
prm/pocket_docking_4.prm

>  <SCORE>
-6.47732

>  <SCORE.INTER>
-5.57238

>  <SCORE.INTER.CONST>
1

>  <SCORE.INTER.POLAR>
0

>  <SCORE.INTER.ROT>
11

>  <SCORE.INTER.SOLV>
10.6845

>  <SCORE.INTER.VDW>
-18.2098

>  <SCORE.INTER.norm>
-0.398027

>  <SCORE.INTRA>
-0.904937

>  <SCORE.INTRA.DIHEDRAL>
-5.78236

>  <SCORE.INTRA.DIHEDRAL.0>
7.79482

>  <SCORE.INTRA.POLAR>
0

>  <SCORE.INTRA.POLAR.0>
0

>  <SCORE.INTRA.REPUL>
0

>  <SCORE.INTRA.REPUL.0>
0

>  <SCORE.INTRA.SOLV>
2.89892

>  <SCORE.INTRA.SOLV.lig_0>
-49.456

>  <SCORE.INTRA.VDW>
0.53678

>  <SCORE.INTRA.VDW.0>
-0.478406

>  <SCORE.INTRA.norm>
-0.0646384

>  <SCORE.RESTR>
0

>  <SCORE.RESTR.CAVITY>
0

>  <SCORE.RESTR.norm>
0

>  <SCORE.SYSTEM>
0

>  <SCORE.SYSTEM.CONST>
0

>  <SCORE.SYSTEM.DIHEDRAL>
0

>  <SCORE.SYSTEM.SOLV>
0

>  <SCORE.SYSTEM.norm>
0

>  <SCORE.heavy>
14

>  <SCORE.norm>
-0.462665

>  <RMSD>
3.269

$$$$
ligand
 OpenBabel11021811413D
libRbt.so/2013.1/901 2013/11/27
 14 13  0  0  0  0  0  0  0  0999 V2000
   46.5147    9.6406   17.9868 N   0  0  0  0  0  0  0  0  0  0  0  0
   45.4156    8.8245   18.5463 C   0  0  0  0  0  0  0  0  0  0  0  0
   45.6870    8.4592   20.0217 C   0  0  0  0  0  0  0  0  0  0  0  0
   44.6241    7.5514   20.6621 C   0  0  0  0  0  0  0  0  0  0  0  0
   44.6054    6.2112   20.0142 N   0  0  0  0  0  0  0  0  0  0  0  0
   45.6109    5.3203   20.6483 C   0  0  0  0  0  0  0  0  0  0  0  0
   46.2782    4.2691   19.6987 C   0  0  0  0  0  0  0  0  0  0  0  0
   45.2915    3.2071   19.1337 C   0  0  0  0  0  0  0  0  0  0  0  0
   45.9383    2.1988   18.2043 C   0  0  0  0  0  0  0  0  0  0  0  0
   44.9153    1.2518   17.8030 N   0  0  0  0  0  0  0  0  0  0  0  0
   45.3961    0.6432   16.5749 C   0  0  0  0  0  0  0  0  0  0  0  0
   45.5492   -0.8660   16.7232 C   0  0  0  0  0  0  0  0  0  0  0  0
   46.0914   -1.4111   15.3932 C   0  0  0  0  0  0  0  0  0  0  0  0
   45.1418   -1.2207   14.2865 N   0  0  0  0  0  0  0  0  0  0  0  0
  1  2  1  0  0  0  0
  2  3  1  0  0  0  0
  3  4  1  0  0  0  0
  4  5  1  0  0  0  0
  5  6  1  0  0  0  0
  6  7  1  0  0  0  0
  7  8  1  0  0  0  0
  8  9  1  0  0  0  0
  9 10  1  0  0  0  0
 10 11  1  0  0  0  0
 11 12  1  0  0  0  0
 12 13  1  0  0  0  0
 13 14  1  0  0  0  0
M  END
>  <CHROM.1>
-177.14094008,65.31257527,86.06265846,-147.48677225,-64.73363974,179.44899543
177.83517608,158.90779996,120.06283516,-178.64552108,-64.45711554,45.50433364
3.86277592,18.26436672,-1.56607438,-1.40260940,-2.74331789

>  <Name>
ligand

>  <RI>
0

>  <Rbt.Current_Directory>
/home/itssahil/PROJECTS/Mol_Feturizer/New_Systems/rnas/1TN2

>  <Rbt.Executable>
rbdock ($Id: //depot/dev/client3/rdock/2013.1/src/exe/rbdock.cxx#4 $)

>  <Rbt.Library>
libRbt.so (2013.1, Build901 2013/11/27)

>  <Rbt.Parameter_File>
/export/apps/rDock/src/rDock_2013.1_src/data/scripts/dock_solv.prm

>  <Rbt.Receptor>
prm/blind_docking_60.prm

>  <SCORE>
-9.77628

>  <SCORE.INTER>
-7.67414

>  <SCORE.INTER.CONST>
1

>  <SCORE.INTER.POLAR>
0

>  <SCORE.INTER.ROT>
11

>  <SCORE.INTER.SOLV>
11.2875

>  <SCORE.INTER.VDW>
-19.8119

>  <SCORE.INTER.norm>
-0.548153

>  <SCORE.INTRA>
-2.10214

>  <SCORE.INTRA.DIHEDRAL>
-4.78668

>  <SCORE.INTRA.DIHEDRAL.0>
7.79482

>  <SCORE.INTRA.POLAR>
0

>  <SCORE.INTRA.POLAR.0>
0

>  <SCORE.INTRA.REPUL>
0

>  <SCORE.INTRA.REPUL.0>
0

>  <SCORE.INTRA.SOLV>
1.39901

>  <SCORE.INTRA.SOLV.lig_0>
-49.456

>  <SCORE.INTRA.VDW>
-0.408304

>  <SCORE.INTRA.VDW.0>
-0.478406

>  <SCORE.INTRA.norm>
-0.150153

>  <SCORE.RESTR>
0

>  <SCORE.RESTR.CAVITY>
0

>  <SCORE.RESTR.norm>
0

>  <SCORE.SYSTEM>
0

>  <SCORE.SYSTEM.CONST>
0

>  <SCORE.SYSTEM.DIHEDRAL>
0

>  <SCORE.SYSTEM.SOLV>
0

>  <SCORE.SYSTEM.norm>
0

>  <SCORE.heavy>
14

>  <SCORE.norm>
-0.698306

>  <RMSD>
3.277

$$$$
ligand
 OpenBabel11021811413D
libRbt.so/2013.1/901 2013/11/27
 14 13  0  0  0  0  0  0  0  0999 V2000
   41.9374   11.4519   18.4670 N   0  0  0  0  0  0  0  0  0  0  0  0
   42.1577   10.0310   18.8130 C   0  0  0  0  0  0  0  0  0  0  0  0
   41.0153    9.4889   19.6991 C   0  0  0  0  0  0  0  0  0  0  0  0
   41.1634    8.0124   20.1017 C   0  0  0  0  0  0  0  0  0  0  0  0
   42.3855    7.8032   20.9258 N   0  0  0  0  0  0  0  0  0  0  0  0
   43.3254    6.8892   20.2274 C   0  0  0  0  0  0  0  0  0  0  0  0
   44.5914    6.4658   21.0461 C   0  0  0  0  0  0  0  0  0  0  0  0
   45.5259    5.4699   20.3008 C   0  0  0  0  0  0  0  0  0  0  0  0
   44.9035    4.1096   20.0534 C   0  0  0  0  0  0  0  0  0  0  0  0
   45.8447    3.3317   19.2701 N   0  0  0  0  0  0  0  0  0  0  0  0
   45.1542    2.1013   18.9253 C   0  0  0  0  0  0  0  0  0  0  0  0
   45.8688    1.3562   17.8038 C   0  0  0  0  0  0  0  0  0  0  0  0
   45.8180    2.2432   16.5506 C   0  0  0  0  0  0  0  0  0  0  0  0
   46.3755    1.5679   15.3691 N   0  0  0  0  0  0  0  0  0  0  0  0
  1  2  1  0  0  0  0
  2  3  1  0  0  0  0
  3  4  1  0  0  0  0
  4  5  1  0  0  0  0
  5  6  1  0  0  0  0
  6  7  1  0  0  0  0
  7  8  1  0  0  0  0
  8  9  1  0  0  0  0
  9 10  1  0  0  0  0
 10 11  1  0  0  0  0
 11 12  1  0  0  0  0
 12 13  1  0  0  0  0
 13 14  1  0  0  0  0
M  END
>  <CHROM.1>
179.77585366,62.66859655,-117.51989577,-174.04433482,177.97016977,-65.92681106
175.79952633,-173.63085130,164.68519356,-63.88510634,-174.85845912,44.00472040
5.73717593,19.11118720,2.87500899,-1.06943404,1.53646309

>  <Name>
ligand

>  <RI>
0

>  <Rbt.Current_Directory>
/home/itssahil/PROJECTS/Mol_Feturizer/New_Systems/rnas/1TN2

>  <Rbt.Executable>
rbdock ($Id: //depot/dev/client3/rdock/2013.1/src/exe/rbdock.cxx#4 $)

>  <Rbt.Library>
libRbt.so (2013.1, Build901 2013/11/27)

>  <Rbt.Parameter_File>
/export/apps/rDock/src/rDock_2013.1_src/data/scripts/dock_solv.prm

>  <Rbt.Receptor>
prm/blind_docking_80.prm

>  <SCORE>
-14.0691

>  <SCORE.INTER>
-11.1043

>  <SCORE.INTER.CONST>
1

>  <SCORE.INTER.POLAR>
0

>  <SCORE.INTER.ROT>
11

>  <SCORE.INTER.SOLV>
16.6687

>  <SCORE.INTER.VDW>
-23.8924

>  <SCORE.INTER.norm>
-0.793164

>  <SCORE.INTRA>
-2.96479

>  <SCORE.INTRA.DIHEDRAL>
-5.94346

>  <SCORE.INTRA.DIHEDRAL.0>
7.79482

>  <SCORE.INTRA.POLAR>
0

>  <SCORE.INTRA.POLAR.0>
0

>  <SCORE.INTRA.REPUL>
0

>  <SCORE.INTRA.REPUL.0>
0

>  <SCORE.INTRA.SOLV>
0.849799

>  <SCORE.INTRA.SOLV.lig_0>
-49.456

>  <SCORE.INTRA.VDW>
-0.417961

>  <SCORE.INTRA.VDW.0>
-0.478406

>  <SCORE.INTRA.norm>
-0.211771

>  <SCORE.RESTR>
0

>  <SCORE.RESTR.CAVITY>
0

>  <SCORE.RESTR.norm>
0

>  <SCORE.SYSTEM>
0

>  <SCORE.SYSTEM.CONST>
0

>  <SCORE.SYSTEM.DIHEDRAL>
0

>  <SCORE.SYSTEM.SOLV>
0

>  <SCORE.SYSTEM.norm>
0

>  <SCORE.heavy>
14

>  <SCORE.norm>
-1.00493

>  <RMSD>
3.287

$$$$
ligand
 OpenBabel11021811413D
libRbt.so/2013.1/901 2013/11/27
 14 13  0  0  0  0  0  0  0  0999 V2000
   46.4327   10.9910   18.4515 N   0  0  0  0  0  0  0  0  0  0  0  0
   46.1411    9.9894   19.4998 C   0  0  0  0  0  0  0  0  0  0  0  0
   46.6402    8.5879   19.0869 C   0  0  0  0  0  0  0  0  0  0  0  0
   46.2785    7.4640   20.0717 C   0  0  0  0  0  0  0  0  0  0  0  0
   46.7623    6.1452   19.5787 N   0  0  0  0  0  0  0  0  0  0  0  0
   45.7277    5.1027   19.8018 C   0  0  0  0  0  0  0  0  0  0  0  0
   45.9685    3.7419   19.0654 C   0  0  0  0  0  0  0  0  0  0  0  0
   44.7843    2.7394   19.1804 C   0  0  0  0  0  0  0  0  0  0  0  0
   45.0704    1.3773   18.5789 C   0  0  0  0  0  0  0  0  0  0  0  0
   45.2646    1.5586   17.1528 N   0  0  0  0  0  0  0  0  0  0  0  0
   45.2604    0.2248   16.5778 C   0  0  0  0  0  0  0  0  0  0  0  0
   45.8640    0.2191   15.1782 C   0  0  0  0  0  0  0  0  0  0  0  0
   45.8628   -1.2333   14.6775 C   0  0  0  0  0  0  0  0  0  0  0  0
   44.5036   -1.7283   14.4123 N   0  0  0  0  0  0  0  0  0  0  0  0
  1  2  1  0  0  0  0
  2  3  1  0  0  0  0
  3  4  1  0  0  0  0
  4  5  1  0  0  0  0
  5  6  1  0  0  0  0
  6  7  1  0  0  0  0
  7  8  1  0  0  0  0
  8  9  1  0  0  0  0
  9 10  1  0  0  0  0
 10 11  1  0  0  0  0
 11 12  1  0  0  0  0
 12 13  1  0  0  0  0
 13 14  1  0  0  0  0
M  END
>  <CHROM.1>
-175.39489467,178.36450254,-137.81348495,167.49884984,-172.90648203,-174.56550201
-64.27291999,-168.59611017,-162.79328038,177.96177504,69.19864036,45.75436645
3.94126853,17.95120106,-0.95196346,-1.38021941,-2.15577410

>  <Name>
ligand

>  <RI>
0

>  <Rbt.Current_Directory>
/home/itssahil/PROJECTS/Mol_Feturizer/New_Systems/rnas/1TN2

>  <Rbt.Executable>
rbdock ($Id: //depot/dev/client3/rdock/2013.1/src/exe/rbdock.cxx#4 $)

>  <Rbt.Library>
libRbt.so (2013.1, Build901 2013/11/27)

>  <Rbt.Parameter_File>
/export/apps/rDock/src/rDock_2013.1_src/data/scripts/dock_solv.prm

>  <Rbt.Receptor>
prm/pocket_docking_3.prm

>  <SCORE>
-7.26201

>  <SCORE.INTER>
-4.42715

>  <SCORE.INTER.CONST>
1

>  <SCORE.INTER.POLAR>
0

>  <SCORE.INTER.ROT>
11

>  <SCORE.INTER.SOLV>
14.5544

>  <SCORE.INTER.VDW>
-18.7362

>  <SCORE.INTER.norm>
-0.316225

>  <SCORE.INTRA>
-2.83486

>  <SCORE.INTRA.DIHEDRAL>
-5.58244

>  <SCORE.INTRA.DIHEDRAL.0>
7.79482

>  <SCORE.INTRA.POLAR>
0

>  <SCORE.INTRA.POLAR.0>
0

>  <SCORE.INTRA.REPUL>
0

>  <SCORE.INTRA.REPUL.0>
0

>  <SCORE.INTRA.SOLV>
1.0633

>  <SCORE.INTRA.SOLV.lig_0>
-49.456

>  <SCORE.INTRA.VDW>
-0.575291

>  <SCORE.INTRA.VDW.0>
-0.478406

>  <SCORE.INTRA.norm>
-0.20249

>  <SCORE.RESTR>
0

>  <SCORE.RESTR.CAVITY>
0

>  <SCORE.RESTR.norm>
0

>  <SCORE.SYSTEM>
0

>  <SCORE.SYSTEM.CONST>
0

>  <SCORE.SYSTEM.DIHEDRAL>
0

>  <SCORE.SYSTEM.SOLV>
0

>  <SCORE.SYSTEM.norm>
0

>  <SCORE.heavy>
14

>  <SCORE.norm>
-0.518715

>  <RMSD>
3.293

$$$$
ligand
 OpenBabel11021811413D
libRbt.so/2013.1/901 2013/11/27
 14 13  0  0  0  0  0  0  0  0999 V2000
   45.1837   -1.2766   14.6369 N   0  0  0  0  0  0  0  0  0  0  0  0
   45.8398   -1.5146   15.9408 C   0  0  0  0  0  0  0  0  0  0  0  0
   45.4244   -0.4483   16.9774 C   0  0  0  0  0  0  0  0  0  0  0  0
   45.7659    0.9972   16.5803 C   0  0  0  0  0  0  0  0  0  0  0  0
   45.4659    1.9417   17.6913 N   0  0  0  0  0  0  0  0  0  0  0  0
   46.3886    3.1048   17.6397 C   0  0  0  0  0  0  0  0  0  0  0  0
   45.9237    4.3730   18.4319 C   0  0  0  0  0  0  0  0  0  0  0  0
   45.7852    4.1486   19.9652 C   0  0  0  0  0  0  0  0  0  0  0  0
   45.3362    5.3789   20.7292 C   0  0  0  0  0  0  0  0  0  0  0  0
   46.3395    6.4082   20.5333 N   0  0  0  0  0  0  0  0  0  0  0  0
   45.6104    7.6603   20.4311 C   0  0  0  0  0  0  0  0  0  0  0  0
   46.4914    8.7753   19.8798 C   0  0  0  0  0  0  0  0  0  0  0  0
   46.8894    8.3878   18.4475 C   0  0  0  0  0  0  0  0  0  0  0  0
   47.7868    9.3778   17.8333 N   0  0  0  0  0  0  0  0  0  0  0  0
  1  2  1  0  0  0  0
  2  3  1  0  0  0  0
  3  4  1  0  0  0  0
  4  5  1  0  0  0  0
  5  6  1  0  0  0  0
  6  7  1  0  0  0  0
  7  8  1  0  0  0  0
  8  9  1  0  0  0  0
  9 10  1  0  0  0  0
 10 11  1  0  0  0  0
 11 12  1  0  0  0  0
 12 13  1  0  0  0  0
 13 14  1  0  0  0  0
M  END
>  <CHROM.1>
-59.45090244,-173.94171716,150.06508005,161.35224595,62.59974705,179.94519306
-61.17056057,142.75838577,-165.71598820,63.73411697,-177.91322542,46.01640971
4.09386457,18.26578792,-1.86273651,1.18343978,0.65467259

>  <Name>
ligand

>  <RI>
0

>  <Rbt.Current_Directory>
/home/itssahil/PROJECTS/Mol_Feturizer/New_Systems/rnas/1TN2

>  <Rbt.Executable>
rbdock ($Id: //depot/dev/client3/rdock/2013.1/src/exe/rbdock.cxx#4 $)

>  <Rbt.Library>
libRbt.so (2013.1, Build901 2013/11/27)

>  <Rbt.Parameter_File>
/export/apps/rDock/src/rDock_2013.1_src/data/scripts/dock_solv.prm

>  <Rbt.Receptor>
prm/pocket_docking_4.prm

>  <SCORE>
-9.0283

>  <SCORE.INTER>
-6.44209

>  <SCORE.INTER.CONST>
1

>  <SCORE.INTER.POLAR>
0

>  <SCORE.INTER.ROT>
11

>  <SCORE.INTER.SOLV>
13.5406

>  <SCORE.INTER.VDW>
-19.7416

>  <SCORE.INTER.norm>
-0.460149

>  <SCORE.INTRA>
-2.58621

>  <SCORE.INTRA.DIHEDRAL>
-5.71204

>  <SCORE.INTRA.DIHEDRAL.0>
7.79482

>  <SCORE.INTRA.POLAR>
0

>  <SCORE.INTRA.POLAR.0>
0

>  <SCORE.INTRA.REPUL>
0

>  <SCORE.INTRA.REPUL.0>
0

>  <SCORE.INTRA.SOLV>
1.87339

>  <SCORE.INTRA.SOLV.lig_0>
-49.456

>  <SCORE.INTRA.VDW>
-0.666887

>  <SCORE.INTRA.VDW.0>
-0.478406

>  <SCORE.INTRA.norm>
-0.184729

>  <SCORE.RESTR>
0

>  <SCORE.RESTR.CAVITY>
0

>  <SCORE.RESTR.norm>
0

>  <SCORE.SYSTEM>
0

>  <SCORE.SYSTEM.CONST>
0

>  <SCORE.SYSTEM.DIHEDRAL>
0

>  <SCORE.SYSTEM.SOLV>
0

>  <SCORE.SYSTEM.norm>
0

>  <SCORE.heavy>
14

>  <SCORE.norm>
-0.644878

>  <RMSD>
3.301

$$$$
ligand
 OpenBabel11021811413D
libRbt.so/2013.1/901 2013/11/27
 14 13  0  0  0  0  0  0  0  0999 V2000
   44.9027   -1.3458   13.9614 N   0  0  0  0  0  0  0  0  0  0  0  0
   46.0120   -1.5953   14.9071 C   0  0  0  0  0  0  0  0  0  0  0  0
   45.6296   -1.1688   16.3409 C   0  0  0  0  0  0  0  0  0  0  0  0
   45.2799    0.3206   16.4936 C   0  0  0  0  0  0  0  0  0  0  0  0
   45.0022    0.6612   17.9161 N   0  0  0  0  0  0  0  0  0  0  0  0
   45.9148    1.7407   18.3730 C   0  0  0  0  0  0  0  0  0  0  0  0
   45.2207    2.9783   19.0355 C   0  0  0  0  0  0  0  0  0  0  0  0
   46.1922    4.1451   19.3746 C   0  0  0  0  0  0  0  0  0  0  0  0
   45.5123    5.3535   19.9881 C   0  0  0  0  0  0  0  0  0  0  0  0
   46.4586    6.4526   19.9579 N   0  0  0  0  0  0  0  0  0  0  0  0
   45.7460    7.6058   20.4795 C   0  0  0  0  0  0  0  0  0  0  0  0
   46.3458    8.9103   19.9678 C   0  0  0  0  0  0  0  0  0  0  0  0
   46.1042    8.9699   18.4519 C   0  0  0  0  0  0  0  0  0  0  0  0
   46.6352   10.2034   17.8528 N   0  0  0  0  0  0  0  0  0  0  0  0
  1  2  1  0  0  0  0
  2  3  1  0  0  0  0
  3  4  1  0  0  0  0
  4  5  1  0  0  0  0
  5  6  1  0  0  0  0
  6  7  1  0  0  0  0
  7  8  1  0  0  0  0
  8  9  1  0  0  0  0
  9 10  1  0  0  0  0
 10 11  1  0  0  0  0
 11 12  1  0  0  0  0
 12 13  1  0  0  0  0
 13 14  1  0  0  0  0
M  END
>  <CHROM.1>
-60.23158255,-176.67318832,122.50583501,127.76948601,-174.35148809,178.74141147
-166.84328780,176.74616736,-155.10699099,66.26020038,179.43450750,45.78258520
3.80218409,18.07885300,-2.28612888,1.44733908,1.08161674

>  <Name>
ligand

>  <RI>
0

>  <Rbt.Current_Directory>
/home/itssahil/PROJECTS/Mol_Feturizer/New_Systems/rnas/1TN2

>  <Rbt.Executable>
rbdock ($Id: //depot/dev/client3/rdock/2013.1/src/exe/rbdock.cxx#4 $)

>  <Rbt.Library>
libRbt.so (2013.1, Build901 2013/11/27)

>  <Rbt.Parameter_File>
/export/apps/rDock/src/rDock_2013.1_src/data/scripts/dock_solv.prm

>  <Rbt.Receptor>
prm/pocket_docking_7.prm

>  <SCORE>
-9.68472

>  <SCORE.INTER>
-7.60358

>  <SCORE.INTER.CONST>
1

>  <SCORE.INTER.POLAR>
0

>  <SCORE.INTER.ROT>
11

>  <SCORE.INTER.SOLV>
12.7813

>  <SCORE.INTER.VDW>
-20.2628

>  <SCORE.INTER.norm>
-0.543113

>  <SCORE.INTRA>
-2.08114

>  <SCORE.INTRA.DIHEDRAL>
-4.05279

>  <SCORE.INTRA.DIHEDRAL.0>
7.79482

>  <SCORE.INTRA.POLAR>
0

>  <SCORE.INTRA.POLAR.0>
0

>  <SCORE.INTRA.REPUL>
0

>  <SCORE.INTRA.REPUL.0>
0

>  <SCORE.INTRA.SOLV>
1.09149

>  <SCORE.INTRA.SOLV.lig_0>
-49.456

>  <SCORE.INTRA.VDW>
-0.600493

>  <SCORE.INTRA.VDW.0>
-0.478406

>  <SCORE.INTRA.norm>
-0.148653

>  <SCORE.RESTR>
0

>  <SCORE.RESTR.CAVITY>
0

>  <SCORE.RESTR.norm>
0

>  <SCORE.SYSTEM>
0

>  <SCORE.SYSTEM.CONST>
0

>  <SCORE.SYSTEM.DIHEDRAL>
0

>  <SCORE.SYSTEM.SOLV>
0

>  <SCORE.SYSTEM.norm>
0

>  <SCORE.heavy>
14

>  <SCORE.norm>
-0.691766

>  <RMSD>
3.308

$$$$
ligand
 OpenBabel11021811413D
libRbt.so/2013.1/901 2013/11/27
 14 13  0  0  0  0  0  0  0  0999 V2000
   46.0214   10.5798   18.5321 N   0  0  0  0  0  0  0  0  0  0  0  0
   45.9390    9.5430   19.5835 C   0  0  0  0  0  0  0  0  0  0  0  0
   46.3698    8.1630   19.0413 C   0  0  0  0  0  0  0  0  0  0  0  0
   46.2048    7.0040   20.0381 C   0  0  0  0  0  0  0  0  0  0  0  0
   46.6058    5.7089   19.4229 N   0  0  0  0  0  0  0  0  0  0  0  0
   46.1525    4.5760   20.2701 C   0  0  0  0  0  0  0  0  0  0  0  0
   44.8972    3.7997   19.7469 C   0  0  0  0  0  0  0  0  0  0  0  0
   45.1234    3.0638   18.3950 C   0  0  0  0  0  0  0  0  0  0  0  0
   46.0368    1.8578   18.4961 C   0  0  0  0  0  0  0  0  0  0  0  0
   46.0804    1.2290   17.1895 N   0  0  0  0  0  0  0  0  0  0  0  0
   45.1956    0.0800   17.2711 C   0  0  0  0  0  0  0  0  0  0  0  0
   45.6694   -1.0539   16.3694 C   0  0  0  0  0  0  0  0  0  0  0  0
   45.4971   -0.5932   14.9140 C   0  0  0  0  0  0  0  0  0  0  0  0
   45.8813   -1.6369   13.9518 N   0  0  0  0  0  0  0  0  0  0  0  0
  1  2  1  0  0  0  0
  2  3  1  0  0  0  0
  3  4  1  0  0  0  0
  4  5  1  0  0  0  0
  5  6  1  0  0  0  0
  6  7  1  0  0  0  0
  7  8  1  0  0  0  0
  8  9  1  0  0  0  0
  9 10  1  0  0  0  0
 10 11  1  0  0  0  0
 11 12  1  0  0  0  0
 12 13  1  0  0  0  0
 13 14  1  0  0  0  0
M  END
>  <CHROM.1>
-175.24548559,178.39346683,-166.97123634,103.95435519,64.40749697,70.63777478
176.25092072,-101.51621446,-148.65245383,-67.96598544,-177.92180129,45.83376218
3.73711987,18.08760441,-1.02901259,-1.47788272,-2.22628806

>  <Name>
ligand

>  <RI>
0

>  <Rbt.Current_Directory>
/home/itssahil/PROJECTS/Mol_Feturizer/New_Systems/rnas/1TN2

>  <Rbt.Executable>
rbdock ($Id: //depot/dev/client3/rdock/2013.1/src/exe/rbdock.cxx#4 $)

>  <Rbt.Library>
libRbt.so (2013.1, Build901 2013/11/27)

>  <Rbt.Parameter_File>
/export/apps/rDock/src/rDock_2013.1_src/data/scripts/dock_solv.prm

>  <Rbt.Receptor>
prm/blind_docking_80.prm

>  <SCORE>
-9.02647

>  <SCORE.INTER>
-7.20268

>  <SCORE.INTER.CONST>
1

>  <SCORE.INTER.POLAR>
0

>  <SCORE.INTER.ROT>
11

>  <SCORE.INTER.SOLV>
12.164

>  <SCORE.INTER.VDW>
-19.7898

>  <SCORE.INTER.norm>
-0.514477

>  <SCORE.INTRA>
-1.8238

>  <SCORE.INTRA.DIHEDRAL>
-4.14108

>  <SCORE.INTRA.DIHEDRAL.0>
7.79482

>  <SCORE.INTRA.POLAR>
0

>  <SCORE.INTRA.POLAR.0>
0

>  <SCORE.INTRA.REPUL>
0

>  <SCORE.INTRA.REPUL.0>
0

>  <SCORE.INTRA.SOLV>
0.923408

>  <SCORE.INTRA.SOLV.lig_0>
-49.456

>  <SCORE.INTRA.VDW>
-0.214963

>  <SCORE.INTRA.VDW.0>
-0.478406

>  <SCORE.INTRA.norm>
-0.130271

>  <SCORE.RESTR>
0

>  <SCORE.RESTR.CAVITY>
0

>  <SCORE.RESTR.norm>
0

>  <SCORE.SYSTEM>
0

>  <SCORE.SYSTEM.CONST>
0

>  <SCORE.SYSTEM.DIHEDRAL>
0

>  <SCORE.SYSTEM.SOLV>
0

>  <SCORE.SYSTEM.norm>
0

>  <SCORE.heavy>
14

>  <SCORE.norm>
-0.644748

>  <RMSD>
3.322

$$$$
ligand
 OpenBabel11021811413D
libRbt.so/2013.1/901 2013/11/27
 14 13  0  0  0  0  0  0  0  0999 V2000
   43.1881    9.4442   18.7947 N   0  0  0  0  0  0  0  0  0  0  0  0
   42.2338    8.8901   19.7793 C   0  0  0  0  0  0  0  0  0  0  0  0
   42.5744    7.4238   20.1224 C   0  0  0  0  0  0  0  0  0  0  0  0
   44.0083    7.2021   20.6311 C   0  0  0  0  0  0  0  0  0  0  0  0
   44.2325    5.7755   20.9929 N   0  0  0  0  0  0  0  0  0  0  0  0
   45.6649    5.4213   20.8212 C   0  0  0  0  0  0  0  0  0  0  0  0
   46.0313    4.7193   19.4702 C   0  0  0  0  0  0  0  0  0  0  0  0
   45.4196    3.2983   19.3066 C   0  0  0  0  0  0  0  0  0  0  0  0
   45.8889    2.5653   18.0651 C   0  0  0  0  0  0  0  0  0  0  0  0
   45.3462    1.2210   18.1169 N   0  0  0  0  0  0  0  0  0  0  0  0
   45.5167    0.6713   16.7834 C   0  0  0  0  0  0  0  0  0  0  0  0
   45.5993   -0.8504   16.8139 C   0  0  0  0  0  0  0  0  0  0  0  0
   45.5875   -1.3457   15.3597 C   0  0  0  0  0  0  0  0  0  0  0  0
   46.7413   -0.8498   14.5946 N   0  0  0  0  0  0  0  0  0  0  0  0
  1  2  1  0  0  0  0
  2  3  1  0  0  0  0
  3  4  1  0  0  0  0
  4  5  1  0  0  0  0
  5  6  1  0  0  0  0
  6  7  1  0  0  0  0
  7  8  1  0  0  0  0
  8  9  1  0  0  0  0
  9 10  1  0  0  0  0
 10 11  1  0  0  0  0
 11 12  1  0  0  0  0
 12 13  1  0  0  0  0
 13 14  1  0  0  0  0
M  END
>  <CHROM.1>
55.68610767,177.54777119,151.72921387,-97.18467165,-66.70180721,-174.09181980
174.42388931,165.69305636,154.13039970,172.52440653,61.66607698,44.85947837
3.82756819,18.54674271,2.06161403,-0.97335120,0.86258890

>  <Name>
ligand

>  <RI>
0

>  <Rbt.Current_Directory>
/home/itssahil/PROJECTS/Mol_Feturizer/New_Systems/rnas/1TN2

>  <Rbt.Executable>
rbdock ($Id: //depot/dev/client3/rdock/2013.1/src/exe/rbdock.cxx#4 $)

>  <Rbt.Library>
libRbt.so (2013.1, Build901 2013/11/27)

>  <Rbt.Parameter_File>
/export/apps/rDock/src/rDock_2013.1_src/data/scripts/dock_solv.prm

>  <Rbt.Receptor>
prm/pocket_docking_6.prm

>  <SCORE>
-11.0452

>  <SCORE.INTER>
-8.88786

>  <SCORE.INTER.CONST>
1

>  <SCORE.INTER.POLAR>
0

>  <SCORE.INTER.ROT>
11

>  <SCORE.INTER.SOLV>
17.3737

>  <SCORE.INTER.VDW>
-22.6498

>  <SCORE.INTER.norm>
-0.634847

>  <SCORE.INTRA>
-2.15736

>  <SCORE.INTRA.DIHEDRAL>
-5.05446

>  <SCORE.INTRA.DIHEDRAL.0>
7.79482

>  <SCORE.INTRA.POLAR>
0

>  <SCORE.INTRA.POLAR.0>
0

>  <SCORE.INTRA.REPUL>
0

>  <SCORE.INTRA.REPUL.0>
0

>  <SCORE.INTRA.SOLV>
1.82895

>  <SCORE.INTRA.SOLV.lig_0>
-49.456

>  <SCORE.INTRA.VDW>
-0.544608

>  <SCORE.INTRA.VDW.0>
-0.478406

>  <SCORE.INTRA.norm>
-0.154097

>  <SCORE.RESTR>
0

>  <SCORE.RESTR.CAVITY>
0

>  <SCORE.RESTR.norm>
0

>  <SCORE.SYSTEM>
0

>  <SCORE.SYSTEM.CONST>
0

>  <SCORE.SYSTEM.DIHEDRAL>
0

>  <SCORE.SYSTEM.SOLV>
0

>  <SCORE.SYSTEM.norm>
0

>  <SCORE.heavy>
14

>  <SCORE.norm>
-0.788944

>  <RMSD>
3.323

$$$$
ligand
 OpenBabel11021811413D
libRbt.so/2013.1/901 2013/11/27
 14 13  0  0  0  0  0  0  0  0999 V2000
   45.5291   -0.2335   15.8112 N   0  0  0  0  0  0  0  0  0  0  0  0
   44.4793    0.6305   16.3931 C   0  0  0  0  0  0  0  0  0  0  0  0
   45.0715    1.9628   16.9013 C   0  0  0  0  0  0  0  0  0  0  0  0
   46.0840    1.8166   18.0490 C   0  0  0  0  0  0  0  0  0  0  0  0
   46.6370    3.1407   18.4458 N   0  0  0  0  0  0  0  0  0  0  0  0
   45.8016    3.7466   19.5143 C   0  0  0  0  0  0  0  0  0  0  0  0
   45.8742    5.3068   19.6271 C   0  0  0  0  0  0  0  0  0  0  0  0
   44.9752    5.9051   20.7470 C   0  0  0  0  0  0  0  0  0  0  0  0
   44.8571    7.4159   20.7001 C   0  0  0  0  0  0  0  0  0  0  0  0
   44.1878    7.7661   19.4616 N   0  0  0  0  0  0  0  0  0  0  0  0
   42.9901    8.4915   19.8477 C   0  0  0  0  0  0  0  0  0  0  0  0
   41.7947    7.5572   19.9932 C   0  0  0  0  0  0  0  0  0  0  0  0
   40.5953    8.4039   20.4454 C   0  0  0  0  0  0  0  0  0  0  0  0
   39.3919    7.5885   20.6677 N   0  0  0  0  0  0  0  0  0  0  0  0
  1  2  1  0  0  0  0
  2  3  1  0  0  0  0
  3  4  1  0  0  0  0
  4  5  1  0  0  0  0
  5  6  1  0  0  0  0
  6  7  1  0  0  0  0
  7  8  1  0  0  0  0
  8  9  1  0  0  0  0
  9 10  1  0  0  0  0
 10 11  1  0  0  0  0
 11 12  1  0  0  0  0
 12 13  1  0  0  0  0
 13 14  1  0  0  0  0
M  END
>  <CHROM.1>
-63.39347522,178.11891156,90.24226530,-156.02150297,179.40224379,-169.85997896
64.27019852,120.90402172,-92.05999242,178.18210386,-177.81105967,44.16215077
4.96435199,19.04335802,1.10376996,0.16541629,-2.60166230

>  <Name>
ligand

>  <RI>
0

>  <Rbt.Current_Directory>
/home/itssahil/PROJECTS/Mol_Feturizer/New_Systems/rnas/1TN2

>  <Rbt.Executable>
rbdock ($Id: //depot/dev/client3/rdock/2013.1/src/exe/rbdock.cxx#4 $)

>  <Rbt.Library>
libRbt.so (2013.1, Build901 2013/11/27)

>  <Rbt.Parameter_File>
/export/apps/rDock/src/rDock_2013.1_src/data/scripts/dock_solv.prm

>  <Rbt.Receptor>
prm/pocket_docking_8.prm

>  <SCORE>
-11.2825

>  <SCORE.INTER>
-9.56651

>  <SCORE.INTER.CONST>
1

>  <SCORE.INTER.POLAR>
0

>  <SCORE.INTER.ROT>
11

>  <SCORE.INTER.SOLV>
16.13

>  <SCORE.INTER.VDW>
-22.6877

>  <SCORE.INTER.norm>
-0.683322

>  <SCORE.INTRA>
-1.716

>  <SCORE.INTRA.DIHEDRAL>
-4.33061

>  <SCORE.INTRA.DIHEDRAL.0>
7.79482

>  <SCORE.INTRA.POLAR>
0

>  <SCORE.INTRA.POLAR.0>
0

>  <SCORE.INTRA.REPUL>
0

>  <SCORE.INTRA.REPUL.0>
0

>  <SCORE.INTRA.SOLV>
1.05631

>  <SCORE.INTRA.SOLV.lig_0>
-49.456

>  <SCORE.INTRA.VDW>
-0.078845

>  <SCORE.INTRA.VDW.0>
-0.478406

>  <SCORE.INTRA.norm>
-0.122571

>  <SCORE.RESTR>
0

>  <SCORE.RESTR.CAVITY>
0

>  <SCORE.RESTR.norm>
0

>  <SCORE.SYSTEM>
0

>  <SCORE.SYSTEM.CONST>
0

>  <SCORE.SYSTEM.DIHEDRAL>
0

>  <SCORE.SYSTEM.SOLV>
0

>  <SCORE.SYSTEM.norm>
0

>  <SCORE.heavy>
14

>  <SCORE.norm>
-0.805893

>  <RMSD>
3.330

$$$$
ligand
 OpenBabel11021811413D
libRbt.so/2013.1/901 2013/11/27
 14 13  0  0  0  0  0  0  0  0999 V2000
   44.7208    0.1464   15.0517 N   0  0  0  0  0  0  0  0  0  0  0  0
   45.7442    0.6352   16.0007 C   0  0  0  0  0  0  0  0  0  0  0  0
   45.1324    0.9009   17.3932 C   0  0  0  0  0  0  0  0  0  0  0  0
   46.1253    1.4396   18.4362 C   0  0  0  0  0  0  0  0  0  0  0  0
   46.6898    2.7497   18.0100 N   0  0  0  0  0  0  0  0  0  0  0  0
   45.8502    3.8621   18.5243 C   0  0  0  0  0  0  0  0  0  0  0  0
   46.0931    4.2577   20.0198 C   0  0  0  0  0  0  0  0  0  0  0  0
   45.0494    5.2614   20.5888 C   0  0  0  0  0  0  0  0  0  0  0  0
   45.1797    6.6660   20.0328 C   0  0  0  0  0  0  0  0  0  0  0  0
   46.4426    7.2073   20.4979 N   0  0  0  0  0  0  0  0  0  0  0  0
   46.7432    8.3258   19.6214 C   0  0  0  0  0  0  0  0  0  0  0  0
   47.5948    7.8909   18.4344 C   0  0  0  0  0  0  0  0  0  0  0  0
   48.0074    9.1577   17.6695 C   0  0  0  0  0  0  0  0  0  0  0  0
   48.8257    8.8507   16.4868 N   0  0  0  0  0  0  0  0  0  0  0  0
  1  2  1  0  0  0  0
  2  3  1  0  0  0  0
  3  4  1  0  0  0  0
  4  5  1  0  0  0  0
  5  6  1  0  0  0  0
  6  7  1  0  0  0  0
  7  8  1  0  0  0  0
  8  9  1  0  0  0  0
  9 10  1  0  0  0  0
 10 11  1  0  0  0  0
 11 12  1  0  0  0  0
 12 13  1  0  0  0  0
 13 14  1  0  0  0  0
M  END
>  <CHROM.1>
-178.85533251,61.39314129,90.53362619,80.36544064,-170.70707267,-71.22290865
-66.37607297,161.54516542,-91.92563163,-172.95222161,-179.33334574,46.29974614
4.81086163,18.34087805,-2.08359825,1.06238096,0.71724558

>  <Name>
ligand

>  <RI>
0

>  <Rbt.Current_Directory>
/home/itssahil/PROJECTS/Mol_Feturizer/New_Systems/rnas/1TN2

>  <Rbt.Executable>
rbdock ($Id: //depot/dev/client3/rdock/2013.1/src/exe/rbdock.cxx#4 $)

>  <Rbt.Library>
libRbt.so (2013.1, Build901 2013/11/27)

>  <Rbt.Parameter_File>
/export/apps/rDock/src/rDock_2013.1_src/data/scripts/dock_solv.prm

>  <Rbt.Receptor>
prm/pocket_docking_3.prm

>  <SCORE>
-8.39286

>  <SCORE.INTER>
-6.55324

>  <SCORE.INTER.CONST>
1

>  <SCORE.INTER.POLAR>
0

>  <SCORE.INTER.ROT>
11

>  <SCORE.INTER.SOLV>
13.5788

>  <SCORE.INTER.VDW>
-19.8284

>  <SCORE.INTER.norm>
-0.468089

>  <SCORE.INTRA>
-1.83962

>  <SCORE.INTRA.DIHEDRAL>
-4.76289

>  <SCORE.INTRA.DIHEDRAL.0>
7.79482

>  <SCORE.INTRA.POLAR>
0

>  <SCORE.INTRA.POLAR.0>
0

>  <SCORE.INTRA.REPUL>
0

>  <SCORE.INTRA.REPUL.0>
0

>  <SCORE.INTRA.SOLV>
0.86677

>  <SCORE.INTRA.SOLV.lig_0>
-49.456

>  <SCORE.INTRA.VDW>
0.108441

>  <SCORE.INTRA.VDW.0>
-0.478406

>  <SCORE.INTRA.norm>
-0.131401

>  <SCORE.RESTR>
0

>  <SCORE.RESTR.CAVITY>
0

>  <SCORE.RESTR.norm>
0

>  <SCORE.SYSTEM>
0

>  <SCORE.SYSTEM.CONST>
0

>  <SCORE.SYSTEM.DIHEDRAL>
0

>  <SCORE.SYSTEM.SOLV>
0

>  <SCORE.SYSTEM.norm>
0

>  <SCORE.heavy>
14

>  <SCORE.norm>
-0.59949

>  <RMSD>
3.333

$$$$
ligand
 OpenBabel11021811413D
libRbt.so/2013.1/901 2013/11/27
 14 13  0  0  0  0  0  0  0  0999 V2000
   47.4188    8.2229   17.5848 N   0  0  0  0  0  0  0  0  0  0  0  0
   47.4114    9.4717   18.3771 C   0  0  0  0  0  0  0  0  0  0  0  0
   46.2994    9.4465   19.4480 C   0  0  0  0  0  0  0  0  0  0  0  0
   44.8732    9.3240   18.8867 C   0  0  0  0  0  0  0  0  0  0  0  0
   43.8749    9.2074   19.9850 N   0  0  0  0  0  0  0  0  0  0  0  0
   43.1087    7.9419   19.8501 C   0  0  0  0  0  0  0  0  0  0  0  0
   43.6804    6.7171   20.6407 C   0  0  0  0  0  0  0  0  0  0  0  0
   45.1765    6.4113   20.3430 C   0  0  0  0  0  0  0  0  0  0  0  0
   45.6693    5.1081   20.9411 C   0  0  0  0  0  0  0  0  0  0  0  0
   44.9521    4.0275   20.2912 N   0  0  0  0  0  0  0  0  0  0  0  0
   45.8235    3.5527   19.2306 C   0  0  0  0  0  0  0  0  0  0  0  0
   45.1857    2.4049   18.4567 C   0  0  0  0  0  0  0  0  0  0  0  0
   46.1228    2.0527   17.2914 C   0  0  0  0  0  0  0  0  0  0  0  0
   45.5947    0.9564   16.4657 N   0  0  0  0  0  0  0  0  0  0  0  0
  1  2  1  0  0  0  0
  2  3  1  0  0  0  0
  3  4  1  0  0  0  0
  4  5  1  0  0  0  0
  5  6  1  0  0  0  0
  6  7  1  0  0  0  0
  7  8  1  0  0  0  0
  8  9  1  0  0  0  0
  9 10  1  0  0  0  0
 10 11  1  0  0  0  0
 11 12  1  0  0  0  0
 12 13  1  0  0  0  0
 13 14  1  0  0  0  0
M  END
>  <CHROM.1>
-61.18456232,175.87142658,-121.33454263,92.67531753,-53.67514696,-171.17114004
65.13215850,96.57307761,-179.93173660,175.31791436,-179.50870145,45.37078278
6.06055798,19.12821873,-1.61854587,-0.77055735,-2.98254691

>  <Name>
ligand

>  <RI>
0

>  <Rbt.Current_Directory>
/home/itssahil/PROJECTS/Mol_Feturizer/New_Systems/rnas/1TN2

>  <Rbt.Executable>
rbdock ($Id: //depot/dev/client3/rdock/2013.1/src/exe/rbdock.cxx#4 $)

>  <Rbt.Library>
libRbt.so (2013.1, Build901 2013/11/27)

>  <Rbt.Parameter_File>
/export/apps/rDock/src/rDock_2013.1_src/data/scripts/dock_solv.prm

>  <Rbt.Receptor>
prm/blind_docking_80.prm

>  <SCORE>
-8.91424

>  <SCORE.INTER>
-7.37088

>  <SCORE.INTER.CONST>
1

>  <SCORE.INTER.POLAR>
0

>  <SCORE.INTER.ROT>
11

>  <SCORE.INTER.SOLV>
13.4687

>  <SCORE.INTER.VDW>
-20.3368

>  <SCORE.INTER.norm>
-0.526492

>  <SCORE.INTRA>
-1.54336

>  <SCORE.INTRA.DIHEDRAL>
-4.38688

>  <SCORE.INTRA.DIHEDRAL.0>
7.79482

>  <SCORE.INTRA.POLAR>
0

>  <SCORE.INTRA.POLAR.0>
0

>  <SCORE.INTRA.REPUL>
0

>  <SCORE.INTRA.REPUL.0>
0

>  <SCORE.INTRA.SOLV>
1.97887

>  <SCORE.INTRA.SOLV.lig_0>
-49.456

>  <SCORE.INTRA.VDW>
-0.339357

>  <SCORE.INTRA.VDW.0>
-0.478406

>  <SCORE.INTRA.norm>
-0.11024

>  <SCORE.RESTR>
0

>  <SCORE.RESTR.CAVITY>
0

>  <SCORE.RESTR.norm>
0

>  <SCORE.SYSTEM>
0

>  <SCORE.SYSTEM.CONST>
0

>  <SCORE.SYSTEM.DIHEDRAL>
0

>  <SCORE.SYSTEM.SOLV>
0

>  <SCORE.SYSTEM.norm>
0

>  <SCORE.heavy>
14

>  <SCORE.norm>
-0.636732

>  <RMSD>
3.334

$$$$
ligand
 OpenBabel11021811413D
libRbt.so/2013.1/901 2013/11/27
 14 13  0  0  0  0  0  0  0  0999 V2000
   45.0355    1.2441   18.2568 N   0  0  0  0  0  0  0  0  0  0  0  0
   46.3366    1.9467   18.2779 C   0  0  0  0  0  0  0  0  0  0  0  0
   46.1437    3.4786   18.2765 C   0  0  0  0  0  0  0  0  0  0  0  0
   45.5452    4.0494   19.5727 C   0  0  0  0  0  0  0  0  0  0  0  0
   45.3662    5.5241   19.4745 N   0  0  0  0  0  0  0  0  0  0  0  0
   44.8980    6.0719   20.7735 C   0  0  0  0  0  0  0  0  0  0  0  0
   44.1101    7.4228   20.6936 C   0  0  0  0  0  0  0  0  0  0  0  0
   42.7114    7.3036   20.0229 C   0  0  0  0  0  0  0  0  0  0  0  0
   42.0202    8.6345   19.7998 C   0  0  0  0  0  0  0  0  0  0  0  0
   42.8547    9.4193   18.9099 N   0  0  0  0  0  0  0  0  0  0  0  0
   42.1024   10.6278   18.6214 C   0  0  0  0  0  0  0  0  0  0  0  0
   42.7491   11.4330   17.5003 C   0  0  0  0  0  0  0  0  0  0  0  0
   41.8775   12.6746   17.2575 C   0  0  0  0  0  0  0  0  0  0  0  0
   41.9443   13.6275   18.3756 N   0  0  0  0  0  0  0  0  0  0  0  0
  1  2  1  0  0  0  0
  2  3  1  0  0  0  0
  3  4  1  0  0  0  0
  4  5  1  0  0  0  0
  5  6  1  0  0  0  0
  6  7  1  0  0  0  0
  7  8  1  0  0  0  0
  8  9  1  0  0  0  0
  9 10  1  0  0  0  0
 10 11  1  0  0  0  0
 11 12  1  0  0  0  0
 12 13  1  0  0  0  0
 13 14  1  0  0  0  0
M  END
>  <CHROM.1>
68.95194385,-178.76233317,-175.14791644,-155.33906997,68.75322247,-173.21414043
61.38446583,174.74626204,-169.77189062,179.31006972,69.30179380,43.83535873
7.38981751,18.98673527,-0.38893913,1.16179468,-1.22089368

>  <Name>
ligand

>  <RI>
0

>  <Rbt.Current_Directory>
/home/itssahil/PROJECTS/Mol_Feturizer/New_Systems/rnas/1TN2

>  <Rbt.Executable>
rbdock ($Id: //depot/dev/client3/rdock/2013.1/src/exe/rbdock.cxx#4 $)

>  <Rbt.Library>
libRbt.so (2013.1, Build901 2013/11/27)

>  <Rbt.Parameter_File>
/export/apps/rDock/src/rDock_2013.1_src/data/scripts/dock_solv.prm

>  <Rbt.Receptor>
prm/pocket_docking_6.prm

>  <SCORE>
-12.2198

>  <SCORE.INTER>
-9.57629

>  <SCORE.INTER.CONST>
1

>  <SCORE.INTER.POLAR>
0

>  <SCORE.INTER.ROT>
11

>  <SCORE.INTER.SOLV>
17.4503

>  <SCORE.INTER.VDW>
-23.1343

>  <SCORE.INTER.norm>
-0.684021

>  <SCORE.INTRA>
-2.64352

>  <SCORE.INTRA.DIHEDRAL>
-6.12514

>  <SCORE.INTRA.DIHEDRAL.0>
7.79482

>  <SCORE.INTRA.POLAR>
0

>  <SCORE.INTRA.POLAR.0>
0

>  <SCORE.INTRA.REPUL>
0

>  <SCORE.INTRA.REPUL.0>
0

>  <SCORE.INTRA.SOLV>
2.0718

>  <SCORE.INTRA.SOLV.lig_0>
-49.456

>  <SCORE.INTRA.VDW>
-0.616845

>  <SCORE.INTRA.VDW.0>
-0.478406

>  <SCORE.INTRA.norm>
-0.188823

>  <SCORE.RESTR>
0

>  <SCORE.RESTR.CAVITY>
0

>  <SCORE.RESTR.norm>
0

>  <SCORE.SYSTEM>
0

>  <SCORE.SYSTEM.CONST>
0

>  <SCORE.SYSTEM.DIHEDRAL>
0

>  <SCORE.SYSTEM.SOLV>
0

>  <SCORE.SYSTEM.norm>
0

>  <SCORE.heavy>
14

>  <SCORE.norm>
-0.872843

>  <RMSD>
3.336

$$$$
ligand
 OpenBabel11021811413D
libRbt.so/2013.1/901 2013/11/27
 14 13  0  0  0  0  0  0  0  0999 V2000
   48.4326    6.5729   15.6421 N   0  0  0  0  0  0  0  0  0  0  0  0
   47.6482    7.6034   16.3562 C   0  0  0  0  0  0  0  0  0  0  0  0
   48.2458    7.8932   17.7501 C   0  0  0  0  0  0  0  0  0  0  0  0
   47.5222    8.9962   18.5398 C   0  0  0  0  0  0  0  0  0  0  0  0
   46.1295    8.5889   18.8730 N   0  0  0  0  0  0  0  0  0  0  0  0
   46.0649    8.0708   20.2637 C   0  0  0  0  0  0  0  0  0  0  0  0
   45.4180    6.6543   20.4288 C   0  0  0  0  0  0  0  0  0  0  0  0
   46.1517    5.5262   19.6481 C   0  0  0  0  0  0  0  0  0  0  0  0
   45.4936    4.1656   19.7691 C   0  0  0  0  0  0  0  0  0  0  0  0
   46.2715    3.2295   18.9798 N   0  0  0  0  0  0  0  0  0  0  0  0
   45.3477    2.1824   18.5798 C   0  0  0  0  0  0  0  0  0  0  0  0
   45.9125    1.3474   17.4365 C   0  0  0  0  0  0  0  0  0  0  0  0
   44.7869    0.4339   16.9281 C   0  0  0  0  0  0  0  0  0  0  0  0
   45.2032   -0.3672   15.7672 N   0  0  0  0  0  0  0  0  0  0  0  0
  1  2  1  0  0  0  0
  2  3  1  0  0  0  0
  3  4  1  0  0  0  0
  4  5  1  0  0  0  0
  5  6  1  0  0  0  0
  6  7  1  0  0  0  0
  7  8  1  0  0  0  0
  8  9  1  0  0  0  0
  9 10  1  0  0  0  0
 10 11  1  0  0  0  0
 11 12  1  0  0  0  0
 12 13  1  0  0  0  0
 13 14  1  0  0  0  0
M  END
>  <CHROM.1>
177.66644103,64.84446339,98.34148304,-126.90391602,59.82538600,-177.88056991
179.16295088,-153.18098637,163.92480075,-170.59558142,176.77242721,46.33051170
5.06433868,18.21196735,-1.11105200,-1.02622164,-2.56081367

>  <Name>
ligand

>  <RI>
0

>  <Rbt.Current_Directory>
/home/itssahil/PROJECTS/Mol_Feturizer/New_Systems/rnas/1TN2

>  <Rbt.Executable>
rbdock ($Id: //depot/dev/client3/rdock/2013.1/src/exe/rbdock.cxx#4 $)

>  <Rbt.Library>
libRbt.so (2013.1, Build901 2013/11/27)

>  <Rbt.Parameter_File>
/export/apps/rDock/src/rDock_2013.1_src/data/scripts/dock_solv.prm

>  <Rbt.Receptor>
prm/pocket_docking_7.prm

>  <SCORE>
-8.83346

>  <SCORE.INTER>
-5.72793

>  <SCORE.INTER.CONST>
1

>  <SCORE.INTER.POLAR>
0

>  <SCORE.INTER.ROT>
11

>  <SCORE.INTER.SOLV>
12.533

>  <SCORE.INTER.VDW>
-18.9296

>  <SCORE.INTER.norm>
-0.409138

>  <SCORE.INTRA>
-3.10554

>  <SCORE.INTRA.DIHEDRAL>
-4.58128

>  <SCORE.INTRA.DIHEDRAL.0>
7.79482

>  <SCORE.INTRA.POLAR>
0

>  <SCORE.INTRA.POLAR.0>
0

>  <SCORE.INTRA.REPUL>
0

>  <SCORE.INTRA.REPUL.0>
0

>  <SCORE.INTRA.SOLV>
0.601493

>  <SCORE.INTRA.SOLV.lig_0>
-49.456

>  <SCORE.INTRA.VDW>
-1.11564

>  <SCORE.INTRA.VDW.0>
-0.478406

>  <SCORE.INTRA.norm>
-0.221824

>  <SCORE.RESTR>
0

>  <SCORE.RESTR.CAVITY>
0

>  <SCORE.RESTR.norm>
0

>  <SCORE.SYSTEM>
0

>  <SCORE.SYSTEM.CONST>
0

>  <SCORE.SYSTEM.DIHEDRAL>
0

>  <SCORE.SYSTEM.SOLV>
0

>  <SCORE.SYSTEM.norm>
0

>  <SCORE.heavy>
14

>  <SCORE.norm>
-0.630962

>  <RMSD>
3.338

$$$$
ligand
 OpenBabel11021811413D
libRbt.so/2013.1/901 2013/11/27
 14 13  0  0  0  0  0  0  0  0999 V2000
   45.5404   -0.8547   13.9434 N   0  0  0  0  0  0  0  0  0  0  0  0
   45.2217   -1.6886   15.1225 C   0  0  0  0  0  0  0  0  0  0  0  0
   45.7552   -1.0459   16.4211 C   0  0  0  0  0  0  0  0  0  0  0  0
   45.1165    0.3073   16.7746 C   0  0  0  0  0  0  0  0  0  0  0  0
   45.8272    0.9526   17.9126 N   0  0  0  0  0  0  0  0  0  0  0  0
   44.9361    1.9330   18.5847 C   0  0  0  0  0  0  0  0  0  0  0  0
   45.6474    3.1901   19.1895 C   0  0  0  0  0  0  0  0  0  0  0  0
   44.7140    4.1013   20.0375 C   0  0  0  0  0  0  0  0  0  0  0  0
   45.4309    5.2467   20.7252 C   0  0  0  0  0  0  0  0  0  0  0  0
   45.8476    6.1836   19.6991 N   0  0  0  0  0  0  0  0  0  0  0  0
   46.2628    7.3850   20.4020 C   0  0  0  0  0  0  0  0  0  0  0  0
   46.8411    8.4199   19.4440 C   0  0  0  0  0  0  0  0  0  0  0  0
   45.6854    8.9548   18.5848 C   0  0  0  0  0  0  0  0  0  0  0  0
   46.1241   10.0086   17.6575 N   0  0  0  0  0  0  0  0  0  0  0  0
  1  2  1  0  0  0  0
  2  3  1  0  0  0  0
  3  4  1  0  0  0  0
  4  5  1  0  0  0  0
  5  6  1  0  0  0  0
  6  7  1  0  0  0  0
  7  8  1  0  0  0  0
  8  9  1  0  0  0  0
  9 10  1  0  0  0  0
 10 11  1  0  0  0  0
 11 12  1  0  0  0  0
 12 13  1  0  0  0  0
 13 14  1  0  0  0  0
M  END
>  <CHROM.1>
63.83766484,-171.26434504,-157.63168189,-147.11958771,-172.69011439,174.70250119
69.67559404,167.98712289,175.15307497,69.66013198,177.56502233,45.63923790
3.79230607,18.17882469,-2.03312709,1.41852545,0.82533043

>  <Name>
ligand

>  <RI>
0

>  <Rbt.Current_Directory>
/home/itssahil/PROJECTS/Mol_Feturizer/New_Systems/rnas/1TN2

>  <Rbt.Executable>
rbdock ($Id: //depot/dev/client3/rdock/2013.1/src/exe/rbdock.cxx#4 $)

>  <Rbt.Library>
libRbt.so (2013.1, Build901 2013/11/27)

>  <Rbt.Parameter_File>
/export/apps/rDock/src/rDock_2013.1_src/data/scripts/dock_solv.prm

>  <Rbt.Receptor>
prm/pocket_docking_4.prm

>  <SCORE>
-10.7832

>  <SCORE.INTER>
-8.22486

>  <SCORE.INTER.CONST>
1

>  <SCORE.INTER.POLAR>
0

>  <SCORE.INTER.ROT>
11

>  <SCORE.INTER.SOLV>
10.6323

>  <SCORE.INTER.VDW>
-19.9607

>  <SCORE.INTER.norm>
-0.58749

>  <SCORE.INTRA>
-2.55832

>  <SCORE.INTRA.DIHEDRAL>
-5.23347

>  <SCORE.INTRA.DIHEDRAL.0>
7.79482

>  <SCORE.INTRA.POLAR>
0

>  <SCORE.INTRA.POLAR.0>
0

>  <SCORE.INTRA.REPUL>
0

>  <SCORE.INTRA.REPUL.0>
0

>  <SCORE.INTRA.SOLV>
1.36212

>  <SCORE.INTRA.SOLV.lig_0>
-49.456

>  <SCORE.INTRA.VDW>
-0.622648

>  <SCORE.INTRA.VDW.0>
-0.478406

>  <SCORE.INTRA.norm>
-0.182737

>  <SCORE.RESTR>
0

>  <SCORE.RESTR.CAVITY>
0

>  <SCORE.RESTR.norm>
0

>  <SCORE.SYSTEM>
0

>  <SCORE.SYSTEM.CONST>
0

>  <SCORE.SYSTEM.DIHEDRAL>
0

>  <SCORE.SYSTEM.SOLV>
0

>  <SCORE.SYSTEM.norm>
0

>  <SCORE.heavy>
14

>  <SCORE.norm>
-0.770227

>  <RMSD>
3.347

$$$$
ligand
 OpenBabel11021811413D
libRbt.so/2013.1/901 2013/11/27
 14 13  0  0  0  0  0  0  0  0999 V2000
   45.6551   -0.2605   14.0384 N   0  0  0  0  0  0  0  0  0  0  0  0
   45.7644    0.1922   15.4421 C   0  0  0  0  0  0  0  0  0  0  0  0
   44.3754    0.5149   16.0341 C   0  0  0  0  0  0  0  0  0  0  0  0
   44.4019    1.0398   17.4790 C   0  0  0  0  0  0  0  0  0  0  0  0
   45.0740    2.3661   17.5535 N   0  0  0  0  0  0  0  0  0  0  0  0
   46.0491    2.3853   18.6740 C   0  0  0  0  0  0  0  0  0  0  0  0
   46.3340    3.7925   19.2991 C   0  0  0  0  0  0  0  0  0  0  0  0
   45.1117    4.4239   20.0257 C   0  0  0  0  0  0  0  0  0  0  0  0
   45.4241    5.7253   20.7382 C   0  0  0  0  0  0  0  0  0  0  0  0
   45.8475    6.6845   19.7357 N   0  0  0  0  0  0  0  0  0  0  0  0
   46.3529    7.8311   20.4703 C   0  0  0  0  0  0  0  0  0  0  0  0
   46.4042    9.0768   19.5934 C   0  0  0  0  0  0  0  0  0  0  0  0
   47.5019    8.8593   18.5408 C   0  0  0  0  0  0  0  0  0  0  0  0
   47.0913    7.9062   17.4988 N   0  0  0  0  0  0  0  0  0  0  0  0
  1  2  1  0  0  0  0
  2  3  1  0  0  0  0
  3  4  1  0  0  0  0
  4  5  1  0  0  0  0
  5  6  1  0  0  0  0
  6  7  1  0  0  0  0
  7  8  1  0  0  0  0
  8  9  1  0  0  0  0
  9 10  1  0  0  0  0
 10 11  1  0  0  0  0
 11 12  1  0  0  0  0
 12 13  1  0  0  0  0
 13 14  1  0  0  0  0
M  END
>  <CHROM.1>
-178.02280469,65.63698636,-133.28676614,-152.90156382,66.01728177,174.67401809
62.16679579,-170.47623823,-161.24807944,-68.83142068,73.83787688,45.81335660
4.32417274,18.22349107,-1.98080152,1.15729833,0.82845957

>  <Name>
ligand

>  <RI>
0

>  <Rbt.Current_Directory>
/home/itssahil/PROJECTS/Mol_Feturizer/New_Systems/rnas/1TN2

>  <Rbt.Executable>
rbdock ($Id: //depot/dev/client3/rdock/2013.1/src/exe/rbdock.cxx#4 $)

>  <Rbt.Library>
libRbt.so (2013.1, Build901 2013/11/27)

>  <Rbt.Parameter_File>
/export/apps/rDock/src/rDock_2013.1_src/data/scripts/dock_solv.prm

>  <Rbt.Receptor>
prm/blind_docking_60.prm

>  <SCORE>
-7.92975

>  <SCORE.INTER>
-6.83218

>  <SCORE.INTER.CONST>
1

>  <SCORE.INTER.POLAR>
0

>  <SCORE.INTER.ROT>
11

>  <SCORE.INTER.SOLV>
10.4735

>  <SCORE.INTER.VDW>
-18.9793

>  <SCORE.INTER.norm>
-0.488013

>  <SCORE.INTRA>
-1.09757

>  <SCORE.INTRA.DIHEDRAL>
-4.49617

>  <SCORE.INTRA.DIHEDRAL.0>
7.79482

>  <SCORE.INTRA.POLAR>
0

>  <SCORE.INTRA.POLAR.0>
0

>  <SCORE.INTRA.REPUL>
0

>  <SCORE.INTRA.REPUL.0>
0

>  <SCORE.INTRA.SOLV>
3.85803

>  <SCORE.INTRA.SOLV.lig_0>
-49.456

>  <SCORE.INTRA.VDW>
-0.778498

>  <SCORE.INTRA.VDW.0>
-0.478406

>  <SCORE.INTRA.norm>
-0.0783977

>  <SCORE.RESTR>
0

>  <SCORE.RESTR.CAVITY>
0

>  <SCORE.RESTR.norm>
0

>  <SCORE.SYSTEM>
0

>  <SCORE.SYSTEM.CONST>
0

>  <SCORE.SYSTEM.DIHEDRAL>
0

>  <SCORE.SYSTEM.SOLV>
0

>  <SCORE.SYSTEM.norm>
0

>  <SCORE.heavy>
14

>  <SCORE.norm>
-0.566411

>  <RMSD>
3.357

$$$$
ligand
 OpenBabel11021811413D
libRbt.so/2013.1/901 2013/11/27
 14 13  0  0  0  0  0  0  0  0999 V2000
   46.7345   10.1476   17.5774 N   0  0  0  0  0  0  0  0  0  0  0  0
   46.5256    9.7208   18.9779 C   0  0  0  0  0  0  0  0  0  0  0  0
   46.5204    8.1815   19.0973 C   0  0  0  0  0  0  0  0  0  0  0  0
   46.1998    7.6498   20.5039 C   0  0  0  0  0  0  0  0  0  0  0  0
   46.1837    6.1613   20.5218 N   0  0  0  0  0  0  0  0  0  0  0  0
   44.7972    5.6606   20.3381 C   0  0  0  0  0  0  0  0  0  0  0  0
   44.6499    4.1066   20.2129 C   0  0  0  0  0  0  0  0  0  0  0  0
   45.3899    3.4952   18.9886 C   0  0  0  0  0  0  0  0  0  0  0  0
   45.1838    2.0017   18.8277 C   0  0  0  0  0  0  0  0  0  0  0  0
   45.9006    1.5849   17.6375 N   0  0  0  0  0  0  0  0  0  0  0  0
   44.9708    0.7663   16.8791 C   0  0  0  0  0  0  0  0  0  0  0  0
   45.6522    0.1098   15.6841 C   0  0  0  0  0  0  0  0  0  0  0  0
   44.5769   -0.6570   14.8994 C   0  0  0  0  0  0  0  0  0  0  0  0
   45.1425   -1.4011   13.7640 N   0  0  0  0  0  0  0  0  0  0  0  0
  1  2  1  0  0  0  0
  2  3  1  0  0  0  0
  3  4  1  0  0  0  0
  4  5  1  0  0  0  0
  5  6  1  0  0  0  0
  6  7  1  0  0  0  0
  7  8  1  0  0  0  0
  8  9  1  0  0  0  0
  9 10  1  0  0  0  0
 10 11  1  0  0  0  0
 11 12  1  0  0  0  0
 12 13  1  0  0  0  0
 13 14  1  0  0  0  0
M  END
>  <CHROM.1>
-175.47251167,178.63866815,-94.84524841,174.93123833,-61.67779296,-176.87164238
178.64233660,-132.10354738,-172.64991857,-176.48907390,-176.48892600,45.60182724
4.10913804,18.13671764,-1.09542437,-1.30423398,-2.26449446

>  <Name>
ligand

>  <RI>
0

>  <Rbt.Current_Directory>
/home/itssahil/PROJECTS/Mol_Feturizer/New_Systems/rnas/1TN2

>  <Rbt.Executable>
rbdock ($Id: //depot/dev/client3/rdock/2013.1/src/exe/rbdock.cxx#4 $)

>  <Rbt.Library>
libRbt.so (2013.1, Build901 2013/11/27)

>  <Rbt.Parameter_File>
/export/apps/rDock/src/rDock_2013.1_src/data/scripts/dock_solv.prm

>  <Rbt.Receptor>
prm/pocket_docking_4.prm

>  <SCORE>
-9.40204

>  <SCORE.INTER>
-6.04195

>  <SCORE.INTER.CONST>
1

>  <SCORE.INTER.POLAR>
0

>  <SCORE.INTER.ROT>
11

>  <SCORE.INTER.SOLV>
10.6197

>  <SCORE.INTER.VDW>
-18.5012

>  <SCORE.INTER.norm>
-0.431568

>  <SCORE.INTRA>
-3.36009

>  <SCORE.INTRA.DIHEDRAL>
-5.66006

>  <SCORE.INTRA.DIHEDRAL.0>
7.79482

>  <SCORE.INTRA.POLAR>
0

>  <SCORE.INTRA.POLAR.0>
0

>  <SCORE.INTRA.REPUL>
0

>  <SCORE.INTRA.REPUL.0>
0

>  <SCORE.INTRA.SOLV>
0.279152

>  <SCORE.INTRA.SOLV.lig_0>
-49.456

>  <SCORE.INTRA.VDW>
-0.669638

>  <SCORE.INTRA.VDW.0>
-0.478406

>  <SCORE.INTRA.norm>
-0.240006

>  <SCORE.RESTR>
0

>  <SCORE.RESTR.CAVITY>
0

>  <SCORE.RESTR.norm>
0

>  <SCORE.SYSTEM>
0

>  <SCORE.SYSTEM.CONST>
0

>  <SCORE.SYSTEM.DIHEDRAL>
0

>  <SCORE.SYSTEM.SOLV>
0

>  <SCORE.SYSTEM.norm>
0

>  <SCORE.heavy>
14

>  <SCORE.norm>
-0.671574

>  <RMSD>
3.359

$$$$
ligand
 OpenBabel11021811413D
libRbt.so/2013.1/901 2013/11/27
 14 13  0  0  0  0  0  0  0  0999 V2000
   44.1944    0.9661   17.4322 N   0  0  0  0  0  0  0  0  0  0  0  0
   45.6196    1.0308   17.0426 C   0  0  0  0  0  0  0  0  0  0  0  0
   46.5045    1.4600   18.2329 C   0  0  0  0  0  0  0  0  0  0  0  0
   46.2293    2.8794   18.7558 C   0  0  0  0  0  0  0  0  0  0  0  0
   44.8929    2.9592   19.4071 N   0  0  0  0  0  0  0  0  0  0  0  0
   44.7953    4.1926   20.2293 C   0  0  0  0  0  0  0  0  0  0  0  0
   43.4507    4.3813   21.0093 C   0  0  0  0  0  0  0  0  0  0  0  0
   43.3638    5.7105   21.8130 C   0  0  0  0  0  0  0  0  0  0  0  0
   43.4837    6.9563   20.9571 C   0  0  0  0  0  0  0  0  0  0  0  0
   44.8676    7.0694   20.5373 N   0  0  0  0  0  0  0  0  0  0  0  0
   44.9559    8.3101   19.7872 C   0  0  0  0  0  0  0  0  0  0  0  0
   46.3644    8.8909   19.8338 C   0  0  0  0  0  0  0  0  0  0  0  0
   46.3405   10.2287   19.0791 C   0  0  0  0  0  0  0  0  0  0  0  0
   46.1366   10.0478   17.6340 N   0  0  0  0  0  0  0  0  0  0  0  0
  1  2  1  0  0  0  0
  2  3  1  0  0  0  0
  3  4  1  0  0  0  0
  4  5  1  0  0  0  0
  5  6  1  0  0  0  0
  6  7  1  0  0  0  0
  7  8  1  0  0  0  0
  8  9  1  0  0  0  0
  9 10  1  0  0  0  0
 10 11  1  0  0  0  0
 11 12  1  0  0  0  0
 12 13  1  0  0  0  0
 13 14  1  0  0  0  0
M  END
>  <CHROM.1>
-63.96407031,68.45467220,164.12686403,-178.19678345,-177.68643196,60.10223303
-72.69277728,-176.83236049,153.67115204,-177.14011645,-68.78822054,45.08568191
5.36311649,19.41104103,-1.63297173,0.90341535,0.21959557

>  <Name>
ligand

>  <RI>
0

>  <Rbt.Current_Directory>
/home/itssahil/PROJECTS/Mol_Feturizer/New_Systems/rnas/1TN2

>  <Rbt.Executable>
rbdock ($Id: //depot/dev/client3/rdock/2013.1/src/exe/rbdock.cxx#4 $)

>  <Rbt.Library>
libRbt.so (2013.1, Build901 2013/11/27)

>  <Rbt.Parameter_File>
/export/apps/rDock/src/rDock_2013.1_src/data/scripts/dock_solv.prm

>  <Rbt.Receptor>
prm/pocket_docking_6.prm

>  <SCORE>
-7.17046

>  <SCORE.INTER>
-6.30429

>  <SCORE.INTER.CONST>
1

>  <SCORE.INTER.POLAR>
0

>  <SCORE.INTER.ROT>
11

>  <SCORE.INTER.SOLV>
15.4994

>  <SCORE.INTER.VDW>
-20.3027

>  <SCORE.INTER.norm>
-0.450306

>  <SCORE.INTRA>
-0.866167

>  <SCORE.INTRA.DIHEDRAL>
-5.85203

>  <SCORE.INTRA.DIHEDRAL.0>
7.79482

>  <SCORE.INTRA.POLAR>
0

>  <SCORE.INTRA.POLAR.0>
0

>  <SCORE.INTRA.REPUL>
0

>  <SCORE.INTRA.REPUL.0>
0

>  <SCORE.INTRA.SOLV>
4.54436

>  <SCORE.INTRA.SOLV.lig_0>
-49.456

>  <SCORE.INTRA.VDW>
-0.212336

>  <SCORE.INTRA.VDW.0>
-0.478406

>  <SCORE.INTRA.norm>
-0.0618691

>  <SCORE.RESTR>
0

>  <SCORE.RESTR.CAVITY>
0

>  <SCORE.RESTR.norm>
0

>  <SCORE.SYSTEM>
0

>  <SCORE.SYSTEM.CONST>
0

>  <SCORE.SYSTEM.DIHEDRAL>
0

>  <SCORE.SYSTEM.SOLV>
0

>  <SCORE.SYSTEM.norm>
0

>  <SCORE.heavy>
14

>  <SCORE.norm>
-0.512175

>  <RMSD>
3.360

$$$$
ligand
 OpenBabel11021811413D
libRbt.so/2013.1/901 2013/11/27
 14 13  0  0  0  0  0  0  0  0999 V2000
   47.4235    8.1367   17.9113 N   0  0  0  0  0  0  0  0  0  0  0  0
   46.9098    9.2825   18.6927 C   0  0  0  0  0  0  0  0  0  0  0  0
   46.4276    8.8341   20.0893 C   0  0  0  0  0  0  0  0  0  0  0  0
   45.1973    7.9120   20.0758 C   0  0  0  0  0  0  0  0  0  0  0  0
   45.5161    6.6050   19.4383 N   0  0  0  0  0  0  0  0  0  0  0  0
   45.8110    5.5852   20.4774 C   0  0  0  0  0  0  0  0  0  0  0  0
   46.3017    4.1973   19.9436 C   0  0  0  0  0  0  0  0  0  0  0  0
   45.2511    3.4414   19.0803 C   0  0  0  0  0  0  0  0  0  0  0  0
   45.7563    2.1348   18.5002 C   0  0  0  0  0  0  0  0  0  0  0  0
   44.6739    1.5464   17.7344 N   0  0  0  0  0  0  0  0  0  0  0  0
   45.2583    0.4297   17.0125 C   0  0  0  0  0  0  0  0  0  0  0  0
   44.5363    0.1790   15.6937 C   0  0  0  0  0  0  0  0  0  0  0  0
   45.1597   -1.0702   15.0527 C   0  0  0  0  0  0  0  0  0  0  0  0
   46.5481   -0.8412   14.6253 N   0  0  0  0  0  0  0  0  0  0  0  0
  1  2  1  0  0  0  0
  2  3  1  0  0  0  0
  3  4  1  0  0  0  0
  4  5  1  0  0  0  0
  5  6  1  0  0  0  0
  6  7  1  0  0  0  0
  7  8  1  0  0  0  0
  8  9  1  0  0  0  0
  9 10  1  0  0  0  0
 10 11  1  0  0  0  0
 11 12  1  0  0  0  0
 12 13  1  0  0  0  0
 13 14  1  0  0  0  0
M  END
>  <CHROM.1>
-66.22816214,65.74420892,98.04961649,-174.18310300,-63.67404844,176.72272050
179.66128378,170.41266781,-150.20097778,-176.23747759,-67.64804523,45.76921325
4.02669651,18.16655617,-1.31766886,-1.13223312,-2.49679322

>  <Name>
ligand

>  <RI>
0

>  <Rbt.Current_Directory>
/home/itssahil/PROJECTS/Mol_Feturizer/New_Systems/rnas/1TN2

>  <Rbt.Executable>
rbdock ($Id: //depot/dev/client3/rdock/2013.1/src/exe/rbdock.cxx#4 $)

>  <Rbt.Library>
libRbt.so (2013.1, Build901 2013/11/27)

>  <Rbt.Parameter_File>
/export/apps/rDock/src/rDock_2013.1_src/data/scripts/dock_solv.prm

>  <Rbt.Receptor>
prm/pocket_docking_3.prm

>  <SCORE>
-8.26256

>  <SCORE.INTER>
-6.80123

>  <SCORE.INTER.CONST>
1

>  <SCORE.INTER.POLAR>
0

>  <SCORE.INTER.ROT>
11

>  <SCORE.INTER.SOLV>
12.9167

>  <SCORE.INTER.VDW>
-19.773

>  <SCORE.INTER.norm>
-0.485802

>  <SCORE.INTRA>
-1.46133

>  <SCORE.INTRA.DIHEDRAL>
-5.61664

>  <SCORE.INTRA.DIHEDRAL.0>
7.79482

>  <SCORE.INTRA.POLAR>
0

>  <SCORE.INTRA.POLAR.0>
0

>  <SCORE.INTRA.REPUL>
0

>  <SCORE.INTRA.REPUL.0>
0

>  <SCORE.INTRA.SOLV>
4.15223

>  <SCORE.INTRA.SOLV.lig_0>
-49.456

>  <SCORE.INTRA.VDW>
-0.729126

>  <SCORE.INTRA.VDW.0>
-0.478406

>  <SCORE.INTRA.norm>
-0.104381

>  <SCORE.RESTR>
0

>  <SCORE.RESTR.CAVITY>
0

>  <SCORE.RESTR.norm>
0

>  <SCORE.SYSTEM>
0

>  <SCORE.SYSTEM.CONST>
0

>  <SCORE.SYSTEM.DIHEDRAL>
0

>  <SCORE.SYSTEM.SOLV>
0

>  <SCORE.SYSTEM.norm>
0

>  <SCORE.heavy>
14

>  <SCORE.norm>
-0.590183

>  <RMSD>
3.368

$$$$
ligand
 OpenBabel11021811413D
libRbt.so/2013.1/901 2013/11/27
 14 13  0  0  0  0  0  0  0  0999 V2000
   45.3043   -1.6529   13.4350 N   0  0  0  0  0  0  0  0  0  0  0  0
   45.7554   -1.5582   14.8403 C   0  0  0  0  0  0  0  0  0  0  0  0
   45.0677   -0.3836   15.5691 C   0  0  0  0  0  0  0  0  0  0  0  0
   45.4785   -0.2154   17.0412 C   0  0  0  0  0  0  0  0  0  0  0  0
   44.7012    0.8751   17.6917 N   0  0  0  0  0  0  0  0  0  0  0  0
   45.6184    1.8185   18.3811 C   0  0  0  0  0  0  0  0  0  0  0  0
   44.9504    3.1124   18.9572 C   0  0  0  0  0  0  0  0  0  0  0  0
   45.9524    4.1078   19.6097 C   0  0  0  0  0  0  0  0  0  0  0  0
   45.3063    5.3731   20.1392 C   0  0  0  0  0  0  0  0  0  0  0  0
   46.3625    6.2228   20.6558 N   0  0  0  0  0  0  0  0  0  0  0  0
   45.8696    7.5843   20.5420 C   0  0  0  0  0  0  0  0  0  0  0  0
   46.5056    8.3109   19.3626 C   0  0  0  0  0  0  0  0  0  0  0  0
   45.8759    9.7099   19.2844 C   0  0  0  0  0  0  0  0  0  0  0  0
   46.3132   10.4500   18.0911 N   0  0  0  0  0  0  0  0  0  0  0  0
  1  2  1  0  0  0  0
  2  3  1  0  0  0  0
  3  4  1  0  0  0  0
  4  5  1  0  0  0  0
  5  6  1  0  0  0  0
  6  7  1  0  0  0  0
  7  8  1  0  0  0  0
  8  9  1  0  0  0  0
  9 10  1  0  0  0  0
 10 11  1  0  0  0  0
 11 12  1  0  0  0  0
 12 13  1  0  0  0  0
 13 14  1  0  0  0  0
M  END
>  <CHROM.1>
179.83744534,-176.03673750,-129.30037264,172.65922524,-177.15196677,178.72676423
-177.36330329,152.98551954,-103.38452824,177.33543351,-173.86679085,45.64723487
3.83957868,18.11458590,-2.21730264,1.44325948,1.05585583

>  <Name>
ligand

>  <RI>
0

>  <Rbt.Current_Directory>
/home/itssahil/PROJECTS/Mol_Feturizer/New_Systems/rnas/1TN2

>  <Rbt.Executable>
rbdock ($Id: //depot/dev/client3/rdock/2013.1/src/exe/rbdock.cxx#4 $)

>  <Rbt.Library>
libRbt.so (2013.1, Build901 2013/11/27)

>  <Rbt.Parameter_File>
/export/apps/rDock/src/rDock_2013.1_src/data/scripts/dock_solv.prm

>  <Rbt.Receptor>
prm/pocket_docking_5.prm

>  <SCORE>
-9.99027

>  <SCORE.INTER>
-6.90302

>  <SCORE.INTER.CONST>
1

>  <SCORE.INTER.POLAR>
0

>  <SCORE.INTER.ROT>
11

>  <SCORE.INTER.SOLV>
12.612

>  <SCORE.INTER.VDW>
-19.7393

>  <SCORE.INTER.norm>
-0.493073

>  <SCORE.INTRA>
-3.08726

>  <SCORE.INTRA.DIHEDRAL>
-4.83638

>  <SCORE.INTRA.DIHEDRAL.0>
7.79482

>  <SCORE.INTRA.POLAR>
0

>  <SCORE.INTRA.POLAR.0>
0

>  <SCORE.INTRA.REPUL>
0

>  <SCORE.INTRA.REPUL.0>
0

>  <SCORE.INTRA.SOLV>
-0.0546549

>  <SCORE.INTRA.SOLV.lig_0>
-49.456

>  <SCORE.INTRA.VDW>
-0.641743

>  <SCORE.INTRA.VDW.0>
-0.478406

>  <SCORE.INTRA.norm>
-0.220519

>  <SCORE.RESTR>
0

>  <SCORE.RESTR.CAVITY>
0

>  <SCORE.RESTR.norm>
0

>  <SCORE.SYSTEM>
0

>  <SCORE.SYSTEM.CONST>
0

>  <SCORE.SYSTEM.DIHEDRAL>
0

>  <SCORE.SYSTEM.SOLV>
0

>  <SCORE.SYSTEM.norm>
0

>  <SCORE.heavy>
14

>  <SCORE.norm>
-0.713591

>  <RMSD>
3.386

$$$$
ligand
 OpenBabel11021811413D
libRbt.so/2013.1/901 2013/11/27
 14 13  0  0  0  0  0  0  0  0999 V2000
   45.4736   10.6536   18.4388 N   0  0  0  0  0  0  0  0  0  0  0  0
   46.3035    9.7372   19.2503 C   0  0  0  0  0  0  0  0  0  0  0  0
   45.5741    8.4000   19.5031 C   0  0  0  0  0  0  0  0  0  0  0  0
   46.3579    7.3966   20.3651 C   0  0  0  0  0  0  0  0  0  0  0  0
   45.5937    6.1309   20.5397 N   0  0  0  0  0  0  0  0  0  0  0  0
   46.2457    5.0295   19.7856 C   0  0  0  0  0  0  0  0  0  0  0  0
   45.3302    3.8038   19.4513 C   0  0  0  0  0  0  0  0  0  0  0  0
   46.0667    2.6395   18.7285 C   0  0  0  0  0  0  0  0  0  0  0  0
   45.1766    1.4559   18.4032 C   0  0  0  0  0  0  0  0  0  0  0  0
   46.0135    0.4232   17.8225 N   0  0  0  0  0  0  0  0  0  0  0  0
   45.2939   -0.0648   16.6590 C   0  0  0  0  0  0  0  0  0  0  0  0
   45.8403   -1.4075   16.1880 C   0  0  0  0  0  0  0  0  0  0  0  0
   45.1203   -1.7694   14.8801 C   0  0  0  0  0  0  0  0  0  0  0  0
   45.4482   -0.8388   13.7896 N   0  0  0  0  0  0  0  0  0  0  0  0
  1  2  1  0  0  0  0
  2  3  1  0  0  0  0
  3  4  1  0  0  0  0
  4  5  1  0  0  0  0
  5  6  1  0  0  0  0
  6  7  1  0  0  0  0
  7  8  1  0  0  0  0
  8  9  1  0  0  0  0
  9 10  1  0  0  0  0
 10 11  1  0  0  0  0
 11 12  1  0  0  0  0
 12 13  1  0  0  0  0
 13 14  1  0  0  0  0
M  END
>  <CHROM.1>
-178.85884116,-179.06350047,109.96008420,-159.20731435,-176.91213378,-179.85450863
-176.09689635,-134.45899247,-163.32795932,-174.28737228,65.73544654,45.70276202
3.68481780,18.12910973,1.12413643,-1.47935311,-0.06989886

>  <Name>
ligand

>  <RI>
0

>  <Rbt.Current_Directory>
/home/itssahil/PROJECTS/Mol_Feturizer/New_Systems/rnas/1TN2

>  <Rbt.Executable>
rbdock ($Id: //depot/dev/client3/rdock/2013.1/src/exe/rbdock.cxx#4 $)

>  <Rbt.Library>
libRbt.so (2013.1, Build901 2013/11/27)

>  <Rbt.Parameter_File>
/export/apps/rDock/src/rDock_2013.1_src/data/scripts/dock_solv.prm

>  <Rbt.Receptor>
prm/pocket_docking_5.prm

>  <SCORE>
-11.3144

>  <SCORE.INTER>
-8.76174

>  <SCORE.INTER.CONST>
1

>  <SCORE.INTER.POLAR>
0

>  <SCORE.INTER.ROT>
11

>  <SCORE.INTER.SOLV>
12.2908

>  <SCORE.INTER.VDW>
-20.8714

>  <SCORE.INTER.norm>
-0.625839

>  <SCORE.INTRA>
-2.5527

>  <SCORE.INTRA.DIHEDRAL>
-4.75561

>  <SCORE.INTRA.DIHEDRAL.0>
7.79482

>  <SCORE.INTRA.POLAR>
0

>  <SCORE.INTRA.POLAR.0>
0

>  <SCORE.INTRA.REPUL>
0

>  <SCORE.INTRA.REPUL.0>
0

>  <SCORE.INTRA.SOLV>
0.794631

>  <SCORE.INTRA.SOLV.lig_0>
-49.456

>  <SCORE.INTRA.VDW>
-0.572213

>  <SCORE.INTRA.VDW.0>
-0.478406

>  <SCORE.INTRA.norm>
-0.182336

>  <SCORE.RESTR>
0

>  <SCORE.RESTR.CAVITY>
0

>  <SCORE.RESTR.norm>
0

>  <SCORE.SYSTEM>
0

>  <SCORE.SYSTEM.CONST>
0

>  <SCORE.SYSTEM.DIHEDRAL>
0

>  <SCORE.SYSTEM.SOLV>
0

>  <SCORE.SYSTEM.norm>
0

>  <SCORE.heavy>
14

>  <SCORE.norm>
-0.808175

>  <RMSD>
3.387

$$$$
ligand
 OpenBabel11021811413D
libRbt.so/2013.1/901 2013/11/27
 14 13  0  0  0  0  0  0  0  0999 V2000
   45.6182   -0.9112   13.8750 N   0  0  0  0  0  0  0  0  0  0  0  0
   45.1875   -1.8084   14.9689 C   0  0  0  0  0  0  0  0  0  0  0  0
   45.7617   -1.3486   16.3265 C   0  0  0  0  0  0  0  0  0  0  0  0
   45.2795    0.0361   16.7892 C   0  0  0  0  0  0  0  0  0  0  0  0
   45.9908    0.4642   18.0250 N   0  0  0  0  0  0  0  0  0  0  0  0
   45.3127    1.6414   18.6260 C   0  0  0  0  0  0  0  0  0  0  0  0
   46.2032    2.9171   18.8045 C   0  0  0  0  0  0  0  0  0  0  0  0
   45.4489    4.1396   19.4021 C   0  0  0  0  0  0  0  0  0  0  0  0
   46.3272    5.3548   19.6272 C   0  0  0  0  0  0  0  0  0  0  0  0
   45.4656    6.4523   20.0238 N   0  0  0  0  0  0  0  0  0  0  0  0
   46.3485    7.4891   20.5290 C   0  0  0  0  0  0  0  0  0  0  0  0
   46.1312    8.8103   19.8007 C   0  0  0  0  0  0  0  0  0  0  0  0
   46.6730    8.6482   18.3723 C   0  0  0  0  0  0  0  0  0  0  0  0
   46.5631    9.8900   17.5922 N   0  0  0  0  0  0  0  0  0  0  0  0
  1  2  1  0  0  0  0
  2  3  1  0  0  0  0
  3  4  1  0  0  0  0
  4  5  1  0  0  0  0
  5  6  1  0  0  0  0
  6  7  1  0  0  0  0
  7  8  1  0  0  0  0
  8  9  1  0  0  0  0
  9 10  1  0  0  0  0
 10 11  1  0  0  0  0
 11 12  1  0  0  0  0
 12 13  1  0  0  0  0
 13 14  1  0  0  0  0
M  END
>  <CHROM.1>
63.16088195,-173.81845189,-167.33429221,-122.22260378,178.48857327,177.59727623
173.03063493,166.95245754,124.70730953,-70.57733412,-177.66235081,45.87935528
3.69809549,18.05473620,-2.27053397,1.44725382,1.05278351

>  <Name>
ligand

>  <RI>
0

>  <Rbt.Current_Directory>
/home/itssahil/PROJECTS/Mol_Feturizer/New_Systems/rnas/1TN2

>  <Rbt.Executable>
rbdock ($Id: //depot/dev/client3/rdock/2013.1/src/exe/rbdock.cxx#4 $)

>  <Rbt.Library>
libRbt.so (2013.1, Build901 2013/11/27)

>  <Rbt.Parameter_File>
/export/apps/rDock/src/rDock_2013.1_src/data/scripts/dock_solv.prm

>  <Rbt.Receptor>
prm/pocket_docking_6.prm

>  <SCORE>
-10.8154

>  <SCORE.INTER>
-8.50694

>  <SCORE.INTER.CONST>
1

>  <SCORE.INTER.POLAR>
0

>  <SCORE.INTER.ROT>
11

>  <SCORE.INTER.SOLV>
11.4764

>  <SCORE.INTER.VDW>
-20.4301

>  <SCORE.INTER.norm>
-0.607639

>  <SCORE.INTRA>
-2.30843

>  <SCORE.INTRA.DIHEDRAL>
-4.32638

>  <SCORE.INTRA.DIHEDRAL.0>
7.79482

>  <SCORE.INTRA.POLAR>
0

>  <SCORE.INTRA.POLAR.0>
0

>  <SCORE.INTRA.REPUL>
0

>  <SCORE.INTRA.REPUL.0>
0

>  <SCORE.INTRA.SOLV>
1.01369

>  <SCORE.INTRA.SOLV.lig_0>
-49.456

>  <SCORE.INTRA.VDW>
-0.652087

>  <SCORE.INTRA.VDW.0>
-0.478406

>  <SCORE.INTRA.norm>
-0.164888

>  <SCORE.RESTR>
0

>  <SCORE.RESTR.CAVITY>
0

>  <SCORE.RESTR.norm>
0

>  <SCORE.SYSTEM>
0

>  <SCORE.SYSTEM.CONST>
0

>  <SCORE.SYSTEM.DIHEDRAL>
0

>  <SCORE.SYSTEM.SOLV>
0

>  <SCORE.SYSTEM.norm>
0

>  <SCORE.heavy>
14

>  <SCORE.norm>
-0.772527

>  <RMSD>
3.387

$$$$
ligand
 OpenBabel11021811413D
libRbt.so/2013.1/901 2013/11/27
 14 13  0  0  0  0  0  0  0  0999 V2000
   46.6590    9.9106   17.7901 N   0  0  0  0  0  0  0  0  0  0  0  0
   46.7175    8.6563   18.5714 C   0  0  0  0  0  0  0  0  0  0  0  0
   45.5922    8.6036   19.6274 C   0  0  0  0  0  0  0  0  0  0  0  0
   45.5912    7.3368   20.4987 C   0  0  0  0  0  0  0  0  0  0  0  0
   45.3775    6.1185   19.6702 N   0  0  0  0  0  0  0  0  0  0  0  0
   46.1856    4.9897   20.1990 C   0  0  0  0  0  0  0  0  0  0  0  0
   46.2044    3.6980   19.3139 C   0  0  0  0  0  0  0  0  0  0  0  0
   44.8333    2.9681   19.2264 C   0  0  0  0  0  0  0  0  0  0  0  0
   44.9140    1.5760   18.6311 C   0  0  0  0  0  0  0  0  0  0  0  0
   45.2627    1.7168   17.2300 N   0  0  0  0  0  0  0  0  0  0  0  0
   45.2523    0.3724   16.6802 C   0  0  0  0  0  0  0  0  0  0  0  0
   44.8660    0.3758   15.2058 C   0  0  0  0  0  0  0  0  0  0  0  0
   44.9276   -1.0754   14.7058 C   0  0  0  0  0  0  0  0  0  0  0  0
   46.3071   -1.5797   14.6326 N   0  0  0  0  0  0  0  0  0  0  0  0
  1  2  1  0  0  0  0
  2  3  1  0  0  0  0
  3  4  1  0  0  0  0
  4  5  1  0  0  0  0
  5  6  1  0  0  0  0
  6  7  1  0  0  0  0
  7  8  1  0  0  0  0
  8  9  1  0  0  0  0
  9 10  1  0  0  0  0
 10 11  1  0  0  0  0
 11 12  1  0  0  0  0
 12 13  1  0  0  0  0
 13 14  1  0  0  0  0
M  END
>  <CHROM.1>
-179.24408401,-62.07516218,143.42307719,-172.24035509,-67.17155918,-167.40349682
-68.02198577,-176.72652222,149.77356938,178.17838038,-69.80909142,45.62063447
3.83330451,17.99902960,-1.20188849,-1.34029167,-2.37753398

>  <Name>
ligand

>  <RI>
0

>  <Rbt.Current_Directory>
/home/itssahil/PROJECTS/Mol_Feturizer/New_Systems/rnas/1TN2

>  <Rbt.Executable>
rbdock ($Id: //depot/dev/client3/rdock/2013.1/src/exe/rbdock.cxx#4 $)

>  <Rbt.Library>
libRbt.so (2013.1, Build901 2013/11/27)

>  <Rbt.Parameter_File>
/export/apps/rDock/src/rDock_2013.1_src/data/scripts/dock_solv.prm

>  <Rbt.Receptor>
prm/pocket_docking_3.prm

>  <SCORE>
-8.22486

>  <SCORE.INTER>
-5.91769

>  <SCORE.INTER.CONST>
1

>  <SCORE.INTER.POLAR>
0

>  <SCORE.INTER.ROT>
11

>  <SCORE.INTER.SOLV>
11.0417

>  <SCORE.INTER.VDW>
-18.559

>  <SCORE.INTER.norm>
-0.422692

>  <SCORE.INTRA>
-2.30717

>  <SCORE.INTRA.DIHEDRAL>
-4.86643

>  <SCORE.INTRA.DIHEDRAL.0>
7.79482

>  <SCORE.INTRA.POLAR>
0

>  <SCORE.INTRA.POLAR.0>
0

>  <SCORE.INTRA.REPUL>
0

>  <SCORE.INTRA.REPUL.0>
0

>  <SCORE.INTRA.SOLV>
1.6543

>  <SCORE.INTRA.SOLV.lig_0>
-49.456

>  <SCORE.INTRA.VDW>
-0.7011

>  <SCORE.INTRA.VDW.0>
-0.478406

>  <SCORE.INTRA.norm>
-0.164798

>  <SCORE.RESTR>
0

>  <SCORE.RESTR.CAVITY>
0

>  <SCORE.RESTR.norm>
0

>  <SCORE.SYSTEM>
0

>  <SCORE.SYSTEM.CONST>
0

>  <SCORE.SYSTEM.DIHEDRAL>
0

>  <SCORE.SYSTEM.SOLV>
0

>  <SCORE.SYSTEM.norm>
0

>  <SCORE.heavy>
14

>  <SCORE.norm>
-0.58749

>  <RMSD>
3.394

$$$$
ligand
 OpenBabel11021811413D
libRbt.so/2013.1/901 2013/11/27
 14 13  0  0  0  0  0  0  0  0999 V2000
   45.4003    1.4869   16.4687 N   0  0  0  0  0  0  0  0  0  0  0  0
   45.6769    1.0330   17.8488 C   0  0  0  0  0  0  0  0  0  0  0  0
   46.2904    2.1680   18.6970 C   0  0  0  0  0  0  0  0  0  0  0  0
   45.3343    3.3357   18.9908 C   0  0  0  0  0  0  0  0  0  0  0  0
   45.9822    4.3491   19.8681 N   0  0  0  0  0  0  0  0  0  0  0  0
   45.5232    5.7137   19.5020 C   0  0  0  0  0  0  0  0  0  0  0  0
   46.4311    6.8890   19.9986 C   0  0  0  0  0  0  0  0  0  0  0  0
   46.1232    8.2574   19.3256 C   0  0  0  0  0  0  0  0  0  0  0  0
   44.8783    8.9392   19.8586 C   0  0  0  0  0  0  0  0  0  0  0  0
   43.7294    8.2004   19.3702 N   0  0  0  0  0  0  0  0  0  0  0  0
   42.5938    9.0960   19.5045 C   0  0  0  0  0  0  0  0  0  0  0  0
   41.2794    8.3260   19.5571 C   0  0  0  0  0  0  0  0  0  0  0  0
   41.2570    7.5344   20.8735 C   0  0  0  0  0  0  0  0  0  0  0  0
   40.0678    6.6766   20.9857 N   0  0  0  0  0  0  0  0  0  0  0  0
  1  2  1  0  0  0  0
  2  3  1  0  0  0  0
  3  4  1  0  0  0  0
  4  5  1  0  0  0  0
  5  6  1  0  0  0  0
  6  7  1  0  0  0  0
  7  8  1  0  0  0  0
  8  9  1  0  0  0  0
  9 10  1  0  0  0  0
 10 11  1  0  0  0  0
 11 12  1  0  0  0  0
 12 13  1  0  0  0  0
 13 14  1  0  0  0  0
M  END
>  <CHROM.1>
67.72264145,177.12942924,145.13154976,-161.12458918,166.16053701,76.63914968
-72.04117036,-161.40971135,-157.74180361,67.61563297,-175.99027127,44.32645872
5.85780399,19.34642860,1.07160617,-0.13291805,-2.90202475

>  <Name>
ligand

>  <RI>
0

>  <Rbt.Current_Directory>
/home/itssahil/PROJECTS/Mol_Feturizer/New_Systems/rnas/1TN2

>  <Rbt.Executable>
rbdock ($Id: //depot/dev/client3/rdock/2013.1/src/exe/rbdock.cxx#4 $)

>  <Rbt.Library>
libRbt.so (2013.1, Build901 2013/11/27)

>  <Rbt.Parameter_File>
/export/apps/rDock/src/rDock_2013.1_src/data/scripts/dock_solv.prm

>  <Rbt.Receptor>
prm/pocket_docking_7.prm

>  <SCORE>
-12.2896

>  <SCORE.INTER>
-10.8796

>  <SCORE.INTER.CONST>
1

>  <SCORE.INTER.POLAR>
0

>  <SCORE.INTER.ROT>
11

>  <SCORE.INTER.SOLV>
12.3649

>  <SCORE.INTER.VDW>
-22.308

>  <SCORE.INTER.norm>
-0.777115

>  <SCORE.INTRA>
-1.41004

>  <SCORE.INTRA.DIHEDRAL>
-3.30308

>  <SCORE.INTRA.DIHEDRAL.0>
7.79482

>  <SCORE.INTRA.POLAR>
0

>  <SCORE.INTRA.POLAR.0>
0

>  <SCORE.INTRA.REPUL>
0

>  <SCORE.INTRA.REPUL.0>
0

>  <SCORE.INTRA.SOLV>
1.84998

>  <SCORE.INTRA.SOLV.lig_0>
-49.456

>  <SCORE.INTRA.VDW>
-0.683494

>  <SCORE.INTRA.VDW.0>
-0.478406

>  <SCORE.INTRA.norm>
-0.100717

>  <SCORE.RESTR>
0

>  <SCORE.RESTR.CAVITY>
0

>  <SCORE.RESTR.norm>
0

>  <SCORE.SYSTEM>
0

>  <SCORE.SYSTEM.CONST>
0

>  <SCORE.SYSTEM.DIHEDRAL>
0

>  <SCORE.SYSTEM.SOLV>
0

>  <SCORE.SYSTEM.norm>
0

>  <SCORE.heavy>
14

>  <SCORE.norm>
-0.877832

>  <RMSD>
3.396

$$$$
ligand
 OpenBabel11021811413D
libRbt.so/2013.1/901 2013/11/27
 14 13  0  0  0  0  0  0  0  0999 V2000
   45.3889   -0.9273   13.6402 N   0  0  0  0  0  0  0  0  0  0  0  0
   45.1242   -1.8055   14.8003 C   0  0  0  0  0  0  0  0  0  0  0  0
   45.7773   -1.2473   16.0832 C   0  0  0  0  0  0  0  0  0  0  0  0
   45.1564    0.0607   16.6004 C   0  0  0  0  0  0  0  0  0  0  0  0
   45.9463    0.6157   17.7337 N   0  0  0  0  0  0  0  0  0  0  0  0
   45.1609    1.6563   18.4459 C   0  0  0  0  0  0  0  0  0  0  0  0
   45.9808    2.8846   18.9667 C   0  0  0  0  0  0  0  0  0  0  0  0
   45.1491    3.8901   19.8140 C   0  0  0  0  0  0  0  0  0  0  0  0
   45.9754    4.9929   20.4465 C   0  0  0  0  0  0  0  0  0  0  0  0
   46.4021    5.8857   19.3858 N   0  0  0  0  0  0  0  0  0  0  0  0
   46.3216    7.2268   19.9379 C   0  0  0  0  0  0  0  0  0  0  0  0
   46.4587    8.2865   18.8509 C   0  0  0  0  0  0  0  0  0  0  0  0
   46.3296    9.6616   19.5235 C   0  0  0  0  0  0  0  0  0  0  0  0
   46.3278   10.7602   18.5459 N   0  0  0  0  0  0  0  0  0  0  0  0
  1  2  1  0  0  0  0
  2  3  1  0  0  0  0
  3  4  1  0  0  0  0
  4  5  1  0  0  0  0
  5  6  1  0  0  0  0
  6  7  1  0  0  0  0
  7  8  1  0  0  0  0
  8  9  1  0  0  0  0
  9 10  1  0  0  0  0
 10 11  1  0  0  0  0
 11 12  1  0  0  0  0
 12 13  1  0  0  0  0
 13 14  1  0  0  0  0
M  END
>  <CHROM.1>
67.87131390,-172.98920344,-165.16749441,-142.80411831,-174.89523817,173.45961018
71.20268324,141.45691123,-168.02146849,178.73949869,-174.91525434,45.82127794
3.70991731,18.05567213,-2.60709884,1.46743956,1.40937474

>  <Name>
ligand

>  <RI>
0

>  <Rbt.Current_Directory>
/home/itssahil/PROJECTS/Mol_Feturizer/New_Systems/rnas/1TN2

>  <Rbt.Executable>
rbdock ($Id: //depot/dev/client3/rdock/2013.1/src/exe/rbdock.cxx#4 $)

>  <Rbt.Library>
libRbt.so (2013.1, Build901 2013/11/27)

>  <Rbt.Parameter_File>
/export/apps/rDock/src/rDock_2013.1_src/data/scripts/dock_solv.prm

>  <Rbt.Receptor>
prm/pocket_docking_5.prm

>  <SCORE>
-10.7199

>  <SCORE.INTER>
-8.17759

>  <SCORE.INTER.CONST>
1

>  <SCORE.INTER.POLAR>
0

>  <SCORE.INTER.ROT>
11

>  <SCORE.INTER.SOLV>
13.0615

>  <SCORE.INTER.VDW>
-20.7389

>  <SCORE.INTER.norm>
-0.584114

>  <SCORE.INTRA>
-2.54233

>  <SCORE.INTRA.DIHEDRAL>
-4.57304

>  <SCORE.INTRA.DIHEDRAL.0>
7.79482

>  <SCORE.INTRA.POLAR>
0

>  <SCORE.INTRA.POLAR.0>
0

>  <SCORE.INTRA.REPUL>
0

>  <SCORE.INTRA.REPUL.0>
0

>  <SCORE.INTRA.SOLV>
0.934405

>  <SCORE.INTRA.SOLV.lig_0>
-49.456

>  <SCORE.INTRA.VDW>
-0.723014

>  <SCORE.INTRA.VDW.0>
-0.478406

>  <SCORE.INTRA.norm>
-0.181595

>  <SCORE.RESTR>
0

>  <SCORE.RESTR.CAVITY>
0

>  <SCORE.RESTR.norm>
0

>  <SCORE.SYSTEM>
0

>  <SCORE.SYSTEM.CONST>
0

>  <SCORE.SYSTEM.DIHEDRAL>
0

>  <SCORE.SYSTEM.SOLV>
0

>  <SCORE.SYSTEM.norm>
0

>  <SCORE.heavy>
14

>  <SCORE.norm>
-0.765709

>  <RMSD>
3.407

$$$$
ligand
 OpenBabel11021811413D
libRbt.so/2013.1/901 2013/11/27
 14 13  0  0  0  0  0  0  0  0999 V2000
   45.6249    0.5890   16.3089 N   0  0  0  0  0  0  0  0  0  0  0  0
   45.5526    1.1081   17.6918 C   0  0  0  0  0  0  0  0  0  0  0  0
   44.0874    1.2868   18.1449 C   0  0  0  0  0  0  0  0  0  0  0  0
   43.9208    1.9074   19.5417 C   0  0  0  0  0  0  0  0  0  0  0  0
   44.5115    3.2730   19.5936 N   0  0  0  0  0  0  0  0  0  0  0  0
   44.0845    3.9702   20.8339 C   0  0  0  0  0  0  0  0  0  0  0  0
   44.8780    5.2739   21.1847 C   0  0  0  0  0  0  0  0  0  0  0  0
   44.8560    6.3519   20.0631 C   0  0  0  0  0  0  0  0  0  0  0  0
   45.6346    7.6082   20.4015 C   0  0  0  0  0  0  0  0  0  0  0  0
   45.4387    8.5519   19.3173 N   0  0  0  0  0  0  0  0  0  0  0  0
   46.5346    9.5004   19.4124 C   0  0  0  0  0  0  0  0  0  0  0  0
   47.3692    9.5180   18.1371 C   0  0  0  0  0  0  0  0  0  0  0  0
   48.0413    8.1432   18.0025 C   0  0  0  0  0  0  0  0  0  0  0  0
   48.9286    8.0709   16.8319 N   0  0  0  0  0  0  0  0  0  0  0  0
  1  2  1  0  0  0  0
  2  3  1  0  0  0  0
  3  4  1  0  0  0  0
  4  5  1  0  0  0  0
  5  6  1  0  0  0  0
  6  7  1  0  0  0  0
  7  8  1  0  0  0  0
  8  9  1  0  0  0  0
  9 10  1  0  0  0  0
 10 11  1  0  0  0  0
 11 12  1  0  0  0  0
 12 13  1  0  0  0  0
 13 14  1  0  0  0  0
M  END
>  <CHROM.1>
-176.31918571,61.14908693,167.49465619,166.58420158,56.94712086,-179.52411160
-175.68072074,-159.79413459,120.82716018,-65.29508790,-177.22776789,45.67572919
5.36816494,18.96219663,-2.07461754,0.85897402,0.43726750

>  <Name>
ligand

>  <RI>
0

>  <Rbt.Current_Directory>
/home/itssahil/PROJECTS/Mol_Feturizer/New_Systems/rnas/1TN2

>  <Rbt.Executable>
rbdock ($Id: //depot/dev/client3/rdock/2013.1/src/exe/rbdock.cxx#4 $)

>  <Rbt.Library>
libRbt.so (2013.1, Build901 2013/11/27)

>  <Rbt.Parameter_File>
/export/apps/rDock/src/rDock_2013.1_src/data/scripts/dock_solv.prm

>  <Rbt.Receptor>
prm/pocket_docking_6.prm

>  <SCORE>
-8.49003

>  <SCORE.INTER>
-5.5055

>  <SCORE.INTER.CONST>
1

>  <SCORE.INTER.POLAR>
0

>  <SCORE.INTER.ROT>
11

>  <SCORE.INTER.SOLV>
12.8051

>  <SCORE.INTER.VDW>
-18.872

>  <SCORE.INTER.norm>
-0.39325

>  <SCORE.INTRA>
-2.98452

>  <SCORE.INTRA.DIHEDRAL>
-5.72669

>  <SCORE.INTRA.DIHEDRAL.0>
7.79482

>  <SCORE.INTRA.POLAR>
0

>  <SCORE.INTRA.POLAR.0>
0

>  <SCORE.INTRA.REPUL>
0

>  <SCORE.INTRA.REPUL.0>
0

>  <SCORE.INTRA.SOLV>
1.07689

>  <SCORE.INTRA.SOLV.lig_0>
-49.456

>  <SCORE.INTRA.VDW>
-0.659623

>  <SCORE.INTRA.VDW.0>
-0.478406

>  <SCORE.INTRA.norm>
-0.21318

>  <SCORE.RESTR>
0

>  <SCORE.RESTR.CAVITY>
0

>  <SCORE.RESTR.norm>
0

>  <SCORE.SYSTEM>
0

>  <SCORE.SYSTEM.CONST>
0

>  <SCORE.SYSTEM.DIHEDRAL>
0

>  <SCORE.SYSTEM.SOLV>
0

>  <SCORE.SYSTEM.norm>
0

>  <SCORE.heavy>
14

>  <SCORE.norm>
-0.60643

>  <RMSD>
3.409

$$$$
ligand
 OpenBabel11021811413D
libRbt.so/2013.1/901 2013/11/27
 14 13  0  0  0  0  0  0  0  0999 V2000
   45.7533   -0.4722   13.7442 N   0  0  0  0  0  0  0  0  0  0  0  0
   46.5577   -1.1368   14.7922 C   0  0  0  0  0  0  0  0  0  0  0  0
   45.6943   -1.4781   16.0259 C   0  0  0  0  0  0  0  0  0  0  0  0
   45.0403   -0.2635   16.7050 C   0  0  0  0  0  0  0  0  0  0  0  0
   46.0441    0.5249   17.4714 N   0  0  0  0  0  0  0  0  0  0  0  0
   45.3663    1.5685   18.2828 C   0  0  0  0  0  0  0  0  0  0  0  0
   46.2492    2.8015   18.6733 C   0  0  0  0  0  0  0  0  0  0  0  0
   45.4772    3.9220   19.4275 C   0  0  0  0  0  0  0  0  0  0  0  0
   46.3352    5.1138   19.8049 C   0  0  0  0  0  0  0  0  0  0  0  0
   45.4469    6.1730   20.2447 N   0  0  0  0  0  0  0  0  0  0  0  0
   46.1404    7.4173   19.9611 C   0  0  0  0  0  0  0  0  0  0  0  0
   45.1657    8.5821   19.8322 C   0  0  0  0  0  0  0  0  0  0  0  0
   45.9749    9.8221   19.4227 C   0  0  0  0  0  0  0  0  0  0  0  0
   46.5443    9.6930   18.0730 N   0  0  0  0  0  0  0  0  0  0  0  0
  1  2  1  0  0  0  0
  2  3  1  0  0  0  0
  3  4  1  0  0  0  0
  4  5  1  0  0  0  0
  5  6  1  0  0  0  0
  6  7  1  0  0  0  0
  7  8  1  0  0  0  0
  8  9  1  0  0  0  0
  9 10  1  0  0  0  0
 10 11  1  0  0  0  0
 11 12  1  0  0  0  0
 12 13  1  0  0  0  0
 13 14  1  0  0  0  0
M  END
>  <CHROM.1>
-60.01629807,-74.12469891,-171.48314063,-156.50981967,175.53900785,179.96235226
168.59306949,-152.36513235,156.95371315,-175.50800469,66.54433922,45.84207908
3.73328794,18.03318109,-1.63520846,1.41488378,0.45947920

>  <Name>
ligand

>  <RI>
0

>  <Rbt.Current_Directory>
/home/itssahil/PROJECTS/Mol_Feturizer/New_Systems/rnas/1TN2

>  <Rbt.Executable>
rbdock ($Id: //depot/dev/client3/rdock/2013.1/src/exe/rbdock.cxx#4 $)

>  <Rbt.Library>
libRbt.so (2013.1, Build901 2013/11/27)

>  <Rbt.Parameter_File>
/export/apps/rDock/src/rDock_2013.1_src/data/scripts/dock_solv.prm

>  <Rbt.Receptor>
prm/blind_docking_60.prm

>  <SCORE>
-9.82604

>  <SCORE.INTER>
-7.86268

>  <SCORE.INTER.CONST>
1

>  <SCORE.INTER.POLAR>
0

>  <SCORE.INTER.ROT>
11

>  <SCORE.INTER.SOLV>
10.7211

>  <SCORE.INTER.VDW>
-19.7488

>  <SCORE.INTER.norm>
-0.56162

>  <SCORE.INTRA>
-1.96336

>  <SCORE.INTRA.DIHEDRAL>
-4.91425

>  <SCORE.INTRA.DIHEDRAL.0>
7.79482

>  <SCORE.INTRA.POLAR>
0

>  <SCORE.INTRA.POLAR.0>
0

>  <SCORE.INTRA.REPUL>
0

>  <SCORE.INTRA.REPUL.0>
0

>  <SCORE.INTRA.SOLV>
2.31875

>  <SCORE.INTRA.SOLV.lig_0>
-49.456

>  <SCORE.INTRA.VDW>
-0.665612

>  <SCORE.INTRA.VDW.0>
-0.478406

>  <SCORE.INTRA.norm>
-0.14024

>  <SCORE.RESTR>
0

>  <SCORE.RESTR.CAVITY>
0

>  <SCORE.RESTR.norm>
0

>  <SCORE.SYSTEM>
0

>  <SCORE.SYSTEM.CONST>
0

>  <SCORE.SYSTEM.DIHEDRAL>
0

>  <SCORE.SYSTEM.SOLV>
0

>  <SCORE.SYSTEM.norm>
0

>  <SCORE.heavy>
14

>  <SCORE.norm>
-0.70186

>  <RMSD>
3.422

$$$$
ligand
 OpenBabel11021811413D
libRbt.so/2013.1/901 2013/11/27
 14 13  0  0  0  0  0  0  0  0999 V2000
   46.4576   10.0836   18.0324 N   0  0  0  0  0  0  0  0  0  0  0  0
   45.7231    8.9864   18.6984 C   0  0  0  0  0  0  0  0  0  0  0  0
   46.5926    8.3082   19.7792 C   0  0  0  0  0  0  0  0  0  0  0  0
   45.9110    7.1382   20.5075 C   0  0  0  0  0  0  0  0  0  0  0  0
   45.6111    6.0246   19.5661 N   0  0  0  0  0  0  0  0  0  0  0  0
   45.0996    4.8458   20.3115 C   0  0  0  0  0  0  0  0  0  0  0  0
   44.9774    3.5224   19.4834 C   0  0  0  0  0  0  0  0  0  0  0  0
   46.3193    3.0324   18.8674 C   0  0  0  0  0  0  0  0  0  0  0  0
   46.2431    1.6522   18.2445 C   0  0  0  0  0  0  0  0  0  0  0  0
   45.4136    1.7506   17.0585 N   0  0  0  0  0  0  0  0  0  0  0  0
   44.7082    0.4848   16.9601 C   0  0  0  0  0  0  0  0  0  0  0  0
   44.4885    0.0802   15.5070 C   0  0  0  0  0  0  0  0  0  0  0  0
   45.8503   -0.3341   14.9290 C   0  0  0  0  0  0  0  0  0  0  0  0
   45.7650   -0.6856   13.5036 N   0  0  0  0  0  0  0  0  0  0  0  0
  1  2  1  0  0  0  0
  2  3  1  0  0  0  0
  3  4  1  0  0  0  0
  4  5  1  0  0  0  0
  5  6  1  0  0  0  0
  6  7  1  0  0  0  0
  7  8  1  0  0  0  0
  8  9  1  0  0  0  0
  9 10  1  0  0  0  0
 10 11  1  0  0  0  0
 11 12  1  0  0  0  0
 12 13  1  0  0  0  0
 13 14  1  0  0  0  0
M  END
>  <CHROM.1>
-179.07305924,63.63470403,173.44735739,-169.83704857,59.14429838,171.36052401
68.88116071,-146.31107557,-146.17424334,71.55386589,-177.29828804,45.65424357
3.92054413,17.96099750,-1.10746279,-1.40622739,-2.23954398

>  <Name>
ligand

>  <RI>
0

>  <Rbt.Current_Directory>
/home/itssahil/PROJECTS/Mol_Feturizer/New_Systems/rnas/1TN2

>  <Rbt.Executable>
rbdock ($Id: //depot/dev/client3/rdock/2013.1/src/exe/rbdock.cxx#4 $)

>  <Rbt.Library>
libRbt.so (2013.1, Build901 2013/11/27)

>  <Rbt.Parameter_File>
/export/apps/rDock/src/rDock_2013.1_src/data/scripts/dock_solv.prm

>  <Rbt.Receptor>
prm/pocket_docking_4.prm

>  <SCORE>
-9.49194

>  <SCORE.INTER>
-6.82131

>  <SCORE.INTER.CONST>
1

>  <SCORE.INTER.POLAR>
0

>  <SCORE.INTER.ROT>
11

>  <SCORE.INTER.SOLV>
8.25742

>  <SCORE.INTER.VDW>
-18.2333

>  <SCORE.INTER.norm>
-0.487237

>  <SCORE.INTRA>
-2.67063

>  <SCORE.INTRA.DIHEDRAL>
-5.06822

>  <SCORE.INTRA.DIHEDRAL.0>
7.79482

>  <SCORE.INTRA.POLAR>
0

>  <SCORE.INTRA.POLAR.0>
0

>  <SCORE.INTRA.REPUL>
0

>  <SCORE.INTRA.REPUL.0>
0

>  <SCORE.INTRA.SOLV>
1.31524

>  <SCORE.INTRA.SOLV.lig_0>
-49.456

>  <SCORE.INTRA.VDW>
-0.79414

>  <SCORE.INTRA.VDW.0>
-0.478406

>  <SCORE.INTRA.norm>
-0.190759

>  <SCORE.RESTR>
0

>  <SCORE.RESTR.CAVITY>
0

>  <SCORE.RESTR.norm>
0

>  <SCORE.SYSTEM>
0

>  <SCORE.SYSTEM.CONST>
0

>  <SCORE.SYSTEM.DIHEDRAL>
0

>  <SCORE.SYSTEM.SOLV>
0

>  <SCORE.SYSTEM.norm>
0

>  <SCORE.heavy>
14

>  <SCORE.norm>
-0.677996

>  <RMSD>
3.428

$$$$
ligand
 OpenBabel11021811413D
libRbt.so/2013.1/901 2013/11/27
 14 13  0  0  0  0  0  0  0  0999 V2000
   46.7257   -1.1788   14.6891 N   0  0  0  0  0  0  0  0  0  0  0  0
   45.5788   -1.2587   15.6193 C   0  0  0  0  0  0  0  0  0  0  0  0
   44.4830   -0.2381   15.2431 C   0  0  0  0  0  0  0  0  0  0  0  0
   44.8662    1.2309   15.4863 C   0  0  0  0  0  0  0  0  0  0  0  0
   44.9747    1.5209   16.9425 N   0  0  0  0  0  0  0  0  0  0  0  0
   46.2929    2.1346   17.2469 C   0  0  0  0  0  0  0  0  0  0  0  0
   46.4611    2.6898   18.7015 C   0  0  0  0  0  0  0  0  0  0  0  0
   45.6003    3.9499   19.0038 C   0  0  0  0  0  0  0  0  0  0  0  0
   45.8445    4.5476   20.3757 C   0  0  0  0  0  0  0  0  0  0  0  0
   45.0009    5.7211   20.5002 N   0  0  0  0  0  0  0  0  0  0  0  0
   45.8906    6.8641   20.3922 C   0  0  0  0  0  0  0  0  0  0  0  0
   45.2326    8.0138   19.6382 C   0  0  0  0  0  0  0  0  0  0  0  0
   46.2677    9.1423   19.5159 C   0  0  0  0  0  0  0  0  0  0  0  0
   45.7645   10.2741   18.7232 N   0  0  0  0  0  0  0  0  0  0  0  0
  1  2  1  0  0  0  0
  2  3  1  0  0  0  0
  3  4  1  0  0  0  0
  4  5  1  0  0  0  0
  5  6  1  0  0  0  0
  6  7  1  0  0  0  0
  7  8  1  0  0  0  0
  8  9  1  0  0  0  0
  9 10  1  0  0  0  0
 10 11  1  0  0  0  0
 11 12  1  0  0  0  0
 12 13  1  0  0  0  0
 13 14  1  0  0  0  0
M  END
>  <CHROM.1>
-69.57919930,-68.52470304,126.76626470,171.11212806,-69.15782035,-175.55223057
178.76662303,-106.38812971,143.39423185,-177.27468059,176.22409589,45.64168294
3.81513944,18.00569129,1.85333953,1.50691078,-2.96632311

>  <Name>
ligand

>  <RI>
0

>  <Rbt.Current_Directory>
/home/itssahil/PROJECTS/Mol_Feturizer/New_Systems/rnas/1TN2

>  <Rbt.Executable>
rbdock ($Id: //depot/dev/client3/rdock/2013.1/src/exe/rbdock.cxx#4 $)

>  <Rbt.Library>
libRbt.so (2013.1, Build901 2013/11/27)

>  <Rbt.Parameter_File>
/export/apps/rDock/src/rDock_2013.1_src/data/scripts/dock_solv.prm

>  <Rbt.Receptor>
prm/pocket_docking_3.prm

>  <SCORE>
-7.70716

>  <SCORE.INTER>
-6.09386

>  <SCORE.INTER.CONST>
1

>  <SCORE.INTER.POLAR>
0

>  <SCORE.INTER.ROT>
11

>  <SCORE.INTER.SOLV>
12.2373

>  <SCORE.INTER.VDW>
-19.075

>  <SCORE.INTER.norm>
-0.435276

>  <SCORE.INTRA>
-1.6133

>  <SCORE.INTRA.DIHEDRAL>
-3.61912

>  <SCORE.INTRA.DIHEDRAL.0>
7.79482

>  <SCORE.INTRA.POLAR>
0

>  <SCORE.INTRA.POLAR.0>
0

>  <SCORE.INTRA.REPUL>
0

>  <SCORE.INTRA.REPUL.0>
0

>  <SCORE.INTRA.SOLV>
2.01867

>  <SCORE.INTRA.SOLV.lig_0>
-49.456

>  <SCORE.INTRA.VDW>
-0.81308

>  <SCORE.INTRA.VDW.0>
-0.478406

>  <SCORE.INTRA.norm>
-0.115236

>  <SCORE.RESTR>
0

>  <SCORE.RESTR.CAVITY>
0

>  <SCORE.RESTR.norm>
0

>  <SCORE.SYSTEM>
0

>  <SCORE.SYSTEM.CONST>
0

>  <SCORE.SYSTEM.DIHEDRAL>
0

>  <SCORE.SYSTEM.SOLV>
0

>  <SCORE.SYSTEM.norm>
0

>  <SCORE.heavy>
14

>  <SCORE.norm>
-0.550512

>  <RMSD>
3.434

$$$$
ligand
 OpenBabel11021811413D
libRbt.so/2013.1/901 2013/11/27
 14 13  0  0  0  0  0  0  0  0999 V2000
   45.6575   -2.2620   13.5239 N   0  0  0  0  0  0  0  0  0  0  0  0
   44.9244   -1.7513   14.7024 C   0  0  0  0  0  0  0  0  0  0  0  0
   45.8547   -0.9402   15.6300 C   0  0  0  0  0  0  0  0  0  0  0  0
   45.1488   -0.2799   16.8257 C   0  0  0  0  0  0  0  0  0  0  0  0
   46.1004    0.5465   17.6183 N   0  0  0  0  0  0  0  0  0  0  0  0
   45.3612    1.5630   18.4101 C   0  0  0  0  0  0  0  0  0  0  0  0
   46.1720    2.8491   18.7854 C   0  0  0  0  0  0  0  0  0  0  0  0
   45.3337    3.9380   19.5148 C   0  0  0  0  0  0  0  0  0  0  0  0
   46.1292    5.1683   19.9051 C   0  0  0  0  0  0  0  0  0  0  0  0
   45.2098    6.1114   20.5130 N   0  0  0  0  0  0  0  0  0  0  0  0
   45.8975    7.3907   20.5183 C   0  0  0  0  0  0  0  0  0  0  0  0
   45.4484    8.2701   19.3572 C   0  0  0  0  0  0  0  0  0  0  0  0
   46.2386    9.5851   19.4374 C   0  0  0  0  0  0  0  0  0  0  0  0
   45.8918   10.5089   18.3470 N   0  0  0  0  0  0  0  0  0  0  0  0
  1  2  1  0  0  0  0
  2  3  1  0  0  0  0
  3  4  1  0  0  0  0
  4  5  1  0  0  0  0
  5  6  1  0  0  0  0
  6  7  1  0  0  0  0
  7  8  1  0  0  0  0
  8  9  1  0  0  0  0
  9 10  1  0  0  0  0
 10 11  1  0  0  0  0
 11 12  1  0  0  0  0
 12 13  1  0  0  0  0
 13 14  1  0  0  0  0
M  END
>  <CHROM.1>
175.48482054,-176.56630406,158.13230443,-154.68762298,175.37130550,178.66449793
177.37294197,-164.01175570,99.15036748,-179.31792376,179.36774757,45.66912313
3.62123511,18.07798222,-2.50738315,1.53109596,1.34405195

>  <Name>
ligand

>  <RI>
0

>  <Rbt.Current_Directory>
/home/itssahil/PROJECTS/Mol_Feturizer/New_Systems/rnas/1TN2

>  <Rbt.Executable>
rbdock ($Id: //depot/dev/client3/rdock/2013.1/src/exe/rbdock.cxx#4 $)

>  <Rbt.Library>
libRbt.so (2013.1, Build901 2013/11/27)

>  <Rbt.Parameter_File>
/export/apps/rDock/src/rDock_2013.1_src/data/scripts/dock_solv.prm

>  <Rbt.Receptor>
prm/pocket_docking_8.prm

>  <SCORE>
-10.7454

>  <SCORE.INTER>
-7.32322

>  <SCORE.INTER.CONST>
1

>  <SCORE.INTER.POLAR>
0

>  <SCORE.INTER.ROT>
11

>  <SCORE.INTER.SOLV>
12.3253

>  <SCORE.INTER.VDW>
-19.9239

>  <SCORE.INTER.norm>
-0.523087

>  <SCORE.INTRA>
-3.42221

>  <SCORE.INTRA.DIHEDRAL>
-5.67486

>  <SCORE.INTRA.DIHEDRAL.0>
7.79482

>  <SCORE.INTRA.POLAR>
0

>  <SCORE.INTRA.POLAR.0>
0

>  <SCORE.INTRA.REPUL>
0

>  <SCORE.INTRA.REPUL.0>
0

>  <SCORE.INTRA.SOLV>
-0.0563539

>  <SCORE.INTRA.SOLV.lig_0>
-49.456

>  <SCORE.INTRA.VDW>
-0.556603

>  <SCORE.INTRA.VDW.0>
-0.478406

>  <SCORE.INTRA.norm>
-0.244444

>  <SCORE.RESTR>
0

>  <SCORE.RESTR.CAVITY>
0

>  <SCORE.RESTR.norm>
0

>  <SCORE.SYSTEM>
0

>  <SCORE.SYSTEM.CONST>
0

>  <SCORE.SYSTEM.DIHEDRAL>
0

>  <SCORE.SYSTEM.SOLV>
0

>  <SCORE.SYSTEM.norm>
0

>  <SCORE.heavy>
14

>  <SCORE.norm>
-0.76753

>  <RMSD>
3.437

$$$$
ligand
 OpenBabel11021811413D
libRbt.so/2013.1/901 2013/11/27
 14 13  0  0  0  0  0  0  0  0999 V2000
   46.7614    9.4093   17.7453 N   0  0  0  0  0  0  0  0  0  0  0  0
   46.3403    9.7861   19.1120 C   0  0  0  0  0  0  0  0  0  0  0  0
   46.6037    8.6404   20.1129 C   0  0  0  0  0  0  0  0  0  0  0  0
   45.8871    7.3217   19.7790 C   0  0  0  0  0  0  0  0  0  0  0  0
   46.1840    6.2790   20.7993 N   0  0  0  0  0  0  0  0  0  0  0  0
   45.4521    5.0261   20.4810 C   0  0  0  0  0  0  0  0  0  0  0  0
   46.0988    4.1272   19.3738 C   0  0  0  0  0  0  0  0  0  0  0  0
   45.3166    2.8137   19.0850 C   0  0  0  0  0  0  0  0  0  0  0  0
   45.9244    1.9644   17.9859 C   0  0  0  0  0  0  0  0  0  0  0  0
   45.1496    0.7413   17.8964 N   0  0  0  0  0  0  0  0  0  0  0  0
   44.9080    0.5258   16.4805 C   0  0  0  0  0  0  0  0  0  0  0  0
   45.5616   -0.7620   15.9929 C   0  0  0  0  0  0  0  0  0  0  0  0
   45.2304   -0.9151   14.5006 C   0  0  0  0  0  0  0  0  0  0  0  0
   45.8104   -2.1380   13.9255 N   0  0  0  0  0  0  0  0  0  0  0  0
  1  2  1  0  0  0  0
  2  3  1  0  0  0  0
  3  4  1  0  0  0  0
  4  5  1  0  0  0  0
  5  6  1  0  0  0  0
  6  7  1  0  0  0  0
  7  8  1  0  0  0  0
  8  9  1  0  0  0  0
  9 10  1  0  0  0  0
 10 11  1  0  0  0  0
 11 12  1  0  0  0  0
 12 13  1  0  0  0  0
 13 14  1  0  0  0  0
M  END
>  <CHROM.1>
-58.98466053,-179.41819562,178.35906753,79.82579443,179.04782236,178.39539866
176.01750973,134.30118119,116.74585820,178.96882488,-179.69641798,45.80196759
3.77293976,18.09094291,-1.07265795,-1.37924112,-2.22907568

>  <Name>
ligand

>  <RI>
0

>  <Rbt.Current_Directory>
/home/itssahil/PROJECTS/Mol_Feturizer/New_Systems/rnas/1TN2

>  <Rbt.Executable>
rbdock ($Id: //depot/dev/client3/rdock/2013.1/src/exe/rbdock.cxx#4 $)

>  <Rbt.Library>
libRbt.so (2013.1, Build901 2013/11/27)

>  <Rbt.Parameter_File>
/export/apps/rDock/src/rDock_2013.1_src/data/scripts/dock_solv.prm

>  <Rbt.Receptor>
prm/pocket_docking_6.prm

>  <SCORE>
-10.2925

>  <SCORE.INTER>
-7.66623

>  <SCORE.INTER.CONST>
1

>  <SCORE.INTER.POLAR>
0

>  <SCORE.INTER.ROT>
11

>  <SCORE.INTER.SOLV>
12.8425

>  <SCORE.INTER.VDW>
-20.325

>  <SCORE.INTER.norm>
-0.547588

>  <SCORE.INTRA>
-2.62624

>  <SCORE.INTRA.DIHEDRAL>
-5.18296

>  <SCORE.INTRA.DIHEDRAL.0>
7.79482

>  <SCORE.INTRA.POLAR>
0

>  <SCORE.INTRA.POLAR.0>
0

>  <SCORE.INTRA.REPUL>
0

>  <SCORE.INTRA.REPUL.0>
0

>  <SCORE.INTRA.SOLV>
0.672225

>  <SCORE.INTRA.SOLV.lig_0>
-49.456

>  <SCORE.INTRA.VDW>
-0.370872

>  <SCORE.INTRA.VDW.0>
-0.478406

>  <SCORE.INTRA.norm>
-0.187589

>  <SCORE.RESTR>
0

>  <SCORE.RESTR.CAVITY>
0

>  <SCORE.RESTR.norm>
0

>  <SCORE.SYSTEM>
0

>  <SCORE.SYSTEM.CONST>
0

>  <SCORE.SYSTEM.DIHEDRAL>
0

>  <SCORE.SYSTEM.SOLV>
0

>  <SCORE.SYSTEM.norm>
0

>  <SCORE.heavy>
14

>  <SCORE.norm>
-0.735176

>  <RMSD>
3.440

$$$$
ligand
 OpenBabel11021811413D
libRbt.so/2013.1/901 2013/11/27
 14 13  0  0  0  0  0  0  0  0999 V2000
   45.6630    1.8367   17.0236 N   0  0  0  0  0  0  0  0  0  0  0  0
   46.2407    3.0470   17.6468 C   0  0  0  0  0  0  0  0  0  0  0  0
   45.6914    3.2558   19.0746 C   0  0  0  0  0  0  0  0  0  0  0  0
   46.1741    4.5426   19.7641 C   0  0  0  0  0  0  0  0  0  0  0  0
   45.6084    4.6581   21.1363 N   0  0  0  0  0  0  0  0  0  0  0  0
   44.1629    4.9941   21.0691 C   0  0  0  0  0  0  0  0  0  0  0  0
   43.8066    6.5004   21.3058 C   0  0  0  0  0  0  0  0  0  0  0  0
   44.3298    7.4586   20.1974 C   0  0  0  0  0  0  0  0  0  0  0  0
   45.8291    7.6815   20.2339 C   0  0  0  0  0  0  0  0  0  0  0  0
   46.1958    8.4011   19.0289 N   0  0  0  0  0  0  0  0  0  0  0  0
   47.4205    7.7821   18.5528 C   0  0  0  0  0  0  0  0  0  0  0  0
   47.8091    8.3028   17.1740 C   0  0  0  0  0  0  0  0  0  0  0  0
   48.2275    9.7723   17.3331 C   0  0  0  0  0  0  0  0  0  0  0  0
   47.0823   10.6476   17.6246 N   0  0  0  0  0  0  0  0  0  0  0  0
  1  2  1  0  0  0  0
  2  3  1  0  0  0  0
  3  4  1  0  0  0  0
  4  5  1  0  0  0  0
  5  6  1  0  0  0  0
  6  7  1  0  0  0  0
  7  8  1  0  0  0  0
  8  9  1  0  0  0  0
  9 10  1  0  0  0  0
 10 11  1  0  0  0  0
 11 12  1  0  0  0  0
 12 13  1  0  0  0  0
 13 14  1  0  0  0  0
M  END
>  <CHROM.1>
-176.35955669,-179.48710969,-72.69564208,-100.28499308,66.20792063,-72.87642240
170.64489202,-137.91653182,171.44672595,68.67287447,-70.89697375,46.01718727
6.34860407,19.08335692,-2.09477473,0.93435677,0.23825286

>  <Name>
ligand

>  <RI>
0

>  <Rbt.Current_Directory>
/home/itssahil/PROJECTS/Mol_Feturizer/New_Systems/rnas/1TN2

>  <Rbt.Executable>
rbdock ($Id: //depot/dev/client3/rdock/2013.1/src/exe/rbdock.cxx#4 $)

>  <Rbt.Library>
libRbt.so (2013.1, Build901 2013/11/27)

>  <Rbt.Parameter_File>
/export/apps/rDock/src/rDock_2013.1_src/data/scripts/dock_solv.prm

>  <Rbt.Receptor>
prm/pocket_docking_8.prm

>  <SCORE>
-6.97904

>  <SCORE.INTER>
-7.1214

>  <SCORE.INTER.CONST>
1

>  <SCORE.INTER.POLAR>
0

>  <SCORE.INTER.ROT>
11

>  <SCORE.INTER.SOLV>
10.9978

>  <SCORE.INTER.VDW>
-19.3469

>  <SCORE.INTER.norm>
-0.508671

>  <SCORE.INTRA>
0.142358

>  <SCORE.INTRA.DIHEDRAL>
-3.83889

>  <SCORE.INTRA.DIHEDRAL.0>
7.79482

>  <SCORE.INTRA.POLAR>
0

>  <SCORE.INTRA.POLAR.0>
0

>  <SCORE.INTRA.REPUL>
0

>  <SCORE.INTRA.REPUL.0>
0

>  <SCORE.INTRA.SOLV>
4.25134

>  <SCORE.INTRA.SOLV.lig_0>
-49.456

>  <SCORE.INTRA.VDW>
-0.0638668

>  <SCORE.INTRA.VDW.0>
-0.478406

>  <SCORE.INTRA.norm>
0.0101684

>  <SCORE.RESTR>
0

>  <SCORE.RESTR.CAVITY>
0

>  <SCORE.RESTR.norm>
0

>  <SCORE.SYSTEM>
0

>  <SCORE.SYSTEM.CONST>
0

>  <SCORE.SYSTEM.DIHEDRAL>
0

>  <SCORE.SYSTEM.SOLV>
0

>  <SCORE.SYSTEM.norm>
0

>  <SCORE.heavy>
14

>  <SCORE.norm>
-0.498503

>  <RMSD>
3.441

$$$$
ligand
 OpenBabel11021811413D
libRbt.so/2013.1/901 2013/11/27
 14 13  0  0  0  0  0  0  0  0999 V2000
   45.9981   -1.5575   14.3119 N   0  0  0  0  0  0  0  0  0  0  0  0
   44.6237   -1.0538   14.5227 C   0  0  0  0  0  0  0  0  0  0  0  0
   44.6348    0.3195   15.2284 C   0  0  0  0  0  0  0  0  0  0  0  0
   45.2008    0.2997   16.6578 C   0  0  0  0  0  0  0  0  0  0  0  0
   45.2680    1.6746   17.2250 N   0  0  0  0  0  0  0  0  0  0  0  0
   44.8736    1.6590   18.6571 C   0  0  0  0  0  0  0  0  0  0  0  0
   44.7796    3.0610   19.3484 C   0  0  0  0  0  0  0  0  0  0  0  0
   46.1364    3.8168   19.4385 C   0  0  0  0  0  0  0  0  0  0  0  0
   46.1237    4.9925   20.3958 C   0  0  0  0  0  0  0  0  0  0  0  0
   45.3006    6.0310   19.8054 N   0  0  0  0  0  0  0  0  0  0  0  0
   45.5456    7.2278   20.5911 C   0  0  0  0  0  0  0  0  0  0  0  0
   46.4776    8.1907   19.8648 C   0  0  0  0  0  0  0  0  0  0  0  0
   45.7158    8.7502   18.6538 C   0  0  0  0  0  0  0  0  0  0  0  0
   46.5253    9.7040   17.8806 N   0  0  0  0  0  0  0  0  0  0  0  0
  1  2  1  0  0  0  0
  2  3  1  0  0  0  0
  3  4  1  0  0  0  0
  4  5  1  0  0  0  0
  5  6  1  0  0  0  0
  6  7  1  0  0  0  0
  7  8  1  0  0  0  0
  8  9  1  0  0  0  0
  9 10  1  0  0  0  0
 10 11  1  0  0  0  0
 11 12  1  0  0  0  0
 12 13  1  0  0  0  0
 13 14  1  0  0  0  0
M  END
>  <CHROM.1>
-64.54653864,175.80375266,140.37460472,-174.90390926,-64.28274068,-165.50732252
-70.30554149,-167.86118822,102.84668190,68.81237989,179.64353582,45.51443275
3.79389843,18.04182104,-2.23325007,1.41374297,1.10219250

>  <Name>
ligand

>  <RI>
0

>  <Rbt.Current_Directory>
/home/itssahil/PROJECTS/Mol_Feturizer/New_Systems/rnas/1TN2

>  <Rbt.Executable>
rbdock ($Id: //depot/dev/client3/rdock/2013.1/src/exe/rbdock.cxx#4 $)

>  <Rbt.Library>
libRbt.so (2013.1, Build901 2013/11/27)

>  <Rbt.Parameter_File>
/export/apps/rDock/src/rDock_2013.1_src/data/scripts/dock_solv.prm

>  <Rbt.Receptor>
prm/pocket_docking_5.prm

>  <SCORE>
-8.60898

>  <SCORE.INTER>
-6.92031

>  <SCORE.INTER.CONST>
1

>  <SCORE.INTER.POLAR>
0

>  <SCORE.INTER.ROT>
11

>  <SCORE.INTER.SOLV>
10.2489

>  <SCORE.INTER.VDW>
-18.9632

>  <SCORE.INTER.norm>
-0.494308

>  <SCORE.INTRA>
-1.68867

>  <SCORE.INTRA.DIHEDRAL>
-4.05873

>  <SCORE.INTRA.DIHEDRAL.0>
7.79482

>  <SCORE.INTRA.POLAR>
0

>  <SCORE.INTRA.POLAR.0>
0

>  <SCORE.INTRA.REPUL>
0

>  <SCORE.INTRA.REPUL.0>
0

>  <SCORE.INTRA.SOLV>
1.62905

>  <SCORE.INTRA.SOLV.lig_0>
-49.456

>  <SCORE.INTRA.VDW>
-0.473835

>  <SCORE.INTRA.VDW.0>
-0.478406

>  <SCORE.INTRA.norm>
-0.120619

>  <SCORE.RESTR>
0

>  <SCORE.RESTR.CAVITY>
0

>  <SCORE.RESTR.norm>
0

>  <SCORE.SYSTEM>
0

>  <SCORE.SYSTEM.CONST>
0

>  <SCORE.SYSTEM.DIHEDRAL>
0

>  <SCORE.SYSTEM.SOLV>
0

>  <SCORE.SYSTEM.norm>
0

>  <SCORE.heavy>
14

>  <SCORE.norm>
-0.614927

>  <RMSD>
3.447

$$$$
ligand
 OpenBabel11021811413D
libRbt.so/2013.1/901 2013/11/27
 14 13  0  0  0  0  0  0  0  0999 V2000
   45.1756   -0.3666   15.7317 N   0  0  0  0  0  0  0  0  0  0  0  0
   45.1247    1.1103   15.6737 C   0  0  0  0  0  0  0  0  0  0  0  0
   45.4611    1.7346   17.0452 C   0  0  0  0  0  0  0  0  0  0  0  0
   44.4373    1.4357   18.1527 C   0  0  0  0  0  0  0  0  0  0  0  0
   44.7639    2.1830   19.3982 N   0  0  0  0  0  0  0  0  0  0  0  0
   43.5255    2.4595   20.1707 C   0  0  0  0  0  0  0  0  0  0  0  0
   43.5856    3.7002   21.1242 C   0  0  0  0  0  0  0  0  0  0  0  0
   43.9807    5.0275   20.4153 C   0  0  0  0  0  0  0  0  0  0  0  0
   44.1301    6.2070   21.3562 C   0  0  0  0  0  0  0  0  0  0  0  0
   44.4582    7.3703   20.5540 N   0  0  0  0  0  0  0  0  0  0  0  0
   45.9084    7.4508   20.5441 C   0  0  0  0  0  0  0  0  0  0  0  0
   46.3893    8.7775   19.9679 C   0  0  0  0  0  0  0  0  0  0  0  0
   45.9975    8.8083   18.4828 C   0  0  0  0  0  0  0  0  0  0  0  0
   46.4687   10.0277   17.8092 N   0  0  0  0  0  0  0  0  0  0  0  0
  1  2  1  0  0  0  0
  2  3  1  0  0  0  0
  3  4  1  0  0  0  0
  4  5  1  0  0  0  0
  5  6  1  0  0  0  0
  6  7  1  0  0  0  0
  7  8  1  0  0  0  0
  8  9  1  0  0  0  0
  9 10  1  0  0  0  0
 10 11  1  0  0  0  0
 11 12  1  0  0  0  0
 12 13  1  0  0  0  0
 13 14  1  0  0  0  0
M  END
>  <CHROM.1>
-65.62951725,-174.31156188,151.46187471,-154.88156940,55.50220953,-176.05532753
-178.33708247,-93.39833212,-168.83335433,-66.22292467,-177.47587754,44.95751969
4.70895582,19.03067890,-1.81446159,1.08226165,0.52938182

>  <Name>
ligand

>  <RI>
0

>  <Rbt.Current_Directory>
/home/itssahil/PROJECTS/Mol_Feturizer/New_Systems/rnas/1TN2

>  <Rbt.Executable>
rbdock ($Id: //depot/dev/client3/rdock/2013.1/src/exe/rbdock.cxx#4 $)

>  <Rbt.Library>
libRbt.so (2013.1, Build901 2013/11/27)

>  <Rbt.Parameter_File>
/export/apps/rDock/src/rDock_2013.1_src/data/scripts/dock_solv.prm

>  <Rbt.Receptor>
prm/blind_docking_100.prm

>  <SCORE>
-5.88325

>  <SCORE.INTER>
-3.70612

>  <SCORE.INTER.CONST>
1

>  <SCORE.INTER.POLAR>
0

>  <SCORE.INTER.ROT>
11

>  <SCORE.INTER.SOLV>
14.0868

>  <SCORE.INTER.VDW>
-18.0997

>  <SCORE.INTER.norm>
-0.264723

>  <SCORE.INTRA>
-2.17713

>  <SCORE.INTRA.DIHEDRAL>
-5.42501

>  <SCORE.INTRA.DIHEDRAL.0>
7.79482

>  <SCORE.INTRA.POLAR>
0

>  <SCORE.INTRA.POLAR.0>
0

>  <SCORE.INTRA.REPUL>
0

>  <SCORE.INTRA.REPUL.0>
0

>  <SCORE.INTRA.SOLV>
1.40394

>  <SCORE.INTRA.SOLV.lig_0>
-49.456

>  <SCORE.INTRA.VDW>
-0.166594

>  <SCORE.INTRA.VDW.0>
-0.478406

>  <SCORE.INTRA.norm>
-0.155509

>  <SCORE.RESTR>
0

>  <SCORE.RESTR.CAVITY>
0

>  <SCORE.RESTR.norm>
0

>  <SCORE.SYSTEM>
0

>  <SCORE.SYSTEM.CONST>
0

>  <SCORE.SYSTEM.DIHEDRAL>
0

>  <SCORE.SYSTEM.SOLV>
0

>  <SCORE.SYSTEM.norm>
0

>  <SCORE.heavy>
14

>  <SCORE.norm>
-0.420232

>  <RMSD>
3.451

$$$$
ligand
 OpenBabel11021811413D
libRbt.so/2013.1/901 2013/11/27
 14 13  0  0  0  0  0  0  0  0999 V2000
   46.1216    2.5971   16.5069 N   0  0  0  0  0  0  0  0  0  0  0  0
   46.5901    2.1355   17.8315 C   0  0  0  0  0  0  0  0  0  0  0  0
   45.8000    2.8151   18.9708 C   0  0  0  0  0  0  0  0  0  0  0  0
   45.9999    4.3364   19.0692 C   0  0  0  0  0  0  0  0  0  0  0  0
   45.3460    4.8835   20.2896 N   0  0  0  0  0  0  0  0  0  0  0  0
   45.1676    6.3527   20.1616 C   0  0  0  0  0  0  0  0  0  0  0  0
   46.4810    7.2025   20.2316 C   0  0  0  0  0  0  0  0  0  0  0  0
   46.2434    8.7400   20.2327 C   0  0  0  0  0  0  0  0  0  0  0  0
   45.5996    9.2642   18.9640 C   0  0  0  0  0  0  0  0  0  0  0  0
   46.5502    9.0861   17.8829 N   0  0  0  0  0  0  0  0  0  0  0  0
   45.9275    9.6660   16.7057 C   0  0  0  0  0  0  0  0  0  0  0  0
   46.8918    9.7035   15.5259 C   0  0  0  0  0  0  0  0  0  0  0  0
   47.2036    8.2511   15.1343 C   0  0  0  0  0  0  0  0  0  0  0  0
   48.1814    8.1688   14.0389 N   0  0  0  0  0  0  0  0  0  0  0  0
  1  2  1  0  0  0  0
  2  3  1  0  0  0  0
  3  4  1  0  0  0  0
  4  5  1  0  0  0  0
  5  6  1  0  0  0  0
  6  7  1  0  0  0  0
  7  8  1  0  0  0  0
  8  9  1  0  0  0  0
  9 10  1  0  0  0  0
 10 11  1  0  0  0  0
 11 12  1  0  0  0  0
 12 13  1  0  0  0  0
 13 14  1  0  0  0  0
M  END
>  <CHROM.1>
-64.81922285,-172.80152550,-162.08876394,-70.55289437,-174.37910122,-63.54747849
-66.67016602,-176.91147364,172.92162066,65.44988557,-177.28605697,46.29301313
6.65751049,17.96786333,-2.04123432,1.27772472,0.08052473

>  <Name>
ligand

>  <RI>
0

>  <Rbt.Current_Directory>
/home/itssahil/PROJECTS/Mol_Feturizer/New_Systems/rnas/1TN2

>  <Rbt.Executable>
rbdock ($Id: //depot/dev/client3/rdock/2013.1/src/exe/rbdock.cxx#4 $)

>  <Rbt.Library>
libRbt.so (2013.1, Build901 2013/11/27)

>  <Rbt.Parameter_File>
/export/apps/rDock/src/rDock_2013.1_src/data/scripts/dock_solv.prm

>  <Rbt.Receptor>
prm/pocket_docking_5.prm

>  <SCORE>
-6.66896

>  <SCORE.INTER>
-4.28722

>  <SCORE.INTER.CONST>
1

>  <SCORE.INTER.POLAR>
0

>  <SCORE.INTER.ROT>
11

>  <SCORE.INTER.SOLV>
9.45339

>  <SCORE.INTER.VDW>
-16.9426

>  <SCORE.INTER.norm>
-0.30623

>  <SCORE.INTRA>
-2.38174

>  <SCORE.INTRA.DIHEDRAL>
-6.65339

>  <SCORE.INTRA.DIHEDRAL.0>
7.79482

>  <SCORE.INTRA.POLAR>
0

>  <SCORE.INTRA.POLAR.0>
0

>  <SCORE.INTRA.REPUL>
0

>  <SCORE.INTRA.REPUL.0>
0

>  <SCORE.INTRA.SOLV>
1.69274

>  <SCORE.INTRA.SOLV.lig_0>
-49.456

>  <SCORE.INTRA.VDW>
0.0985837

>  <SCORE.INTRA.VDW.0>
-0.478406

>  <SCORE.INTRA.norm>
-0.170124

>  <SCORE.RESTR>
0

>  <SCORE.RESTR.CAVITY>
0

>  <SCORE.RESTR.norm>
0

>  <SCORE.SYSTEM>
0

>  <SCORE.SYSTEM.CONST>
0

>  <SCORE.SYSTEM.DIHEDRAL>
0

>  <SCORE.SYSTEM.SOLV>
0

>  <SCORE.SYSTEM.norm>
0

>  <SCORE.heavy>
14

>  <SCORE.norm>
-0.476354

>  <RMSD>
3.452

$$$$
ligand
 OpenBabel11021811413D
libRbt.so/2013.1/901 2013/11/27
 14 13  0  0  0  0  0  0  0  0999 V2000
   45.7123    0.9223   17.0621 N   0  0  0  0  0  0  0  0  0  0  0  0
   45.7906    1.6149   18.3664 C   0  0  0  0  0  0  0  0  0  0  0  0
   46.0057    3.1325   18.1803 C   0  0  0  0  0  0  0  0  0  0  0  0
   46.0313    3.9404   19.4882 C   0  0  0  0  0  0  0  0  0  0  0  0
   46.0652    5.4030   19.2124 N   0  0  0  0  0  0  0  0  0  0  0  0
   45.9582    6.1674   20.4817 C   0  0  0  0  0  0  0  0  0  0  0  0
   44.6864    7.0700   20.6229 C   0  0  0  0  0  0  0  0  0  0  0  0
   43.3463    6.2800   20.6450 C   0  0  0  0  0  0  0  0  0  0  0  0
   42.1169    7.1571   20.7800 C   0  0  0  0  0  0  0  0  0  0  0  0
   42.0045    7.9458   19.5676 N   0  0  0  0  0  0  0  0  0  0  0  0
   41.2644    9.1398   19.9367 C   0  0  0  0  0  0  0  0  0  0  0  0
   41.2808   10.1743   18.8174 C   0  0  0  0  0  0  0  0  0  0  0  0
   42.7475   10.5411   18.5450 C   0  0  0  0  0  0  0  0  0  0  0  0
   42.8792   11.5579   17.4907 N   0  0  0  0  0  0  0  0  0  0  0  0
  1  2  1  0  0  0  0
  2  3  1  0  0  0  0
  3  4  1  0  0  0  0
  4  5  1  0  0  0  0
  5  6  1  0  0  0  0
  6  7  1  0  0  0  0
  7  8  1  0  0  0  0
  8  9  1  0  0  0  0
  9 10  1  0  0  0  0
 10 11  1  0  0  0  0
 11 12  1  0  0  0  0
 12 13  1  0  0  0  0
 13 14  1  0  0  0  0
M  END
>  <CHROM.1>
177.20871507,-172.65967113,174.59479866,-116.81292709,63.79383047,-179.92229499
66.72640310,-154.65716933,170.05419005,-59.81539037,-178.97488190,43.99201445
6.50332636,19.22868094,-0.41129327,1.04481582,-1.02212302

>  <Name>
ligand

>  <RI>
0

>  <Rbt.Current_Directory>
/home/itssahil/PROJECTS/Mol_Feturizer/New_Systems/rnas/1TN2

>  <Rbt.Executable>
rbdock ($Id: //depot/dev/client3/rdock/2013.1/src/exe/rbdock.cxx#4 $)

>  <Rbt.Library>
libRbt.so (2013.1, Build901 2013/11/27)

>  <Rbt.Parameter_File>
/export/apps/rDock/src/rDock_2013.1_src/data/scripts/dock_solv.prm

>  <Rbt.Receptor>
prm/pocket_docking_8.prm

>  <SCORE>
-15.1212

>  <SCORE.INTER>
-12.1424

>  <SCORE.INTER.CONST>
1

>  <SCORE.INTER.POLAR>
0

>  <SCORE.INTER.ROT>
11

>  <SCORE.INTER.SOLV>
16.9263

>  <SCORE.INTER.VDW>
-24.6703

>  <SCORE.INTER.norm>
-0.867312

>  <SCORE.INTRA>
-2.97883

>  <SCORE.INTRA.DIHEDRAL>
-5.58602

>  <SCORE.INTRA.DIHEDRAL.0>
7.79482

>  <SCORE.INTRA.POLAR>
0

>  <SCORE.INTRA.POLAR.0>
0

>  <SCORE.INTRA.REPUL>
0

>  <SCORE.INTRA.REPUL.0>
0

>  <SCORE.INTRA.SOLV>
1.13449

>  <SCORE.INTRA.SOLV.lig_0>
-49.456

>  <SCORE.INTRA.VDW>
-0.753067

>  <SCORE.INTRA.VDW.0>
-0.478406

>  <SCORE.INTRA.norm>
-0.212773

>  <SCORE.RESTR>
0

>  <SCORE.RESTR.CAVITY>
0

>  <SCORE.RESTR.norm>
0

>  <SCORE.SYSTEM>
0

>  <SCORE.SYSTEM.CONST>
0

>  <SCORE.SYSTEM.DIHEDRAL>
0

>  <SCORE.SYSTEM.SOLV>
0

>  <SCORE.SYSTEM.norm>
0

>  <SCORE.heavy>
14

>  <SCORE.norm>
-1.08008

>  <RMSD>
3.457

$$$$
ligand
 OpenBabel11021811413D
libRbt.so/2013.1/901 2013/11/27
 14 13  0  0  0  0  0  0  0  0999 V2000
   49.0396    8.8569   16.3406 N   0  0  0  0  0  0  0  0  0  0  0  0
   47.7032    8.4313   16.8098 C   0  0  0  0  0  0  0  0  0  0  0  0
   47.7420    8.0061   18.2936 C   0  0  0  0  0  0  0  0  0  0  0  0
   46.4002    7.5023   18.8501 C   0  0  0  0  0  0  0  0  0  0  0  0
   46.5237    7.1287   20.2860 N   0  0  0  0  0  0  0  0  0  0  0  0
   45.3834    6.2678   20.6923 C   0  0  0  0  0  0  0  0  0  0  0  0
   45.6283    4.7249   20.5846 C   0  0  0  0  0  0  0  0  0  0  0  0
   45.7603    4.2031   19.1249 C   0  0  0  0  0  0  0  0  0  0  0  0
   45.8175    2.6921   19.0141 C   0  0  0  0  0  0  0  0  0  0  0  0
   45.7584    2.3522   17.6051 N   0  0  0  0  0  0  0  0  0  0  0  0
   45.6865    0.9027   17.5479 C   0  0  0  0  0  0  0  0  0  0  0  0
   45.5396    0.4077   16.1138 C   0  0  0  0  0  0  0  0  0  0  0  0
   45.5798   -1.1277   16.1457 C   0  0  0  0  0  0  0  0  0  0  0  0
   45.4881   -1.7138   14.8000 N   0  0  0  0  0  0  0  0  0  0  0  0
  1  2  1  0  0  0  0
  2  3  1  0  0  0  0
  3  4  1  0  0  0  0
  4  5  1  0  0  0  0
  5  6  1  0  0  0  0
  6  7  1  0  0  0  0
  7  8  1  0  0  0  0
  8  9  1  0  0  0  0
  9 10  1  0  0  0  0
 10 11  1  0  0  0  0
 11 12  1  0  0  0  0
 12 13  1  0  0  0  0
 13 14  1  0  0  0  0
M  END
>  <CHROM.1>
-178.01326863,-179.38302304,-162.38948216,93.01906463,-68.34031095,-172.50995513
172.49418436,-174.70069297,176.79244633,175.77453366,-178.19462977,46.28917608
4.18817097,18.01521308,-1.13810146,-1.07798813,-2.48785812

>  <Name>
ligand

>  <RI>
0

>  <Rbt.Current_Directory>
/home/itssahil/PROJECTS/Mol_Feturizer/New_Systems/rnas/1TN2

>  <Rbt.Executable>
rbdock ($Id: //depot/dev/client3/rdock/2013.1/src/exe/rbdock.cxx#4 $)

>  <Rbt.Library>
libRbt.so (2013.1, Build901 2013/11/27)

>  <Rbt.Parameter_File>
/export/apps/rDock/src/rDock_2013.1_src/data/scripts/dock_solv.prm

>  <Rbt.Receptor>
prm/pocket_docking_8.prm

>  <SCORE>
-10.2102

>  <SCORE.INTER>
-6.46255

>  <SCORE.INTER.CONST>
1

>  <SCORE.INTER.POLAR>
0

>  <SCORE.INTER.ROT>
11

>  <SCORE.INTER.SOLV>
11.2885

>  <SCORE.INTER.VDW>
-19.0045

>  <SCORE.INTER.norm>
-0.461611

>  <SCORE.INTRA>
-3.74767

>  <SCORE.INTRA.DIHEDRAL>
-6.03376

>  <SCORE.INTRA.DIHEDRAL.0>
7.79482

>  <SCORE.INTRA.POLAR>
0

>  <SCORE.INTRA.POLAR.0>
0

>  <SCORE.INTRA.REPUL>
0

>  <SCORE.INTRA.REPUL.0>
0

>  <SCORE.INTRA.SOLV>
0.226508

>  <SCORE.INTRA.SOLV.lig_0>
-49.456

>  <SCORE.INTRA.VDW>
-0.844042

>  <SCORE.INTRA.VDW.0>
-0.478406

>  <SCORE.INTRA.norm>
-0.267691

>  <SCORE.RESTR>
0

>  <SCORE.RESTR.CAVITY>
0

>  <SCORE.RESTR.norm>
0

>  <SCORE.SYSTEM>
0

>  <SCORE.SYSTEM.CONST>
0

>  <SCORE.SYSTEM.DIHEDRAL>
0

>  <SCORE.SYSTEM.SOLV>
0

>  <SCORE.SYSTEM.norm>
0

>  <SCORE.heavy>
14

>  <SCORE.norm>
-0.729301

>  <RMSD>
3.480

$$$$
ligand
 OpenBabel11021811413D
libRbt.so/2013.1/901 2013/11/27
 14 13  0  0  0  0  0  0  0  0999 V2000
   46.6099    3.9927   14.5091 N   0  0  0  0  0  0  0  0  0  0  0  0
   45.8734    3.4991   15.6928 C   0  0  0  0  0  0  0  0  0  0  0  0
   45.3036    2.0855   15.4460 C   0  0  0  0  0  0  0  0  0  0  0  0
   44.4837    1.5132   16.6140 C   0  0  0  0  0  0  0  0  0  0  0  0
   45.3124    1.4047   17.8461 N   0  0  0  0  0  0  0  0  0  0  0  0
   44.6979    2.1880   18.9487 C   0  0  0  0  0  0  0  0  0  0  0  0
   45.4221    3.5280   19.3121 C   0  0  0  0  0  0  0  0  0  0  0  0
   44.7240    4.3417   20.4394 C   0  0  0  0  0  0  0  0  0  0  0  0
   45.5305    5.5272   20.9325 C   0  0  0  0  0  0  0  0  0  0  0  0
   45.6392    6.4712   19.8364 N   0  0  0  0  0  0  0  0  0  0  0  0
   46.4935    7.5429   20.3173 C   0  0  0  0  0  0  0  0  0  0  0  0
   46.6960    8.6149   19.2529 C   0  0  0  0  0  0  0  0  0  0  0  0
   45.3690    9.3736   19.0992 C   0  0  0  0  0  0  0  0  0  0  0  0
   45.4596   10.4560   18.1077 N   0  0  0  0  0  0  0  0  0  0  0  0
  1  2  1  0  0  0  0
  2  3  1  0  0  0  0
  3  4  1  0  0  0  0
  4  5  1  0  0  0  0
  5  6  1  0  0  0  0
  6  7  1  0  0  0  0
  7  8  1  0  0  0  0
  8  9  1  0  0  0  0
  9 10  1  0  0  0  0
 10 11  1  0  0  0  0
 11 12  1  0  0  0  0
 12 13  1  0  0  0  0
 13 14  1  0  0  0  0
M  END
>  <CHROM.1>
-178.18488017,-60.30984497,121.99890475,-106.32405566,178.14353868,171.36157977
65.31419750,-176.10345921,179.91805678,71.08801615,178.90781475,45.54381796
5.03825520,18.31132148,-2.00947043,1.37316039,0.82632808

>  <Name>
ligand

>  <RI>
0

>  <Rbt.Current_Directory>
/home/itssahil/PROJECTS/Mol_Feturizer/New_Systems/rnas/1TN2

>  <Rbt.Executable>
rbdock ($Id: //depot/dev/client3/rdock/2013.1/src/exe/rbdock.cxx#4 $)

>  <Rbt.Library>
libRbt.so (2013.1, Build901 2013/11/27)

>  <Rbt.Parameter_File>
/export/apps/rDock/src/rDock_2013.1_src/data/scripts/dock_solv.prm

>  <Rbt.Receptor>
prm/pocket_docking_5.prm

>  <SCORE>
-8.24177

>  <SCORE.INTER>
-5.55042

>  <SCORE.INTER.CONST>
1

>  <SCORE.INTER.POLAR>
0

>  <SCORE.INTER.ROT>
11

>  <SCORE.INTER.SOLV>
10.6229

>  <SCORE.INTER.VDW>
-18.1746

>  <SCORE.INTER.norm>
-0.396459

>  <SCORE.INTRA>
-2.69135

>  <SCORE.INTRA.DIHEDRAL>
-4.63657

>  <SCORE.INTRA.DIHEDRAL.0>
7.79482

>  <SCORE.INTRA.POLAR>
0

>  <SCORE.INTRA.POLAR.0>
0

>  <SCORE.INTRA.REPUL>
0

>  <SCORE.INTRA.REPUL.0>
0

>  <SCORE.INTRA.SOLV>
1.00939

>  <SCORE.INTRA.SOLV.lig_0>
-49.456

>  <SCORE.INTRA.VDW>
-0.877757

>  <SCORE.INTRA.VDW.0>
-0.478406

>  <SCORE.INTRA.norm>
-0.192239

>  <SCORE.RESTR>
0

>  <SCORE.RESTR.CAVITY>
0

>  <SCORE.RESTR.norm>
0

>  <SCORE.SYSTEM>
0

>  <SCORE.SYSTEM.CONST>
0

>  <SCORE.SYSTEM.DIHEDRAL>
0

>  <SCORE.SYSTEM.SOLV>
0

>  <SCORE.SYSTEM.norm>
0

>  <SCORE.heavy>
14

>  <SCORE.norm>
-0.588698

>  <RMSD>
3.482

$$$$
ligand
 OpenBabel11021811413D
libRbt.so/2013.1/901 2013/11/27
 14 13  0  0  0  0  0  0  0  0999 V2000
   48.0614    9.1366   17.1122 N   0  0  0  0  0  0  0  0  0  0  0  0
   47.6893    8.1018   18.1011 C   0  0  0  0  0  0  0  0  0  0  0  0
   46.7434    8.6743   19.1788 C   0  0  0  0  0  0  0  0  0  0  0  0
   46.3075    7.6618   20.2507 C   0  0  0  0  0  0  0  0  0  0  0  0
   45.5815    6.5151   19.6389 N   0  0  0  0  0  0  0  0  0  0  0  0
   45.4491    5.4084   20.6210 C   0  0  0  0  0  0  0  0  0  0  0  0
   45.0970    4.0069   20.0178 C   0  0  0  0  0  0  0  0  0  0  0  0
   46.1584    3.4600   19.0203 C   0  0  0  0  0  0  0  0  0  0  0  0
   45.9118    2.0296   18.5821 C   0  0  0  0  0  0  0  0  0  0  0  0
   44.6503    2.0006   17.8665 N   0  0  0  0  0  0  0  0  0  0  0  0
   44.6247    0.7339   17.1561 C   0  0  0  0  0  0  0  0  0  0  0  0
   44.6358    0.9411   15.6460 C   0  0  0  0  0  0  0  0  0  0  0  0
   44.5784   -0.4450   14.9863 C   0  0  0  0  0  0  0  0  0  0  0  0
   45.7811   -1.2437   15.2663 N   0  0  0  0  0  0  0  0  0  0  0  0
  1  2  1  0  0  0  0
  2  3  1  0  0  0  0
  3  4  1  0  0  0  0
  4  5  1  0  0  0  0
  5  6  1  0  0  0  0
  6  7  1  0  0  0  0
  7  8  1  0  0  0  0
  8  9  1  0  0  0  0
  9 10  1  0  0  0  0
 10 11  1  0  0  0  0
 11 12  1  0  0  0  0
 12 13  1  0  0  0  0
 13 14  1  0  0  0  0
M  END
>  <CHROM.1>
-179.93351326,-60.09256294,166.78999424,-162.71034553,60.98912315,172.19641903
63.18420069,164.66595401,-115.08118206,-178.86711032,-65.15869312,45.80489033
4.07009027,18.10340633,-1.05469821,-1.11631532,-2.31148145

>  <Name>
ligand

>  <RI>
0

>  <Rbt.Current_Directory>
/home/itssahil/PROJECTS/Mol_Feturizer/New_Systems/rnas/1TN2

>  <Rbt.Executable>
rbdock ($Id: //depot/dev/client3/rdock/2013.1/src/exe/rbdock.cxx#4 $)

>  <Rbt.Library>
libRbt.so (2013.1, Build901 2013/11/27)

>  <Rbt.Parameter_File>
/export/apps/rDock/src/rDock_2013.1_src/data/scripts/dock_solv.prm

>  <Rbt.Receptor>
prm/pocket_docking_5.prm

>  <SCORE>
-9.15717

>  <SCORE.INTER>
-6.67905

>  <SCORE.INTER.CONST>
1

>  <SCORE.INTER.POLAR>
0

>  <SCORE.INTER.ROT>
11

>  <SCORE.INTER.SOLV>
12.3212

>  <SCORE.INTER.VDW>
-19.4931

>  <SCORE.INTER.norm>
-0.477075

>  <SCORE.INTRA>
-2.47812

>  <SCORE.INTRA.DIHEDRAL>
-5.66513

>  <SCORE.INTRA.DIHEDRAL.0>
7.79482

>  <SCORE.INTRA.POLAR>
0

>  <SCORE.INTRA.POLAR.0>
0

>  <SCORE.INTRA.REPUL>
0

>  <SCORE.INTRA.REPUL.0>
0

>  <SCORE.INTRA.SOLV>
1.82927

>  <SCORE.INTRA.SOLV.lig_0>
-49.456

>  <SCORE.INTRA.VDW>
-0.560188

>  <SCORE.INTRA.VDW.0>
-0.478406

>  <SCORE.INTRA.norm>
-0.177008

>  <SCORE.RESTR>
0

>  <SCORE.RESTR.CAVITY>
0

>  <SCORE.RESTR.norm>
0

>  <SCORE.SYSTEM>
0

>  <SCORE.SYSTEM.CONST>
0

>  <SCORE.SYSTEM.DIHEDRAL>
0

>  <SCORE.SYSTEM.SOLV>
0

>  <SCORE.SYSTEM.norm>
0

>  <SCORE.heavy>
14

>  <SCORE.norm>
-0.654084

>  <RMSD>
3.495

$$$$
ligand
 OpenBabel11021811413D
libRbt.so/2013.1/901 2013/11/27
 14 13  0  0  0  0  0  0  0  0999 V2000
   41.9807   12.1978   17.4316 N   0  0  0  0  0  0  0  0  0  0  0  0
   41.9394   11.1831   18.5067 C   0  0  0  0  0  0  0  0  0  0  0  0
   43.1687   10.2511   18.4420 C   0  0  0  0  0  0  0  0  0  0  0  0
   43.2179    9.1794   19.5434 C   0  0  0  0  0  0  0  0  0  0  0  0
   42.0252    8.2909   19.4781 N   0  0  0  0  0  0  0  0  0  0  0  0
   41.7980    7.6391   20.7935 C   0  0  0  0  0  0  0  0  0  0  0  0
   42.6163    6.3288   21.0498 C   0  0  0  0  0  0  0  0  0  0  0  0
   44.1577    6.5119   20.9448 C   0  0  0  0  0  0  0  0  0  0  0  0
   44.9441    5.2295   21.1339 C   0  0  0  0  0  0  0  0  0  0  0  0
   44.4423    4.2612   20.1774 N   0  0  0  0  0  0  0  0  0  0  0  0
   45.6087    3.7514   19.4779 C   0  0  0  0  0  0  0  0  0  0  0  0
   45.3217    2.4059   18.8217 C   0  0  0  0  0  0  0  0  0  0  0  0
   46.5919    1.9732   18.0740 C   0  0  0  0  0  0  0  0  0  0  0  0
   46.8717    2.8301   16.9120 N   0  0  0  0  0  0  0  0  0  0  0  0
  1  2  1  0  0  0  0
  2  3  1  0  0  0  0
  3  4  1  0  0  0  0
  4  5  1  0  0  0  0
  5  6  1  0  0  0  0
  6  7  1  0  0  0  0
  7  8  1  0  0  0  0
  8  9  1  0  0  0  0
  9 10  1  0  0  0  0
 10 11  1  0  0  0  0
 11 12  1  0  0  0  0
 12 13  1  0  0  0  0
 13 14  1  0  0  0  0
M  END
>  <CHROM.1>
178.93238835,59.93587377,-157.84614091,-84.86346496,57.74477304,-177.48425263
54.98893957,128.47891053,159.42617548,178.21064694,-68.43825719,43.90606297
6.57367702,19.34225862,-2.44758104,-0.96625817,2.36304602

>  <Name>
ligand

>  <RI>
0

>  <Rbt.Current_Directory>
/home/itssahil/PROJECTS/Mol_Feturizer/New_Systems/rnas/1TN2

>  <Rbt.Executable>
rbdock ($Id: //depot/dev/client3/rdock/2013.1/src/exe/rbdock.cxx#4 $)

>  <Rbt.Library>
libRbt.so (2013.1, Build901 2013/11/27)

>  <Rbt.Parameter_File>
/export/apps/rDock/src/rDock_2013.1_src/data/scripts/dock_solv.prm

>  <Rbt.Receptor>
prm/blind_docking_60.prm

>  <SCORE>
-10.9442

>  <SCORE.INTER>
-9.40648

>  <SCORE.INTER.CONST>
1

>  <SCORE.INTER.POLAR>
0

>  <SCORE.INTER.ROT>
11

>  <SCORE.INTER.SOLV>
19.0565

>  <SCORE.INTER.VDW>
-23.5565

>  <SCORE.INTER.norm>
-0.671891

>  <SCORE.INTRA>
-1.53775

>  <SCORE.INTRA.DIHEDRAL>
-5.11463

>  <SCORE.INTRA.DIHEDRAL.0>
7.79482

>  <SCORE.INTRA.POLAR>
0

>  <SCORE.INTRA.POLAR.0>
0

>  <SCORE.INTRA.REPUL>
0

>  <SCORE.INTRA.REPUL.0>
0

>  <SCORE.INTRA.SOLV>
1.87957

>  <SCORE.INTRA.SOLV.lig_0>
-49.456

>  <SCORE.INTRA.VDW>
0.0797759

>  <SCORE.INTRA.VDW.0>
-0.478406

>  <SCORE.INTRA.norm>
-0.10984

>  <SCORE.RESTR>
0

>  <SCORE.RESTR.CAVITY>
0

>  <SCORE.RESTR.norm>
0

>  <SCORE.SYSTEM>
0

>  <SCORE.SYSTEM.CONST>
0

>  <SCORE.SYSTEM.DIHEDRAL>
0

>  <SCORE.SYSTEM.SOLV>
0

>  <SCORE.SYSTEM.norm>
0

>  <SCORE.heavy>
14

>  <SCORE.norm>
-0.781731

>  <RMSD>
3.505

$$$$
ligand
 OpenBabel11021811413D
libRbt.so/2013.1/901 2013/11/27
 14 13  0  0  0  0  0  0  0  0999 V2000
   40.0014    7.3982   20.5129 N   0  0  0  0  0  0  0  0  0  0  0  0
   40.8476    8.5929   20.3030 C   0  0  0  0  0  0  0  0  0  0  0  0
   42.2249    8.2060   19.7222 C   0  0  0  0  0  0  0  0  0  0  0  0
   43.0807    7.3190   20.6413 C   0  0  0  0  0  0  0  0  0  0  0  0
   44.3364    6.8990   19.9607 N   0  0  0  0  0  0  0  0  0  0  0  0
   45.1511    6.0482   20.8659 C   0  0  0  0  0  0  0  0  0  0  0  0
   45.9527    4.8959   20.1718 C   0  0  0  0  0  0  0  0  0  0  0  0
   45.0580    3.8167   19.4971 C   0  0  0  0  0  0  0  0  0  0  0  0
   45.8376    2.7148   18.8065 C   0  0  0  0  0  0  0  0  0  0  0  0
   44.8794    1.8335   18.1665 N   0  0  0  0  0  0  0  0  0  0  0  0
   45.6578    0.7522   17.5880 C   0  0  0  0  0  0  0  0  0  0  0  0
   44.9562    0.1450   16.3787 C   0  0  0  0  0  0  0  0  0  0  0  0
   45.8162   -1.0274   15.8827 C   0  0  0  0  0  0  0  0  0  0  0  0
   45.2717   -1.6376   14.6605 N   0  0  0  0  0  0  0  0  0  0  0  0
  1  2  1  0  0  0  0
  2  3  1  0  0  0  0
  3  4  1  0  0  0  0
  4  5  1  0  0  0  0
  5  6  1  0  0  0  0
  6  7  1  0  0  0  0
  7  8  1  0  0  0  0
  8  9  1  0  0  0  0
  9 10  1  0  0  0  0
 10 11  1  0  0  0  0
 11 12  1  0  0  0  0
 12 13  1  0  0  0  0
 13 14  1  0  0  0  0
M  END
>  <CHROM.1>
-63.16003876,175.15870332,179.77613339,144.93592366,-64.16836083,179.04224947
-176.86343062,-176.63769846,-152.76312747,-177.22107741,-176.43971664,44.21964973
3.99705033,18.79717910,1.94359053,-0.34509516,0.60774972

>  <Name>
ligand

>  <RI>
0

>  <Rbt.Current_Directory>
/home/itssahil/PROJECTS/Mol_Feturizer/New_Systems/rnas/1TN2

>  <Rbt.Executable>
rbdock ($Id: //depot/dev/client3/rdock/2013.1/src/exe/rbdock.cxx#4 $)

>  <Rbt.Library>
libRbt.so (2013.1, Build901 2013/11/27)

>  <Rbt.Parameter_File>
/export/apps/rDock/src/rDock_2013.1_src/data/scripts/dock_solv.prm

>  <Rbt.Receptor>
prm/blind_docking_60.prm

>  <SCORE>
-14.3455

>  <SCORE.INTER>
-10.8787

>  <SCORE.INTER.CONST>
1

>  <SCORE.INTER.POLAR>
0

>  <SCORE.INTER.ROT>
11

>  <SCORE.INTER.SOLV>
14.7586

>  <SCORE.INTER.VDW>
-23.1053

>  <SCORE.INTER.norm>
-0.777047

>  <SCORE.INTRA>
-3.46679

>  <SCORE.INTRA.DIHEDRAL>
-6.20543

>  <SCORE.INTRA.DIHEDRAL.0>
7.79482

>  <SCORE.INTRA.POLAR>
0

>  <SCORE.INTRA.POLAR.0>
0

>  <SCORE.INTRA.REPUL>
0

>  <SCORE.INTRA.REPUL.0>
0

>  <SCORE.INTRA.SOLV>
0.965147

>  <SCORE.INTRA.SOLV.lig_0>
-49.456

>  <SCORE.INTRA.VDW>
-0.846644

>  <SCORE.INTRA.VDW.0>
-0.478406

>  <SCORE.INTRA.norm>
-0.247628

>  <SCORE.RESTR>
0

>  <SCORE.RESTR.CAVITY>
0

>  <SCORE.RESTR.norm>
0

>  <SCORE.SYSTEM>
0

>  <SCORE.SYSTEM.CONST>
0

>  <SCORE.SYSTEM.DIHEDRAL>
0

>  <SCORE.SYSTEM.SOLV>
0

>  <SCORE.SYSTEM.norm>
0

>  <SCORE.heavy>
14

>  <SCORE.norm>
-1.02468

>  <RMSD>
3.516

$$$$
ligand
 OpenBabel11021811413D
libRbt.so/2013.1/901 2013/11/27
 14 13  0  0  0  0  0  0  0  0999 V2000
   46.6020    0.6534   14.2223 N   0  0  0  0  0  0  0  0  0  0  0  0
   45.7983   -0.5211   14.6244 C   0  0  0  0  0  0  0  0  0  0  0  0
   44.4294   -0.0916   15.1950 C   0  0  0  0  0  0  0  0  0  0  0  0
   44.5038    0.6900   16.5169 C   0  0  0  0  0  0  0  0  0  0  0  0
   45.0837    2.0447   16.3049 N   0  0  0  0  0  0  0  0  0  0  0  0
   46.3471    2.1883   17.0729 C   0  0  0  0  0  0  0  0  0  0  0  0
   46.2029    2.1248   18.6309 C   0  0  0  0  0  0  0  0  0  0  0  0
   45.3633    3.2850   19.2388 C   0  0  0  0  0  0  0  0  0  0  0  0
   46.0803    4.6209   19.2546 C   0  0  0  0  0  0  0  0  0  0  0  0
   45.2596    5.5512   20.0065 N   0  0  0  0  0  0  0  0  0  0  0  0
   46.0396    6.7715   20.1159 C   0  0  0  0  0  0  0  0  0  0  0  0
   45.3965    7.9158   19.3412 C   0  0  0  0  0  0  0  0  0  0  0  0
   46.3281    9.1324   19.4503 C   0  0  0  0  0  0  0  0  0  0  0  0
   45.8459   10.2742   18.6588 N   0  0  0  0  0  0  0  0  0  0  0  0
  1  2  1  0  0  0  0
  2  3  1  0  0  0  0
  3  4  1  0  0  0  0
  4  5  1  0  0  0  0
  5  6  1  0  0  0  0
  6  7  1  0  0  0  0
  7  8  1  0  0  0  0
  8  9  1  0  0  0  0
  9 10  1  0  0  0  0
 10 11  1  0  0  0  0
 11 12  1  0  0  0  0
 12 13  1  0  0  0  0
 13 14  1  0  0  0  0
M  END
>  <CHROM.1>
-65.86691879,69.71375204,-117.97245402,-64.53854101,-63.97036149,-73.66824726
-172.29684510,174.29066992,113.46900290,-176.86586352,176.14694652,45.66287925
3.90253053,17.75971694,-1.95086183,1.44883536,0.84821068

>  <Name>
ligand

>  <RI>
0

>  <Rbt.Current_Directory>
/home/itssahil/PROJECTS/Mol_Feturizer/New_Systems/rnas/1TN2

>  <Rbt.Executable>
rbdock ($Id: //depot/dev/client3/rdock/2013.1/src/exe/rbdock.cxx#4 $)

>  <Rbt.Library>
libRbt.so (2013.1, Build901 2013/11/27)

>  <Rbt.Parameter_File>
/export/apps/rDock/src/rDock_2013.1_src/data/scripts/dock_solv.prm

>  <Rbt.Receptor>
prm/blind_docking_100.prm

>  <SCORE>
-5.73274

>  <SCORE.INTER>
-5.68087

>  <SCORE.INTER.CONST>
1

>  <SCORE.INTER.POLAR>
0

>  <SCORE.INTER.ROT>
11

>  <SCORE.INTER.SOLV>
9.65199

>  <SCORE.INTER.VDW>
-17.9379

>  <SCORE.INTER.norm>
-0.405776

>  <SCORE.INTRA>
-0.0518771

>  <SCORE.INTRA.DIHEDRAL>
-3.7862

>  <SCORE.INTRA.DIHEDRAL.0>
7.79482

>  <SCORE.INTRA.POLAR>
0

>  <SCORE.INTRA.POLAR.0>
0

>  <SCORE.INTRA.REPUL>
0

>  <SCORE.INTRA.REPUL.0>
0

>  <SCORE.INTRA.SOLV>
4.04646

>  <SCORE.INTRA.SOLV.lig_0>
-49.456

>  <SCORE.INTRA.VDW>
-0.182011

>  <SCORE.INTRA.VDW.0>
-0.478406

>  <SCORE.INTRA.norm>
-0.00370551

>  <SCORE.RESTR>
0

>  <SCORE.RESTR.CAVITY>
0

>  <SCORE.RESTR.norm>
0

>  <SCORE.SYSTEM>
0

>  <SCORE.SYSTEM.CONST>
0

>  <SCORE.SYSTEM.DIHEDRAL>
0

>  <SCORE.SYSTEM.SOLV>
0

>  <SCORE.SYSTEM.norm>
0

>  <SCORE.heavy>
14

>  <SCORE.norm>
-0.409482

>  <RMSD>
3.517

$$$$
ligand
 OpenBabel11021811413D
libRbt.so/2013.1/901 2013/11/27
 14 13  0  0  0  0  0  0  0  0999 V2000
   42.3214   11.6709   17.6445 N   0  0  0  0  0  0  0  0  0  0  0  0
   42.4538   10.5629   18.6151 C   0  0  0  0  0  0  0  0  0  0  0  0
   41.0726   10.1067   19.1330 C   0  0  0  0  0  0  0  0  0  0  0  0
   41.1216    8.9840   20.1823 C   0  0  0  0  0  0  0  0  0  0  0  0
   41.8311    7.7874   19.6521 N   0  0  0  0  0  0  0  0  0  0  0  0
   42.7117    7.2072   20.6983 C   0  0  0  0  0  0  0  0  0  0  0  0
   43.9273    6.3716   20.1726 C   0  0  0  0  0  0  0  0  0  0  0  0
   44.7689    5.6994   21.2952 C   0  0  0  0  0  0  0  0  0  0  0  0
   45.9406    4.8852   20.7823 C   0  0  0  0  0  0  0  0  0  0  0  0
   45.4028    3.7449   20.0648 N   0  0  0  0  0  0  0  0  0  0  0  0
   45.9555    3.8216   18.7238 C   0  0  0  0  0  0  0  0  0  0  0  0
   45.3817    2.7357   17.8211 C   0  0  0  0  0  0  0  0  0  0  0  0
   45.8408    3.0340   16.3858 C   0  0  0  0  0  0  0  0  0  0  0  0
   47.2839    2.8144   16.2072 N   0  0  0  0  0  0  0  0  0  0  0  0
  1  2  1  0  0  0  0
  2  3  1  0  0  0  0
  3  4  1  0  0  0  0
  4  5  1  0  0  0  0
  5  6  1  0  0  0  0
  6  7  1  0  0  0  0
  7  8  1  0  0  0  0
  8  9  1  0  0  0  0
  9 10  1  0  0  0  0
 10 11  1  0  0  0  0
 11 12  1  0  0  0  0
 12 13  1  0  0  0  0
 13 14  1  0  0  0  0
M  END
>  <CHROM.1>
-178.19442252,-57.36248741,138.97247609,-155.33686405,-175.99666089,179.69433983
-66.97343233,122.68978712,-175.47221439,170.91800143,69.75462043,44.00089439
6.38751432,19.09871827,-2.99403808,-0.99766351,1.91001871

>  <Name>
ligand

>  <RI>
0

>  <Rbt.Current_Directory>
/home/itssahil/PROJECTS/Mol_Feturizer/New_Systems/rnas/1TN2

>  <Rbt.Executable>
rbdock ($Id: //depot/dev/client3/rdock/2013.1/src/exe/rbdock.cxx#4 $)

>  <Rbt.Library>
libRbt.so (2013.1, Build901 2013/11/27)

>  <Rbt.Parameter_File>
/export/apps/rDock/src/rDock_2013.1_src/data/scripts/dock_solv.prm

>  <Rbt.Receptor>
prm/pocket_docking_5.prm

>  <SCORE>
-12.1198

>  <SCORE.INTER>
-9.98057

>  <SCORE.INTER.CONST>
1

>  <SCORE.INTER.POLAR>
0

>  <SCORE.INTER.ROT>
11

>  <SCORE.INTER.SOLV>
17.8308

>  <SCORE.INTER.VDW>
-23.5306

>  <SCORE.INTER.norm>
-0.712898

>  <SCORE.INTRA>
-2.13926

>  <SCORE.INTRA.DIHEDRAL>
-4.28214

>  <SCORE.INTRA.DIHEDRAL.0>
7.79482

>  <SCORE.INTRA.POLAR>
0

>  <SCORE.INTRA.POLAR.0>
0

>  <SCORE.INTRA.REPUL>
0

>  <SCORE.INTRA.REPUL.0>
0

>  <SCORE.INTRA.SOLV>
1.36741

>  <SCORE.INTRA.SOLV.lig_0>
-49.456

>  <SCORE.INTRA.VDW>
-0.681896

>  <SCORE.INTRA.VDW.0>
-0.478406

>  <SCORE.INTRA.norm>
-0.152804

>  <SCORE.RESTR>
0

>  <SCORE.RESTR.CAVITY>
0

>  <SCORE.RESTR.norm>
0

>  <SCORE.SYSTEM>
0

>  <SCORE.SYSTEM.CONST>
0

>  <SCORE.SYSTEM.DIHEDRAL>
0

>  <SCORE.SYSTEM.SOLV>
0

>  <SCORE.SYSTEM.norm>
0

>  <SCORE.heavy>
14

>  <SCORE.norm>
-0.865702

>  <RMSD>
3.525

$$$$
ligand
 OpenBabel11021811413D
libRbt.so/2013.1/901 2013/11/27
 14 13  0  0  0  0  0  0  0  0999 V2000
   48.3148    9.1501   16.7009 N   0  0  0  0  0  0  0  0  0  0  0  0
   47.9798    8.1961   17.7801 C   0  0  0  0  0  0  0  0  0  0  0  0
   47.0113    8.8283   18.8030 C   0  0  0  0  0  0  0  0  0  0  0  0
   46.6508    7.9192   19.9894 C   0  0  0  0  0  0  0  0  0  0  0  0
   45.9151    6.7088   19.5310 N   0  0  0  0  0  0  0  0  0  0  0  0
   45.8373    5.7094   20.6273 C   0  0  0  0  0  0  0  0  0  0  0  0
   45.0399    4.4029   20.2966 C   0  0  0  0  0  0  0  0  0  0  0  0
   45.6218    3.5879   19.1060 C   0  0  0  0  0  0  0  0  0  0  0  0
   44.9116    2.2720   18.8553 C   0  0  0  0  0  0  0  0  0  0  0  0
   45.5324    1.6505   17.7009 N   0  0  0  0  0  0  0  0  0  0  0  0
   44.7242    0.4832   17.3945 C   0  0  0  0  0  0  0  0  0  0  0  0
   45.4134   -0.4216   16.3798 C   0  0  0  0  0  0  0  0  0  0  0  0
   45.3631    0.2856   15.0169 C   0  0  0  0  0  0  0  0  0  0  0  0
   46.2810    1.4327   14.9520 N   0  0  0  0  0  0  0  0  0  0  0  0
  1  2  1  0  0  0  0
  2  3  1  0  0  0  0
  3  4  1  0  0  0  0
  4  5  1  0  0  0  0
  5  6  1  0  0  0  0
  6  7  1  0  0  0  0
  7  8  1  0  0  0  0
  8  9  1  0  0  0  0
  9 10  1  0  0  0  0
 10 11  1  0  0  0  0
 11 12  1  0  0  0  0
 12 13  1  0  0  0  0
 13 14  1  0  0  0  0
M  END
>  <CHROM.1>
-177.86201814,-63.68164564,167.62015879,177.83100677,60.26747885,175.61573268
178.26195184,-173.16385046,-168.58473218,-71.92279637,72.48009949,46.04240617
4.30018490,18.08133875,-1.07945394,-1.08222101,-2.40487242

>  <Name>
ligand

>  <RI>
0

>  <Rbt.Current_Directory>
/home/itssahil/PROJECTS/Mol_Feturizer/New_Systems/rnas/1TN2

>  <Rbt.Executable>
rbdock ($Id: //depot/dev/client3/rdock/2013.1/src/exe/rbdock.cxx#4 $)

>  <Rbt.Library>
libRbt.so (2013.1, Build901 2013/11/27)

>  <Rbt.Parameter_File>
/export/apps/rDock/src/rDock_2013.1_src/data/scripts/dock_solv.prm

>  <Rbt.Receptor>
prm/pocket_docking_3.prm

>  <SCORE>
-9.49366

>  <SCORE.INTER>
-7.25608

>  <SCORE.INTER.CONST>
1

>  <SCORE.INTER.POLAR>
0

>  <SCORE.INTER.ROT>
11

>  <SCORE.INTER.SOLV>
8.41291

>  <SCORE.INTER.VDW>
-18.575

>  <SCORE.INTER.norm>
-0.518292

>  <SCORE.INTRA>
-2.24753

>  <SCORE.INTRA.DIHEDRAL>
-6.27767

>  <SCORE.INTRA.DIHEDRAL.0>
7.79482

>  <SCORE.INTRA.POLAR>
0

>  <SCORE.INTRA.POLAR.0>
0

>  <SCORE.INTRA.REPUL>
0

>  <SCORE.INTRA.REPUL.0>
0

>  <SCORE.INTRA.SOLV>
3.42996

>  <SCORE.INTRA.SOLV.lig_0>
-49.456

>  <SCORE.INTRA.VDW>
-0.823669

>  <SCORE.INTRA.VDW.0>
-0.478406

>  <SCORE.INTRA.norm>
-0.160538

>  <SCORE.RESTR>
0.00994415

>  <SCORE.RESTR.CAVITY>
0.00994415

>  <SCORE.RESTR.norm>
0.000710297

>  <SCORE.SYSTEM>
0

>  <SCORE.SYSTEM.CONST>
0

>  <SCORE.SYSTEM.DIHEDRAL>
0

>  <SCORE.SYSTEM.SOLV>
0

>  <SCORE.SYSTEM.norm>
0

>  <SCORE.heavy>
14

>  <SCORE.norm>
-0.678119

>  <RMSD>
3.528

$$$$
ligand
 OpenBabel11021811413D
libRbt.so/2013.1/901 2013/11/27
 14 13  0  0  0  0  0  0  0  0999 V2000
   39.1459    7.9797   20.4431 N   0  0  0  0  0  0  0  0  0  0  0  0
   40.5312    7.8492   19.9419 C   0  0  0  0  0  0  0  0  0  0  0  0
   41.1824    9.2337   19.7346 C   0  0  0  0  0  0  0  0  0  0  0  0
   42.6415    9.1888   19.2519 C   0  0  0  0  0  0  0  0  0  0  0  0
   43.5050    8.4681   20.2272 N   0  0  0  0  0  0  0  0  0  0  0  0
   44.9062    8.4218   19.7360 C   0  0  0  0  0  0  0  0  0  0  0  0
   45.4914    6.9896   19.4936 C   0  0  0  0  0  0  0  0  0  0  0  0
   45.5135    6.0896   20.7624 C   0  0  0  0  0  0  0  0  0  0  0  0
   46.1173    4.7177   20.5334 C   0  0  0  0  0  0  0  0  0  0  0  0
   45.2650    4.0138   19.5940 N   0  0  0  0  0  0  0  0  0  0  0  0
   46.1422    3.1313   18.8448 C   0  0  0  0  0  0  0  0  0  0  0  0
   46.0539    3.3975   17.3466 C   0  0  0  0  0  0  0  0  0  0  0  0
   47.0784    2.4879   16.6517 C   0  0  0  0  0  0  0  0  0  0  0  0
   47.0847    2.6714   15.1926 N   0  0  0  0  0  0  0  0  0  0  0  0
  1  2  1  0  0  0  0
  2  3  1  0  0  0  0
  3  4  1  0  0  0  0
  4  5  1  0  0  0  0
  5  6  1  0  0  0  0
  6  7  1  0  0  0  0
  7  8  1  0  0  0  0
  8  9  1  0  0  0  0
  9 10  1  0  0  0  0
 10 11  1  0  0  0  0
 11 12  1  0  0  0  0
 12 13  1  0  0  0  0
 13 14  1  0  0  0  0
M  END
>  <CHROM.1>
178.32530143,-59.80937669,179.35021546,-118.88328710,-59.76035711,-178.33399150
-64.22632301,148.93980110,-122.85498203,176.29119240,-179.58115155,44.33299301
6.04582395,19.12537498,2.33439874,-0.32234376,0.74508931

>  <Name>
ligand

>  <RI>
0

>  <Rbt.Current_Directory>
/home/itssahil/PROJECTS/Mol_Feturizer/New_Systems/rnas/1TN2

>  <Rbt.Executable>
rbdock ($Id: //depot/dev/client3/rdock/2013.1/src/exe/rbdock.cxx#4 $)

>  <Rbt.Library>
libRbt.so (2013.1, Build901 2013/11/27)

>  <Rbt.Parameter_File>
/export/apps/rDock/src/rDock_2013.1_src/data/scripts/dock_solv.prm

>  <Rbt.Receptor>
prm/blind_docking_80.prm

>  <SCORE>
-12.5824

>  <SCORE.INTER>
-9.89455

>  <SCORE.INTER.CONST>
1

>  <SCORE.INTER.POLAR>
0

>  <SCORE.INTER.ROT>
11

>  <SCORE.INTER.SOLV>
15.7927

>  <SCORE.INTER.VDW>
-22.7939

>  <SCORE.INTER.norm>
-0.706754

>  <SCORE.INTRA>
-2.68784

>  <SCORE.INTRA.DIHEDRAL>
-4.62646

>  <SCORE.INTRA.DIHEDRAL.0>
7.79482

>  <SCORE.INTRA.POLAR>
0

>  <SCORE.INTRA.POLAR.0>
0

>  <SCORE.INTRA.REPUL>
0

>  <SCORE.INTRA.REPUL.0>
0

>  <SCORE.INTRA.SOLV>
1.01523

>  <SCORE.INTRA.SOLV.lig_0>
-49.456

>  <SCORE.INTRA.VDW>
-0.882221

>  <SCORE.INTRA.VDW.0>
-0.478406

>  <SCORE.INTRA.norm>
-0.191988

>  <SCORE.RESTR>
0

>  <SCORE.RESTR.CAVITY>
0

>  <SCORE.RESTR.norm>
0

>  <SCORE.SYSTEM>
0

>  <SCORE.SYSTEM.CONST>
0

>  <SCORE.SYSTEM.DIHEDRAL>
0

>  <SCORE.SYSTEM.SOLV>
0

>  <SCORE.SYSTEM.norm>
0

>  <SCORE.heavy>
14

>  <SCORE.norm>
-0.898742

>  <RMSD>
3.530

$$$$
ligand
 OpenBabel11021811413D
libRbt.so/2013.1/901 2013/11/27
 14 13  0  0  0  0  0  0  0  0999 V2000
   47.9080    9.5648   16.9854 N   0  0  0  0  0  0  0  0  0  0  0  0
   47.9572    8.3740   17.8610 C   0  0  0  0  0  0  0  0  0  0  0  0
   46.6335    8.1959   18.6356 C   0  0  0  0  0  0  0  0  0  0  0  0
   46.5783    6.9461   19.5293 C   0  0  0  0  0  0  0  0  0  0  0  0
   45.2292    6.7831   20.1375 N   0  0  0  0  0  0  0  0  0  0  0  0
   45.2247    5.6315   21.0759 C   0  0  0  0  0  0  0  0  0  0  0  0
   44.6582    4.2906   20.4987 C   0  0  0  0  0  0  0  0  0  0  0  0
   45.4660    3.7257   19.2951 C   0  0  0  0  0  0  0  0  0  0  0  0
   44.9905    2.3674   18.8179 C   0  0  0  0  0  0  0  0  0  0  0  0
   45.7612    2.0214   17.6385 N   0  0  0  0  0  0  0  0  0  0  0  0
   45.5340    0.6042   17.4162 C   0  0  0  0  0  0  0  0  0  0  0  0
   45.6963    0.2373   15.9458 C   0  0  0  0  0  0  0  0  0  0  0  0
   45.5584   -1.2883   15.8295 C   0  0  0  0  0  0  0  0  0  0  0  0
   45.6860   -1.7533   14.4402 N   0  0  0  0  0  0  0  0  0  0  0  0
  1  2  1  0  0  0  0
  2  3  1  0  0  0  0
  3  4  1  0  0  0  0
  4  5  1  0  0  0  0
  5  6  1  0  0  0  0
  6  7  1  0  0  0  0
  7  8  1  0  0  0  0
  8  9  1  0  0  0  0
  9 10  1  0  0  0  0
 10 11  1  0  0  0  0
 11 12  1  0  0  0  0
 12 13  1  0  0  0  0
 13 14  1  0  0  0  0
M  END
>  <CHROM.1>
177.64946197,-174.70182894,-175.74034578,-98.26572916,62.10013226,174.83551055
175.62979025,165.75852452,153.07330305,175.21174187,179.42782967,45.92000563
3.97852378,18.15080879,-1.30278188,-1.04951173,-2.58025525

>  <Name>
ligand

>  <RI>
0

>  <Rbt.Current_Directory>
/home/itssahil/PROJECTS/Mol_Feturizer/New_Systems/rnas/1TN2

>  <Rbt.Executable>
rbdock ($Id: //depot/dev/client3/rdock/2013.1/src/exe/rbdock.cxx#4 $)

>  <Rbt.Library>
libRbt.so (2013.1, Build901 2013/11/27)

>  <Rbt.Parameter_File>
/export/apps/rDock/src/rDock_2013.1_src/data/scripts/dock_solv.prm

>  <Rbt.Receptor>
prm/pocket_docking_6.prm

>  <SCORE>
-9.99278

>  <SCORE.INTER>
-6.39066

>  <SCORE.INTER.CONST>
1

>  <SCORE.INTER.POLAR>
0

>  <SCORE.INTER.ROT>
11

>  <SCORE.INTER.SOLV>
10.096

>  <SCORE.INTER.VDW>
-18.5591

>  <SCORE.INTER.norm>
-0.456476

>  <SCORE.INTRA>
-3.60212

>  <SCORE.INTRA.DIHEDRAL>
-5.85149

>  <SCORE.INTRA.DIHEDRAL.0>
7.79482

>  <SCORE.INTRA.POLAR>
0

>  <SCORE.INTRA.POLAR.0>
0

>  <SCORE.INTRA.REPUL>
0

>  <SCORE.INTRA.REPUL.0>
0

>  <SCORE.INTRA.SOLV>
0.271823

>  <SCORE.INTRA.SOLV.lig_0>
-49.456

>  <SCORE.INTRA.VDW>
-0.812284

>  <SCORE.INTRA.VDW.0>
-0.478406

>  <SCORE.INTRA.norm>
-0.257294

>  <SCORE.RESTR>
0

>  <SCORE.RESTR.CAVITY>
0

>  <SCORE.RESTR.norm>
0

>  <SCORE.SYSTEM>
0

>  <SCORE.SYSTEM.CONST>
0

>  <SCORE.SYSTEM.DIHEDRAL>
0

>  <SCORE.SYSTEM.SOLV>
0

>  <SCORE.SYSTEM.norm>
0

>  <SCORE.heavy>
14

>  <SCORE.norm>
-0.71377

>  <RMSD>
3.534

$$$$
ligand
 OpenBabel11021811413D
libRbt.so/2013.1/901 2013/11/27
 14 13  0  0  0  0  0  0  0  0999 V2000
   45.1698    0.4907   15.7380 N   0  0  0  0  0  0  0  0  0  0  0  0
   44.9086    1.1874   17.0161 C   0  0  0  0  0  0  0  0  0  0  0  0
   46.1835    1.8793   17.5452 C   0  0  0  0  0  0  0  0  0  0  0  0
   46.0170    2.5723   18.9075 C   0  0  0  0  0  0  0  0  0  0  0  0
   45.0271    3.6812   18.8255 N   0  0  0  0  0  0  0  0  0  0  0  0
   44.4387    3.9442   20.1640 C   0  0  0  0  0  0  0  0  0  0  0  0
   45.3075    4.8252   21.1238 C   0  0  0  0  0  0  0  0  0  0  0  0
   45.5725    6.2653   20.5984 C   0  0  0  0  0  0  0  0  0  0  0  0
   46.4233    6.3162   19.3444 C   0  0  0  0  0  0  0  0  0  0  0  0
   46.6445    7.7127   19.0199 N   0  0  0  0  0  0  0  0  0  0  0  0
   47.8270    7.7430   18.1771 C   0  0  0  0  0  0  0  0  0  0  0  0
   48.2340    9.1723   17.8384 C   0  0  0  0  0  0  0  0  0  0  0  0
   49.5245    9.1036   17.0078 C   0  0  0  0  0  0  0  0  0  0  0  0
   49.2942    8.5403   15.6691 N   0  0  0  0  0  0  0  0  0  0  0  0
  1  2  1  0  0  0  0
  2  3  1  0  0  0  0
  3  4  1  0  0  0  0
  4  5  1  0  0  0  0
  5  6  1  0  0  0  0
  6  7  1  0  0  0  0
  7  8  1  0  0  0  0
  8  9  1  0  0  0  0
  9 10  1  0  0  0  0
 10 11  1  0  0  0  0
 11 12  1  0  0  0  0
 12 13  1  0  0  0  0
 13 14  1  0  0  0  0
M  END
>  <CHROM.1>
-177.19651373,-63.13629369,155.49903973,80.96128008,62.17419187,-65.76573785
-176.91306746,158.79264660,-176.00420565,177.26841471,69.21991112,46.46940036
5.24532277,18.35579616,-2.42096500,0.95335869,0.70251667

>  <Name>
ligand

>  <RI>
0

>  <Rbt.Current_Directory>
/home/itssahil/PROJECTS/Mol_Feturizer/New_Systems/rnas/1TN2

>  <Rbt.Executable>
rbdock ($Id: //depot/dev/client3/rdock/2013.1/src/exe/rbdock.cxx#4 $)

>  <Rbt.Library>
libRbt.so (2013.1, Build901 2013/11/27)

>  <Rbt.Parameter_File>
/export/apps/rDock/src/rDock_2013.1_src/data/scripts/dock_solv.prm

>  <Rbt.Receptor>
prm/pocket_docking_5.prm

>  <SCORE>
-7.46191

>  <SCORE.INTER>
-5.0399

>  <SCORE.INTER.CONST>
1

>  <SCORE.INTER.POLAR>
0

>  <SCORE.INTER.ROT>
11

>  <SCORE.INTER.SOLV>
10.8242

>  <SCORE.INTER.VDW>
-17.9013

>  <SCORE.INTER.norm>
-0.359993

>  <SCORE.INTRA>
-2.42201

>  <SCORE.INTRA.DIHEDRAL>
-6.08953

>  <SCORE.INTRA.DIHEDRAL.0>
7.79482

>  <SCORE.INTRA.POLAR>
0

>  <SCORE.INTRA.POLAR.0>
0

>  <SCORE.INTRA.REPUL>
0

>  <SCORE.INTRA.REPUL.0>
0

>  <SCORE.INTRA.SOLV>
1.99121

>  <SCORE.INTRA.SOLV.lig_0>
-49.456

>  <SCORE.INTRA.VDW>
-0.372851

>  <SCORE.INTRA.VDW.0>
-0.478406

>  <SCORE.INTRA.norm>
-0.173001

>  <SCORE.RESTR>
0

>  <SCORE.RESTR.CAVITY>
0

>  <SCORE.RESTR.norm>
0

>  <SCORE.SYSTEM>
0

>  <SCORE.SYSTEM.CONST>
0

>  <SCORE.SYSTEM.DIHEDRAL>
0

>  <SCORE.SYSTEM.SOLV>
0

>  <SCORE.SYSTEM.norm>
0

>  <SCORE.heavy>
14

>  <SCORE.norm>
-0.532994

>  <RMSD>
3.547

$$$$
ligand
 OpenBabel11021811413D
libRbt.so/2013.1/901 2013/11/27
 14 13  0  0  0  0  0  0  0  0999 V2000
   46.3664    2.4518   16.2637 N   0  0  0  0  0  0  0  0  0  0  0  0
   45.7929    1.2691   16.9415 C   0  0  0  0  0  0  0  0  0  0  0  0
   45.9285    1.3844   18.4752 C   0  0  0  0  0  0  0  0  0  0  0  0
   45.0868    2.5038   19.1096 C   0  0  0  0  0  0  0  0  0  0  0  0
   45.6229    3.8451   18.7493 N   0  0  0  0  0  0  0  0  0  0  0  0
   46.3106    4.4537   19.9169 C   0  0  0  0  0  0  0  0  0  0  0  0
   45.3854    4.8482   21.1172 C   0  0  0  0  0  0  0  0  0  0  0  0
   44.2922    5.8956   20.7589 C   0  0  0  0  0  0  0  0  0  0  0  0
   44.8125    7.3156   20.6497 C   0  0  0  0  0  0  0  0  0  0  0  0
   45.6723    7.3800   19.4831 N   0  0  0  0  0  0  0  0  0  0  0  0
   46.6045    8.4650   19.7351 C   0  0  0  0  0  0  0  0  0  0  0  0
   47.2854    8.9247   18.4513 C   0  0  0  0  0  0  0  0  0  0  0  0
   48.1491    7.7613   17.9410 C   0  0  0  0  0  0  0  0  0  0  0  0
   48.8906    8.1134   16.7208 N   0  0  0  0  0  0  0  0  0  0  0  0
  1  2  1  0  0  0  0
  2  3  1  0  0  0  0
  3  4  1  0  0  0  0
  4  5  1  0  0  0  0
  5  6  1  0  0  0  0
  6  7  1  0  0  0  0
  7  8  1  0  0  0  0
  8  9  1  0  0  0  0
  9 10  1  0  0  0  0
 10 11  1  0  0  0  0
 11 12  1  0  0  0  0
 12 13  1  0  0  0  0
 13 14  1  0  0  0  0
M  END
>  <CHROM.1>
67.00547896,-69.95773219,-106.25120216,-67.73778165,-60.37672821,-76.99658865
68.13810162,-154.07404185,-162.85961332,-65.11661851,-178.14356327,46.15696484
5.32935340,18.87995508,-1.90002827,0.90091109,0.40013889

>  <Name>
ligand

>  <RI>
0

>  <Rbt.Current_Directory>
/home/itssahil/PROJECTS/Mol_Feturizer/New_Systems/rnas/1TN2

>  <Rbt.Executable>
rbdock ($Id: //depot/dev/client3/rdock/2013.1/src/exe/rbdock.cxx#4 $)

>  <Rbt.Library>
libRbt.so (2013.1, Build901 2013/11/27)

>  <Rbt.Parameter_File>
/export/apps/rDock/src/rDock_2013.1_src/data/scripts/dock_solv.prm

>  <Rbt.Receptor>
prm/pocket_docking_4.prm

>  <SCORE>
-8.44517

>  <SCORE.INTER>
-8.58953

>  <SCORE.INTER.CONST>
1

>  <SCORE.INTER.POLAR>
0

>  <SCORE.INTER.ROT>
11

>  <SCORE.INTER.SOLV>
10.8382

>  <SCORE.INTER.VDW>
-20.2724

>  <SCORE.INTER.norm>
-0.613538

>  <SCORE.INTRA>
0.144357

>  <SCORE.INTRA.DIHEDRAL>
-3.95329

>  <SCORE.INTRA.DIHEDRAL.0>
7.79482

>  <SCORE.INTRA.POLAR>
0

>  <SCORE.INTRA.POLAR.0>
0

>  <SCORE.INTRA.REPUL>
0

>  <SCORE.INTRA.REPUL.0>
0

>  <SCORE.INTRA.SOLV>
4.97339

>  <SCORE.INTRA.SOLV.lig_0>
-49.456

>  <SCORE.INTRA.VDW>
-0.365689

>  <SCORE.INTRA.VDW.0>
-0.478406

>  <SCORE.INTRA.norm>
0.0103112

>  <SCORE.RESTR>
0

>  <SCORE.RESTR.CAVITY>
0

>  <SCORE.RESTR.norm>
0

>  <SCORE.SYSTEM>
0

>  <SCORE.SYSTEM.CONST>
0

>  <SCORE.SYSTEM.DIHEDRAL>
0

>  <SCORE.SYSTEM.SOLV>
0

>  <SCORE.SYSTEM.norm>
0

>  <SCORE.heavy>
14

>  <SCORE.norm>
-0.603226

>  <RMSD>
3.548

$$$$
ligand
 OpenBabel11021811413D
libRbt.so/2013.1/901 2013/11/27
 14 13  0  0  0  0  0  0  0  0999 V2000
   49.7075    8.8837   16.5495 N   0  0  0  0  0  0  0  0  0  0  0  0
   48.6488    7.9085   16.8890 C   0  0  0  0  0  0  0  0  0  0  0  0
   47.9520    8.2806   18.2156 C   0  0  0  0  0  0  0  0  0  0  0  0
   46.8311    7.3181   18.6415 C   0  0  0  0  0  0  0  0  0  0  0  0
   46.2907    7.6858   19.9792 N   0  0  0  0  0  0  0  0  0  0  0  0
   45.1361    6.8167   20.3229 C   0  0  0  0  0  0  0  0  0  0  0  0
   45.4904    5.4796   21.0569 C   0  0  0  0  0  0  0  0  0  0  0  0
   46.2448    4.4484   20.1693 C   0  0  0  0  0  0  0  0  0  0  0  0
   45.3814    3.8093   19.0992 C   0  0  0  0  0  0  0  0  0  0  0  0
   46.1671    2.7678   18.4648 N   0  0  0  0  0  0  0  0  0  0  0  0
   45.4165    1.5374   18.6451 C   0  0  0  0  0  0  0  0  0  0  0  0
   45.6785    0.5531   17.5112 C   0  0  0  0  0  0  0  0  0  0  0  0
   45.0738    1.1480   16.2304 C   0  0  0  0  0  0  0  0  0  0  0  0
   45.2904    0.2837   15.0605 N   0  0  0  0  0  0  0  0  0  0  0  0
  1  2  1  0  0  0  0
  2  3  1  0  0  0  0
  3  4  1  0  0  0  0
  4  5  1  0  0  0  0
  5  6  1  0  0  0  0
  6  7  1  0  0  0  0
  7  8  1  0  0  0  0
  8  9  1  0  0  0  0
  9 10  1  0  0  0  0
 10 11  1  0  0  0  0
 11 12  1  0  0  0  0
 12 13  1  0  0  0  0
 13 14  1  0  0  0  0
M  END
>  <CHROM.1>
179.80367264,175.37469665,175.29926865,88.56745589,-68.80971864,-71.44621174
-173.31433391,121.63032466,150.86372009,-67.54428892,179.04399766,46.37901881
4.77999456,18.34570673,-0.97757604,-0.97110352,-2.44846739

>  <Name>
ligand

>  <RI>
0

>  <Rbt.Current_Directory>
/home/itssahil/PROJECTS/Mol_Feturizer/New_Systems/rnas/1TN2

>  <Rbt.Executable>
rbdock ($Id: //depot/dev/client3/rdock/2013.1/src/exe/rbdock.cxx#4 $)

>  <Rbt.Library>
libRbt.so (2013.1, Build901 2013/11/27)

>  <Rbt.Parameter_File>
/export/apps/rDock/src/rDock_2013.1_src/data/scripts/dock_solv.prm

>  <Rbt.Receptor>
prm/pocket_docking_4.prm

>  <SCORE>
-9.08603

>  <SCORE.INTER>
-7.02871

>  <SCORE.INTER.CONST>
1

>  <SCORE.INTER.POLAR>
0

>  <SCORE.INTER.ROT>
11

>  <SCORE.INTER.SOLV>
10.312

>  <SCORE.INTER.VDW>
-19.0565

>  <SCORE.INTER.norm>
-0.50205

>  <SCORE.INTRA>
-2.05732

>  <SCORE.INTRA.DIHEDRAL>
-4.16516

>  <SCORE.INTRA.DIHEDRAL.0>
7.79482

>  <SCORE.INTRA.POLAR>
0

>  <SCORE.INTRA.POLAR.0>
0

>  <SCORE.INTRA.REPUL>
0

>  <SCORE.INTRA.REPUL.0>
0

>  <SCORE.INTRA.SOLV>
0.957423

>  <SCORE.INTRA.SOLV.lig_0>
-49.456

>  <SCORE.INTRA.VDW>
-0.45345

>  <SCORE.INTRA.VDW.0>
-0.478406

>  <SCORE.INTRA.norm>
-0.146951

>  <SCORE.RESTR>
0

>  <SCORE.RESTR.CAVITY>
0

>  <SCORE.RESTR.norm>
0

>  <SCORE.SYSTEM>
0

>  <SCORE.SYSTEM.CONST>
0

>  <SCORE.SYSTEM.DIHEDRAL>
0

>  <SCORE.SYSTEM.SOLV>
0

>  <SCORE.SYSTEM.norm>
0

>  <SCORE.heavy>
14

>  <SCORE.norm>
-0.649002

>  <RMSD>
3.554

$$$$
ligand
 OpenBabel11021811413D
libRbt.so/2013.1/901 2013/11/27
 14 13  0  0  0  0  0  0  0  0999 V2000
   45.0662    1.7852   15.7199 N   0  0  0  0  0  0  0  0  0  0  0  0
   44.7038    1.1222   16.9912 C   0  0  0  0  0  0  0  0  0  0  0  0
   45.9301    0.9878   17.9197 C   0  0  0  0  0  0  0  0  0  0  0  0
   46.5344    2.3248   18.3793 C   0  0  0  0  0  0  0  0  0  0  0  0
   45.5791    3.0753   19.2397 N   0  0  0  0  0  0  0  0  0  0  0  0
   46.2180    4.3119   19.7588 C   0  0  0  0  0  0  0  0  0  0  0  0
   45.4283    5.0600   20.8852 C   0  0  0  0  0  0  0  0  0  0  0  0
   43.9852    5.4766   20.4798 C   0  0  0  0  0  0  0  0  0  0  0  0
   43.2688    6.3101   21.5242 C   0  0  0  0  0  0  0  0  0  0  0  0
   41.9896    6.7075   20.9675 N   0  0  0  0  0  0  0  0  0  0  0  0
   42.1742    8.0602   20.4717 C   0  0  0  0  0  0  0  0  0  0  0  0
   40.9151    8.5801   19.7878 C   0  0  0  0  0  0  0  0  0  0  0  0
   41.1680   10.0450   19.4003 C   0  0  0  0  0  0  0  0  0  0  0  0
   42.2907   10.1853   18.4610 N   0  0  0  0  0  0  0  0  0  0  0  0
  1  2  1  0  0  0  0
  2  3  1  0  0  0  0
  3  4  1  0  0  0  0
  4  5  1  0  0  0  0
  5  6  1  0  0  0  0
  6  7  1  0  0  0  0
  7  8  1  0  0  0  0
  8  9  1  0  0  0  0
  9 10  1  0  0  0  0
 10 11  1  0  0  0  0
 11 12  1  0  0  0  0
 12 13  1  0  0  0  0
 13 14  1  0  0  0  0
M  END
>  <CHROM.1>
63.40421908,65.24422600,175.62416337,-169.06195866,-57.39669073,-174.70503354
175.59176815,-98.39420588,177.00439837,175.55903500,61.15324646,43.94663289
5.28794137,19.28500323,0.67514136,0.92034120,-2.06294936

>  <Name>
ligand

>  <RI>
0

>  <Rbt.Current_Directory>
/home/itssahil/PROJECTS/Mol_Feturizer/New_Systems/rnas/1TN2

>  <Rbt.Executable>
rbdock ($Id: //depot/dev/client3/rdock/2013.1/src/exe/rbdock.cxx#4 $)

>  <Rbt.Library>
libRbt.so (2013.1, Build901 2013/11/27)

>  <Rbt.Parameter_File>
/export/apps/rDock/src/rDock_2013.1_src/data/scripts/dock_solv.prm

>  <Rbt.Receptor>
prm/blind_docking_60.prm

>  <SCORE>
-13.8968

>  <SCORE.INTER>
-11.8293

>  <SCORE.INTER.CONST>
1

>  <SCORE.INTER.POLAR>
0

>  <SCORE.INTER.ROT>
11

>  <SCORE.INTER.SOLV>
18.7408

>  <SCORE.INTER.VDW>
-25.0665

>  <SCORE.INTER.norm>
-0.844951

>  <SCORE.INTRA>
-2.06754

>  <SCORE.INTRA.DIHEDRAL>
-6.37865

>  <SCORE.INTRA.DIHEDRAL.0>
7.79482

>  <SCORE.INTRA.POLAR>
0

>  <SCORE.INTRA.POLAR.0>
0

>  <SCORE.INTRA.REPUL>
0

>  <SCORE.INTRA.REPUL.0>
0

>  <SCORE.INTRA.SOLV>
2.77395

>  <SCORE.INTRA.SOLV.lig_0>
-49.456

>  <SCORE.INTRA.VDW>
-0.265193

>  <SCORE.INTRA.VDW.0>
-0.478406

>  <SCORE.INTRA.norm>
-0.147681

>  <SCORE.RESTR>
0

>  <SCORE.RESTR.CAVITY>
0

>  <SCORE.RESTR.norm>
0

>  <SCORE.SYSTEM>
0

>  <SCORE.SYSTEM.CONST>
0

>  <SCORE.SYSTEM.DIHEDRAL>
0

>  <SCORE.SYSTEM.SOLV>
0

>  <SCORE.SYSTEM.norm>
0

>  <SCORE.heavy>
14

>  <SCORE.norm>
-0.992632

>  <RMSD>
3.558

$$$$
ligand
 OpenBabel11021811413D
libRbt.so/2013.1/901 2013/11/27
 14 13  0  0  0  0  0  0  0  0999 V2000
   46.6663    9.2306   17.8371 N   0  0  0  0  0  0  0  0  0  0  0  0
   45.4462    9.0669   18.6567 C   0  0  0  0  0  0  0  0  0  0  0  0
   45.7976    8.6785   20.1091 C   0  0  0  0  0  0  0  0  0  0  0  0
   46.4435    7.2917   20.2622 C   0  0  0  0  0  0  0  0  0  0  0  0
   45.4673    6.2106   19.9546 N   0  0  0  0  0  0  0  0  0  0  0  0
   46.1799    4.9314   19.7041 C   0  0  0  0  0  0  0  0  0  0  0  0
   45.2803    3.7341   19.2465 C   0  0  0  0  0  0  0  0  0  0  0  0
   46.0762    2.5162   18.6952 C   0  0  0  0  0  0  0  0  0  0  0  0
   45.2009    1.4058   18.1477 C   0  0  0  0  0  0  0  0  0  0  0  0
   46.0758    0.3848   17.6032 N   0  0  0  0  0  0  0  0  0  0  0  0
   45.2347   -0.4575   16.7709 C   0  0  0  0  0  0  0  0  0  0  0  0
   46.0017   -0.9984   15.5699 C   0  0  0  0  0  0  0  0  0  0  0  0
   45.0223   -1.8324   14.7302 C   0  0  0  0  0  0  0  0  0  0  0  0
   45.6538   -2.3784   13.5195 N   0  0  0  0  0  0  0  0  0  0  0  0
  1  2  1  0  0  0  0
  2  3  1  0  0  0  0
  3  4  1  0  0  0  0
  4  5  1  0  0  0  0
  5  6  1  0  0  0  0
  6  7  1  0  0  0  0
  7  8  1  0  0  0  0
  8  9  1  0  0  0  0
  9 10  1  0  0  0  0
 10 11  1  0  0  0  0
 11 12  1  0  0  0  0
 12 13  1  0  0  0  0
 13 14  1  0  0  0  0
M  END
>  <CHROM.1>
-66.21310269,-68.55432722,162.95351894,-174.94110899,167.19534484,-175.22910692
176.69360168,-164.43013066,146.78256742,-178.11065413,178.56184954,45.75322740
3.41314077,17.91504755,-0.95306918,-1.49292405,-2.12046495

>  <Name>
ligand

>  <RI>
0

>  <Rbt.Current_Directory>
/home/itssahil/PROJECTS/Mol_Feturizer/New_Systems/rnas/1TN2

>  <Rbt.Executable>
rbdock ($Id: //depot/dev/client3/rdock/2013.1/src/exe/rbdock.cxx#4 $)

>  <Rbt.Library>
libRbt.so (2013.1, Build901 2013/11/27)

>  <Rbt.Parameter_File>
/export/apps/rDock/src/rDock_2013.1_src/data/scripts/dock_solv.prm

>  <Rbt.Receptor>
prm/pocket_docking_5.prm

>  <SCORE>
-9.71379

>  <SCORE.INTER>
-6.86078

>  <SCORE.INTER.CONST>
1

>  <SCORE.INTER.POLAR>
0

>  <SCORE.INTER.ROT>
11

>  <SCORE.INTER.SOLV>
12.3775

>  <SCORE.INTER.VDW>
-19.633

>  <SCORE.INTER.norm>
-0.490056

>  <SCORE.INTRA>
-2.85301

>  <SCORE.INTRA.DIHEDRAL>
-5.48917

>  <SCORE.INTRA.DIHEDRAL.0>
7.79482

>  <SCORE.INTRA.POLAR>
0

>  <SCORE.INTRA.POLAR.0>
0

>  <SCORE.INTRA.REPUL>
0

>  <SCORE.INTRA.REPUL.0>
0

>  <SCORE.INTRA.SOLV>
1.45586

>  <SCORE.INTRA.SOLV.lig_0>
-49.456

>  <SCORE.INTRA.VDW>
-0.836351

>  <SCORE.INTRA.VDW.0>
-0.478406

>  <SCORE.INTRA.norm>
-0.203786

>  <SCORE.RESTR>
0

>  <SCORE.RESTR.CAVITY>
0

>  <SCORE.RESTR.norm>
0

>  <SCORE.SYSTEM>
0

>  <SCORE.SYSTEM.CONST>
0

>  <SCORE.SYSTEM.DIHEDRAL>
0

>  <SCORE.SYSTEM.SOLV>
0

>  <SCORE.SYSTEM.norm>
0

>  <SCORE.heavy>
14

>  <SCORE.norm>
-0.693842

>  <RMSD>
3.571

$$$$
ligand
 OpenBabel11021811413D
libRbt.so/2013.1/901 2013/11/27
 14 13  0  0  0  0  0  0  0  0999 V2000
   45.4080   -0.5287   15.5176 N   0  0  0  0  0  0  0  0  0  0  0  0
   44.7697    0.7998   15.6393 C   0  0  0  0  0  0  0  0  0  0  0  0
   45.6165    1.7475   16.5161 C   0  0  0  0  0  0  0  0  0  0  0  0
   45.6653    1.3686   18.0054 C   0  0  0  0  0  0  0  0  0  0  0  0
   46.5308    2.3096   18.7681 N   0  0  0  0  0  0  0  0  0  0  0  0
   45.8235    3.5981   18.9831 C   0  0  0  0  0  0  0  0  0  0  0  0
   46.3837    4.4929   20.1397 C   0  0  0  0  0  0  0  0  0  0  0  0
   45.7318    5.9029   20.2244 C   0  0  0  0  0  0  0  0  0  0  0  0
   44.2614    5.8801   20.5935 C   0  0  0  0  0  0  0  0  0  0  0  0
   43.7753    7.2461   20.5464 N   0  0  0  0  0  0  0  0  0  0  0  0
   42.3444    7.1516   20.3154 C   0  0  0  0  0  0  0  0  0  0  0  0
   41.7074    8.5307   20.1910 C   0  0  0  0  0  0  0  0  0  0  0  0
   40.2049    8.3279   19.9430 C   0  0  0  0  0  0  0  0  0  0  0  0
   39.5535    7.6009   21.0430 N   0  0  0  0  0  0  0  0  0  0  0  0
  1  2  1  0  0  0  0
  2  3  1  0  0  0  0
  3  4  1  0  0  0  0
  4  5  1  0  0  0  0
  5  6  1  0  0  0  0
  6  7  1  0  0  0  0
  7  8  1  0  0  0  0
  8  9  1  0  0  0  0
  9 10  1  0  0  0  0
 10 11  1  0  0  0  0
 11 12  1  0  0  0  0
 12 13  1  0  0  0  0
 13 14  1  0  0  0  0
M  END
>  <CHROM.1>
-68.85875126,178.42180897,75.93959271,160.60509189,173.01577670,65.83779084
-176.26866732,155.59518369,-177.86630867,179.72982390,60.28298093,44.12699440
4.60217274,19.03046140,1.04088404,0.32154848,-2.45821908

>  <Name>
ligand

>  <RI>
0

>  <Rbt.Current_Directory>
/home/itssahil/PROJECTS/Mol_Feturizer/New_Systems/rnas/1TN2

>  <Rbt.Executable>
rbdock ($Id: //depot/dev/client3/rdock/2013.1/src/exe/rbdock.cxx#4 $)

>  <Rbt.Library>
libRbt.so (2013.1, Build901 2013/11/27)

>  <Rbt.Parameter_File>
/export/apps/rDock/src/rDock_2013.1_src/data/scripts/dock_solv.prm

>  <Rbt.Receptor>
prm/pocket_docking_8.prm

>  <SCORE>
-11.541

>  <SCORE.INTER>
-9.54311

>  <SCORE.INTER.CONST>
1

>  <SCORE.INTER.POLAR>
0

>  <SCORE.INTER.ROT>
11

>  <SCORE.INTER.SOLV>
16.1876

>  <SCORE.INTER.VDW>
-22.6913

>  <SCORE.INTER.norm>
-0.68165

>  <SCORE.INTRA>
-1.99787

>  <SCORE.INTRA.DIHEDRAL>
-6.20508

>  <SCORE.INTRA.DIHEDRAL.0>
7.79482

>  <SCORE.INTRA.POLAR>
0

>  <SCORE.INTRA.POLAR.0>
0

>  <SCORE.INTRA.REPUL>
0

>  <SCORE.INTRA.REPUL.0>
0

>  <SCORE.INTRA.SOLV>
1.61675

>  <SCORE.INTRA.SOLV.lig_0>
-49.456

>  <SCORE.INTRA.VDW>
0.296293

>  <SCORE.INTRA.VDW.0>
-0.478406

>  <SCORE.INTRA.norm>
-0.142705

>  <SCORE.RESTR>
0

>  <SCORE.RESTR.CAVITY>
0

>  <SCORE.RESTR.norm>
0

>  <SCORE.SYSTEM>
0

>  <SCORE.SYSTEM.CONST>
0

>  <SCORE.SYSTEM.DIHEDRAL>
0

>  <SCORE.SYSTEM.SOLV>
0

>  <SCORE.SYSTEM.norm>
0

>  <SCORE.heavy>
14

>  <SCORE.norm>
-0.824356

>  <RMSD>
3.574

$$$$
ligand
 OpenBabel11021811413D
libRbt.so/2013.1/901 2013/11/27
 14 13  0  0  0  0  0  0  0  0999 V2000
   45.6806   -1.7614   14.2937 N   0  0  0  0  0  0  0  0  0  0  0  0
   45.8017   -1.3545   15.7104 C   0  0  0  0  0  0  0  0  0  0  0  0
   44.9589   -0.0943   16.0030 C   0  0  0  0  0  0  0  0  0  0  0  0
   45.0988    0.4510   17.4337 C   0  0  0  0  0  0  0  0  0  0  0  0
   44.2007    1.6183   17.6509 N   0  0  0  0  0  0  0  0  0  0  0  0
   44.6635    2.4120   18.8183 C   0  0  0  0  0  0  0  0  0  0  0  0
   45.9557    3.2656   18.5867 C   0  0  0  0  0  0  0  0  0  0  0  0
   46.2690    4.2678   19.7347 C   0  0  0  0  0  0  0  0  0  0  0  0
   45.3003    5.4312   19.8176 C   0  0  0  0  0  0  0  0  0  0  0  0
   45.8604    6.4047   20.7358 N   0  0  0  0  0  0  0  0  0  0  0  0
   45.3999    7.7014   20.2707 C   0  0  0  0  0  0  0  0  0  0  0  0
   46.5466    8.5297   19.7030 C   0  0  0  0  0  0  0  0  0  0  0  0
   47.0629    7.8099   18.4479 C   0  0  0  0  0  0  0  0  0  0  0  0
   48.1272    8.5667   17.7717 N   0  0  0  0  0  0  0  0  0  0  0  0
  1  2  1  0  0  0  0
  2  3  1  0  0  0  0
  3  4  1  0  0  0  0
  4  5  1  0  0  0  0
  5  6  1  0  0  0  0
  6  7  1  0  0  0  0
  7  8  1  0  0  0  0
  8  9  1  0  0  0  0
  9 10  1  0  0  0  0
 10 11  1  0  0  0  0
 11 12  1  0  0  0  0
 12 13  1  0  0  0  0
 13 14  1  0  0  0  0
M  END
>  <CHROM.1>
-176.25135660,-176.96311436,-160.38648432,73.42969007,169.84446233,-70.19031912
-168.71007477,149.17391184,-110.89194133,65.06733248,176.72936131,45.78037104
3.80345658,18.21296364,-1.80824531,0.93985361,0.59549386

>  <Name>
ligand

>  <RI>
0

>  <Rbt.Current_Directory>
/home/itssahil/PROJECTS/Mol_Feturizer/New_Systems/rnas/1TN2

>  <Rbt.Executable>
rbdock ($Id: //depot/dev/client3/rdock/2013.1/src/exe/rbdock.cxx#4 $)

>  <Rbt.Library>
libRbt.so (2013.1, Build901 2013/11/27)

>  <Rbt.Parameter_File>
/export/apps/rDock/src/rDock_2013.1_src/data/scripts/dock_solv.prm

>  <Rbt.Receptor>
prm/blind_docking_60.prm

>  <SCORE>
-9.05583

>  <SCORE.INTER>
-7.29472

>  <SCORE.INTER.CONST>
1

>  <SCORE.INTER.POLAR>
0

>  <SCORE.INTER.ROT>
11

>  <SCORE.INTER.SOLV>
14.8303

>  <SCORE.INTER.VDW>
-20.7399

>  <SCORE.INTER.norm>
-0.521052

>  <SCORE.INTRA>
-1.7611

>  <SCORE.INTRA.DIHEDRAL>
-4.1044

>  <SCORE.INTRA.DIHEDRAL.0>
7.79482

>  <SCORE.INTRA.POLAR>
0

>  <SCORE.INTRA.POLAR.0>
0

>  <SCORE.INTRA.REPUL>
0

>  <SCORE.INTRA.REPUL.0>
0

>  <SCORE.INTRA.SOLV>
0.500609

>  <SCORE.INTRA.SOLV.lig_0>
-49.456

>  <SCORE.INTRA.VDW>
0.0407914

>  <SCORE.INTRA.VDW.0>
-0.478406

>  <SCORE.INTRA.norm>
-0.125793

>  <SCORE.RESTR>
0

>  <SCORE.RESTR.CAVITY>
0

>  <SCORE.RESTR.norm>
0

>  <SCORE.SYSTEM>
0

>  <SCORE.SYSTEM.CONST>
0

>  <SCORE.SYSTEM.DIHEDRAL>
0

>  <SCORE.SYSTEM.SOLV>
0

>  <SCORE.SYSTEM.norm>
0

>  <SCORE.heavy>
14

>  <SCORE.norm>
-0.646845

>  <RMSD>
3.575

$$$$
ligand
 OpenBabel11021811413D
libRbt.so/2013.1/901 2013/11/27
 14 13  0  0  0  0  0  0  0  0999 V2000
   46.3795   10.5716   18.7018 N   0  0  0  0  0  0  0  0  0  0  0  0
   46.3089    9.4795   19.6965 C   0  0  0  0  0  0  0  0  0  0  0  0
   46.2008    8.1024   19.0065 C   0  0  0  0  0  0  0  0  0  0  0  0
   46.0303    6.9159   19.9694 C   0  0  0  0  0  0  0  0  0  0  0  0
   45.9201    5.6330   19.2223 N   0  0  0  0  0  0  0  0  0  0  0  0
   45.3888    4.5663   20.1093 C   0  0  0  0  0  0  0  0  0  0  0  0
   45.0984    3.1923   19.4165 C   0  0  0  0  0  0  0  0  0  0  0  0
   46.3376    2.5558   18.7240 C   0  0  0  0  0  0  0  0  0  0  0  0
   46.1252    1.1220   18.2790 C   0  0  0  0  0  0  0  0  0  0  0  0
   45.1072    1.1290   17.2455 N   0  0  0  0  0  0  0  0  0  0  0  0
   45.2831   -0.1082   16.5052 C   0  0  0  0  0  0  0  0  0  0  0  0
   44.4573   -0.1137   15.2241 C   0  0  0  0  0  0  0  0  0  0  0  0
   44.6964   -1.4595   14.5228 C   0  0  0  0  0  0  0  0  0  0  0  0
   46.0762   -1.5926   14.0319 N   0  0  0  0  0  0  0  0  0  0  0  0
  1  2  1  0  0  0  0
  2  3  1  0  0  0  0
  3  4  1  0  0  0  0
  4  5  1  0  0  0  0
  5  6  1  0  0  0  0
  6  7  1  0  0  0  0
  7  8  1  0  0  0  0
  8  9  1  0  0  0  0
  9 10  1  0  0  0  0
 10 11  1  0  0  0  0
 11 12  1  0  0  0  0
 12 13  1  0  0  0  0
 13 14  1  0  0  0  0
M  END
>  <CHROM.1>
-176.21149850,179.39398046,-164.41661746,174.65682312,58.24571996,169.32555170
65.09433267,158.90128173,-169.03927662,-179.41282763,-67.21902799,45.67204880
3.57084268,17.90415087,-0.39877542,-1.47091941,-1.56275172

>  <Name>
ligand

>  <RI>
0

>  <Rbt.Current_Directory>
/home/itssahil/PROJECTS/Mol_Feturizer/New_Systems/rnas/1TN2

>  <Rbt.Executable>
rbdock ($Id: //depot/dev/client3/rdock/2013.1/src/exe/rbdock.cxx#4 $)

>  <Rbt.Library>
libRbt.so (2013.1, Build901 2013/11/27)

>  <Rbt.Parameter_File>
/export/apps/rDock/src/rDock_2013.1_src/data/scripts/dock_solv.prm

>  <Rbt.Receptor>
prm/blind_docking_80.prm

>  <SCORE>
-9.78482

>  <SCORE.INTER>
-6.73128

>  <SCORE.INTER.CONST>
1

>  <SCORE.INTER.POLAR>
0

>  <SCORE.INTER.ROT>
11

>  <SCORE.INTER.SOLV>
12.3523

>  <SCORE.INTER.VDW>
-19.5383

>  <SCORE.INTER.norm>
-0.480806

>  <SCORE.INTRA>
-3.05354

>  <SCORE.INTRA.DIHEDRAL>
-6.32958

>  <SCORE.INTRA.DIHEDRAL.0>
7.79482

>  <SCORE.INTRA.POLAR>
0

>  <SCORE.INTRA.POLAR.0>
0

>  <SCORE.INTRA.REPUL>
0

>  <SCORE.INTRA.REPUL.0>
0

>  <SCORE.INTRA.SOLV>
1.43147

>  <SCORE.INTRA.SOLV.lig_0>
-49.456

>  <SCORE.INTRA.VDW>
-0.604482

>  <SCORE.INTRA.VDW.0>
-0.478406

>  <SCORE.INTRA.norm>
-0.21811

>  <SCORE.RESTR>
0

>  <SCORE.RESTR.CAVITY>
0

>  <SCORE.RESTR.norm>
0

>  <SCORE.SYSTEM>
0

>  <SCORE.SYSTEM.CONST>
0

>  <SCORE.SYSTEM.DIHEDRAL>
0

>  <SCORE.SYSTEM.SOLV>
0

>  <SCORE.SYSTEM.norm>
0

>  <SCORE.heavy>
14

>  <SCORE.norm>
-0.698916

>  <RMSD>
3.587

$$$$
ligand
 OpenBabel11021811413D
libRbt.so/2013.1/901 2013/11/27
 14 13  0  0  0  0  0  0  0  0999 V2000
   45.3124   10.6052   18.2689 N   0  0  0  0  0  0  0  0  0  0  0  0
   45.1522    9.1588   18.5322 C   0  0  0  0  0  0  0  0  0  0  0  0
   44.1103    8.9060   19.6434 C   0  0  0  0  0  0  0  0  0  0  0  0
   43.9271    7.4277   20.0244 C   0  0  0  0  0  0  0  0  0  0  0  0
   45.2097    6.8332   20.4912 N   0  0  0  0  0  0  0  0  0  0  0  0
   44.9510    5.5737   21.2352 C   0  0  0  0  0  0  0  0  0  0  0  0
   44.6900    4.3073   20.3519 C   0  0  0  0  0  0  0  0  0  0  0  0
   45.8863    3.9120   19.4392 C   0  0  0  0  0  0  0  0  0  0  0  0
   45.6702    2.6276   18.6631 C   0  0  0  0  0  0  0  0  0  0  0  0
   46.8630    2.3852   17.8739 N   0  0  0  0  0  0  0  0  0  0  0  0
   46.5561    2.8548   16.5341 C   0  0  0  0  0  0  0  0  0  0  0  0
   47.7735    2.7700   15.6209 C   0  0  0  0  0  0  0  0  0  0  0  0
   47.3650    3.3274   14.2489 C   0  0  0  0  0  0  0  0  0  0  0  0
   48.4616    3.2565   13.2716 N   0  0  0  0  0  0  0  0  0  0  0  0
  1  2  1  0  0  0  0
  2  3  1  0  0  0  0
  3  4  1  0  0  0  0
  4  5  1  0  0  0  0
  5  6  1  0  0  0  0
  6  7  1  0  0  0  0
  7  8  1  0  0  0  0
  8  9  1  0  0  0  0
  9 10  1  0  0  0  0
 10 11  1  0  0  0  0
 11 12  1  0  0  0  0
 12 13  1  0  0  0  0
 13 14  1  0  0  0  0
M  END
>  <CHROM.1>
-177.42436325,58.79944249,162.63964284,80.00819543,61.82225964,175.66312543
-179.51680747,-99.12835525,175.07241473,-178.19186755,-178.33612371,45.85176549
5.28161152,18.15734477,-2.64328129,-1.13637506,2.78065365

>  <Name>
ligand

>  <RI>
0

>  <Rbt.Current_Directory>
/home/itssahil/PROJECTS/Mol_Feturizer/New_Systems/rnas/1TN2

>  <Rbt.Executable>
rbdock ($Id: //depot/dev/client3/rdock/2013.1/src/exe/rbdock.cxx#4 $)

>  <Rbt.Library>
libRbt.so (2013.1, Build901 2013/11/27)

>  <Rbt.Parameter_File>
/export/apps/rDock/src/rDock_2013.1_src/data/scripts/dock_solv.prm

>  <Rbt.Receptor>
prm/blind_docking_80.prm

>  <SCORE>
-7.49923

>  <SCORE.INTER>
-4.40762

>  <SCORE.INTER.CONST>
1

>  <SCORE.INTER.POLAR>
0

>  <SCORE.INTER.ROT>
11

>  <SCORE.INTER.SOLV>
10.5359

>  <SCORE.INTER.VDW>
-17.3837

>  <SCORE.INTER.norm>
-0.31483

>  <SCORE.INTRA>
-3.09161

>  <SCORE.INTRA.DIHEDRAL>
-6.22215

>  <SCORE.INTRA.DIHEDRAL.0>
7.79482

>  <SCORE.INTRA.POLAR>
0

>  <SCORE.INTRA.POLAR.0>
0

>  <SCORE.INTRA.REPUL>
0

>  <SCORE.INTRA.REPUL.0>
0

>  <SCORE.INTRA.SOLV>
0.624825

>  <SCORE.INTRA.SOLV.lig_0>
-49.456

>  <SCORE.INTRA.VDW>
-0.292947

>  <SCORE.INTRA.VDW.0>
-0.478406

>  <SCORE.INTRA.norm>
-0.220829

>  <SCORE.RESTR>
0

>  <SCORE.RESTR.CAVITY>
0

>  <SCORE.RESTR.norm>
0

>  <SCORE.SYSTEM>
0

>  <SCORE.SYSTEM.CONST>
0

>  <SCORE.SYSTEM.DIHEDRAL>
0

>  <SCORE.SYSTEM.SOLV>
0

>  <SCORE.SYSTEM.norm>
0

>  <SCORE.heavy>
14

>  <SCORE.norm>
-0.535659

>  <RMSD>
3.589

$$$$
ligand
 OpenBabel11021811413D
libRbt.so/2013.1/901 2013/11/27
 14 13  0  0  0  0  0  0  0  0999 V2000
   46.4855    9.1058   18.0863 N   0  0  0  0  0  0  0  0  0  0  0  0
   46.2029    9.3790   19.5120 C   0  0  0  0  0  0  0  0  0  0  0  0
   46.3972    8.1117   20.3723 C   0  0  0  0  0  0  0  0  0  0  0  0
   45.4321    6.9609   20.0434 C   0  0  0  0  0  0  0  0  0  0  0  0
   45.6517    5.8028   20.9527 N   0  0  0  0  0  0  0  0  0  0  0  0
   45.2787    4.5367   20.2710 C   0  0  0  0  0  0  0  0  0  0  0  0
   46.1978    4.1160   19.0750 C   0  0  0  0  0  0  0  0  0  0  0  0
   46.1303    2.6017   18.7243 C   0  0  0  0  0  0  0  0  0  0  0  0
   44.7823    2.1518   18.1957 C   0  0  0  0  0  0  0  0  0  0  0  0
   44.8503    0.7187   17.9817 N   0  0  0  0  0  0  0  0  0  0  0  0
   44.6894    0.5217   16.5516 C   0  0  0  0  0  0  0  0  0  0  0  0
   45.4670   -0.6956   16.0653 C   0  0  0  0  0  0  0  0  0  0  0  0
   45.2510   -0.8096   14.5486 C   0  0  0  0  0  0  0  0  0  0  0  0
   45.9330   -1.9804   13.9768 N   0  0  0  0  0  0  0  0  0  0  0  0
  1  2  1  0  0  0  0
  2  3  1  0  0  0  0
  3  4  1  0  0  0  0
  4  5  1  0  0  0  0
  5  6  1  0  0  0  0
  6  7  1  0  0  0  0
  7  8  1  0  0  0  0
  8  9  1  0  0  0  0
  9 10  1  0  0  0  0
 10 11  1  0  0  0  0
 11 12  1  0  0  0  0
 12 13  1  0  0  0  0
 13 14  1  0  0  0  0
M  END
>  <CHROM.1>
-63.75198833,-177.72458446,-151.48865057,67.76464268,158.77850467,65.83771289
-177.07298655,-115.80867475,148.09215491,-179.27040989,-178.46686672,45.62490212
3.60873377,18.16850090,-1.25717533,-1.32304277,-2.37818119

>  <Name>
ligand

>  <RI>
0

>  <Rbt.Current_Directory>
/home/itssahil/PROJECTS/Mol_Feturizer/New_Systems/rnas/1TN2

>  <Rbt.Executable>
rbdock ($Id: //depot/dev/client3/rdock/2013.1/src/exe/rbdock.cxx#4 $)

>  <Rbt.Library>
libRbt.so (2013.1, Build901 2013/11/27)

>  <Rbt.Parameter_File>
/export/apps/rDock/src/rDock_2013.1_src/data/scripts/dock_solv.prm

>  <Rbt.Receptor>
prm/pocket_docking_4.prm

>  <SCORE>
-8.82064

>  <SCORE.INTER>
-7.50401

>  <SCORE.INTER.CONST>
1

>  <SCORE.INTER.POLAR>
0

>  <SCORE.INTER.ROT>
11

>  <SCORE.INTER.SOLV>
13.2732

>  <SCORE.INTER.VDW>
-20.3604

>  <SCORE.INTER.norm>
-0.536

>  <SCORE.INTRA>
-1.31664

>  <SCORE.INTRA.DIHEDRAL>
-3.55385

>  <SCORE.INTRA.DIHEDRAL.0>
7.79482

>  <SCORE.INTRA.POLAR>
0

>  <SCORE.INTRA.POLAR.0>
0

>  <SCORE.INTRA.REPUL>
0

>  <SCORE.INTRA.REPUL.0>
0

>  <SCORE.INTRA.SOLV>
0.741374

>  <SCORE.INTRA.SOLV.lig_0>
-49.456

>  <SCORE.INTRA.VDW>
0.089602

>  <SCORE.INTRA.VDW.0>
-0.478406

>  <SCORE.INTRA.norm>
-0.0940455

>  <SCORE.RESTR>
0

>  <SCORE.RESTR.CAVITY>
0

>  <SCORE.RESTR.norm>
0

>  <SCORE.SYSTEM>
0

>  <SCORE.SYSTEM.CONST>
0

>  <SCORE.SYSTEM.DIHEDRAL>
0

>  <SCORE.SYSTEM.SOLV>
0

>  <SCORE.SYSTEM.norm>
0

>  <SCORE.heavy>
14

>  <SCORE.norm>
-0.630046

>  <RMSD>
3.592

$$$$
ligand
 OpenBabel11021811413D
libRbt.so/2013.1/901 2013/11/27
 14 13  0  0  0  0  0  0  0  0999 V2000
   45.5082    9.9565   18.7550 N   0  0  0  0  0  0  0  0  0  0  0  0
   45.2293    8.7900   19.6202 C   0  0  0  0  0  0  0  0  0  0  0  0
   46.3896    7.7723   19.5760 C   0  0  0  0  0  0  0  0  0  0  0  0
   46.2043    6.5505   20.4908 C   0  0  0  0  0  0  0  0  0  0  0  0
   45.0978    5.6815   20.0042 N   0  0  0  0  0  0  0  0  0  0  0  0
   45.5904    4.2971   19.7857 C   0  0  0  0  0  0  0  0  0  0  0  0
   46.0323    3.9592   18.3219 C   0  0  0  0  0  0  0  0  0  0  0  0
   46.5426    2.5017   18.1330 C   0  0  0  0  0  0  0  0  0  0  0  0
   45.4961    1.4416   18.4159 C   0  0  0  0  0  0  0  0  0  0  0  0
   45.9781    0.1900   17.8632 N   0  0  0  0  0  0  0  0  0  0  0  0
   45.2363   -0.0129   16.6310 C   0  0  0  0  0  0  0  0  0  0  0  0
   45.7410   -1.2337   15.8708 C   0  0  0  0  0  0  0  0  0  0  0  0
   44.9477   -1.3247   14.5584 C   0  0  0  0  0  0  0  0  0  0  0  0
   45.4570   -2.3833   13.6737 N   0  0  0  0  0  0  0  0  0  0  0  0
  1  2  1  0  0  0  0
  2  3  1  0  0  0  0
  3  4  1  0  0  0  0
  4  5  1  0  0  0  0
  5  6  1  0  0  0  0
  6  7  1  0  0  0  0
  7  8  1  0  0  0  0
  8  9  1  0  0  0  0
  9 10  1  0  0  0  0
 10 11  1  0  0  0  0
 11 12  1  0  0  0  0
 12 13  1  0  0  0  0
 13 14  1  0  0  0  0
M  END
>  <CHROM.1>
177.81300111,68.29975450,123.93975773,-94.91124763,179.96016456,62.59426277
164.82951626,-103.17304519,174.47833680,-177.26592787,173.60262009,45.67510501
3.29896800,17.97873537,1.42236544,-1.40814249,0.28428127

>  <Name>
ligand

>  <RI>
0

>  <Rbt.Current_Directory>
/home/itssahil/PROJECTS/Mol_Feturizer/New_Systems/rnas/1TN2

>  <Rbt.Executable>
rbdock ($Id: //depot/dev/client3/rdock/2013.1/src/exe/rbdock.cxx#4 $)

>  <Rbt.Library>
libRbt.so (2013.1, Build901 2013/11/27)

>  <Rbt.Parameter_File>
/export/apps/rDock/src/rDock_2013.1_src/data/scripts/dock_solv.prm

>  <Rbt.Receptor>
prm/pocket_docking_6.prm

>  <SCORE>
-9.72257

>  <SCORE.INTER>
-7.92343

>  <SCORE.INTER.CONST>
1

>  <SCORE.INTER.POLAR>
0

>  <SCORE.INTER.ROT>
11

>  <SCORE.INTER.SOLV>
13.3193

>  <SCORE.INTER.VDW>
-20.6554

>  <SCORE.INTER.norm>
-0.565959

>  <SCORE.INTRA>
-1.79914

>  <SCORE.INTRA.DIHEDRAL>
-3.53791

>  <SCORE.INTRA.DIHEDRAL.0>
7.79482

>  <SCORE.INTRA.POLAR>
0

>  <SCORE.INTRA.POLAR.0>
0

>  <SCORE.INTRA.REPUL>
0

>  <SCORE.INTRA.REPUL.0>
0

>  <SCORE.INTRA.SOLV>
0.369211

>  <SCORE.INTRA.SOLV.lig_0>
-49.456

>  <SCORE.INTRA.VDW>
-0.214792

>  <SCORE.INTRA.VDW.0>
-0.478406

>  <SCORE.INTRA.norm>
-0.12851

>  <SCORE.RESTR>
0

>  <SCORE.RESTR.CAVITY>
0

>  <SCORE.RESTR.norm>
0

>  <SCORE.SYSTEM>
0

>  <SCORE.SYSTEM.CONST>
0

>  <SCORE.SYSTEM.DIHEDRAL>
0

>  <SCORE.SYSTEM.SOLV>
0

>  <SCORE.SYSTEM.norm>
0

>  <SCORE.heavy>
14

>  <SCORE.norm>
-0.69447

>  <RMSD>
3.603

$$$$
ligand
 OpenBabel11021811413D
libRbt.so/2013.1/901 2013/11/27
 14 13  0  0  0  0  0  0  0  0999 V2000
   46.0252    9.8138   18.3970 N   0  0  0  0  0  0  0  0  0  0  0  0
   46.1349    9.5474   19.8476 C   0  0  0  0  0  0  0  0  0  0  0  0
   46.7122    8.1404   20.1145 C   0  0  0  0  0  0  0  0  0  0  0  0
   45.7937    6.9815   19.6934 C   0  0  0  0  0  0  0  0  0  0  0  0
   46.4647    5.6678   19.8938 N   0  0  0  0  0  0  0  0  0  0  0  0
   45.5510    4.7254   20.5894 C   0  0  0  0  0  0  0  0  0  0  0  0
   44.7488    3.7518   19.6616 C   0  0  0  0  0  0  0  0  0  0  0  0
   45.6249    2.6689   18.9686 C   0  0  0  0  0  0  0  0  0  0  0  0
   44.8375    1.6932   18.1160 C   0  0  0  0  0  0  0  0  0  0  0  0
   45.7567    0.6686   17.6582 N   0  0  0  0  0  0  0  0  0  0  0  0
   45.1496    0.0904   16.4721 C   0  0  0  0  0  0  0  0  0  0  0  0
   45.7709   -1.2584   16.1287 C   0  0  0  0  0  0  0  0  0  0  0  0
   45.1174   -1.7539   14.8296 C   0  0  0  0  0  0  0  0  0  0  0  0
   45.4158   -0.8763   13.6879 N   0  0  0  0  0  0  0  0  0  0  0  0
  1  2  1  0  0  0  0
  2  3  1  0  0  0  0
  3  4  1  0  0  0  0
  4  5  1  0  0  0  0
  5  6  1  0  0  0  0
  6  7  1  0  0  0  0
  7  8  1  0  0  0  0
  8  9  1  0  0  0  0
  9 10  1  0  0  0  0
 10 11  1  0  0  0  0
 11 12  1  0  0  0  0
 12 13  1  0  0  0  0
 13 14  1  0  0  0  0
M  END
>  <CHROM.1>
-67.26811968,175.89527063,132.64392901,96.01111264,69.39440537,177.63292175
-173.92476470,-157.93926733,-162.61609217,-177.21618061,64.15295695,45.65012539
3.56136106,18.14732997,-0.91811629,-1.44166998,-2.06528712

>  <Name>
ligand

>  <RI>
0

>  <Rbt.Current_Directory>
/home/itssahil/PROJECTS/Mol_Feturizer/New_Systems/rnas/1TN2

>  <Rbt.Executable>
rbdock ($Id: //depot/dev/client3/rdock/2013.1/src/exe/rbdock.cxx#4 $)

>  <Rbt.Library>
libRbt.so (2013.1, Build901 2013/11/27)

>  <Rbt.Parameter_File>
/export/apps/rDock/src/rDock_2013.1_src/data/scripts/dock_solv.prm

>  <Rbt.Receptor>
prm/pocket_docking_7.prm

>  <SCORE>
-10.2927

>  <SCORE.INTER>
-8.32267

>  <SCORE.INTER.CONST>
1

>  <SCORE.INTER.POLAR>
0

>  <SCORE.INTER.ROT>
11

>  <SCORE.INTER.SOLV>
12.2846

>  <SCORE.INTER.VDW>
-20.5766

>  <SCORE.INTER.norm>
-0.594477

>  <SCORE.INTRA>
-1.97007

>  <SCORE.INTRA.DIHEDRAL>
-4.50189

>  <SCORE.INTRA.DIHEDRAL.0>
7.79482

>  <SCORE.INTRA.POLAR>
0

>  <SCORE.INTRA.POLAR.0>
0

>  <SCORE.INTRA.REPUL>
0

>  <SCORE.INTRA.REPUL.0>
0

>  <SCORE.INTRA.SOLV>
1.74616

>  <SCORE.INTRA.SOLV.lig_0>
-49.456

>  <SCORE.INTRA.VDW>
-0.5922

>  <SCORE.INTRA.VDW.0>
-0.478406

>  <SCORE.INTRA.norm>
-0.140719

>  <SCORE.RESTR>
0

>  <SCORE.RESTR.CAVITY>
0

>  <SCORE.RESTR.norm>
0

>  <SCORE.SYSTEM>
0

>  <SCORE.SYSTEM.CONST>
0

>  <SCORE.SYSTEM.DIHEDRAL>
0

>  <SCORE.SYSTEM.SOLV>
0

>  <SCORE.SYSTEM.norm>
0

>  <SCORE.heavy>
14

>  <SCORE.norm>
-0.735196

>  <RMSD>
3.604

$$$$
ligand
 OpenBabel11021811413D
libRbt.so/2013.1/901 2013/11/27
 14 13  0  0  0  0  0  0  0  0999 V2000
   48.6589    8.2443   16.8065 N   0  0  0  0  0  0  0  0  0  0  0  0
   47.5500    7.7865   17.6714 C   0  0  0  0  0  0  0  0  0  0  0  0
   47.2795    8.7924   18.8111 C   0  0  0  0  0  0  0  0  0  0  0  0
   46.1370    8.3929   19.7594 C   0  0  0  0  0  0  0  0  0  0  0  0
   46.4344    7.1030   20.4406 N   0  0  0  0  0  0  0  0  0  0  0  0
   45.6687    5.9991   19.8067 C   0  0  0  0  0  0  0  0  0  0  0  0
   45.2290    4.8424   20.7662 C   0  0  0  0  0  0  0  0  0  0  0  0
   44.3484    3.7542   20.0874 C   0  0  0  0  0  0  0  0  0  0  0  0
   45.1294    2.7757   19.2322 C   0  0  0  0  0  0  0  0  0  0  0  0
   45.6025    3.4936   18.0638 N   0  0  0  0  0  0  0  0  0  0  0  0
   46.5675    2.6178   17.4223 C   0  0  0  0  0  0  0  0  0  0  0  0
   46.6837    2.9130   15.9315 C   0  0  0  0  0  0  0  0  0  0  0  0
   45.3873    2.4346   15.2605 C   0  0  0  0  0  0  0  0  0  0  0  0
   45.2511    0.9707   15.2955 N   0  0  0  0  0  0  0  0  0  0  0  0
  1  2  1  0  0  0  0
  2  3  1  0  0  0  0
  3  4  1  0  0  0  0
  4  5  1  0  0  0  0
  5  6  1  0  0  0  0
  6  7  1  0  0  0  0
  7  8  1  0  0  0  0
  8  9  1  0  0  0  0
  9 10  1  0  0  0  0
 10 11  1  0  0  0  0
 11 12  1  0  0  0  0
 12 13  1  0  0  0  0
 13 14  1  0  0  0  0
M  END
>  <CHROM.1>
179.93567772,61.02833465,-102.45224367,-147.66496715,176.07520460,77.59517033
-69.69168693,168.28913555,154.56061774,-70.87124409,-67.51928323,46.13752655
5.00861325,18.23988983,-1.15188328,-1.01215679,-2.37376743

>  <Name>
ligand

>  <RI>
0

>  <Rbt.Current_Directory>
/home/itssahil/PROJECTS/Mol_Feturizer/New_Systems/rnas/1TN2

>  <Rbt.Executable>
rbdock ($Id: //depot/dev/client3/rdock/2013.1/src/exe/rbdock.cxx#4 $)

>  <Rbt.Library>
libRbt.so (2013.1, Build901 2013/11/27)

>  <Rbt.Parameter_File>
/export/apps/rDock/src/rDock_2013.1_src/data/scripts/dock_solv.prm

>  <Rbt.Receptor>
prm/pocket_docking_6.prm

>  <SCORE>
-4.61503

>  <SCORE.INTER>
-3.96128

>  <SCORE.INTER.CONST>
1

>  <SCORE.INTER.POLAR>
0

>  <SCORE.INTER.ROT>
11

>  <SCORE.INTER.SOLV>
11.4783

>  <SCORE.INTER.VDW>
-17.4003

>  <SCORE.INTER.norm>
-0.282948

>  <SCORE.INTRA>
-0.653754

>  <SCORE.INTRA.DIHEDRAL>
-3.32464

>  <SCORE.INTRA.DIHEDRAL.0>
7.79482

>  <SCORE.INTRA.POLAR>
0

>  <SCORE.INTRA.POLAR.0>
0

>  <SCORE.INTRA.REPUL>
0

>  <SCORE.INTRA.REPUL.0>
0

>  <SCORE.INTRA.SOLV>
3.02467

>  <SCORE.INTRA.SOLV.lig_0>
-49.456

>  <SCORE.INTRA.VDW>
-0.503769

>  <SCORE.INTRA.VDW.0>
-0.478406

>  <SCORE.INTRA.norm>
-0.0466967

>  <SCORE.RESTR>
0

>  <SCORE.RESTR.CAVITY>
0

>  <SCORE.RESTR.norm>
0

>  <SCORE.SYSTEM>
0

>  <SCORE.SYSTEM.CONST>
0

>  <SCORE.SYSTEM.DIHEDRAL>
0

>  <SCORE.SYSTEM.SOLV>
0

>  <SCORE.SYSTEM.norm>
0

>  <SCORE.heavy>
14

>  <SCORE.norm>
-0.329645

>  <RMSD>
3.605

$$$$
ligand
 OpenBabel11021811413D
libRbt.so/2013.1/901 2013/11/27
 14 13  0  0  0  0  0  0  0  0999 V2000
   46.4607    9.6681   18.1036 N   0  0  0  0  0  0  0  0  0  0  0  0
   46.2303    9.7576   19.5617 C   0  0  0  0  0  0  0  0  0  0  0  0
   45.5650    8.4730   20.1014 C   0  0  0  0  0  0  0  0  0  0  0  0
   46.4089    7.1982   19.9381 C   0  0  0  0  0  0  0  0  0  0  0  0
   45.7276    6.0243   20.5499 N   0  0  0  0  0  0  0  0  0  0  0  0
   46.3380    4.7625   20.0578 C   0  0  0  0  0  0  0  0  0  0  0  0
   45.3453    3.7366   19.4142 C   0  0  0  0  0  0  0  0  0  0  0  0
   46.0394    2.5174   18.7418 C   0  0  0  0  0  0  0  0  0  0  0  0
   45.0741    1.4813   18.2000 C   0  0  0  0  0  0  0  0  0  0  0  0
   45.8585    0.4413   17.5617 N   0  0  0  0  0  0  0  0  0  0  0  0
   45.0140   -0.1090   16.5159 C   0  0  0  0  0  0  0  0  0  0  0  0
   45.7602   -1.1458   15.6843 C   0  0  0  0  0  0  0  0  0  0  0  0
   44.8287   -1.5853   14.5446 C   0  0  0  0  0  0  0  0  0  0  0  0
   45.4905   -2.5091   13.6111 N   0  0  0  0  0  0  0  0  0  0  0  0
  1  2  1  0  0  0  0
  2  3  1  0  0  0  0
  3  4  1  0  0  0  0
  4  5  1  0  0  0  0
  5  6  1  0  0  0  0
  6  7  1  0  0  0  0
  7  8  1  0  0  0  0
  8  9  1  0  0  0  0
  9 10  1  0  0  0  0
 10 11  1  0  0  0  0
 11 12  1  0  0  0  0
 12 13  1  0  0  0  0
 13 14  1  0  0  0  0
M  END
>  <CHROM.1>
62.55438583,176.88009452,163.75987912,-125.25557067,172.24612736,176.19638159
177.77066378,-151.22303000,175.42706394,-175.61755761,175.34202337,45.72429896
3.47939219,18.04210587,-0.58787708,-1.48149960,-1.73589322

>  <Name>
ligand

>  <RI>
0

>  <Rbt.Current_Directory>
/home/itssahil/PROJECTS/Mol_Feturizer/New_Systems/rnas/1TN2

>  <Rbt.Executable>
rbdock ($Id: //depot/dev/client3/rdock/2013.1/src/exe/rbdock.cxx#4 $)

>  <Rbt.Library>
libRbt.so (2013.1, Build901 2013/11/27)

>  <Rbt.Parameter_File>
/export/apps/rDock/src/rDock_2013.1_src/data/scripts/dock_solv.prm

>  <Rbt.Receptor>
prm/blind_docking_60.prm

>  <SCORE>
-11.1467

>  <SCORE.INTER>
-8.07089

>  <SCORE.INTER.CONST>
1

>  <SCORE.INTER.POLAR>
0

>  <SCORE.INTER.ROT>
11

>  <SCORE.INTER.SOLV>
13.1087

>  <SCORE.INTER.VDW>
-20.6835

>  <SCORE.INTER.norm>
-0.576492

>  <SCORE.INTRA>
-3.07578

>  <SCORE.INTRA.DIHEDRAL>
-5.31547

>  <SCORE.INTRA.DIHEDRAL.0>
7.79482

>  <SCORE.INTRA.POLAR>
0

>  <SCORE.INTRA.POLAR.0>
0

>  <SCORE.INTRA.REPUL>
0

>  <SCORE.INTRA.REPUL.0>
0

>  <SCORE.INTRA.SOLV>
0.639985

>  <SCORE.INTRA.SOLV.lig_0>
-49.456

>  <SCORE.INTRA.VDW>
-0.738037

>  <SCORE.INTRA.VDW.0>
-0.478406

>  <SCORE.INTRA.norm>
-0.219699

>  <SCORE.RESTR>
0

>  <SCORE.RESTR.CAVITY>
0

>  <SCORE.RESTR.norm>
0

>  <SCORE.SYSTEM>
0

>  <SCORE.SYSTEM.CONST>
0

>  <SCORE.SYSTEM.DIHEDRAL>
0

>  <SCORE.SYSTEM.SOLV>
0

>  <SCORE.SYSTEM.norm>
0

>  <SCORE.heavy>
14

>  <SCORE.norm>
-0.796191

>  <RMSD>
3.607

$$$$
ligand
 OpenBabel11021811413D
libRbt.so/2013.1/901 2013/11/27
 14 13  0  0  0  0  0  0  0  0999 V2000
   45.4564    1.3845   16.3062 N   0  0  0  0  0  0  0  0  0  0  0  0
   45.5159    0.8839   17.6966 C   0  0  0  0  0  0  0  0  0  0  0  0
   46.3264    1.8389   18.5993 C   0  0  0  0  0  0  0  0  0  0  0  0
   45.7194    3.2431   18.7532 C   0  0  0  0  0  0  0  0  0  0  0  0
   46.5531    4.0905   19.6495 N   0  0  0  0  0  0  0  0  0  0  0  0
   46.2048    5.5235   19.4714 C   0  0  0  0  0  0  0  0  0  0  0  0
   45.2736    6.1354   20.5717 C   0  0  0  0  0  0  0  0  0  0  0  0
   44.1324    5.1862   21.0376 C   0  0  0  0  0  0  0  0  0  0  0  0
   42.9840    5.8966   21.7270 C   0  0  0  0  0  0  0  0  0  0  0  0
   42.0381    6.2988   20.7033 N   0  0  0  0  0  0  0  0  0  0  0  0
   42.2429    7.7237   20.5099 C   0  0  0  0  0  0  0  0  0  0  0  0
   41.1802    8.3206   19.5947 C   0  0  0  0  0  0  0  0  0  0  0  0
   41.4584    9.8271   19.4803 C   0  0  0  0  0  0  0  0  0  0  0  0
   42.7526   10.1060   18.8401 N   0  0  0  0  0  0  0  0  0  0  0  0
  1  2  1  0  0  0  0
  2  3  1  0  0  0  0
  3  4  1  0  0  0  0
  4  5  1  0  0  0  0
  5  6  1  0  0  0  0
  6  7  1  0  0  0  0
  7  8  1  0  0  0  0
  8  9  1  0  0  0  0
  9 10  1  0  0  0  0
 10 11  1  0  0  0  0
 11 12  1  0  0  0  0
 12 13  1  0  0  0  0
 13 14  1  0  0  0  0
M  END
>  <CHROM.1>
63.27345975,179.32578744,162.99752280,101.10794872,-40.18927216,-160.67399065
88.34683652,-103.19680577,-172.14366822,178.58776000,63.61610185,44.13126609
5.46133379,19.49603018,0.65925295,0.89294791,-2.07927224

>  <Name>
ligand

>  <RI>
0

>  <Rbt.Current_Directory>
/home/itssahil/PROJECTS/Mol_Feturizer/New_Systems/rnas/1TN2

>  <Rbt.Executable>
rbdock ($Id: //depot/dev/client3/rdock/2013.1/src/exe/rbdock.cxx#4 $)

>  <Rbt.Library>
libRbt.so (2013.1, Build901 2013/11/27)

>  <Rbt.Parameter_File>
/export/apps/rDock/src/rDock_2013.1_src/data/scripts/dock_solv.prm

>  <Rbt.Receptor>
prm/blind_docking_100.prm

>  <SCORE>
-11.4938

>  <SCORE.INTER>
-12.1639

>  <SCORE.INTER.CONST>
1

>  <SCORE.INTER.POLAR>
0

>  <SCORE.INTER.ROT>
11

>  <SCORE.INTER.SOLV>
17.9798

>  <SCORE.INTER.VDW>
-25.0359

>  <SCORE.INTER.norm>
-0.868853

>  <SCORE.INTRA>
0.670124

>  <SCORE.INTRA.DIHEDRAL>
-0.196044

>  <SCORE.INTRA.DIHEDRAL.0>
7.79482

>  <SCORE.INTRA.POLAR>
0

>  <SCORE.INTRA.POLAR.0>
0

>  <SCORE.INTRA.REPUL>
0

>  <SCORE.INTRA.REPUL.0>
0

>  <SCORE.INTRA.SOLV>
2.21601

>  <SCORE.INTRA.SOLV.lig_0>
-49.456

>  <SCORE.INTRA.VDW>
-0.339859

>  <SCORE.INTRA.VDW.0>
-0.478406

>  <SCORE.INTRA.norm>
0.047866

>  <SCORE.RESTR>
0

>  <SCORE.RESTR.CAVITY>
0

>  <SCORE.RESTR.norm>
0

>  <SCORE.SYSTEM>
0

>  <SCORE.SYSTEM.CONST>
0

>  <SCORE.SYSTEM.DIHEDRAL>
0

>  <SCORE.SYSTEM.SOLV>
0

>  <SCORE.SYSTEM.norm>
0

>  <SCORE.heavy>
14

>  <SCORE.norm>
-0.820987

>  <RMSD>
3.618

$$$$
ligand
 OpenBabel11021811413D
libRbt.so/2013.1/901 2013/11/27
 14 13  0  0  0  0  0  0  0  0999 V2000
   49.2281    8.3758   16.8539 N   0  0  0  0  0  0  0  0  0  0  0  0
   48.3339    9.2419   17.6523 C   0  0  0  0  0  0  0  0  0  0  0  0
   47.0235    8.5093   18.0129 C   0  0  0  0  0  0  0  0  0  0  0  0
   47.2072    7.2728   18.9080 C   0  0  0  0  0  0  0  0  0  0  0  0
   45.8982    6.6287   19.2049 N   0  0  0  0  0  0  0  0  0  0  0  0
   46.0357    5.6887   20.3469 C   0  0  0  0  0  0  0  0  0  0  0  0
   45.3142    4.3092   20.1785 C   0  0  0  0  0  0  0  0  0  0  0  0
   45.8257    3.4677   18.9741 C   0  0  0  0  0  0  0  0  0  0  0  0
   45.1822    2.0995   18.8616 C   0  0  0  0  0  0  0  0  0  0  0  0
   45.6207    1.5091   17.6112 N   0  0  0  0  0  0  0  0  0  0  0  0
   44.5004    0.7203   17.1290 C   0  0  0  0  0  0  0  0  0  0  0  0
   44.7480    0.2057   15.7158 C   0  0  0  0  0  0  0  0  0  0  0  0
   45.7238   -0.9765   15.8159 C   0  0  0  0  0  0  0  0  0  0  0  0
   46.0723   -1.5226   14.4957 N   0  0  0  0  0  0  0  0  0  0  0  0
  1  2  1  0  0  0  0
  2  3  1  0  0  0  0
  3  4  1  0  0  0  0
  4  5  1  0  0  0  0
  5  6  1  0  0  0  0
  6  7  1  0  0  0  0
  7  8  1  0  0  0  0
  8  9  1  0  0  0  0
  9 10  1  0  0  0  0
 10 11  1  0  0  0  0
 11 12  1  0  0  0  0
 12 13  1  0  0  0  0
 13 14  1  0  0  0  0
M  END
>  <CHROM.1>
63.41984342,-179.95048914,-164.37510747,-136.66183988,61.02122026,176.63261216
172.68025458,-145.91382721,171.59665318,76.67962933,-177.92438127,46.19363708
3.96649565,17.84037895,-1.11068050,-0.97802560,-2.48820545

>  <Name>
ligand

>  <RI>
0

>  <Rbt.Current_Directory>
/home/itssahil/PROJECTS/Mol_Feturizer/New_Systems/rnas/1TN2

>  <Rbt.Executable>
rbdock ($Id: //depot/dev/client3/rdock/2013.1/src/exe/rbdock.cxx#4 $)

>  <Rbt.Library>
libRbt.so (2013.1, Build901 2013/11/27)

>  <Rbt.Parameter_File>
/export/apps/rDock/src/rDock_2013.1_src/data/scripts/dock_solv.prm

>  <Rbt.Receptor>
prm/pocket_docking_5.prm

>  <SCORE>
-8.69717

>  <SCORE.INTER>
-6.24081

>  <SCORE.INTER.CONST>
1

>  <SCORE.INTER.POLAR>
0

>  <SCORE.INTER.ROT>
11

>  <SCORE.INTER.SOLV>
10.9681

>  <SCORE.INTER.VDW>
-18.7499

>  <SCORE.INTER.norm>
-0.445772

>  <SCORE.INTRA>
-2.45636

>  <SCORE.INTRA.DIHEDRAL>
-4.53526

>  <SCORE.INTRA.DIHEDRAL.0>
7.79482

>  <SCORE.INTRA.POLAR>
0

>  <SCORE.INTRA.POLAR.0>
0

>  <SCORE.INTRA.REPUL>
0

>  <SCORE.INTRA.REPUL.0>
0

>  <SCORE.INTRA.SOLV>
1.27635

>  <SCORE.INTRA.SOLV.lig_0>
-49.456

>  <SCORE.INTRA.VDW>
-0.826902

>  <SCORE.INTRA.VDW.0>
-0.478406

>  <SCORE.INTRA.norm>
-0.175454

>  <SCORE.RESTR>
0

>  <SCORE.RESTR.CAVITY>
0

>  <SCORE.RESTR.norm>
0

>  <SCORE.SYSTEM>
0

>  <SCORE.SYSTEM.CONST>
0

>  <SCORE.SYSTEM.DIHEDRAL>
0

>  <SCORE.SYSTEM.SOLV>
0

>  <SCORE.SYSTEM.norm>
0

>  <SCORE.heavy>
14

>  <SCORE.norm>
-0.621226

>  <RMSD>
3.627

$$$$
ligand
 OpenBabel11021811413D
libRbt.so/2013.1/901 2013/11/27
 14 13  0  0  0  0  0  0  0  0999 V2000
   45.8156   10.5326   18.5976 N   0  0  0  0  0  0  0  0  0  0  0  0
   45.1216    9.4163   19.2752 C   0  0  0  0  0  0  0  0  0  0  0  0
   46.0218    8.1643   19.3527 C   0  0  0  0  0  0  0  0  0  0  0  0
   45.3401    6.9218   19.9487 C   0  0  0  0  0  0  0  0  0  0  0  0
   46.2710    5.7602   19.9706 N   0  0  0  0  0  0  0  0  0  0  0  0
   45.5056    4.4879   19.9231 C   0  0  0  0  0  0  0  0  0  0  0  0
   46.0303    3.4201   18.9049 C   0  0  0  0  0  0  0  0  0  0  0  0
   45.2816    2.0579   18.9709 C   0  0  0  0  0  0  0  0  0  0  0  0
   45.9848    0.9329   18.2369 C   0  0  0  0  0  0  0  0  0  0  0  0
   45.5707    0.9883   16.8477 N   0  0  0  0  0  0  0  0  0  0  0  0
   45.3974   -0.3916   16.4288 C   0  0  0  0  0  0  0  0  0  0  0  0
   45.1859   -0.4949   14.9228 C   0  0  0  0  0  0  0  0  0  0  0  0
   44.9672   -1.9774   14.5848 C   0  0  0  0  0  0  0  0  0  0  0  0
   44.8538   -2.2060   13.1365 N   0  0  0  0  0  0  0  0  0  0  0  0
  1  2  1  0  0  0  0
  2  3  1  0  0  0  0
  3  4  1  0  0  0  0
  4  5  1  0  0  0  0
  5  6  1  0  0  0  0
  6  7  1  0  0  0  0
  7  8  1  0  0  0  0
  8  9  1  0  0  0  0
  9 10  1  0  0  0  0
 10 11  1  0  0  0  0
 11 12  1  0  0  0  0
 12 13  1  0  0  0  0
 13 14  1  0  0  0  0
M  END
>  <CHROM.1>
-175.62369668,179.30255821,-153.54620495,133.51900588,174.96105489,-166.26248500
-86.07475822,-140.40105868,-170.55631263,-178.16270161,-175.64054331,45.52476393
3.40073051,17.79320826,1.25503946,-1.41622451,0.11619332

>  <Name>
ligand

>  <RI>
0

>  <Rbt.Current_Directory>
/home/itssahil/PROJECTS/Mol_Feturizer/New_Systems/rnas/1TN2

>  <Rbt.Executable>
rbdock ($Id: //depot/dev/client3/rdock/2013.1/src/exe/rbdock.cxx#4 $)

>  <Rbt.Library>
libRbt.so (2013.1, Build901 2013/11/27)

>  <Rbt.Parameter_File>
/export/apps/rDock/src/rDock_2013.1_src/data/scripts/dock_solv.prm

>  <Rbt.Receptor>
prm/blind_docking_100.prm

>  <SCORE>
-9.12942

>  <SCORE.INTER>
-7.36323

>  <SCORE.INTER.CONST>
1

>  <SCORE.INTER.POLAR>
0

>  <SCORE.INTER.ROT>
11

>  <SCORE.INTER.SOLV>
11.1142

>  <SCORE.INTER.VDW>
-19.5469

>  <SCORE.INTER.norm>
-0.525945

>  <SCORE.INTRA>
-1.76619

>  <SCORE.INTRA.DIHEDRAL>
-2.08021

>  <SCORE.INTRA.DIHEDRAL.0>
7.79482

>  <SCORE.INTRA.POLAR>
0

>  <SCORE.INTRA.POLAR.0>
0

>  <SCORE.INTRA.REPUL>
0

>  <SCORE.INTRA.REPUL.0>
0

>  <SCORE.INTRA.SOLV>
0.171701

>  <SCORE.INTRA.SOLV.lig_0>
-49.456

>  <SCORE.INTRA.VDW>
-0.811932

>  <SCORE.INTRA.VDW.0>
-0.478406

>  <SCORE.INTRA.norm>
-0.126156

>  <SCORE.RESTR>
0

>  <SCORE.RESTR.CAVITY>
0

>  <SCORE.RESTR.norm>
0

>  <SCORE.SYSTEM>
0

>  <SCORE.SYSTEM.CONST>
0

>  <SCORE.SYSTEM.DIHEDRAL>
0

>  <SCORE.SYSTEM.SOLV>
0

>  <SCORE.SYSTEM.norm>
0

>  <SCORE.heavy>
14

>  <SCORE.norm>
-0.652101

>  <RMSD>
3.635

$$$$
ligand
 OpenBabel11021811413D
libRbt.so/2013.1/901 2013/11/27
 14 13  0  0  0  0  0  0  0  0999 V2000
   46.2342    9.3550   18.1746 N   0  0  0  0  0  0  0  0  0  0  0  0
   46.4740    9.3302   19.6338 C   0  0  0  0  0  0  0  0  0  0  0  0
   45.6754    8.1956   20.3113 C   0  0  0  0  0  0  0  0  0  0  0  0
   46.0563    6.7800   19.8478 C   0  0  0  0  0  0  0  0  0  0  0  0
   45.3844    5.7458   20.6818 N   0  0  0  0  0  0  0  0  0  0  0  0
   45.1099    4.5315   19.8713 C   0  0  0  0  0  0  0  0  0  0  0  0
   46.3726    3.7518   19.3715 C   0  0  0  0  0  0  0  0  0  0  0  0
   46.0547    2.3651   18.7419 C   0  0  0  0  0  0  0  0  0  0  0  0
   45.3264    2.4441   17.4144 C   0  0  0  0  0  0  0  0  0  0  0  0
   45.1456    1.0883   16.9311 N   0  0  0  0  0  0  0  0  0  0  0  0
   44.6244    1.2132   15.5811 C   0  0  0  0  0  0  0  0  0  0  0  0
   44.4458   -0.1504   14.9239 C   0  0  0  0  0  0  0  0  0  0  0  0
   45.8411   -0.7695   14.7515 C   0  0  0  0  0  0  0  0  0  0  0  0
   45.8037   -2.0141   13.9690 N   0  0  0  0  0  0  0  0  0  0  0  0
  1  2  1  0  0  0  0
  2  3  1  0  0  0  0
  3  4  1  0  0  0  0
  4  5  1  0  0  0  0
  5  6  1  0  0  0  0
  6  7  1  0  0  0  0
  7  8  1  0  0  0  0
  8  9  1  0  0  0  0
  9 10  1  0  0  0  0
 10 11  1  0  0  0  0
 11 12  1  0  0  0  0
 12 13  1  0  0  0  0
 13 14  1  0  0  0  0
M  END
>  <CHROM.1>
62.44556247,171.92540678,148.56224128,65.85114884,169.99790138,68.96289881
177.90699094,-171.98482383,177.38940717,-65.56526504,-172.64149677,45.61058891
3.70481723,17.87197097,-0.66322227,-1.47816681,-1.73012691

>  <Name>
ligand

>  <RI>
0

>  <Rbt.Current_Directory>
/home/itssahil/PROJECTS/Mol_Feturizer/New_Systems/rnas/1TN2

>  <Rbt.Executable>
rbdock ($Id: //depot/dev/client3/rdock/2013.1/src/exe/rbdock.cxx#4 $)

>  <Rbt.Library>
libRbt.so (2013.1, Build901 2013/11/27)

>  <Rbt.Parameter_File>
/export/apps/rDock/src/rDock_2013.1_src/data/scripts/dock_solv.prm

>  <Rbt.Receptor>
prm/blind_docking_80.prm

>  <SCORE>
-7.07088

>  <SCORE.INTER>
-4.96432

>  <SCORE.INTER.CONST>
1

>  <SCORE.INTER.POLAR>
0

>  <SCORE.INTER.ROT>
11

>  <SCORE.INTER.SOLV>
11.1046

>  <SCORE.INTER.VDW>
-17.9444

>  <SCORE.INTER.norm>
-0.354594

>  <SCORE.INTRA>
-2.10656

>  <SCORE.INTRA.DIHEDRAL>
-5.76248

>  <SCORE.INTRA.DIHEDRAL.0>
7.79482

>  <SCORE.INTRA.POLAR>
0

>  <SCORE.INTRA.POLAR.0>
0

>  <SCORE.INTRA.REPUL>
0

>  <SCORE.INTRA.REPUL.0>
0

>  <SCORE.INTRA.SOLV>
1.12244

>  <SCORE.INTRA.SOLV.lig_0>
-49.456

>  <SCORE.INTRA.VDW>
0.213463

>  <SCORE.INTRA.VDW.0>
-0.478406

>  <SCORE.INTRA.norm>
-0.150468

>  <SCORE.RESTR>
0

>  <SCORE.RESTR.CAVITY>
0

>  <SCORE.RESTR.norm>
0

>  <SCORE.SYSTEM>
0

>  <SCORE.SYSTEM.CONST>
0

>  <SCORE.SYSTEM.DIHEDRAL>
0

>  <SCORE.SYSTEM.SOLV>
0

>  <SCORE.SYSTEM.norm>
0

>  <SCORE.heavy>
14

>  <SCORE.norm>
-0.505063

>  <RMSD>
3.639

$$$$
ligand
 OpenBabel11021811413D
libRbt.so/2013.1/901 2013/11/27
 14 13  0  0  0  0  0  0  0  0999 V2000
   46.2614    9.7024   18.0965 N   0  0  0  0  0  0  0  0  0  0  0  0
   46.2976    9.7182   19.5749 C   0  0  0  0  0  0  0  0  0  0  0  0
   45.6610    8.4400   20.1623 C   0  0  0  0  0  0  0  0  0  0  0  0
   46.3504    7.1311   19.7432 C   0  0  0  0  0  0  0  0  0  0  0  0
   45.7396    5.9612   20.4321 N   0  0  0  0  0  0  0  0  0  0  0  0
   46.3504    4.6995   19.9403 C   0  0  0  0  0  0  0  0  0  0  0  0
   45.3571    3.6702   19.3031 C   0  0  0  0  0  0  0  0  0  0  0  0
   46.0471    2.4187   18.6882 C   0  0  0  0  0  0  0  0  0  0  0  0
   45.0791    1.3961   18.1260 C   0  0  0  0  0  0  0  0  0  0  0  0
   45.8622    0.3470   17.5010 N   0  0  0  0  0  0  0  0  0  0  0  0
   45.0188   -0.2121   16.4590 C   0  0  0  0  0  0  0  0  0  0  0  0
   45.7697   -1.2468   15.6290 C   0  0  0  0  0  0  0  0  0  0  0  0
   44.8591   -1.6556   14.4613 C   0  0  0  0  0  0  0  0  0  0  0  0
   45.5275   -2.5796   13.5328 N   0  0  0  0  0  0  0  0  0  0  0  0
  1  2  1  0  0  0  0
  2  3  1  0  0  0  0
  3  4  1  0  0  0  0
  4  5  1  0  0  0  0
  5  6  1  0  0  0  0
  6  7  1  0  0  0  0
  7  8  1  0  0  0  0
  8  9  1  0  0  0  0
  9 10  1  0  0  0  0
 10 11  1  0  0  0  0
 11 12  1  0  0  0  0
 12 13  1  0  0  0  0
 13 14  1  0  0  0  0
M  END
>  <CHROM.1>
60.22617258,175.74550787,175.84816075,-121.26357108,174.91187680,177.48590228
175.66430356,-152.54873239,174.68307133,-173.45105305,175.62042094,45.72717227
3.41360614,17.97520573,-0.40086392,-1.49425829,-1.54936811

>  <Name>
ligand

>  <RI>
0

>  <Rbt.Current_Directory>
/home/itssahil/PROJECTS/Mol_Feturizer/New_Systems/rnas/1TN2

>  <Rbt.Executable>
rbdock ($Id: //depot/dev/client3/rdock/2013.1/src/exe/rbdock.cxx#4 $)

>  <Rbt.Library>
libRbt.so (2013.1, Build901 2013/11/27)

>  <Rbt.Parameter_File>
/export/apps/rDock/src/rDock_2013.1_src/data/scripts/dock_solv.prm

>  <Rbt.Receptor>
prm/pocket_docking_7.prm

>  <SCORE>
-11.128

>  <SCORE.INTER>
-7.97338

>  <SCORE.INTER.CONST>
1

>  <SCORE.INTER.POLAR>
0

>  <SCORE.INTER.ROT>
11

>  <SCORE.INTER.SOLV>
13.0339

>  <SCORE.INTER.VDW>
-20.5936

>  <SCORE.INTER.norm>
-0.569527

>  <SCORE.INTRA>
-3.15464

>  <SCORE.INTRA.DIHEDRAL>
-5.54276

>  <SCORE.INTRA.DIHEDRAL.0>
7.79482

>  <SCORE.INTRA.POLAR>
0

>  <SCORE.INTRA.POLAR.0>
0

>  <SCORE.INTRA.REPUL>
0

>  <SCORE.INTRA.REPUL.0>
0

>  <SCORE.INTRA.SOLV>
0.660832

>  <SCORE.INTRA.SOLV.lig_0>
-49.456

>  <SCORE.INTRA.VDW>
-0.713678

>  <SCORE.INTRA.VDW.0>
-0.478406

>  <SCORE.INTRA.norm>
-0.225332

>  <SCORE.RESTR>
0

>  <SCORE.RESTR.CAVITY>
0

>  <SCORE.RESTR.norm>
0

>  <SCORE.SYSTEM>
0

>  <SCORE.SYSTEM.CONST>
0

>  <SCORE.SYSTEM.DIHEDRAL>
0

>  <SCORE.SYSTEM.SOLV>
0

>  <SCORE.SYSTEM.norm>
0

>  <SCORE.heavy>
14

>  <SCORE.norm>
-0.794859

>  <RMSD>
3.639

$$$$
ligand
 OpenBabel11021811413D
libRbt.so/2013.1/901 2013/11/27
 14 13  0  0  0  0  0  0  0  0999 V2000
   45.3269    9.8732   18.7447 N   0  0  0  0  0  0  0  0  0  0  0  0
   46.6043    9.4564   19.3626 C   0  0  0  0  0  0  0  0  0  0  0  0
   46.3949    8.2745   20.3338 C   0  0  0  0  0  0  0  0  0  0  0  0
   45.9239    6.9726   19.6650 C   0  0  0  0  0  0  0  0  0  0  0  0
   45.7701    5.8824   20.6671 N   0  0  0  0  0  0  0  0  0  0  0  0
   46.3680    4.6237   20.1522 C   0  0  0  0  0  0  0  0  0  0  0  0
   45.3913    3.6800   19.3727 C   0  0  0  0  0  0  0  0  0  0  0  0
   46.0814    2.4420   18.7311 C   0  0  0  0  0  0  0  0  0  0  0  0
   45.1128    1.4207   18.1675 C   0  0  0  0  0  0  0  0  0  0  0  0
   45.8948    0.3800   17.5274 N   0  0  0  0  0  0  0  0  0  0  0  0
   45.0670   -0.1347   16.4506 C   0  0  0  0  0  0  0  0  0  0  0  0
   45.8017   -1.1968   15.6411 C   0  0  0  0  0  0  0  0  0  0  0  0
   44.8814   -1.6201   14.4862 C   0  0  0  0  0  0  0  0  0  0  0  0
   45.5442   -2.5508   13.5603 N   0  0  0  0  0  0  0  0  0  0  0  0
  1  2  1  0  0  0  0
  2  3  1  0  0  0  0
  3  4  1  0  0  0  0
  4  5  1  0  0  0  0
  5  6  1  0  0  0  0
  6  7  1  0  0  0  0
  7  8  1  0  0  0  0
  8  9  1  0  0  0  0
  9 10  1  0  0  0  0
 10 11  1  0  0  0  0
 11 12  1  0  0  0  0
 12 13  1  0  0  0  0
 13 14  1  0  0  0  0
M  END
>  <CHROM.1>
65.01641786,179.03375404,-135.14164922,-91.44471880,174.35852104,170.86823832
176.14486014,-150.20163801,177.05887095,-176.87607164,174.41486083,45.72592687
3.39307743,18.06177258,0.91582174,-1.46751475,-0.21111896

>  <Name>
ligand

>  <RI>
0

>  <Rbt.Current_Directory>
/home/itssahil/PROJECTS/Mol_Feturizer/New_Systems/rnas/1TN2

>  <Rbt.Executable>
rbdock ($Id: //depot/dev/client3/rdock/2013.1/src/exe/rbdock.cxx#4 $)

>  <Rbt.Library>
libRbt.so (2013.1, Build901 2013/11/27)

>  <Rbt.Parameter_File>
/export/apps/rDock/src/rDock_2013.1_src/data/scripts/dock_solv.prm

>  <Rbt.Receptor>
prm/pocket_docking_6.prm

>  <SCORE>
-10.6746

>  <SCORE.INTER>
-7.97561

>  <SCORE.INTER.CONST>
1

>  <SCORE.INTER.POLAR>
0

>  <SCORE.INTER.ROT>
11

>  <SCORE.INTER.SOLV>
14.4683

>  <SCORE.INTER.VDW>
-21.0732

>  <SCORE.INTER.norm>
-0.569686

>  <SCORE.INTRA>
-2.69896

>  <SCORE.INTRA.DIHEDRAL>
-4.75665

>  <SCORE.INTRA.DIHEDRAL.0>
7.79482

>  <SCORE.INTRA.POLAR>
0

>  <SCORE.INTRA.POLAR.0>
0

>  <SCORE.INTRA.REPUL>
0

>  <SCORE.INTRA.REPUL.0>
0

>  <SCORE.INTRA.SOLV>
0.62256

>  <SCORE.INTRA.SOLV.lig_0>
-49.456

>  <SCORE.INTRA.VDW>
-0.631916

>  <SCORE.INTRA.VDW.0>
-0.478406

>  <SCORE.INTRA.norm>
-0.192783

>  <SCORE.RESTR>
0

>  <SCORE.RESTR.CAVITY>
0

>  <SCORE.RESTR.norm>
0

>  <SCORE.SYSTEM>
0

>  <SCORE.SYSTEM.CONST>
0

>  <SCORE.SYSTEM.DIHEDRAL>
0

>  <SCORE.SYSTEM.SOLV>
0

>  <SCORE.SYSTEM.norm>
0

>  <SCORE.heavy>
14

>  <SCORE.norm>
-0.762469

>  <RMSD>
3.650

$$$$
ligand
 OpenBabel11021811413D
libRbt.so/2013.1/901 2013/11/27
 14 13  0  0  0  0  0  0  0  0999 V2000
   47.4427    9.5173   17.3430 N   0  0  0  0  0  0  0  0  0  0  0  0
   47.0198    8.1426   17.6874 C   0  0  0  0  0  0  0  0  0  0  0  0
   46.2631    8.1122   19.0329 C   0  0  0  0  0  0  0  0  0  0  0  0
   45.7175    6.7303   19.4291 C   0  0  0  0  0  0  0  0  0  0  0  0
   46.8168    5.7319   19.5343 N   0  0  0  0  0  0  0  0  0  0  0  0
   46.2655    4.3954   19.8760 C   0  0  0  0  0  0  0  0  0  0  0  0
   45.5178    3.6551   18.7163 C   0  0  0  0  0  0  0  0  0  0  0  0
   44.9842    2.2457   19.1025 C   0  0  0  0  0  0  0  0  0  0  0  0
   43.9963    1.6678   18.1080 C   0  0  0  0  0  0  0  0  0  0  0  0
   44.6407    1.6496   16.8085 N   0  0  0  0  0  0  0  0  0  0  0  0
   45.3018    0.3600   16.7101 C   0  0  0  0  0  0  0  0  0  0  0  0
   45.0904   -0.2719   15.3393 C   0  0  0  0  0  0  0  0  0  0  0  0
   45.8827   -1.5877   15.3070 C   0  0  0  0  0  0  0  0  0  0  0  0
   45.4528   -2.5210   16.3591 N   0  0  0  0  0  0  0  0  0  0  0  0
  1  2  1  0  0  0  0
  2  3  1  0  0  0  0
  3  4  1  0  0  0  0
  4  5  1  0  0  0  0
  5  6  1  0  0  0  0
  6  7  1  0  0  0  0
  7  8  1  0  0  0  0
  8  9  1  0  0  0  0
  9 10  1  0  0  0  0
 10 11  1  0  0  0  0
 11 12  1  0  0  0  0
 12 13  1  0  0  0  0
 13 14  1  0  0  0  0
M  END
>  <CHROM.1>
176.72175183,59.05113560,-178.24124726,73.72645122,178.63507798,166.53064459
56.05685825,90.19998085,136.48025266,177.08224854,59.03572144,45.74216008
3.41615628,17.81107719,-1.10754073,-1.19850387,-2.44168541

>  <Name>
ligand

>  <RI>
0

>  <Rbt.Current_Directory>
/home/itssahil/PROJECTS/Mol_Feturizer/New_Systems/rnas/1TN2

>  <Rbt.Executable>
rbdock ($Id: //depot/dev/client3/rdock/2013.1/src/exe/rbdock.cxx#4 $)

>  <Rbt.Library>
libRbt.so (2013.1, Build901 2013/11/27)

>  <Rbt.Parameter_File>
/export/apps/rDock/src/rDock_2013.1_src/data/scripts/dock_solv.prm

>  <Rbt.Receptor>
prm/pocket_docking_2.prm

>  <SCORE>
-2.72907

>  <SCORE.INTER>
-1.80391

>  <SCORE.INTER.CONST>
1

>  <SCORE.INTER.POLAR>
0

>  <SCORE.INTER.ROT>
11

>  <SCORE.INTER.SOLV>
19.7228

>  <SCORE.INTER.VDW>
-18.7102

>  <SCORE.INTER.norm>
-0.128851

>  <SCORE.INTRA>
-1.05602

>  <SCORE.INTRA.DIHEDRAL>
-5.17218

>  <SCORE.INTRA.DIHEDRAL.0>
7.79482

>  <SCORE.INTRA.POLAR>
0

>  <SCORE.INTRA.POLAR.0>
0

>  <SCORE.INTRA.REPUL>
0

>  <SCORE.INTRA.REPUL.0>
0

>  <SCORE.INTRA.SOLV>
1.61798

>  <SCORE.INTRA.SOLV.lig_0>
-49.456

>  <SCORE.INTRA.VDW>
0.721086

>  <SCORE.INTRA.VDW.0>
-0.478406

>  <SCORE.INTRA.norm>
-0.0754298

>  <SCORE.RESTR>
0.130864

>  <SCORE.RESTR.CAVITY>
0.130864

>  <SCORE.RESTR.norm>
0.00934741

>  <SCORE.SYSTEM>
0

>  <SCORE.SYSTEM.CONST>
0

>  <SCORE.SYSTEM.DIHEDRAL>
0

>  <SCORE.SYSTEM.SOLV>
0

>  <SCORE.SYSTEM.norm>
0

>  <SCORE.heavy>
14

>  <SCORE.norm>
-0.194933

>  <RMSD>
3.657

$$$$
ligand
 OpenBabel11021811413D
libRbt.so/2013.1/901 2013/11/27
 14 13  0  0  0  0  0  0  0  0999 V2000
   45.6945   -1.5568   13.9121 N   0  0  0  0  0  0  0  0  0  0  0  0
   45.8289   -0.4548   14.8891 C   0  0  0  0  0  0  0  0  0  0  0  0
   45.4826   -0.9296   16.3169 C   0  0  0  0  0  0  0  0  0  0  0  0
   45.6312    0.1482   17.4034 C   0  0  0  0  0  0  0  0  0  0  0  0
   44.6501    1.2495   17.2012 N   0  0  0  0  0  0  0  0  0  0  0  0
   45.3540    2.5000   16.8169 C   0  0  0  0  0  0  0  0  0  0  0  0
   46.1332    3.2194   17.9691 C   0  0  0  0  0  0  0  0  0  0  0  0
   45.2529    3.5869   19.1981 C   0  0  0  0  0  0  0  0  0  0  0  0
   45.9262    4.5275   20.1783 C   0  0  0  0  0  0  0  0  0  0  0  0
   46.0766    5.8123   19.5217 N   0  0  0  0  0  0  0  0  0  0  0  0
   45.9870    6.8098   20.5737 C   0  0  0  0  0  0  0  0  0  0  0  0
   45.6316    8.1817   20.0126 C   0  0  0  0  0  0  0  0  0  0  0  0
   46.8356    8.6762   19.1966 C   0  0  0  0  0  0  0  0  0  0  0  0
   47.0028    7.9260   17.9428 N   0  0  0  0  0  0  0  0  0  0  0  0
  1  2  1  0  0  0  0
  2  3  1  0  0  0  0
  3  4  1  0  0  0  0
  4  5  1  0  0  0  0
  5  6  1  0  0  0  0
  6  7  1  0  0  0  0
  7  8  1  0  0  0  0
  8  9  1  0  0  0  0
  9 10  1  0  0  0  0
 10 11  1  0  0  0  0
 11 12  1  0  0  0  0
 12 13  1  0  0  0  0
 13 14  1  0  0  0  0
M  END
>  <CHROM.1>
178.52643898,65.29991453,-112.06380844,-73.71885839,-56.85967838,-167.95490618
67.73829513,148.78823795,-159.68072575,-68.66846048,71.08435566,45.82049907
3.54980027,17.93836485,-1.83107770,1.24293425,0.71126190

>  <Name>
ligand

>  <RI>
0

>  <Rbt.Current_Directory>
/home/itssahil/PROJECTS/Mol_Feturizer/New_Systems/rnas/1TN2

>  <Rbt.Executable>
rbdock ($Id: //depot/dev/client3/rdock/2013.1/src/exe/rbdock.cxx#4 $)

>  <Rbt.Library>
libRbt.so (2013.1, Build901 2013/11/27)

>  <Rbt.Parameter_File>
/export/apps/rDock/src/rDock_2013.1_src/data/scripts/dock_solv.prm

>  <Rbt.Receptor>
prm/pocket_docking_4.prm

>  <SCORE>
-6.72317

>  <SCORE.INTER>
-6.39566

>  <SCORE.INTER.CONST>
1

>  <SCORE.INTER.POLAR>
0

>  <SCORE.INTER.ROT>
11

>  <SCORE.INTER.SOLV>
11.5961

>  <SCORE.INTER.VDW>
-19.0625

>  <SCORE.INTER.norm>
-0.456833

>  <SCORE.INTRA>
-0.327505

>  <SCORE.INTRA.DIHEDRAL>
-3.85632

>  <SCORE.INTRA.DIHEDRAL.0>
7.79482

>  <SCORE.INTRA.POLAR>
0

>  <SCORE.INTRA.POLAR.0>
0

>  <SCORE.INTRA.REPUL>
0

>  <SCORE.INTRA.REPUL.0>
0

>  <SCORE.INTRA.SOLV>
3.90784

>  <SCORE.INTRA.SOLV.lig_0>
-49.456

>  <SCORE.INTRA.VDW>
-0.353261

>  <SCORE.INTRA.VDW.0>
-0.478406

>  <SCORE.INTRA.norm>
-0.0233932

>  <SCORE.RESTR>
0

>  <SCORE.RESTR.CAVITY>
0

>  <SCORE.RESTR.norm>
0

>  <SCORE.SYSTEM>
0

>  <SCORE.SYSTEM.CONST>
0

>  <SCORE.SYSTEM.DIHEDRAL>
0

>  <SCORE.SYSTEM.SOLV>
0

>  <SCORE.SYSTEM.norm>
0

>  <SCORE.heavy>
14

>  <SCORE.norm>
-0.480226

>  <RMSD>
3.657

$$$$
ligand
 OpenBabel11021811413D
libRbt.so/2013.1/901 2013/11/27
 14 13  0  0  0  0  0  0  0  0999 V2000
   45.8208    2.0787   17.1715 N   0  0  0  0  0  0  0  0  0  0  0  0
   46.3536    2.5397   18.4717 C   0  0  0  0  0  0  0  0  0  0  0  0
   45.8221    3.9455   18.8258 C   0  0  0  0  0  0  0  0  0  0  0  0
   46.2989    4.4865   20.1837 C   0  0  0  0  0  0  0  0  0  0  0  0
   45.6100    5.7621   20.5225 N   0  0  0  0  0  0  0  0  0  0  0  0
   44.2616    5.4847   21.0807 C   0  0  0  0  0  0  0  0  0  0  0  0
   43.3087    6.7221   21.1947 C   0  0  0  0  0  0  0  0  0  0  0  0
   43.1138    7.4986   19.8607 C   0  0  0  0  0  0  0  0  0  0  0  0
   42.1314    8.6496   19.9564 C   0  0  0  0  0  0  0  0  0  0  0  0
   42.1723    9.3679   18.6968 N   0  0  0  0  0  0  0  0  0  0  0  0
   41.3112   10.5247   18.8702 C   0  0  0  0  0  0  0  0  0  0  0  0
   42.0510   11.8216   18.5636 C   0  0  0  0  0  0  0  0  0  0  0  0
   42.2932   11.8713   17.0474 C   0  0  0  0  0  0  0  0  0  0  0  0
   43.1088   13.0296   16.6528 N   0  0  0  0  0  0  0  0  0  0  0  0
  1  2  1  0  0  0  0
  2  3  1  0  0  0  0
  3  4  1  0  0  0  0
  4  5  1  0  0  0  0
  5  6  1  0  0  0  0
  6  7  1  0  0  0  0
  7  8  1  0  0  0  0
  8  9  1  0  0  0  0
  9 10  1  0  0  0  0
 10 11  1  0  0  0  0
 11 12  1  0  0  0  0
 12 13  1  0  0  0  0
 13 14  1  0  0  0  0
M  END
>  <CHROM.1>
178.45805679,-172.88416727,80.84459800,-167.39556450,54.49777279,176.79523626
173.40256298,-175.10580845,124.69255429,70.49247110,-174.92713790,43.83253855
7.41298776,19.07880863,-0.65958113,1.02018433,-0.96957614

>  <Name>
ligand

>  <RI>
0

>  <Rbt.Current_Directory>
/home/itssahil/PROJECTS/Mol_Feturizer/New_Systems/rnas/1TN2

>  <Rbt.Executable>
rbdock ($Id: //depot/dev/client3/rdock/2013.1/src/exe/rbdock.cxx#4 $)

>  <Rbt.Library>
libRbt.so (2013.1, Build901 2013/11/27)

>  <Rbt.Parameter_File>
/export/apps/rDock/src/rDock_2013.1_src/data/scripts/dock_solv.prm

>  <Rbt.Receptor>
prm/pocket_docking_6.prm

>  <SCORE>
-13.9762

>  <SCORE.INTER>
-11.4655

>  <SCORE.INTER.CONST>
1

>  <SCORE.INTER.POLAR>
0

>  <SCORE.INTER.ROT>
11

>  <SCORE.INTER.SOLV>
15.7261

>  <SCORE.INTER.VDW>
-23.819

>  <SCORE.INTER.norm>
-0.818963

>  <SCORE.INTRA>
-2.51073

>  <SCORE.INTRA.DIHEDRAL>
-5.12293

>  <SCORE.INTRA.DIHEDRAL.0>
7.79482

>  <SCORE.INTRA.POLAR>
0

>  <SCORE.INTRA.POLAR.0>
0

>  <SCORE.INTRA.REPUL>
0

>  <SCORE.INTRA.REPUL.0>
0

>  <SCORE.INTRA.SOLV>
0.728912

>  <SCORE.INTRA.SOLV.lig_0>
-49.456

>  <SCORE.INTRA.VDW>
-0.313726

>  <SCORE.INTRA.VDW.0>
-0.478406

>  <SCORE.INTRA.norm>
-0.179338

>  <SCORE.RESTR>
0

>  <SCORE.RESTR.CAVITY>
0

>  <SCORE.RESTR.norm>
0

>  <SCORE.SYSTEM>
0

>  <SCORE.SYSTEM.CONST>
0

>  <SCORE.SYSTEM.DIHEDRAL>
0

>  <SCORE.SYSTEM.SOLV>
0

>  <SCORE.SYSTEM.norm>
0

>  <SCORE.heavy>
14

>  <SCORE.norm>
-0.998301

>  <RMSD>
3.663

$$$$
ligand
 OpenBabel11021811413D
libRbt.so/2013.1/901 2013/11/27
 14 13  0  0  0  0  0  0  0  0999 V2000
   46.4247   -0.4425   13.4499 N   0  0  0  0  0  0  0  0  0  0  0  0
   46.8133   -1.2355   14.6361 C   0  0  0  0  0  0  0  0  0  0  0  0
   45.5982   -1.5045   15.5500 C   0  0  0  0  0  0  0  0  0  0  0  0
   44.9849   -0.2462   16.1860 C   0  0  0  0  0  0  0  0  0  0  0  0
   45.8692    0.2987   17.2525 N   0  0  0  0  0  0  0  0  0  0  0  0
   45.1787    1.3927   17.9826 C   0  0  0  0  0  0  0  0  0  0  0  0
   46.1135    2.4693   18.6303 C   0  0  0  0  0  0  0  0  0  0  0  0
   45.3531    3.6339   19.3275 C   0  0  0  0  0  0  0  0  0  0  0  0
   46.2607    4.6553   19.9847 C   0  0  0  0  0  0  0  0  0  0  0  0
   45.4163    5.6413   20.6320 N   0  0  0  0  0  0  0  0  0  0  0  0
   45.3864    6.7870   19.7398 C   0  0  0  0  0  0  0  0  0  0  0  0
   44.4338    7.8637   20.2464 C   0  0  0  0  0  0  0  0  0  0  0  0
   44.3598    8.9609   19.1737 C   0  0  0  0  0  0  0  0  0  0  0  0
   45.6417    9.6620   19.0068 N   0  0  0  0  0  0  0  0  0  0  0  0
  1  2  1  0  0  0  0
  2  3  1  0  0  0  0
  3  4  1  0  0  0  0
  4  5  1  0  0  0  0
  5  6  1  0  0  0  0
  6  7  1  0  0  0  0
  7  8  1  0  0  0  0
  8  9  1  0  0  0  0
  9 10  1  0  0  0  0
 10 11  1  0  0  0  0
 11 12  1  0  0  0  0
 12 13  1  0  0  0  0
 13 14  1  0  0  0  0
M  END
>  <CHROM.1>
-64.70282938,-72.39918483,-172.02964676,-152.87417313,177.24101509,178.48814471
-177.78174422,-100.67774381,175.26416901,-174.27200291,-65.92246656,45.55947713
3.42385511,17.98575047,-0.41844726,1.47060669,-0.67685906

>  <Name>
ligand

>  <RI>
0

>  <Rbt.Current_Directory>
/home/itssahil/PROJECTS/Mol_Feturizer/New_Systems/rnas/1TN2

>  <Rbt.Executable>
rbdock ($Id: //depot/dev/client3/rdock/2013.1/src/exe/rbdock.cxx#4 $)

>  <Rbt.Library>
libRbt.so (2013.1, Build901 2013/11/27)

>  <Rbt.Parameter_File>
/export/apps/rDock/src/rDock_2013.1_src/data/scripts/dock_solv.prm

>  <Rbt.Receptor>
prm/pocket_docking_6.prm

>  <SCORE>
-9.09437

>  <SCORE.INTER>
-7.1354

>  <SCORE.INTER.CONST>
1

>  <SCORE.INTER.POLAR>
0

>  <SCORE.INTER.ROT>
11

>  <SCORE.INTER.SOLV>
11.9902

>  <SCORE.INTER.VDW>
-19.687

>  <SCORE.INTER.norm>
-0.509672

>  <SCORE.INTRA>
-1.95897

>  <SCORE.INTRA.DIHEDRAL>
-5.34015

>  <SCORE.INTRA.DIHEDRAL.0>
7.79482

>  <SCORE.INTRA.POLAR>
0

>  <SCORE.INTRA.POLAR.0>
0

>  <SCORE.INTRA.REPUL>
0

>  <SCORE.INTRA.REPUL.0>
0

>  <SCORE.INTRA.SOLV>
2.17823

>  <SCORE.INTRA.SOLV.lig_0>
-49.456

>  <SCORE.INTRA.VDW>
-0.37801

>  <SCORE.INTRA.VDW.0>
-0.478406

>  <SCORE.INTRA.norm>
-0.139926

>  <SCORE.RESTR>
0

>  <SCORE.RESTR.CAVITY>
0

>  <SCORE.RESTR.norm>
0

>  <SCORE.SYSTEM>
0

>  <SCORE.SYSTEM.CONST>
0

>  <SCORE.SYSTEM.DIHEDRAL>
0

>  <SCORE.SYSTEM.SOLV>
0

>  <SCORE.SYSTEM.norm>
0

>  <SCORE.heavy>
14

>  <SCORE.norm>
-0.649598

>  <RMSD>
3.673

$$$$
ligand
 OpenBabel11021811413D
libRbt.so/2013.1/901 2013/11/27
 14 13  0  0  0  0  0  0  0  0999 V2000
   46.3600    9.2772   18.2017 N   0  0  0  0  0  0  0  0  0  0  0  0
   45.0767    8.8283   18.7837 C   0  0  0  0  0  0  0  0  0  0  0  0
   45.2787    8.2501   20.2010 C   0  0  0  0  0  0  0  0  0  0  0  0
   46.0915    6.9458   20.2501 C   0  0  0  0  0  0  0  0  0  0  0  0
   45.3151    5.8106   19.6800 N   0  0  0  0  0  0  0  0  0  0  0  0
   46.1894    4.6205   19.5187 C   0  0  0  0  0  0  0  0  0  0  0  0
   45.5256    3.3819   18.8277 C   0  0  0  0  0  0  0  0  0  0  0  0
   46.5105    2.2131   18.5373 C   0  0  0  0  0  0  0  0  0  0  0  0
   45.8379    0.9539   18.0267 C   0  0  0  0  0  0  0  0  0  0  0  0
   45.3586    1.2250   16.6847 N   0  0  0  0  0  0  0  0  0  0  0  0
   45.2082   -0.0710   16.0463 C   0  0  0  0  0  0  0  0  0  0  0  0
   44.6162    0.0614   14.6480 C   0  0  0  0  0  0  0  0  0  0  0  0
   44.5197   -1.3498   14.0486 C   0  0  0  0  0  0  0  0  0  0  0  0
   45.8438   -1.9367   13.7937 N   0  0  0  0  0  0  0  0  0  0  0  0
  1  2  1  0  0  0  0
  2  3  1  0  0  0  0
  3  4  1  0  0  0  0
  4  5  1  0  0  0  0
  5  6  1  0  0  0  0
  6  7  1  0  0  0  0
  7  8  1  0  0  0  0
  8  9  1  0  0  0  0
  9 10  1  0  0  0  0
 10 11  1  0  0  0  0
 11 12  1  0  0  0  0
 12 13  1  0  0  0  0
 13 14  1  0  0  0  0
M  END
>  <CHROM.1>
-66.42488146,-70.48342218,170.23875957,-175.63421931,173.72446907,172.87694281
69.85951567,158.36492674,176.15348947,179.01037412,-67.36549465,45.55221395
3.44353962,17.66081939,1.34595322,-1.34110323,0.26084382

>  <Name>
ligand

>  <RI>
0

>  <Rbt.Current_Directory>
/home/itssahil/PROJECTS/Mol_Feturizer/New_Systems/rnas/1TN2

>  <Rbt.Executable>
rbdock ($Id: //depot/dev/client3/rdock/2013.1/src/exe/rbdock.cxx#4 $)

>  <Rbt.Library>
libRbt.so (2013.1, Build901 2013/11/27)

>  <Rbt.Parameter_File>
/export/apps/rDock/src/rDock_2013.1_src/data/scripts/dock_solv.prm

>  <Rbt.Receptor>
prm/pocket_docking_6.prm

>  <SCORE>
-9.26052

>  <SCORE.INTER>
-6.93373

>  <SCORE.INTER.CONST>
1

>  <SCORE.INTER.POLAR>
0

>  <SCORE.INTER.ROT>
11

>  <SCORE.INTER.SOLV>
10.1593

>  <SCORE.INTER.VDW>
-18.9423

>  <SCORE.INTER.norm>
-0.495267

>  <SCORE.INTRA>
-2.32679

>  <SCORE.INTRA.DIHEDRAL>
-5.86057

>  <SCORE.INTRA.DIHEDRAL.0>
7.79482

>  <SCORE.INTRA.POLAR>
0

>  <SCORE.INTRA.POLAR.0>
0

>  <SCORE.INTRA.REPUL>
0

>  <SCORE.INTRA.REPUL.0>
0

>  <SCORE.INTRA.SOLV>
2.54166

>  <SCORE.INTRA.SOLV.lig_0>
-49.456

>  <SCORE.INTRA.VDW>
-0.667331

>  <SCORE.INTRA.VDW.0>
-0.478406

>  <SCORE.INTRA.norm>
-0.166199

>  <SCORE.RESTR>
0

>  <SCORE.RESTR.CAVITY>
0

>  <SCORE.RESTR.norm>
0

>  <SCORE.SYSTEM>
0

>  <SCORE.SYSTEM.CONST>
0

>  <SCORE.SYSTEM.DIHEDRAL>
0

>  <SCORE.SYSTEM.SOLV>
0

>  <SCORE.SYSTEM.norm>
0

>  <SCORE.heavy>
14

>  <SCORE.norm>
-0.661466

>  <RMSD>
3.676

$$$$
ligand
 OpenBabel11021811413D
libRbt.so/2013.1/901 2013/11/27
 14 13  0  0  0  0  0  0  0  0999 V2000
   42.9812   11.4662   17.4703 N   0  0  0  0  0  0  0  0  0  0  0  0
   42.8437   10.4971   18.5789 C   0  0  0  0  0  0  0  0  0  0  0  0
   41.3650   10.1147   18.8055 C   0  0  0  0  0  0  0  0  0  0  0  0
   41.1221    9.1791   20.0012 C   0  0  0  0  0  0  0  0  0  0  0  0
   41.8651    7.8994   19.8379 N   0  0  0  0  0  0  0  0  0  0  0  0
   41.9435    7.1820   21.1364 C   0  0  0  0  0  0  0  0  0  0  0  0
   42.9790    6.0090   21.2000 C   0  0  0  0  0  0  0  0  0  0  0  0
   44.4292    6.4205   20.8152 C   0  0  0  0  0  0  0  0  0  0  0  0
   45.4530    5.3188   21.0075 C   0  0  0  0  0  0  0  0  0  0  0  0
   44.9845    4.1523   20.2837 N   0  0  0  0  0  0  0  0  0  0  0  0
   46.0353    3.8230   19.3366 C   0  0  0  0  0  0  0  0  0  0  0  0
   45.5671    2.7857   18.3226 C   0  0  0  0  0  0  0  0  0  0  0  0
   46.6949    2.5965   17.2968 C   0  0  0  0  0  0  0  0  0  0  0  0
   46.2867    1.7386   16.1742 N   0  0  0  0  0  0  0  0  0  0  0  0
  1  2  1  0  0  0  0
  2  3  1  0  0  0  0
  3  4  1  0  0  0  0
  4  5  1  0  0  0  0
  5  6  1  0  0  0  0
  6  7  1  0  0  0  0
  7  8  1  0  0  0  0
  8  9  1  0  0  0  0
  9 10  1  0  0  0  0
 10 11  1  0  0  0  0
 11 12  1  0  0  0  0
 12 13  1  0  0  0  0
 13 14  1  0  0  0  0
M  END
>  <CHROM.1>
-176.23636407,-59.51388330,163.82656415,-165.72429861,55.09761109,174.34068155
53.88609243,122.13818727,-168.85184750,175.06922061,-172.89497965,43.89638578
6.37022432,19.30512077,-2.73983549,-0.99876802,2.18038012

>  <Name>
ligand

>  <RI>
0

>  <Rbt.Current_Directory>
/home/itssahil/PROJECTS/Mol_Feturizer/New_Systems/rnas/1TN2

>  <Rbt.Executable>
rbdock ($Id: //depot/dev/client3/rdock/2013.1/src/exe/rbdock.cxx#4 $)

>  <Rbt.Library>
libRbt.so (2013.1, Build901 2013/11/27)

>  <Rbt.Parameter_File>
/export/apps/rDock/src/rDock_2013.1_src/data/scripts/dock_solv.prm

>  <Rbt.Receptor>
prm/pocket_docking_6.prm

>  <SCORE>
-14.128

>  <SCORE.INTER>
-11.3875

>  <SCORE.INTER.CONST>
1

>  <SCORE.INTER.POLAR>
0

>  <SCORE.INTER.ROT>
11

>  <SCORE.INTER.SOLV>
14.992

>  <SCORE.INTER.VDW>
-23.5223

>  <SCORE.INTER.norm>
-0.813394

>  <SCORE.INTRA>
-2.74048

>  <SCORE.INTRA.DIHEDRAL>
-5.43809

>  <SCORE.INTRA.DIHEDRAL.0>
7.79482

>  <SCORE.INTRA.POLAR>
0

>  <SCORE.INTRA.POLAR.0>
0

>  <SCORE.INTRA.REPUL>
0

>  <SCORE.INTRA.REPUL.0>
0

>  <SCORE.INTRA.SOLV>
1.09231

>  <SCORE.INTRA.SOLV.lig_0>
-49.456

>  <SCORE.INTRA.VDW>
-0.567587

>  <SCORE.INTRA.VDW.0>
-0.478406

>  <SCORE.INTRA.norm>
-0.195749

>  <SCORE.RESTR>
0

>  <SCORE.RESTR.CAVITY>
0

>  <SCORE.RESTR.norm>
0

>  <SCORE.SYSTEM>
0

>  <SCORE.SYSTEM.CONST>
0

>  <SCORE.SYSTEM.DIHEDRAL>
0

>  <SCORE.SYSTEM.SOLV>
0

>  <SCORE.SYSTEM.norm>
0

>  <SCORE.heavy>
14

>  <SCORE.norm>
-1.00914

>  <RMSD>
3.676

$$$$
ligand
 OpenBabel11021811413D
libRbt.so/2013.1/901 2013/11/27
 14 13  0  0  0  0  0  0  0  0999 V2000
   42.1630   11.5709   18.1191 N   0  0  0  0  0  0  0  0  0  0  0  0
   41.3849   10.5912   18.9076 C   0  0  0  0  0  0  0  0  0  0  0  0
   42.1701    9.2748   19.0934 C   0  0  0  0  0  0  0  0  0  0  0  0
   41.3877    8.1578   19.8033 C   0  0  0  0  0  0  0  0  0  0  0  0
   42.2009    6.9146   19.9008 N   0  0  0  0  0  0  0  0  0  0  0  0
   43.2642    7.0757   20.9256 C   0  0  0  0  0  0  0  0  0  0  0  0
   43.3965    5.9020   21.9538 C   0  0  0  0  0  0  0  0  0  0  0  0
   44.1290    4.6481   21.3955 C   0  0  0  0  0  0  0  0  0  0  0  0
   45.5687    4.9040   20.9945 C   0  0  0  0  0  0  0  0  0  0  0  0
   45.6076    5.0239   19.5493 N   0  0  0  0  0  0  0  0  0  0  0  0
   46.0079    3.7191   19.0524 C   0  0  0  0  0  0  0  0  0  0  0  0
   46.0645    3.6957   17.5294 C   0  0  0  0  0  0  0  0  0  0  0  0
   46.4784    2.2796   17.1013 C   0  0  0  0  0  0  0  0  0  0  0  0
   46.6230    2.1601   15.6427 N   0  0  0  0  0  0  0  0  0  0  0  0
  1  2  1  0  0  0  0
  2  3  1  0  0  0  0
  3  4  1  0  0  0  0
  4  5  1  0  0  0  0
  5  6  1  0  0  0  0
  6  7  1  0  0  0  0
  7  8  1  0  0  0  0
  8  9  1  0  0  0  0
  9 10  1  0  0  0  0
 10 11  1  0  0  0  0
 11 12  1  0  0  0  0
 12 13  1  0  0  0  0
 13 14  1  0  0  0  0
M  END
>  <CHROM.1>
-175.19155957,178.15601683,73.51140369,131.94880053,77.77558631,62.46792049
-101.96333324,-97.37112739,178.94132179,-179.36433500,-177.45728887,44.03183641
6.13685038,19.28387149,-3.03791024,-0.99716453,1.91889591

>  <Name>
ligand

>  <RI>
0

>  <Rbt.Current_Directory>
/home/itssahil/PROJECTS/Mol_Feturizer/New_Systems/rnas/1TN2

>  <Rbt.Executable>
rbdock ($Id: //depot/dev/client3/rdock/2013.1/src/exe/rbdock.cxx#4 $)

>  <Rbt.Library>
libRbt.so (2013.1, Build901 2013/11/27)

>  <Rbt.Parameter_File>
/export/apps/rDock/src/rDock_2013.1_src/data/scripts/dock_solv.prm

>  <Rbt.Receptor>
prm/pocket_docking_7.prm

>  <SCORE>
-10.1809

>  <SCORE.INTER>
-11.1437

>  <SCORE.INTER.CONST>
1

>  <SCORE.INTER.POLAR>
0

>  <SCORE.INTER.ROT>
11

>  <SCORE.INTER.SOLV>
16.9562

>  <SCORE.INTER.VDW>
-24.0145

>  <SCORE.INTER.norm>
-0.79598

>  <SCORE.INTRA>
0.962814

>  <SCORE.INTRA.DIHEDRAL>
-0.0967694

>  <SCORE.INTRA.DIHEDRAL.0>
7.79482

>  <SCORE.INTRA.POLAR>
0

>  <SCORE.INTRA.POLAR.0>
0

>  <SCORE.INTRA.REPUL>
0

>  <SCORE.INTRA.REPUL.0>
0

>  <SCORE.INTRA.SOLV>
1.31983

>  <SCORE.INTRA.SOLV.lig_0>
-49.456

>  <SCORE.INTRA.VDW>
0.351284

>  <SCORE.INTRA.VDW.0>
-0.478406

>  <SCORE.INTRA.norm>
0.0687724

>  <SCORE.RESTR>
0

>  <SCORE.RESTR.CAVITY>
0

>  <SCORE.RESTR.norm>
0

>  <SCORE.SYSTEM>
0

>  <SCORE.SYSTEM.CONST>
0

>  <SCORE.SYSTEM.DIHEDRAL>
0

>  <SCORE.SYSTEM.SOLV>
0

>  <SCORE.SYSTEM.norm>
0

>  <SCORE.heavy>
14

>  <SCORE.norm>
-0.727207

>  <RMSD>
3.677

$$$$
ligand
 OpenBabel11021811413D
libRbt.so/2013.1/901 2013/11/27
 14 13  0  0  0  0  0  0  0  0999 V2000
   45.4492    9.9119   18.8933 N   0  0  0  0  0  0  0  0  0  0  0  0
   46.5025    9.3307   19.7535 C   0  0  0  0  0  0  0  0  0  0  0  0
   46.7937    7.8648   19.3660 C   0  0  0  0  0  0  0  0  0  0  0  0
   45.6583    6.8798   19.6896 C   0  0  0  0  0  0  0  0  0  0  0  0
   45.9816    5.5118   19.1991 N   0  0  0  0  0  0  0  0  0  0  0  0
   45.1772    4.5004   19.9315 C   0  0  0  0  0  0  0  0  0  0  0  0
   44.9589    3.1405   19.1864 C   0  0  0  0  0  0  0  0  0  0  0  0
   46.2754    2.4463   18.7331 C   0  0  0  0  0  0  0  0  0  0  0  0
   46.0808    1.0328   18.2200 C   0  0  0  0  0  0  0  0  0  0  0  0
   45.2559    1.1074   17.0290 N   0  0  0  0  0  0  0  0  0  0  0  0
   45.3974   -0.1771   16.3659 C   0  0  0  0  0  0  0  0  0  0  0  0
   44.5631   -0.2419   15.0919 C   0  0  0  0  0  0  0  0  0  0  0  0
   44.7976   -1.6188   14.4523 C   0  0  0  0  0  0  0  0  0  0  0  0
   46.1646   -1.7629   13.9294 N   0  0  0  0  0  0  0  0  0  0  0  0
  1  2  1  0  0  0  0
  2  3  1  0  0  0  0
  3  4  1  0  0  0  0
  4  5  1  0  0  0  0
  5  6  1  0  0  0  0
  6  7  1  0  0  0  0
  7  8  1  0  0  0  0
  8  9  1  0  0  0  0
  9 10  1  0  0  0  0
 10 11  1  0  0  0  0
 11 12  1  0  0  0  0
 12 13  1  0  0  0  0
 13 14  1  0  0  0  0
M  END
>  <CHROM.1>
-69.12042829,176.03582682,158.66428759,156.34132309,54.80659278,170.45798528
63.55844314,164.54129573,179.45049804,178.95673088,-68.62517059,45.64685221
3.42316042,17.84601548,-0.04523564,-1.50230876,-1.17856365

>  <Name>
ligand

>  <RI>
0

>  <Rbt.Current_Directory>
/home/itssahil/PROJECTS/Mol_Feturizer/New_Systems/rnas/1TN2

>  <Rbt.Executable>
rbdock ($Id: //depot/dev/client3/rdock/2013.1/src/exe/rbdock.cxx#4 $)

>  <Rbt.Library>
libRbt.so (2013.1, Build901 2013/11/27)

>  <Rbt.Parameter_File>
/export/apps/rDock/src/rDock_2013.1_src/data/scripts/dock_solv.prm

>  <Rbt.Receptor>
prm/blind_docking_100.prm

>  <SCORE>
-9.62653

>  <SCORE.INTER>
-7.24647

>  <SCORE.INTER.CONST>
1

>  <SCORE.INTER.POLAR>
0

>  <SCORE.INTER.ROT>
11

>  <SCORE.INTER.SOLV>
11.6567

>  <SCORE.INTER.VDW>
-19.6499

>  <SCORE.INTER.norm>
-0.517605

>  <SCORE.INTRA>
-2.38006

>  <SCORE.INTRA.DIHEDRAL>
-5.695

>  <SCORE.INTRA.DIHEDRAL.0>
7.79482

>  <SCORE.INTRA.POLAR>
0

>  <SCORE.INTRA.POLAR.0>
0

>  <SCORE.INTRA.REPUL>
0

>  <SCORE.INTRA.REPUL.0>
0

>  <SCORE.INTRA.SOLV>
2.09201

>  <SCORE.INTRA.SOLV.lig_0>
-49.456

>  <SCORE.INTRA.VDW>
-0.578561

>  <SCORE.INTRA.VDW.0>
-0.478406

>  <SCORE.INTRA.norm>
-0.170004

>  <SCORE.RESTR>
0

>  <SCORE.RESTR.CAVITY>
0

>  <SCORE.RESTR.norm>
0

>  <SCORE.SYSTEM>
0

>  <SCORE.SYSTEM.CONST>
0

>  <SCORE.SYSTEM.DIHEDRAL>
0

>  <SCORE.SYSTEM.SOLV>
0

>  <SCORE.SYSTEM.norm>
0

>  <SCORE.heavy>
14

>  <SCORE.norm>
-0.687609

>  <RMSD>
3.678

$$$$
ligand
 OpenBabel11021811413D
libRbt.so/2013.1/901 2013/11/27
 14 13  0  0  0  0  0  0  0  0999 V2000
   50.6897    8.0018   16.7732 N   0  0  0  0  0  0  0  0  0  0  0  0
   49.3565    7.6410   17.3019 C   0  0  0  0  0  0  0  0  0  0  0  0
   48.5155    8.9007   17.6017 C   0  0  0  0  0  0  0  0  0  0  0  0
   47.1413    8.6179   18.2308 C   0  0  0  0  0  0  0  0  0  0  0  0
   47.2869    7.9780   19.5671 N   0  0  0  0  0  0  0  0  0  0  0  0
   45.9546    7.8039   20.2008 C   0  0  0  0  0  0  0  0  0  0  0  0
   45.2071    6.4734   19.8499 C   0  0  0  0  0  0  0  0  0  0  0  0
   45.9533    5.1865   20.3054 C   0  0  0  0  0  0  0  0  0  0  0  0
   45.2805    3.8988   19.8719 C   0  0  0  0  0  0  0  0  0  0  0  0
   45.4999    3.7469   18.4460 N   0  0  0  0  0  0  0  0  0  0  0  0
   46.4340    2.6439   18.3023 C   0  0  0  0  0  0  0  0  0  0  0  0
   45.7184    1.2986   18.3393 C   0  0  0  0  0  0  0  0  0  0  0  0
   44.8263    1.2124   17.0916 C   0  0  0  0  0  0  0  0  0  0  0  0
   45.6122    1.1342   15.8511 N   0  0  0  0  0  0  0  0  0  0  0  0
  1  2  1  0  0  0  0
  2  3  1  0  0  0  0
  3  4  1  0  0  0  0
  4  5  1  0  0  0  0
  5  6  1  0  0  0  0
  6  7  1  0  0  0  0
  7  8  1  0  0  0  0
  8  9  1  0  0  0  0
  9 10  1  0  0  0  0
 10 11  1  0  0  0  0
 11 12  1  0  0  0  0
 12 13  1  0  0  0  0
 13 14  1  0  0  0  0
M  END
>  <CHROM.1>
-176.71066731,63.47255016,175.86134243,87.83828360,62.13707529,-175.58127610
73.21008615,109.42590785,83.41397930,65.97329685,67.43126952,46.67664434
5.32418784,18.40980807,-0.97281072,-0.74899123,-2.63748601

>  <Name>
ligand

>  <RI>
0

>  <Rbt.Current_Directory>
/home/itssahil/PROJECTS/Mol_Feturizer/New_Systems/rnas/1TN2

>  <Rbt.Executable>
rbdock ($Id: //depot/dev/client3/rdock/2013.1/src/exe/rbdock.cxx#4 $)

>  <Rbt.Library>
libRbt.so (2013.1, Build901 2013/11/27)

>  <Rbt.Parameter_File>
/export/apps/rDock/src/rDock_2013.1_src/data/scripts/dock_solv.prm

>  <Rbt.Receptor>
prm/pocket_docking_8.prm

>  <SCORE>
-7.10347

>  <SCORE.INTER>
-6.53104

>  <SCORE.INTER.CONST>
1

>  <SCORE.INTER.POLAR>
0

>  <SCORE.INTER.ROT>
11

>  <SCORE.INTER.SOLV>
11.6007

>  <SCORE.INTER.VDW>
-19.1542

>  <SCORE.INTER.norm>
-0.466503

>  <SCORE.INTRA>
-0.575734

>  <SCORE.INTRA.DIHEDRAL>
-4.58138

>  <SCORE.INTRA.DIHEDRAL.0>
7.79482

>  <SCORE.INTRA.POLAR>
0

>  <SCORE.INTRA.POLAR.0>
0

>  <SCORE.INTRA.REPUL>
0

>  <SCORE.INTRA.REPUL.0>
0

>  <SCORE.INTRA.SOLV>
2.67288

>  <SCORE.INTRA.SOLV.lig_0>
-49.456

>  <SCORE.INTRA.VDW>
0.378513

>  <SCORE.INTRA.VDW.0>
-0.478406

>  <SCORE.INTRA.norm>
-0.0411239

>  <SCORE.RESTR>
0.00330167

>  <SCORE.RESTR.CAVITY>
0.00330167

>  <SCORE.RESTR.norm>
0.000235834

>  <SCORE.SYSTEM>
0

>  <SCORE.SYSTEM.CONST>
0

>  <SCORE.SYSTEM.DIHEDRAL>
0

>  <SCORE.SYSTEM.SOLV>
0

>  <SCORE.SYSTEM.norm>
0

>  <SCORE.heavy>
14

>  <SCORE.norm>
-0.507391

>  <RMSD>
3.687

$$$$
ligand
 OpenBabel11021811413D
libRbt.so/2013.1/901 2013/11/27
 14 13  0  0  0  0  0  0  0  0999 V2000
   45.9959   -1.0350   14.3472 N   0  0  0  0  0  0  0  0  0  0  0  0
   45.3900   -1.9016   15.3812 C   0  0  0  0  0  0  0  0  0  0  0  0
   45.7686   -1.4252   16.8003 C   0  0  0  0  0  0  0  0  0  0  0  0
   45.0848   -0.1204   17.2409 C   0  0  0  0  0  0  0  0  0  0  0  0
   45.4976    1.0181   16.3749 N   0  0  0  0  0  0  0  0  0  0  0  0
   44.9972    2.2987   16.9374 C   0  0  0  0  0  0  0  0  0  0  0  0
   45.9825    3.0471   17.8973 C   0  0  0  0  0  0  0  0  0  0  0  0
   45.2877    3.7491   19.0992 C   0  0  0  0  0  0  0  0  0  0  0  0
   46.1289    4.8287   19.7516 C   0  0  0  0  0  0  0  0  0  0  0  0
   46.3456    5.8719   18.7672 N   0  0  0  0  0  0  0  0  0  0  0  0
   46.8579    7.0141   19.5038 C   0  0  0  0  0  0  0  0  0  0  0  0
   46.8949    8.2665   18.6358 C   0  0  0  0  0  0  0  0  0  0  0  0
   47.8686    8.0007   17.4777 C   0  0  0  0  0  0  0  0  0  0  0  0
   47.9037    9.1121   16.5152 N   0  0  0  0  0  0  0  0  0  0  0  0
  1  2  1  0  0  0  0
  2  3  1  0  0  0  0
  3  4  1  0  0  0  0
  4  5  1  0  0  0  0
  5  6  1  0  0  0  0
  6  7  1  0  0  0  0
  7  8  1  0  0  0  0
  8  9  1  0  0  0  0
  9 10  1  0  0  0  0
 10 11  1  0  0  0  0
 11 12  1  0  0  0  0
 12 13  1  0  0  0  0
 13 14  1  0  0  0  0
M  END
>  <CHROM.1>
71.78084410,-63.39908422,-171.31323826,92.30870359,-142.78418225,-160.70849257
63.43658642,166.40095742,-169.72899608,-62.79806704,175.61687677,46.14301066
3.48022439,17.48108656,-2.05506667,1.16364906,0.71139068

>  <Name>
ligand

>  <RI>
0

>  <Rbt.Current_Directory>
/home/itssahil/PROJECTS/Mol_Feturizer/New_Systems/rnas/1TN2

>  <Rbt.Executable>
rbdock ($Id: //depot/dev/client3/rdock/2013.1/src/exe/rbdock.cxx#4 $)

>  <Rbt.Library>
libRbt.so (2013.1, Build901 2013/11/27)

>  <Rbt.Parameter_File>
/export/apps/rDock/src/rDock_2013.1_src/data/scripts/dock_solv.prm

>  <Rbt.Receptor>
prm/pocket_docking_2.prm

>  <SCORE>
-2.71409

>  <SCORE.INTER>
-4.26169

>  <SCORE.INTER.CONST>
1

>  <SCORE.INTER.POLAR>
0

>  <SCORE.INTER.ROT>
11

>  <SCORE.INTER.SOLV>
10.1562

>  <SCORE.INTER.VDW>
-17.1599

>  <SCORE.INTER.norm>
-0.304406

>  <SCORE.INTRA>
0.752606

>  <SCORE.INTRA.DIHEDRAL>
-0.921333

>  <SCORE.INTRA.DIHEDRAL.0>
7.79482

>  <SCORE.INTRA.POLAR>
0

>  <SCORE.INTRA.POLAR.0>
0

>  <SCORE.INTRA.REPUL>
0

>  <SCORE.INTRA.REPUL.0>
0

>  <SCORE.INTRA.SOLV>
3.62846

>  <SCORE.INTRA.SOLV.lig_0>
-49.456

>  <SCORE.INTRA.VDW>
-0.600956

>  <SCORE.INTRA.VDW.0>
-0.478406

>  <SCORE.INTRA.norm>
0.0537576

>  <SCORE.RESTR>
0.794991

>  <SCORE.RESTR.CAVITY>
0.794991

>  <SCORE.RESTR.norm>
0.056785

>  <SCORE.SYSTEM>
0

>  <SCORE.SYSTEM.CONST>
0

>  <SCORE.SYSTEM.DIHEDRAL>
0

>  <SCORE.SYSTEM.SOLV>
0

>  <SCORE.SYSTEM.norm>
0

>  <SCORE.heavy>
14

>  <SCORE.norm>
-0.193864

>  <RMSD>
3.695

$$$$
ligand
 OpenBabel11021811413D
libRbt.so/2013.1/901 2013/11/27
 14 13  0  0  0  0  0  0  0  0999 V2000
   45.8777   -2.0556   13.7503 N   0  0  0  0  0  0  0  0  0  0  0  0
   45.5905   -1.3395   15.0120 C   0  0  0  0  0  0  0  0  0  0  0  0
   44.5823   -0.1923   14.7855 C   0  0  0  0  0  0  0  0  0  0  0  0
   44.2820    0.6517   16.0351 C   0  0  0  0  0  0  0  0  0  0  0  0
   45.5069    1.3472   16.5172 N   0  0  0  0  0  0  0  0  0  0  0  0
   45.6596    1.1610   17.9830 C   0  0  0  0  0  0  0  0  0  0  0  0
   46.4030    2.3142   18.7378 C   0  0  0  0  0  0  0  0  0  0  0  0
   45.6770    3.6886   18.6705 C   0  0  0  0  0  0  0  0  0  0  0  0
   46.2555    4.7365   19.6013 C   0  0  0  0  0  0  0  0  0  0  0  0
   45.6159    6.0009   19.2909 N   0  0  0  0  0  0  0  0  0  0  0  0
   45.5446    6.7294   20.5455 C   0  0  0  0  0  0  0  0  0  0  0  0
   46.5552    7.8698   20.5864 C   0  0  0  0  0  0  0  0  0  0  0  0
   46.0590    8.9650   19.6302 C   0  0  0  0  0  0  0  0  0  0  0  0
   46.2038    8.5776   18.2189 N   0  0  0  0  0  0  0  0  0  0  0  0
  1  2  1  0  0  0  0
  2  3  1  0  0  0  0
  3  4  1  0  0  0  0
  4  5  1  0  0  0  0
  5  6  1  0  0  0  0
  6  7  1  0  0  0  0
  7  8  1  0  0  0  0
  8  9  1  0  0  0  0
  9 10  1  0  0  0  0
 10 11  1  0  0  0  0
 11 12  1  0  0  0  0
 12 13  1  0  0  0  0
 13 14  1  0  0  0  0
M  END
>  <CHROM.1>
-177.01840182,62.86809042,-132.26444026,-151.16540722,62.68587343,169.46598092
171.80543300,147.74697888,106.47522350,71.94635725,-72.06261848,45.70088059
3.46102806,17.81210430,2.11846364,1.41456297,3.10458974

>  <Name>
ligand

>  <RI>
0

>  <Rbt.Current_Directory>
/home/itssahil/PROJECTS/Mol_Feturizer/New_Systems/rnas/1TN2

>  <Rbt.Executable>
rbdock ($Id: //depot/dev/client3/rdock/2013.1/src/exe/rbdock.cxx#4 $)

>  <Rbt.Library>
libRbt.so (2013.1, Build901 2013/11/27)

>  <Rbt.Parameter_File>
/export/apps/rDock/src/rDock_2013.1_src/data/scripts/dock_solv.prm

>  <Rbt.Receptor>
prm/pocket_docking_5.prm

>  <SCORE>
-7.16397

>  <SCORE.INTER>
-6.98692

>  <SCORE.INTER.CONST>
1

>  <SCORE.INTER.POLAR>
0

>  <SCORE.INTER.ROT>
11

>  <SCORE.INTER.SOLV>
11.3882

>  <SCORE.INTER.VDW>
-19.3873

>  <SCORE.INTER.norm>
-0.499066

>  <SCORE.INTRA>
-0.177048

>  <SCORE.INTRA.DIHEDRAL>
-2.57373

>  <SCORE.INTRA.DIHEDRAL.0>
7.79482

>  <SCORE.INTRA.POLAR>
0

>  <SCORE.INTRA.POLAR.0>
0

>  <SCORE.INTRA.REPUL>
0

>  <SCORE.INTRA.REPUL.0>
0

>  <SCORE.INTRA.SOLV>
3.53151

>  <SCORE.INTRA.SOLV.lig_0>
-49.456

>  <SCORE.INTRA.VDW>
-0.655939

>  <SCORE.INTRA.VDW.0>
-0.478406

>  <SCORE.INTRA.norm>
-0.0126463

>  <SCORE.RESTR>
0

>  <SCORE.RESTR.CAVITY>
0

>  <SCORE.RESTR.norm>
0

>  <SCORE.SYSTEM>
0

>  <SCORE.SYSTEM.CONST>
0

>  <SCORE.SYSTEM.DIHEDRAL>
0

>  <SCORE.SYSTEM.SOLV>
0

>  <SCORE.SYSTEM.norm>
0

>  <SCORE.heavy>
14

>  <SCORE.norm>
-0.511712

>  <RMSD>
3.700

$$$$
ligand
 OpenBabel11021811413D
libRbt.so/2013.1/901 2013/11/27
 14 13  0  0  0  0  0  0  0  0999 V2000
   45.3944    1.6853   16.5157 N   0  0  0  0  0  0  0  0  0  0  0  0
   46.0413    1.2805   17.7825 C   0  0  0  0  0  0  0  0  0  0  0  0
   46.2394    2.4915   18.7197 C   0  0  0  0  0  0  0  0  0  0  0  0
   44.9350    3.1445   19.2057 C   0  0  0  0  0  0  0  0  0  0  0  0
   45.2050    4.1498   20.2701 N   0  0  0  0  0  0  0  0  0  0  0  0
   43.9515    4.4772   20.9970 C   0  0  0  0  0  0  0  0  0  0  0  0
   43.9156    5.8835   21.6847 C   0  0  0  0  0  0  0  0  0  0  0  0
   43.7307    7.0698   20.6953 C   0  0  0  0  0  0  0  0  0  0  0  0
   45.0155    7.8067   20.3708 C   0  0  0  0  0  0  0  0  0  0  0  0
   45.7855    6.9711   19.4690 N   0  0  0  0  0  0  0  0  0  0  0  0
   46.8589    7.8111   18.9669 C   0  0  0  0  0  0  0  0  0  0  0  0
   47.4895    7.2193   17.7118 C   0  0  0  0  0  0  0  0  0  0  0  0
   48.6086    8.1705   17.2613 C   0  0  0  0  0  0  0  0  0  0  0  0
   48.0830    9.4528   16.7690 N   0  0  0  0  0  0  0  0  0  0  0  0
  1  2  1  0  0  0  0
  2  3  1  0  0  0  0
  3  4  1  0  0  0  0
  4  5  1  0  0  0  0
  5  6  1  0  0  0  0
  6  7  1  0  0  0  0
  7  8  1  0  0  0  0
  8  9  1  0  0  0  0
  9 10  1  0  0  0  0
 10 11  1  0  0  0  0
 11 12  1  0  0  0  0
 12 13  1  0  0  0  0
 13 14  1  0  0  0  0
M  END
>  <CHROM.1>
64.35118123,170.65613189,-163.56551158,-154.99482114,74.55553563,-100.87087688
74.69344669,168.51881955,-162.77589153,-179.86634323,-68.38940218,45.80372531
5.54381397,19.03026779,-2.06931896,0.84911411,0.29710037

>  <Name>
ligand

>  <RI>
0

>  <Rbt.Current_Directory>
/home/itssahil/PROJECTS/Mol_Feturizer/New_Systems/rnas/1TN2

>  <Rbt.Executable>
rbdock ($Id: //depot/dev/client3/rdock/2013.1/src/exe/rbdock.cxx#4 $)

>  <Rbt.Library>
libRbt.so (2013.1, Build901 2013/11/27)

>  <Rbt.Parameter_File>
/export/apps/rDock/src/rDock_2013.1_src/data/scripts/dock_solv.prm

>  <Rbt.Receptor>
prm/pocket_docking_7.prm

>  <SCORE>
-6.29891

>  <SCORE.INTER>
-6.96192

>  <SCORE.INTER.CONST>
1

>  <SCORE.INTER.POLAR>
0

>  <SCORE.INTER.ROT>
11

>  <SCORE.INTER.SOLV>
9.72922

>  <SCORE.INTER.VDW>
-18.8177

>  <SCORE.INTER.norm>
-0.49728

>  <SCORE.INTRA>
0.663006

>  <SCORE.INTRA.DIHEDRAL>
0.0991229

>  <SCORE.INTRA.DIHEDRAL.0>
7.79482

>  <SCORE.INTRA.POLAR>
0

>  <SCORE.INTRA.POLAR.0>
0

>  <SCORE.INTRA.REPUL>
0

>  <SCORE.INTRA.REPUL.0>
0

>  <SCORE.INTRA.SOLV>
3.97415

>  <SCORE.INTRA.SOLV.lig_0>
-49.456

>  <SCORE.INTRA.VDW>
-1.37363

>  <SCORE.INTRA.VDW.0>
-0.478406

>  <SCORE.INTRA.norm>
0.0473576

>  <SCORE.RESTR>
0

>  <SCORE.RESTR.CAVITY>
0

>  <SCORE.RESTR.norm>
0

>  <SCORE.SYSTEM>
0

>  <SCORE.SYSTEM.CONST>
0

>  <SCORE.SYSTEM.DIHEDRAL>
0

>  <SCORE.SYSTEM.SOLV>
0

>  <SCORE.SYSTEM.norm>
0

>  <SCORE.heavy>
14

>  <SCORE.norm>
-0.449922

>  <RMSD>
3.708

$$$$
ligand
 OpenBabel11021811413D
libRbt.so/2013.1/901 2013/11/27
 14 13  0  0  0  0  0  0  0  0999 V2000
   46.0598   -0.7694   12.7566 N   0  0  0  0  0  0  0  0  0  0  0  0
   46.3543   -0.4909   14.1788 C   0  0  0  0  0  0  0  0  0  0  0  0
   45.1775   -0.9123   15.0853 C   0  0  0  0  0  0  0  0  0  0  0  0
   45.4077   -0.6709   16.5862 C   0  0  0  0  0  0  0  0  0  0  0  0
   45.4588    0.7853   16.8916 N   0  0  0  0  0  0  0  0  0  0  0  0
   46.0638    1.0083   18.2299 C   0  0  0  0  0  0  0  0  0  0  0  0
   46.6228    2.4480   18.4885 C   0  0  0  0  0  0  0  0  0  0  0  0
   45.5695    3.4473   19.0474 C   0  0  0  0  0  0  0  0  0  0  0  0
   46.1437    4.7982   19.4275 C   0  0  0  0  0  0  0  0  0  0  0  0
   45.0787    5.5728   20.0358 N   0  0  0  0  0  0  0  0  0  0  0  0
   45.6701    6.8503   20.3936 C   0  0  0  0  0  0  0  0  0  0  0  0
   45.3251    7.9297   19.3743 C   0  0  0  0  0  0  0  0  0  0  0  0
   46.1206    9.1905   19.7451 C   0  0  0  0  0  0  0  0  0  0  0  0
   45.8856   10.2932   18.8010 N   0  0  0  0  0  0  0  0  0  0  0  0
  1  2  1  0  0  0  0
  2  3  1  0  0  0  0
  3  4  1  0  0  0  0
  4  5  1  0  0  0  0
  5  6  1  0  0  0  0
  6  7  1  0  0  0  0
  7  8  1  0  0  0  0
  8  9  1  0  0  0  0
  9 10  1  0  0  0  0
 10 11  1  0  0  0  0
 11 12  1  0  0  0  0
 12 13  1  0  0  0  0
 13 14  1  0  0  0  0
M  END
>  <CHROM.1>
179.35982813,67.69860133,-163.53130683,160.17533611,87.76878933,174.18503514
-175.06740097,179.55628570,100.53383045,-173.55859349,178.63541825,45.78135480
3.53411764,17.78895795,-1.48133699,1.50341546,0.39529223

>  <Name>
ligand

>  <RI>
0

>  <Rbt.Current_Directory>
/home/itssahil/PROJECTS/Mol_Feturizer/New_Systems/rnas/1TN2

>  <Rbt.Executable>
rbdock ($Id: //depot/dev/client3/rdock/2013.1/src/exe/rbdock.cxx#4 $)

>  <Rbt.Library>
libRbt.so (2013.1, Build901 2013/11/27)

>  <Rbt.Parameter_File>
/export/apps/rDock/src/rDock_2013.1_src/data/scripts/dock_solv.prm

>  <Rbt.Receptor>
prm/blind_docking_80.prm

>  <SCORE>
-8.98442

>  <SCORE.INTER>
-6.90037

>  <SCORE.INTER.CONST>
1

>  <SCORE.INTER.POLAR>
0

>  <SCORE.INTER.ROT>
11

>  <SCORE.INTER.SOLV>
10.3215

>  <SCORE.INTER.VDW>
-18.9741

>  <SCORE.INTER.norm>
-0.492883

>  <SCORE.INTRA>
-2.08406

>  <SCORE.INTRA.DIHEDRAL>
-3.31955

>  <SCORE.INTRA.DIHEDRAL.0>
7.79482

>  <SCORE.INTRA.POLAR>
0

>  <SCORE.INTRA.POLAR.0>
0

>  <SCORE.INTRA.REPUL>
0

>  <SCORE.INTRA.REPUL.0>
0

>  <SCORE.INTRA.SOLV>
0.453355

>  <SCORE.INTRA.SOLV.lig_0>
-49.456

>  <SCORE.INTRA.VDW>
-0.650959

>  <SCORE.INTRA.VDW.0>
-0.478406

>  <SCORE.INTRA.norm>
-0.148861

>  <SCORE.RESTR>
0

>  <SCORE.RESTR.CAVITY>
0

>  <SCORE.RESTR.norm>
0

>  <SCORE.SYSTEM>
0

>  <SCORE.SYSTEM.CONST>
0

>  <SCORE.SYSTEM.DIHEDRAL>
0

>  <SCORE.SYSTEM.SOLV>
0

>  <SCORE.SYSTEM.norm>
0

>  <SCORE.heavy>
14

>  <SCORE.norm>
-0.641744

>  <RMSD>
3.712

$$$$
ligand
 OpenBabel11021811413D
libRbt.so/2013.1/901 2013/11/27
 14 13  0  0  0  0  0  0  0  0999 V2000
   45.7840   -1.2449   13.6640 N   0  0  0  0  0  0  0  0  0  0  0  0
   45.2648   -1.9775   14.8391 C   0  0  0  0  0  0  0  0  0  0  0  0
   45.6332   -1.2563   16.1537 C   0  0  0  0  0  0  0  0  0  0  0  0
   45.0014    0.1358   16.3185 C   0  0  0  0  0  0  0  0  0  0  0  0
   45.3685    0.7373   17.6299 N   0  0  0  0  0  0  0  0  0  0  0  0
   44.1870    1.4001   18.2395 C   0  0  0  0  0  0  0  0  0  0  0  0
   44.4937    2.3653   19.4338 C   0  0  0  0  0  0  0  0  0  0  0  0
   45.3767    3.5879   19.0517 C   0  0  0  0  0  0  0  0  0  0  0  0
   45.6151    4.5560   20.1939 C   0  0  0  0  0  0  0  0  0  0  0  0
   46.3011    5.7139   19.6526 N   0  0  0  0  0  0  0  0  0  0  0  0
   46.0202    6.8066   20.5673 C   0  0  0  0  0  0  0  0  0  0  0  0
   46.5922    8.1235   20.0555 C   0  0  0  0  0  0  0  0  0  0  0  0
   45.7658    8.5443   18.8307 C   0  0  0  0  0  0  0  0  0  0  0  0
   46.2600    9.7919   18.2292 N   0  0  0  0  0  0  0  0  0  0  0  0
  1  2  1  0  0  0  0
  2  3  1  0  0  0  0
  3  4  1  0  0  0  0
  4  5  1  0  0  0  0
  5  6  1  0  0  0  0
  6  7  1  0  0  0  0
  7  8  1  0  0  0  0
  8  9  1  0  0  0  0
  9 10  1  0  0  0  0
 10 11  1  0  0  0  0
 11 12  1  0  0  0  0
 12 13  1  0  0  0  0
 13 14  1  0  0  0  0
M  END
>  <CHROM.1>
64.16761102,177.98268280,-137.97848854,-165.65326646,62.66527750,177.14823173
-172.93513193,156.64021879,-175.36882248,70.05002990,-178.33787369,45.54724732
3.37726574,18.06170341,-1.89792246,1.30477329,0.73410590

>  <Name>
ligand

>  <RI>
0

>  <Rbt.Current_Directory>
/home/itssahil/PROJECTS/Mol_Feturizer/New_Systems/rnas/1TN2

>  <Rbt.Executable>
rbdock ($Id: //depot/dev/client3/rdock/2013.1/src/exe/rbdock.cxx#4 $)

>  <Rbt.Library>
libRbt.so (2013.1, Build901 2013/11/27)

>  <Rbt.Parameter_File>
/export/apps/rDock/src/rDock_2013.1_src/data/scripts/dock_solv.prm

>  <Rbt.Receptor>
prm/pocket_docking_4.prm

>  <SCORE>
-10.2685

>  <SCORE.INTER>
-7.4256

>  <SCORE.INTER.CONST>
1

>  <SCORE.INTER.POLAR>
0

>  <SCORE.INTER.ROT>
11

>  <SCORE.INTER.SOLV>
11.8402

>  <SCORE.INTER.VDW>
-19.8305

>  <SCORE.INTER.norm>
-0.5304

>  <SCORE.INTRA>
-2.84286

>  <SCORE.INTRA.DIHEDRAL>
-5.55476

>  <SCORE.INTRA.DIHEDRAL.0>
7.79482

>  <SCORE.INTRA.POLAR>
0

>  <SCORE.INTRA.POLAR.0>
0

>  <SCORE.INTRA.REPUL>
0

>  <SCORE.INTRA.REPUL.0>
0

>  <SCORE.INTRA.SOLV>
1.34472

>  <SCORE.INTRA.SOLV.lig_0>
-49.456

>  <SCORE.INTRA.VDW>
-0.737837

>  <SCORE.INTRA.VDW.0>
-0.478406

>  <SCORE.INTRA.norm>
-0.203061

>  <SCORE.RESTR>
0

>  <SCORE.RESTR.CAVITY>
0

>  <SCORE.RESTR.norm>
0

>  <SCORE.SYSTEM>
0

>  <SCORE.SYSTEM.CONST>
0

>  <SCORE.SYSTEM.DIHEDRAL>
0

>  <SCORE.SYSTEM.SOLV>
0

>  <SCORE.SYSTEM.norm>
0

>  <SCORE.heavy>
14

>  <SCORE.norm>
-0.733461

>  <RMSD>
3.716

$$$$
ligand
 OpenBabel11021811413D
libRbt.so/2013.1/901 2013/11/27
 14 13  0  0  0  0  0  0  0  0999 V2000
   46.0141   10.0952   18.4520 N   0  0  0  0  0  0  0  0  0  0  0  0
   45.5903    8.7164   18.7784 C   0  0  0  0  0  0  0  0  0  0  0  0
   46.2833    8.2085   20.0612 C   0  0  0  0  0  0  0  0  0  0  0  0
   45.9067    6.7741   20.4669 C   0  0  0  0  0  0  0  0  0  0  0  0
   46.2940    5.8005   19.4093 N   0  0  0  0  0  0  0  0  0  0  0  0
   45.6468    4.4869   19.6588 C   0  0  0  0  0  0  0  0  0  0  0  0
   46.0404    3.3395   18.6685 C   0  0  0  0  0  0  0  0  0  0  0  0
   45.3152    1.9901   18.9394 C   0  0  0  0  0  0  0  0  0  0  0  0
   45.7743    0.8544   18.0459 C   0  0  0  0  0  0  0  0  0  0  0  0
   45.2492    1.1015   16.7164 N   0  0  0  0  0  0  0  0  0  0  0  0
   45.3241   -0.1690   16.0164 C   0  0  0  0  0  0  0  0  0  0  0  0
   44.4989   -0.1492   14.7350 C   0  0  0  0  0  0  0  0  0  0  0  0
   44.6121   -1.5378   14.0879 C   0  0  0  0  0  0  0  0  0  0  0  0
   45.9872   -1.8437   13.6660 N   0  0  0  0  0  0  0  0  0  0  0  0
  1  2  1  0  0  0  0
  2  3  1  0  0  0  0
  3  4  1  0  0  0  0
  4  5  1  0  0  0  0
  5  6  1  0  0  0  0
  6  7  1  0  0  0  0
  7  8  1  0  0  0  0
  8  9  1  0  0  0  0
  9 10  1  0  0  0  0
 10 11  1  0  0  0  0
 11 12  1  0  0  0  0
 12 13  1  0  0  0  0
 13 14  1  0  0  0  0
M  END
>  <CHROM.1>
-179.50711920,61.28764462,-166.59343103,-176.29846176,-178.51093191,-175.67119651
-72.52049405,-162.02278627,165.98019230,-178.62868142,-64.34654782,45.60964909
3.40466457,17.69327729,0.80449696,-1.45522405,-0.29895042

>  <Name>
ligand

>  <RI>
0

>  <Rbt.Current_Directory>
/home/itssahil/PROJECTS/Mol_Feturizer/New_Systems/rnas/1TN2

>  <Rbt.Executable>
rbdock ($Id: //depot/dev/client3/rdock/2013.1/src/exe/rbdock.cxx#4 $)

>  <Rbt.Library>
libRbt.so (2013.1, Build901 2013/11/27)

>  <Rbt.Parameter_File>
/export/apps/rDock/src/rDock_2013.1_src/data/scripts/dock_solv.prm

>  <Rbt.Receptor>
prm/pocket_docking_6.prm

>  <SCORE>
-10.3836

>  <SCORE.INTER>
-7.25448

>  <SCORE.INTER.CONST>
1

>  <SCORE.INTER.POLAR>
0

>  <SCORE.INTER.ROT>
11

>  <SCORE.INTER.SOLV>
10.5413

>  <SCORE.INTER.VDW>
-19.2834

>  <SCORE.INTER.norm>
-0.518177

>  <SCORE.INTRA>
-3.12912

>  <SCORE.INTRA.DIHEDRAL>
-6.49618

>  <SCORE.INTRA.DIHEDRAL.0>
7.79482

>  <SCORE.INTRA.POLAR>
0

>  <SCORE.INTRA.POLAR.0>
0

>  <SCORE.INTRA.REPUL>
0

>  <SCORE.INTRA.REPUL.0>
0

>  <SCORE.INTRA.SOLV>
1.43639

>  <SCORE.INTRA.SOLV.lig_0>
-49.456

>  <SCORE.INTRA.VDW>
-0.599228

>  <SCORE.INTRA.VDW.0>
-0.478406

>  <SCORE.INTRA.norm>
-0.223509

>  <SCORE.RESTR>
0

>  <SCORE.RESTR.CAVITY>
0

>  <SCORE.RESTR.norm>
0

>  <SCORE.SYSTEM>
0

>  <SCORE.SYSTEM.CONST>
0

>  <SCORE.SYSTEM.DIHEDRAL>
0

>  <SCORE.SYSTEM.SOLV>
0

>  <SCORE.SYSTEM.norm>
0

>  <SCORE.heavy>
14

>  <SCORE.norm>
-0.741686

>  <RMSD>
3.716

$$$$
ligand
 OpenBabel11021811413D
libRbt.so/2013.1/901 2013/11/27
 14 13  0  0  0  0  0  0  0  0999 V2000
   40.1760    7.7651   19.9683 N   0  0  0  0  0  0  0  0  0  0  0  0
   41.6448    7.6736   19.8222 C   0  0  0  0  0  0  0  0  0  0  0  0
   42.2995    7.1154   21.1043 C   0  0  0  0  0  0  0  0  0  0  0  0
   43.8329    7.0173   21.0492 C   0  0  0  0  0  0  0  0  0  0  0  0
   44.2655    5.8990   20.1667 N   0  0  0  0  0  0  0  0  0  0  0  0
   45.7428    5.7504   20.2131 C   0  0  0  0  0  0  0  0  0  0  0  0
   46.2857    4.3039   19.9581 C   0  0  0  0  0  0  0  0  0  0  0  0
   45.8806    3.7074   18.5795 C   0  0  0  0  0  0  0  0  0  0  0  0
   46.2692    2.2529   18.4000 C   0  0  0  0  0  0  0  0  0  0  0  0
   45.8182    1.8365   17.0856 N   0  0  0  0  0  0  0  0  0  0  0  0
   45.3377    0.4749   17.2425 C   0  0  0  0  0  0  0  0  0  0  0  0
   44.7324   -0.0556   15.9481 C   0  0  0  0  0  0  0  0  0  0  0  0
   45.8849   -0.2999   14.9621 C   0  0  0  0  0  0  0  0  0  0  0  0
   46.4564    0.9560   14.4534 N   0  0  0  0  0  0  0  0  0  0  0  0
  1  2  1  0  0  0  0
  2  3  1  0  0  0  0
  3  4  1  0  0  0  0
  4  5  1  0  0  0  0
  5  6  1  0  0  0  0
  6  7  1  0  0  0  0
  7  8  1  0  0  0  0
  8  9  1  0  0  0  0
  9 10  1  0  0  0  0
 10 11  1  0  0  0  0
 11 12  1  0  0  0  0
 12 13  1  0  0  0  0
 13 14  1  0  0  0  0
M  END
>  <CHROM.1>
-178.67233719,-73.09102513,-175.40637507,151.23099227,58.94457214,-173.29380045
179.41665248,-141.64917624,175.72811454,71.65905418,-72.05003988,44.61636799
3.88539660,18.49687108,1.99302098,-0.35008089,0.75605308

>  <Name>
ligand

>  <RI>
0

>  <Rbt.Current_Directory>
/home/itssahil/PROJECTS/Mol_Feturizer/New_Systems/rnas/1TN2

>  <Rbt.Executable>
rbdock ($Id: //depot/dev/client3/rdock/2013.1/src/exe/rbdock.cxx#4 $)

>  <Rbt.Library>
libRbt.so (2013.1, Build901 2013/11/27)

>  <Rbt.Parameter_File>
/export/apps/rDock/src/rDock_2013.1_src/data/scripts/dock_solv.prm

>  <Rbt.Receptor>
prm/blind_docking_60.prm

>  <SCORE>
-8.44436

>  <SCORE.INTER>
-7.15981

>  <SCORE.INTER.CONST>
1

>  <SCORE.INTER.POLAR>
0

>  <SCORE.INTER.ROT>
11

>  <SCORE.INTER.SOLV>
13.6844

>  <SCORE.INTER.VDW>
-20.268

>  <SCORE.INTER.norm>
-0.511415

>  <SCORE.INTRA>
-1.28456

>  <SCORE.INTRA.DIHEDRAL>
-4.49504

>  <SCORE.INTRA.DIHEDRAL.0>
7.79482

>  <SCORE.INTRA.POLAR>
0

>  <SCORE.INTRA.POLAR.0>
0

>  <SCORE.INTRA.REPUL>
0

>  <SCORE.INTRA.REPUL.0>
0

>  <SCORE.INTRA.SOLV>
3.47958

>  <SCORE.INTRA.SOLV.lig_0>
-49.456

>  <SCORE.INTRA.VDW>
-0.776832

>  <SCORE.INTRA.VDW.0>
-0.478406

>  <SCORE.INTRA.norm>
-0.0917542

>  <SCORE.RESTR>
0

>  <SCORE.RESTR.CAVITY>
0

>  <SCORE.RESTR.norm>
0

>  <SCORE.SYSTEM>
0

>  <SCORE.SYSTEM.CONST>
0

>  <SCORE.SYSTEM.DIHEDRAL>
0

>  <SCORE.SYSTEM.SOLV>
0

>  <SCORE.SYSTEM.norm>
0

>  <SCORE.heavy>
14

>  <SCORE.norm>
-0.603169

>  <RMSD>
3.739

$$$$
ligand
 OpenBabel11021811413D
libRbt.so/2013.1/901 2013/11/27
 14 13  0  0  0  0  0  0  0  0999 V2000
   44.8970   -2.0047   13.0779 N   0  0  0  0  0  0  0  0  0  0  0  0
   45.0339   -1.9990   14.5504 C   0  0  0  0  0  0  0  0  0  0  0  0
   45.0714   -0.5572   15.1017 C   0  0  0  0  0  0  0  0  0  0  0  0
   45.3597   -0.4557   16.6085 C   0  0  0  0  0  0  0  0  0  0  0  0
   45.3469    0.9627   17.0607 N   0  0  0  0  0  0  0  0  0  0  0  0
   46.1769    1.1195   18.2827 C   0  0  0  0  0  0  0  0  0  0  0  0
   46.3888    2.5917   18.7725 C   0  0  0  0  0  0  0  0  0  0  0  0
   45.1003    3.2707   19.3195 C   0  0  0  0  0  0  0  0  0  0  0  0
   45.3572    4.5594   20.0758 C   0  0  0  0  0  0  0  0  0  0  0  0
   45.9365    5.5079   19.1435 N   0  0  0  0  0  0  0  0  0  0  0  0
   46.1412    6.7325   19.8973 C   0  0  0  0  0  0  0  0  0  0  0  0
   46.1417    7.9546   18.9864 C   0  0  0  0  0  0  0  0  0  0  0  0
   46.3663    9.1919   19.8688 C   0  0  0  0  0  0  0  0  0  0  0  0
   46.2694   10.4444   19.1044 N   0  0  0  0  0  0  0  0  0  0  0  0
  1  2  1  0  0  0  0
  2  3  1  0  0  0  0
  3  4  1  0  0  0  0
  4  5  1  0  0  0  0
  5  6  1  0  0  0  0
  6  7  1  0  0  0  0
  7  8  1  0  0  0  0
  8  9  1  0  0  0  0
  9 10  1  0  0  0  0
 10 11  1  0  0  0  0
 11 12  1  0  0  0  0
 12 13  1  0  0  0  0
 13 14  1  0  0  0  0
M  END
>  <CHROM.1>
-173.89990015,-178.70105327,-155.01466413,173.14063273,68.33948187,166.83048591
63.08093764,178.86688205,-154.54612579,-179.88390450,-175.07087867,45.68482733
3.37976585,17.84673985,2.75536384,1.46881427,2.40430106

>  <Name>
ligand

>  <RI>
0

>  <Rbt.Current_Directory>
/home/itssahil/PROJECTS/Mol_Feturizer/New_Systems/rnas/1TN2

>  <Rbt.Executable>
rbdock ($Id: //depot/dev/client3/rdock/2013.1/src/exe/rbdock.cxx#4 $)

>  <Rbt.Library>
libRbt.so (2013.1, Build901 2013/11/27)

>  <Rbt.Parameter_File>
/export/apps/rDock/src/rDock_2013.1_src/data/scripts/dock_solv.prm

>  <Rbt.Receptor>
prm/pocket_docking_8.prm

>  <SCORE>
-10.2951

>  <SCORE.INTER>
-7.05261

>  <SCORE.INTER.CONST>
1

>  <SCORE.INTER.POLAR>
0

>  <SCORE.INTER.ROT>
11

>  <SCORE.INTER.SOLV>
13.3646

>  <SCORE.INTER.VDW>
-20.0899

>  <SCORE.INTER.norm>
-0.503758

>  <SCORE.INTRA>
-3.24253

>  <SCORE.INTRA.DIHEDRAL>
-5.62134

>  <SCORE.INTRA.DIHEDRAL.0>
7.79482

>  <SCORE.INTRA.POLAR>
0

>  <SCORE.INTRA.POLAR.0>
0

>  <SCORE.INTRA.REPUL>
0

>  <SCORE.INTRA.REPUL.0>
0

>  <SCORE.INTRA.SOLV>
0.603115

>  <SCORE.INTRA.SOLV.lig_0>
-49.456

>  <SCORE.INTRA.VDW>
-0.733418

>  <SCORE.INTRA.VDW.0>
-0.478406

>  <SCORE.INTRA.norm>
-0.231609

>  <SCORE.RESTR>
0

>  <SCORE.RESTR.CAVITY>
0

>  <SCORE.RESTR.norm>
0

>  <SCORE.SYSTEM>
0

>  <SCORE.SYSTEM.CONST>
0

>  <SCORE.SYSTEM.DIHEDRAL>
0

>  <SCORE.SYSTEM.SOLV>
0

>  <SCORE.SYSTEM.norm>
0

>  <SCORE.heavy>
14

>  <SCORE.norm>
-0.735367

>  <RMSD>
3.741

$$$$
ligand
 OpenBabel11021811413D
libRbt.so/2013.1/901 2013/11/27
 14 13  0  0  0  0  0  0  0  0999 V2000
   45.6196    1.3254   16.4027 N   0  0  0  0  0  0  0  0  0  0  0  0
   45.7225    0.8902   17.8123 C   0  0  0  0  0  0  0  0  0  0  0  0
   45.1785    1.9712   18.7712 C   0  0  0  0  0  0  0  0  0  0  0  0
   45.9885    3.2779   18.7879 C   0  0  0  0  0  0  0  0  0  0  0  0
   45.3808    4.2715   19.7153 N   0  0  0  0  0  0  0  0  0  0  0  0
   46.1833    5.5215   19.7260 C   0  0  0  0  0  0  0  0  0  0  0  0
   45.5300    6.7388   20.4634 C   0  0  0  0  0  0  0  0  0  0  0  0
   46.4265    8.0094   20.5089 C   0  0  0  0  0  0  0  0  0  0  0  0
   46.6993    8.6194   19.1479 C   0  0  0  0  0  0  0  0  0  0  0  0
   47.5739    7.7134   18.4277 N   0  0  0  0  0  0  0  0  0  0  0  0
   47.4914    8.1062   17.0318 C   0  0  0  0  0  0  0  0  0  0  0  0
   47.9110    6.9696   16.1069 C   0  0  0  0  0  0  0  0  0  0  0  0
   47.7381    7.4591   14.6610 C   0  0  0  0  0  0  0  0  0  0  0  0
   48.1169    6.4329   13.6781 N   0  0  0  0  0  0  0  0  0  0  0  0
  1  2  1  0  0  0  0
  2  3  1  0  0  0  0
  3  4  1  0  0  0  0
  4  5  1  0  0  0  0
  5  6  1  0  0  0  0
  6  7  1  0  0  0  0
  7  8  1  0  0  0  0
  8  9  1  0  0  0  0
  9 10  1  0  0  0  0
 10 11  1  0  0  0  0
 11 12  1  0  0  0  0
 12 13  1  0  0  0  0
 13 14  1  0  0  0  0
M  END
>  <CHROM.1>
-65.36179910,178.85821667,179.52680920,169.85364210,177.39011894,65.14027898
-69.84291511,163.38160010,-158.48396704,177.80131406,-179.97282238,46.53995712
5.52212836,17.94616464,-2.44201592,1.17168880,0.67258090

>  <Name>
ligand

>  <RI>
0

>  <Rbt.Current_Directory>
/home/itssahil/PROJECTS/Mol_Feturizer/New_Systems/rnas/1TN2

>  <Rbt.Executable>
rbdock ($Id: //depot/dev/client3/rdock/2013.1/src/exe/rbdock.cxx#4 $)

>  <Rbt.Library>
libRbt.so (2013.1, Build901 2013/11/27)

>  <Rbt.Parameter_File>
/export/apps/rDock/src/rDock_2013.1_src/data/scripts/dock_solv.prm

>  <Rbt.Receptor>
prm/pocket_docking_7.prm

>  <SCORE>
-8.55605

>  <SCORE.INTER>
-5.60871

>  <SCORE.INTER.CONST>
1

>  <SCORE.INTER.POLAR>
0

>  <SCORE.INTER.ROT>
11

>  <SCORE.INTER.SOLV>
10.7919

>  <SCORE.INTER.VDW>
-18.2698

>  <SCORE.INTER.norm>
-0.400622

>  <SCORE.INTRA>
-2.94734

>  <SCORE.INTRA.DIHEDRAL>
-6.53097

>  <SCORE.INTRA.DIHEDRAL.0>
7.79482

>  <SCORE.INTRA.POLAR>
0

>  <SCORE.INTRA.POLAR.0>
0

>  <SCORE.INTRA.REPUL>
0

>  <SCORE.INTRA.REPUL.0>
0

>  <SCORE.INTRA.SOLV>
1.6556

>  <SCORE.INTRA.SOLV.lig_0>
-49.456

>  <SCORE.INTRA.VDW>
-0.509657

>  <SCORE.INTRA.VDW.0>
-0.478406

>  <SCORE.INTRA.norm>
-0.210524

>  <SCORE.RESTR>
0

>  <SCORE.RESTR.CAVITY>
0

>  <SCORE.RESTR.norm>
0

>  <SCORE.SYSTEM>
0

>  <SCORE.SYSTEM.CONST>
0

>  <SCORE.SYSTEM.DIHEDRAL>
0

>  <SCORE.SYSTEM.SOLV>
0

>  <SCORE.SYSTEM.norm>
0

>  <SCORE.heavy>
14

>  <SCORE.norm>
-0.611147

>  <RMSD>
3.756

$$$$
ligand
 OpenBabel11021811413D
libRbt.so/2013.1/901 2013/11/27
 14 13  0  0  0  0  0  0  0  0999 V2000
   48.5705    3.3248   13.9761 N   0  0  0  0  0  0  0  0  0  0  0  0
   48.3760    2.9946   15.4044 C   0  0  0  0  0  0  0  0  0  0  0  0
   46.8965    2.6715   15.7060 C   0  0  0  0  0  0  0  0  0  0  0  0
   46.5958    2.3698   17.1833 C   0  0  0  0  0  0  0  0  0  0  0  0
   45.1533    2.0601   17.3826 N   0  0  0  0  0  0  0  0  0  0  0  0
   44.8822    1.7763   18.8153 C   0  0  0  0  0  0  0  0  0  0  0  0
   44.3776    2.9927   19.6625 C   0  0  0  0  0  0  0  0  0  0  0  0
   45.4202    4.1373   19.8140 C   0  0  0  0  0  0  0  0  0  0  0  0
   44.9482    5.2893   20.6794 C   0  0  0  0  0  0  0  0  0  0  0  0
   46.0476    6.2281   20.7992 N   0  0  0  0  0  0  0  0  0  0  0  0
   45.8098    7.2499   19.7947 C   0  0  0  0  0  0  0  0  0  0  0  0
   46.6599    8.4894   20.0478 C   0  0  0  0  0  0  0  0  0  0  0  0
   46.4007    9.4737   18.8971 C   0  0  0  0  0  0  0  0  0  0  0  0
   45.0424   10.0355   18.9421 N   0  0  0  0  0  0  0  0  0  0  0  0
  1  2  1  0  0  0  0
  2  3  1  0  0  0  0
  3  4  1  0  0  0  0
  4  5  1  0  0  0  0
  5  6  1  0  0  0  0
  6  7  1  0  0  0  0
  7  8  1  0  0  0  0
  8  9  1  0  0  0  0
  9 10  1  0  0  0  0
 10 11  1  0  0  0  0
 11 12  1  0  0  0  0
 12 13  1  0  0  0  0
 13 14  1  0  0  0  0
M  END
>  <CHROM.1>
-177.73338422,-179.57891978,-179.80942812,95.00078373,-65.19642211,-177.74633509
176.31474122,96.74773869,164.48761870,176.81436703,69.18130128,46.08429687
4.93501966,18.36485403,-1.29280342,0.98686012,0.30089522

>  <Name>
ligand

>  <RI>
0

>  <Rbt.Current_Directory>
/home/itssahil/PROJECTS/Mol_Feturizer/New_Systems/rnas/1TN2

>  <Rbt.Executable>
rbdock ($Id: //depot/dev/client3/rdock/2013.1/src/exe/rbdock.cxx#4 $)

>  <Rbt.Library>
libRbt.so (2013.1, Build901 2013/11/27)

>  <Rbt.Parameter_File>
/export/apps/rDock/src/rDock_2013.1_src/data/scripts/dock_solv.prm

>  <Rbt.Receptor>
prm/pocket_docking_5.prm

>  <SCORE>
-6.84165

>  <SCORE.INTER>
-4.28437

>  <SCORE.INTER.CONST>
1

>  <SCORE.INTER.POLAR>
0

>  <SCORE.INTER.ROT>
11

>  <SCORE.INTER.SOLV>
11.4982

>  <SCORE.INTER.VDW>
-17.6223

>  <SCORE.INTER.norm>
-0.306026

>  <SCORE.INTRA>
-2.55728

>  <SCORE.INTRA.DIHEDRAL>
-5.49935

>  <SCORE.INTRA.DIHEDRAL.0>
7.79482

>  <SCORE.INTRA.POLAR>
0

>  <SCORE.INTRA.POLAR.0>
0

>  <SCORE.INTRA.REPUL>
0

>  <SCORE.INTRA.REPUL.0>
0

>  <SCORE.INTRA.SOLV>
0.985261

>  <SCORE.INTRA.SOLV.lig_0>
-49.456

>  <SCORE.INTRA.VDW>
-0.30024

>  <SCORE.INTRA.VDW.0>
-0.478406

>  <SCORE.INTRA.norm>
-0.182663

>  <SCORE.RESTR>
0

>  <SCORE.RESTR.CAVITY>
0

>  <SCORE.RESTR.norm>
0

>  <SCORE.SYSTEM>
0

>  <SCORE.SYSTEM.CONST>
0

>  <SCORE.SYSTEM.DIHEDRAL>
0

>  <SCORE.SYSTEM.SOLV>
0

>  <SCORE.SYSTEM.norm>
0

>  <SCORE.heavy>
14

>  <SCORE.norm>
-0.488689

>  <RMSD>
3.759

$$$$
ligand
 OpenBabel11021811413D
libRbt.so/2013.1/901 2013/11/27
 14 13  0  0  0  0  0  0  0  0999 V2000
   47.3920    3.2715   14.1376 N   0  0  0  0  0  0  0  0  0  0  0  0
   46.7602    1.9645   14.4197 C   0  0  0  0  0  0  0  0  0  0  0  0
   45.8344    2.0467   15.6526 C   0  0  0  0  0  0  0  0  0  0  0  0
   46.5526    2.3787   16.9710 C   0  0  0  0  0  0  0  0  0  0  0  0
   45.5925    2.4142   18.1083 N   0  0  0  0  0  0  0  0  0  0  0  0
   46.0540    3.3783   19.1399 C   0  0  0  0  0  0  0  0  0  0  0  0
   44.9387    4.2760   19.7743 C   0  0  0  0  0  0  0  0  0  0  0  0
   45.4763    5.3625   20.7495 C   0  0  0  0  0  0  0  0  0  0  0  0
   44.4091    6.3068   21.2675 C   0  0  0  0  0  0  0  0  0  0  0  0
   43.9285    7.0863   20.1425 N   0  0  0  0  0  0  0  0  0  0  0  0
   42.6259    7.5934   20.5371 C   0  0  0  0  0  0  0  0  0  0  0  0
   42.1178    8.6466   19.5594 C   0  0  0  0  0  0  0  0  0  0  0  0
   40.7586    9.1427   20.0756 C   0  0  0  0  0  0  0  0  0  0  0  0
   39.7371    8.0850   20.0557 N   0  0  0  0  0  0  0  0  0  0  0  0
  1  2  1  0  0  0  0
  2  3  1  0  0  0  0
  3  4  1  0  0  0  0
  4  5  1  0  0  0  0
  5  6  1  0  0  0  0
  6  7  1  0  0  0  0
  7  8  1  0  0  0  0
  8  9  1  0  0  0  0
  9 10  1  0  0  0  0
 10 11  1  0  0  0  0
 11 12  1  0  0  0  0
 12 13  1  0  0  0  0
 13 14  1  0  0  0  0
M  END
>  <CHROM.1>
-63.58084470,-178.98566385,-149.75549397,138.42839399,-174.52299322,174.91984709
-66.42493518,159.49448501,169.12111459,-178.71420118,-65.14117912,44.44138412
5.13948585,18.61381443,0.70067487,0.76242325,-1.78457617

>  <Name>
ligand

>  <RI>
0

>  <Rbt.Current_Directory>
/home/itssahil/PROJECTS/Mol_Feturizer/New_Systems/rnas/1TN2

>  <Rbt.Executable>
rbdock ($Id: //depot/dev/client3/rdock/2013.1/src/exe/rbdock.cxx#4 $)

>  <Rbt.Library>
libRbt.so (2013.1, Build901 2013/11/27)

>  <Rbt.Parameter_File>
/export/apps/rDock/src/rDock_2013.1_src/data/scripts/dock_solv.prm

>  <Rbt.Receptor>
prm/pocket_docking_8.prm

>  <SCORE>
-9.89544

>  <SCORE.INTER>
-7.58751

>  <SCORE.INTER.CONST>
1

>  <SCORE.INTER.POLAR>
0

>  <SCORE.INTER.ROT>
11

>  <SCORE.INTER.SOLV>
13.4957

>  <SCORE.INTER.VDW>
-20.4902

>  <SCORE.INTER.norm>
-0.541965

>  <SCORE.INTRA>
-2.30794

>  <SCORE.INTRA.DIHEDRAL>
-5.3039

>  <SCORE.INTRA.DIHEDRAL.0>
7.79482

>  <SCORE.INTRA.POLAR>
0

>  <SCORE.INTRA.POLAR.0>
0

>  <SCORE.INTRA.REPUL>
0

>  <SCORE.INTRA.REPUL.0>
0

>  <SCORE.INTRA.SOLV>
1.83596

>  <SCORE.INTRA.SOLV.lig_0>
-49.456

>  <SCORE.INTRA.VDW>
-0.573968

>  <SCORE.INTRA.VDW.0>
-0.478406

>  <SCORE.INTRA.norm>
-0.164853

>  <SCORE.RESTR>
0

>  <SCORE.RESTR.CAVITY>
0

>  <SCORE.RESTR.norm>
0

>  <SCORE.SYSTEM>
0

>  <SCORE.SYSTEM.CONST>
0

>  <SCORE.SYSTEM.DIHEDRAL>
0

>  <SCORE.SYSTEM.SOLV>
0

>  <SCORE.SYSTEM.norm>
0

>  <SCORE.heavy>
14

>  <SCORE.norm>
-0.706817

>  <RMSD>
3.759

$$$$
ligand
 OpenBabel11021811413D
libRbt.so/2013.1/901 2013/11/27
 14 13  0  0  0  0  0  0  0  0999 V2000
   45.9204   -1.9800   13.3943 N   0  0  0  0  0  0  0  0  0  0  0  0
   45.6199   -1.3725   14.7087 C   0  0  0  0  0  0  0  0  0  0  0  0
   44.6090   -0.2137   14.5699 C   0  0  0  0  0  0  0  0  0  0  0  0
   44.3055    0.5311   15.8803 C   0  0  0  0  0  0  0  0  0  0  0  0
   45.5236    1.2071   16.4052 N   0  0  0  0  0  0  0  0  0  0  0  0
   45.6812    0.9273   17.8556 C   0  0  0  0  0  0  0  0  0  0  0  0
   46.3878    2.0495   18.6884 C   0  0  0  0  0  0  0  0  0  0  0  0
   45.6243    3.4050   18.7038 C   0  0  0  0  0  0  0  0  0  0  0  0
   46.2370    4.4461   19.6202 C   0  0  0  0  0  0  0  0  0  0  0  0
   45.5032    5.6832   19.4322 N   0  0  0  0  0  0  0  0  0  0  0  0
   46.0774    6.6329   20.3693 C   0  0  0  0  0  0  0  0  0  0  0  0
   45.7474    8.0692   19.9803 C   0  0  0  0  0  0  0  0  0  0  0  0
   46.4489    8.3620   18.6453 C   0  0  0  0  0  0  0  0  0  0  0  0
   46.2382    9.7474   18.1992 N   0  0  0  0  0  0  0  0  0  0  0  0
  1  2  1  0  0  0  0
  2  3  1  0  0  0  0
  3  4  1  0  0  0  0
  4  5  1  0  0  0  0
  5  6  1  0  0  0  0
  6  7  1  0  0  0  0
  7  8  1  0  0  0  0
  8  9  1  0  0  0  0
  9 10  1  0  0  0  0
 10 11  1  0  0  0  0
 11 12  1  0  0  0  0
 12 13  1  0  0  0  0
 13 14  1  0  0  0  0
M  END
>  <CHROM.1>
-176.44863482,63.70237344,-132.87106167,-149.99090634,62.28607462,174.25135786
174.54516336,177.38697781,160.94498534,-65.61560277,-177.81434139,45.70881650
3.39236079,17.60406201,2.51715654,1.47656103,2.67492753

>  <Name>
ligand

>  <RI>
0

>  <Rbt.Current_Directory>
/home/itssahil/PROJECTS/Mol_Feturizer/New_Systems/rnas/1TN2

>  <Rbt.Executable>
rbdock ($Id: //depot/dev/client3/rdock/2013.1/src/exe/rbdock.cxx#4 $)

>  <Rbt.Library>
libRbt.so (2013.1, Build901 2013/11/27)

>  <Rbt.Parameter_File>
/export/apps/rDock/src/rDock_2013.1_src/data/scripts/dock_solv.prm

>  <Rbt.Receptor>
prm/pocket_docking_5.prm

>  <SCORE>
-9.84948

>  <SCORE.INTER>
-6.90637

>  <SCORE.INTER.CONST>
1

>  <SCORE.INTER.POLAR>
0

>  <SCORE.INTER.ROT>
11

>  <SCORE.INTER.SOLV>
9.61838

>  <SCORE.INTER.VDW>
-18.7437

>  <SCORE.INTER.norm>
-0.493312

>  <SCORE.INTRA>
-2.94311

>  <SCORE.INTRA.DIHEDRAL>
-5.34052

>  <SCORE.INTRA.DIHEDRAL.0>
7.79482

>  <SCORE.INTRA.POLAR>
0

>  <SCORE.INTRA.POLAR.0>
0

>  <SCORE.INTRA.REPUL>
0

>  <SCORE.INTRA.REPUL.0>
0

>  <SCORE.INTRA.SOLV>
1.01194

>  <SCORE.INTRA.SOLV.lig_0>
-49.456

>  <SCORE.INTRA.VDW>
-0.778818

>  <SCORE.INTRA.VDW.0>
-0.478406

>  <SCORE.INTRA.norm>
-0.210222

>  <SCORE.RESTR>
0

>  <SCORE.RESTR.CAVITY>
0

>  <SCORE.RESTR.norm>
0

>  <SCORE.SYSTEM>
0

>  <SCORE.SYSTEM.CONST>
0

>  <SCORE.SYSTEM.DIHEDRAL>
0

>  <SCORE.SYSTEM.SOLV>
0

>  <SCORE.SYSTEM.norm>
0

>  <SCORE.heavy>
14

>  <SCORE.norm>
-0.703534

>  <RMSD>
3.767

$$$$
ligand
 OpenBabel11021811413D
libRbt.so/2013.1/901 2013/11/27
 14 13  0  0  0  0  0  0  0  0999 V2000
   45.0632   -1.6782   13.1434 N   0  0  0  0  0  0  0  0  0  0  0  0
   44.9245   -2.1223   14.5472 C   0  0  0  0  0  0  0  0  0  0  0  0
   45.5188   -1.0833   15.5225 C   0  0  0  0  0  0  0  0  0  0  0  0
   44.7912    0.2711   15.5360 C   0  0  0  0  0  0  0  0  0  0  0  0
   45.4707    1.2338   16.4459 N   0  0  0  0  0  0  0  0  0  0  0  0
   44.9004    1.1371   17.8141 C   0  0  0  0  0  0  0  0  0  0  0  0
   44.8877    2.4690   18.6376 C   0  0  0  0  0  0  0  0  0  0  0  0
   46.2985    3.0762   18.8850 C   0  0  0  0  0  0  0  0  0  0  0  0
   46.3055    4.2421   19.8543 C   0  0  0  0  0  0  0  0  0  0  0  0
   45.6825    5.3705   19.1887 N   0  0  0  0  0  0  0  0  0  0  0  0
   46.1644    6.5548   19.8780 C   0  0  0  0  0  0  0  0  0  0  0  0
   45.7204    7.8305   19.1718 C   0  0  0  0  0  0  0  0  0  0  0  0
   46.3856    9.0146   19.8896 C   0  0  0  0  0  0  0  0  0  0  0  0
   46.0606   10.3016   19.2564 N   0  0  0  0  0  0  0  0  0  0  0  0
  1  2  1  0  0  0  0
  2  3  1  0  0  0  0
  3  4  1  0  0  0  0
  4  5  1  0  0  0  0
  5  6  1  0  0  0  0
  6  7  1  0  0  0  0
  7  8  1  0  0  0  0
  8  9  1  0  0  0  0
  9 10  1  0  0  0  0
 10 11  1  0  0  0  0
 11 12  1  0  0  0  0
 12 13  1  0  0  0  0
 13 14  1  0  0  0  0
M  END
>  <CHROM.1>
64.70917063,-176.96702241,-90.55082278,-148.08457349,-60.64860810,-171.19364450
-71.12436176,-157.83783108,173.03694709,-174.63942153,177.99235447,45.58385137
3.32962355,17.69818175,2.56182753,1.45362083,2.62408780

>  <Name>
ligand

>  <RI>
0

>  <Rbt.Current_Directory>
/home/itssahil/PROJECTS/Mol_Feturizer/New_Systems/rnas/1TN2

>  <Rbt.Executable>
rbdock ($Id: //depot/dev/client3/rdock/2013.1/src/exe/rbdock.cxx#4 $)

>  <Rbt.Library>
libRbt.so (2013.1, Build901 2013/11/27)

>  <Rbt.Parameter_File>
/export/apps/rDock/src/rDock_2013.1_src/data/scripts/dock_solv.prm

>  <Rbt.Receptor>
prm/blind_docking_100.prm

>  <SCORE>
-8.82961

>  <SCORE.INTER>
-6.39341

>  <SCORE.INTER.CONST>
1

>  <SCORE.INTER.POLAR>
0

>  <SCORE.INTER.ROT>
11

>  <SCORE.INTER.SOLV>
12.551

>  <SCORE.INTER.VDW>
-19.3793

>  <SCORE.INTER.norm>
-0.456672

>  <SCORE.INTRA>
-2.4362

>  <SCORE.INTRA.DIHEDRAL>
-5.09966

>  <SCORE.INTRA.DIHEDRAL.0>
7.79482

>  <SCORE.INTRA.POLAR>
0

>  <SCORE.INTRA.POLAR.0>
0

>  <SCORE.INTRA.REPUL>
0

>  <SCORE.INTRA.REPUL.0>
0

>  <SCORE.INTRA.SOLV>
1.29312

>  <SCORE.INTRA.SOLV.lig_0>
-49.456

>  <SCORE.INTRA.VDW>
-0.532929

>  <SCORE.INTRA.VDW.0>
-0.478406

>  <SCORE.INTRA.norm>
-0.174014

>  <SCORE.RESTR>
0

>  <SCORE.RESTR.CAVITY>
0

>  <SCORE.RESTR.norm>
0

>  <SCORE.SYSTEM>
0

>  <SCORE.SYSTEM.CONST>
0

>  <SCORE.SYSTEM.DIHEDRAL>
0

>  <SCORE.SYSTEM.SOLV>
0

>  <SCORE.SYSTEM.norm>
0

>  <SCORE.heavy>
14

>  <SCORE.norm>
-0.630686

>  <RMSD>
3.790

$$$$
ligand
 OpenBabel11021811413D
libRbt.so/2013.1/901 2013/11/27
 14 13  0  0  0  0  0  0  0  0999 V2000
   45.7583    9.2053   18.3955 N   0  0  0  0  0  0  0  0  0  0  0  0
   45.4118    8.7621   19.7632 C   0  0  0  0  0  0  0  0  0  0  0  0
   46.4093    7.7008   20.2755 C   0  0  0  0  0  0  0  0  0  0  0  0
   46.3520    6.3567   19.5312 C   0  0  0  0  0  0  0  0  0  0  0  0
   45.0480    5.6753   19.7584 N   0  0  0  0  0  0  0  0  0  0  0  0
   45.2579    4.2182   19.9574 C   0  0  0  0  0  0  0  0  0  0  0  0
   45.4386    3.3757   18.6498 C   0  0  0  0  0  0  0  0  0  0  0  0
   45.5846    1.8463   18.8948 C   0  0  0  0  0  0  0  0  0  0  0  0
   45.8052    1.0388   17.6306 C   0  0  0  0  0  0  0  0  0  0  0  0
   44.5682    1.0617   16.8732 N   0  0  0  0  0  0  0  0  0  0  0  0
   44.9469    1.3522   15.5013 C   0  0  0  0  0  0  0  0  0  0  0  0
   44.6791    0.1637   14.5853 C   0  0  0  0  0  0  0  0  0  0  0  0
   45.6067   -0.9795   15.0240 C   0  0  0  0  0  0  0  0  0  0  0  0
   45.5397   -2.1306   14.1112 N   0  0  0  0  0  0  0  0  0  0  0  0
  1  2  1  0  0  0  0
  2  3  1  0  0  0  0
  3  4  1  0  0  0  0
  4  5  1  0  0  0  0
  5  6  1  0  0  0  0
  6  7  1  0  0  0  0
  7  8  1  0  0  0  0
  8  9  1  0  0  0  0
  9 10  1  0  0  0  0
 10 11  1  0  0  0  0
 11 12  1  0  0  0  0
 12 13  1  0  0  0  0
 13 14  1  0  0  0  0
M  END
>  <CHROM.1>
-67.28212532,-65.64113537,-139.22820073,-81.05559952,-177.09489326,-178.08616804
-69.79701790,133.93092256,113.09252802,-65.21795285,-173.61697565,45.45769298
3.40330192,17.78245348,0.79391413,-1.48802328,-0.28190729

>  <Name>
ligand

>  <RI>
0

>  <Rbt.Current_Directory>
/home/itssahil/PROJECTS/Mol_Feturizer/New_Systems/rnas/1TN2

>  <Rbt.Executable>
rbdock ($Id: //depot/dev/client3/rdock/2013.1/src/exe/rbdock.cxx#4 $)

>  <Rbt.Library>
libRbt.so (2013.1, Build901 2013/11/27)

>  <Rbt.Parameter_File>
/export/apps/rDock/src/rDock_2013.1_src/data/scripts/dock_solv.prm

>  <Rbt.Receptor>
prm/pocket_docking_7.prm

>  <SCORE>
-6.27631

>  <SCORE.INTER>
-5.53347

>  <SCORE.INTER.CONST>
1

>  <SCORE.INTER.POLAR>
0

>  <SCORE.INTER.ROT>
11

>  <SCORE.INTER.SOLV>
12.394

>  <SCORE.INTER.VDW>
-18.7536

>  <SCORE.INTER.norm>
-0.395248

>  <SCORE.INTRA>
-0.742843

>  <SCORE.INTRA.DIHEDRAL>
-3.36111

>  <SCORE.INTRA.DIHEDRAL.0>
7.79482

>  <SCORE.INTRA.POLAR>
0

>  <SCORE.INTRA.POLAR.0>
0

>  <SCORE.INTRA.REPUL>
0

>  <SCORE.INTRA.REPUL.0>
0

>  <SCORE.INTRA.SOLV>
2.24229

>  <SCORE.INTRA.SOLV.lig_0>
-49.456

>  <SCORE.INTRA.VDW>
-0.18343

>  <SCORE.INTRA.VDW.0>
-0.478406

>  <SCORE.INTRA.norm>
-0.0530602

>  <SCORE.RESTR>
0

>  <SCORE.RESTR.CAVITY>
0

>  <SCORE.RESTR.norm>
0

>  <SCORE.SYSTEM>
0

>  <SCORE.SYSTEM.CONST>
0

>  <SCORE.SYSTEM.DIHEDRAL>
0

>  <SCORE.SYSTEM.SOLV>
0

>  <SCORE.SYSTEM.norm>
0

>  <SCORE.heavy>
14

>  <SCORE.norm>
-0.448308

>  <RMSD>
3.801

$$$$
ligand
 OpenBabel11021811413D
libRbt.so/2013.1/901 2013/11/27
 14 13  0  0  0  0  0  0  0  0999 V2000
   47.6136    7.8696   16.5784 N   0  0  0  0  0  0  0  0  0  0  0  0
   48.0927    7.8946   17.9773 C   0  0  0  0  0  0  0  0  0  0  0  0
   46.9247    8.1118   18.9634 C   0  0  0  0  0  0  0  0  0  0  0  0
   45.9739    6.9117   19.1034 C   0  0  0  0  0  0  0  0  0  0  0  0
   46.6357    5.7862   19.8188 N   0  0  0  0  0  0  0  0  0  0  0  0
   45.8454    4.5390   19.6561 C   0  0  0  0  0  0  0  0  0  0  0  0
   45.9506    3.8492   18.2543 C   0  0  0  0  0  0  0  0  0  0  0  0
   44.7845    2.8684   17.9399 C   0  0  0  0  0  0  0  0  0  0  0  0
   44.8511    1.5654   18.7121 C   0  0  0  0  0  0  0  0  0  0  0  0
   46.0123    0.8344   18.2414 N   0  0  0  0  0  0  0  0  0  0  0  0
   45.6600    0.3330   16.9245 C   0  0  0  0  0  0  0  0  0  0  0  0
   45.7132   -1.1895   16.8749 C   0  0  0  0  0  0  0  0  0  0  0  0
   45.6671   -1.6082   15.3975 C   0  0  0  0  0  0  0  0  0  0  0  0
   44.5072   -1.0393   14.6948 N   0  0  0  0  0  0  0  0  0  0  0  0
  1  2  1  0  0  0  0
  2  3  1  0  0  0  0
  3  4  1  0  0  0  0
  4  5  1  0  0  0  0
  5  6  1  0  0  0  0
  6  7  1  0  0  0  0
  7  8  1  0  0  0  0
  8  9  1  0  0  0  0
  9 10  1  0  0  0  0
 10 11  1  0  0  0  0
 11 12  1  0  0  0  0
 12 13  1  0  0  0  0
 13 14  1  0  0  0  0
M  END
>  <CHROM.1>
70.87134813,70.36939776,-166.14350352,75.16464713,-160.03465510,-73.26772249
-67.04239640,-73.60102530,-119.55717785,-166.50756637,-54.49130307,46.01650672
3.33758039,17.79567448,-1.00031158,-1.18780993,-2.33335767

>  <Name>
ligand

>  <RI>
0

>  <Rbt.Current_Directory>
/home/itssahil/PROJECTS/Mol_Feturizer/New_Systems/rnas/1TN2

>  <Rbt.Executable>
rbdock ($Id: //depot/dev/client3/rdock/2013.1/src/exe/rbdock.cxx#4 $)

>  <Rbt.Library>
libRbt.so (2013.1, Build901 2013/11/27)

>  <Rbt.Parameter_File>
/export/apps/rDock/src/rDock_2013.1_src/data/scripts/dock_solv.prm

>  <Rbt.Receptor>
prm/pocket_docking_2.prm

>  <SCORE>
-0.48133

>  <SCORE.INTER>
-3.46397

>  <SCORE.INTER.CONST>
1

>  <SCORE.INTER.POLAR>
0

>  <SCORE.INTER.ROT>
11

>  <SCORE.INTER.SOLV>
16.8068

>  <SCORE.INTER.VDW>
-18.8449

>  <SCORE.INTER.norm>
-0.247427

>  <SCORE.INTRA>
2.2634

>  <SCORE.INTRA.DIHEDRAL>
-2.2416

>  <SCORE.INTRA.DIHEDRAL.0>
7.79482

>  <SCORE.INTRA.POLAR>
0

>  <SCORE.INTRA.POLAR.0>
0

>  <SCORE.INTRA.REPUL>
0

>  <SCORE.INTRA.REPUL.0>
0

>  <SCORE.INTRA.SOLV>
2.82955

>  <SCORE.INTRA.SOLV.lig_0>
-49.456

>  <SCORE.INTRA.VDW>
1.96943

>  <SCORE.INTRA.VDW.0>
-0.478406

>  <SCORE.INTRA.norm>
0.161671

>  <SCORE.RESTR>
0.719243

>  <SCORE.RESTR.CAVITY>
0.719243

>  <SCORE.RESTR.norm>
0.0513745

>  <SCORE.SYSTEM>
0

>  <SCORE.SYSTEM.CONST>
0

>  <SCORE.SYSTEM.DIHEDRAL>
0

>  <SCORE.SYSTEM.SOLV>
0

>  <SCORE.SYSTEM.norm>
0

>  <SCORE.heavy>
14

>  <SCORE.norm>
-0.0343807

>  <RMSD>
3.810

$$$$
ligand
 OpenBabel11021811413D
libRbt.so/2013.1/901 2013/11/27
 14 13  0  0  0  0  0  0  0  0999 V2000
   45.4384    9.7841   19.0181 N   0  0  0  0  0  0  0  0  0  0  0  0
   46.5470    9.1840   19.7914 C   0  0  0  0  0  0  0  0  0  0  0  0
   46.8036    7.7244   19.3579 C   0  0  0  0  0  0  0  0  0  0  0  0
   45.6563    6.7514   19.6756 C   0  0  0  0  0  0  0  0  0  0  0  0
   45.9190    5.4069   19.0928 N   0  0  0  0  0  0  0  0  0  0  0  0
   45.1925    4.3635   19.8610 C   0  0  0  0  0  0  0  0  0  0  0  0
   44.9191    3.0258   19.0941 C   0  0  0  0  0  0  0  0  0  0  0  0
   46.2019    2.3266   18.5595 C   0  0  0  0  0  0  0  0  0  0  0  0
   45.9561    0.9448   17.9858 C   0  0  0  0  0  0  0  0  0  0  0  0
   45.1325    1.1008   16.8018 N   0  0  0  0  0  0  0  0  0  0  0  0
   45.3497   -0.0944   16.0056 C   0  0  0  0  0  0  0  0  0  0  0  0
   44.5589   -0.0484   14.7034 C   0  0  0  0  0  0  0  0  0  0  0  0
   44.9325   -1.2958   13.8884 C   0  0  0  0  0  0  0  0  0  0  0  0
   44.4783   -2.5372   14.5330 N   0  0  0  0  0  0  0  0  0  0  0  0
  1  2  1  0  0  0  0
  2  3  1  0  0  0  0
  3  4  1  0  0  0  0
  4  5  1  0  0  0  0
  5  6  1  0  0  0  0
  6  7  1  0  0  0  0
  7  8  1  0  0  0  0
  8  9  1  0  0  0  0
  9 10  1  0  0  0  0
 10 11  1  0  0  0  0
 11 12  1  0  0  0  0
 12 13  1  0  0  0  0
 13 14  1  0  0  0  0
M  END
>  <CHROM.1>
-65.99412447,173.68520809,154.76486113,157.71006912,57.55321837,172.10589630
65.65808338,158.05034466,-178.75623428,175.83493761,66.35302225,45.50624210
3.33114078,17.74075801,0.81060274,-1.40830953,-0.29879231

>  <Name>
ligand

>  <RI>
0

>  <Rbt.Current_Directory>
/home/itssahil/PROJECTS/Mol_Feturizer/New_Systems/rnas/1TN2

>  <Rbt.Executable>
rbdock ($Id: //depot/dev/client3/rdock/2013.1/src/exe/rbdock.cxx#4 $)

>  <Rbt.Library>
libRbt.so (2013.1, Build901 2013/11/27)

>  <Rbt.Parameter_File>
/export/apps/rDock/src/rDock_2013.1_src/data/scripts/dock_solv.prm

>  <Rbt.Receptor>
prm/blind_docking_80.prm

>  <SCORE>
-7.96681

>  <SCORE.INTER>
-5.59198

>  <SCORE.INTER.CONST>
1

>  <SCORE.INTER.POLAR>
0

>  <SCORE.INTER.ROT>
11

>  <SCORE.INTER.SOLV>
15.357

>  <SCORE.INTER.VDW>
-19.7803

>  <SCORE.INTER.norm>
-0.399427

>  <SCORE.INTRA>
-2.37483

>  <SCORE.INTRA.DIHEDRAL>
-5.72133

>  <SCORE.INTRA.DIHEDRAL.0>
7.79482

>  <SCORE.INTRA.POLAR>
0

>  <SCORE.INTRA.POLAR.0>
0

>  <SCORE.INTRA.REPUL>
0

>  <SCORE.INTRA.REPUL.0>
0

>  <SCORE.INTRA.SOLV>
2.10192

>  <SCORE.INTRA.SOLV.lig_0>
-49.456

>  <SCORE.INTRA.VDW>
-0.565123

>  <SCORE.INTRA.VDW.0>
-0.478406

>  <SCORE.INTRA.norm>
-0.169631

>  <SCORE.RESTR>
0

>  <SCORE.RESTR.CAVITY>
0

>  <SCORE.RESTR.norm>
0

>  <SCORE.SYSTEM>
0

>  <SCORE.SYSTEM.CONST>
0

>  <SCORE.SYSTEM.DIHEDRAL>
0

>  <SCORE.SYSTEM.SOLV>
0

>  <SCORE.SYSTEM.norm>
0

>  <SCORE.heavy>
14

>  <SCORE.norm>
-0.569058

>  <RMSD>
3.812

$$$$
ligand
 OpenBabel11021811413D
libRbt.so/2013.1/901 2013/11/27
 14 13  0  0  0  0  0  0  0  0999 V2000
   48.9192    3.1130   13.9647 N   0  0  0  0  0  0  0  0  0  0  0  0
   48.7081    2.8645   15.4072 C   0  0  0  0  0  0  0  0  0  0  0  0
   47.2088    2.6826   15.7286 C   0  0  0  0  0  0  0  0  0  0  0  0
   46.8973    2.4459   17.2155 C   0  0  0  0  0  0  0  0  0  0  0  0
   45.4361    2.2604   17.4323 N   0  0  0  0  0  0  0  0  0  0  0  0
   45.1489    2.0954   18.8805 C   0  0  0  0  0  0  0  0  0  0  0  0
   44.8064    3.4116   19.6566 C   0  0  0  0  0  0  0  0  0  0  0  0
   45.9897    4.4168   19.7556 C   0  0  0  0  0  0  0  0  0  0  0  0
   45.6545    5.6899   20.5078 C   0  0  0  0  0  0  0  0  0  0  0  0
   44.5549    6.3335   19.8144 N   0  0  0  0  0  0  0  0  0  0  0  0
   44.4328    7.6558   20.4027 C   0  0  0  0  0  0  0  0  0  0  0  0
   43.2156    8.3967   19.8616 C   0  0  0  0  0  0  0  0  0  0  0  0
   41.9657    7.6154   20.2943 C   0  0  0  0  0  0  0  0  0  0  0  0
   40.7275    8.2181   19.7781 N   0  0  0  0  0  0  0  0  0  0  0  0
  1  2  1  0  0  0  0
  2  3  1  0  0  0  0
  3  4  1  0  0  0  0
  4  5  1  0  0  0  0
  5  6  1  0  0  0  0
  6  7  1  0  0  0  0
  7  8  1  0  0  0  0
  8  9  1  0  0  0  0
  9 10  1  0  0  0  0
 10 11  1  0  0  0  0
 11 12  1  0  0  0  0
 12 13  1  0  0  0  0
 13 14  1  0  0  0  0
M  END
>  <CHROM.1>
-178.88783015,-179.11121224,-177.41165755,92.22151691,-66.12744297,-179.99144361
-59.40643216,-169.42441367,-174.19561347,63.82879265,-177.78966697,45.26195302
4.79989431,18.47886647,-0.33988302,0.88422110,-0.43026083

>  <Name>
ligand

>  <RI>
0

>  <Rbt.Current_Directory>
/home/itssahil/PROJECTS/Mol_Feturizer/New_Systems/rnas/1TN2

>  <Rbt.Executable>
rbdock ($Id: //depot/dev/client3/rdock/2013.1/src/exe/rbdock.cxx#4 $)

>  <Rbt.Library>
libRbt.so (2013.1, Build901 2013/11/27)

>  <Rbt.Parameter_File>
/export/apps/rDock/src/rDock_2013.1_src/data/scripts/dock_solv.prm

>  <Rbt.Receptor>
prm/blind_docking_100.prm

>  <SCORE>
-9.60995

>  <SCORE.INTER>
-6.33867

>  <SCORE.INTER.CONST>
1

>  <SCORE.INTER.POLAR>
0

>  <SCORE.INTER.ROT>
11

>  <SCORE.INTER.SOLV>
13.7349

>  <SCORE.INTER.VDW>
-19.7374

>  <SCORE.INTER.norm>
-0.452762

>  <SCORE.INTRA>
-3.27128

>  <SCORE.INTRA.DIHEDRAL>
-6.77895

>  <SCORE.INTRA.DIHEDRAL.0>
7.79482

>  <SCORE.INTRA.POLAR>
0

>  <SCORE.INTRA.POLAR.0>
0

>  <SCORE.INTRA.REPUL>
0

>  <SCORE.INTRA.REPUL.0>
0

>  <SCORE.INTRA.SOLV>
1.13443

>  <SCORE.INTRA.SOLV.lig_0>
-49.456

>  <SCORE.INTRA.VDW>
-0.44902

>  <SCORE.INTRA.VDW.0>
-0.478406

>  <SCORE.INTRA.norm>
-0.233663

>  <SCORE.RESTR>
0

>  <SCORE.RESTR.CAVITY>
0

>  <SCORE.RESTR.norm>
0

>  <SCORE.SYSTEM>
0

>  <SCORE.SYSTEM.CONST>
0

>  <SCORE.SYSTEM.DIHEDRAL>
0

>  <SCORE.SYSTEM.SOLV>
0

>  <SCORE.SYSTEM.norm>
0

>  <SCORE.heavy>
14

>  <SCORE.norm>
-0.686425

>  <RMSD>
3.829

$$$$
ligand
 OpenBabel11021811413D
libRbt.so/2013.1/901 2013/11/27
 14 13  0  0  0  0  0  0  0  0999 V2000
   46.2597    9.6563   18.2072 N   0  0  0  0  0  0  0  0  0  0  0  0
   45.5655    8.5266   18.8622 C   0  0  0  0  0  0  0  0  0  0  0  0
   46.5053    7.7834   19.8361 C   0  0  0  0  0  0  0  0  0  0  0  0
   45.8866    6.5425   20.5005 C   0  0  0  0  0  0  0  0  0  0  0  0
   45.6141    5.4783   19.4957 N   0  0  0  0  0  0  0  0  0  0  0  0
   44.9642    4.3118   20.1467 C   0  0  0  0  0  0  0  0  0  0  0  0
   44.8268    3.0302   19.2574 C   0  0  0  0  0  0  0  0  0  0  0  0
   46.1799    2.4822   18.7197 C   0  0  0  0  0  0  0  0  0  0  0  0
   46.0772    1.1135   18.0755 C   0  0  0  0  0  0  0  0  0  0  0  0
   45.2548    1.2473   16.8881 N   0  0  0  0  0  0  0  0  0  0  0  0
   45.4278    0.0126   16.1429 C   0  0  0  0  0  0  0  0  0  0  0  0
   44.5415   -0.0194   14.9033 C   0  0  0  0  0  0  0  0  0  0  0  0
   44.9400   -1.2529   14.0788 C   0  0  0  0  0  0  0  0  0  0  0  0
   44.5976   -2.5106   14.7597 N   0  0  0  0  0  0  0  0  0  0  0  0
  1  2  1  0  0  0  0
  2  3  1  0  0  0  0
  3  4  1  0  0  0  0
  4  5  1  0  0  0  0
  5  6  1  0  0  0  0
  6  7  1  0  0  0  0
  7  8  1  0  0  0  0
  8  9  1  0  0  0  0
  9 10  1  0  0  0  0
 10 11  1  0  0  0  0
 11 12  1  0  0  0  0
 12 13  1  0  0  0  0
 13 14  1  0  0  0  0
M  END
>  <CHROM.1>
-176.62371871,66.20628406,-177.59437944,-170.66207547,58.36825161,169.49590239
65.17772034,167.34687408,176.32865620,171.83951060,67.51761751,45.47437808
3.31435556,17.84835156,0.11085624,-1.46860407,-1.01109175

>  <Name>
ligand

>  <RI>
0

>  <Rbt.Current_Directory>
/home/itssahil/PROJECTS/Mol_Feturizer/New_Systems/rnas/1TN2

>  <Rbt.Executable>
rbdock ($Id: //depot/dev/client3/rdock/2013.1/src/exe/rbdock.cxx#4 $)

>  <Rbt.Library>
libRbt.so (2013.1, Build901 2013/11/27)

>  <Rbt.Parameter_File>
/export/apps/rDock/src/rDock_2013.1_src/data/scripts/dock_solv.prm

>  <Rbt.Receptor>
prm/pocket_docking_8.prm

>  <SCORE>
-8.68904

>  <SCORE.INTER>
-5.69943

>  <SCORE.INTER.CONST>
1

>  <SCORE.INTER.POLAR>
0

>  <SCORE.INTER.ROT>
11

>  <SCORE.INTER.SOLV>
13.694

>  <SCORE.INTER.VDW>
-19.2976

>  <SCORE.INTER.norm>
-0.407102

>  <SCORE.INTRA>
-2.9896

>  <SCORE.INTRA.DIHEDRAL>
-6.37297

>  <SCORE.INTRA.DIHEDRAL.0>
7.79482

>  <SCORE.INTRA.POLAR>
0

>  <SCORE.INTRA.POLAR.0>
0

>  <SCORE.INTRA.REPUL>
0

>  <SCORE.INTRA.REPUL.0>
0

>  <SCORE.INTRA.SOLV>
1.68726

>  <SCORE.INTRA.SOLV.lig_0>
-49.456

>  <SCORE.INTRA.VDW>
-0.646747

>  <SCORE.INTRA.VDW.0>
-0.478406

>  <SCORE.INTRA.norm>
-0.213543

>  <SCORE.RESTR>
0

>  <SCORE.RESTR.CAVITY>
0

>  <SCORE.RESTR.norm>
0

>  <SCORE.SYSTEM>
0

>  <SCORE.SYSTEM.CONST>
0

>  <SCORE.SYSTEM.DIHEDRAL>
0

>  <SCORE.SYSTEM.SOLV>
0

>  <SCORE.SYSTEM.norm>
0

>  <SCORE.heavy>
14

>  <SCORE.norm>
-0.620645

>  <RMSD>
3.829

$$$$
ligand
 OpenBabel11021811413D
libRbt.so/2013.1/901 2013/11/27
 14 13  0  0  0  0  0  0  0  0999 V2000
   45.0991   -1.3992   13.5575 N   0  0  0  0  0  0  0  0  0  0  0  0
   45.1136   -1.9291   14.9381 C   0  0  0  0  0  0  0  0  0  0  0  0
   45.8880   -0.9901   15.8882 C   0  0  0  0  0  0  0  0  0  0  0  0
   45.2192    0.3739   16.1251 C   0  0  0  0  0  0  0  0  0  0  0  0
   46.1467    1.3109   16.8165 N   0  0  0  0  0  0  0  0  0  0  0  0
   46.1245    1.0675   18.2818 C   0  0  0  0  0  0  0  0  0  0  0  0
   44.9406    1.7336   19.0606 C   0  0  0  0  0  0  0  0  0  0  0  0
   44.8757    3.2812   18.9152 C   0  0  0  0  0  0  0  0  0  0  0  0
   46.0535    4.0076   19.5349 C   0  0  0  0  0  0  0  0  0  0  0  0
   45.9222    5.4152   19.2096 N   0  0  0  0  0  0  0  0  0  0  0  0
   46.0058    6.1254   20.4738 C   0  0  0  0  0  0  0  0  0  0  0  0
   46.3402    7.5977   20.2654 C   0  0  0  0  0  0  0  0  0  0  0  0
   45.1489    8.2475   19.5453 C   0  0  0  0  0  0  0  0  0  0  0  0
   45.4146    9.6483   19.1847 N   0  0  0  0  0  0  0  0  0  0  0  0
  1  2  1  0  0  0  0
  2  3  1  0  0  0  0
  3  4  1  0  0  0  0
  4  5  1  0  0  0  0
  5  6  1  0  0  0  0
  6  7  1  0  0  0  0
  7  8  1  0  0  0  0
  8  9  1  0  0  0  0
  9 10  1  0  0  0  0
 10 11  1  0  0  0  0
 11 12  1  0  0  0  0
 12 13  1  0  0  0  0
 13 14  1  0  0  0  0
M  END
>  <CHROM.1>
67.19332495,-168.48983401,-82.72315224,-81.73428189,-58.42807625,-65.50142383
174.53116469,127.00829973,161.31557158,66.30529467,-174.87707346,45.59229889
3.17765015,17.98579088,1.77630198,1.41650604,-2.86942811

>  <Name>
ligand

>  <RI>
0

>  <Rbt.Current_Directory>
/home/itssahil/PROJECTS/Mol_Feturizer/New_Systems/rnas/1TN2

>  <Rbt.Executable>
rbdock ($Id: //depot/dev/client3/rdock/2013.1/src/exe/rbdock.cxx#4 $)

>  <Rbt.Library>
libRbt.so (2013.1, Build901 2013/11/27)

>  <Rbt.Parameter_File>
/export/apps/rDock/src/rDock_2013.1_src/data/scripts/dock_solv.prm

>  <Rbt.Receptor>
prm/pocket_docking_8.prm

>  <SCORE>
-8.5148

>  <SCORE.INTER>
-7.36111

>  <SCORE.INTER.CONST>
1

>  <SCORE.INTER.POLAR>
0

>  <SCORE.INTER.ROT>
11

>  <SCORE.INTER.SOLV>
12.3695

>  <SCORE.INTER.VDW>
-19.9639

>  <SCORE.INTER.norm>
-0.525794

>  <SCORE.INTRA>
-1.15369

>  <SCORE.INTRA.DIHEDRAL>
-4.46932

>  <SCORE.INTRA.DIHEDRAL.0>
7.79482

>  <SCORE.INTRA.POLAR>
0

>  <SCORE.INTRA.POLAR.0>
0

>  <SCORE.INTRA.REPUL>
0

>  <SCORE.INTRA.REPUL.0>
0

>  <SCORE.INTRA.SOLV>
1.81567

>  <SCORE.INTRA.SOLV.lig_0>
-49.456

>  <SCORE.INTRA.VDW>
0.17314

>  <SCORE.INTRA.VDW.0>
-0.478406

>  <SCORE.INTRA.norm>
-0.0824061

>  <SCORE.RESTR>
0

>  <SCORE.RESTR.CAVITY>
0

>  <SCORE.RESTR.norm>
0

>  <SCORE.SYSTEM>
0

>  <SCORE.SYSTEM.CONST>
0

>  <SCORE.SYSTEM.DIHEDRAL>
0

>  <SCORE.SYSTEM.SOLV>
0

>  <SCORE.SYSTEM.norm>
0

>  <SCORE.heavy>
14

>  <SCORE.norm>
-0.6082

>  <RMSD>
3.832

$$$$
ligand
 OpenBabel11021811413D
libRbt.so/2013.1/901 2013/11/27
 14 13  0  0  0  0  0  0  0  0999 V2000
   46.8073    8.6705   17.6136 N   0  0  0  0  0  0  0  0  0  0  0  0
   45.9940    9.2935   18.6801 C   0  0  0  0  0  0  0  0  0  0  0  0
   46.4637    8.8374   20.0785 C   0  0  0  0  0  0  0  0  0  0  0  0
   46.2896    7.3347   20.3533 C   0  0  0  0  0  0  0  0  0  0  0  0
   44.8490    6.9602   20.3828 N   0  0  0  0  0  0  0  0  0  0  0  0
   44.6602    5.7065   21.1569 C   0  0  0  0  0  0  0  0  0  0  0  0
   44.5396    4.3974   20.3060 C   0  0  0  0  0  0  0  0  0  0  0  0
   45.8193    4.0482   19.4931 C   0  0  0  0  0  0  0  0  0  0  0  0
   45.7204    2.7492   18.7175 C   0  0  0  0  0  0  0  0  0  0  0  0
   46.9635    2.5759   17.9902 N   0  0  0  0  0  0  0  0  0  0  0  0
   46.6438    2.8128   16.5933 C   0  0  0  0  0  0  0  0  0  0  0  0
   47.8750    2.6663   15.7068 C   0  0  0  0  0  0  0  0  0  0  0  0
   47.4396    2.9360   14.2585 C   0  0  0  0  0  0  0  0  0  0  0  0
   47.0386    4.3356   14.0505 N   0  0  0  0  0  0  0  0  0  0  0  0
  1  2  1  0  0  0  0
  2  3  1  0  0  0  0
  3  4  1  0  0  0  0
  4  5  1  0  0  0  0
  5  6  1  0  0  0  0
  6  7  1  0  0  0  0
  7  8  1  0  0  0  0
  8  9  1  0  0  0  0
  9 10  1  0  0  0  0
 10 11  1  0  0  0  0
 11 12  1  0  0  0  0
 12 13  1  0  0  0  0
 13 14  1  0  0  0  0
M  END
>  <CHROM.1>
-64.05102254,-65.53149983,-157.35839765,-98.47608989,63.77237863,177.50832234
178.61580066,-108.02353410,179.80908476,-179.90084496,67.07540412,46.22161051
5.23726841,18.24180120,-2.16031368,-1.16880202,-2.95660395

>  <Name>
ligand

>  <RI>
0

>  <Rbt.Current_Directory>
/home/itssahil/PROJECTS/Mol_Feturizer/New_Systems/rnas/1TN2

>  <Rbt.Executable>
rbdock ($Id: //depot/dev/client3/rdock/2013.1/src/exe/rbdock.cxx#4 $)

>  <Rbt.Library>
libRbt.so (2013.1, Build901 2013/11/27)

>  <Rbt.Parameter_File>
/export/apps/rDock/src/rDock_2013.1_src/data/scripts/dock_solv.prm

>  <Rbt.Receptor>
prm/blind_docking_100.prm

>  <SCORE>
-6.14092

>  <SCORE.INTER>
-4.41603

>  <SCORE.INTER.CONST>
1

>  <SCORE.INTER.POLAR>
0

>  <SCORE.INTER.ROT>
11

>  <SCORE.INTER.SOLV>
11.4558

>  <SCORE.INTER.VDW>
-17.696

>  <SCORE.INTER.norm>
-0.31543

>  <SCORE.INTRA>
-1.72489

>  <SCORE.INTRA.DIHEDRAL>
-5.0258

>  <SCORE.INTRA.DIHEDRAL.0>
7.79482

>  <SCORE.INTRA.POLAR>
0

>  <SCORE.INTRA.POLAR.0>
0

>  <SCORE.INTRA.REPUL>
0

>  <SCORE.INTRA.REPUL.0>
0

>  <SCORE.INTRA.SOLV>
2.65219

>  <SCORE.INTRA.SOLV.lig_0>
-49.456

>  <SCORE.INTRA.VDW>
-0.538081

>  <SCORE.INTRA.VDW.0>
-0.478406

>  <SCORE.INTRA.norm>
-0.123206

>  <SCORE.RESTR>
0

>  <SCORE.RESTR.CAVITY>
0

>  <SCORE.RESTR.norm>
0

>  <SCORE.SYSTEM>
0

>  <SCORE.SYSTEM.CONST>
0

>  <SCORE.SYSTEM.DIHEDRAL>
0

>  <SCORE.SYSTEM.SOLV>
0

>  <SCORE.SYSTEM.norm>
0

>  <SCORE.heavy>
14

>  <SCORE.norm>
-0.438637

>  <RMSD>
3.840

$$$$
ligand
 OpenBabel11021811413D
libRbt.so/2013.1/901 2013/11/27
 14 13  0  0  0  0  0  0  0  0999 V2000
   46.1455   10.1476   19.2814 N   0  0  0  0  0  0  0  0  0  0  0  0
   46.2881    8.7818   19.8303 C   0  0  0  0  0  0  0  0  0  0  0  0
   46.5201    7.7497   18.7056 C   0  0  0  0  0  0  0  0  0  0  0  0
   46.6774    6.2992   19.1907 C   0  0  0  0  0  0  0  0  0  0  0  0
   45.4414    5.8269   19.8731 N   0  0  0  0  0  0  0  0  0  0  0  0
   45.5029    4.3583   20.0881 C   0  0  0  0  0  0  0  0  0  0  0  0
   45.1957    3.4768   18.8309 C   0  0  0  0  0  0  0  0  0  0  0  0
   44.8823    1.9889   19.1598 C   0  0  0  0  0  0  0  0  0  0  0  0
   44.4111    1.1808   17.9665 C   0  0  0  0  0  0  0  0  0  0  0  0
   45.5584    0.9556   17.1077 N   0  0  0  0  0  0  0  0  0  0  0  0
   45.4250   -0.4037   16.6136 C   0  0  0  0  0  0  0  0  0  0  0  0
   45.3655   -0.4403   15.0910 C   0  0  0  0  0  0  0  0  0  0  0  0
   45.0449   -1.8834   14.6730 C   0  0  0  0  0  0  0  0  0  0  0  0
   44.9772   -2.0366   13.2120 N   0  0  0  0  0  0  0  0  0  0  0  0
  1  2  1  0  0  0  0
  2  3  1  0  0  0  0
  3  4  1  0  0  0  0
  4  5  1  0  0  0  0
  5  6  1  0  0  0  0
  6  7  1  0  0  0  0
  7  8  1  0  0  0  0
  8  9  1  0  0  0  0
  9 10  1  0  0  0  0
 10 11  1  0  0  0  0
 11 12  1  0  0  0  0
 12 13  1  0  0  0  0
 13 14  1  0  0  0  0
M  END
>  <CHROM.1>
-179.91501840,62.19102935,168.58039629,-78.00610240,-164.00262118,172.50513716
72.70263818,140.97320193,121.22219626,-172.85405173,-179.40319360,45.53110599
3.28566281,17.83044908,-1.16879996,-1.29825432,-2.30539186

>  <Name>
ligand

>  <RI>
0

>  <Rbt.Current_Directory>
/home/itssahil/PROJECTS/Mol_Feturizer/New_Systems/rnas/1TN2

>  <Rbt.Executable>
rbdock ($Id: //depot/dev/client3/rdock/2013.1/src/exe/rbdock.cxx#4 $)

>  <Rbt.Library>
libRbt.so (2013.1, Build901 2013/11/27)

>  <Rbt.Parameter_File>
/export/apps/rDock/src/rDock_2013.1_src/data/scripts/dock_solv.prm

>  <Rbt.Receptor>
prm/blind_docking_80.prm

>  <SCORE>
-7.03347

>  <SCORE.INTER>
-5.22527

>  <SCORE.INTER.CONST>
1

>  <SCORE.INTER.POLAR>
0

>  <SCORE.INTER.ROT>
11

>  <SCORE.INTER.SOLV>
13.166

>  <SCORE.INTER.VDW>
-18.8055

>  <SCORE.INTER.norm>
-0.373234

>  <SCORE.INTRA>
-1.8082

>  <SCORE.INTRA.DIHEDRAL>
-3.42702

>  <SCORE.INTRA.DIHEDRAL.0>
7.79482

>  <SCORE.INTRA.POLAR>
0

>  <SCORE.INTRA.POLAR.0>
0

>  <SCORE.INTRA.REPUL>
0

>  <SCORE.INTRA.REPUL.0>
0

>  <SCORE.INTRA.SOLV>
0.612315

>  <SCORE.INTRA.SOLV.lig_0>
-49.456

>  <SCORE.INTRA.VDW>
-0.400843

>  <SCORE.INTRA.VDW.0>
-0.478406

>  <SCORE.INTRA.norm>
-0.129157

>  <SCORE.RESTR>
0

>  <SCORE.RESTR.CAVITY>
0

>  <SCORE.RESTR.norm>
0

>  <SCORE.SYSTEM>
0

>  <SCORE.SYSTEM.CONST>
0

>  <SCORE.SYSTEM.DIHEDRAL>
0

>  <SCORE.SYSTEM.SOLV>
0

>  <SCORE.SYSTEM.norm>
0

>  <SCORE.heavy>
14

>  <SCORE.norm>
-0.502391

>  <RMSD>
3.846

$$$$
ligand
 OpenBabel11021811413D
libRbt.so/2013.1/901 2013/11/27
 14 13  0  0  0  0  0  0  0  0999 V2000
   46.5295    9.6158   18.3477 N   0  0  0  0  0  0  0  0  0  0  0  0
   46.3801    8.8678   19.6147 C   0  0  0  0  0  0  0  0  0  0  0  0
   45.6786    7.5120   19.3830 C   0  0  0  0  0  0  0  0  0  0  0  0
   45.4170    6.7001   20.6622 C   0  0  0  0  0  0  0  0  0  0  0  0
   44.7341    5.4148   20.3490 N   0  0  0  0  0  0  0  0  0  0  0  0
   45.7331    4.3793   19.9798 C   0  0  0  0  0  0  0  0  0  0  0  0
   45.3398    3.4583   18.7759 C   0  0  0  0  0  0  0  0  0  0  0  0
   46.4588    2.4686   18.3414 C   0  0  0  0  0  0  0  0  0  0  0  0
   46.1444    1.7034   17.0708 C   0  0  0  0  0  0  0  0  0  0  0  0
   45.0527    0.7942   17.3641 N   0  0  0  0  0  0  0  0  0  0  0  0
   45.3767   -0.4487   16.6859 C   0  0  0  0  0  0  0  0  0  0  0  0
   44.8733   -0.4466   15.2472 C   0  0  0  0  0  0  0  0  0  0  0  0
   45.2037   -1.8173   14.6373 C   0  0  0  0  0  0  0  0  0  0  0  0
   44.8431   -1.8933   13.2136 N   0  0  0  0  0  0  0  0  0  0  0  0
  1  2  1  0  0  0  0
  2  3  1  0  0  0  0
  3  4  1  0  0  0  0
  4  5  1  0  0  0  0
  5  6  1  0  0  0  0
  6  7  1  0  0  0  0
  7  8  1  0  0  0  0
  8  9  1  0  0  0  0
  9 10  1  0  0  0  0
 10 11  1  0  0  0  0
 11 12  1  0  0  0  0
 12 13  1  0  0  0  0
 13 14  1  0  0  0  0
M  END
>  <CHROM.1>
-176.97675122,179.72775141,84.94930566,-138.65777608,175.04618668,-172.65976955
-68.30288914,-139.20529958,-87.21805563,-177.44541789,-176.03001594,45.55475357
3.30766260,17.83397809,-1.12114985,-1.39407851,-2.21801348

>  <Name>
ligand

>  <RI>
0

>  <Rbt.Current_Directory>
/home/itssahil/PROJECTS/Mol_Feturizer/New_Systems/rnas/1TN2

>  <Rbt.Executable>
rbdock ($Id: //depot/dev/client3/rdock/2013.1/src/exe/rbdock.cxx#4 $)

>  <Rbt.Library>
libRbt.so (2013.1, Build901 2013/11/27)

>  <Rbt.Parameter_File>
/export/apps/rDock/src/rDock_2013.1_src/data/scripts/dock_solv.prm

>  <Rbt.Receptor>
prm/pocket_docking_6.prm

>  <SCORE>
-8.63663

>  <SCORE.INTER>
-6.7723

>  <SCORE.INTER.CONST>
1

>  <SCORE.INTER.POLAR>
0

>  <SCORE.INTER.ROT>
11

>  <SCORE.INTER.SOLV>
11.0638

>  <SCORE.INTER.VDW>
-19.1361

>  <SCORE.INTER.norm>
-0.483736

>  <SCORE.INTRA>
-1.86432

>  <SCORE.INTRA.DIHEDRAL>
-4.29049

>  <SCORE.INTRA.DIHEDRAL.0>
7.79482

>  <SCORE.INTRA.POLAR>
0

>  <SCORE.INTRA.POLAR.0>
0

>  <SCORE.INTRA.REPUL>
0

>  <SCORE.INTRA.REPUL.0>
0

>  <SCORE.INTRA.SOLV>
0.308238

>  <SCORE.INTRA.SOLV.lig_0>
-49.456

>  <SCORE.INTRA.VDW>
0.126801

>  <SCORE.INTRA.VDW.0>
-0.478406

>  <SCORE.INTRA.norm>
-0.133166

>  <SCORE.RESTR>
0

>  <SCORE.RESTR.CAVITY>
0

>  <SCORE.RESTR.norm>
0

>  <SCORE.SYSTEM>
0

>  <SCORE.SYSTEM.CONST>
0

>  <SCORE.SYSTEM.DIHEDRAL>
0

>  <SCORE.SYSTEM.SOLV>
0

>  <SCORE.SYSTEM.norm>
0

>  <SCORE.heavy>
14

>  <SCORE.norm>
-0.616902

>  <RMSD>
3.853

$$$$
ligand
 OpenBabel11021811413D
libRbt.so/2013.1/901 2013/11/27
 14 13  0  0  0  0  0  0  0  0999 V2000
   45.3001   -2.7040   13.2888 N   0  0  0  0  0  0  0  0  0  0  0  0
   44.4475   -1.8692   14.1624 C   0  0  0  0  0  0  0  0  0  0  0  0
   45.2797   -0.7892   14.8871 C   0  0  0  0  0  0  0  0  0  0  0  0
   44.4549    0.1888   15.7399 C   0  0  0  0  0  0  0  0  0  0  0  0
   45.3257    1.2302   16.3512 N   0  0  0  0  0  0  0  0  0  0  0  0
   45.6275    0.8827   17.7636 C   0  0  0  0  0  0  0  0  0  0  0  0
   46.3634    1.9903   18.5906 C   0  0  0  0  0  0  0  0  0  0  0  0
   45.5604    3.3152   18.7333 C   0  0  0  0  0  0  0  0  0  0  0  0
   46.2511    4.3652   19.5814 C   0  0  0  0  0  0  0  0  0  0  0  0
   45.4399    5.5671   19.5395 N   0  0  0  0  0  0  0  0  0  0  0  0
   45.9687    6.4404   20.5726 C   0  0  0  0  0  0  0  0  0  0  0  0
   46.4853    7.7490   19.9860 C   0  0  0  0  0  0  0  0  0  0  0  0
   45.2735    8.5324   19.4588 C   0  0  0  0  0  0  0  0  0  0  0  0
   45.6641    9.8036   18.8311 N   0  0  0  0  0  0  0  0  0  0  0  0
  1  2  1  0  0  0  0
  2  3  1  0  0  0  0
  3  4  1  0  0  0  0
  4  5  1  0  0  0  0
  5  6  1  0  0  0  0
  6  7  1  0  0  0  0
  7  8  1  0  0  0  0
  8  9  1  0  0  0  0
  9 10  1  0  0  0  0
 10 11  1  0  0  0  0
 11 12  1  0  0  0  0
 12 13  1  0  0  0  0
 13 14  1  0  0  0  0
M  END
>  <CHROM.1>
175.82728235,-177.42492487,-99.56761506,-171.57662091,61.46590899,177.65433673
175.75033610,168.18156932,118.91054639,67.78640572,-178.30854919,45.53161178
3.19292638,17.67787512,1.83188537,1.26351760,-2.88724494

>  <Name>
ligand

>  <RI>
0

>  <Rbt.Current_Directory>
/home/itssahil/PROJECTS/Mol_Feturizer/New_Systems/rnas/1TN2

>  <Rbt.Executable>
rbdock ($Id: //depot/dev/client3/rdock/2013.1/src/exe/rbdock.cxx#4 $)

>  <Rbt.Library>
libRbt.so (2013.1, Build901 2013/11/27)

>  <Rbt.Parameter_File>
/export/apps/rDock/src/rDock_2013.1_src/data/scripts/dock_solv.prm

>  <Rbt.Receptor>
prm/blind_docking_80.prm

>  <SCORE>
-10.3969

>  <SCORE.INTER>
-7.65505

>  <SCORE.INTER.CONST>
1

>  <SCORE.INTER.POLAR>
0

>  <SCORE.INTER.ROT>
11

>  <SCORE.INTER.SOLV>
10.9897

>  <SCORE.INTER.VDW>
-19.6999

>  <SCORE.INTER.norm>
-0.546789

>  <SCORE.INTRA>
-2.74188

>  <SCORE.INTRA.DIHEDRAL>
-5.11204

>  <SCORE.INTRA.DIHEDRAL.0>
7.79482

>  <SCORE.INTRA.POLAR>
0

>  <SCORE.INTRA.POLAR.0>
0

>  <SCORE.INTRA.REPUL>
0

>  <SCORE.INTRA.REPUL.0>
0

>  <SCORE.INTRA.SOLV>
0.69857

>  <SCORE.INTRA.SOLV.lig_0>
-49.456

>  <SCORE.INTRA.VDW>
-0.535143

>  <SCORE.INTRA.VDW.0>
-0.478406

>  <SCORE.INTRA.norm>
-0.195848

>  <SCORE.RESTR>
0

>  <SCORE.RESTR.CAVITY>
0

>  <SCORE.RESTR.norm>
0

>  <SCORE.SYSTEM>
0

>  <SCORE.SYSTEM.CONST>
0

>  <SCORE.SYSTEM.DIHEDRAL>
0

>  <SCORE.SYSTEM.SOLV>
0

>  <SCORE.SYSTEM.norm>
0

>  <SCORE.heavy>
14

>  <SCORE.norm>
-0.742638

>  <RMSD>
3.864

$$$$
ligand
 OpenBabel11021811413D
libRbt.so/2013.1/901 2013/11/27
 14 13  0  0  0  0  0  0  0  0999 V2000
   45.7566    9.9302   18.7826 N   0  0  0  0  0  0  0  0  0  0  0  0
   45.3716    8.5320   19.0722 C   0  0  0  0  0  0  0  0  0  0  0  0
   46.2815    7.9160   20.1569 C   0  0  0  0  0  0  0  0  0  0  0  0
   45.9782    6.4452   20.4868 C   0  0  0  0  0  0  0  0  0  0  0  0
   46.2040    5.5739   19.3010 N   0  0  0  0  0  0  0  0  0  0  0  0
   45.8415    4.1690   19.6197 C   0  0  0  0  0  0  0  0  0  0  0  0
   46.0574    3.1355   18.4633 C   0  0  0  0  0  0  0  0  0  0  0  0
   45.6025    1.6889   18.8112 C   0  0  0  0  0  0  0  0  0  0  0  0
   45.8223    0.6888   17.6930 C   0  0  0  0  0  0  0  0  0  0  0  0
   44.9479    1.0573   16.5957 N   0  0  0  0  0  0  0  0  0  0  0  0
   45.4484    0.3467   15.4320 C   0  0  0  0  0  0  0  0  0  0  0  0
   44.3162   -0.3057   14.6473 C   0  0  0  0  0  0  0  0  0  0  0  0
   44.9320   -0.9640   13.4034 C   0  0  0  0  0  0  0  0  0  0  0  0
   45.8678   -2.0436   13.7520 N   0  0  0  0  0  0  0  0  0  0  0  0
  1  2  1  0  0  0  0
  2  3  1  0  0  0  0
  3  4  1  0  0  0  0
  4  5  1  0  0  0  0
  5  6  1  0  0  0  0
  6  7  1  0  0  0  0
  7  8  1  0  0  0  0
  8  9  1  0  0  0  0
  9 10  1  0  0  0  0
 10 11  1  0  0  0  0
 11 12  1  0  0  0  0
 12 13  1  0  0  0  0
 13 14  1  0  0  0  0
M  END
>  <CHROM.1>
-178.11636534,62.94651996,-177.19473122,-178.87862804,-177.19009273,-179.57567117
-66.15918887,163.88518938,134.57305835,177.02063514,63.43178006,45.60196079
3.29774501,17.58712538,1.21810808,-1.36954058,0.17020188

>  <Name>
ligand

>  <RI>
0

>  <Rbt.Current_Directory>
/home/itssahil/PROJECTS/Mol_Feturizer/New_Systems/rnas/1TN2

>  <Rbt.Executable>
rbdock ($Id: //depot/dev/client3/rdock/2013.1/src/exe/rbdock.cxx#4 $)

>  <Rbt.Library>
libRbt.so (2013.1, Build901 2013/11/27)

>  <Rbt.Parameter_File>
/export/apps/rDock/src/rDock_2013.1_src/data/scripts/dock_solv.prm

>  <Rbt.Receptor>
prm/pocket_docking_6.prm

>  <SCORE>
-9.31231

>  <SCORE.INTER>
-6.37343

>  <SCORE.INTER.CONST>
1

>  <SCORE.INTER.POLAR>
0

>  <SCORE.INTER.ROT>
11

>  <SCORE.INTER.SOLV>
11.3045

>  <SCORE.INTER.VDW>
-18.9504

>  <SCORE.INTER.norm>
-0.455245

>  <SCORE.INTRA>
-2.93887

>  <SCORE.INTRA.DIHEDRAL>
-6.25547

>  <SCORE.INTRA.DIHEDRAL.0>
7.79482

>  <SCORE.INTRA.POLAR>
0

>  <SCORE.INTRA.POLAR.0>
0

>  <SCORE.INTRA.REPUL>
0

>  <SCORE.INTRA.REPUL.0>
0

>  <SCORE.INTRA.SOLV>
1.48603

>  <SCORE.INTRA.SOLV.lig_0>
-49.456

>  <SCORE.INTRA.VDW>
-0.554154

>  <SCORE.INTRA.VDW.0>
-0.478406

>  <SCORE.INTRA.norm>
-0.20992

>  <SCORE.RESTR>
0

>  <SCORE.RESTR.CAVITY>
0

>  <SCORE.RESTR.norm>
0

>  <SCORE.SYSTEM>
0

>  <SCORE.SYSTEM.CONST>
0

>  <SCORE.SYSTEM.DIHEDRAL>
0

>  <SCORE.SYSTEM.SOLV>
0

>  <SCORE.SYSTEM.norm>
0

>  <SCORE.heavy>
14

>  <SCORE.norm>
-0.665165

>  <RMSD>
3.879

$$$$
ligand
 OpenBabel11021811413D
libRbt.so/2013.1/901 2013/11/27
 14 13  0  0  0  0  0  0  0  0999 V2000
   44.9895   -1.5855   12.8721 N   0  0  0  0  0  0  0  0  0  0  0  0
   45.0487   -1.9362   14.3076 C   0  0  0  0  0  0  0  0  0  0  0  0
   45.4788   -0.7234   15.1610 C   0  0  0  0  0  0  0  0  0  0  0  0
   45.5998   -1.0111   16.6665 C   0  0  0  0  0  0  0  0  0  0  0  0
   45.8733    0.2381   17.4289 N   0  0  0  0  0  0  0  0  0  0  0  0
   44.6042    0.9587   17.7060 C   0  0  0  0  0  0  0  0  0  0  0  0
   44.6512    1.9803   18.8919 C   0  0  0  0  0  0  0  0  0  0  0  0
   45.6560    3.1497   18.6834 C   0  0  0  0  0  0  0  0  0  0  0  0
   45.6466    4.1757   19.7997 C   0  0  0  0  0  0  0  0  0  0  0  0
   46.4958    5.2782   19.3902 N   0  0  0  0  0  0  0  0  0  0  0  0
   45.8155    6.4865   19.8227 C   0  0  0  0  0  0  0  0  0  0  0  0
   46.2977    7.7063   19.0462 C   0  0  0  0  0  0  0  0  0  0  0  0
   45.4604    8.9098   19.5048 C   0  0  0  0  0  0  0  0  0  0  0  0
   45.7486   10.1189   18.7187 N   0  0  0  0  0  0  0  0  0  0  0  0
  1  2  1  0  0  0  0
  2  3  1  0  0  0  0
  3  4  1  0  0  0  0
  4  5  1  0  0  0  0
  5  6  1  0  0  0  0
  6  7  1  0  0  0  0
  7  8  1  0  0  0  0
  8  9  1  0  0  0  0
  9 10  1  0  0  0  0
 10 11  1  0  0  0  0
 11 12  1  0  0  0  0
 12 13  1  0  0  0  0
 13 14  1  0  0  0  0
M  END
>  <CHROM.1>
-178.56201491,-173.88739613,83.48416707,159.25156620,61.83889046,176.96593256
-172.84797268,139.99331886,-159.24043575,176.29645864,-174.14954416,45.52604617
3.12454922,17.71450905,3.10701276,1.50672390,2.04082923

>  <Name>
ligand

>  <RI>
0

>  <Rbt.Current_Directory>
/home/itssahil/PROJECTS/Mol_Feturizer/New_Systems/rnas/1TN2

>  <Rbt.Executable>
rbdock ($Id: //depot/dev/client3/rdock/2013.1/src/exe/rbdock.cxx#4 $)

>  <Rbt.Library>
libRbt.so (2013.1, Build901 2013/11/27)

>  <Rbt.Parameter_File>
/export/apps/rDock/src/rDock_2013.1_src/data/scripts/dock_solv.prm

>  <Rbt.Receptor>
prm/blind_docking_100.prm

>  <SCORE>
-9.96956

>  <SCORE.INTER>
-7.00315

>  <SCORE.INTER.CONST>
1

>  <SCORE.INTER.POLAR>
0

>  <SCORE.INTER.ROT>
11

>  <SCORE.INTER.SOLV>
12.7738

>  <SCORE.INTER.VDW>
-19.86

>  <SCORE.INTER.norm>
-0.500225

>  <SCORE.INTRA>
-2.96642

>  <SCORE.INTRA.DIHEDRAL>
-5.28312

>  <SCORE.INTRA.DIHEDRAL.0>
7.79482

>  <SCORE.INTRA.POLAR>
0

>  <SCORE.INTRA.POLAR.0>
0

>  <SCORE.INTRA.REPUL>
0

>  <SCORE.INTRA.REPUL.0>
0

>  <SCORE.INTRA.SOLV>
0.284844

>  <SCORE.INTRA.SOLV.lig_0>
-49.456

>  <SCORE.INTRA.VDW>
-0.467277

>  <SCORE.INTRA.VDW.0>
-0.478406

>  <SCORE.INTRA.norm>
-0.211887

>  <SCORE.RESTR>
0

>  <SCORE.RESTR.CAVITY>
0

>  <SCORE.RESTR.norm>
0

>  <SCORE.SYSTEM>
0

>  <SCORE.SYSTEM.CONST>
0

>  <SCORE.SYSTEM.DIHEDRAL>
0

>  <SCORE.SYSTEM.SOLV>
0

>  <SCORE.SYSTEM.norm>
0

>  <SCORE.heavy>
14

>  <SCORE.norm>
-0.712112

>  <RMSD>
3.883

$$$$
ligand
 OpenBabel11021811413D
libRbt.so/2013.1/901 2013/11/27
 14 13  0  0  0  0  0  0  0  0999 V2000
   46.1460    9.8239   18.7483 N   0  0  0  0  0  0  0  0  0  0  0  0
   46.6351    8.4765   19.1124 C   0  0  0  0  0  0  0  0  0  0  0  0
   45.6421    7.7571   20.0507 C   0  0  0  0  0  0  0  0  0  0  0  0
   46.0204    6.3065   20.3918 C   0  0  0  0  0  0  0  0  0  0  0  0
   46.0714    5.4648   19.1649 N   0  0  0  0  0  0  0  0  0  0  0  0
   45.9591    4.0275   19.5232 C   0  0  0  0  0  0  0  0  0  0  0  0
   45.9240    3.0300   18.3166 C   0  0  0  0  0  0  0  0  0  0  0  0
   45.7988    1.5358   18.7313 C   0  0  0  0  0  0  0  0  0  0  0  0
   45.7629    0.5730   17.5605 C   0  0  0  0  0  0  0  0  0  0  0  0
   44.5036    0.7702   16.8679 N   0  0  0  0  0  0  0  0  0  0  0  0
   44.8378    0.8846   15.4591 C   0  0  0  0  0  0  0  0  0  0  0  0
   44.3148   -0.3056   14.6634 C   0  0  0  0  0  0  0  0  0  0  0  0
   45.2101   -1.5111   14.9878 C   0  0  0  0  0  0  0  0  0  0  0  0
   46.5843   -1.3307   14.4960 N   0  0  0  0  0  0  0  0  0  0  0  0
  1  2  1  0  0  0  0
  2  3  1  0  0  0  0
  3  4  1  0  0  0  0
  4  5  1  0  0  0  0
  5  6  1  0  0  0  0
  6  7  1  0  0  0  0
  7  8  1  0  0  0  0
  8  9  1  0  0  0  0
  9 10  1  0  0  0  0
 10 11  1  0  0  0  0
 11 12  1  0  0  0  0
 12 13  1  0  0  0  0
 13 14  1  0  0  0  0
M  END
>  <CHROM.1>
175.48241375,-61.20048800,-160.13498182,176.95487366,-179.71037404,179.90849479
-69.08581791,131.76677305,112.37539024,-74.08904398,-66.20000729,45.67210617
3.25000891,17.71972618,0.71273210,-1.45177117,-0.40118744

>  <Name>
ligand

>  <RI>
0

>  <Rbt.Current_Directory>
/home/itssahil/PROJECTS/Mol_Feturizer/New_Systems/rnas/1TN2

>  <Rbt.Executable>
rbdock ($Id: //depot/dev/client3/rdock/2013.1/src/exe/rbdock.cxx#4 $)

>  <Rbt.Library>
libRbt.so (2013.1, Build901 2013/11/27)

>  <Rbt.Parameter_File>
/export/apps/rDock/src/rDock_2013.1_src/data/scripts/dock_solv.prm

>  <Rbt.Receptor>
prm/blind_docking_60.prm

>  <SCORE>
-7.90516

>  <SCORE.INTER>
-6.93475

>  <SCORE.INTER.CONST>
1

>  <SCORE.INTER.POLAR>
0

>  <SCORE.INTER.ROT>
11

>  <SCORE.INTER.SOLV>
13.5078

>  <SCORE.INTER.VDW>
-20.0591

>  <SCORE.INTER.norm>
-0.495339

>  <SCORE.INTRA>
-0.970414

>  <SCORE.INTRA.DIHEDRAL>
-3.99753

>  <SCORE.INTRA.DIHEDRAL.0>
7.79482

>  <SCORE.INTRA.POLAR>
0

>  <SCORE.INTRA.POLAR.0>
0

>  <SCORE.INTRA.REPUL>
0

>  <SCORE.INTRA.REPUL.0>
0

>  <SCORE.INTRA.SOLV>
3.01326

>  <SCORE.INTRA.SOLV.lig_0>
-49.456

>  <SCORE.INTRA.VDW>
-0.47828

>  <SCORE.INTRA.VDW.0>
-0.478406

>  <SCORE.INTRA.norm>
-0.0693153

>  <SCORE.RESTR>
0

>  <SCORE.RESTR.CAVITY>
0

>  <SCORE.RESTR.norm>
0

>  <SCORE.SYSTEM>
0

>  <SCORE.SYSTEM.CONST>
0

>  <SCORE.SYSTEM.DIHEDRAL>
0

>  <SCORE.SYSTEM.SOLV>
0

>  <SCORE.SYSTEM.norm>
0

>  <SCORE.heavy>
14

>  <SCORE.norm>
-0.564655

>  <RMSD>
3.897

$$$$
ligand
 OpenBabel11021811413D
libRbt.so/2013.1/901 2013/11/27
 14 13  0  0  0  0  0  0  0  0999 V2000
   46.3466    1.7124   15.4771 N   0  0  0  0  0  0  0  0  0  0  0  0
   47.0469    2.5769   16.4515 C   0  0  0  0  0  0  0  0  0  0  0  0
   46.4659    2.4018   17.8713 C   0  0  0  0  0  0  0  0  0  0  0  0
   44.9580    2.6799   17.9844 C   0  0  0  0  0  0  0  0  0  0  0  0
   44.5089    2.6224   19.4027 N   0  0  0  0  0  0  0  0  0  0  0  0
   44.7741    3.9186   20.0781 C   0  0  0  0  0  0  0  0  0  0  0  0
   43.5515    4.5586   20.8182 C   0  0  0  0  0  0  0  0  0  0  0  0
   43.9011    5.8356   21.6353 C   0  0  0  0  0  0  0  0  0  0  0  0
   44.4081    6.9876   20.7899 C   0  0  0  0  0  0  0  0  0  0  0  0
   45.7790    6.6909   20.4197 N   0  0  0  0  0  0  0  0  0  0  0  0
   46.2281    7.8172   19.6201 C   0  0  0  0  0  0  0  0  0  0  0  0
   47.3445    7.4128   18.6644 C   0  0  0  0  0  0  0  0  0  0  0  0
   47.8394    8.6865   17.9624 C   0  0  0  0  0  0  0  0  0  0  0  0
   48.9186    8.4083   17.0029 N   0  0  0  0  0  0  0  0  0  0  0  0
  1  2  1  0  0  0  0
  2  3  1  0  0  0  0
  3  4  1  0  0  0  0
  4  5  1  0  0  0  0
  5  6  1  0  0  0  0
  6  7  1  0  0  0  0
  7  8  1  0  0  0  0
  8  9  1  0  0  0  0
  9 10  1  0  0  0  0
 10 11  1  0  0  0  0
 11 12  1  0  0  0  0
 12 13  1  0  0  0  0
 13 14  1  0  0  0  0
M  END
>  <CHROM.1>
-57.09188760,-174.29855299,82.92294010,127.97010268,173.97824366,62.91806811
-75.87985067,-179.70673862,-154.25320615,-174.80711213,-179.56464258,45.86196802
5.16507006,18.87017324,-1.84443728,0.81110444,0.47867738

>  <Name>
ligand

>  <RI>
0

>  <Rbt.Current_Directory>
/home/itssahil/PROJECTS/Mol_Feturizer/New_Systems/rnas/1TN2

>  <Rbt.Executable>
rbdock ($Id: //depot/dev/client3/rdock/2013.1/src/exe/rbdock.cxx#4 $)

>  <Rbt.Library>
libRbt.so (2013.1, Build901 2013/11/27)

>  <Rbt.Parameter_File>
/export/apps/rDock/src/rDock_2013.1_src/data/scripts/dock_solv.prm

>  <Rbt.Receptor>
prm/pocket_docking_8.prm

>  <SCORE>
-7.06881

>  <SCORE.INTER>
-5.4917

>  <SCORE.INTER.CONST>
1

>  <SCORE.INTER.POLAR>
0

>  <SCORE.INTER.ROT>
11

>  <SCORE.INTER.SOLV>
11.8563

>  <SCORE.INTER.VDW>
-18.5466

>  <SCORE.INTER.norm>
-0.392265

>  <SCORE.INTRA>
-1.57711

>  <SCORE.INTRA.DIHEDRAL>
-4.46788

>  <SCORE.INTRA.DIHEDRAL.0>
7.79482

>  <SCORE.INTRA.POLAR>
0

>  <SCORE.INTRA.POLAR.0>
0

>  <SCORE.INTRA.REPUL>
0

>  <SCORE.INTRA.REPUL.0>
0

>  <SCORE.INTRA.SOLV>
1.62376

>  <SCORE.INTRA.SOLV.lig_0>
-49.456

>  <SCORE.INTRA.VDW>
-0.155047

>  <SCORE.INTRA.VDW.0>
-0.478406

>  <SCORE.INTRA.norm>
-0.11265

>  <SCORE.RESTR>
0

>  <SCORE.RESTR.CAVITY>
0

>  <SCORE.RESTR.norm>
0

>  <SCORE.SYSTEM>
0

>  <SCORE.SYSTEM.CONST>
0

>  <SCORE.SYSTEM.DIHEDRAL>
0

>  <SCORE.SYSTEM.SOLV>
0

>  <SCORE.SYSTEM.norm>
0

>  <SCORE.heavy>
14

>  <SCORE.norm>
-0.504915

>  <RMSD>
3.900

$$$$
ligand
 OpenBabel11021811413D
libRbt.so/2013.1/901 2013/11/27
 14 13  0  0  0  0  0  0  0  0999 V2000
   39.4330    6.5201   21.0695 N   0  0  0  0  0  0  0  0  0  0  0  0
   39.5785    7.9287   20.6434 C   0  0  0  0  0  0  0  0  0  0  0  0
   40.8462    8.1235   19.7836 C   0  0  0  0  0  0  0  0  0  0  0  0
   42.1686    7.8787   20.5289 C   0  0  0  0  0  0  0  0  0  0  0  0
   43.3105    7.7942   19.5774 N   0  0  0  0  0  0  0  0  0  0  0  0
   44.4710    7.1313   20.2258 C   0  0  0  0  0  0  0  0  0  0  0  0
   44.2239    5.6663   20.7207 C   0  0  0  0  0  0  0  0  0  0  0  0
   45.5211    4.8991   21.1069 C   0  0  0  0  0  0  0  0  0  0  0  0
   46.3526    4.4584   19.9181 C   0  0  0  0  0  0  0  0  0  0  0  0
   45.5831    3.4704   19.1857 N   0  0  0  0  0  0  0  0  0  0  0  0
   46.5523    2.5388   18.6359 C   0  0  0  0  0  0  0  0  0  0  0  0
   45.8709    1.3139   18.0370 C   0  0  0  0  0  0  0  0  0  0  0  0
   45.2695    1.7305   16.6862 C   0  0  0  0  0  0  0  0  0  0  0  0
   44.7009    0.5881   15.9552 N   0  0  0  0  0  0  0  0  0  0  0  0
  1  2  1  0  0  0  0
  2  3  1  0  0  0  0
  3  4  1  0  0  0  0
  4  5  1  0  0  0  0
  5  6  1  0  0  0  0
  6  7  1  0  0  0  0
  7  8  1  0  0  0  0
  8  9  1  0  0  0  0
  9 10  1  0  0  0  0
 10 11  1  0  0  0  0
 11 12  1  0  0  0  0
 12 13  1  0  0  0  0
 13 14  1  0  0  0  0
M  END
>  <CHROM.1>
-65.09263710,167.64592110,-161.47874575,60.30561084,167.39025394,-74.13183194
-65.96881058,-146.71669227,170.39227990,76.10579858,174.26673364,43.84895764
5.00316036,19.43408160,2.22321173,-0.24079542,0.62777500

>  <Name>
ligand

>  <RI>
0

>  <Rbt.Current_Directory>
/home/itssahil/PROJECTS/Mol_Feturizer/New_Systems/rnas/1TN2

>  <Rbt.Executable>
rbdock ($Id: //depot/dev/client3/rdock/2013.1/src/exe/rbdock.cxx#4 $)

>  <Rbt.Library>
libRbt.so (2013.1, Build901 2013/11/27)

>  <Rbt.Parameter_File>
/export/apps/rDock/src/rDock_2013.1_src/data/scripts/dock_solv.prm

>  <Rbt.Receptor>
prm/pocket_docking_8.prm

>  <SCORE>
-11.6485

>  <SCORE.INTER>
-10.8895

>  <SCORE.INTER.CONST>
1

>  <SCORE.INTER.POLAR>
0

>  <SCORE.INTER.ROT>
11

>  <SCORE.INTER.SOLV>
13.8372

>  <SCORE.INTER.VDW>
-22.8054

>  <SCORE.INTER.norm>
-0.777823

>  <SCORE.INTRA>
-0.758994

>  <SCORE.INTRA.DIHEDRAL>
-3.54003

>  <SCORE.INTRA.DIHEDRAL.0>
7.79482

>  <SCORE.INTRA.POLAR>
0

>  <SCORE.INTRA.POLAR.0>
0

>  <SCORE.INTRA.REPUL>
0

>  <SCORE.INTRA.REPUL.0>
0

>  <SCORE.INTRA.SOLV>
1.55372

>  <SCORE.INTRA.SOLV.lig_0>
-49.456

>  <SCORE.INTRA.VDW>
0.234165

>  <SCORE.INTRA.VDW.0>
-0.478406

>  <SCORE.INTRA.norm>
-0.0542139

>  <SCORE.RESTR>
0

>  <SCORE.RESTR.CAVITY>
0

>  <SCORE.RESTR.norm>
0

>  <SCORE.SYSTEM>
0

>  <SCORE.SYSTEM.CONST>
0

>  <SCORE.SYSTEM.DIHEDRAL>
0

>  <SCORE.SYSTEM.SOLV>
0

>  <SCORE.SYSTEM.norm>
0

>  <SCORE.heavy>
14

>  <SCORE.norm>
-0.832037

>  <RMSD>
3.901

$$$$
ligand
 OpenBabel11021811413D
libRbt.so/2013.1/901 2013/11/27
 14 13  0  0  0  0  0  0  0  0999 V2000
   47.8311    7.3829   18.4345 N   0  0  0  0  0  0  0  0  0  0  0  0
   47.0128    8.5564   18.8090 C   0  0  0  0  0  0  0  0  0  0  0  0
   46.4885    8.4322   20.2560 C   0  0  0  0  0  0  0  0  0  0  0  0
   45.5134    7.2658   20.4853 C   0  0  0  0  0  0  0  0  0  0  0  0
   46.2377    5.9661   20.5371 N   0  0  0  0  0  0  0  0  0  0  0  0
   46.0290    5.2115   19.2746 C   0  0  0  0  0  0  0  0  0  0  0  0
   46.1431    3.6540   19.3905 C   0  0  0  0  0  0  0  0  0  0  0  0
   46.0068    2.9046   18.0340 C   0  0  0  0  0  0  0  0  0  0  0  0
   45.9563    1.3951   18.1671 C   0  0  0  0  0  0  0  0  0  0  0  0
   45.8176    0.8408   16.8337 N   0  0  0  0  0  0  0  0  0  0  0  0
   45.5036   -0.5653   17.0178 C   0  0  0  0  0  0  0  0  0  0  0  0
   45.7952   -1.3715   15.7576 C   0  0  0  0  0  0  0  0  0  0  0  0
   44.8094   -0.9113   14.6730 C   0  0  0  0  0  0  0  0  0  0  0  0
   44.9565   -1.6784   13.4269 N   0  0  0  0  0  0  0  0  0  0  0  0
  1  2  1  0  0  0  0
  2  3  1  0  0  0  0
  3  4  1  0  0  0  0
  4  5  1  0  0  0  0
  5  6  1  0  0  0  0
  6  7  1  0  0  0  0
  7  8  1  0  0  0  0
  8  9  1  0  0  0  0
  9 10  1  0  0  0  0
 10 11  1  0  0  0  0
 11 12  1  0  0  0  0
 12 13  1  0  0  0  0
 13 14  1  0  0  0  0
M  END
>  <CHROM.1>
-64.59476030,75.55007885,-104.79430630,-153.44226043,-176.38609826,-173.28291542
179.50509797,-168.81127891,-160.46874740,-66.65953552,-177.01227767,46.00711676
3.36315816,17.93576271,-0.97995232,-1.33496144,-2.08078606

>  <Name>
ligand

>  <RI>
0

>  <Rbt.Current_Directory>
/home/itssahil/PROJECTS/Mol_Feturizer/New_Systems/rnas/1TN2

>  <Rbt.Executable>
rbdock ($Id: //depot/dev/client3/rdock/2013.1/src/exe/rbdock.cxx#4 $)

>  <Rbt.Library>
libRbt.so (2013.1, Build901 2013/11/27)

>  <Rbt.Parameter_File>
/export/apps/rDock/src/rDock_2013.1_src/data/scripts/dock_solv.prm

>  <Rbt.Receptor>
prm/blind_docking_100.prm

>  <SCORE>
-8.74396

>  <SCORE.INTER>
-8.09661

>  <SCORE.INTER.CONST>
1

>  <SCORE.INTER.POLAR>
0

>  <SCORE.INTER.ROT>
11

>  <SCORE.INTER.SOLV>
15.4108

>  <SCORE.INTER.VDW>
-21.468

>  <SCORE.INTER.norm>
-0.57833

>  <SCORE.INTRA>
-0.647349

>  <SCORE.INTRA.DIHEDRAL>
-4.51313

>  <SCORE.INTRA.DIHEDRAL.0>
7.79482

>  <SCORE.INTRA.POLAR>
0

>  <SCORE.INTRA.POLAR.0>
0

>  <SCORE.INTRA.REPUL>
0

>  <SCORE.INTRA.REPUL.0>
0

>  <SCORE.INTRA.SOLV>
4.37456

>  <SCORE.INTRA.SOLV.lig_0>
-49.456

>  <SCORE.INTRA.VDW>
-0.578066

>  <SCORE.INTRA.VDW.0>
-0.478406

>  <SCORE.INTRA.norm>
-0.0462392

>  <SCORE.RESTR>
0

>  <SCORE.RESTR.CAVITY>
0

>  <SCORE.RESTR.norm>
0

>  <SCORE.SYSTEM>
0

>  <SCORE.SYSTEM.CONST>
0

>  <SCORE.SYSTEM.DIHEDRAL>
0

>  <SCORE.SYSTEM.SOLV>
0

>  <SCORE.SYSTEM.norm>
0

>  <SCORE.heavy>
14

>  <SCORE.norm>
-0.624569

>  <RMSD>
3.918

$$$$
ligand
 OpenBabel11021811413D
libRbt.so/2013.1/901 2013/11/27
 14 13  0  0  0  0  0  0  0  0999 V2000
   46.1162    9.8965   18.6041 N   0  0  0  0  0  0  0  0  0  0  0  0
   46.6240    8.6057   19.1171 C   0  0  0  0  0  0  0  0  0  0  0  0
   45.5217    7.8336   19.8739 C   0  0  0  0  0  0  0  0  0  0  0  0
   45.9307    6.4265   20.3394 C   0  0  0  0  0  0  0  0  0  0  0  0
   46.2371    5.5472   19.1777 N   0  0  0  0  0  0  0  0  0  0  0  0
   46.0221    4.1230   19.5411 C   0  0  0  0  0  0  0  0  0  0  0  0
   45.5313    3.1948   18.3793 C   0  0  0  0  0  0  0  0  0  0  0  0
   45.0982    1.7738   18.8414 C   0  0  0  0  0  0  0  0  0  0  0  0
   44.4529    0.9418   17.7504 C   0  0  0  0  0  0  0  0  0  0  0  0
   45.4846    0.6013   16.7892 N   0  0  0  0  0  0  0  0  0  0  0  0
   45.5581   -0.8493   16.7813 C   0  0  0  0  0  0  0  0  0  0  0  0
   46.1327   -1.3715   15.4697 C   0  0  0  0  0  0  0  0  0  0  0  0
   45.1116   -1.0700   14.3623 C   0  0  0  0  0  0  0  0  0  0  0  0
   45.5504   -1.5705   13.0509 N   0  0  0  0  0  0  0  0  0  0  0  0
  1  2  1  0  0  0  0
  2  3  1  0  0  0  0
  3  4  1  0  0  0  0
  4  5  1  0  0  0  0
  5  6  1  0  0  0  0
  6  7  1  0  0  0  0
  7  8  1  0  0  0  0
  8  9  1  0  0  0  0
  9 10  1  0  0  0  0
 10 11  1  0  0  0  0
 11 12  1  0  0  0  0
 12 13  1  0  0  0  0
 13 14  1  0  0  0  0
M  END
>  <CHROM.1>
175.10539735,-63.14550154,-154.26039525,147.68066514,-170.62811655,172.30800219
69.61686066,119.21688499,156.13091139,-67.71129369,-178.31161385,45.66932515
3.14858809,17.72016474,-1.17383314,-1.40338506,-2.30517093

>  <Name>
ligand

>  <RI>
0

>  <Rbt.Current_Directory>
/home/itssahil/PROJECTS/Mol_Feturizer/New_Systems/rnas/1TN2

>  <Rbt.Executable>
rbdock ($Id: //depot/dev/client3/rdock/2013.1/src/exe/rbdock.cxx#4 $)

>  <Rbt.Library>
libRbt.so (2013.1, Build901 2013/11/27)

>  <Rbt.Parameter_File>
/export/apps/rDock/src/rDock_2013.1_src/data/scripts/dock_solv.prm

>  <Rbt.Receptor>
prm/blind_docking_60.prm

>  <SCORE>
-9.46304

>  <SCORE.INTER>
-7.53245

>  <SCORE.INTER.CONST>
1

>  <SCORE.INTER.POLAR>
0

>  <SCORE.INTER.ROT>
11

>  <SCORE.INTER.SOLV>
11.4301

>  <SCORE.INTER.VDW>
-19.765

>  <SCORE.INTER.norm>
-0.538032

>  <SCORE.INTRA>
-1.93059

>  <SCORE.INTRA.DIHEDRAL>
-3.77139

>  <SCORE.INTRA.DIHEDRAL.0>
7.79482

>  <SCORE.INTRA.POLAR>
0

>  <SCORE.INTRA.POLAR.0>
0

>  <SCORE.INTRA.REPUL>
0

>  <SCORE.INTRA.REPUL.0>
0

>  <SCORE.INTRA.SOLV>
1.01378

>  <SCORE.INTRA.SOLV.lig_0>
-49.456

>  <SCORE.INTRA.VDW>
-0.55178

>  <SCORE.INTRA.VDW.0>
-0.478406

>  <SCORE.INTRA.norm>
-0.137899

>  <SCORE.RESTR>
0

>  <SCORE.RESTR.CAVITY>
0

>  <SCORE.RESTR.norm>
0

>  <SCORE.SYSTEM>
0

>  <SCORE.SYSTEM.CONST>
0

>  <SCORE.SYSTEM.DIHEDRAL>
0

>  <SCORE.SYSTEM.SOLV>
0

>  <SCORE.SYSTEM.norm>
0

>  <SCORE.heavy>
14

>  <SCORE.norm>
-0.675931

>  <RMSD>
3.919

$$$$
ligand
 OpenBabel11021811413D
libRbt.so/2013.1/901 2013/11/27
 14 13  0  0  0  0  0  0  0  0999 V2000
   42.6941   11.4393   17.5396 N   0  0  0  0  0  0  0  0  0  0  0  0
   41.7795   11.0821   18.6456 C   0  0  0  0  0  0  0  0  0  0  0  0
   41.7836    9.5597   18.9034 C   0  0  0  0  0  0  0  0  0  0  0  0
   40.8361    9.0977   20.0227 C   0  0  0  0  0  0  0  0  0  0  0  0
   40.7850    7.6119   20.1002 N   0  0  0  0  0  0  0  0  0  0  0  0
   41.7816    7.1145   21.0832 C   0  0  0  0  0  0  0  0  0  0  0  0
   43.0936    6.5159   20.4728 C   0  0  0  0  0  0  0  0  0  0  0  0
   44.0489    5.8783   21.5222 C   0  0  0  0  0  0  0  0  0  0  0  0
   45.3431    5.3495   20.9353 C   0  0  0  0  0  0  0  0  0  0  0  0
   45.0112    4.2234   20.0832 N   0  0  0  0  0  0  0  0  0  0  0  0
   46.0764    4.1414   19.0992 C   0  0  0  0  0  0  0  0  0  0  0  0
   46.3390    2.6995   18.6804 C   0  0  0  0  0  0  0  0  0  0  0  0
   45.1254    2.2233   17.8677 C   0  0  0  0  0  0  0  0  0  0  0  0
   43.9485    1.9827   18.7160 N   0  0  0  0  0  0  0  0  0  0  0  0
  1  2  1  0  0  0  0
  2  3  1  0  0  0  0
  3  4  1  0  0  0  0
  4  5  1  0  0  0  0
  5  6  1  0  0  0  0
  6  7  1  0  0  0  0
  7  8  1  0  0  0  0
  8  9  1  0  0  0  0
  9 10  1  0  0  0  0
 10 11  1  0  0  0  0
 11 12  1  0  0  0  0
 12 13  1  0  0  0  0
 13 14  1  0  0  0  0
M  END
>  <CHROM.1>
-178.86220411,173.51414287,92.93270519,-102.49747427,-174.23740493,-177.67776208
-66.91727156,154.15809434,147.64778931,69.26106026,-73.14860158,43.47486728
6.35139164,19.54813857,-2.34564211,-0.83460516,2.51431671

>  <Name>
ligand

>  <RI>
0

>  <Rbt.Current_Directory>
/home/itssahil/PROJECTS/Mol_Feturizer/New_Systems/rnas/1TN2

>  <Rbt.Executable>
rbdock ($Id: //depot/dev/client3/rdock/2013.1/src/exe/rbdock.cxx#4 $)

>  <Rbt.Library>
libRbt.so (2013.1, Build901 2013/11/27)

>  <Rbt.Parameter_File>
/export/apps/rDock/src/rDock_2013.1_src/data/scripts/dock_solv.prm

>  <Rbt.Receptor>
prm/blind_docking_100.prm

>  <SCORE>
-12.2752

>  <SCORE.INTER>
-11.4747

>  <SCORE.INTER.CONST>
1

>  <SCORE.INTER.POLAR>
0

>  <SCORE.INTER.ROT>
11

>  <SCORE.INTER.SOLV>
18.7972

>  <SCORE.INTER.VDW>
-24.8489

>  <SCORE.INTER.norm>
-0.819623

>  <SCORE.INTRA>
-0.800443

>  <SCORE.INTRA.DIHEDRAL>
-3.55805

>  <SCORE.INTRA.DIHEDRAL.0>
7.79482

>  <SCORE.INTRA.POLAR>
0

>  <SCORE.INTRA.POLAR.0>
0

>  <SCORE.INTRA.REPUL>
0

>  <SCORE.INTRA.REPUL.0>
0

>  <SCORE.INTRA.SOLV>
3.10959

>  <SCORE.INTRA.SOLV.lig_0>
-49.456

>  <SCORE.INTRA.VDW>
-0.576215

>  <SCORE.INTRA.VDW.0>
-0.478406

>  <SCORE.INTRA.norm>
-0.0571745

>  <SCORE.RESTR>
0

>  <SCORE.RESTR.CAVITY>
0

>  <SCORE.RESTR.norm>
0

>  <SCORE.SYSTEM>
0

>  <SCORE.SYSTEM.CONST>
0

>  <SCORE.SYSTEM.DIHEDRAL>
0

>  <SCORE.SYSTEM.SOLV>
0

>  <SCORE.SYSTEM.norm>
0

>  <SCORE.heavy>
14

>  <SCORE.norm>
-0.876797

>  <RMSD>
3.921

$$$$
ligand
 OpenBabel11021811413D
libRbt.so/2013.1/901 2013/11/27
 14 13  0  0  0  0  0  0  0  0999 V2000
   45.4421    9.5813   18.8422 N   0  0  0  0  0  0  0  0  0  0  0  0
   46.7518    8.9692   19.1538 C   0  0  0  0  0  0  0  0  0  0  0  0
   46.5961    7.7875   20.1353 C   0  0  0  0  0  0  0  0  0  0  0  0
   45.8119    6.5895   19.5752 C   0  0  0  0  0  0  0  0  0  0  0  0
   45.8021    5.4578   20.5425 N   0  0  0  0  0  0  0  0  0  0  0  0
   45.0398    4.3116   19.9839 C   0  0  0  0  0  0  0  0  0  0  0  0
   45.8770    3.2844   19.1495 C   0  0  0  0  0  0  0  0  0  0  0  0
   45.0326    2.1392   18.5203 C   0  0  0  0  0  0  0  0  0  0  0  0
   45.8583    1.0855   17.8082 C   0  0  0  0  0  0  0  0  0  0  0  0
   44.9450    0.2451   17.0573 N   0  0  0  0  0  0  0  0  0  0  0  0
   45.6453   -1.0087   16.8398 C   0  0  0  0  0  0  0  0  0  0  0  0
   45.3743   -1.5645   15.4467 C   0  0  0  0  0  0  0  0  0  0  0  0
   46.1242   -0.6797   14.4393 C   0  0  0  0  0  0  0  0  0  0  0  0
   45.5352    0.6636   14.3337 N   0  0  0  0  0  0  0  0  0  0  0  0
  1  2  1  0  0  0  0
  2  3  1  0  0  0  0
  3  4  1  0  0  0  0
  4  5  1  0  0  0  0
  5  6  1  0  0  0  0
  6  7  1  0  0  0  0
  7  8  1  0  0  0  0
  8  9  1  0  0  0  0
  9 10  1  0  0  0  0
 10 11  1  0  0  0  0
 11 12  1  0  0  0  0
 12 13  1  0  0  0  0
 13 14  1  0  0  0  0
M  END
>  <CHROM.1>
65.14351244,175.49020255,179.96950933,89.97408166,-177.00552291,-175.30480333
-168.86737132,-157.98518856,-141.05553949,71.98570009,-69.39922801,45.70264727
3.34700944,17.98781445,-1.22783862,-1.41489970,-2.37027091

>  <Name>
ligand

>  <RI>
0

>  <Rbt.Current_Directory>
/home/itssahil/PROJECTS/Mol_Feturizer/New_Systems/rnas/1TN2

>  <Rbt.Executable>
rbdock ($Id: //depot/dev/client3/rdock/2013.1/src/exe/rbdock.cxx#4 $)

>  <Rbt.Library>
libRbt.so (2013.1, Build901 2013/11/27)

>  <Rbt.Parameter_File>
/export/apps/rDock/src/rDock_2013.1_src/data/scripts/dock_solv.prm

>  <Rbt.Receptor>
prm/pocket_docking_3.prm

>  <SCORE>
-7.85043

>  <SCORE.INTER>
-7.15925

>  <SCORE.INTER.CONST>
1

>  <SCORE.INTER.POLAR>
0

>  <SCORE.INTER.ROT>
11

>  <SCORE.INTER.SOLV>
12.608

>  <SCORE.INTER.VDW>
-19.9088

>  <SCORE.INTER.norm>
-0.511375

>  <SCORE.INTRA>
-0.691184

>  <SCORE.INTRA.DIHEDRAL>
-4.35726

>  <SCORE.INTRA.DIHEDRAL.0>
7.79482

>  <SCORE.INTRA.POLAR>
0

>  <SCORE.INTRA.POLAR.0>
0

>  <SCORE.INTRA.REPUL>
0

>  <SCORE.INTRA.REPUL.0>
0

>  <SCORE.INTRA.SOLV>
4.19016

>  <SCORE.INTRA.SOLV.lig_0>
-49.456

>  <SCORE.INTRA.VDW>
-0.607633

>  <SCORE.INTRA.VDW.0>
-0.478406

>  <SCORE.INTRA.norm>
-0.0493703

>  <SCORE.RESTR>
0

>  <SCORE.RESTR.CAVITY>
0

>  <SCORE.RESTR.norm>
0

>  <SCORE.SYSTEM>
0

>  <SCORE.SYSTEM.CONST>
0

>  <SCORE.SYSTEM.DIHEDRAL>
0

>  <SCORE.SYSTEM.SOLV>
0

>  <SCORE.SYSTEM.norm>
0

>  <SCORE.heavy>
14

>  <SCORE.norm>
-0.560745

>  <RMSD>
3.929

$$$$
ligand
 OpenBabel11021811413D
libRbt.so/2013.1/901 2013/11/27
 14 13  0  0  0  0  0  0  0  0999 V2000
   45.9430    9.9482   18.5261 N   0  0  0  0  0  0  0  0  0  0  0  0
   45.4311    9.0258   19.5625 C   0  0  0  0  0  0  0  0  0  0  0  0
   46.0977    7.6375   19.4524 C   0  0  0  0  0  0  0  0  0  0  0  0
   45.5804    6.5976   20.4599 C   0  0  0  0  0  0  0  0  0  0  0  0
   46.2893    5.2984   20.2984 N   0  0  0  0  0  0  0  0  0  0  0  0
   45.4366    4.3376   19.5524 C   0  0  0  0  0  0  0  0  0  0  0  0
   46.1702    3.0691   19.0002 C   0  0  0  0  0  0  0  0  0  0  0  0
   45.2399    2.0747   18.2476 C   0  0  0  0  0  0  0  0  0  0  0  0
   45.9302    0.7981   17.8087 C   0  0  0  0  0  0  0  0  0  0  0  0
   44.9864    0.0411   17.0083 N   0  0  0  0  0  0  0  0  0  0  0  0
   45.6725   -1.1840   16.6367 C   0  0  0  0  0  0  0  0  0  0  0  0
   45.9939   -1.2134   15.1471 C   0  0  0  0  0  0  0  0  0  0  0  0
   44.6624   -1.3002   14.3859 C   0  0  0  0  0  0  0  0  0  0  0  0
   44.8595   -1.4183   12.9334 N   0  0  0  0  0  0  0  0  0  0  0  0
  1  2  1  0  0  0  0
  2  3  1  0  0  0  0
  3  4  1  0  0  0  0
  4  5  1  0  0  0  0
  5  6  1  0  0  0  0
  6  7  1  0  0  0  0
  7  8  1  0  0  0  0
  8  9  1  0  0  0  0
  9 10  1  0  0  0  0
 10 11  1  0  0  0  0
 11 12  1  0  0  0  0
 12 13  1  0  0  0  0
 13 14  1  0  0  0  0
M  END
>  <CHROM.1>
-177.66532429,-179.11456174,-101.68908976,165.38401473,178.94909137,-175.48230741
-174.16999802,-178.64374989,-110.39018624,-67.06696323,-176.47512157,45.59239629
3.12215056,17.78735093,1.18427246,-1.42173264,0.07819870

>  <Name>
ligand

>  <RI>
0

>  <Rbt.Current_Directory>
/home/itssahil/PROJECTS/Mol_Feturizer/New_Systems/rnas/1TN2

>  <Rbt.Executable>
rbdock ($Id: //depot/dev/client3/rdock/2013.1/src/exe/rbdock.cxx#4 $)

>  <Rbt.Library>
libRbt.so (2013.1, Build901 2013/11/27)

>  <Rbt.Parameter_File>
/export/apps/rDock/src/rDock_2013.1_src/data/scripts/dock_solv.prm

>  <Rbt.Receptor>
prm/pocket_docking_7.prm

>  <SCORE>
-10.3479

>  <SCORE.INTER>
-7.52355

>  <SCORE.INTER.CONST>
1

>  <SCORE.INTER.POLAR>
0

>  <SCORE.INTER.ROT>
11

>  <SCORE.INTER.SOLV>
12.7169

>  <SCORE.INTER.VDW>
-20.188

>  <SCORE.INTER.norm>
-0.537396

>  <SCORE.INTRA>
-2.82435

>  <SCORE.INTRA.DIHEDRAL>
-5.08143

>  <SCORE.INTRA.DIHEDRAL.0>
7.79482

>  <SCORE.INTRA.POLAR>
0

>  <SCORE.INTRA.POLAR.0>
0

>  <SCORE.INTRA.REPUL>
0

>  <SCORE.INTRA.REPUL.0>
0

>  <SCORE.INTRA.SOLV>
0.33319

>  <SCORE.INTRA.SOLV.lig_0>
-49.456

>  <SCORE.INTRA.VDW>
-0.45023

>  <SCORE.INTRA.VDW.0>
-0.478406

>  <SCORE.INTRA.norm>
-0.201739

>  <SCORE.RESTR>
0

>  <SCORE.RESTR.CAVITY>
0

>  <SCORE.RESTR.norm>
0

>  <SCORE.SYSTEM>
0

>  <SCORE.SYSTEM.CONST>
0

>  <SCORE.SYSTEM.DIHEDRAL>
0

>  <SCORE.SYSTEM.SOLV>
0

>  <SCORE.SYSTEM.norm>
0

>  <SCORE.heavy>
14

>  <SCORE.norm>
-0.739136

>  <RMSD>
3.957

$$$$
ligand
 OpenBabel11021811413D
libRbt.so/2013.1/901 2013/11/27
 14 13  0  0  0  0  0  0  0  0999 V2000
   46.9725    0.0917   12.7766 N   0  0  0  0  0  0  0  0  0  0  0  0
   46.5319    0.0342   14.1872 C   0  0  0  0  0  0  0  0  0  0  0  0
   45.0110    0.2716   14.3069 C   0  0  0  0  0  0  0  0  0  0  0  0
   44.4695    0.2387   15.7455 C   0  0  0  0  0  0  0  0  0  0  0  0
   45.0491    1.3418   16.5601 N   0  0  0  0  0  0  0  0  0  0  0  0
   44.6808    1.1729   17.9893 C   0  0  0  0  0  0  0  0  0  0  0  0
   44.7848    2.4622   18.8719 C   0  0  0  0  0  0  0  0  0  0  0  0
   46.1790    3.1512   18.8278 C   0  0  0  0  0  0  0  0  0  0  0  0
   46.3510    4.2584   19.8494 C   0  0  0  0  0  0  0  0  0  0  0  0
   45.4385    5.3290   19.4948 N   0  0  0  0  0  0  0  0  0  0  0  0
   45.4282    6.2353   20.6298 C   0  0  0  0  0  0  0  0  0  0  0  0
   45.0265    7.6455   20.2136 C   0  0  0  0  0  0  0  0  0  0  0  0
   46.1345    8.1944   19.3020 C   0  0  0  0  0  0  0  0  0  0  0  0
   45.8512    9.5635   18.8459 N   0  0  0  0  0  0  0  0  0  0  0  0
  1  2  1  0  0  0  0
  2  3  1  0  0  0  0
  3  4  1  0  0  0  0
  4  5  1  0  0  0  0
  5  6  1  0  0  0  0
  6  7  1  0  0  0  0
  7  8  1  0  0  0  0
  8  9  1  0  0  0  0
  9 10  1  0  0  0  0
 10 11  1  0  0  0  0
 11 12  1  0  0  0  0
 12 13  1  0  0  0  0
 13 14  1  0  0  0  0
M  END
>  <CHROM.1>
-179.57223990,63.65840390,-171.35756619,-159.95590308,-54.66132508,-170.47354582
-66.10173006,168.55063972,155.59130842,-66.30021257,-179.62400791,45.56478484
3.57055124,17.68609347,-1.56397044,1.23772790,0.60618569

>  <Name>
ligand

>  <RI>
0

>  <Rbt.Current_Directory>
/home/itssahil/PROJECTS/Mol_Feturizer/New_Systems/rnas/1TN2

>  <Rbt.Executable>
rbdock ($Id: //depot/dev/client3/rdock/2013.1/src/exe/rbdock.cxx#4 $)

>  <Rbt.Library>
libRbt.so (2013.1, Build901 2013/11/27)

>  <Rbt.Parameter_File>
/export/apps/rDock/src/rDock_2013.1_src/data/scripts/dock_solv.prm

>  <Rbt.Receptor>
prm/blind_docking_100.prm

>  <SCORE>
-8.13116

>  <SCORE.INTER>
-5.12541

>  <SCORE.INTER.CONST>
1

>  <SCORE.INTER.POLAR>
0

>  <SCORE.INTER.ROT>
11

>  <SCORE.INTER.SOLV>
9.58877

>  <SCORE.INTER.VDW>
-17.5465

>  <SCORE.INTER.norm>
-0.366101

>  <SCORE.INTRA>
-3.00575

>  <SCORE.INTRA.DIHEDRAL>
-6.0816

>  <SCORE.INTRA.DIHEDRAL.0>
7.79482

>  <SCORE.INTRA.POLAR>
0

>  <SCORE.INTRA.POLAR.0>
0

>  <SCORE.INTRA.REPUL>
0

>  <SCORE.INTRA.REPUL.0>
0

>  <SCORE.INTRA.SOLV>
1.39366

>  <SCORE.INTRA.SOLV.lig_0>
-49.456

>  <SCORE.INTRA.VDW>
-0.661777

>  <SCORE.INTRA.VDW.0>
-0.478406

>  <SCORE.INTRA.norm>
-0.214696

>  <SCORE.RESTR>
0

>  <SCORE.RESTR.CAVITY>
0

>  <SCORE.RESTR.norm>
0

>  <SCORE.SYSTEM>
0

>  <SCORE.SYSTEM.CONST>
0

>  <SCORE.SYSTEM.DIHEDRAL>
0

>  <SCORE.SYSTEM.SOLV>
0

>  <SCORE.SYSTEM.norm>
0

>  <SCORE.heavy>
14

>  <SCORE.norm>
-0.580797

>  <RMSD>
3.960

$$$$
ligand
 OpenBabel11021811413D
libRbt.so/2013.1/901 2013/11/27
 14 13  0  0  0  0  0  0  0  0999 V2000
   45.1038   -0.9036   13.0015 N   0  0  0  0  0  0  0  0  0  0  0  0
   44.8205   -0.6214   14.4253 C   0  0  0  0  0  0  0  0  0  0  0  0
   45.8300   -1.3382   15.3479 C   0  0  0  0  0  0  0  0  0  0  0  0
   45.5988   -1.1083   16.8504 C   0  0  0  0  0  0  0  0  0  0  0  0
   45.8056    0.3215   17.2103 N   0  0  0  0  0  0  0  0  0  0  0  0
   44.5295    0.9237   17.6748 C   0  0  0  0  0  0  0  0  0  0  0  0
   44.6532    1.9440   18.8562 C   0  0  0  0  0  0  0  0  0  0  0  0
   45.6079    3.1378   18.5670 C   0  0  0  0  0  0  0  0  0  0  0  0
   45.6266    4.1896   19.6589 C   0  0  0  0  0  0  0  0  0  0  0  0
   46.5460    5.2336   19.2478 N   0  0  0  0  0  0  0  0  0  0  0  0
   46.0570    6.4576   19.8580 C   0  0  0  0  0  0  0  0  0  0  0  0
   46.8675    7.6675   19.4080 C   0  0  0  0  0  0  0  0  0  0  0  0
   46.2864    8.9037   20.1109 C   0  0  0  0  0  0  0  0  0  0  0  0
   44.9424    9.2419   19.6190 N   0  0  0  0  0  0  0  0  0  0  0  0
  1  2  1  0  0  0  0
  2  3  1  0  0  0  0
  3  4  1  0  0  0  0
  4  5  1  0  0  0  0
  5  6  1  0  0  0  0
  6  7  1  0  0  0  0
  7  8  1  0  0  0  0
  8  9  1  0  0  0  0
  9 10  1  0  0  0  0
 10 11  1  0  0  0  0
 11 12  1  0  0  0  0
 12 13  1  0  0  0  0
 13 14  1  0  0  0  0
M  END
>  <CHROM.1>
-179.45148042,-64.90112375,115.08386380,142.31753035,56.81455026,174.60216135
-179.62842176,150.79081205,-175.06066886,-179.53262640,-68.81676716,45.59108982
3.14624867,17.84566253,-2.97351849,1.49237060,1.88561224

>  <Name>
ligand

>  <RI>
0

>  <Rbt.Current_Directory>
/home/itssahil/PROJECTS/Mol_Feturizer/New_Systems/rnas/1TN2

>  <Rbt.Executable>
rbdock ($Id: //depot/dev/client3/rdock/2013.1/src/exe/rbdock.cxx#4 $)

>  <Rbt.Library>
libRbt.so (2013.1, Build901 2013/11/27)

>  <Rbt.Parameter_File>
/export/apps/rDock/src/rDock_2013.1_src/data/scripts/dock_solv.prm

>  <Rbt.Receptor>
prm/blind_docking_60.prm

>  <SCORE>
-8.98476

>  <SCORE.INTER>
-6.59179

>  <SCORE.INTER.CONST>
1

>  <SCORE.INTER.POLAR>
0

>  <SCORE.INTER.ROT>
11

>  <SCORE.INTER.SOLV>
15.7753

>  <SCORE.INTER.VDW>
-20.5863

>  <SCORE.INTER.norm>
-0.470842

>  <SCORE.INTRA>
-2.39297

>  <SCORE.INTRA.DIHEDRAL>
-4.64308

>  <SCORE.INTRA.DIHEDRAL.0>
7.79482

>  <SCORE.INTRA.POLAR>
0

>  <SCORE.INTRA.POLAR.0>
0

>  <SCORE.INTRA.REPUL>
0

>  <SCORE.INTRA.REPUL.0>
0

>  <SCORE.INTRA.SOLV>
1.37166

>  <SCORE.INTRA.SOLV.lig_0>
-49.456

>  <SCORE.INTRA.VDW>
-0.757256

>  <SCORE.INTRA.VDW.0>
-0.478406

>  <SCORE.INTRA.norm>
-0.170926

>  <SCORE.RESTR>
0

>  <SCORE.RESTR.CAVITY>
0

>  <SCORE.RESTR.norm>
0

>  <SCORE.SYSTEM>
0

>  <SCORE.SYSTEM.CONST>
0

>  <SCORE.SYSTEM.DIHEDRAL>
0

>  <SCORE.SYSTEM.SOLV>
0

>  <SCORE.SYSTEM.norm>
0

>  <SCORE.heavy>
14

>  <SCORE.norm>
-0.641769

>  <RMSD>
3.972

$$$$
ligand
 OpenBabel11021811413D
libRbt.so/2013.1/901 2013/11/27
 14 13  0  0  0  0  0  0  0  0999 V2000
   45.1243   -3.1054   13.3570 N   0  0  0  0  0  0  0  0  0  0  0  0
   44.4026   -1.9033   13.8274 C   0  0  0  0  0  0  0  0  0  0  0  0
   45.2166   -1.1479   14.9002 C   0  0  0  0  0  0  0  0  0  0  0  0
   44.5657    0.1526   15.3991 C   0  0  0  0  0  0  0  0  0  0  0  0
   45.4128    0.8127   16.4302 N   0  0  0  0  0  0  0  0  0  0  0  0
   44.6372    1.0113   17.6815 C   0  0  0  0  0  0  0  0  0  0  0  0
   45.3673    1.8149   18.8099 C   0  0  0  0  0  0  0  0  0  0  0  0
   45.6411    3.3043   18.4534 C   0  0  0  0  0  0  0  0  0  0  0  0
   46.0711    4.1512   19.6353 C   0  0  0  0  0  0  0  0  0  0  0  0
   46.1674    5.5250   19.1795 N   0  0  0  0  0  0  0  0  0  0  0  0
   46.0044    6.3496   20.3641 C   0  0  0  0  0  0  0  0  0  0  0  0
   46.4323    7.7894   20.1045 C   0  0  0  0  0  0  0  0  0  0  0  0
   45.4319    8.3996   19.1111 C   0  0  0  0  0  0  0  0  0  0  0  0
   45.7691    9.7887   18.7657 N   0  0  0  0  0  0  0  0  0  0  0  0
  1  2  1  0  0  0  0
  2  3  1  0  0  0  0
  3  4  1  0  0  0  0
  4  5  1  0  0  0  0
  5  6  1  0  0  0  0
  6  7  1  0  0  0  0
  7  8  1  0  0  0  0
  8  9  1  0  0  0  0
  9 10  1  0  0  0  0
 10 11  1  0  0  0  0
 11 12  1  0  0  0  0
 12 13  1  0  0  0  0
 13 14  1  0  0  0  0
M  END
>  <CHROM.1>
177.37023180,179.86749253,-123.49819995,-174.64665951,66.11277244,167.60527937
-174.79571229,156.10409066,165.47552221,67.50282531,-178.76456383,45.44592635
3.06725952,17.57303237,2.22348737,1.40092958,2.98896662

>  <Name>
ligand

>  <RI>
0

>  <Rbt.Current_Directory>
/home/itssahil/PROJECTS/Mol_Feturizer/New_Systems/rnas/1TN2

>  <Rbt.Executable>
rbdock ($Id: //depot/dev/client3/rdock/2013.1/src/exe/rbdock.cxx#4 $)

>  <Rbt.Library>
libRbt.so (2013.1, Build901 2013/11/27)

>  <Rbt.Parameter_File>
/export/apps/rDock/src/rDock_2013.1_src/data/scripts/dock_solv.prm

>  <Rbt.Receptor>
prm/pocket_docking_6.prm

>  <SCORE>
-10.0017

>  <SCORE.INTER>
-7.18185

>  <SCORE.INTER.CONST>
1

>  <SCORE.INTER.POLAR>
0

>  <SCORE.INTER.ROT>
11

>  <SCORE.INTER.SOLV>
12.2793

>  <SCORE.INTER.VDW>
-19.8143

>  <SCORE.INTER.norm>
-0.512989

>  <SCORE.INTRA>
-2.81989

>  <SCORE.INTRA.DIHEDRAL>
-4.89833

>  <SCORE.INTRA.DIHEDRAL.0>
7.79482

>  <SCORE.INTRA.POLAR>
0

>  <SCORE.INTRA.POLAR.0>
0

>  <SCORE.INTRA.REPUL>
0

>  <SCORE.INTRA.REPUL.0>
0

>  <SCORE.INTRA.SOLV>
0.651466

>  <SCORE.INTRA.SOLV.lig_0>
-49.456

>  <SCORE.INTRA.VDW>
-0.696456

>  <SCORE.INTRA.VDW.0>
-0.478406

>  <SCORE.INTRA.norm>
-0.201421

>  <SCORE.RESTR>
0

>  <SCORE.RESTR.CAVITY>
0

>  <SCORE.RESTR.norm>
0

>  <SCORE.SYSTEM>
0

>  <SCORE.SYSTEM.CONST>
0

>  <SCORE.SYSTEM.DIHEDRAL>
0

>  <SCORE.SYSTEM.SOLV>
0

>  <SCORE.SYSTEM.norm>
0

>  <SCORE.heavy>
14

>  <SCORE.norm>
-0.71441

>  <RMSD>
3.975

$$$$
ligand
 OpenBabel11021811413D
libRbt.so/2013.1/901 2013/11/27
 14 13  0  0  0  0  0  0  0  0999 V2000
   44.6952   -2.0143   12.9241 N   0  0  0  0  0  0  0  0  0  0  0  0
   44.5383   -0.6406   13.4488 C   0  0  0  0  0  0  0  0  0  0  0  0
   44.8017   -0.5906   14.9693 C   0  0  0  0  0  0  0  0  0  0  0  0
   44.6502    0.8037   15.5995 C   0  0  0  0  0  0  0  0  0  0  0  0
   44.9198    0.7609   17.0630 N   0  0  0  0  0  0  0  0  0  0  0  0
   44.8428    2.1278   17.6394 C   0  0  0  0  0  0  0  0  0  0  0  0
   44.7967    2.2013   19.2029 C   0  0  0  0  0  0  0  0  0  0  0  0
   44.7448    3.6493   19.7694 C   0  0  0  0  0  0  0  0  0  0  0  0
   46.0024    4.4564   19.5123 C   0  0  0  0  0  0  0  0  0  0  0  0
   45.9338    5.6503   20.3334 N   0  0  0  0  0  0  0  0  0  0  0  0
   45.1788    6.6216   19.5612 C   0  0  0  0  0  0  0  0  0  0  0  0
   45.1435    7.9789   20.2539 C   0  0  0  0  0  0  0  0  0  0  0  0
   46.5269    8.6244   20.0821 C   0  0  0  0  0  0  0  0  0  0  0  0
   46.7847    9.0234   18.6903 N   0  0  0  0  0  0  0  0  0  0  0  0
  1  2  1  0  0  0  0
  2  3  1  0  0  0  0
  3  4  1  0  0  0  0
  4  5  1  0  0  0  0
  5  6  1  0  0  0  0
  6  7  1  0  0  0  0
  7  8  1  0  0  0  0
  8  9  1  0  0  0  0
  9 10  1  0  0  0  0
 10 11  1  0  0  0  0
 11 12  1  0  0  0  0
 12 13  1  0  0  0  0
 13 14  1  0  0  0  0
M  END
>  <CHROM.1>
-179.61507751,179.95220016,176.86285974,167.29687731,178.85392734,-66.36543677
-167.63634282,-85.74338913,-174.52514434,74.41892536,69.65360556,45.25413013
3.47523980,17.78947505,-2.09256865,1.31040404,1.08846469

>  <Name>
ligand

>  <RI>
0

>  <Rbt.Current_Directory>
/home/itssahil/PROJECTS/Mol_Feturizer/New_Systems/rnas/1TN2

>  <Rbt.Executable>
rbdock ($Id: //depot/dev/client3/rdock/2013.1/src/exe/rbdock.cxx#4 $)

>  <Rbt.Library>
libRbt.so (2013.1, Build901 2013/11/27)

>  <Rbt.Parameter_File>
/export/apps/rDock/src/rDock_2013.1_src/data/scripts/dock_solv.prm

>  <Rbt.Receptor>
prm/pocket_docking_6.prm

>  <SCORE>
-6.04847

>  <SCORE.INTER>
-4.65774

>  <SCORE.INTER.CONST>
1

>  <SCORE.INTER.POLAR>
0

>  <SCORE.INTER.ROT>
11

>  <SCORE.INTER.SOLV>
13.0399

>  <SCORE.INTER.VDW>
-18.3851

>  <SCORE.INTER.norm>
-0.332696

>  <SCORE.INTRA>
-1.39073

>  <SCORE.INTRA.DIHEDRAL>
-5.33959

>  <SCORE.INTRA.DIHEDRAL.0>
7.79482

>  <SCORE.INTRA.POLAR>
0

>  <SCORE.INTRA.POLAR.0>
0

>  <SCORE.INTRA.REPUL>
0

>  <SCORE.INTRA.REPUL.0>
0

>  <SCORE.INTRA.SOLV>
1.5663

>  <SCORE.INTRA.SOLV.lig_0>
-49.456

>  <SCORE.INTRA.VDW>
0.495917

>  <SCORE.INTRA.VDW.0>
-0.478406

>  <SCORE.INTRA.norm>
-0.0993375

>  <SCORE.RESTR>
0

>  <SCORE.RESTR.CAVITY>
0

>  <SCORE.RESTR.norm>
0

>  <SCORE.SYSTEM>
0

>  <SCORE.SYSTEM.CONST>
0

>  <SCORE.SYSTEM.DIHEDRAL>
0

>  <SCORE.SYSTEM.SOLV>
0

>  <SCORE.SYSTEM.norm>
0

>  <SCORE.heavy>
14

>  <SCORE.norm>
-0.432033

>  <RMSD>
3.987

$$$$
ligand
 OpenBabel11021811413D
libRbt.so/2013.1/901 2013/11/27
 14 13  0  0  0  0  0  0  0  0999 V2000
   45.7997    2.1258   17.6161 N   0  0  0  0  0  0  0  0  0  0  0  0
   45.1881    2.8943   18.7217 C   0  0  0  0  0  0  0  0  0  0  0  0
   46.2027    3.8760   19.3469 C   0  0  0  0  0  0  0  0  0  0  0  0
   45.6459    4.7203   20.5050 C   0  0  0  0  0  0  0  0  0  0  0  0
   44.4948    5.5507   20.0557 N   0  0  0  0  0  0  0  0  0  0  0  0
   44.3411    6.7356   20.9385 C   0  0  0  0  0  0  0  0  0  0  0  0
   43.4486    7.8906   20.3715 C   0  0  0  0  0  0  0  0  0  0  0  0
   41.9494    7.5105   20.2030 C   0  0  0  0  0  0  0  0  0  0  0  0
   41.0446    8.6908   19.9079 C   0  0  0  0  0  0  0  0  0  0  0  0
   41.5226    9.3172   18.6900 N   0  0  0  0  0  0  0  0  0  0  0  0
   41.4249   10.7490   18.9140 C   0  0  0  0  0  0  0  0  0  0  0  0
   41.9085   11.5373   17.7024 C   0  0  0  0  0  0  0  0  0  0  0  0
   43.4188   11.2940   17.5622 C   0  0  0  0  0  0  0  0  0  0  0  0
   44.0126   12.0953   16.4814 N   0  0  0  0  0  0  0  0  0  0  0  0
  1  2  1  0  0  0  0
  2  3  1  0  0  0  0
  3  4  1  0  0  0  0
  4  5  1  0  0  0  0
  5  6  1  0  0  0  0
  6  7  1  0  0  0  0
  7  8  1  0  0  0  0
  8  9  1  0  0  0  0
  9 10  1  0  0  0  0
 10 11  1  0  0  0  0
 11 12  1  0  0  0  0
 12 13  1  0  0  0  0
 13 14  1  0  0  0  0
M  END
>  <CHROM.1>
179.84176882,-59.95418471,-155.81826109,163.65196491,65.91735579,169.04129719
58.50311776,-139.26075156,179.66081852,-66.97557323,-175.49619671,43.60001832
7.49918868,19.07294516,-0.98568608,0.77281601,-0.58209415

>  <Name>
ligand

>  <RI>
0

>  <Rbt.Current_Directory>
/home/itssahil/PROJECTS/Mol_Feturizer/New_Systems/rnas/1TN2

>  <Rbt.Executable>
rbdock ($Id: //depot/dev/client3/rdock/2013.1/src/exe/rbdock.cxx#4 $)

>  <Rbt.Library>
libRbt.so (2013.1, Build901 2013/11/27)

>  <Rbt.Parameter_File>
/export/apps/rDock/src/rDock_2013.1_src/data/scripts/dock_solv.prm

>  <Rbt.Receptor>
prm/pocket_docking_5.prm

>  <SCORE>
-14.6442

>  <SCORE.INTER>
-11.9861

>  <SCORE.INTER.CONST>
1

>  <SCORE.INTER.POLAR>
0

>  <SCORE.INTER.ROT>
11

>  <SCORE.INTER.SOLV>
14.6683

>  <SCORE.INTER.VDW>
-23.8135

>  <SCORE.INTER.norm>
-0.856147

>  <SCORE.INTRA>
-2.65816

>  <SCORE.INTRA.DIHEDRAL>
-5.35959

>  <SCORE.INTRA.DIHEDRAL.0>
7.79482

>  <SCORE.INTRA.POLAR>
0

>  <SCORE.INTRA.POLAR.0>
0

>  <SCORE.INTRA.REPUL>
0

>  <SCORE.INTRA.REPUL.0>
0

>  <SCORE.INTRA.SOLV>
1.34772

>  <SCORE.INTRA.SOLV.lig_0>
-49.456

>  <SCORE.INTRA.VDW>
-0.652229

>  <SCORE.INTRA.VDW.0>
-0.478406

>  <SCORE.INTRA.norm>
-0.189869

>  <SCORE.RESTR>
0

>  <SCORE.RESTR.CAVITY>
0

>  <SCORE.RESTR.norm>
0

>  <SCORE.SYSTEM>
0

>  <SCORE.SYSTEM.CONST>
0

>  <SCORE.SYSTEM.DIHEDRAL>
0

>  <SCORE.SYSTEM.SOLV>
0

>  <SCORE.SYSTEM.norm>
0

>  <SCORE.heavy>
14

>  <SCORE.norm>
-1.04602

>  <RMSD>
3.989

$$$$
ligand
 OpenBabel11021811413D
libRbt.so/2013.1/901 2013/11/27
 14 13  0  0  0  0  0  0  0  0999 V2000
   49.8350    7.0712   16.1390 N   0  0  0  0  0  0  0  0  0  0  0  0
   49.1288    7.6576   17.2986 C   0  0  0  0  0  0  0  0  0  0  0  0
   47.6026    7.4532   17.1841 C   0  0  0  0  0  0  0  0  0  0  0  0
   46.7807    8.1380   18.2884 C   0  0  0  0  0  0  0  0  0  0  0  0
   47.0298    7.5028   19.6116 N   0  0  0  0  0  0  0  0  0  0  0  0
   45.8595    7.7010   20.5048 C   0  0  0  0  0  0  0  0  0  0  0  0
   44.7591    6.5891   20.4351 C   0  0  0  0  0  0  0  0  0  0  0  0
   45.2164    5.2077   20.9855 C   0  0  0  0  0  0  0  0  0  0  0  0
   46.3410    4.5709   20.1927 C   0  0  0  0  0  0  0  0  0  0  0  0
   45.8591    4.3559   18.8415 N   0  0  0  0  0  0  0  0  0  0  0  0
   45.9950    2.9314   18.5924 C   0  0  0  0  0  0  0  0  0  0  0  0
   46.6503    2.6612   17.2430 C   0  0  0  0  0  0  0  0  0  0  0  0
   45.7462    3.2655   16.1580 C   0  0  0  0  0  0  0  0  0  0  0  0
   46.2689    3.0287   14.8040 N   0  0  0  0  0  0  0  0  0  0  0  0
  1  2  1  0  0  0  0
  2  3  1  0  0  0  0
  3  4  1  0  0  0  0
  4  5  1  0  0  0  0
  5  6  1  0  0  0  0
  6  7  1  0  0  0  0
  7  8  1  0  0  0  0
  8  9  1  0  0  0  0
  9 10  1  0  0  0  0
 10 11  1  0  0  0  0
 11 12  1  0  0  0  0
 12 13  1  0  0  0  0
 13 14  1  0  0  0  0
M  END
>  <CHROM.1>
-175.00931087,-67.54106361,-154.17633571,89.76373151,67.59328554,-64.01713959
-61.27923895,-122.16812800,-132.77379909,-60.97083480,-178.43140957,46.64779717
5.58104719,18.30600262,-1.41888867,-0.89691550,-2.45555285

>  <Name>
ligand

>  <RI>
0

>  <Rbt.Current_Directory>
/home/itssahil/PROJECTS/Mol_Feturizer/New_Systems/rnas/1TN2

>  <Rbt.Executable>
rbdock ($Id: //depot/dev/client3/rdock/2013.1/src/exe/rbdock.cxx#4 $)

>  <Rbt.Library>
libRbt.so (2013.1, Build901 2013/11/27)

>  <Rbt.Parameter_File>
/export/apps/rDock/src/rDock_2013.1_src/data/scripts/dock_solv.prm

>  <Rbt.Receptor>
prm/pocket_docking_5.prm

>  <SCORE>
-7.50252

>  <SCORE.INTER>
-6.45632

>  <SCORE.INTER.CONST>
1

>  <SCORE.INTER.POLAR>
0

>  <SCORE.INTER.ROT>
11

>  <SCORE.INTER.SOLV>
11.2673

>  <SCORE.INTER.VDW>
-18.9933

>  <SCORE.INTER.norm>
-0.461165

>  <SCORE.INTRA>
-1.0462

>  <SCORE.INTRA.DIHEDRAL>
-3.85769

>  <SCORE.INTRA.DIHEDRAL.0>
7.79482

>  <SCORE.INTRA.POLAR>
0

>  <SCORE.INTRA.POLAR.0>
0

>  <SCORE.INTRA.REPUL>
0

>  <SCORE.INTRA.REPUL.0>
0

>  <SCORE.INTRA.SOLV>
3.1511

>  <SCORE.INTRA.SOLV.lig_0>
-49.456

>  <SCORE.INTRA.VDW>
-0.692909

>  <SCORE.INTRA.VDW.0>
-0.478406

>  <SCORE.INTRA.norm>
-0.0747288

>  <SCORE.RESTR>
0

>  <SCORE.RESTR.CAVITY>
0

>  <SCORE.RESTR.norm>
0

>  <SCORE.SYSTEM>
0

>  <SCORE.SYSTEM.CONST>
0

>  <SCORE.SYSTEM.DIHEDRAL>
0

>  <SCORE.SYSTEM.SOLV>
0

>  <SCORE.SYSTEM.norm>
0

>  <SCORE.heavy>
14

>  <SCORE.norm>
-0.535894

>  <RMSD>
4.021

$$$$
ligand
 OpenBabel11021811413D
libRbt.so/2013.1/901 2013/11/27
 14 13  0  0  0  0  0  0  0  0999 V2000
   47.8536    8.8938   16.8225 N   0  0  0  0  0  0  0  0  0  0  0  0
   47.8499    8.1578   18.1052 C   0  0  0  0  0  0  0  0  0  0  0  0
   46.4140    7.9869   18.6464 C   0  0  0  0  0  0  0  0  0  0  0  0
   46.3150    7.1904   19.9578 C   0  0  0  0  0  0  0  0  0  0  0  0
   44.8947    6.9213   20.3136 N   0  0  0  0  0  0  0  0  0  0  0  0
   44.8031    5.7278   21.1935 C   0  0  0  0  0  0  0  0  0  0  0  0
   44.6400    4.3554   20.4573 C   0  0  0  0  0  0  0  0  0  0  0  0
   45.8394    3.9801   19.5402 C   0  0  0  0  0  0  0  0  0  0  0  0
   45.6480    2.6847   18.7758 C   0  0  0  0  0  0  0  0  0  0  0  0
   46.8332    2.4728   17.9667 N   0  0  0  0  0  0  0  0  0  0  0  0
   46.4765    2.8889   16.6216 C   0  0  0  0  0  0  0  0  0  0  0  0
   47.6536    2.7477   15.6636 C   0  0  0  0  0  0  0  0  0  0  0  0
   47.1864    3.2244   14.2799 C   0  0  0  0  0  0  0  0  0  0  0  0
   48.2557    3.1417   13.2737 N   0  0  0  0  0  0  0  0  0  0  0  0
  1  2  1  0  0  0  0
  2  3  1  0  0  0  0
  3  4  1  0  0  0  0
  4  5  1  0  0  0  0
  5  6  1  0  0  0  0
  6  7  1  0  0  0  0
  7  8  1  0  0  0  0
  8  9  1  0  0  0  0
  9 10  1  0  0  0  0
 10 11  1  0  0  0  0
 11 12  1  0  0  0  0
 12 13  1  0  0  0  0
 13 14  1  0  0  0  0
M  END
>  <CHROM.1>
178.11301728,-172.62052670,156.18240323,-89.73724464,62.56960302,-177.10291163
179.70029129,-100.69675888,178.68359417,-179.34672321,179.48332828,46.47574034
5.02655833,17.97306281,-2.13673550,-1.06269328,-2.75323901

>  <Name>
ligand

>  <RI>
0

>  <Rbt.Current_Directory>
/home/itssahil/PROJECTS/Mol_Feturizer/New_Systems/rnas/1TN2

>  <Rbt.Executable>
rbdock ($Id: //depot/dev/client3/rdock/2013.1/src/exe/rbdock.cxx#4 $)

>  <Rbt.Library>
libRbt.so (2013.1, Build901 2013/11/27)

>  <Rbt.Parameter_File>
/export/apps/rDock/src/rDock_2013.1_src/data/scripts/dock_solv.prm

>  <Rbt.Receptor>
prm/blind_docking_60.prm

>  <SCORE>
-7.43003

>  <SCORE.INTER>
-4.24312

>  <SCORE.INTER.CONST>
1

>  <SCORE.INTER.POLAR>
0

>  <SCORE.INTER.ROT>
11

>  <SCORE.INTER.SOLV>
9.42949

>  <SCORE.INTER.VDW>
-16.9052

>  <SCORE.INTER.norm>
-0.30308

>  <SCORE.INTRA>
-3.18691

>  <SCORE.INTRA.DIHEDRAL>
-5.59376

>  <SCORE.INTRA.DIHEDRAL.0>
7.79482

>  <SCORE.INTRA.POLAR>
0

>  <SCORE.INTRA.POLAR.0>
0

>  <SCORE.INTRA.REPUL>
0

>  <SCORE.INTRA.REPUL.0>
0

>  <SCORE.INTRA.SOLV>
0.282756

>  <SCORE.INTRA.SOLV.lig_0>
-49.456

>  <SCORE.INTRA.VDW>
-0.531407

>  <SCORE.INTRA.VDW.0>
-0.478406

>  <SCORE.INTRA.norm>
-0.227636

>  <SCORE.RESTR>
0

>  <SCORE.RESTR.CAVITY>
0

>  <SCORE.RESTR.norm>
0

>  <SCORE.SYSTEM>
0

>  <SCORE.SYSTEM.CONST>
0

>  <SCORE.SYSTEM.DIHEDRAL>
0

>  <SCORE.SYSTEM.SOLV>
0

>  <SCORE.SYSTEM.norm>
0

>  <SCORE.heavy>
14

>  <SCORE.norm>
-0.530716

>  <RMSD>
4.034

$$$$
ligand
 OpenBabel11021811413D
libRbt.so/2013.1/901 2013/11/27
 14 13  0  0  0  0  0  0  0  0999 V2000
   47.2668    4.7914   14.0931 N   0  0  0  0  0  0  0  0  0  0  0  0
   47.4671    3.3272   14.0373 C   0  0  0  0  0  0  0  0  0  0  0  0
   47.7894    2.7544   15.4344 C   0  0  0  0  0  0  0  0  0  0  0  0
   46.6403    2.8609   16.4504 C   0  0  0  0  0  0  0  0  0  0  0  0
   47.0411    2.3029   17.7711 N   0  0  0  0  0  0  0  0  0  0  0  0
   45.9291    2.4422   18.7461 C   0  0  0  0  0  0  0  0  0  0  0  0
   45.6128    3.9049   19.2074 C   0  0  0  0  0  0  0  0  0  0  0  0
   44.4642    4.0071   20.2517 C   0  0  0  0  0  0  0  0  0  0  0  0
   44.0377    5.4290   20.5604 C   0  0  0  0  0  0  0  0  0  0  0  0
   45.2098    6.1492   21.0206 N   0  0  0  0  0  0  0  0  0  0  0  0
   45.1339    7.4648   20.4097 C   0  0  0  0  0  0  0  0  0  0  0  0
   46.5014    8.1361   20.3595 C   0  0  0  0  0  0  0  0  0  0  0  0
   46.3120    9.5310   19.7444 C   0  0  0  0  0  0  0  0  0  0  0  0
   45.9821    9.4666   18.3127 N   0  0  0  0  0  0  0  0  0  0  0  0
  1  2  1  0  0  0  0
  2  3  1  0  0  0  0
  3  4  1  0  0  0  0
  4  5  1  0  0  0  0
  5  6  1  0  0  0  0
  6  7  1  0  0  0  0
  7  8  1  0  0  0  0
  8  9  1  0  0  0  0
  9 10  1  0  0  0  0
 10 11  1  0  0  0  0
 11 12  1  0  0  0  0
 12 13  1  0  0  0  0
 13 14  1  0  0  0  0
M  END
>  <CHROM.1>
65.97417739,-179.27131566,178.75121435,-69.77302993,-178.70446641,-172.42296241
-57.03373053,139.35796940,-158.52498495,-178.14457584,-69.93263070,46.09901794
5.18319198,18.31440690,-0.95275133,1.14234891,0.19084607

>  <Name>
ligand

>  <RI>
0

>  <Rbt.Current_Directory>
/home/itssahil/PROJECTS/Mol_Feturizer/New_Systems/rnas/1TN2

>  <Rbt.Executable>
rbdock ($Id: //depot/dev/client3/rdock/2013.1/src/exe/rbdock.cxx#4 $)

>  <Rbt.Library>
libRbt.so (2013.1, Build901 2013/11/27)

>  <Rbt.Parameter_File>
/export/apps/rDock/src/rDock_2013.1_src/data/scripts/dock_solv.prm

>  <Rbt.Receptor>
prm/pocket_docking_7.prm

>  <SCORE>
-6.14126

>  <SCORE.INTER>
-4.07776

>  <SCORE.INTER.CONST>
1

>  <SCORE.INTER.POLAR>
0

>  <SCORE.INTER.ROT>
11

>  <SCORE.INTER.SOLV>
12.6466

>  <SCORE.INTER.VDW>
-17.8674

>  <SCORE.INTER.norm>
-0.291269

>  <SCORE.INTRA>
-2.0635

>  <SCORE.INTRA.DIHEDRAL>
-5.66728

>  <SCORE.INTRA.DIHEDRAL.0>
7.79482

>  <SCORE.INTRA.POLAR>
0

>  <SCORE.INTRA.POLAR.0>
0

>  <SCORE.INTRA.REPUL>
0

>  <SCORE.INTRA.REPUL.0>
0

>  <SCORE.INTRA.SOLV>
1.75332

>  <SCORE.INTRA.SOLV.lig_0>
-49.456

>  <SCORE.INTRA.VDW>
-0.10652

>  <SCORE.INTRA.VDW.0>
-0.478406

>  <SCORE.INTRA.norm>
-0.147393

>  <SCORE.RESTR>
0

>  <SCORE.RESTR.CAVITY>
0

>  <SCORE.RESTR.norm>
0

>  <SCORE.SYSTEM>
0

>  <SCORE.SYSTEM.CONST>
0

>  <SCORE.SYSTEM.DIHEDRAL>
0

>  <SCORE.SYSTEM.SOLV>
0

>  <SCORE.SYSTEM.norm>
0

>  <SCORE.heavy>
14

>  <SCORE.norm>
-0.438661

>  <RMSD>
4.039

$$$$
ligand
 OpenBabel11021811413D
libRbt.so/2013.1/901 2013/11/27
 14 13  0  0  0  0  0  0  0  0999 V2000
   45.9841    9.7623   18.6112 N   0  0  0  0  0  0  0  0  0  0  0  0
   46.5231    8.4890   19.1361 C   0  0  0  0  0  0  0  0  0  0  0  0
   45.4463    7.7083   19.9203 C   0  0  0  0  0  0  0  0  0  0  0  0
   45.9206    6.3616   20.4906 C   0  0  0  0  0  0  0  0  0  0  0  0
   46.3351    5.4359   19.4007 N   0  0  0  0  0  0  0  0  0  0  0  0
   45.6814    4.1133   19.5741 C   0  0  0  0  0  0  0  0  0  0  0  0
   46.0311    3.0384   18.4904 C   0  0  0  0  0  0  0  0  0  0  0  0
   45.3530    1.6577   18.7235 C   0  0  0  0  0  0  0  0  0  0  0  0
   45.7871    0.5855   17.7432 C   0  0  0  0  0  0  0  0  0  0  0  0
   45.2139    0.9130   16.4515 N   0  0  0  0  0  0  0  0  0  0  0  0
   45.1792   -0.3320   15.7042 C   0  0  0  0  0  0  0  0  0  0  0  0
   44.4025   -0.1791   14.4017 C   0  0  0  0  0  0  0  0  0  0  0  0
   44.4283   -1.5367   13.6831 C   0  0  0  0  0  0  0  0  0  0  0  0
   45.7798   -1.9008   13.2320 N   0  0  0  0  0  0  0  0  0  0  0  0
  1  2  1  0  0  0  0
  2  3  1  0  0  0  0
  3  4  1  0  0  0  0
  4  5  1  0  0  0  0
  5  6  1  0  0  0  0
  6  7  1  0  0  0  0
  7  8  1  0  0  0  0
  8  9  1  0  0  0  0
  9 10  1  0  0  0  0
 10 11  1  0  0  0  0
 11 12  1  0  0  0  0
 12 13  1  0  0  0  0
 13 14  1  0  0  0  0
M  END
>  <CHROM.1>
179.43593924,-61.80248922,-130.03178617,179.98096292,178.69357179,-174.95716628
-70.93068139,-157.85427297,171.27232543,179.68115609,-66.97137070,45.57600566
3.15100664,17.54045599,0.60790161,-1.45283760,-0.44297360

>  <Name>
ligand

>  <RI>
0

>  <Rbt.Current_Directory>
/home/itssahil/PROJECTS/Mol_Feturizer/New_Systems/rnas/1TN2

>  <Rbt.Executable>
rbdock ($Id: //depot/dev/client3/rdock/2013.1/src/exe/rbdock.cxx#4 $)

>  <Rbt.Library>
libRbt.so (2013.1, Build901 2013/11/27)

>  <Rbt.Parameter_File>
/export/apps/rDock/src/rDock_2013.1_src/data/scripts/dock_solv.prm

>  <Rbt.Receptor>
prm/blind_docking_100.prm

>  <SCORE>
-9.46863

>  <SCORE.INTER>
-6.81162

>  <SCORE.INTER.CONST>
1

>  <SCORE.INTER.POLAR>
0

>  <SCORE.INTER.ROT>
11

>  <SCORE.INTER.SOLV>
10.6031

>  <SCORE.INTER.VDW>
-19.0088

>  <SCORE.INTER.norm>
-0.486544

>  <SCORE.INTRA>
-2.65701

>  <SCORE.INTRA.DIHEDRAL>
-5.50595

>  <SCORE.INTRA.DIHEDRAL.0>
7.79482

>  <SCORE.INTRA.POLAR>
0

>  <SCORE.INTRA.POLAR.0>
0

>  <SCORE.INTRA.REPUL>
0

>  <SCORE.INTRA.REPUL.0>
0

>  <SCORE.INTRA.SOLV>
1.40619

>  <SCORE.INTRA.SOLV.lig_0>
-49.456

>  <SCORE.INTRA.VDW>
-0.607132

>  <SCORE.INTRA.VDW.0>
-0.478406

>  <SCORE.INTRA.norm>
-0.189787

>  <SCORE.RESTR>
0

>  <SCORE.RESTR.CAVITY>
0

>  <SCORE.RESTR.norm>
0

>  <SCORE.SYSTEM>
0

>  <SCORE.SYSTEM.CONST>
0

>  <SCORE.SYSTEM.DIHEDRAL>
0

>  <SCORE.SYSTEM.SOLV>
0

>  <SCORE.SYSTEM.norm>
0

>  <SCORE.heavy>
14

>  <SCORE.norm>
-0.676331

>  <RMSD>
4.046

$$$$
ligand
 OpenBabel11021811413D
libRbt.so/2013.1/901 2013/11/27
 14 13  0  0  0  0  0  0  0  0999 V2000
   43.2108   13.2213   16.7480 N   0  0  0  0  0  0  0  0  0  0  0  0
   42.1050   12.2896   17.0583 C   0  0  0  0  0  0  0  0  0  0  0  0
   42.4260   11.4383   18.3058 C   0  0  0  0  0  0  0  0  0  0  0  0
   41.3139   10.4588   18.7155 C   0  0  0  0  0  0  0  0  0  0  0  0
   41.6808    9.7225   19.9563 N   0  0  0  0  0  0  0  0  0  0  0  0
   41.1646    8.3307   19.8990 C   0  0  0  0  0  0  0  0  0  0  0  0
   41.9599    7.2787   20.7434 C   0  0  0  0  0  0  0  0  0  0  0  0
   43.4571    7.1438   20.3429 C   0  0  0  0  0  0  0  0  0  0  0  0
   44.2193    6.1106   21.1494 C   0  0  0  0  0  0  0  0  0  0  0  0
   45.5840    6.0888   20.6579 N   0  0  0  0  0  0  0  0  0  0  0  0
   45.9031    4.6900   20.4313 C   0  0  0  0  0  0  0  0  0  0  0  0
   45.8864    4.3476   18.9461 C   0  0  0  0  0  0  0  0  0  0  0  0
   46.0706    2.8279   18.8175 C   0  0  0  0  0  0  0  0  0  0  0  0
   45.9775    2.3733   17.4220 N   0  0  0  0  0  0  0  0  0  0  0  0
  1  2  1  0  0  0  0
  2  3  1  0  0  0  0
  3  4  1  0  0  0  0
  4  5  1  0  0  0  0
  5  6  1  0  0  0  0
  6  7  1  0  0  0  0
  7  8  1  0  0  0  0
  8  9  1  0  0  0  0
  9 10  1  0  0  0  0
 10 11  1  0  0  0  0
 11 12  1  0  0  0  0
 12 13  1  0  0  0  0
 13 14  1  0  0  0  0
M  END
>  <CHROM.1>
178.87765665,-177.58851048,-144.58887031,153.52324584,-59.35393484,-179.19228772
179.42829300,-130.95124573,104.42429097,-173.51755131,176.08019390,43.63973241
7.59431223,19.22831963,-2.24882450,-0.82739818,2.45484514

>  <Name>
ligand

>  <RI>
0

>  <Rbt.Current_Directory>
/home/itssahil/PROJECTS/Mol_Feturizer/New_Systems/rnas/1TN2

>  <Rbt.Executable>
rbdock ($Id: //depot/dev/client3/rdock/2013.1/src/exe/rbdock.cxx#4 $)

>  <Rbt.Library>
libRbt.so (2013.1, Build901 2013/11/27)

>  <Rbt.Parameter_File>
/export/apps/rDock/src/rDock_2013.1_src/data/scripts/dock_solv.prm

>  <Rbt.Receptor>
prm/pocket_docking_7.prm

>  <SCORE>
-15.2412

>  <SCORE.INTER>
-12.5494

>  <SCORE.INTER.CONST>
1

>  <SCORE.INTER.POLAR>
0

>  <SCORE.INTER.ROT>
11

>  <SCORE.INTER.SOLV>
16.1329

>  <SCORE.INTER.VDW>
-24.6772

>  <SCORE.INTER.norm>
-0.896384

>  <SCORE.INTRA>
-2.69186

>  <SCORE.INTRA.DIHEDRAL>
-4.17415

>  <SCORE.INTRA.DIHEDRAL.0>
7.79482

>  <SCORE.INTRA.POLAR>
0

>  <SCORE.INTRA.POLAR.0>
0

>  <SCORE.INTRA.REPUL>
0

>  <SCORE.INTRA.REPUL.0>
0

>  <SCORE.INTRA.SOLV>
0.293841

>  <SCORE.INTRA.SOLV.lig_0>
-49.456

>  <SCORE.INTRA.VDW>
-0.751702

>  <SCORE.INTRA.VDW.0>
-0.478406

>  <SCORE.INTRA.norm>
-0.192275

>  <SCORE.RESTR>
0

>  <SCORE.RESTR.CAVITY>
0

>  <SCORE.RESTR.norm>
0

>  <SCORE.SYSTEM>
0

>  <SCORE.SYSTEM.CONST>
0

>  <SCORE.SYSTEM.DIHEDRAL>
0

>  <SCORE.SYSTEM.SOLV>
0

>  <SCORE.SYSTEM.norm>
0

>  <SCORE.heavy>
14

>  <SCORE.norm>
-1.08866

>  <RMSD>
4.052

$$$$
ligand
 OpenBabel11021811413D
libRbt.so/2013.1/901 2013/11/27
 14 13  0  0  0  0  0  0  0  0999 V2000
   45.1286   -1.9291   13.2473 N   0  0  0  0  0  0  0  0  0  0  0  0
   44.3417   -0.6826   13.1281 C   0  0  0  0  0  0  0  0  0  0  0  0
   44.9312    0.4364   14.0138 C   0  0  0  0  0  0  0  0  0  0  0  0
   44.9033    0.1400   15.5222 C   0  0  0  0  0  0  0  0  0  0  0  0
   45.4859    1.2683   16.2993 N   0  0  0  0  0  0  0  0  0  0  0  0
   45.6794    0.8692   17.7171 C   0  0  0  0  0  0  0  0  0  0  0  0
   46.3569    1.9415   18.6355 C   0  0  0  0  0  0  0  0  0  0  0  0
   45.5528    3.2672   18.7638 C   0  0  0  0  0  0  0  0  0  0  0  0
   46.1903    4.2868   19.6873 C   0  0  0  0  0  0  0  0  0  0  0  0
   45.3907    5.4957   19.6259 N   0  0  0  0  0  0  0  0  0  0  0  0
   46.0381    6.4465   20.5127 C   0  0  0  0  0  0  0  0  0  0  0  0
   45.8476    7.8793   20.0289 C   0  0  0  0  0  0  0  0  0  0  0  0
   46.6106    8.0278   18.7038 C   0  0  0  0  0  0  0  0  0  0  0  0
   46.4917    9.3821   18.1430 N   0  0  0  0  0  0  0  0  0  0  0  0
  1  2  1  0  0  0  0
  2  3  1  0  0  0  0
  3  4  1  0  0  0  0
  4  5  1  0  0  0  0
  5  6  1  0  0  0  0
  6  7  1  0  0  0  0
  7  8  1  0  0  0  0
  8  9  1  0  0  0  0
  9 10  1  0  0  0  0
 10 11  1  0  0  0  0
 11 12  1  0  0  0  0
 12 13  1  0  0  0  0
 13 14  1  0  0  0  0
M  END
>  <CHROM.1>
-63.19900832,-179.88046139,-169.68786273,176.96391616,61.41535686,178.22342509
175.67673295,-179.57610374,148.77817234,-66.57387541,179.91749189,45.63919954
3.34485065,17.43086015,2.66735704,1.42924547,2.62252571

>  <Name>
ligand

>  <RI>
0

>  <Rbt.Current_Directory>
/home/itssahil/PROJECTS/Mol_Feturizer/New_Systems/rnas/1TN2

>  <Rbt.Executable>
rbdock ($Id: //depot/dev/client3/rdock/2013.1/src/exe/rbdock.cxx#4 $)

>  <Rbt.Library>
libRbt.so (2013.1, Build901 2013/11/27)

>  <Rbt.Parameter_File>
/export/apps/rDock/src/rDock_2013.1_src/data/scripts/dock_solv.prm

>  <Rbt.Receptor>
prm/blind_docking_80.prm

>  <SCORE>
-9.79862

>  <SCORE.INTER>
-6.42339

>  <SCORE.INTER.CONST>
1

>  <SCORE.INTER.POLAR>
0

>  <SCORE.INTER.ROT>
11

>  <SCORE.INTER.SOLV>
9.57177

>  <SCORE.INTER.VDW>
-18.4062

>  <SCORE.INTER.norm>
-0.458813

>  <SCORE.INTRA>
-3.37524

>  <SCORE.INTRA.DIHEDRAL>
-6.77157

>  <SCORE.INTRA.DIHEDRAL.0>
7.79482

>  <SCORE.INTRA.POLAR>
0

>  <SCORE.INTRA.POLAR.0>
0

>  <SCORE.INTRA.REPUL>
0

>  <SCORE.INTRA.REPUL.0>
0

>  <SCORE.INTRA.SOLV>
1.39626

>  <SCORE.INTRA.SOLV.lig_0>
-49.456

>  <SCORE.INTRA.VDW>
-0.687583

>  <SCORE.INTRA.VDW.0>
-0.478406

>  <SCORE.INTRA.norm>
-0.241088

>  <SCORE.RESTR>
0

>  <SCORE.RESTR.CAVITY>
0

>  <SCORE.RESTR.norm>
0

>  <SCORE.SYSTEM>
0

>  <SCORE.SYSTEM.CONST>
0

>  <SCORE.SYSTEM.DIHEDRAL>
0

>  <SCORE.SYSTEM.SOLV>
0

>  <SCORE.SYSTEM.norm>
0

>  <SCORE.heavy>
14

>  <SCORE.norm>
-0.699902

>  <RMSD>
4.053

$$$$
ligand
 OpenBabel11021811413D
libRbt.so/2013.1/901 2013/11/27
 14 13  0  0  0  0  0  0  0  0999 V2000
   47.6243    3.0238   13.9312 N   0  0  0  0  0  0  0  0  0  0  0  0
   46.3106    3.6708   14.1381 C   0  0  0  0  0  0  0  0  0  0  0  0
   45.6472    3.1818   15.4438 C   0  0  0  0  0  0  0  0  0  0  0  0
   45.3601    1.6720   15.4892 C   0  0  0  0  0  0  0  0  0  0  0  0
   44.6560    1.2994   16.7469 N   0  0  0  0  0  0  0  0  0  0  0  0
   45.6390    0.9011   17.7870 C   0  0  0  0  0  0  0  0  0  0  0  0
   46.4185    2.0768   18.4669 C   0  0  0  0  0  0  0  0  0  0  0  0
   45.5030    3.1747   19.0808 C   0  0  0  0  0  0  0  0  0  0  0  0
   46.2611    4.3234   19.7169 C   0  0  0  0  0  0  0  0  0  0  0  0
   45.2839    5.2776   20.2057 N   0  0  0  0  0  0  0  0  0  0  0  0
   46.0009    6.5290   20.3774 C   0  0  0  0  0  0  0  0  0  0  0  0
   45.4318    7.6250   19.4839 C   0  0  0  0  0  0  0  0  0  0  0  0
   46.2979    8.8789   19.6775 C   0  0  0  0  0  0  0  0  0  0  0  0
   45.8772    9.9849   18.8042 N   0  0  0  0  0  0  0  0  0  0  0  0
  1  2  1  0  0  0  0
  2  3  1  0  0  0  0
  3  4  1  0  0  0  0
  4  5  1  0  0  0  0
  5  6  1  0  0  0  0
  6  7  1  0  0  0  0
  7  8  1  0  0  0  0
  8  9  1  0  0  0  0
  9 10  1  0  0  0  0
 10 11  1  0  0  0  0
 11 12  1  0  0  0  0
 12 13  1  0  0  0  0
 13 14  1  0  0  0  0
M  END
>  <CHROM.1>
-61.08367119,-176.92221170,-92.37500610,75.92272692,54.44078204,-178.98911710
178.35686721,-160.91352951,118.47040523,-176.94983139,177.03190626,45.87940861
4.40116626,17.81083117,-1.54630631,1.37517379,0.54424593

>  <Name>
ligand

>  <RI>
0

>  <Rbt.Current_Directory>
/home/itssahil/PROJECTS/Mol_Feturizer/New_Systems/rnas/1TN2

>  <Rbt.Executable>
rbdock ($Id: //depot/dev/client3/rdock/2013.1/src/exe/rbdock.cxx#4 $)

>  <Rbt.Library>
libRbt.so (2013.1, Build901 2013/11/27)

>  <Rbt.Parameter_File>
/export/apps/rDock/src/rDock_2013.1_src/data/scripts/dock_solv.prm

>  <Rbt.Receptor>
prm/blind_docking_100.prm

>  <SCORE>
-8.03387

>  <SCORE.INTER>
-5.565

>  <SCORE.INTER.CONST>
1

>  <SCORE.INTER.POLAR>
0

>  <SCORE.INTER.ROT>
11

>  <SCORE.INTER.SOLV>
10.3862

>  <SCORE.INTER.VDW>
-18.1054

>  <SCORE.INTER.norm>
-0.3975

>  <SCORE.INTRA>
-2.46887

>  <SCORE.INTRA.DIHEDRAL>
-5.21092

>  <SCORE.INTRA.DIHEDRAL.0>
7.79482

>  <SCORE.INTRA.POLAR>
0

>  <SCORE.INTRA.POLAR.0>
0

>  <SCORE.INTRA.REPUL>
0

>  <SCORE.INTRA.REPUL.0>
0

>  <SCORE.INTRA.SOLV>
1.02637

>  <SCORE.INTRA.SOLV.lig_0>
-49.456

>  <SCORE.INTRA.VDW>
-0.376594

>  <SCORE.INTRA.VDW.0>
-0.478406

>  <SCORE.INTRA.norm>
-0.176348

>  <SCORE.RESTR>
0

>  <SCORE.RESTR.CAVITY>
0

>  <SCORE.RESTR.norm>
0

>  <SCORE.SYSTEM>
0

>  <SCORE.SYSTEM.CONST>
0

>  <SCORE.SYSTEM.DIHEDRAL>
0

>  <SCORE.SYSTEM.SOLV>
0

>  <SCORE.SYSTEM.norm>
0

>  <SCORE.heavy>
14

>  <SCORE.norm>
-0.573848

>  <RMSD>
4.057

$$$$
ligand
 OpenBabel11021811413D
libRbt.so/2013.1/901 2013/11/27
 14 13  0  0  0  0  0  0  0  0999 V2000
   39.9180    6.5575   21.0310 N   0  0  0  0  0  0  0  0  0  0  0  0
   41.0079    7.5163   20.7483 C   0  0  0  0  0  0  0  0  0  0  0  0
   40.4991    8.7076   19.9081 C   0  0  0  0  0  0  0  0  0  0  0  0
   41.5597    9.7805   19.6113 C   0  0  0  0  0  0  0  0  0  0  0  0
   42.6592    9.2278   18.7735 N   0  0  0  0  0  0  0  0  0  0  0  0
   43.8228    8.8695   19.6247 C   0  0  0  0  0  0  0  0  0  0  0  0
   45.1571    8.5777   18.8589 C   0  0  0  0  0  0  0  0  0  0  0  0
   46.3308    8.1288   19.7762 C   0  0  0  0  0  0  0  0  0  0  0  0
   46.0783    6.8229   20.5040 C   0  0  0  0  0  0  0  0  0  0  0  0
   46.0100    5.7707   19.5078 N   0  0  0  0  0  0  0  0  0  0  0  0
   45.6971    4.5532   20.2355 C   0  0  0  0  0  0  0  0  0  0  0  0
   45.1353    3.4796   19.3108 C   0  0  0  0  0  0  0  0  0  0  0  0
   46.2885    2.9745   18.4305 C   0  0  0  0  0  0  0  0  0  0  0  0
   45.8481    1.9495   17.4723 N   0  0  0  0  0  0  0  0  0  0  0  0
  1  2  1  0  0  0  0
  2  3  1  0  0  0  0
  3  4  1  0  0  0  0
  4  5  1  0  0  0  0
  5  6  1  0  0  0  0
  6  7  1  0  0  0  0
  7  8  1  0  0  0  0
  8  9  1  0  0  0  0
  9 10  1  0  0  0  0
 10 11  1  0  0  0  0
 11 12  1  0  0  0  0
 12 13  1  0  0  0  0
 13 14  1  0  0  0  0
M  END
>  <CHROM.1>
177.88898425,63.92881857,-99.01928386,-166.94944833,-176.74140509,62.75651814
66.00948531,-177.03343500,160.67779613,71.33591597,-178.70043661,44.00100154
6.63717672,19.55679190,2.30231896,0.16458670,0.07487494

>  <Name>
ligand

>  <RI>
0

>  <Rbt.Current_Directory>
/home/itssahil/PROJECTS/Mol_Feturizer/New_Systems/rnas/1TN2

>  <Rbt.Executable>
rbdock ($Id: //depot/dev/client3/rdock/2013.1/src/exe/rbdock.cxx#4 $)

>  <Rbt.Library>
libRbt.so (2013.1, Build901 2013/11/27)

>  <Rbt.Parameter_File>
/export/apps/rDock/src/rDock_2013.1_src/data/scripts/dock_solv.prm

>  <Rbt.Receptor>
prm/blind_docking_60.prm

>  <SCORE>
-14.6484

>  <SCORE.INTER>
-12.1532

>  <SCORE.INTER.CONST>
1

>  <SCORE.INTER.POLAR>
0

>  <SCORE.INTER.ROT>
11

>  <SCORE.INTER.SOLV>
12.8247

>  <SCORE.INTER.VDW>
-23.3104

>  <SCORE.INTER.norm>
-0.868087

>  <SCORE.INTRA>
-2.49518

>  <SCORE.INTRA.DIHEDRAL>
-5.73731

>  <SCORE.INTRA.DIHEDRAL.0>
7.79482

>  <SCORE.INTRA.POLAR>
0

>  <SCORE.INTRA.POLAR.0>
0

>  <SCORE.INTRA.REPUL>
0

>  <SCORE.INTRA.REPUL.0>
0

>  <SCORE.INTRA.SOLV>
1.30467

>  <SCORE.INTRA.SOLV.lig_0>
-49.456

>  <SCORE.INTRA.VDW>
-0.278861

>  <SCORE.INTRA.VDW.0>
-0.478406

>  <SCORE.INTRA.norm>
-0.178227

>  <SCORE.RESTR>
0

>  <SCORE.RESTR.CAVITY>
0

>  <SCORE.RESTR.norm>
0

>  <SCORE.SYSTEM>
0

>  <SCORE.SYSTEM.CONST>
0

>  <SCORE.SYSTEM.DIHEDRAL>
0

>  <SCORE.SYSTEM.SOLV>
0

>  <SCORE.SYSTEM.norm>
0

>  <SCORE.heavy>
14

>  <SCORE.norm>
-1.04631

>  <RMSD>
4.072

$$$$
ligand
 OpenBabel11021811413D
libRbt.so/2013.1/901 2013/11/27
 14 13  0  0  0  0  0  0  0  0999 V2000
   45.6204    9.2515   18.6507 N   0  0  0  0  0  0  0  0  0  0  0  0
   45.8285    8.7924   20.0411 C   0  0  0  0  0  0  0  0  0  0  0  0
   46.5523    7.4290   20.0762 C   0  0  0  0  0  0  0  0  0  0  0  0
   45.7394    6.2580   19.5001 C   0  0  0  0  0  0  0  0  0  0  0  0
   46.5458    5.0066   19.4799 N   0  0  0  0  0  0  0  0  0  0  0  0
   45.6851    3.8469   19.1321 C   0  0  0  0  0  0  0  0  0  0  0  0
   46.4382    2.5794   18.6045 C   0  0  0  0  0  0  0  0  0  0  0  0
   45.5586    1.2976   18.5432 C   0  0  0  0  0  0  0  0  0  0  0  0
   44.5899    1.2710   17.3771 C   0  0  0  0  0  0  0  0  0  0  0  0
   45.3586    1.0186   16.1730 N   0  0  0  0  0  0  0  0  0  0  0  0
   44.5462    0.1293   15.3613 C   0  0  0  0  0  0  0  0  0  0  0  0
   45.3299   -1.1055   14.9319 C   0  0  0  0  0  0  0  0  0  0  0  0
   46.4370   -0.6430   13.9726 C   0  0  0  0  0  0  0  0  0  0  0  0
   47.2357   -1.7675   13.4625 N   0  0  0  0  0  0  0  0  0  0  0  0
  1  2  1  0  0  0  0
  2  3  1  0  0  0  0
  3  4  1  0  0  0  0
  4  5  1  0  0  0  0
  5  6  1  0  0  0  0
  6  7  1  0  0  0  0
  7  8  1  0  0  0  0
  8  9  1  0  0  0  0
  9 10  1  0  0  0  0
 10 11  1  0  0  0  0
 11 12  1  0  0  0  0
 12 13  1  0  0  0  0
 13 14  1  0  0  0  0
M  END
>  <CHROM.1>
-66.31422290,175.79401772,170.81161996,160.17372266,167.45993834,76.15001300
73.56230074,141.25634378,-127.67198958,-66.82086393,-178.33684315,45.81881990
3.09733158,17.52210460,-1.51334033,-1.36623959,-2.56257875

>  <Name>
ligand

>  <RI>
0

>  <Rbt.Current_Directory>
/home/itssahil/PROJECTS/Mol_Feturizer/New_Systems/rnas/1TN2

>  <Rbt.Executable>
rbdock ($Id: //depot/dev/client3/rdock/2013.1/src/exe/rbdock.cxx#4 $)

>  <Rbt.Library>
libRbt.so (2013.1, Build901 2013/11/27)

>  <Rbt.Parameter_File>
/export/apps/rDock/src/rDock_2013.1_src/data/scripts/dock_solv.prm

>  <Rbt.Receptor>
prm/pocket_docking_8.prm

>  <SCORE>
-6.96653

>  <SCORE.INTER>
-5.82165

>  <SCORE.INTER.CONST>
1

>  <SCORE.INTER.POLAR>
0

>  <SCORE.INTER.ROT>
11

>  <SCORE.INTER.SOLV>
11.6141

>  <SCORE.INTER.VDW>
-18.6858

>  <SCORE.INTER.norm>
-0.415832

>  <SCORE.INTRA>
-1.14487

>  <SCORE.INTRA.DIHEDRAL>
-2.74185

>  <SCORE.INTRA.DIHEDRAL.0>
7.79482

>  <SCORE.INTRA.POLAR>
0

>  <SCORE.INTRA.POLAR.0>
0

>  <SCORE.INTRA.REPUL>
0

>  <SCORE.INTRA.REPUL.0>
0

>  <SCORE.INTRA.SOLV>
1.46422

>  <SCORE.INTRA.SOLV.lig_0>
-49.456

>  <SCORE.INTRA.VDW>
-0.506054

>  <SCORE.INTRA.VDW.0>
-0.478406

>  <SCORE.INTRA.norm>
-0.0817766

>  <SCORE.RESTR>
0

>  <SCORE.RESTR.CAVITY>
0

>  <SCORE.RESTR.norm>
0

>  <SCORE.SYSTEM>
0

>  <SCORE.SYSTEM.CONST>
0

>  <SCORE.SYSTEM.DIHEDRAL>
0

>  <SCORE.SYSTEM.SOLV>
0

>  <SCORE.SYSTEM.norm>
0

>  <SCORE.heavy>
14

>  <SCORE.norm>
-0.497609

>  <RMSD>
4.080

$$$$
ligand
 OpenBabel11021811413D
libRbt.so/2013.1/901 2013/11/27
 14 13  0  0  0  0  0  0  0  0999 V2000
   45.6788    1.2414   16.9581 N   0  0  0  0  0  0  0  0  0  0  0  0
   44.4171    1.2518   17.7295 C   0  0  0  0  0  0  0  0  0  0  0  0
   44.6149    1.9062   19.1139 C   0  0  0  0  0  0  0  0  0  0  0  0
   45.1428    3.3496   19.0699 C   0  0  0  0  0  0  0  0  0  0  0  0
   45.1732    3.9492   20.4323 N   0  0  0  0  0  0  0  0  0  0  0  0
   46.0916    5.1165   20.4590 C   0  0  0  0  0  0  0  0  0  0  0  0
   45.4081    6.5185   20.3196 C   0  0  0  0  0  0  0  0  0  0  0  0
   46.3915    7.6726   19.9709 C   0  0  0  0  0  0  0  0  0  0  0  0
   47.0694    7.5176   18.6235 C   0  0  0  0  0  0  0  0  0  0  0  0
   47.9517    8.6546   18.4422 N   0  0  0  0  0  0  0  0  0  0  0  0
   48.9461    8.2357   17.4699 C   0  0  0  0  0  0  0  0  0  0  0  0
   50.0580    9.2687   17.3288 C   0  0  0  0  0  0  0  0  0  0  0  0
   51.0809    8.7162   16.3246 C   0  0  0  0  0  0  0  0  0  0  0  0
   50.5302    8.6249   14.9641 N   0  0  0  0  0  0  0  0  0  0  0  0
  1  2  1  0  0  0  0
  2  3  1  0  0  0  0
  3  4  1  0  0  0  0
  4  5  1  0  0  0  0
  5  6  1  0  0  0  0
  6  7  1  0  0  0  0
  7  8  1  0  0  0  0
  8  9  1  0  0  0  0
  9 10  1  0  0  0  0
 10 11  1  0  0  0  0
 11 12  1  0  0  0  0
 12 13  1  0  0  0  0
 13 14  1  0  0  0  0
M  END
>  <CHROM.1>
57.81286740,174.25567807,160.45712529,98.21646801,-164.47376770,63.41702380
-179.75826112,157.60626972,-171.95979077,177.94337593,67.06379194,47.03948235
5.85891562,18.37215375,-2.62413749,0.82342591,0.61342005

>  <Name>
ligand

>  <RI>
0

>  <Rbt.Current_Directory>
/home/itssahil/PROJECTS/Mol_Feturizer/New_Systems/rnas/1TN2

>  <Rbt.Executable>
rbdock ($Id: //depot/dev/client3/rdock/2013.1/src/exe/rbdock.cxx#4 $)

>  <Rbt.Library>
libRbt.so (2013.1, Build901 2013/11/27)

>  <Rbt.Parameter_File>
/export/apps/rDock/src/rDock_2013.1_src/data/scripts/dock_solv.prm

>  <Rbt.Receptor>
prm/pocket_docking_6.prm

>  <SCORE>
-6.51226

>  <SCORE.INTER>
-4.60376

>  <SCORE.INTER.CONST>
1

>  <SCORE.INTER.POLAR>
0

>  <SCORE.INTER.ROT>
11

>  <SCORE.INTER.SOLV>
11.2833

>  <SCORE.INTER.VDW>
-17.7636

>  <SCORE.INTER.norm>
-0.32884

>  <SCORE.INTRA>
-1.9085

>  <SCORE.INTRA.DIHEDRAL>
-4.98067

>  <SCORE.INTRA.DIHEDRAL.0>
7.79482

>  <SCORE.INTRA.POLAR>
0

>  <SCORE.INTRA.POLAR.0>
0

>  <SCORE.INTRA.REPUL>
0

>  <SCORE.INTRA.REPUL.0>
0

>  <SCORE.INTRA.SOLV>
1.65172

>  <SCORE.INTRA.SOLV.lig_0>
-49.456

>  <SCORE.INTRA.VDW>
-0.244028

>  <SCORE.INTRA.VDW.0>
-0.478406

>  <SCORE.INTRA.norm>
-0.136322

>  <SCORE.RESTR>
0

>  <SCORE.RESTR.CAVITY>
0

>  <SCORE.RESTR.norm>
0

>  <SCORE.SYSTEM>
0

>  <SCORE.SYSTEM.CONST>
0

>  <SCORE.SYSTEM.DIHEDRAL>
0

>  <SCORE.SYSTEM.SOLV>
0

>  <SCORE.SYSTEM.norm>
0

>  <SCORE.heavy>
14

>  <SCORE.norm>
-0.465162

>  <RMSD>
4.081

$$$$
ligand
 OpenBabel11021811413D
libRbt.so/2013.1/901 2013/11/27
 14 13  0  0  0  0  0  0  0  0999 V2000
   46.7618   -2.0423   13.2180 N   0  0  0  0  0  0  0  0  0  0  0  0
   45.5695   -1.6217   13.9853 C   0  0  0  0  0  0  0  0  0  0  0  0
   45.8751   -0.3850   14.8578 C   0  0  0  0  0  0  0  0  0  0  0  0
   44.6849    0.1218   15.6887 C   0  0  0  0  0  0  0  0  0  0  0  0
   45.0497    1.3460   16.4534 N   0  0  0  0  0  0  0  0  0  0  0  0
   45.6748    0.9748   17.7489 C   0  0  0  0  0  0  0  0  0  0  0  0
   45.3499    1.9218   18.9529 C   0  0  0  0  0  0  0  0  0  0  0  0
   45.8617    3.3796   18.7705 C   0  0  0  0  0  0  0  0  0  0  0  0
   45.4837    4.3112   19.9054 C   0  0  0  0  0  0  0  0  0  0  0  0
   45.9200    5.6461   19.5420 N   0  0  0  0  0  0  0  0  0  0  0  0
   45.4698    6.5175   20.6133 C   0  0  0  0  0  0  0  0  0  0  0  0
   45.2249    7.9361   20.1126 C   0  0  0  0  0  0  0  0  0  0  0  0
   46.5768    8.5097   19.6617 C   0  0  0  0  0  0  0  0  0  0  0  0
   47.0467    7.9034   18.4069 N   0  0  0  0  0  0  0  0  0  0  0  0
  1  2  1  0  0  0  0
  2  3  1  0  0  0  0
  3  4  1  0  0  0  0
  4  5  1  0  0  0  0
  5  6  1  0  0  0  0
  6  7  1  0  0  0  0
  7  8  1  0  0  0  0
  8  9  1  0  0  0  0
  9 10  1  0  0  0  0
 10 11  1  0  0  0  0
 11 12  1  0  0  0  0
 12 13  1  0  0  0  0
 13 14  1  0  0  0  0
M  END
>  <CHROM.1>
179.87230508,-177.61923069,-86.01324430,-144.86043865,-62.95214336,177.02460533
-174.98186618,176.66527626,-151.98580062,-64.92100849,72.25059155,45.75334342
3.17992372,17.70871921,-1.62832469,1.13009381,0.61204338

>  <Name>
ligand

>  <RI>
0

>  <Rbt.Current_Directory>
/home/itssahil/PROJECTS/Mol_Feturizer/New_Systems/rnas/1TN2

>  <Rbt.Executable>
rbdock ($Id: //depot/dev/client3/rdock/2013.1/src/exe/rbdock.cxx#4 $)

>  <Rbt.Library>
libRbt.so (2013.1, Build901 2013/11/27)

>  <Rbt.Parameter_File>
/export/apps/rDock/src/rDock_2013.1_src/data/scripts/dock_solv.prm

>  <Rbt.Receptor>
prm/blind_docking_60.prm

>  <SCORE>
-7.9783

>  <SCORE.INTER>
-6.70234

>  <SCORE.INTER.CONST>
1

>  <SCORE.INTER.POLAR>
0

>  <SCORE.INTER.ROT>
11

>  <SCORE.INTER.SOLV>
10.8776

>  <SCORE.INTER.VDW>
-19.0274

>  <SCORE.INTER.norm>
-0.478739

>  <SCORE.INTRA>
-1.27596

>  <SCORE.INTRA.DIHEDRAL>
-5.18691

>  <SCORE.INTRA.DIHEDRAL.0>
7.79482

>  <SCORE.INTRA.POLAR>
0

>  <SCORE.INTRA.POLAR.0>
0

>  <SCORE.INTRA.REPUL>
0

>  <SCORE.INTRA.REPUL.0>
0

>  <SCORE.INTRA.SOLV>
3.26585

>  <SCORE.INTRA.SOLV.lig_0>
-49.456

>  <SCORE.INTRA.VDW>
-0.315424

>  <SCORE.INTRA.VDW.0>
-0.478406

>  <SCORE.INTRA.norm>
-0.0911397

>  <SCORE.RESTR>
0

>  <SCORE.RESTR.CAVITY>
0

>  <SCORE.RESTR.norm>
0

>  <SCORE.SYSTEM>
0

>  <SCORE.SYSTEM.CONST>
0

>  <SCORE.SYSTEM.DIHEDRAL>
0

>  <SCORE.SYSTEM.SOLV>
0

>  <SCORE.SYSTEM.norm>
0

>  <SCORE.heavy>
14

>  <SCORE.norm>
-0.569878

>  <RMSD>
4.084

$$$$
ligand
 OpenBabel11021811413D
libRbt.so/2013.1/901 2013/11/27
 14 13  0  0  0  0  0  0  0  0999 V2000
   45.0553   -2.0002   12.9488 N   0  0  0  0  0  0  0  0  0  0  0  0
   44.6654   -1.5438   14.3005 C   0  0  0  0  0  0  0  0  0  0  0  0
   45.8877   -1.4784   15.2415 C   0  0  0  0  0  0  0  0  0  0  0  0
   45.5806   -0.9539   16.6538 C   0  0  0  0  0  0  0  0  0  0  0  0
   45.0773    0.4464   16.6061 N   0  0  0  0  0  0  0  0  0  0  0  0
   44.9217    0.9832   17.9825 C   0  0  0  0  0  0  0  0  0  0  0  0
   46.2221    1.5642   18.6332 C   0  0  0  0  0  0  0  0  0  0  0  0
   46.3741    3.1051   18.4821 C   0  0  0  0  0  0  0  0  0  0  0  0
   45.5012    3.9055   19.4288 C   0  0  0  0  0  0  0  0  0  0  0  0
   45.7436    5.3116   19.1673 N   0  0  0  0  0  0  0  0  0  0  0  0
   45.5200    5.9955   20.4291 C   0  0  0  0  0  0  0  0  0  0  0  0
   45.0641    7.4335   20.2109 C   0  0  0  0  0  0  0  0  0  0  0  0
   46.2472    8.2106   19.6140 C   0  0  0  0  0  0  0  0  0  0  0  0
   45.8874    9.5954   19.2742 N   0  0  0  0  0  0  0  0  0  0  0  0
  1  2  1  0  0  0  0
  2  3  1  0  0  0  0
  3  4  1  0  0  0  0
  4  5  1  0  0  0  0
  5  6  1  0  0  0  0
  6  7  1  0  0  0  0
  7  8  1  0  0  0  0
  8  9  1  0  0  0  0
  9 10  1  0  0  0  0
 10 11  1  0  0  0  0
 11 12  1  0  0  0  0
 12 13  1  0  0  0  0
 13 14  1  0  0  0  0
M  END
>  <CHROM.1>
177.48847146,-62.13503461,-174.09326409,83.59206692,95.66675559,76.94004761
-179.66366104,-150.35125401,-151.96749456,-68.25956757,175.99599851,45.55344615
2.89802242,17.78410495,2.08182836,1.46882247,3.12975549

>  <Name>
ligand

>  <RI>
0

>  <Rbt.Current_Directory>
/home/itssahil/PROJECTS/Mol_Feturizer/New_Systems/rnas/1TN2

>  <Rbt.Executable>
rbdock ($Id: //depot/dev/client3/rdock/2013.1/src/exe/rbdock.cxx#4 $)

>  <Rbt.Library>
libRbt.so (2013.1, Build901 2013/11/27)

>  <Rbt.Parameter_File>
/export/apps/rDock/src/rDock_2013.1_src/data/scripts/dock_solv.prm

>  <Rbt.Receptor>
prm/pocket_docking_4.prm

>  <SCORE>
-8.59003

>  <SCORE.INTER>
-8.07134

>  <SCORE.INTER.CONST>
1

>  <SCORE.INTER.POLAR>
0

>  <SCORE.INTER.ROT>
11

>  <SCORE.INTER.SOLV>
12.6719

>  <SCORE.INTER.VDW>
-20.5382

>  <SCORE.INTER.norm>
-0.576524

>  <SCORE.INTRA>
-0.52195

>  <SCORE.INTRA.DIHEDRAL>
-1.18684

>  <SCORE.INTRA.DIHEDRAL.0>
7.79482

>  <SCORE.INTRA.POLAR>
0

>  <SCORE.INTRA.POLAR.0>
0

>  <SCORE.INTRA.REPUL>
0

>  <SCORE.INTRA.REPUL.0>
0

>  <SCORE.INTRA.SOLV>
0.995355

>  <SCORE.INTRA.SOLV.lig_0>
-49.456

>  <SCORE.INTRA.VDW>
-0.42621

>  <SCORE.INTRA.VDW.0>
-0.478406

>  <SCORE.INTRA.norm>
-0.0372822

>  <SCORE.RESTR>
0.00326195

>  <SCORE.RESTR.CAVITY>
0.00326195

>  <SCORE.RESTR.norm>
0.000232996

>  <SCORE.SYSTEM>
0

>  <SCORE.SYSTEM.CONST>
0

>  <SCORE.SYSTEM.DIHEDRAL>
0

>  <SCORE.SYSTEM.SOLV>
0

>  <SCORE.SYSTEM.norm>
0

>  <SCORE.heavy>
14

>  <SCORE.norm>
-0.613574

>  <RMSD>
4.113

$$$$
ligand
 OpenBabel11021811413D
libRbt.so/2013.1/901 2013/11/27
 14 13  0  0  0  0  0  0  0  0999 V2000
   45.8121    0.9312   16.1186 N   0  0  0  0  0  0  0  0  0  0  0  0
   45.6364    1.3230   17.5337 C   0  0  0  0  0  0  0  0  0  0  0  0
   46.0389    2.7965   17.7589 C   0  0  0  0  0  0  0  0  0  0  0  0
   45.8118    3.3103   19.1901 C   0  0  0  0  0  0  0  0  0  0  0  0
   46.1250    4.7621   19.2927 N   0  0  0  0  0  0  0  0  0  0  0  0
   45.7415    5.2766   20.6325 C   0  0  0  0  0  0  0  0  0  0  0  0
   45.2921    6.7760   20.6784 C   0  0  0  0  0  0  0  0  0  0  0  0
   46.3975    7.7838   20.2510 C   0  0  0  0  0  0  0  0  0  0  0  0
   46.7440    7.7284   18.7760 C   0  0  0  0  0  0  0  0  0  0  0  0
   47.8590    8.6291   18.5524 N   0  0  0  0  0  0  0  0  0  0  0  0
   48.0918    8.6261   17.1187 C   0  0  0  0  0  0  0  0  0  0  0  0
   49.5654    8.8392   16.7926 C   0  0  0  0  0  0  0  0  0  0  0  0
   50.3261    7.5799   17.2345 C   0  0  0  0  0  0  0  0  0  0  0  0
   51.7660    7.6721   16.9501 N   0  0  0  0  0  0  0  0  0  0  0  0
  1  2  1  0  0  0  0
  2  3  1  0  0  0  0
  3  4  1  0  0  0  0
  4  5  1  0  0  0  0
  5  6  1  0  0  0  0
  6  7  1  0  0  0  0
  7  8  1  0  0  0  0
  8  9  1  0  0  0  0
  9 10  1  0  0  0  0
 10 11  1  0  0  0  0
 11 12  1  0  0  0  0
 12 13  1  0  0  0  0
 13 14  1  0  0  0  0
M  END
>  <CHROM.1>
176.72271460,-175.58599369,173.01865659,-149.08456677,-62.25829723,69.30996767
-175.05690129,-175.71179872,-148.43502334,69.29911532,179.33718084,47.22884222
5.85973990,18.34884955,-2.31139099,0.69180640,0.46428360

>  <Name>
ligand

>  <RI>
0

>  <Rbt.Current_Directory>
/home/itssahil/PROJECTS/Mol_Feturizer/New_Systems/rnas/1TN2

>  <Rbt.Executable>
rbdock ($Id: //depot/dev/client3/rdock/2013.1/src/exe/rbdock.cxx#4 $)

>  <Rbt.Library>
libRbt.so (2013.1, Build901 2013/11/27)

>  <Rbt.Parameter_File>
/export/apps/rDock/src/rDock_2013.1_src/data/scripts/dock_solv.prm

>  <Rbt.Receptor>
prm/pocket_docking_6.prm

>  <SCORE>
-8.41482

>  <SCORE.INTER>
-5.66568

>  <SCORE.INTER.CONST>
1

>  <SCORE.INTER.POLAR>
0

>  <SCORE.INTER.ROT>
11

>  <SCORE.INTER.SOLV>
10.9438

>  <SCORE.INTER.VDW>
-18.3584

>  <SCORE.INTER.norm>
-0.404691

>  <SCORE.INTRA>
-2.74914

>  <SCORE.INTRA.DIHEDRAL>
-5.5583

>  <SCORE.INTRA.DIHEDRAL.0>
7.79482

>  <SCORE.INTRA.POLAR>
0

>  <SCORE.INTRA.POLAR.0>
0

>  <SCORE.INTRA.REPUL>
0

>  <SCORE.INTRA.REPUL.0>
0

>  <SCORE.INTRA.SOLV>
1.35628

>  <SCORE.INTRA.SOLV.lig_0>
-49.456

>  <SCORE.INTRA.VDW>
-0.648126

>  <SCORE.INTRA.VDW.0>
-0.478406

>  <SCORE.INTRA.norm>
-0.196367

>  <SCORE.RESTR>
0

>  <SCORE.RESTR.CAVITY>
0

>  <SCORE.RESTR.norm>
0

>  <SCORE.SYSTEM>
0

>  <SCORE.SYSTEM.CONST>
0

>  <SCORE.SYSTEM.DIHEDRAL>
0

>  <SCORE.SYSTEM.SOLV>
0

>  <SCORE.SYSTEM.norm>
0

>  <SCORE.heavy>
14

>  <SCORE.norm>
-0.601058

>  <RMSD>
4.136

$$$$
ligand
 OpenBabel11021811413D
libRbt.so/2013.1/901 2013/11/27
 14 13  0  0  0  0  0  0  0  0999 V2000
   50.7883    7.3401   16.4045 N   0  0  0  0  0  0  0  0  0  0  0  0
   49.3764    7.7514   16.2476 C   0  0  0  0  0  0  0  0  0  0  0  0
   48.6863    7.9120   17.6195 C   0  0  0  0  0  0  0  0  0  0  0  0
   47.2179    8.3624   17.5483 C   0  0  0  0  0  0  0  0  0  0  0  0
   46.6624    8.5909   18.9105 N   0  0  0  0  0  0  0  0  0  0  0  0
   45.7518    7.4792   19.2867 C   0  0  0  0  0  0  0  0  0  0  0  0
   45.0874    7.5974   20.6997 C   0  0  0  0  0  0  0  0  0  0  0  0
   44.1522    6.4084   21.0633 C   0  0  0  0  0  0  0  0  0  0  0  0
   44.8468    5.0607   21.0767 C   0  0  0  0  0  0  0  0  0  0  0  0
   44.9405    4.6010   19.7041 N   0  0  0  0  0  0  0  0  0  0  0  0
   46.2234    3.9284   19.5963 C   0  0  0  0  0  0  0  0  0  0  0  0
   46.2720    3.0119   18.3794 C   0  0  0  0  0  0  0  0  0  0  0  0
   45.2771    1.8664   18.6202 C   0  0  0  0  0  0  0  0  0  0  0  0
   45.2070    0.9422   17.4785 N   0  0  0  0  0  0  0  0  0  0  0  0
  1  2  1  0  0  0  0
  2  3  1  0  0  0  0
  3  4  1  0  0  0  0
  4  5  1  0  0  0  0
  5  6  1  0  0  0  0
  6  7  1  0  0  0  0
  7  8  1  0  0  0  0
  8  9  1  0  0  0  0
  9 10  1  0  0  0  0
 10 11  1  0  0  0  0
 11 12  1  0  0  0  0
 12 13  1  0  0  0  0
 13 14  1  0  0  0  0
M  END
>  <CHROM.1>
179.00700129,-175.71247839,-105.24751465,-179.63734169,-179.43424818,59.83478181
-80.70059582,143.06118983,161.30745997,-66.83087930,177.92927373,46.46335929
5.77533899,18.75991715,-0.72985347,-0.72436666,-2.86794946

>  <Name>
ligand

>  <RI>
0

>  <Rbt.Current_Directory>
/home/itssahil/PROJECTS/Mol_Feturizer/New_Systems/rnas/1TN2

>  <Rbt.Executable>
rbdock ($Id: //depot/dev/client3/rdock/2013.1/src/exe/rbdock.cxx#4 $)

>  <Rbt.Library>
libRbt.so (2013.1, Build901 2013/11/27)

>  <Rbt.Parameter_File>
/export/apps/rDock/src/rDock_2013.1_src/data/scripts/dock_solv.prm

>  <Rbt.Receptor>
prm/pocket_docking_5.prm

>  <SCORE>
-6.9585

>  <SCORE.INTER>
-5.12303

>  <SCORE.INTER.CONST>
1

>  <SCORE.INTER.POLAR>
0

>  <SCORE.INTER.ROT>
11

>  <SCORE.INTER.SOLV>
11.9782

>  <SCORE.INTER.VDW>
-18.3414

>  <SCORE.INTER.norm>
-0.365931

>  <SCORE.INTRA>
-1.83547

>  <SCORE.INTRA.DIHEDRAL>
-3.95283

>  <SCORE.INTRA.DIHEDRAL.0>
7.79482

>  <SCORE.INTRA.POLAR>
0

>  <SCORE.INTRA.POLAR.0>
0

>  <SCORE.INTRA.REPUL>
0

>  <SCORE.INTRA.REPUL.0>
0

>  <SCORE.INTRA.SOLV>
1.25509

>  <SCORE.INTRA.SOLV.lig_0>
-49.456

>  <SCORE.INTRA.VDW>
-0.486601

>  <SCORE.INTRA.VDW.0>
-0.478406

>  <SCORE.INTRA.norm>
-0.131105

>  <SCORE.RESTR>
0

>  <SCORE.RESTR.CAVITY>
0

>  <SCORE.RESTR.norm>
0

>  <SCORE.SYSTEM>
0

>  <SCORE.SYSTEM.CONST>
0

>  <SCORE.SYSTEM.DIHEDRAL>
0

>  <SCORE.SYSTEM.SOLV>
0

>  <SCORE.SYSTEM.norm>
0

>  <SCORE.heavy>
14

>  <SCORE.norm>
-0.497036

>  <RMSD>
4.139

$$$$
ligand
 OpenBabel11021811413D
libRbt.so/2013.1/901 2013/11/27
 14 13  0  0  0  0  0  0  0  0999 V2000
   48.0758    8.8053   17.0219 N   0  0  0  0  0  0  0  0  0  0  0  0
   47.8452    7.6512   17.9174 C   0  0  0  0  0  0  0  0  0  0  0  0
   46.6499    7.9070   18.8607 C   0  0  0  0  0  0  0  0  0  0  0  0
   46.3268    6.7445   19.8138 C   0  0  0  0  0  0  0  0  0  0  0  0
   45.9631    5.5165   19.0548 N   0  0  0  0  0  0  0  0  0  0  0  0
   45.7165    4.3891   19.9902 C   0  0  0  0  0  0  0  0  0  0  0  0
   44.9321    3.1729   19.3921 C   0  0  0  0  0  0  0  0  0  0  0  0
   45.6919    2.4209   18.2618 C   0  0  0  0  0  0  0  0  0  0  0  0
   44.9995    1.1573   17.7898 C   0  0  0  0  0  0  0  0  0  0  0  0
   45.7622    0.6286   16.6749 N   0  0  0  0  0  0  0  0  0  0  0  0
   45.5863   -0.8125   16.7200 C   0  0  0  0  0  0  0  0  0  0  0  0
   45.4104   -1.3968   15.3233 C   0  0  0  0  0  0  0  0  0  0  0  0
   46.7557   -1.2677   14.5928 C   0  0  0  0  0  0  0  0  0  0  0  0
   47.0731    0.1282   14.2559 N   0  0  0  0  0  0  0  0  0  0  0  0
  1  2  1  0  0  0  0
  2  3  1  0  0  0  0
  3  4  1  0  0  0  0
  4  5  1  0  0  0  0
  5  6  1  0  0  0  0
  6  7  1  0  0  0  0
  7  8  1  0  0  0  0
  8  9  1  0  0  0  0
  9 10  1  0  0  0  0
 10 11  1  0  0  0  0
 11 12  1  0  0  0  0
 12 13  1  0  0  0  0
 13 14  1  0  0  0  0
M  END
>  <CHROM.1>
179.11273510,-61.23717068,177.36913900,162.79662529,64.98283733,173.67612203
175.59705148,149.47087152,139.74751162,69.20363095,-70.59482551,46.19895399
3.21724040,17.54813552,-1.36459371,-0.99376617,-2.60688951

>  <Name>
ligand

>  <RI>
0

>  <Rbt.Current_Directory>
/home/itssahil/PROJECTS/Mol_Feturizer/New_Systems/rnas/1TN2

>  <Rbt.Executable>
rbdock ($Id: //depot/dev/client3/rdock/2013.1/src/exe/rbdock.cxx#4 $)

>  <Rbt.Library>
libRbt.so (2013.1, Build901 2013/11/27)

>  <Rbt.Parameter_File>
/export/apps/rDock/src/rDock_2013.1_src/data/scripts/dock_solv.prm

>  <Rbt.Receptor>
prm/blind_docking_100.prm

>  <SCORE>
-7.62084

>  <SCORE.INTER>
-6.20591

>  <SCORE.INTER.CONST>
1

>  <SCORE.INTER.POLAR>
0

>  <SCORE.INTER.ROT>
11

>  <SCORE.INTER.SOLV>
10.8422

>  <SCORE.INTER.VDW>
-18.6847

>  <SCORE.INTER.norm>
-0.443279

>  <SCORE.INTRA>
-1.41493

>  <SCORE.INTRA.DIHEDRAL>
-4.96864

>  <SCORE.INTRA.DIHEDRAL.0>
7.79482

>  <SCORE.INTRA.POLAR>
0

>  <SCORE.INTRA.POLAR.0>
0

>  <SCORE.INTRA.REPUL>
0

>  <SCORE.INTRA.REPUL.0>
0

>  <SCORE.INTRA.SOLV>
3.49251

>  <SCORE.INTRA.SOLV.lig_0>
-49.456

>  <SCORE.INTRA.VDW>
-0.676864

>  <SCORE.INTRA.VDW.0>
-0.478406

>  <SCORE.INTRA.norm>
-0.101067

>  <SCORE.RESTR>
0

>  <SCORE.RESTR.CAVITY>
0

>  <SCORE.RESTR.norm>
0

>  <SCORE.SYSTEM>
0

>  <SCORE.SYSTEM.CONST>
0

>  <SCORE.SYSTEM.DIHEDRAL>
0

>  <SCORE.SYSTEM.SOLV>
0

>  <SCORE.SYSTEM.norm>
0

>  <SCORE.heavy>
14

>  <SCORE.norm>
-0.544346

>  <RMSD>
4.146

$$$$
ligand
 OpenBabel11021811413D
libRbt.so/2013.1/901 2013/11/27
 14 13  0  0  0  0  0  0  0  0999 V2000
   47.4237    3.0815   13.7282 N   0  0  0  0  0  0  0  0  0  0  0  0
   46.9495    2.0633   14.6902 C   0  0  0  0  0  0  0  0  0  0  0  0
   45.6321    1.4150   14.2125 C   0  0  0  0  0  0  0  0  0  0  0  0
   45.0272    0.3973   15.1935 C   0  0  0  0  0  0  0  0  0  0  0  0
   44.6398    1.0532   16.4726 N   0  0  0  0  0  0  0  0  0  0  0  0
   45.6350    0.7425   17.5308 C   0  0  0  0  0  0  0  0  0  0  0  0
   45.5927    1.6689   18.7926 C   0  0  0  0  0  0  0  0  0  0  0  0
   46.0173    3.1397   18.5150 C   0  0  0  0  0  0  0  0  0  0  0  0
   45.9311    4.0447   19.7285 C   0  0  0  0  0  0  0  0  0  0  0  0
   46.3658    5.3675   19.3219 N   0  0  0  0  0  0  0  0  0  0  0  0
   45.7800    6.2905   20.2782 C   0  0  0  0  0  0  0  0  0  0  0  0
   46.5639    7.5960   20.3455 C   0  0  0  0  0  0  0  0  0  0  0  0
   46.4105    8.3006   18.9890 C   0  0  0  0  0  0  0  0  0  0  0  0
   45.0544    8.8338   18.7902 N   0  0  0  0  0  0  0  0  0  0  0  0
  1  2  1  0  0  0  0
  2  3  1  0  0  0  0
  3  4  1  0  0  0  0
  4  5  1  0  0  0  0
  5  6  1  0  0  0  0
  6  7  1  0  0  0  0
  7  8  1  0  0  0  0
  8  9  1  0  0  0  0
  9 10  1  0  0  0  0
 10 11  1  0  0  0  0
 11 12  1  0  0  0  0
 12 13  1  0  0  0  0
 13 14  1  0  0  0  0
M  END
>  <CHROM.1>
-176.81340500,63.54166451,-103.56035455,163.31567272,-67.24894687,178.07492972
179.47263807,157.39933231,156.78138528,66.03700329,71.23022122,45.93023058
3.85645420,17.61368876,-1.68080311,1.32673788,0.71563634

>  <Name>
ligand

>  <RI>
0

>  <Rbt.Current_Directory>
/home/itssahil/PROJECTS/Mol_Feturizer/New_Systems/rnas/1TN2

>  <Rbt.Executable>
rbdock ($Id: //depot/dev/client3/rdock/2013.1/src/exe/rbdock.cxx#4 $)

>  <Rbt.Library>
libRbt.so (2013.1, Build901 2013/11/27)

>  <Rbt.Parameter_File>
/export/apps/rDock/src/rDock_2013.1_src/data/scripts/dock_solv.prm

>  <Rbt.Receptor>
prm/blind_docking_60.prm

>  <SCORE>
-7.16026

>  <SCORE.INTER>
-5.05488

>  <SCORE.INTER.CONST>
1

>  <SCORE.INTER.POLAR>
0

>  <SCORE.INTER.ROT>
11

>  <SCORE.INTER.SOLV>
11.58

>  <SCORE.INTER.VDW>
-18.1632

>  <SCORE.INTER.norm>
-0.361063

>  <SCORE.INTRA>
-2.10537

>  <SCORE.INTRA.DIHEDRAL>
-4.92528

>  <SCORE.INTRA.DIHEDRAL.0>
7.79482

>  <SCORE.INTRA.POLAR>
0

>  <SCORE.INTRA.POLAR.0>
0

>  <SCORE.INTRA.REPUL>
0

>  <SCORE.INTRA.REPUL.0>
0

>  <SCORE.INTRA.SOLV>
2.22708

>  <SCORE.INTRA.SOLV.lig_0>
-49.456

>  <SCORE.INTRA.VDW>
-0.756271

>  <SCORE.INTRA.VDW.0>
-0.478406

>  <SCORE.INTRA.norm>
-0.150384

>  <SCORE.RESTR>
0

>  <SCORE.RESTR.CAVITY>
0

>  <SCORE.RESTR.norm>
0

>  <SCORE.SYSTEM>
0

>  <SCORE.SYSTEM.CONST>
0

>  <SCORE.SYSTEM.DIHEDRAL>
0

>  <SCORE.SYSTEM.SOLV>
0

>  <SCORE.SYSTEM.norm>
0

>  <SCORE.heavy>
14

>  <SCORE.norm>
-0.511447

>  <RMSD>
4.171

$$$$
ligand
 OpenBabel11021811413D
libRbt.so/2013.1/901 2013/11/27
 14 13  0  0  0  0  0  0  0  0999 V2000
   45.9531   -0.5336   13.0926 N   0  0  0  0  0  0  0  0  0  0  0  0
   44.7051   -0.9759   13.7514 C   0  0  0  0  0  0  0  0  0  0  0  0
   45.0048   -1.8975   14.9533 C   0  0  0  0  0  0  0  0  0  0  0  0
   45.7518   -1.2159   16.1116 C   0  0  0  0  0  0  0  0  0  0  0  0
   44.9286   -0.1314   16.7137 N   0  0  0  0  0  0  0  0  0  0  0  0
   45.7872    0.7835   17.5090 C   0  0  0  0  0  0  0  0  0  0  0  0
   45.0391    1.9486   18.2404 C   0  0  0  0  0  0  0  0  0  0  0  0
   45.9831    3.0091   18.8765 C   0  0  0  0  0  0  0  0  0  0  0  0
   45.2573    4.1046   19.6327 C   0  0  0  0  0  0  0  0  0  0  0  0
   46.2483    5.0732   20.0616 N   0  0  0  0  0  0  0  0  0  0  0  0
   45.5608    6.3518   20.1089 C   0  0  0  0  0  0  0  0  0  0  0  0
   46.5403    7.5156   20.0126 C   0  0  0  0  0  0  0  0  0  0  0  0
   45.7184    8.8131   19.9772 C   0  0  0  0  0  0  0  0  0  0  0  0
   44.9032    8.9212   18.7580 N   0  0  0  0  0  0  0  0  0  0  0  0
  1  2  1  0  0  0  0
  2  3  1  0  0  0  0
  3  4  1  0  0  0  0
  4  5  1  0  0  0  0
  5  6  1  0  0  0  0
  6  7  1  0  0  0  0
  7  8  1  0  0  0  0
  8  9  1  0  0  0  0
  9 10  1  0  0  0  0
 10 11  1  0  0  0  0
 11 12  1  0  0  0  0
 12 13  1  0  0  0  0
 13 14  1  0  0  0  0
M  END
>  <CHROM.1>
65.06287438,63.65408992,-162.01723078,-178.05307221,-170.95959368,-177.59887589
-174.97596186,150.26876292,-158.01107089,176.32804725,-65.78721853,45.52723795
2.98316690,17.70018906,1.99869169,1.46650335,-3.04339999

>  <Name>
ligand

>  <RI>
0

>  <Rbt.Current_Directory>
/home/itssahil/PROJECTS/Mol_Feturizer/New_Systems/rnas/1TN2

>  <Rbt.Executable>
rbdock ($Id: //depot/dev/client3/rdock/2013.1/src/exe/rbdock.cxx#4 $)

>  <Rbt.Library>
libRbt.so (2013.1, Build901 2013/11/27)

>  <Rbt.Parameter_File>
/export/apps/rDock/src/rDock_2013.1_src/data/scripts/dock_solv.prm

>  <Rbt.Receptor>
prm/pocket_docking_6.prm

>  <SCORE>
-9.44123

>  <SCORE.INTER>
-7.08311

>  <SCORE.INTER.CONST>
1

>  <SCORE.INTER.POLAR>
0

>  <SCORE.INTER.ROT>
11

>  <SCORE.INTER.SOLV>
13.735

>  <SCORE.INTER.VDW>
-20.2337

>  <SCORE.INTER.norm>
-0.505937

>  <SCORE.INTRA>
-2.35812

>  <SCORE.INTRA.DIHEDRAL>
-5.85167

>  <SCORE.INTRA.DIHEDRAL.0>
7.79482

>  <SCORE.INTRA.POLAR>
0

>  <SCORE.INTRA.POLAR.0>
0

>  <SCORE.INTRA.REPUL>
0

>  <SCORE.INTRA.REPUL.0>
0

>  <SCORE.INTRA.SOLV>
2.47993

>  <SCORE.INTRA.SOLV.lig_0>
-49.456

>  <SCORE.INTRA.VDW>
-0.672252

>  <SCORE.INTRA.VDW.0>
-0.478406

>  <SCORE.INTRA.norm>
-0.168437

>  <SCORE.RESTR>
0

>  <SCORE.RESTR.CAVITY>
0

>  <SCORE.RESTR.norm>
0

>  <SCORE.SYSTEM>
0

>  <SCORE.SYSTEM.CONST>
0

>  <SCORE.SYSTEM.DIHEDRAL>
0

>  <SCORE.SYSTEM.SOLV>
0

>  <SCORE.SYSTEM.norm>
0

>  <SCORE.heavy>
14

>  <SCORE.norm>
-0.674374

>  <RMSD>
4.178

$$$$
ligand
 OpenBabel11021811413D
libRbt.so/2013.1/901 2013/11/27
 14 13  0  0  0  0  0  0  0  0999 V2000
   46.9112    8.0198   17.9511 N   0  0  0  0  0  0  0  0  0  0  0  0
   46.8477    8.5311   19.3373 C   0  0  0  0  0  0  0  0  0  0  0  0
   45.7652    7.7938   20.1550 C   0  0  0  0  0  0  0  0  0  0  0  0
   46.0779    6.3168   20.4455 C   0  0  0  0  0  0  0  0  0  0  0  0
   46.1256    5.5230   19.1869 N   0  0  0  0  0  0  0  0  0  0  0  0
   46.0227    4.0725   19.4905 C   0  0  0  0  0  0  0  0  0  0  0  0
   45.4997    3.1719   18.3211 C   0  0  0  0  0  0  0  0  0  0  0  0
   45.1583    1.7146   18.7457 C   0  0  0  0  0  0  0  0  0  0  0  0
   44.4861    0.8983   17.6591 C   0  0  0  0  0  0  0  0  0  0  0  0
   45.5065    0.5174   16.7009 N   0  0  0  0  0  0  0  0  0  0  0  0
   45.5568   -0.9339   16.7290 C   0  0  0  0  0  0  0  0  0  0  0  0
   45.9062   -1.5064   15.3602 C   0  0  0  0  0  0  0  0  0  0  0  0
   44.7305   -1.2078   14.4176 C   0  0  0  0  0  0  0  0  0  0  0  0
   44.9351   -1.7763   13.0769 N   0  0  0  0  0  0  0  0  0  0  0  0
  1  2  1  0  0  0  0
  2  3  1  0  0  0  0
  3  4  1  0  0  0  0
  4  5  1  0  0  0  0
  5  6  1  0  0  0  0
  6  7  1  0  0  0  0
  7  8  1  0  0  0  0
  8  9  1  0  0  0  0
  9 10  1  0  0  0  0
 10 11  1  0  0  0  0
 11 12  1  0  0  0  0
 12 13  1  0  0  0  0
 13 14  1  0  0  0  0
M  END
>  <CHROM.1>
68.24836645,-64.53033674,-163.21313061,156.81883410,-169.39002180,172.51844386
75.93674549,117.68060978,147.24574075,-67.23555962,-177.25248002,45.68061017
2.93815816,17.68443636,-1.02379831,-1.33244791,-2.12741130

>  <Name>
ligand

>  <RI>
0

>  <Rbt.Current_Directory>
/home/itssahil/PROJECTS/Mol_Feturizer/New_Systems/rnas/1TN2

>  <Rbt.Executable>
rbdock ($Id: //depot/dev/client3/rdock/2013.1/src/exe/rbdock.cxx#4 $)

>  <Rbt.Library>
libRbt.so (2013.1, Build901 2013/11/27)

>  <Rbt.Parameter_File>
/export/apps/rDock/src/rDock_2013.1_src/data/scripts/dock_solv.prm

>  <Rbt.Receptor>
prm/pocket_docking_6.prm

>  <SCORE>
-8.48077

>  <SCORE.INTER>
-7.93374

>  <SCORE.INTER.CONST>
1

>  <SCORE.INTER.POLAR>
0

>  <SCORE.INTER.ROT>
11

>  <SCORE.INTER.SOLV>
12.4649

>  <SCORE.INTER.VDW>
-20.3775

>  <SCORE.INTER.norm>
-0.566696

>  <SCORE.INTRA>
-0.547034

>  <SCORE.INTRA.DIHEDRAL>
-3.19727

>  <SCORE.INTRA.DIHEDRAL.0>
7.79482

>  <SCORE.INTRA.POLAR>
0

>  <SCORE.INTRA.POLAR.0>
0

>  <SCORE.INTRA.REPUL>
0

>  <SCORE.INTRA.REPUL.0>
0

>  <SCORE.INTRA.SOLV>
3.41944

>  <SCORE.INTRA.SOLV.lig_0>
-49.456

>  <SCORE.INTRA.VDW>
-0.65812

>  <SCORE.INTRA.VDW.0>
-0.478406

>  <SCORE.INTRA.norm>
-0.0390739

>  <SCORE.RESTR>
0

>  <SCORE.RESTR.CAVITY>
0

>  <SCORE.RESTR.norm>
0

>  <SCORE.SYSTEM>
0

>  <SCORE.SYSTEM.CONST>
0

>  <SCORE.SYSTEM.DIHEDRAL>
0

>  <SCORE.SYSTEM.SOLV>
0

>  <SCORE.SYSTEM.norm>
0

>  <SCORE.heavy>
14

>  <SCORE.norm>
-0.605769

>  <RMSD>
4.178

$$$$
ligand
 OpenBabel11021811413D
libRbt.so/2013.1/901 2013/11/27
 14 13  0  0  0  0  0  0  0  0999 V2000
   46.3805    0.0430   13.9374 N   0  0  0  0  0  0  0  0  0  0  0  0
   46.6229   -1.2986   14.5105 C   0  0  0  0  0  0  0  0  0  0  0  0
   45.5497   -1.6590   15.5605 C   0  0  0  0  0  0  0  0  0  0  0  0
   45.6033   -0.8163   16.8454 C   0  0  0  0  0  0  0  0  0  0  0  0
   45.2698    0.6073   16.5651 N   0  0  0  0  0  0  0  0  0  0  0  0
   45.5819    1.4501   17.7478 C   0  0  0  0  0  0  0  0  0  0  0  0
   45.6546    2.9913   17.4803 C   0  0  0  0  0  0  0  0  0  0  0  0
   46.1061    3.8290   18.7111 C   0  0  0  0  0  0  0  0  0  0  0  0
   45.0536    3.9451   19.7962 C   0  0  0  0  0  0  0  0  0  0  0  0
   45.5947    4.7890   20.8447 N   0  0  0  0  0  0  0  0  0  0  0  0
   44.5185    5.6855   21.2291 C   0  0  0  0  0  0  0  0  0  0  0  0
   44.4243    6.8800   20.2869 C   0  0  0  0  0  0  0  0  0  0  0  0
   45.7688    7.6213   20.3404 C   0  0  0  0  0  0  0  0  0  0  0  0
   45.8032    8.7758   19.4301 N   0  0  0  0  0  0  0  0  0  0  0  0
  1  2  1  0  0  0  0
  2  3  1  0  0  0  0
  3  4  1  0  0  0  0
  4  5  1  0  0  0  0
  5  6  1  0  0  0  0
  6  7  1  0  0  0  0
  7  8  1  0  0  0  0
  8  9  1  0  0  0  0
  9 10  1  0  0  0  0
 10 11  1  0  0  0  0
 11 12  1  0  0  0  0
 12 13  1  0  0  0  0
 13 14  1  0  0  0  0
M  END
>  <CHROM.1>
-67.96647723,66.01703703,-168.95284113,164.02152380,-174.87372822,-72.93019925
-177.83196086,136.79089379,-82.66711318,-59.36317558,178.21097225,45.56648261
3.06004603,18.09197787,-1.33660184,1.23203398,0.35744608

>  <Name>
ligand

>  <RI>
0

>  <Rbt.Current_Directory>
/home/itssahil/PROJECTS/Mol_Feturizer/New_Systems/rnas/1TN2

>  <Rbt.Executable>
rbdock ($Id: //depot/dev/client3/rdock/2013.1/src/exe/rbdock.cxx#4 $)

>  <Rbt.Library>
libRbt.so (2013.1, Build901 2013/11/27)

>  <Rbt.Parameter_File>
/export/apps/rDock/src/rDock_2013.1_src/data/scripts/dock_solv.prm

>  <Rbt.Receptor>
prm/pocket_docking_8.prm

>  <SCORE>
-7.70682

>  <SCORE.INTER>
-7.07537

>  <SCORE.INTER.CONST>
1

>  <SCORE.INTER.POLAR>
0

>  <SCORE.INTER.ROT>
11

>  <SCORE.INTER.SOLV>
12.276

>  <SCORE.INTER.VDW>
-19.7422

>  <SCORE.INTER.norm>
-0.505383

>  <SCORE.INTRA>
-0.631448

>  <SCORE.INTRA.DIHEDRAL>
-4.96364

>  <SCORE.INTRA.DIHEDRAL.0>
7.79482

>  <SCORE.INTRA.POLAR>
0

>  <SCORE.INTRA.POLAR.0>
0

>  <SCORE.INTRA.REPUL>
0

>  <SCORE.INTRA.REPUL.0>
0

>  <SCORE.INTRA.SOLV>
3.46787

>  <SCORE.INTRA.SOLV.lig_0>
-49.456

>  <SCORE.INTRA.VDW>
0.116438

>  <SCORE.INTRA.VDW.0>
-0.478406

>  <SCORE.INTRA.norm>
-0.0451034

>  <SCORE.RESTR>
0

>  <SCORE.RESTR.CAVITY>
0

>  <SCORE.RESTR.norm>
0

>  <SCORE.SYSTEM>
0

>  <SCORE.SYSTEM.CONST>
0

>  <SCORE.SYSTEM.DIHEDRAL>
0

>  <SCORE.SYSTEM.SOLV>
0

>  <SCORE.SYSTEM.norm>
0

>  <SCORE.heavy>
14

>  <SCORE.norm>
-0.550487

>  <RMSD>
4.205

$$$$
ligand
 OpenBabel11021811413D
libRbt.so/2013.1/901 2013/11/27
 14 13  0  0  0  0  0  0  0  0999 V2000
   38.6624    6.7841   21.7727 N   0  0  0  0  0  0  0  0  0  0  0  0
   38.7612    7.4761   20.4694 C   0  0  0  0  0  0  0  0  0  0  0  0
   40.1334    8.1648   20.3059 C   0  0  0  0  0  0  0  0  0  0  0  0
   41.3395    7.2143   20.3825 C   0  0  0  0  0  0  0  0  0  0  0  0
   42.6201    7.9665   20.2787 N   0  0  0  0  0  0  0  0  0  0  0  0
   43.7555    7.1084   20.7045 C   0  0  0  0  0  0  0  0  0  0  0  0
   45.0713    7.2637   19.8697 C   0  0  0  0  0  0  0  0  0  0  0  0
   46.2443    6.3673   20.3605 C   0  0  0  0  0  0  0  0  0  0  0  0
   46.0222    4.8846   20.1344 C   0  0  0  0  0  0  0  0  0  0  0  0
   45.9386    4.6661   18.7027 N   0  0  0  0  0  0  0  0  0  0  0  0
   46.2240    3.2568   18.4978 C   0  0  0  0  0  0  0  0  0  0  0  0
   44.9427    2.4391   18.3841 C   0  0  0  0  0  0  0  0  0  0  0  0
   45.3313    1.0293   17.9134 C   0  0  0  0  0  0  0  0  0  0  0  0
   45.8177    1.0214   16.5256 N   0  0  0  0  0  0  0  0  0  0  0  0
  1  2  1  0  0  0  0
  2  3  1  0  0  0  0
  3  4  1  0  0  0  0
  4  5  1  0  0  0  0
  5  6  1  0  0  0  0
  6  7  1  0  0  0  0
  7  8  1  0  0  0  0
  8  9  1  0  0  0  0
  9 10  1  0  0  0  0
 10 11  1  0  0  0  0
 11 12  1  0  0  0  0
 12 13  1  0  0  0  0
 13 14  1  0  0  0  0
M  END
>  <CHROM.1>
59.43033495,-177.38022528,165.22661437,141.32910617,179.00959345,68.46125434
63.32441976,159.43191769,96.58553825,169.67060537,-68.81138819,43.63329785
5.40313826,19.59310743,2.35370307,0.04974928,0.43803537

>  <Name>
ligand

>  <RI>
0

>  <Rbt.Current_Directory>
/home/itssahil/PROJECTS/Mol_Feturizer/New_Systems/rnas/1TN2

>  <Rbt.Executable>
rbdock ($Id: //depot/dev/client3/rdock/2013.1/src/exe/rbdock.cxx#4 $)

>  <Rbt.Library>
libRbt.so (2013.1, Build901 2013/11/27)

>  <Rbt.Parameter_File>
/export/apps/rDock/src/rDock_2013.1_src/data/scripts/dock_solv.prm

>  <Rbt.Receptor>
prm/pocket_docking_8.prm

>  <SCORE>
-10.4963

>  <SCORE.INTER>
-9.26675

>  <SCORE.INTER.CONST>
1

>  <SCORE.INTER.POLAR>
0

>  <SCORE.INTER.ROT>
11

>  <SCORE.INTER.SOLV>
13.538

>  <SCORE.INTER.VDW>
-21.6238

>  <SCORE.INTER.norm>
-0.66191

>  <SCORE.INTRA>
-1.22958

>  <SCORE.INTRA.DIHEDRAL>
-4.59206

>  <SCORE.INTRA.DIHEDRAL.0>
7.79482

>  <SCORE.INTRA.POLAR>
0

>  <SCORE.INTRA.POLAR.0>
0

>  <SCORE.INTRA.REPUL>
0

>  <SCORE.INTRA.REPUL.0>
0

>  <SCORE.INTRA.SOLV>
2.15895

>  <SCORE.INTRA.SOLV.lig_0>
-49.456

>  <SCORE.INTRA.VDW>
-0.0130228

>  <SCORE.INTRA.VDW.0>
-0.478406

>  <SCORE.INTRA.norm>
-0.0878269

>  <SCORE.RESTR>
0

>  <SCORE.RESTR.CAVITY>
0

>  <SCORE.RESTR.norm>
0

>  <SCORE.SYSTEM>
0

>  <SCORE.SYSTEM.CONST>
0

>  <SCORE.SYSTEM.DIHEDRAL>
0

>  <SCORE.SYSTEM.SOLV>
0

>  <SCORE.SYSTEM.norm>
0

>  <SCORE.heavy>
14

>  <SCORE.norm>
-0.749737

>  <RMSD>
4.227

$$$$
ligand
 OpenBabel11021811413D
libRbt.so/2013.1/901 2013/11/27
 14 13  0  0  0  0  0  0  0  0999 V2000
   47.3434    5.6163   13.8444 N   0  0  0  0  0  0  0  0  0  0  0  0
   47.6809    4.6097   14.8739 C   0  0  0  0  0  0  0  0  0  0  0  0
   46.4356    3.7967   15.2889 C   0  0  0  0  0  0  0  0  0  0  0  0
   46.6997    2.7212   16.3554 C   0  0  0  0  0  0  0  0  0  0  0  0
   45.4702    1.9281   16.6305 N   0  0  0  0  0  0  0  0  0  0  0  0
   45.4870    1.4230   18.0274 C   0  0  0  0  0  0  0  0  0  0  0  0
   44.8882    2.3900   19.1038 C   0  0  0  0  0  0  0  0  0  0  0  0
   45.7414    3.6664   19.3557 C   0  0  0  0  0  0  0  0  0  0  0  0
   45.2186    4.5452   20.4752 C   0  0  0  0  0  0  0  0  0  0  0  0
   46.1390    5.6560   20.6281 N   0  0  0  0  0  0  0  0  0  0  0  0
   45.3459    6.8585   20.4423 C   0  0  0  0  0  0  0  0  0  0  0  0
   46.1088    7.9126   19.6484 C   0  0  0  0  0  0  0  0  0  0  0  0
   45.1746    9.1172   19.4578 C   0  0  0  0  0  0  0  0  0  0  0  0
   45.7829   10.1655   18.6249 N   0  0  0  0  0  0  0  0  0  0  0  0
  1  2  1  0  0  0  0
  2  3  1  0  0  0  0
  3  4  1  0  0  0  0
  4  5  1  0  0  0  0
  5  6  1  0  0  0  0
  6  7  1  0  0  0  0
  7  8  1  0  0  0  0
  8  9  1  0  0  0  0
  9 10  1  0  0  0  0
 10 11  1  0  0  0  0
 11 12  1  0  0  0  0
 12 13  1  0  0  0  0
 13 14  1  0  0  0  0
M  END
>  <CHROM.1>
179.79338966,-176.26248243,-151.26580199,87.59382510,-68.86051038,-175.37474646
177.67653069,122.36870607,-140.63076845,177.83787157,-176.29709358,45.96536251
5.02869602,18.05429214,-1.25859239,1.24934585,0.25362469

>  <Name>
ligand

>  <RI>
0

>  <Rbt.Current_Directory>
/home/itssahil/PROJECTS/Mol_Feturizer/New_Systems/rnas/1TN2

>  <Rbt.Executable>
rbdock ($Id: //depot/dev/client3/rdock/2013.1/src/exe/rbdock.cxx#4 $)

>  <Rbt.Library>
libRbt.so (2013.1, Build901 2013/11/27)

>  <Rbt.Parameter_File>
/export/apps/rDock/src/rDock_2013.1_src/data/scripts/dock_solv.prm

>  <Rbt.Receptor>
prm/pocket_docking_5.prm

>  <SCORE>
-7.55228

>  <SCORE.INTER>
-4.87263

>  <SCORE.INTER.CONST>
1

>  <SCORE.INTER.POLAR>
0

>  <SCORE.INTER.ROT>
11

>  <SCORE.INTER.SOLV>
10.3673

>  <SCORE.INTER.VDW>
-17.6375

>  <SCORE.INTER.norm>
-0.348045

>  <SCORE.INTRA>
-2.67965

>  <SCORE.INTRA.DIHEDRAL>
-4.10822

>  <SCORE.INTRA.DIHEDRAL.0>
7.79482

>  <SCORE.INTRA.POLAR>
0

>  <SCORE.INTRA.POLAR.0>
0

>  <SCORE.INTRA.REPUL>
0

>  <SCORE.INTRA.REPUL.0>
0

>  <SCORE.INTRA.SOLV>
0.225645

>  <SCORE.INTRA.SOLV.lig_0>
-49.456

>  <SCORE.INTRA.VDW>
-0.738362

>  <SCORE.INTRA.VDW.0>
-0.478406

>  <SCORE.INTRA.norm>
-0.191404

>  <SCORE.RESTR>
0

>  <SCORE.RESTR.CAVITY>
0

>  <SCORE.RESTR.norm>
0

>  <SCORE.SYSTEM>
0

>  <SCORE.SYSTEM.CONST>
0

>  <SCORE.SYSTEM.DIHEDRAL>
0

>  <SCORE.SYSTEM.SOLV>
0

>  <SCORE.SYSTEM.norm>
0

>  <SCORE.heavy>
14

>  <SCORE.norm>
-0.539449

>  <RMSD>
4.233

$$$$
ligand
 OpenBabel11021811413D
libRbt.so/2013.1/901 2013/11/27
 14 13  0  0  0  0  0  0  0  0999 V2000
   47.1048    8.0260   18.0683 N   0  0  0  0  0  0  0  0  0  0  0  0
   46.4158    8.8033   19.1211 C   0  0  0  0  0  0  0  0  0  0  0  0
   46.4540    8.0639   20.4760 C   0  0  0  0  0  0  0  0  0  0  0  0
   45.6916    6.7288   20.4980 C   0  0  0  0  0  0  0  0  0  0  0  0
   46.3246    5.7369   19.5860 N   0  0  0  0  0  0  0  0  0  0  0  0
   45.7017    4.4007   19.7690 C   0  0  0  0  0  0  0  0  0  0  0  0
   46.0468    3.3374   18.6725 C   0  0  0  0  0  0  0  0  0  0  0  0
   45.3298    1.9702   18.8657 C   0  0  0  0  0  0  0  0  0  0  0  0
   45.6631    0.9444   17.8000 C   0  0  0  0  0  0  0  0  0  0  0  0
   45.1147    1.4211   16.5445 N   0  0  0  0  0  0  0  0  0  0  0  0
   46.2575    1.7462   15.7090 C   0  0  0  0  0  0  0  0  0  0  0  0
   45.9338    2.8735   14.7354 C   0  0  0  0  0  0  0  0  0  0  0  0
   47.1899    3.1322   13.8897 C   0  0  0  0  0  0  0  0  0  0  0  0
   48.2895    3.6969   14.6865 N   0  0  0  0  0  0  0  0  0  0  0  0
  1  2  1  0  0  0  0
  2  3  1  0  0  0  0
  3  4  1  0  0  0  0
  4  5  1  0  0  0  0
  5  6  1  0  0  0  0
  6  7  1  0  0  0  0
  7  8  1  0  0  0  0
  8  9  1  0  0  0  0
  9 10  1  0  0  0  0
 10 11  1  0  0  0  0
 11 12  1  0  0  0  0
 12 13  1  0  0  0  0
 13 14  1  0  0  0  0
M  END
>  <CHROM.1>
-64.45441163,65.09911856,171.67181942,167.36829167,-177.58693690,179.83178527
-66.66216242,111.96274489,-150.09397864,-179.33259727,-67.68323543,46.25105766
4.34852598,17.74461015,-1.54337538,-1.15643508,-2.48518625

>  <Name>
ligand

>  <RI>
0

>  <Rbt.Current_Directory>
/home/itssahil/PROJECTS/Mol_Feturizer/New_Systems/rnas/1TN2

>  <Rbt.Executable>
rbdock ($Id: //depot/dev/client3/rdock/2013.1/src/exe/rbdock.cxx#4 $)

>  <Rbt.Library>
libRbt.so (2013.1, Build901 2013/11/27)

>  <Rbt.Parameter_File>
/export/apps/rDock/src/rDock_2013.1_src/data/scripts/dock_solv.prm

>  <Rbt.Receptor>
prm/pocket_docking_5.prm

>  <SCORE>
-5.80793

>  <SCORE.INTER>
-4.53215

>  <SCORE.INTER.CONST>
1

>  <SCORE.INTER.POLAR>
0

>  <SCORE.INTER.ROT>
11

>  <SCORE.INTER.SOLV>
10.7375

>  <SCORE.INTER.VDW>
-17.5339

>  <SCORE.INTER.norm>
-0.323725

>  <SCORE.INTRA>
-1.27578

>  <SCORE.INTRA.DIHEDRAL>
-5.28457

>  <SCORE.INTRA.DIHEDRAL.0>
7.79482

>  <SCORE.INTRA.POLAR>
0

>  <SCORE.INTRA.POLAR.0>
0

>  <SCORE.INTRA.REPUL>
0

>  <SCORE.INTRA.REPUL.0>
0

>  <SCORE.INTRA.SOLV>
4.08291

>  <SCORE.INTRA.SOLV.lig_0>
-49.456

>  <SCORE.INTRA.VDW>
-0.674952

>  <SCORE.INTRA.VDW.0>
-0.478406

>  <SCORE.INTRA.norm>
-0.0911271

>  <SCORE.RESTR>
0

>  <SCORE.RESTR.CAVITY>
0

>  <SCORE.RESTR.norm>
0

>  <SCORE.SYSTEM>
0

>  <SCORE.SYSTEM.CONST>
0

>  <SCORE.SYSTEM.DIHEDRAL>
0

>  <SCORE.SYSTEM.SOLV>
0

>  <SCORE.SYSTEM.norm>
0

>  <SCORE.heavy>
14

>  <SCORE.norm>
-0.414852

>  <RMSD>
4.250

$$$$
ligand
 OpenBabel11021811413D
libRbt.so/2013.1/901 2013/11/27
 14 13  0  0  0  0  0  0  0  0999 V2000
   45.7278    9.3145   19.1479 N   0  0  0  0  0  0  0  0  0  0  0  0
   45.0990    8.2468   19.9551 C   0  0  0  0  0  0  0  0  0  0  0  0
   45.9784    6.9780   19.9841 C   0  0  0  0  0  0  0  0  0  0  0  0
   45.3746    5.7987   20.7643 C   0  0  0  0  0  0  0  0  0  0  0  0
   46.2677    4.6088   20.7101 N   0  0  0  0  0  0  0  0  0  0  0  0
   46.1191    3.9143   19.4054 C   0  0  0  0  0  0  0  0  0  0  0  0
   44.8480    3.0112   19.2605 C   0  0  0  0  0  0  0  0  0  0  0  0
   44.7357    2.2883   17.8875 C   0  0  0  0  0  0  0  0  0  0  0  0
   45.7644    1.1935   17.6823 C   0  0  0  0  0  0  0  0  0  0  0  0
   45.8336    0.9166   16.2600 N   0  0  0  0  0  0  0  0  0  0  0  0
   45.3954   -0.4590   16.1005 C   0  0  0  0  0  0  0  0  0  0  0  0
   45.4238   -0.8873   14.6380 C   0  0  0  0  0  0  0  0  0  0  0  0
   44.7738   -2.2762   14.5477 C   0  0  0  0  0  0  0  0  0  0  0  0
   44.7722   -2.8007   13.1738 N   0  0  0  0  0  0  0  0  0  0  0  0
  1  2  1  0  0  0  0
  2  3  1  0  0  0  0
  3  4  1  0  0  0  0
  4  5  1  0  0  0  0
  5  6  1  0  0  0  0
  6  7  1  0  0  0  0
  7  8  1  0  0  0  0
  8  9  1  0  0  0  0
  9 10  1  0  0  0  0
 10 11  1  0  0  0  0
 11 12  1  0  0  0  0
 12 13  1  0  0  0  0
 13 14  1  0  0  0  0
M  END
>  <CHROM.1>
-178.01264576,178.44619200,-78.68828998,-78.27187955,-179.34049959,69.84595471
-161.83999162,-116.64458682,-179.81556754,-172.62225123,-178.86547780,45.43659018
2.84617460,17.82286246,1.12754395,-1.44961600,0.11006477

>  <Name>
ligand

>  <RI>
0

>  <Rbt.Current_Directory>
/home/itssahil/PROJECTS/Mol_Feturizer/New_Systems/rnas/1TN2

>  <Rbt.Executable>
rbdock ($Id: //depot/dev/client3/rdock/2013.1/src/exe/rbdock.cxx#4 $)

>  <Rbt.Library>
libRbt.so (2013.1, Build901 2013/11/27)

>  <Rbt.Parameter_File>
/export/apps/rDock/src/rDock_2013.1_src/data/scripts/dock_solv.prm

>  <Rbt.Receptor>
prm/pocket_docking_6.prm

>  <SCORE>
-8.67999

>  <SCORE.INTER>
-6.81186

>  <SCORE.INTER.CONST>
1

>  <SCORE.INTER.POLAR>
0

>  <SCORE.INTER.ROT>
11

>  <SCORE.INTER.SOLV>
13.787

>  <SCORE.INTER.VDW>
-20.0702

>  <SCORE.INTER.norm>
-0.486561

>  <SCORE.INTRA>
-1.86813

>  <SCORE.INTRA.DIHEDRAL>
-4.29656

>  <SCORE.INTRA.DIHEDRAL.0>
7.79482

>  <SCORE.INTRA.POLAR>
0

>  <SCORE.INTRA.POLAR.0>
0

>  <SCORE.INTRA.REPUL>
0

>  <SCORE.INTRA.REPUL.0>
0

>  <SCORE.INTRA.SOLV>
0.126837

>  <SCORE.INTRA.SOLV.lig_0>
-49.456

>  <SCORE.INTRA.VDW>
0.216731

>  <SCORE.INTRA.VDW.0>
-0.478406

>  <SCORE.INTRA.norm>
-0.133438

>  <SCORE.RESTR>
0

>  <SCORE.RESTR.CAVITY>
0

>  <SCORE.RESTR.norm>
0

>  <SCORE.SYSTEM>
0

>  <SCORE.SYSTEM.CONST>
0

>  <SCORE.SYSTEM.DIHEDRAL>
0

>  <SCORE.SYSTEM.SOLV>
0

>  <SCORE.SYSTEM.norm>
0

>  <SCORE.heavy>
14

>  <SCORE.norm>
-0.619999

>  <RMSD>
4.254

$$$$
ligand
 OpenBabel11021811413D
libRbt.so/2013.1/901 2013/11/27
 14 13  0  0  0  0  0  0  0  0999 V2000
   47.0474    9.4196   18.8439 N   0  0  0  0  0  0  0  0  0  0  0  0
   46.3679    8.1081   18.9178 C   0  0  0  0  0  0  0  0  0  0  0  0
   45.9741    7.7648   20.3707 C   0  0  0  0  0  0  0  0  0  0  0  0
   45.2635    6.4117   20.5383 C   0  0  0  0  0  0  0  0  0  0  0  0
   46.1261    5.2932   20.0679 N   0  0  0  0  0  0  0  0  0  0  0  0
   45.2925    4.1154   19.7150 C   0  0  0  0  0  0  0  0  0  0  0  0
   46.0104    3.0053   18.8757 C   0  0  0  0  0  0  0  0  0  0  0  0
   45.0798    1.8372   18.4397 C   0  0  0  0  0  0  0  0  0  0  0  0
   45.7591    0.8035   17.5628 C   0  0  0  0  0  0  0  0  0  0  0  0
   44.7361   -0.1061   17.0829 N   0  0  0  0  0  0  0  0  0  0  0  0
   44.7679   -0.0120   15.6338 C   0  0  0  0  0  0  0  0  0  0  0  0
   44.9884   -1.3763   14.9910 C   0  0  0  0  0  0  0  0  0  0  0  0
   44.9897   -1.1776   13.4677 C   0  0  0  0  0  0  0  0  0  0  0  0
   45.1362   -2.4482   12.7419 N   0  0  0  0  0  0  0  0  0  0  0  0
  1  2  1  0  0  0  0
  2  3  1  0  0  0  0
  3  4  1  0  0  0  0
  4  5  1  0  0  0  0
  5  6  1  0  0  0  0
  6  7  1  0  0  0  0
  7  8  1  0  0  0  0
  8  9  1  0  0  0  0
  9 10  1  0  0  0  0
 10 11  1  0  0  0  0
 11 12  1  0  0  0  0
 12 13  1  0  0  0  0
 13 14  1  0  0  0  0
M  END
>  <CHROM.1>
-179.84402746,59.75565871,-157.16029318,165.22258768,-175.87279190,176.78151711
-171.94866194,120.09262807,123.84564055,179.32369498,-177.44167377,45.53841050
2.97415427,17.66084206,-1.08161081,-1.32441718,-2.12697615

>  <Name>
ligand

>  <RI>
0

>  <Rbt.Current_Directory>
/home/itssahil/PROJECTS/Mol_Feturizer/New_Systems/rnas/1TN2

>  <Rbt.Executable>
rbdock ($Id: //depot/dev/client3/rdock/2013.1/src/exe/rbdock.cxx#4 $)

>  <Rbt.Library>
libRbt.so (2013.1, Build901 2013/11/27)

>  <Rbt.Parameter_File>
/export/apps/rDock/src/rDock_2013.1_src/data/scripts/dock_solv.prm

>  <Rbt.Receptor>
prm/pocket_docking_8.prm

>  <SCORE>
-8.51582

>  <SCORE.INTER>
-5.77071

>  <SCORE.INTER.CONST>
1

>  <SCORE.INTER.POLAR>
0

>  <SCORE.INTER.ROT>
11

>  <SCORE.INTER.SOLV>
13.8073

>  <SCORE.INTER.VDW>
-19.3829

>  <SCORE.INTER.norm>
-0.412194

>  <SCORE.INTRA>
-2.74883

>  <SCORE.INTRA.DIHEDRAL>
-4.47989

>  <SCORE.INTRA.DIHEDRAL.0>
7.79482

>  <SCORE.INTRA.POLAR>
0

>  <SCORE.INTRA.POLAR.0>
0

>  <SCORE.INTRA.REPUL>
0

>  <SCORE.INTRA.REPUL.0>
0

>  <SCORE.INTRA.SOLV>
0.292971

>  <SCORE.INTRA.SOLV.lig_0>
-49.456

>  <SCORE.INTRA.VDW>
-0.655371

>  <SCORE.INTRA.VDW.0>
-0.478406

>  <SCORE.INTRA.norm>
-0.196345

>  <SCORE.RESTR>
0.00372275

>  <SCORE.RESTR.CAVITY>
0.00372275

>  <SCORE.RESTR.norm>
0.000265911

>  <SCORE.SYSTEM>
0

>  <SCORE.SYSTEM.CONST>
0

>  <SCORE.SYSTEM.DIHEDRAL>
0

>  <SCORE.SYSTEM.SOLV>
0

>  <SCORE.SYSTEM.norm>
0

>  <SCORE.heavy>
14

>  <SCORE.norm>
-0.608273

>  <RMSD>
4.274

$$$$
ligand
 OpenBabel11021811413D
libRbt.so/2013.1/901 2013/11/27
 14 13  0  0  0  0  0  0  0  0999 V2000
   44.0564    9.1682   19.6879 N   0  0  0  0  0  0  0  0  0  0  0  0
   44.2322    7.7271   19.9695 C   0  0  0  0  0  0  0  0  0  0  0  0
   45.7160    7.3855   20.2256 C   0  0  0  0  0  0  0  0  0  0  0  0
   46.0087    5.8846   20.3860 C   0  0  0  0  0  0  0  0  0  0  0  0
   45.7246    5.1470   19.1244 N   0  0  0  0  0  0  0  0  0  0  0  0
   46.1266    3.7234   19.2604 C   0  0  0  0  0  0  0  0  0  0  0  0
   45.5811    2.7576   18.1551 C   0  0  0  0  0  0  0  0  0  0  0  0
   46.0326    1.2785   18.3248 C   0  0  0  0  0  0  0  0  0  0  0  0
   45.4088    0.3258   17.3238 C   0  0  0  0  0  0  0  0  0  0  0  0
   45.8249    0.7458   15.9991 N   0  0  0  0  0  0  0  0  0  0  0  0
   45.6027   -0.3972   15.1310 C   0  0  0  0  0  0  0  0  0  0  0  0
   44.4375   -0.1558   14.1784 C   0  0  0  0  0  0  0  0  0  0  0  0
   44.3651   -1.3540   13.2197 C   0  0  0  0  0  0  0  0  0  0  0  0
   44.0398   -2.6061   13.9190 N   0  0  0  0  0  0  0  0  0  0  0  0
  1  2  1  0  0  0  0
  2  3  1  0  0  0  0
  3  4  1  0  0  0  0
  4  5  1  0  0  0  0
  5  6  1  0  0  0  0
  6  7  1  0  0  0  0
  7  8  1  0  0  0  0
  8  9  1  0  0  0  0
  9 10  1  0  0  0  0
 10 11  1  0  0  0  0
 11 12  1  0  0  0  0
 12 13  1  0  0  0  0
 13 14  1  0  0  0  0
M  END
>  <CHROM.1>
-174.09969898,64.62321370,174.98196963,165.93735391,179.52376935,175.06057876
61.57027265,161.47897058,109.38127502,174.75213126,64.69616341,45.22562569
2.83061543,17.49330958,1.51791571,-0.90879412,0.53805098

>  <Name>
ligand

>  <RI>
0

>  <Rbt.Current_Directory>
/home/itssahil/PROJECTS/Mol_Feturizer/New_Systems/rnas/1TN2

>  <Rbt.Executable>
rbdock ($Id: //depot/dev/client3/rdock/2013.1/src/exe/rbdock.cxx#4 $)

>  <Rbt.Library>
libRbt.so (2013.1, Build901 2013/11/27)

>  <Rbt.Parameter_File>
/export/apps/rDock/src/rDock_2013.1_src/data/scripts/dock_solv.prm

>  <Rbt.Receptor>
prm/blind_docking_100.prm

>  <SCORE>
-7.52862

>  <SCORE.INTER>
-5.01426

>  <SCORE.INTER.CONST>
1

>  <SCORE.INTER.POLAR>
0

>  <SCORE.INTER.ROT>
11

>  <SCORE.INTER.SOLV>
17.9358

>  <SCORE.INTER.VDW>
-20.2548

>  <SCORE.INTER.norm>
-0.358161

>  <SCORE.INTRA>
-2.51436

>  <SCORE.INTRA.DIHEDRAL>
-5.73882

>  <SCORE.INTRA.DIHEDRAL.0>
7.79482

>  <SCORE.INTRA.POLAR>
0

>  <SCORE.INTRA.POLAR.0>
0

>  <SCORE.INTRA.REPUL>
0

>  <SCORE.INTRA.REPUL.0>
0

>  <SCORE.INTRA.SOLV>
1.47846

>  <SCORE.INTRA.SOLV.lig_0>
-49.456

>  <SCORE.INTRA.VDW>
-0.384176

>  <SCORE.INTRA.VDW.0>
-0.478406

>  <SCORE.INTRA.norm>
-0.179597

>  <SCORE.RESTR>
0

>  <SCORE.RESTR.CAVITY>
0

>  <SCORE.RESTR.norm>
0

>  <SCORE.SYSTEM>
0

>  <SCORE.SYSTEM.CONST>
0

>  <SCORE.SYSTEM.DIHEDRAL>
0

>  <SCORE.SYSTEM.SOLV>
0

>  <SCORE.SYSTEM.norm>
0

>  <SCORE.heavy>
14

>  <SCORE.norm>
-0.537758

>  <RMSD>
4.278

$$$$
ligand
 OpenBabel11021811413D
libRbt.so/2013.1/901 2013/11/27
 14 13  0  0  0  0  0  0  0  0999 V2000
   45.1182   -1.2275   12.8329 N   0  0  0  0  0  0  0  0  0  0  0  0
   44.7509   -1.3232   14.2623 C   0  0  0  0  0  0  0  0  0  0  0  0
   46.0035   -1.2836   15.1642 C   0  0  0  0  0  0  0  0  0  0  0  0
   45.7101   -1.3706   16.6709 C   0  0  0  0  0  0  0  0  0  0  0  0
   44.8985   -0.2082   17.1254 N   0  0  0  0  0  0  0  0  0  0  0  0
   45.7823    0.8507   17.6771 C   0  0  0  0  0  0  0  0  0  0  0  0
   45.0595    1.9874   18.4754 C   0  0  0  0  0  0  0  0  0  0  0  0
   46.0010    3.1365   18.9375 C   0  0  0  0  0  0  0  0  0  0  0  0
   45.3182    4.1849   19.7940 C   0  0  0  0  0  0  0  0  0  0  0  0
   46.3050    5.1972   20.1193 N   0  0  0  0  0  0  0  0  0  0  0  0
   45.5529    6.3594   20.5590 C   0  0  0  0  0  0  0  0  0  0  0  0
   46.3388    7.6472   20.3418 C   0  0  0  0  0  0  0  0  0  0  0  0
   46.5404    7.8190   18.8286 C   0  0  0  0  0  0  0  0  0  0  0  0
   47.2751    9.0505   18.5023 N   0  0  0  0  0  0  0  0  0  0  0  0
  1  2  1  0  0  0  0
  2  3  1  0  0  0  0
  3  4  1  0  0  0  0
  4  5  1  0  0  0  0
  5  6  1  0  0  0  0
  6  7  1  0  0  0  0
  7  8  1  0  0  0  0
  8  9  1  0  0  0  0
  9 10  1  0  0  0  0
 10 11  1  0  0  0  0
 11 12  1  0  0  0  0
 12 13  1  0  0  0  0
 13 14  1  0  0  0  0
M  END
>  <CHROM.1>
179.69309791,-62.39394337,-95.63651351,-167.05751867,-175.26710657,-175.86144896
-178.72562096,162.56634652,-154.54184870,64.10600824,179.11136848,45.76098125
2.91558027,17.80674110,-2.10632588,1.34765188,1.02682308

>  <Name>
ligand

>  <RI>
0

>  <Rbt.Current_Directory>
/home/itssahil/PROJECTS/Mol_Feturizer/New_Systems/rnas/1TN2

>  <Rbt.Executable>
rbdock ($Id: //depot/dev/client3/rdock/2013.1/src/exe/rbdock.cxx#4 $)

>  <Rbt.Library>
libRbt.so (2013.1, Build901 2013/11/27)

>  <Rbt.Parameter_File>
/export/apps/rDock/src/rDock_2013.1_src/data/scripts/dock_solv.prm

>  <Rbt.Receptor>
prm/pocket_docking_6.prm

>  <SCORE>
-11.0267

>  <SCORE.INTER>
-7.91294

>  <SCORE.INTER.CONST>
1

>  <SCORE.INTER.POLAR>
0

>  <SCORE.INTER.ROT>
11

>  <SCORE.INTER.SOLV>
14.6248

>  <SCORE.INTER.VDW>
-21.0835

>  <SCORE.INTER.norm>
-0.56521

>  <SCORE.INTRA>
-3.11376

>  <SCORE.INTRA.DIHEDRAL>
-5.94542

>  <SCORE.INTRA.DIHEDRAL.0>
7.79482

>  <SCORE.INTRA.POLAR>
0

>  <SCORE.INTRA.POLAR.0>
0

>  <SCORE.INTRA.REPUL>
0

>  <SCORE.INTRA.REPUL.0>
0

>  <SCORE.INTRA.SOLV>
0.725424

>  <SCORE.INTRA.SOLV.lig_0>
-49.456

>  <SCORE.INTRA.VDW>
-0.503758

>  <SCORE.INTRA.VDW.0>
-0.478406

>  <SCORE.INTRA.norm>
-0.222411

>  <SCORE.RESTR>
0

>  <SCORE.RESTR.CAVITY>
0

>  <SCORE.RESTR.norm>
0

>  <SCORE.SYSTEM>
0

>  <SCORE.SYSTEM.CONST>
0

>  <SCORE.SYSTEM.DIHEDRAL>
0

>  <SCORE.SYSTEM.SOLV>
0

>  <SCORE.SYSTEM.norm>
0

>  <SCORE.heavy>
14

>  <SCORE.norm>
-0.787621

>  <RMSD>
4.292

$$$$
ligand
 OpenBabel11021811413D
libRbt.so/2013.1/901 2013/11/27
 14 13  0  0  0  0  0  0  0  0999 V2000
   46.2708    3.9280   17.6735 N   0  0  0  0  0  0  0  0  0  0  0  0
   45.9620    3.1497   18.8925 C   0  0  0  0  0  0  0  0  0  0  0  0
   44.9579    3.9000   19.7941 C   0  0  0  0  0  0  0  0  0  0  0  0
   45.5188    5.1674   20.4598 C   0  0  0  0  0  0  0  0  0  0  0  0
   44.4638    5.8746   21.2364 N   0  0  0  0  0  0  0  0  0  0  0  0
   43.7372    6.8312   20.3625 C   0  0  0  0  0  0  0  0  0  0  0  0
   42.2724    7.1697   20.8004 C   0  0  0  0  0  0  0  0  0  0  0  0
   41.5083    8.0892   19.8050 C   0  0  0  0  0  0  0  0  0  0  0  0
   42.1596    9.4418   19.5924 C   0  0  0  0  0  0  0  0  0  0  0  0
   41.3962   10.1425   18.5773 N   0  0  0  0  0  0  0  0  0  0  0  0
   42.0076   11.4542   18.4541 C   0  0  0  0  0  0  0  0  0  0  0  0
   41.7949   12.0402   17.0632 C   0  0  0  0  0  0  0  0  0  0  0  0
   42.5140   13.3969   17.0155 C   0  0  0  0  0  0  0  0  0  0  0  0
   41.8782   14.3937   17.8901 N   0  0  0  0  0  0  0  0  0  0  0  0
  1  2  1  0  0  0  0
  2  3  1  0  0  0  0
  3  4  1  0  0  0  0
  4  5  1  0  0  0  0
  5  6  1  0  0  0  0
  6  7  1  0  0  0  0
  7  8  1  0  0  0  0
  8  9  1  0  0  0  0
  9 10  1  0  0  0  0
 10 11  1  0  0  0  0
 11 12  1  0  0  0  0
 12 13  1  0  0  0  0
 13 14  1  0  0  0  0
M  END
>  <CHROM.1>
-69.02722429,176.29488654,-88.27343887,154.23891091,-175.64044780,-60.25047326
175.95431028,177.09973082,152.99877252,-178.07841392,-67.62413229,43.31719697
8.21263880,19.11559982,-0.99184732,0.81102320,-0.65272304

>  <Name>
ligand

>  <RI>
0

>  <Rbt.Current_Directory>
/home/itssahil/PROJECTS/Mol_Feturizer/New_Systems/rnas/1TN2

>  <Rbt.Executable>
rbdock ($Id: //depot/dev/client3/rdock/2013.1/src/exe/rbdock.cxx#4 $)

>  <Rbt.Library>
libRbt.so (2013.1, Build901 2013/11/27)

>  <Rbt.Parameter_File>
/export/apps/rDock/src/rDock_2013.1_src/data/scripts/dock_solv.prm

>  <Rbt.Receptor>
prm/pocket_docking_7.prm

>  <SCORE>
-11.7875

>  <SCORE.INTER>
-9.70004

>  <SCORE.INTER.CONST>
1

>  <SCORE.INTER.POLAR>
0

>  <SCORE.INTER.ROT>
11

>  <SCORE.INTER.SOLV>
18.2675

>  <SCORE.INTER.VDW>
-23.4892

>  <SCORE.INTER.norm>
-0.69286

>  <SCORE.INTRA>
-2.08749

>  <SCORE.INTRA.DIHEDRAL>
-5.54908

>  <SCORE.INTRA.DIHEDRAL.0>
7.79482

>  <SCORE.INTRA.POLAR>
0

>  <SCORE.INTRA.POLAR.0>
0

>  <SCORE.INTRA.REPUL>
0

>  <SCORE.INTRA.REPUL.0>
0

>  <SCORE.INTRA.SOLV>
1.5087

>  <SCORE.INTRA.SOLV.lig_0>
-49.456

>  <SCORE.INTRA.VDW>
-0.0673053

>  <SCORE.INTRA.VDW.0>
-0.478406

>  <SCORE.INTRA.norm>
-0.149107

>  <SCORE.RESTR>
0

>  <SCORE.RESTR.CAVITY>
0

>  <SCORE.RESTR.norm>
0

>  <SCORE.SYSTEM>
0

>  <SCORE.SYSTEM.CONST>
0

>  <SCORE.SYSTEM.DIHEDRAL>
0

>  <SCORE.SYSTEM.SOLV>
0

>  <SCORE.SYSTEM.norm>
0

>  <SCORE.heavy>
14

>  <SCORE.norm>
-0.841967

>  <RMSD>
4.303

$$$$
ligand
 OpenBabel11021811413D
libRbt.so/2013.1/901 2013/11/27
 14 13  0  0  0  0  0  0  0  0999 V2000
   43.4166    3.1468   21.1435 N   0  0  0  0  0  0  0  0  0  0  0  0
   43.6526    4.3918   21.9060 C   0  0  0  0  0  0  0  0  0  0  0  0
   44.3407    5.4608   21.0298 C   0  0  0  0  0  0  0  0  0  0  0  0
   45.8138    5.1674   20.7012 C   0  0  0  0  0  0  0  0  0  0  0  0
   46.3554    6.1652   19.7382 N   0  0  0  0  0  0  0  0  0  0  0  0
   46.5873    7.4641   20.4208 C   0  0  0  0  0  0  0  0  0  0  0  0
   46.2170    8.7399   19.5916 C   0  0  0  0  0  0  0  0  0  0  0  0
   44.8015    8.6903   18.9479 C   0  0  0  0  0  0  0  0  0  0  0  0
   43.6768    8.5061   19.9479 C   0  0  0  0  0  0  0  0  0  0  0  0
   42.4430    8.3589   19.1993 N   0  0  0  0  0  0  0  0  0  0  0  0
   41.4941    9.2719   19.8123 C   0  0  0  0  0  0  0  0  0  0  0  0
   41.0989   10.3908   18.8556 C   0  0  0  0  0  0  0  0  0  0  0  0
   42.3633   11.2072   18.5477 C   0  0  0  0  0  0  0  0  0  0  0  0
   42.0712   12.3994   17.7377 N   0  0  0  0  0  0  0  0  0  0  0  0
  1  2  1  0  0  0  0
  2  3  1  0  0  0  0
  3  4  1  0  0  0  0
  4  5  1  0  0  0  0
  5  6  1  0  0  0  0
  6  7  1  0  0  0  0
  7  8  1  0  0  0  0
  8  9  1  0  0  0  0
  9 10  1  0  0  0  0
 10 11  1  0  0  0  0
 11 12  1  0  0  0  0
 12 13  1  0  0  0  0
 13 14  1  0  0  0  0
M  END
>  <CHROM.1>
-71.54451540,173.88925049,74.12408913,-140.52063559,49.34551835,58.28848335
-174.97759648,-131.18829933,114.39527918,-63.27757780,-174.19231406,43.88099272
7.81159213,19.82725881,1.16893935,-0.04569308,2.74655522

>  <Name>
ligand

>  <RI>
0

>  <Rbt.Current_Directory>
/home/itssahil/PROJECTS/Mol_Feturizer/New_Systems/rnas/1TN2

>  <Rbt.Executable>
rbdock ($Id: //depot/dev/client3/rdock/2013.1/src/exe/rbdock.cxx#4 $)

>  <Rbt.Library>
libRbt.so (2013.1, Build901 2013/11/27)

>  <Rbt.Parameter_File>
/export/apps/rDock/src/rDock_2013.1_src/data/scripts/dock_solv.prm

>  <Rbt.Receptor>
prm/pocket_docking_8.prm

>  <SCORE>
-10.0832

>  <SCORE.INTER>
-9.69105

>  <SCORE.INTER.CONST>
1

>  <SCORE.INTER.POLAR>
0

>  <SCORE.INTER.ROT>
11

>  <SCORE.INTER.SOLV>
20.8046

>  <SCORE.INTER.VDW>
-24.3289

>  <SCORE.INTER.norm>
-0.692218

>  <SCORE.INTRA>
-0.397271

>  <SCORE.INTRA.DIHEDRAL>
-3.15613

>  <SCORE.INTRA.DIHEDRAL.0>
7.79482

>  <SCORE.INTRA.POLAR>
0

>  <SCORE.INTRA.POLAR.0>
0

>  <SCORE.INTRA.REPUL>
0

>  <SCORE.INTRA.REPUL.0>
0

>  <SCORE.INTRA.SOLV>
2.12071

>  <SCORE.INTRA.SOLV.lig_0>
-49.456

>  <SCORE.INTRA.VDW>
0.120441

>  <SCORE.INTRA.VDW.0>
-0.478406

>  <SCORE.INTRA.norm>
-0.0283765

>  <SCORE.RESTR>
0.00507712

>  <SCORE.RESTR.CAVITY>
0.00507712

>  <SCORE.RESTR.norm>
0.000362652

>  <SCORE.SYSTEM>
0

>  <SCORE.SYSTEM.CONST>
0

>  <SCORE.SYSTEM.DIHEDRAL>
0

>  <SCORE.SYSTEM.SOLV>
0

>  <SCORE.SYSTEM.norm>
0

>  <SCORE.heavy>
14

>  <SCORE.norm>
-0.720232

>  <RMSD>
4.306

$$$$
ligand
 OpenBabel11021811413D
libRbt.so/2013.1/901 2013/11/27
 14 13  0  0  0  0  0  0  0  0999 V2000
   46.6248    2.7039   18.4903 N   0  0  0  0  0  0  0  0  0  0  0  0
   45.6521    3.6803   19.0266 C   0  0  0  0  0  0  0  0  0  0  0  0
   46.2352    4.4417   20.2367 C   0  0  0  0  0  0  0  0  0  0  0  0
   45.2520    5.4064   20.9198 C   0  0  0  0  0  0  0  0  0  0  0  0
   44.8193    6.4801   19.9837 N   0  0  0  0  0  0  0  0  0  0  0  0
   43.5819    7.1310   20.4857 C   0  0  0  0  0  0  0  0  0  0  0  0
   42.9511    8.2067   19.5385 C   0  0  0  0  0  0  0  0  0  0  0  0
   41.6573    8.8651   20.0979 C   0  0  0  0  0  0  0  0  0  0  0  0
   41.0723    9.9353   19.1972 C   0  0  0  0  0  0  0  0  0  0  0  0
   42.1152   10.9099   18.9383 N   0  0  0  0  0  0  0  0  0  0  0  0
   41.7188   11.6043   17.7257 C   0  0  0  0  0  0  0  0  0  0  0  0
   42.8624   12.4397   17.1622 C   0  0  0  0  0  0  0  0  0  0  0  0
   43.9636   11.4713   16.7044 C   0  0  0  0  0  0  0  0  0  0  0  0
   45.1455   12.1780   16.1883 N   0  0  0  0  0  0  0  0  0  0  0  0
  1  2  1  0  0  0  0
  2  3  1  0  0  0  0
  3  4  1  0  0  0  0
  4  5  1  0  0  0  0
  5  6  1  0  0  0  0
  6  7  1  0  0  0  0
  7  8  1  0  0  0  0
  8  9  1  0  0  0  0
  9 10  1  0  0  0  0
 10 11  1  0  0  0  0
 11 12  1  0  0  0  0
 12 13  1  0  0  0  0
 13 14  1  0  0  0  0
M  END
>  <CHROM.1>
-175.80006733,-62.16428180,162.14008966,-175.37861408,179.97845037,178.27727537
-54.90795546,159.00718973,-167.34905409,66.13340252,-177.75260315,43.83190764
8.24676510,18.90701621,-1.10323562,0.61352292,-0.55362936

>  <Name>
ligand

>  <RI>
0

>  <Rbt.Current_Directory>
/home/itssahil/PROJECTS/Mol_Feturizer/New_Systems/rnas/1TN2

>  <Rbt.Executable>
rbdock ($Id: //depot/dev/client3/rdock/2013.1/src/exe/rbdock.cxx#4 $)

>  <Rbt.Library>
libRbt.so (2013.1, Build901 2013/11/27)

>  <Rbt.Parameter_File>
/export/apps/rDock/src/rDock_2013.1_src/data/scripts/dock_solv.prm

>  <Rbt.Receptor>
prm/pocket_docking_5.prm

>  <SCORE>
-13.8691

>  <SCORE.INTER>
-10.5273

>  <SCORE.INTER.CONST>
1

>  <SCORE.INTER.POLAR>
0

>  <SCORE.INTER.ROT>
11

>  <SCORE.INTER.SOLV>
16.1704

>  <SCORE.INTER.VDW>
-23.3417

>  <SCORE.INTER.norm>
-0.751953

>  <SCORE.INTRA>
-3.34174

>  <SCORE.INTRA.DIHEDRAL>
-6.72494

>  <SCORE.INTRA.DIHEDRAL.0>
7.79482

>  <SCORE.INTRA.POLAR>
0

>  <SCORE.INTRA.POLAR.0>
0

>  <SCORE.INTRA.REPUL>
0

>  <SCORE.INTRA.REPUL.0>
0

>  <SCORE.INTRA.SOLV>
1.15975

>  <SCORE.INTRA.SOLV.lig_0>
-49.456

>  <SCORE.INTRA.VDW>
-0.559142

>  <SCORE.INTRA.VDW.0>
-0.478406

>  <SCORE.INTRA.norm>
-0.238696

>  <SCORE.RESTR>
0

>  <SCORE.RESTR.CAVITY>
0

>  <SCORE.RESTR.norm>
0

>  <SCORE.SYSTEM>
0

>  <SCORE.SYSTEM.CONST>
0

>  <SCORE.SYSTEM.DIHEDRAL>
0

>  <SCORE.SYSTEM.SOLV>
0

>  <SCORE.SYSTEM.norm>
0

>  <SCORE.heavy>
14

>  <SCORE.norm>
-0.990648

>  <RMSD>
4.342

$$$$
ligand
 OpenBabel11021811413D
libRbt.so/2013.1/901 2013/11/27
 14 13  0  0  0  0  0  0  0  0999 V2000
   45.7804    1.1116   16.6894 N   0  0  0  0  0  0  0  0  0  0  0  0
   45.9862    1.6595   18.0476 C   0  0  0  0  0  0  0  0  0  0  0  0
   46.0056    3.2033   18.0296 C   0  0  0  0  0  0  0  0  0  0  0  0
   46.1038    3.8582   19.4172 C   0  0  0  0  0  0  0  0  0  0  0  0
   46.0204    5.3411   19.3153 N   0  0  0  0  0  0  0  0  0  0  0  0
   45.7755    5.9348   20.6548 C   0  0  0  0  0  0  0  0  0  0  0  0
   45.3836    7.4509   20.6617 C   0  0  0  0  0  0  0  0  0  0  0  0
   46.5487    8.4097   20.2827 C   0  0  0  0  0  0  0  0  0  0  0  0
   46.9007    8.3979   18.8080 C   0  0  0  0  0  0  0  0  0  0  0  0
   47.8410    7.3151   18.5894 N   0  0  0  0  0  0  0  0  0  0  0  0
   48.2888    7.4485   17.2141 C   0  0  0  0  0  0  0  0  0  0  0  0
   49.8092    7.5115   17.1262 C   0  0  0  0  0  0  0  0  0  0  0  0
   50.1866    7.5717   15.6383 C   0  0  0  0  0  0  0  0  0  0  0  0
   49.8266    6.3379   14.9235 N   0  0  0  0  0  0  0  0  0  0  0  0
  1  2  1  0  0  0  0
  2  3  1  0  0  0  0
  3  4  1  0  0  0  0
  4  5  1  0  0  0  0
  5  6  1  0  0  0  0
  6  7  1  0  0  0  0
  7  8  1  0  0  0  0
  8  9  1  0  0  0  0
  9 10  1  0  0  0  0
 10 11  1  0  0  0  0
 11 12  1  0  0  0  0
 12 13  1  0  0  0  0
 13 14  1  0  0  0  0
M  END
>  <CHROM.1>
175.39385896,-176.02301721,165.89412442,-168.33073108,-70.61486674,73.59444567
-85.99612956,-172.55143446,125.84395897,176.87587472,-65.55774693,47.17543959
5.82545178,18.24305933,-2.39356431,0.81967994,0.47135004

>  <Name>
ligand

>  <RI>
0

>  <Rbt.Current_Directory>
/home/itssahil/PROJECTS/Mol_Feturizer/New_Systems/rnas/1TN2

>  <Rbt.Executable>
rbdock ($Id: //depot/dev/client3/rdock/2013.1/src/exe/rbdock.cxx#4 $)

>  <Rbt.Library>
libRbt.so (2013.1, Build901 2013/11/27)

>  <Rbt.Parameter_File>
/export/apps/rDock/src/rDock_2013.1_src/data/scripts/dock_solv.prm

>  <Rbt.Receptor>
prm/pocket_docking_6.prm

>  <SCORE>
-6.12027

>  <SCORE.INTER>
-5.61227

>  <SCORE.INTER.CONST>
1

>  <SCORE.INTER.POLAR>
0

>  <SCORE.INTER.ROT>
11

>  <SCORE.INTER.SOLV>
11.4468

>  <SCORE.INTER.VDW>
-18.4905

>  <SCORE.INTER.norm>
-0.400877

>  <SCORE.INTRA>
-0.507995

>  <SCORE.INTRA.DIHEDRAL>
-2.67628

>  <SCORE.INTRA.DIHEDRAL.0>
7.79482

>  <SCORE.INTRA.POLAR>
0

>  <SCORE.INTRA.POLAR.0>
0

>  <SCORE.INTRA.REPUL>
0

>  <SCORE.INTRA.REPUL.0>
0

>  <SCORE.INTRA.SOLV>
3.807

>  <SCORE.INTRA.SOLV.lig_0>
-49.456

>  <SCORE.INTRA.VDW>
-1.07335

>  <SCORE.INTRA.VDW.0>
-0.478406

>  <SCORE.INTRA.norm>
-0.0362854

>  <SCORE.RESTR>
0

>  <SCORE.RESTR.CAVITY>
0

>  <SCORE.RESTR.norm>
0

>  <SCORE.SYSTEM>
0

>  <SCORE.SYSTEM.CONST>
0

>  <SCORE.SYSTEM.DIHEDRAL>
0

>  <SCORE.SYSTEM.SOLV>
0

>  <SCORE.SYSTEM.norm>
0

>  <SCORE.heavy>
14

>  <SCORE.norm>
-0.437162

>  <RMSD>
4.346

$$$$
ligand
 OpenBabel11021811413D
libRbt.so/2013.1/901 2013/11/27
 14 13  0  0  0  0  0  0  0  0999 V2000
   45.8802    8.6667   18.6944 N   0  0  0  0  0  0  0  0  0  0  0  0
   46.7232    8.1475   19.7931 C   0  0  0  0  0  0  0  0  0  0  0  0
   46.0774    6.9113   20.4555 C   0  0  0  0  0  0  0  0  0  0  0  0
   45.9312    5.6925   19.5298 C   0  0  0  0  0  0  0  0  0  0  0  0
   45.3729    4.5256   20.2667 N   0  0  0  0  0  0  0  0  0  0  0  0
   45.0372    3.4324   19.3186 C   0  0  0  0  0  0  0  0  0  0  0  0
   46.2533    2.6040   18.7828 C   0  0  0  0  0  0  0  0  0  0  0  0
   45.8769    1.1867   18.2635 C   0  0  0  0  0  0  0  0  0  0  0  0
   45.0052    1.1971   17.0229 C   0  0  0  0  0  0  0  0  0  0  0  0
   45.8232    1.6532   15.9151 N   0  0  0  0  0  0  0  0  0  0  0  0
   44.9293    1.7520   14.7745 C   0  0  0  0  0  0  0  0  0  0  0  0
   45.2536    0.7011   13.7191 C   0  0  0  0  0  0  0  0  0  0  0  0
   44.8321   -0.6658   14.2794 C   0  0  0  0  0  0  0  0  0  0  0  0
   45.1016   -1.7603   13.3349 N   0  0  0  0  0  0  0  0  0  0  0  0
  1  2  1  0  0  0  0
  2  3  1  0  0  0  0
  3  4  1  0  0  0  0
  4  5  1  0  0  0  0
  5  6  1  0  0  0  0
  6  7  1  0  0  0  0
  7  8  1  0  0  0  0
  8  9  1  0  0  0  0
  9 10  1  0  0  0  0
 10 11  1  0  0  0  0
 11 12  1  0  0  0  0
 12 13  1  0  0  0  0
 13 14  1  0  0  0  0
M  END
>  <CHROM.1>
63.85668966,176.79656676,171.02075735,76.65238690,157.72076971,66.25883521
70.48644228,-175.53769217,-111.75409942,71.00906859,179.96947129,45.57839169
3.14595285,17.43947018,-0.13162482,-1.46690100,-1.05987262

>  <Name>
ligand

>  <RI>
0

>  <Rbt.Current_Directory>
/home/itssahil/PROJECTS/Mol_Feturizer/New_Systems/rnas/1TN2

>  <Rbt.Executable>
rbdock ($Id: //depot/dev/client3/rdock/2013.1/src/exe/rbdock.cxx#4 $)

>  <Rbt.Library>
libRbt.so (2013.1, Build901 2013/11/27)

>  <Rbt.Parameter_File>
/export/apps/rDock/src/rDock_2013.1_src/data/scripts/dock_solv.prm

>  <Rbt.Receptor>
prm/pocket_docking_8.prm

>  <SCORE>
-6.19204

>  <SCORE.INTER>
-5.25326

>  <SCORE.INTER.CONST>
1

>  <SCORE.INTER.POLAR>
0

>  <SCORE.INTER.ROT>
11

>  <SCORE.INTER.SOLV>
10.2138

>  <SCORE.INTER.VDW>
-17.8401

>  <SCORE.INTER.norm>
-0.375233

>  <SCORE.INTRA>
-0.938782

>  <SCORE.INTRA.DIHEDRAL>
-3.57076

>  <SCORE.INTRA.DIHEDRAL.0>
7.79482

>  <SCORE.INTRA.POLAR>
0

>  <SCORE.INTRA.POLAR.0>
0

>  <SCORE.INTRA.REPUL>
0

>  <SCORE.INTRA.REPUL.0>
0

>  <SCORE.INTRA.SOLV>
1.56578

>  <SCORE.INTRA.SOLV.lig_0>
-49.456

>  <SCORE.INTRA.VDW>
0.0637093

>  <SCORE.INTRA.VDW.0>
-0.478406

>  <SCORE.INTRA.norm>
-0.0670559

>  <SCORE.RESTR>
0

>  <SCORE.RESTR.CAVITY>
0

>  <SCORE.RESTR.norm>
0

>  <SCORE.SYSTEM>
0

>  <SCORE.SYSTEM.CONST>
0

>  <SCORE.SYSTEM.DIHEDRAL>
0

>  <SCORE.SYSTEM.SOLV>
0

>  <SCORE.SYSTEM.norm>
0

>  <SCORE.heavy>
14

>  <SCORE.norm>
-0.442288

>  <RMSD>
4.398

$$$$
ligand
 OpenBabel11021811413D
libRbt.so/2013.1/901 2013/11/27
 14 13  0  0  0  0  0  0  0  0999 V2000
   45.7348    2.2792   17.4086 N   0  0  0  0  0  0  0  0  0  0  0  0
   46.1977    2.7716   18.7240 C   0  0  0  0  0  0  0  0  0  0  0  0
   45.7216    4.2184   18.9773 C   0  0  0  0  0  0  0  0  0  0  0  0
   46.1298    4.7966   20.3422 C   0  0  0  0  0  0  0  0  0  0  0  0
   45.5926    6.1735   20.5216 N   0  0  0  0  0  0  0  0  0  0  0  0
   46.5076    7.1662   19.9018 C   0  0  0  0  0  0  0  0  0  0  0  0
   46.0528    8.6612   20.0032 C   0  0  0  0  0  0  0  0  0  0  0  0
   44.7412    8.9800   19.2295 C   0  0  0  0  0  0  0  0  0  0  0  0
   43.4960    8.3851   19.8577 C   0  0  0  0  0  0  0  0  0  0  0  0
   42.3713    8.7183   19.0042 N   0  0  0  0  0  0  0  0  0  0  0  0
   41.3664    9.2977   19.8783 C   0  0  0  0  0  0  0  0  0  0  0  0
   40.1979    8.3432   20.0944 C   0  0  0  0  0  0  0  0  0  0  0  0
   40.7063    7.1721   20.9488 C   0  0  0  0  0  0  0  0  0  0  0  0
   39.6438    6.2004   21.2480 N   0  0  0  0  0  0  0  0  0  0  0  0
  1  2  1  0  0  0  0
  2  3  1  0  0  0  0
  3  4  1  0  0  0  0
  4  5  1  0  0  0  0
  5  6  1  0  0  0  0
  6  7  1  0  0  0  0
  7  8  1  0  0  0  0
  8  9  1  0  0  0  0
  9 10  1  0  0  0  0
 10 11  1  0  0  0  0
 11 12  1  0  0  0  0
 12 13  1  0  0  0  0
 13 14  1  0  0  0  0
M  END
>  <CHROM.1>
178.49341080,-178.08167442,-84.78210266,179.32107957,-64.74344183,70.75393496
-177.75470409,-129.09408404,-107.34980053,69.60975716,178.58031910,43.89020685
6.65486893,19.72433034,0.71343318,-0.14511931,-3.00905351

>  <Name>
ligand

>  <RI>
0

>  <Rbt.Current_Directory>
/home/itssahil/PROJECTS/Mol_Feturizer/New_Systems/rnas/1TN2

>  <Rbt.Executable>
rbdock ($Id: //depot/dev/client3/rdock/2013.1/src/exe/rbdock.cxx#4 $)

>  <Rbt.Library>
libRbt.so (2013.1, Build901 2013/11/27)

>  <Rbt.Parameter_File>
/export/apps/rDock/src/rDock_2013.1_src/data/scripts/dock_solv.prm

>  <Rbt.Receptor>
prm/blind_docking_60.prm

>  <SCORE>
-14.0306

>  <SCORE.INTER>
-12.6176

>  <SCORE.INTER.CONST>
1

>  <SCORE.INTER.POLAR>
0

>  <SCORE.INTER.ROT>
11

>  <SCORE.INTER.SOLV>
12.2374

>  <SCORE.INTER.VDW>
-23.4242

>  <SCORE.INTER.norm>
-0.901256

>  <SCORE.INTRA>
-1.41298

>  <SCORE.INTRA.DIHEDRAL>
-4.20161

>  <SCORE.INTRA.DIHEDRAL.0>
7.79482

>  <SCORE.INTRA.POLAR>
0

>  <SCORE.INTRA.POLAR.0>
0

>  <SCORE.INTRA.REPUL>
0

>  <SCORE.INTRA.REPUL.0>
0

>  <SCORE.INTRA.SOLV>
1.33071

>  <SCORE.INTRA.SOLV.lig_0>
-49.456

>  <SCORE.INTRA.VDW>
0.0224696

>  <SCORE.INTRA.VDW.0>
-0.478406

>  <SCORE.INTRA.norm>
-0.100927

>  <SCORE.RESTR>
0

>  <SCORE.RESTR.CAVITY>
0

>  <SCORE.RESTR.norm>
0

>  <SCORE.SYSTEM>
0

>  <SCORE.SYSTEM.CONST>
0

>  <SCORE.SYSTEM.DIHEDRAL>
0

>  <SCORE.SYSTEM.SOLV>
0

>  <SCORE.SYSTEM.norm>
0

>  <SCORE.heavy>
14

>  <SCORE.norm>
-1.00218

>  <RMSD>
4.449

$$$$
ligand
 OpenBabel11021811413D
libRbt.so/2013.1/901 2013/11/27
 14 13  0  0  0  0  0  0  0  0999 V2000
   49.3669    3.2980   12.1855 N   0  0  0  0  0  0  0  0  0  0  0  0
   48.4035    4.0212   13.0435 C   0  0  0  0  0  0  0  0  0  0  0  0
   48.0318    3.1887   14.2896 C   0  0  0  0  0  0  0  0  0  0  0  0
   47.0942    3.9008   15.2784 C   0  0  0  0  0  0  0  0  0  0  0  0
   46.8396    3.0552   16.4769 N   0  0  0  0  0  0  0  0  0  0  0  0
   46.0703    3.8206   17.4914 C   0  0  0  0  0  0  0  0  0  0  0  0
   45.7934    3.0710   18.8380 C   0  0  0  0  0  0  0  0  0  0  0  0
   44.9710    3.8979   19.8677 C   0  0  0  0  0  0  0  0  0  0  0  0
   45.7613    5.0024   20.5418 C   0  0  0  0  0  0  0  0  0  0  0  0
   45.9590    6.0587   19.5674 N   0  0  0  0  0  0  0  0  0  0  0  0
   46.2978    7.2467   20.3315 C   0  0  0  0  0  0  0  0  0  0  0  0
   46.1894    8.5067   19.4807 C   0  0  0  0  0  0  0  0  0  0  0  0
   47.3764    8.5126   18.5055 C   0  0  0  0  0  0  0  0  0  0  0  0
   47.2733    7.4459   17.4985 N   0  0  0  0  0  0  0  0  0  0  0  0
  1  2  1  0  0  0  0
  2  3  1  0  0  0  0
  3  4  1  0  0  0  0
  4  5  1  0  0  0  0
  5  6  1  0  0  0  0
  6  7  1  0  0  0  0
  7  8  1  0  0  0  0
  8  9  1  0  0  0  0
  9 10  1  0  0  0  0
 10 11  1  0  0  0  0
 11 12  1  0  0  0  0
 12 13  1  0  0  0  0
 13 14  1  0  0  0  0
M  END
>  <CHROM.1>
176.68503159,-177.32382856,173.13711789,-177.07919489,-179.29485176,-74.40116064
73.14469914,161.31575645,-165.60179716,-72.87691555,68.26939396,46.81605298
5.07335893,17.38584817,-0.89077917,1.06579704,0.47760668

>  <Name>
ligand

>  <RI>
0

>  <Rbt.Current_Directory>
/home/itssahil/PROJECTS/Mol_Feturizer/New_Systems/rnas/1TN2

>  <Rbt.Executable>
rbdock ($Id: //depot/dev/client3/rdock/2013.1/src/exe/rbdock.cxx#4 $)

>  <Rbt.Library>
libRbt.so (2013.1, Build901 2013/11/27)

>  <Rbt.Parameter_File>
/export/apps/rDock/src/rDock_2013.1_src/data/scripts/dock_solv.prm

>  <Rbt.Receptor>
prm/blind_docking_80.prm

>  <SCORE>
-4.03713

>  <SCORE.INTER>
-3.04364

>  <SCORE.INTER.CONST>
1

>  <SCORE.INTER.POLAR>
0

>  <SCORE.INTER.ROT>
11

>  <SCORE.INTER.SOLV>
10.2984

>  <SCORE.INTER.VDW>
-16.3952

>  <SCORE.INTER.norm>
-0.217403

>  <SCORE.INTRA>
-0.99349

>  <SCORE.INTRA.DIHEDRAL>
-4.93516

>  <SCORE.INTRA.DIHEDRAL.0>
7.79482

>  <SCORE.INTRA.POLAR>
0

>  <SCORE.INTRA.POLAR.0>
0

>  <SCORE.INTRA.REPUL>
0

>  <SCORE.INTRA.REPUL.0>
0

>  <SCORE.INTRA.SOLV>
4.60947

>  <SCORE.INTRA.SOLV.lig_0>
-49.456

>  <SCORE.INTRA.VDW>
-0.830648

>  <SCORE.INTRA.VDW.0>
-0.478406

>  <SCORE.INTRA.norm>
-0.0709636

>  <SCORE.RESTR>
0

>  <SCORE.RESTR.CAVITY>
0

>  <SCORE.RESTR.norm>
0

>  <SCORE.SYSTEM>
0

>  <SCORE.SYSTEM.CONST>
0

>  <SCORE.SYSTEM.DIHEDRAL>
0

>  <SCORE.SYSTEM.SOLV>
0

>  <SCORE.SYSTEM.norm>
0

>  <SCORE.heavy>
14

>  <SCORE.norm>
-0.288367

>  <RMSD>
4.480

$$$$
ligand
 OpenBabel11021811413D
libRbt.so/2013.1/901 2013/11/27
 14 13  0  0  0  0  0  0  0  0999 V2000
   46.7562    7.7037   18.8833 N   0  0  0  0  0  0  0  0  0  0  0  0
   46.3461    7.9003   20.2905 C   0  0  0  0  0  0  0  0  0  0  0  0
   45.0677    7.0982   20.6164 C   0  0  0  0  0  0  0  0  0  0  0  0
   45.2612    5.5734   20.6543 C   0  0  0  0  0  0  0  0  0  0  0  0
   45.6867    5.0554   19.3250 N   0  0  0  0  0  0  0  0  0  0  0  0
   45.4061    3.5999   19.2273 C   0  0  0  0  0  0  0  0  0  0  0  0
   46.4574    2.7604   18.4259 C   0  0  0  0  0  0  0  0  0  0  0  0
   46.1843    1.2288   18.4312 C   0  0  0  0  0  0  0  0  0  0  0  0
   45.0074    0.8104   17.5718 C   0  0  0  0  0  0  0  0  0  0  0  0
   45.3858    1.0027   16.1847 N   0  0  0  0  0  0  0  0  0  0  0  0
   44.5282    0.1210   15.4122 C   0  0  0  0  0  0  0  0  0  0  0  0
   45.3115   -1.0501   14.8307 C   0  0  0  0  0  0  0  0  0  0  0  0
   44.3291   -1.9102   14.0213 C   0  0  0  0  0  0  0  0  0  0  0  0
   45.0079   -2.9929   13.2935 N   0  0  0  0  0  0  0  0  0  0  0  0
  1  2  1  0  0  0  0
  2  3  1  0  0  0  0
  3  4  1  0  0  0  0
  4  5  1  0  0  0  0
  5  6  1  0  0  0  0
  6  7  1  0  0  0  0
  7  8  1  0  0  0  0
  8  9  1  0  0  0  0
  9 10  1  0  0  0  0
 10 11  1  0  0  0  0
 11 12  1  0  0  0  0
 12 13  1  0  0  0  0
 13 14  1  0  0  0  0
M  END
>  <CHROM.1>
69.73755870,-62.35845362,-159.85301429,-144.15872534,175.86254909,72.64938296
69.67298601,157.10285050,-109.36168531,-179.28583223,173.82884073,45.48101704
2.63577748,17.65513965,-0.92801304,-1.40348772,-1.91833099

>  <Name>
ligand

>  <RI>
0

>  <Rbt.Current_Directory>
/home/itssahil/PROJECTS/Mol_Feturizer/New_Systems/rnas/1TN2

>  <Rbt.Executable>
rbdock ($Id: //depot/dev/client3/rdock/2013.1/src/exe/rbdock.cxx#4 $)

>  <Rbt.Library>
libRbt.so (2013.1, Build901 2013/11/27)

>  <Rbt.Parameter_File>
/export/apps/rDock/src/rDock_2013.1_src/data/scripts/dock_solv.prm

>  <Rbt.Receptor>
prm/blind_docking_80.prm

>  <SCORE>
-8.93488

>  <SCORE.INTER>
-8.1735

>  <SCORE.INTER.CONST>
1

>  <SCORE.INTER.POLAR>
0

>  <SCORE.INTER.ROT>
11

>  <SCORE.INTER.SOLV>
12.9056

>  <SCORE.INTER.VDW>
-20.6842

>  <SCORE.INTER.norm>
-0.583821

>  <SCORE.INTRA>
-0.761386

>  <SCORE.INTRA.DIHEDRAL>
-3.64408

>  <SCORE.INTRA.DIHEDRAL.0>
7.79482

>  <SCORE.INTRA.POLAR>
0

>  <SCORE.INTRA.POLAR.0>
0

>  <SCORE.INTRA.REPUL>
0

>  <SCORE.INTRA.REPUL.0>
0

>  <SCORE.INTRA.SOLV>
3.26937

>  <SCORE.INTRA.SOLV.lig_0>
-49.456

>  <SCORE.INTRA.VDW>
-0.57403

>  <SCORE.INTRA.VDW.0>
-0.478406

>  <SCORE.INTRA.norm>
-0.0543847

>  <SCORE.RESTR>
0

>  <SCORE.RESTR.CAVITY>
0

>  <SCORE.RESTR.norm>
0

>  <SCORE.SYSTEM>
0

>  <SCORE.SYSTEM.CONST>
0

>  <SCORE.SYSTEM.DIHEDRAL>
0

>  <SCORE.SYSTEM.SOLV>
0

>  <SCORE.SYSTEM.norm>
0

>  <SCORE.heavy>
14

>  <SCORE.norm>
-0.638206

>  <RMSD>
4.512

$$$$
ligand
 OpenBabel11021811413D
libRbt.so/2013.1/901 2013/11/27
 14 13  0  0  0  0  0  0  0  0999 V2000
   50.9782    2.0232   14.6872 N   0  0  0  0  0  0  0  0  0  0  0  0
   49.8977    2.7093   15.4280 C   0  0  0  0  0  0  0  0  0  0  0  0
   48.5230    2.4550   14.7725 C   0  0  0  0  0  0  0  0  0  0  0  0
   47.3430    3.1517   15.4697 C   0  0  0  0  0  0  0  0  0  0  0  0
   47.2027    2.6855   16.8766 N   0  0  0  0  0  0  0  0  0  0  0  0
   46.0849    1.7132   16.9862 C   0  0  0  0  0  0  0  0  0  0  0  0
   45.5730    1.4316   18.4391 C   0  0  0  0  0  0  0  0  0  0  0  0
   44.9534    2.6715   19.1456 C   0  0  0  0  0  0  0  0  0  0  0  0
   45.9528    3.7706   19.4487 C   0  0  0  0  0  0  0  0  0  0  0  0
   45.2438    4.8310   20.1394 N   0  0  0  0  0  0  0  0  0  0  0  0
   46.1215    5.9877   20.1006 C   0  0  0  0  0  0  0  0  0  0  0  0
   45.3592    7.2539   19.7280 C   0  0  0  0  0  0  0  0  0  0  0  0
   46.3822    8.3935   19.6069 C   0  0  0  0  0  0  0  0  0  0  0  0
   45.7638    9.6496   19.1567 N   0  0  0  0  0  0  0  0  0  0  0  0
  1  2  1  0  0  0  0
  2  3  1  0  0  0  0
  3  4  1  0  0  0  0
  4  5  1  0  0  0  0
  5  6  1  0  0  0  0
  6  7  1  0  0  0  0
  7  8  1  0  0  0  0
  8  9  1  0  0  0  0
  9 10  1  0  0  0  0
 10 11  1  0  0  0  0
 11 12  1  0  0  0  0
 12 13  1  0  0  0  0
 13 14  1  0  0  0  0
M  END
>  <CHROM.1>
-179.12733579,-60.72164510,-102.55016030,-164.27341227,63.69382542,-66.98840739
-178.18755883,-165.47624911,135.19692744,-175.71236808,176.00347469,46.81259745
4.19455656,17.85614288,-0.96374850,0.74802652,0.24267186

>  <Name>
ligand

>  <RI>
0

>  <Rbt.Current_Directory>
/home/itssahil/PROJECTS/Mol_Feturizer/New_Systems/rnas/1TN2

>  <Rbt.Executable>
rbdock ($Id: //depot/dev/client3/rdock/2013.1/src/exe/rbdock.cxx#4 $)

>  <Rbt.Library>
libRbt.so (2013.1, Build901 2013/11/27)

>  <Rbt.Parameter_File>
/export/apps/rDock/src/rDock_2013.1_src/data/scripts/dock_solv.prm

>  <Rbt.Receptor>
prm/pocket_docking_7.prm

>  <SCORE>
-6.84031

>  <SCORE.INTER>
-4.34185

>  <SCORE.INTER.CONST>
1

>  <SCORE.INTER.POLAR>
0

>  <SCORE.INTER.ROT>
11

>  <SCORE.INTER.SOLV>
11.1424

>  <SCORE.INTER.VDW>
-17.542

>  <SCORE.INTER.norm>
-0.310132

>  <SCORE.INTRA>
-2.49846

>  <SCORE.INTRA.DIHEDRAL>
-5.0502

>  <SCORE.INTRA.DIHEDRAL.0>
7.79482

>  <SCORE.INTRA.POLAR>
0

>  <SCORE.INTRA.POLAR.0>
0

>  <SCORE.INTRA.REPUL>
0

>  <SCORE.INTRA.REPUL.0>
0

>  <SCORE.INTRA.SOLV>
1.23436

>  <SCORE.INTRA.SOLV.lig_0>
-49.456

>  <SCORE.INTRA.VDW>
-0.590537

>  <SCORE.INTRA.VDW.0>
-0.478406

>  <SCORE.INTRA.norm>
-0.178461

>  <SCORE.RESTR>
0

>  <SCORE.RESTR.CAVITY>
0

>  <SCORE.RESTR.norm>
0

>  <SCORE.SYSTEM>
0

>  <SCORE.SYSTEM.CONST>
0

>  <SCORE.SYSTEM.DIHEDRAL>
0

>  <SCORE.SYSTEM.SOLV>
0

>  <SCORE.SYSTEM.norm>
0

>  <SCORE.heavy>
14

>  <SCORE.norm>
-0.488593

>  <RMSD>
4.519

$$$$
ligand
 OpenBabel11021811413D
libRbt.so/2013.1/901 2013/11/27
 14 13  0  0  0  0  0  0  0  0999 V2000
   45.1316   -1.4149   12.6717 N   0  0  0  0  0  0  0  0  0  0  0  0
   44.8129   -0.9887   14.0516 C   0  0  0  0  0  0  0  0  0  0  0  0
   45.8920   -1.4674   15.0467 C   0  0  0  0  0  0  0  0  0  0  0  0
   45.6524   -1.0409   16.5044 C   0  0  0  0  0  0  0  0  0  0  0  0
   45.6139    0.4423   16.6278 N   0  0  0  0  0  0  0  0  0  0  0  0
   44.6450    0.8450   17.6793 C   0  0  0  0  0  0  0  0  0  0  0  0
   44.7051    2.3479   18.1151 C   0  0  0  0  0  0  0  0  0  0  0  0
   46.0560    2.7679   18.7624 C   0  0  0  0  0  0  0  0  0  0  0  0
   46.0935    4.2104   19.2277 C   0  0  0  0  0  0  0  0  0  0  0  0
   45.0380    4.3835   20.2077 N   0  0  0  0  0  0  0  0  0  0  0  0
   45.3097    5.6496   20.8658 C   0  0  0  0  0  0  0  0  0  0  0  0
   44.0315    6.2870   21.3980 C   0  0  0  0  0  0  0  0  0  0  0  0
   43.2433    6.8236   20.1935 C   0  0  0  0  0  0  0  0  0  0  0  0
   41.9932    7.4845   20.5974 N   0  0  0  0  0  0  0  0  0  0  0  0
  1  2  1  0  0  0  0
  2  3  1  0  0  0  0
  3  4  1  0  0  0  0
  4  5  1  0  0  0  0
  5  6  1  0  0  0  0
  6  7  1  0  0  0  0
  7  8  1  0  0  0  0
  8  9  1  0  0  0  0
  9 10  1  0  0  0  0
 10 11  1  0  0  0  0
 11 12  1  0  0  0  0
 12 13  1  0  0  0  0
 13 14  1  0  0  0  0
M  END
>  <CHROM.1>
178.79566806,-60.11769970,145.73750488,168.35809716,-62.89605915,-177.95157827
59.54691892,166.16530179,152.74327178,-73.13154278,-179.01600345,44.87289782
2.59493678,17.99655829,1.38052537,0.62606063,-2.34557677

>  <Name>
ligand

>  <RI>
0

>  <Rbt.Current_Directory>
/home/itssahil/PROJECTS/Mol_Feturizer/New_Systems/rnas/1TN2

>  <Rbt.Executable>
rbdock ($Id: //depot/dev/client3/rdock/2013.1/src/exe/rbdock.cxx#4 $)

>  <Rbt.Library>
libRbt.so (2013.1, Build901 2013/11/27)

>  <Rbt.Parameter_File>
/export/apps/rDock/src/rDock_2013.1_src/data/scripts/dock_solv.prm

>  <Rbt.Receptor>
prm/blind_docking_60.prm

>  <SCORE>
-9.82647

>  <SCORE.INTER>
-6.99424

>  <SCORE.INTER.CONST>
1

>  <SCORE.INTER.POLAR>
0

>  <SCORE.INTER.ROT>
11

>  <SCORE.INTER.SOLV>
14.9862

>  <SCORE.INTER.VDW>
-20.5916

>  <SCORE.INTER.norm>
-0.499588

>  <SCORE.INTRA>
-2.83223

>  <SCORE.INTRA.DIHEDRAL>
-5.60286

>  <SCORE.INTRA.DIHEDRAL.0>
7.79482

>  <SCORE.INTRA.POLAR>
0

>  <SCORE.INTRA.POLAR.0>
0

>  <SCORE.INTRA.REPUL>
0

>  <SCORE.INTRA.REPUL.0>
0

>  <SCORE.INTRA.SOLV>
1.35597

>  <SCORE.INTRA.SOLV.lig_0>
-49.456

>  <SCORE.INTRA.VDW>
-0.708784

>  <SCORE.INTRA.VDW.0>
-0.478406

>  <SCORE.INTRA.norm>
-0.202302

>  <SCORE.RESTR>
0

>  <SCORE.RESTR.CAVITY>
0

>  <SCORE.RESTR.norm>
0

>  <SCORE.SYSTEM>
0

>  <SCORE.SYSTEM.CONST>
0

>  <SCORE.SYSTEM.DIHEDRAL>
0

>  <SCORE.SYSTEM.SOLV>
0

>  <SCORE.SYSTEM.norm>
0

>  <SCORE.heavy>
14

>  <SCORE.norm>
-0.701891

>  <RMSD>
4.571

$$$$
ligand
 OpenBabel11021811413D
libRbt.so/2013.1/901 2013/11/27
 14 13  0  0  0  0  0  0  0  0999 V2000
   45.9220    8.6720   19.1265 N   0  0  0  0  0  0  0  0  0  0  0  0
   46.1901    7.2582   19.4672 C   0  0  0  0  0  0  0  0  0  0  0  0
   45.3230    6.7972   20.6587 C   0  0  0  0  0  0  0  0  0  0  0  0
   45.4961    5.3182   21.0417 C   0  0  0  0  0  0  0  0  0  0  0  0
   45.0491    4.4246   19.9380 N   0  0  0  0  0  0  0  0  0  0  0  0
   46.2243    3.8271   19.2533 C   0  0  0  0  0  0  0  0  0  0  0  0
   45.8958    2.8084   18.1103 C   0  0  0  0  0  0  0  0  0  0  0  0
   45.0460    1.5894   18.5708 C   0  0  0  0  0  0  0  0  0  0  0  0
   44.6743    0.6392   17.4492 C   0  0  0  0  0  0  0  0  0  0  0  0
   45.9050    0.0892   16.9133 N   0  0  0  0  0  0  0  0  0  0  0  0
   45.5446   -1.1847   16.3159 C   0  0  0  0  0  0  0  0  0  0  0  0
   45.2500   -1.0392   14.8275 C   0  0  0  0  0  0  0  0  0  0  0  0
   44.7757   -2.4064   14.3118 C   0  0  0  0  0  0  0  0  0  0  0  0
   44.5936   -2.4169   12.8525 N   0  0  0  0  0  0  0  0  0  0  0  0
  1  2  1  0  0  0  0
  2  3  1  0  0  0  0
  3  4  1  0  0  0  0
  4  5  1  0  0  0  0
  5  6  1  0  0  0  0
  6  7  1  0  0  0  0
  7  8  1  0  0  0  0
  8  9  1  0  0  0  0
  9 10  1  0  0  0  0
 10 11  1  0  0  0  0
 11 12  1  0  0  0  0
 12 13  1  0  0  0  0
 13 14  1  0  0  0  0
M  END
>  <CHROM.1>
177.52956781,-63.88208501,105.70594039,177.20593076,-58.52881367,177.25604821
62.76172580,155.15375081,93.86130962,-175.68243022,-174.14531746,45.42070325
2.45535088,17.77427834,-0.71156337,-1.47566086,-1.72100303

>  <Name>
ligand

>  <RI>
0

>  <Rbt.Current_Directory>
/home/itssahil/PROJECTS/Mol_Feturizer/New_Systems/rnas/1TN2

>  <Rbt.Executable>
rbdock ($Id: //depot/dev/client3/rdock/2013.1/src/exe/rbdock.cxx#4 $)

>  <Rbt.Library>
libRbt.so (2013.1, Build901 2013/11/27)

>  <Rbt.Parameter_File>
/export/apps/rDock/src/rDock_2013.1_src/data/scripts/dock_solv.prm

>  <Rbt.Receptor>
prm/blind_docking_60.prm

>  <SCORE>
-10.694

>  <SCORE.INTER>
-8.31448

>  <SCORE.INTER.CONST>
1

>  <SCORE.INTER.POLAR>
0

>  <SCORE.INTER.ROT>
11

>  <SCORE.INTER.SOLV>
12.3473

>  <SCORE.INTER.VDW>
-20.5921

>  <SCORE.INTER.norm>
-0.593892

>  <SCORE.INTRA>
-2.37954

>  <SCORE.INTRA.DIHEDRAL>
-5.24093

>  <SCORE.INTRA.DIHEDRAL.0>
7.79482

>  <SCORE.INTRA.POLAR>
0

>  <SCORE.INTRA.POLAR.0>
0

>  <SCORE.INTRA.REPUL>
0

>  <SCORE.INTRA.REPUL.0>
0

>  <SCORE.INTRA.SOLV>
1.04495

>  <SCORE.INTRA.SOLV.lig_0>
-49.456

>  <SCORE.INTRA.VDW>
-0.281554

>  <SCORE.INTRA.VDW.0>
-0.478406

>  <SCORE.INTRA.norm>
-0.169967

>  <SCORE.RESTR>
0

>  <SCORE.RESTR.CAVITY>
0

>  <SCORE.RESTR.norm>
0

>  <SCORE.SYSTEM>
0

>  <SCORE.SYSTEM.CONST>
0

>  <SCORE.SYSTEM.DIHEDRAL>
0

>  <SCORE.SYSTEM.SOLV>
0

>  <SCORE.SYSTEM.norm>
0

>  <SCORE.heavy>
14

>  <SCORE.norm>
-0.763859

>  <RMSD>
4.584

$$$$
ligand
 OpenBabel11021811413D
libRbt.so/2013.1/901 2013/11/27
 14 13  0  0  0  0  0  0  0  0999 V2000
   42.5634   15.4686   18.0190 N   0  0  0  0  0  0  0  0  0  0  0  0
   41.9564   14.1507   18.3049 C   0  0  0  0  0  0  0  0  0  0  0  0
   42.2958   13.1283   17.1988 C   0  0  0  0  0  0  0  0  0  0  0  0
   41.7354   11.7167   17.4384 C   0  0  0  0  0  0  0  0  0  0  0  0
   42.3006   11.1210   18.6801 N   0  0  0  0  0  0  0  0  0  0  0  0
   41.6501    9.8164   18.9659 C   0  0  0  0  0  0  0  0  0  0  0  0
   42.4879    8.8183   19.8341 C   0  0  0  0  0  0  0  0  0  0  0  0
   41.7498    7.4890   20.1638 C   0  0  0  0  0  0  0  0  0  0  0  0
   42.5342    6.5568   21.0663 C   0  0  0  0  0  0  0  0  0  0  0  0
   43.7701    6.2221   20.3845 N   0  0  0  0  0  0  0  0  0  0  0  0
   44.5202    5.3878   21.3070 C   0  0  0  0  0  0  0  0  0  0  0  0
   45.7300    4.7552   20.6292 C   0  0  0  0  0  0  0  0  0  0  0  0
   45.2118    3.8676   19.4874 C   0  0  0  0  0  0  0  0  0  0  0  0
   46.2965    3.1346   18.8175 N   0  0  0  0  0  0  0  0  0  0  0  0
  1  2  1  0  0  0  0
  2  3  1  0  0  0  0
  3  4  1  0  0  0  0
  4  5  1  0  0  0  0
  5  6  1  0  0  0  0
  6  7  1  0  0  0  0
  7  8  1  0  0  0  0
  8  9  1  0  0  0  0
  9 10  1  0  0  0  0
 10 11  1  0  0  0  0
 11 12  1  0  0  0  0
 12 13  1  0  0  0  0
 13 14  1  0  0  0  0
M  END
>  <CHROM.1>
178.34679424,-61.99756424,174.48465711,155.71250754,177.47986759,-176.87619666
-60.44219246,177.11746313,169.74802034,-61.36579714,-176.22441260,43.19994512
8.68796643,19.30706280,-1.94286783,-0.60378251,2.68594308

>  <Name>
ligand

>  <RI>
0

>  <Rbt.Current_Directory>
/home/itssahil/PROJECTS/Mol_Feturizer/New_Systems/rnas/1TN2

>  <Rbt.Executable>
rbdock ($Id: //depot/dev/client3/rdock/2013.1/src/exe/rbdock.cxx#4 $)

>  <Rbt.Library>
libRbt.so (2013.1, Build901 2013/11/27)

>  <Rbt.Parameter_File>
/export/apps/rDock/src/rDock_2013.1_src/data/scripts/dock_solv.prm

>  <Rbt.Receptor>
prm/pocket_docking_7.prm

>  <SCORE>
-13.2909

>  <SCORE.INTER>
-9.8556

>  <SCORE.INTER.CONST>
1

>  <SCORE.INTER.POLAR>
0

>  <SCORE.INTER.ROT>
11

>  <SCORE.INTER.SOLV>
15.5882

>  <SCORE.INTER.VDW>
-22.6998

>  <SCORE.INTER.norm>
-0.703971

>  <SCORE.INTRA>
-3.43532

>  <SCORE.INTRA.DIHEDRAL>
-7.10376

>  <SCORE.INTRA.DIHEDRAL.0>
7.79482

>  <SCORE.INTRA.POLAR>
0

>  <SCORE.INTRA.POLAR.0>
0

>  <SCORE.INTRA.REPUL>
0

>  <SCORE.INTRA.REPUL.0>
0

>  <SCORE.INTRA.SOLV>
1.13163

>  <SCORE.INTRA.SOLV.lig_0>
-49.456

>  <SCORE.INTRA.VDW>
-0.44925

>  <SCORE.INTRA.VDW.0>
-0.478406

>  <SCORE.INTRA.norm>
-0.24538

>  <SCORE.RESTR>
0

>  <SCORE.RESTR.CAVITY>
0

>  <SCORE.RESTR.norm>
0

>  <SCORE.SYSTEM>
0

>  <SCORE.SYSTEM.CONST>
0

>  <SCORE.SYSTEM.DIHEDRAL>
0

>  <SCORE.SYSTEM.SOLV>
0

>  <SCORE.SYSTEM.norm>
0

>  <SCORE.heavy>
14

>  <SCORE.norm>
-0.949351

>  <RMSD>
4.600

$$$$
ligand
 OpenBabel11021811413D
libRbt.so/2013.1/901 2013/11/27
 14 13  0  0  0  0  0  0  0  0999 V2000
   48.1464    3.6334   13.4955 N   0  0  0  0  0  0  0  0  0  0  0  0
   46.9863    2.8964   12.9494 C   0  0  0  0  0  0  0  0  0  0  0  0
   45.8722    2.7461   14.0079 C   0  0  0  0  0  0  0  0  0  0  0  0
   46.2920    1.9828   15.2748 C   0  0  0  0  0  0  0  0  0  0  0  0
   45.1568    1.8697   16.2313 N   0  0  0  0  0  0  0  0  0  0  0  0
   45.6153    1.2501   17.5012 C   0  0  0  0  0  0  0  0  0  0  0  0
   46.3762    2.2034   18.4832 C   0  0  0  0  0  0  0  0  0  0  0  0
   45.6008    3.5063   18.8319 C   0  0  0  0  0  0  0  0  0  0  0  0
   46.2539    4.3395   19.9173 C   0  0  0  0  0  0  0  0  0  0  0  0
   45.4359    5.5208   20.1166 N   0  0  0  0  0  0  0  0  0  0  0  0
   44.3692    5.1190   21.0168 C   0  0  0  0  0  0  0  0  0  0  0  0
   43.6534    6.3279   21.6080 C   0  0  0  0  0  0  0  0  0  0  0  0
   43.0204    7.1075   20.4455 C   0  0  0  0  0  0  0  0  0  0  0  0
   44.0238    7.8306   19.6499 N   0  0  0  0  0  0  0  0  0  0  0  0
  1  2  1  0  0  0  0
  2  3  1  0  0  0  0
  3  4  1  0  0  0  0
  4  5  1  0  0  0  0
  5  6  1  0  0  0  0
  6  7  1  0  0  0  0
  7  8  1  0  0  0  0
  8  9  1  0  0  0  0
  9 10  1  0  0  0  0
 10 11  1  0  0  0  0
 11 12  1  0  0  0  0
 12 13  1  0  0  0  0
 13 14  1  0  0  0  0
M  END
>  <CHROM.1>
-60.19711289,-179.29072492,-174.41338323,78.88227867,53.65007227,172.45804670
179.12225699,83.25602042,164.79202785,61.92439774,-73.23644504,45.48582956
4.02353639,17.82370862,0.17758221,1.23190579,-0.72616806

>  <Name>
ligand

>  <RI>
0

>  <Rbt.Current_Directory>
/home/itssahil/PROJECTS/Mol_Feturizer/New_Systems/rnas/1TN2

>  <Rbt.Executable>
rbdock ($Id: //depot/dev/client3/rdock/2013.1/src/exe/rbdock.cxx#4 $)

>  <Rbt.Library>
libRbt.so (2013.1, Build901 2013/11/27)

>  <Rbt.Parameter_File>
/export/apps/rDock/src/rDock_2013.1_src/data/scripts/dock_solv.prm

>  <Rbt.Receptor>
prm/pocket_docking_8.prm

>  <SCORE>
-4.63096

>  <SCORE.INTER>
-4.48528

>  <SCORE.INTER.CONST>
1

>  <SCORE.INTER.POLAR>
0

>  <SCORE.INTER.ROT>
11

>  <SCORE.INTER.SOLV>
12.6046

>  <SCORE.INTER.VDW>
-18.1251

>  <SCORE.INTER.norm>
-0.320377

>  <SCORE.INTRA>
-0.145674

>  <SCORE.INTRA.DIHEDRAL>
-5.88396

>  <SCORE.INTRA.DIHEDRAL.0>
7.79482

>  <SCORE.INTRA.POLAR>
0

>  <SCORE.INTRA.POLAR.0>
0

>  <SCORE.INTRA.REPUL>
0

>  <SCORE.INTRA.REPUL.0>
0

>  <SCORE.INTRA.SOLV>
4.07485

>  <SCORE.INTRA.SOLV.lig_0>
-49.456

>  <SCORE.INTRA.VDW>
0.758878

>  <SCORE.INTRA.VDW.0>
-0.478406

>  <SCORE.INTRA.norm>
-0.0104053

>  <SCORE.RESTR>
0

>  <SCORE.RESTR.CAVITY>
0

>  <SCORE.RESTR.norm>
0

>  <SCORE.SYSTEM>
0

>  <SCORE.SYSTEM.CONST>
0

>  <SCORE.SYSTEM.DIHEDRAL>
0

>  <SCORE.SYSTEM.SOLV>
0

>  <SCORE.SYSTEM.norm>
0

>  <SCORE.heavy>
14

>  <SCORE.norm>
-0.330783

>  <RMSD>
4.619

$$$$
ligand
 OpenBabel11021811413D
libRbt.so/2013.1/901 2013/11/27
 14 13  0  0  0  0  0  0  0  0999 V2000
   45.9092    8.4604   19.3114 N   0  0  0  0  0  0  0  0  0  0  0  0
   46.3362    7.1226   19.7751 C   0  0  0  0  0  0  0  0  0  0  0  0
   45.1789    6.3795   20.4768 C   0  0  0  0  0  0  0  0  0  0  0  0
   45.5480    4.9902   21.0222 C   0  0  0  0  0  0  0  0  0  0  0  0
   46.0276    4.0979   19.9312 N   0  0  0  0  0  0  0  0  0  0  0  0
   44.8777    3.4199   19.2796 C   0  0  0  0  0  0  0  0  0  0  0  0
   45.0017    1.8655   19.1356 C   0  0  0  0  0  0  0  0  0  0  0  0
   46.2248    1.4012   18.2937 C   0  0  0  0  0  0  0  0  0  0  0  0
   46.1105    1.7182   16.8154 C   0  0  0  0  0  0  0  0  0  0  0  0
   45.0794    0.8617   16.2608 N   0  0  0  0  0  0  0  0  0  0  0  0
   45.2148    0.9589   14.8179 C   0  0  0  0  0  0  0  0  0  0  0  0
   44.4335   -0.1413   14.1091 C   0  0  0  0  0  0  0  0  0  0  0  0
   45.0960   -1.4821   14.4605 C   0  0  0  0  0  0  0  0  0  0  0  0
   46.4360   -1.6115   13.8685 N   0  0  0  0  0  0  0  0  0  0  0  0
  1  2  1  0  0  0  0
  2  3  1  0  0  0  0
  3  4  1  0  0  0  0
  4  5  1  0  0  0  0
  5  6  1  0  0  0  0
  6  7  1  0  0  0  0
  7  8  1  0  0  0  0
  8  9  1  0  0  0  0
  9 10  1  0  0  0  0
 10 11  1  0  0  0  0
 11 12  1  0  0  0  0
 12 13  1  0  0  0  0
 13 14  1  0  0  0  0
M  END
>  <CHROM.1>
-178.55777037,-59.12648258,-86.52929425,-129.51429635,-60.01805969,-69.69169920
-69.94283282,-166.85024545,165.89292161,-66.33512259,-67.99774965,45.53374871
2.71712836,17.68284690,-0.93706622,-1.50655611,-1.84452291

>  <Name>
ligand

>  <RI>
0

>  <Rbt.Current_Directory>
/home/itssahil/PROJECTS/Mol_Feturizer/New_Systems/rnas/1TN2

>  <Rbt.Executable>
rbdock ($Id: //depot/dev/client3/rdock/2013.1/src/exe/rbdock.cxx#4 $)

>  <Rbt.Library>
libRbt.so (2013.1, Build901 2013/11/27)

>  <Rbt.Parameter_File>
/export/apps/rDock/src/rDock_2013.1_src/data/scripts/dock_solv.prm

>  <Rbt.Receptor>
prm/pocket_docking_6.prm

>  <SCORE>
-7.65091

>  <SCORE.INTER>
-6.7517

>  <SCORE.INTER.CONST>
1

>  <SCORE.INTER.POLAR>
0

>  <SCORE.INTER.ROT>
11

>  <SCORE.INTER.SOLV>
11.3554

>  <SCORE.INTER.VDW>
-19.2196

>  <SCORE.INTER.norm>
-0.482264

>  <SCORE.INTRA>
-0.899212

>  <SCORE.INTRA.DIHEDRAL>
-4.73217

>  <SCORE.INTRA.DIHEDRAL.0>
7.79482

>  <SCORE.INTRA.POLAR>
0

>  <SCORE.INTRA.POLAR.0>
0

>  <SCORE.INTRA.REPUL>
0

>  <SCORE.INTRA.REPUL.0>
0

>  <SCORE.INTRA.SOLV>
3.24229

>  <SCORE.INTRA.SOLV.lig_0>
-49.456

>  <SCORE.INTRA.VDW>
-0.154271

>  <SCORE.INTRA.VDW.0>
-0.478406

>  <SCORE.INTRA.norm>
-0.0642295

>  <SCORE.RESTR>
0

>  <SCORE.RESTR.CAVITY>
0

>  <SCORE.RESTR.norm>
0

>  <SCORE.SYSTEM>
0

>  <SCORE.SYSTEM.CONST>
0

>  <SCORE.SYSTEM.DIHEDRAL>
0

>  <SCORE.SYSTEM.SOLV>
0

>  <SCORE.SYSTEM.norm>
0

>  <SCORE.heavy>
14

>  <SCORE.norm>
-0.546493

>  <RMSD>
4.651

$$$$
ligand
 OpenBabel11021811413D
libRbt.so/2013.1/901 2013/11/27
 14 13  0  0  0  0  0  0  0  0999 V2000
   44.7605   -3.7111   13.2318 N   0  0  0  0  0  0  0  0  0  0  0  0
   44.2464   -2.4158   13.7268 C   0  0  0  0  0  0  0  0  0  0  0  0
   45.3901   -1.3949   13.9104 C   0  0  0  0  0  0  0  0  0  0  0  0
   44.9336    0.0045   14.3542 C   0  0  0  0  0  0  0  0  0  0  0  0
   44.3217   -0.0382   15.7108 N   0  0  0  0  0  0  0  0  0  0  0  0
   45.3219    0.3516   16.7376 C   0  0  0  0  0  0  0  0  0  0  0  0
   45.0789    1.7361   17.4277 C   0  0  0  0  0  0  0  0  0  0  0  0
   46.1416    2.1053   18.5023 C   0  0  0  0  0  0  0  0  0  0  0  0
   45.8008    3.3461   19.3042 C   0  0  0  0  0  0  0  0  0  0  0  0
   46.0743    4.4990   18.4673 N   0  0  0  0  0  0  0  0  0  0  0  0
   46.1661    5.6333   19.3700 C   0  0  0  0  0  0  0  0  0  0  0  0
   46.5552    6.9065   18.6279 C   0  0  0  0  0  0  0  0  0  0  0  0
   46.6183    8.0442   19.6583 C   0  0  0  0  0  0  0  0  0  0  0  0
   46.8673    9.3500   19.0295 N   0  0  0  0  0  0  0  0  0  0  0  0
  1  2  1  0  0  0  0
  2  3  1  0  0  0  0
  3  4  1  0  0  0  0
  4  5  1  0  0  0  0
  5  6  1  0  0  0  0
  6  7  1  0  0  0  0
  7  8  1  0  0  0  0
  8  9  1  0  0  0  0
  9 10  1  0  0  0  0
 10 11  1  0  0  0  0
 11 12  1  0  0  0  0
 12 13  1  0  0  0  0
 13 14  1  0  0  0  0
M  END
>  <CHROM.1>
176.99405233,64.56587078,97.50513073,110.08139696,179.65614206,-171.82445782
-76.45307924,-161.76793422,175.80497211,179.67378378,-174.79686733,45.59123123
2.45829617,17.00435043,-2.87711209,1.39637168,1.81073488

>  <Name>
ligand

>  <RI>
0

>  <Rbt.Current_Directory>
/home/itssahil/PROJECTS/Mol_Feturizer/New_Systems/rnas/1TN2

>  <Rbt.Executable>
rbdock ($Id: //depot/dev/client3/rdock/2013.1/src/exe/rbdock.cxx#4 $)

>  <Rbt.Library>
libRbt.so (2013.1, Build901 2013/11/27)

>  <Rbt.Parameter_File>
/export/apps/rDock/src/rDock_2013.1_src/data/scripts/dock_solv.prm

>  <Rbt.Receptor>
prm/blind_docking_80.prm

>  <SCORE>
-6.26153

>  <SCORE.INTER>
-3.84126

>  <SCORE.INTER.CONST>
1

>  <SCORE.INTER.POLAR>
0

>  <SCORE.INTER.ROT>
11

>  <SCORE.INTER.SOLV>
17.0388

>  <SCORE.INTER.VDW>
-19.1738

>  <SCORE.INTER.norm>
-0.274376

>  <SCORE.INTRA>
-2.42027

>  <SCORE.INTRA.DIHEDRAL>
-4.12276

>  <SCORE.INTRA.DIHEDRAL.0>
7.79482

>  <SCORE.INTRA.POLAR>
0

>  <SCORE.INTRA.POLAR.0>
0

>  <SCORE.INTRA.REPUL>
0

>  <SCORE.INTRA.REPUL.0>
0

>  <SCORE.INTRA.SOLV>
0.573249

>  <SCORE.INTRA.SOLV.lig_0>
-49.456

>  <SCORE.INTRA.VDW>
-0.645515

>  <SCORE.INTRA.VDW.0>
-0.478406

>  <SCORE.INTRA.norm>
-0.172877

>  <SCORE.RESTR>
0

>  <SCORE.RESTR.CAVITY>
0

>  <SCORE.RESTR.norm>
0

>  <SCORE.SYSTEM>
0

>  <SCORE.SYSTEM.CONST>
0

>  <SCORE.SYSTEM.DIHEDRAL>
0

>  <SCORE.SYSTEM.SOLV>
0

>  <SCORE.SYSTEM.norm>
0

>  <SCORE.heavy>
14

>  <SCORE.norm>
-0.447252

>  <RMSD>
4.706

$$$$
ligand
 OpenBabel11021811413D
libRbt.so/2013.1/901 2013/11/27
 14 13  0  0  0  0  0  0  0  0999 V2000
   45.8950    9.1836   19.1970 N   0  0  0  0  0  0  0  0  0  0  0  0
   45.5343    8.0814   20.1147 C   0  0  0  0  0  0  0  0  0  0  0  0
   46.1968    6.7556   19.6820 C   0  0  0  0  0  0  0  0  0  0  0  0
   45.7998    5.5356   20.5293 C   0  0  0  0  0  0  0  0  0  0  0  0
   46.4965    4.3075   20.0572 N   0  0  0  0  0  0  0  0  0  0  0  0
   45.7150    3.6585   18.9733 C   0  0  0  0  0  0  0  0  0  0  0  0
   46.1139    2.1806   18.6432 C   0  0  0  0  0  0  0  0  0  0  0  0
   45.3123    1.5543   17.4661 C   0  0  0  0  0  0  0  0  0  0  0  0
   45.6193    0.0895   17.2230 C   0  0  0  0  0  0  0  0  0  0  0  0
   44.9507   -0.3019   15.9965 N   0  0  0  0  0  0  0  0  0  0  0  0
   45.5138   -1.5895   15.6297 C   0  0  0  0  0  0  0  0  0  0  0  0
   44.7698   -2.2085   14.4521 C   0  0  0  0  0  0  0  0  0  0  0  0
   45.0398   -1.3323   13.2195 C   0  0  0  0  0  0  0  0  0  0  0  0
   44.4012   -1.8668   12.0074 N   0  0  0  0  0  0  0  0  0  0  0  0
  1  2  1  0  0  0  0
  2  3  1  0  0  0  0
  3  4  1  0  0  0  0
  4  5  1  0  0  0  0
  5  6  1  0  0  0  0
  6  7  1  0  0  0  0
  7  8  1  0  0  0  0
  8  9  1  0  0  0  0
  9 10  1  0  0  0  0
 10 11  1  0  0  0  0
 11 12  1  0  0  0  0
 12 13  1  0  0  0  0
 13 14  1  0  0  0  0
M  END
>  <CHROM.1>
-176.15024218,-179.20052282,-87.14735422,-164.43732067,-177.69913094,-175.22977743
-172.14357432,166.82834518,172.51996145,67.07785212,178.08787344,45.52562001
2.43181013,17.37100793,1.13035552,-1.34109310,0.15919151

>  <Name>
ligand

>  <RI>
0

>  <Rbt.Current_Directory>
/home/itssahil/PROJECTS/Mol_Feturizer/New_Systems/rnas/1TN2

>  <Rbt.Executable>
rbdock ($Id: //depot/dev/client3/rdock/2013.1/src/exe/rbdock.cxx#4 $)

>  <Rbt.Library>
libRbt.so (2013.1, Build901 2013/11/27)

>  <Rbt.Parameter_File>
/export/apps/rDock/src/rDock_2013.1_src/data/scripts/dock_solv.prm

>  <Rbt.Receptor>
prm/blind_docking_60.prm

>  <SCORE>
-10.6056

>  <SCORE.INTER>
-7.24765

>  <SCORE.INTER.CONST>
1

>  <SCORE.INTER.POLAR>
0

>  <SCORE.INTER.ROT>
11

>  <SCORE.INTER.SOLV>
13.8332

>  <SCORE.INTER.VDW>
-20.3762

>  <SCORE.INTER.norm>
-0.517689

>  <SCORE.INTRA>
-3.35792

>  <SCORE.INTRA.DIHEDRAL>
-6.30843

>  <SCORE.INTRA.DIHEDRAL.0>
7.79482

>  <SCORE.INTRA.POLAR>
0

>  <SCORE.INTRA.POLAR.0>
0

>  <SCORE.INTRA.REPUL>
0

>  <SCORE.INTRA.REPUL.0>
0

>  <SCORE.INTRA.SOLV>
0.347841

>  <SCORE.INTRA.SOLV.lig_0>
-49.456

>  <SCORE.INTRA.VDW>
-0.377624

>  <SCORE.INTRA.VDW.0>
-0.478406

>  <SCORE.INTRA.norm>
-0.239851

>  <SCORE.RESTR>
0

>  <SCORE.RESTR.CAVITY>
0

>  <SCORE.RESTR.norm>
0

>  <SCORE.SYSTEM>
0

>  <SCORE.SYSTEM.CONST>
0

>  <SCORE.SYSTEM.DIHEDRAL>
0

>  <SCORE.SYSTEM.SOLV>
0

>  <SCORE.SYSTEM.norm>
0

>  <SCORE.heavy>
14

>  <SCORE.norm>
-0.757541

>  <RMSD>
4.775

$$$$
ligand
 OpenBabel11021811413D
libRbt.so/2013.1/901 2013/11/27
 14 13  0  0  0  0  0  0  0  0999 V2000
   46.8146    2.2278   14.2361 N   0  0  0  0  0  0  0  0  0  0  0  0
   46.3261    1.0387   13.5049 C   0  0  0  0  0  0  0  0  0  0  0  0
   44.9431    0.5922   14.0265 C   0  0  0  0  0  0  0  0  0  0  0  0
   44.9151    0.2034   15.5138 C   0  0  0  0  0  0  0  0  0  0  0  0
   45.1224    1.3952   16.3816 N   0  0  0  0  0  0  0  0  0  0  0  0
   45.2563    0.9793   17.8015 C   0  0  0  0  0  0  0  0  0  0  0  0
   45.1608    2.1327   18.8563 C   0  0  0  0  0  0  0  0  0  0  0  0
   46.2491    3.2327   18.6949 C   0  0  0  0  0  0  0  0  0  0  0  0
   46.2529    4.2628   19.8075 C   0  0  0  0  0  0  0  0  0  0  0  0
   44.9735    4.9460   19.7781 N   0  0  0  0  0  0  0  0  0  0  0  0
   44.8694    5.6505   21.0440 C   0  0  0  0  0  0  0  0  0  0  0  0
   43.8215    6.7556   20.9826 C   0  0  0  0  0  0  0  0  0  0  0  0
   42.4541    6.0882   20.7712 C   0  0  0  0  0  0  0  0  0  0  0  0
   42.0328    5.3021   21.9405 N   0  0  0  0  0  0  0  0  0  0  0  0
  1  2  1  0  0  0  0
  2  3  1  0  0  0  0
  3  4  1  0  0  0  0
  4  5  1  0  0  0  0
  5  6  1  0  0  0  0
  6  7  1  0  0  0  0
  7  8  1  0  0  0  0
  8  9  1  0  0  0  0
  9 10  1  0  0  0  0
 10 11  1  0  0  0  0
 11 12  1  0  0  0  0
 12 13  1  0  0  0  0
 13 14  1  0  0  0  0
M  END
>  <CHROM.1>
-60.35318238,68.66930500,-173.18026866,-166.96890460,-60.09204465,-173.44175264
-62.30562958,165.13936278,161.41624810,64.80678288,67.55578099,44.94234544
3.20041662,18.09568753,-1.29737158,0.35875245,0.82862232

>  <Name>
ligand

>  <RI>
0

>  <Rbt.Current_Directory>
/home/itssahil/PROJECTS/Mol_Feturizer/New_Systems/rnas/1TN2

>  <Rbt.Executable>
rbdock ($Id: //depot/dev/client3/rdock/2013.1/src/exe/rbdock.cxx#4 $)

>  <Rbt.Library>
libRbt.so (2013.1, Build901 2013/11/27)

>  <Rbt.Parameter_File>
/export/apps/rDock/src/rDock_2013.1_src/data/scripts/dock_solv.prm

>  <Rbt.Receptor>
prm/pocket_docking_7.prm

>  <SCORE>
-5.95363

>  <SCORE.INTER>
-4.86755

>  <SCORE.INTER.CONST>
1

>  <SCORE.INTER.POLAR>
0

>  <SCORE.INTER.ROT>
11

>  <SCORE.INTER.SOLV>
11.3674

>  <SCORE.INTER.VDW>
-17.9675

>  <SCORE.INTER.norm>
-0.347682

>  <SCORE.INTRA>
-1.08608

>  <SCORE.INTRA.DIHEDRAL>
-6.40879

>  <SCORE.INTRA.DIHEDRAL.0>
7.79482

>  <SCORE.INTRA.POLAR>
0

>  <SCORE.INTRA.POLAR.0>
0

>  <SCORE.INTRA.REPUL>
0

>  <SCORE.INTRA.REPUL.0>
0

>  <SCORE.INTRA.SOLV>
5.47473

>  <SCORE.INTRA.SOLV.lig_0>
-49.456

>  <SCORE.INTRA.VDW>
-0.619055

>  <SCORE.INTRA.VDW.0>
-0.478406

>  <SCORE.INTRA.norm>
-0.0775773

>  <SCORE.RESTR>
0

>  <SCORE.RESTR.CAVITY>
0

>  <SCORE.RESTR.norm>
0

>  <SCORE.SYSTEM>
0

>  <SCORE.SYSTEM.CONST>
0

>  <SCORE.SYSTEM.DIHEDRAL>
0

>  <SCORE.SYSTEM.SOLV>
0

>  <SCORE.SYSTEM.norm>
0

>  <SCORE.heavy>
14

>  <SCORE.norm>
-0.425259

>  <RMSD>
4.775

$$$$
ligand
 OpenBabel11021811413D
libRbt.so/2013.1/901 2013/11/27
 14 13  0  0  0  0  0  0  0  0999 V2000
   47.7733    1.0563   14.0834 N   0  0  0  0  0  0  0  0  0  0  0  0
   47.8230   -0.3786   13.7287 C   0  0  0  0  0  0  0  0  0  0  0  0
   46.4408   -1.0445   13.9018 C   0  0  0  0  0  0  0  0  0  0  0  0
   45.9720   -1.1759   15.3602 C   0  0  0  0  0  0  0  0  0  0  0  0
   45.7568    0.1628   15.9750 N   0  0  0  0  0  0  0  0  0  0  0  0
   45.0904    0.0203   17.2950 C   0  0  0  0  0  0  0  0  0  0  0  0
   44.6251    1.3566   17.9659 C   0  0  0  0  0  0  0  0  0  0  0  0
   45.7901    2.2380   18.5008 C   0  0  0  0  0  0  0  0  0  0  0  0
   45.3341    3.5115   19.1857 C   0  0  0  0  0  0  0  0  0  0  0  0
   46.5122    4.1712   19.7162 N   0  0  0  0  0  0  0  0  0  0  0  0
   46.0412    5.4105   20.3093 C   0  0  0  0  0  0  0  0  0  0  0  0
   46.4975    6.6223   19.5052 C   0  0  0  0  0  0  0  0  0  0  0  0
   45.9454    7.8761   20.2003 C   0  0  0  0  0  0  0  0  0  0  0  0
   44.4794    7.9578   20.1162 N   0  0  0  0  0  0  0  0  0  0  0  0
  1  2  1  0  0  0  0
  2  3  1  0  0  0  0
  3  4  1  0  0  0  0
  4  5  1  0  0  0  0
  5  6  1  0  0  0  0
  6  7  1  0  0  0  0
  7  8  1  0  0  0  0
  8  9  1  0  0  0  0
  9 10  1  0  0  0  0
 10 11  1  0  0  0  0
 11 12  1  0  0  0  0
 12 13  1  0  0  0  0
 13 14  1  0  0  0  0
M  END
>  <CHROM.1>
-68.89860841,64.79180918,170.47290214,-171.91966583,-71.50385151,-178.30797842
175.73470719,177.53479627,-110.36253239,179.58468962,-67.45651881,46.00576059
2.69861609,17.56029234,-1.40944860,0.89383969,0.51251291

>  <Name>
ligand

>  <RI>
0

>  <Rbt.Current_Directory>
/home/itssahil/PROJECTS/Mol_Feturizer/New_Systems/rnas/1TN2

>  <Rbt.Executable>
rbdock ($Id: //depot/dev/client3/rdock/2013.1/src/exe/rbdock.cxx#4 $)

>  <Rbt.Library>
libRbt.so (2013.1, Build901 2013/11/27)

>  <Rbt.Parameter_File>
/export/apps/rDock/src/rDock_2013.1_src/data/scripts/dock_solv.prm

>  <Rbt.Receptor>
prm/blind_docking_60.prm

>  <SCORE>
-6.24368

>  <SCORE.INTER>
-4.7112

>  <SCORE.INTER.CONST>
1

>  <SCORE.INTER.POLAR>
0

>  <SCORE.INTER.ROT>
11

>  <SCORE.INTER.SOLV>
14.6302

>  <SCORE.INTER.VDW>
-18.9509

>  <SCORE.INTER.norm>
-0.336514

>  <SCORE.INTRA>
-1.53249

>  <SCORE.INTRA.DIHEDRAL>
-5.38335

>  <SCORE.INTRA.DIHEDRAL.0>
7.79482

>  <SCORE.INTRA.POLAR>
0

>  <SCORE.INTRA.POLAR.0>
0

>  <SCORE.INTRA.REPUL>
0

>  <SCORE.INTRA.REPUL.0>
0

>  <SCORE.INTRA.SOLV>
3.81075

>  <SCORE.INTRA.SOLV.lig_0>
-49.456

>  <SCORE.INTRA.VDW>
-0.746187

>  <SCORE.INTRA.VDW.0>
-0.478406

>  <SCORE.INTRA.norm>
-0.109464

>  <SCORE.RESTR>
0

>  <SCORE.RESTR.CAVITY>
0

>  <SCORE.RESTR.norm>
0

>  <SCORE.SYSTEM>
0

>  <SCORE.SYSTEM.CONST>
0

>  <SCORE.SYSTEM.DIHEDRAL>
0

>  <SCORE.SYSTEM.SOLV>
0

>  <SCORE.SYSTEM.norm>
0

>  <SCORE.heavy>
14

>  <SCORE.norm>
-0.445977

>  <RMSD>
4.779

$$$$
ligand
 OpenBabel11021811413D
libRbt.so/2013.1/901 2013/11/27
 14 13  0  0  0  0  0  0  0  0999 V2000
   45.8370    8.6955   19.1215 N   0  0  0  0  0  0  0  0  0  0  0  0
   45.8819    7.5610   20.0692 C   0  0  0  0  0  0  0  0  0  0  0  0
   44.4633    7.0356   20.3782 C   0  0  0  0  0  0  0  0  0  0  0  0
   44.4191    5.8494   21.3554 C   0  0  0  0  0  0  0  0  0  0  0  0
   45.1986    4.6949   20.8301 N   0  0  0  0  0  0  0  0  0  0  0  0
   44.3206    3.8053   20.0273 C   0  0  0  0  0  0  0  0  0  0  0  0
   45.0596    2.7640   19.1209 C   0  0  0  0  0  0  0  0  0  0  0  0
   45.9645    3.4022   18.0281 C   0  0  0  0  0  0  0  0  0  0  0  0
   46.5518    2.4006   17.0531 C   0  0  0  0  0  0  0  0  0  0  0  0
   47.3295    3.1410   16.0777 N   0  0  0  0  0  0  0  0  0  0  0  0
   47.5962    2.2121   14.9934 C   0  0  0  0  0  0  0  0  0  0  0  0
   48.9711    2.4507   14.3802 C   0  0  0  0  0  0  0  0  0  0  0  0
   49.1658    1.4179   13.2597 C   0  0  0  0  0  0  0  0  0  0  0  0
   50.4837    1.5363   12.6180 N   0  0  0  0  0  0  0  0  0  0  0  0
  1  2  1  0  0  0  0
  2  3  1  0  0  0  0
  3  4  1  0  0  0  0
  4  5  1  0  0  0  0
  5  6  1  0  0  0  0
  6  7  1  0  0  0  0
  7  8  1  0  0  0  0
  8  9  1  0  0  0  0
  9 10  1  0  0  0  0
 10 11  1  0  0  0  0
 11 12  1  0  0  0  0
 12 13  1  0  0  0  0
 13 14  1  0  0  0  0
M  END
>  <CHROM.1>
179.83017255,-58.99545757,-90.74700822,165.07214550,-62.01851294,-173.33082270
178.21899171,-166.35350220,-145.05890789,179.43339128,-178.53573904,46.51705609
4.06884726,17.66538495,-2.41545395,-0.90537783,-2.89429504

>  <Name>
ligand

>  <RI>
0

>  <Rbt.Current_Directory>
/home/itssahil/PROJECTS/Mol_Feturizer/New_Systems/rnas/1TN2

>  <Rbt.Executable>
rbdock ($Id: //depot/dev/client3/rdock/2013.1/src/exe/rbdock.cxx#4 $)

>  <Rbt.Library>
libRbt.so (2013.1, Build901 2013/11/27)

>  <Rbt.Parameter_File>
/export/apps/rDock/src/rDock_2013.1_src/data/scripts/dock_solv.prm

>  <Rbt.Receptor>
prm/blind_docking_100.prm

>  <SCORE>
-5.33113

>  <SCORE.INTER>
-1.97902

>  <SCORE.INTER.CONST>
1

>  <SCORE.INTER.POLAR>
0

>  <SCORE.INTER.ROT>
11

>  <SCORE.INTER.SOLV>
10.0342

>  <SCORE.INTER.VDW>
-15.5974

>  <SCORE.INTER.norm>
-0.141359

>  <SCORE.INTRA>
-3.35211

>  <SCORE.INTRA.DIHEDRAL>
-5.87164

>  <SCORE.INTRA.DIHEDRAL.0>
7.79482

>  <SCORE.INTRA.POLAR>
0

>  <SCORE.INTRA.POLAR.0>
0

>  <SCORE.INTRA.REPUL>
0

>  <SCORE.INTRA.REPUL.0>
0

>  <SCORE.INTRA.SOLV>
0.604184

>  <SCORE.INTRA.SOLV.lig_0>
-49.456

>  <SCORE.INTRA.VDW>
-0.718386

>  <SCORE.INTRA.VDW.0>
-0.478406

>  <SCORE.INTRA.norm>
-0.239437

>  <SCORE.RESTR>
0

>  <SCORE.RESTR.CAVITY>
0

>  <SCORE.RESTR.norm>
0

>  <SCORE.SYSTEM>
0

>  <SCORE.SYSTEM.CONST>
0

>  <SCORE.SYSTEM.DIHEDRAL>
0

>  <SCORE.SYSTEM.SOLV>
0

>  <SCORE.SYSTEM.norm>
0

>  <SCORE.heavy>
14

>  <SCORE.norm>
-0.380795

>  <RMSD>
4.781

$$$$
ligand
 OpenBabel11021811413D
libRbt.so/2013.1/901 2013/11/27
 14 13  0  0  0  0  0  0  0  0999 V2000
   44.7837   -2.0515   12.1186 N   0  0  0  0  0  0  0  0  0  0  0  0
   44.0898   -2.5934   13.3069 C   0  0  0  0  0  0  0  0  0  0  0  0
   44.8456   -2.2371   14.6053 C   0  0  0  0  0  0  0  0  0  0  0  0
   44.8495   -0.7394   14.9530 C   0  0  0  0  0  0  0  0  0  0  0  0
   45.6520   -0.4776   16.1793 N   0  0  0  0  0  0  0  0  0  0  0  0
   44.9433    0.4857   17.0606 C   0  0  0  0  0  0  0  0  0  0  0  0
   45.8553    1.5157   17.8087 C   0  0  0  0  0  0  0  0  0  0  0  0
   45.0825    2.4760   18.7580 C   0  0  0  0  0  0  0  0  0  0  0  0
   45.9364    3.5862   19.3387 C   0  0  0  0  0  0  0  0  0  0  0  0
   45.1119    4.3335   20.2693 N   0  0  0  0  0  0  0  0  0  0  0  0
   45.8675    5.5295   20.5987 C   0  0  0  0  0  0  0  0  0  0  0  0
   45.3428    6.7458   19.8446 C   0  0  0  0  0  0  0  0  0  0  0  0
   46.2863    7.9207   20.1438 C   0  0  0  0  0  0  0  0  0  0  0  0
   45.8901    9.1461   19.4337 N   0  0  0  0  0  0  0  0  0  0  0  0
  1  2  1  0  0  0  0
  2  3  1  0  0  0  0
  3  4  1  0  0  0  0
  4  5  1  0  0  0  0
  5  6  1  0  0  0  0
  6  7  1  0  0  0  0
  7  8  1  0  0  0  0
  8  9  1  0  0  0  0
  9 10  1  0  0  0  0
 10 11  1  0  0  0  0
 11 12  1  0  0  0  0
 12 13  1  0  0  0  0
 13 14  1  0  0  0  0
M  END
>  <CHROM.1>
67.32597086,-177.28835611,-137.00377308,-142.76919939,-178.04918499,-172.33696387
-175.93206885,-169.00159871,102.19589816,-174.29587234,178.52791333,45.32403706
2.40272910,17.45869455,2.83306744,1.46742032,2.48287851

>  <Name>
ligand

>  <RI>
0

>  <Rbt.Current_Directory>
/home/itssahil/PROJECTS/Mol_Feturizer/New_Systems/rnas/1TN2

>  <Rbt.Executable>
rbdock ($Id: //depot/dev/client3/rdock/2013.1/src/exe/rbdock.cxx#4 $)

>  <Rbt.Library>
libRbt.so (2013.1, Build901 2013/11/27)

>  <Rbt.Parameter_File>
/export/apps/rDock/src/rDock_2013.1_src/data/scripts/dock_solv.prm

>  <Rbt.Receptor>
prm/blind_docking_80.prm

>  <SCORE>
-10.0153

>  <SCORE.INTER>
-7.60782

>  <SCORE.INTER.CONST>
1

>  <SCORE.INTER.POLAR>
0

>  <SCORE.INTER.ROT>
11

>  <SCORE.INTER.SOLV>
12.1459

>  <SCORE.INTER.VDW>
-20.0538

>  <SCORE.INTER.norm>
-0.543416

>  <SCORE.INTRA>
-2.40748

>  <SCORE.INTRA.DIHEDRAL>
-4.26263

>  <SCORE.INTRA.DIHEDRAL.0>
7.79482

>  <SCORE.INTRA.POLAR>
0

>  <SCORE.INTRA.POLAR.0>
0

>  <SCORE.INTRA.REPUL>
0

>  <SCORE.INTRA.REPUL.0>
0

>  <SCORE.INTRA.SOLV>
0.6029

>  <SCORE.INTRA.SOLV.lig_0>
-49.456

>  <SCORE.INTRA.VDW>
-0.577619

>  <SCORE.INTRA.VDW.0>
-0.478406

>  <SCORE.INTRA.norm>
-0.171963

>  <SCORE.RESTR>
0

>  <SCORE.RESTR.CAVITY>
0

>  <SCORE.RESTR.norm>
0

>  <SCORE.SYSTEM>
0

>  <SCORE.SYSTEM.CONST>
0

>  <SCORE.SYSTEM.DIHEDRAL>
0

>  <SCORE.SYSTEM.SOLV>
0

>  <SCORE.SYSTEM.norm>
0

>  <SCORE.heavy>
14

>  <SCORE.norm>
-0.715379

>  <RMSD>
4.826

$$$$
ligand
 OpenBabel11021811413D
libRbt.so/2013.1/901 2013/11/27
 14 13  0  0  0  0  0  0  0  0999 V2000
   45.9574    8.6016   19.2400 N   0  0  0  0  0  0  0  0  0  0  0  0
   46.3655    7.3470   19.9082 C   0  0  0  0  0  0  0  0  0  0  0  0
   45.1589    6.4056   20.1125 C   0  0  0  0  0  0  0  0  0  0  0  0
   45.5059    5.0494   20.7485 C   0  0  0  0  0  0  0  0  0  0  0  0
   46.3925    4.2523   19.8568 N   0  0  0  0  0  0  0  0  0  0  0  0
   45.5982    3.2395   19.1153 C   0  0  0  0  0  0  0  0  0  0  0  0
   46.4290    2.1425   18.3679 C   0  0  0  0  0  0  0  0  0  0  0  0
   45.5630    1.0465   17.6830 C   0  0  0  0  0  0  0  0  0  0  0  0
   44.7015    1.5632   16.5473 C   0  0  0  0  0  0  0  0  0  0  0  0
   44.2145    0.4145   15.8074 N   0  0  0  0  0  0  0  0  0  0  0  0
   45.0110    0.3557   14.5942 C   0  0  0  0  0  0  0  0  0  0  0  0
   44.3466   -0.5131   13.5325 C   0  0  0  0  0  0  0  0  0  0  0  0
   44.4038   -1.9686   14.0204 C   0  0  0  0  0  0  0  0  0  0  0  0
   43.8601   -2.9087   13.0288 N   0  0  0  0  0  0  0  0  0  0  0  0
  1  2  1  0  0  0  0
  2  3  1  0  0  0  0
  3  4  1  0  0  0  0
  4  5  1  0  0  0  0
  5  6  1  0  0  0  0
  6  7  1  0  0  0  0
  7  8  1  0  0  0  0
  8  9  1  0  0  0  0
  9 10  1  0  0  0  0
 10 11  1  0  0  0  0
 11 12  1  0  0  0  0
 12 13  1  0  0  0  0
 13 14  1  0  0  0  0
M  END
>  <CHROM.1>
177.52173686,-64.33690235,-99.87062274,-167.92823940,176.11730762,65.31394831
166.34938172,-103.71504159,-162.30547294,-69.04660085,-176.50787326,45.25063819
2.50191669,17.32603474,0.94131370,-1.29800540,0.03623328

>  <Name>
ligand

>  <RI>
0

>  <Rbt.Current_Directory>
/home/itssahil/PROJECTS/Mol_Feturizer/New_Systems/rnas/1TN2

>  <Rbt.Executable>
rbdock ($Id: //depot/dev/client3/rdock/2013.1/src/exe/rbdock.cxx#4 $)

>  <Rbt.Library>
libRbt.so (2013.1, Build901 2013/11/27)

>  <Rbt.Parameter_File>
/export/apps/rDock/src/rDock_2013.1_src/data/scripts/dock_solv.prm

>  <Rbt.Receptor>
prm/blind_docking_80.prm

>  <SCORE>
-9.02897

>  <SCORE.INTER>
-7.21983

>  <SCORE.INTER.CONST>
1

>  <SCORE.INTER.POLAR>
0

>  <SCORE.INTER.ROT>
11

>  <SCORE.INTER.SOLV>
15.3026

>  <SCORE.INTER.VDW>
-20.8474

>  <SCORE.INTER.norm>
-0.515702

>  <SCORE.INTRA>
-1.80913

>  <SCORE.INTRA.DIHEDRAL>
-4.25408

>  <SCORE.INTRA.DIHEDRAL.0>
7.79482

>  <SCORE.INTRA.POLAR>
0

>  <SCORE.INTRA.POLAR.0>
0

>  <SCORE.INTRA.REPUL>
0

>  <SCORE.INTRA.REPUL.0>
0

>  <SCORE.INTRA.SOLV>
0.734026

>  <SCORE.INTRA.SOLV.lig_0>
-49.456

>  <SCORE.INTRA.VDW>
-0.0491087

>  <SCORE.INTRA.VDW.0>
-0.478406

>  <SCORE.INTRA.norm>
-0.129224

>  <SCORE.RESTR>
0

>  <SCORE.RESTR.CAVITY>
0

>  <SCORE.RESTR.norm>
0

>  <SCORE.SYSTEM>
0

>  <SCORE.SYSTEM.CONST>
0

>  <SCORE.SYSTEM.DIHEDRAL>
0

>  <SCORE.SYSTEM.SOLV>
0

>  <SCORE.SYSTEM.norm>
0

>  <SCORE.heavy>
14

>  <SCORE.norm>
-0.644926

>  <RMSD>
4.835

$$$$
ligand
 OpenBabel11021811413D
libRbt.so/2013.1/901 2013/11/27
 14 13  0  0  0  0  0  0  0  0999 V2000
   45.5751    8.4930   19.6539 N   0  0  0  0  0  0  0  0  0  0  0  0
   45.0710    7.1154   19.8415 C   0  0  0  0  0  0  0  0  0  0  0  0
   46.2136    6.1505   20.2257 C   0  0  0  0  0  0  0  0  0  0  0  0
   45.7990    4.6729   20.3195 C   0  0  0  0  0  0  0  0  0  0  0  0
   45.3730    4.1521   18.9915 N   0  0  0  0  0  0  0  0  0  0  0  0
   44.6412    2.8695   19.1537 C   0  0  0  0  0  0  0  0  0  0  0  0
   45.4977    1.5728   18.9610 C   0  0  0  0  0  0  0  0  0  0  0  0
   45.8912    1.2851   17.4836 C   0  0  0  0  0  0  0  0  0  0  0  0
   44.7208    0.9048   16.5978 C   0  0  0  0  0  0  0  0  0  0  0  0
   45.2587    0.4591   15.3264 N   0  0  0  0  0  0  0  0  0  0  0  0
   45.2959   -0.9912   15.3964 C   0  0  0  0  0  0  0  0  0  0  0  0
   45.6842   -1.6044   14.0561 C   0  0  0  0  0  0  0  0  0  0  0  0
   47.1705   -1.2975   13.8179 C   0  0  0  0  0  0  0  0  0  0  0  0
   47.4045    0.1251   13.5277 N   0  0  0  0  0  0  0  0  0  0  0  0
  1  2  1  0  0  0  0
  2  3  1  0  0  0  0
  3  4  1  0  0  0  0
  4  5  1  0  0  0  0
  5  6  1  0  0  0  0
  6  7  1  0  0  0  0
  7  8  1  0  0  0  0
  8  9  1  0  0  0  0
  9 10  1  0  0  0  0
 10 11  1  0  0  0  0
 11 12  1  0  0  0  0
 12 13  1  0  0  0  0
 13 14  1  0  0  0  0
M  END
>  <CHROM.1>
-174.88504934,64.56624178,-164.79165336,-96.34903320,-72.68355808,-68.31433943
-170.87132918,97.49951629,173.06416859,70.72175470,-70.85624543,45.68536365
2.42157051,17.38254728,-1.72199389,-1.08984296,-2.62778030

>  <Name>
ligand

>  <RI>
0

>  <Rbt.Current_Directory>
/home/itssahil/PROJECTS/Mol_Feturizer/New_Systems/rnas/1TN2

>  <Rbt.Executable>
rbdock ($Id: //depot/dev/client3/rdock/2013.1/src/exe/rbdock.cxx#4 $)

>  <Rbt.Library>
libRbt.so (2013.1, Build901 2013/11/27)

>  <Rbt.Parameter_File>
/export/apps/rDock/src/rDock_2013.1_src/data/scripts/dock_solv.prm

>  <Rbt.Receptor>
prm/blind_docking_80.prm

>  <SCORE>
-4.58582

>  <SCORE.INTER>
-4.55959

>  <SCORE.INTER.CONST>
1

>  <SCORE.INTER.POLAR>
0

>  <SCORE.INTER.ROT>
11

>  <SCORE.INTER.SOLV>
10.5544

>  <SCORE.INTER.VDW>
-17.4912

>  <SCORE.INTER.norm>
-0.325685

>  <SCORE.INTRA>
-0.0262237

>  <SCORE.INTRA.DIHEDRAL>
-3.73403

>  <SCORE.INTRA.DIHEDRAL.0>
7.79482

>  <SCORE.INTRA.POLAR>
0

>  <SCORE.INTRA.POLAR.0>
0

>  <SCORE.INTRA.REPUL>
0

>  <SCORE.INTRA.REPUL.0>
0

>  <SCORE.INTRA.SOLV>
3.93547

>  <SCORE.INTRA.SOLV.lig_0>
-49.456

>  <SCORE.INTRA.VDW>
-0.126945

>  <SCORE.INTRA.VDW.0>
-0.478406

>  <SCORE.INTRA.norm>
-0.00187312

>  <SCORE.RESTR>
0

>  <SCORE.RESTR.CAVITY>
0

>  <SCORE.RESTR.norm>
0

>  <SCORE.SYSTEM>
0

>  <SCORE.SYSTEM.CONST>
0

>  <SCORE.SYSTEM.DIHEDRAL>
0

>  <SCORE.SYSTEM.SOLV>
0

>  <SCORE.SYSTEM.norm>
0

>  <SCORE.heavy>
14

>  <SCORE.norm>
-0.327558

>  <RMSD>
4.943

$$$$
ligand
 OpenBabel11021811413D
libRbt.so/2013.1/901 2013/11/27
 14 13  0  0  0  0  0  0  0  0999 V2000
   44.4814   -3.5140   12.2768 N   0  0  0  0  0  0  0  0  0  0  0  0
   44.0604   -2.3121   13.0286 C   0  0  0  0  0  0  0  0  0  0  0  0
   45.0534   -1.9890   14.1659 C   0  0  0  0  0  0  0  0  0  0  0  0
   44.7213   -0.7171   14.9634 C   0  0  0  0  0  0  0  0  0  0  0  0
   45.7006   -0.5058   16.0646 N   0  0  0  0  0  0  0  0  0  0  0  0
   45.0763    0.2741   17.1641 C   0  0  0  0  0  0  0  0  0  0  0  0
   45.9428    1.4445   17.7401 C   0  0  0  0  0  0  0  0  0  0  0  0
   45.2505    2.2457   18.8799 C   0  0  0  0  0  0  0  0  0  0  0  0
   45.9919    3.5047   19.2853 C   0  0  0  0  0  0  0  0  0  0  0  0
   45.2315    4.1405   20.3445 N   0  0  0  0  0  0  0  0  0  0  0  0
   45.9307    5.3766   20.6494 C   0  0  0  0  0  0  0  0  0  0  0  0
   45.3775    6.5442   19.8408 C   0  0  0  0  0  0  0  0  0  0  0  0
   46.1951    7.7921   20.2073 C   0  0  0  0  0  0  0  0  0  0  0  0
   45.7747    8.9760   19.4429 N   0  0  0  0  0  0  0  0  0  0  0  0
  1  2  1  0  0  0  0
  2  3  1  0  0  0  0
  3  4  1  0  0  0  0
  4  5  1  0  0  0  0
  5  6  1  0  0  0  0
  6  7  1  0  0  0  0
  7  8  1  0  0  0  0
  8  9  1  0  0  0  0
  9 10  1  0  0  0  0
 10 11  1  0  0  0  0
 11 12  1  0  0  0  0
 12 13  1  0  0  0  0
 13 14  1  0  0  0  0
M  END
>  <CHROM.1>
177.59032325,178.13340757,-153.65865863,-134.46474441,179.45920147,-170.87755310
179.85418610,-176.78919527,92.45551726,-178.79220456,177.91420656,45.34201941
2.23286546,17.43256895,2.20578358,1.40117585,3.12599413

>  <Name>
ligand

>  <RI>
0

>  <Rbt.Current_Directory>
/home/itssahil/PROJECTS/Mol_Feturizer/New_Systems/rnas/1TN2

>  <Rbt.Executable>
rbdock ($Id: //depot/dev/client3/rdock/2013.1/src/exe/rbdock.cxx#4 $)

>  <Rbt.Library>
libRbt.so (2013.1, Build901 2013/11/27)

>  <Rbt.Parameter_File>
/export/apps/rDock/src/rDock_2013.1_src/data/scripts/dock_solv.prm

>  <Rbt.Receptor>
prm/pocket_docking_6.prm

>  <SCORE>
-10.5616

>  <SCORE.INTER>
-7.54489

>  <SCORE.INTER.CONST>
1

>  <SCORE.INTER.POLAR>
0

>  <SCORE.INTER.ROT>
11

>  <SCORE.INTER.SOLV>
12.4384

>  <SCORE.INTER.VDW>
-20.1094

>  <SCORE.INTER.norm>
-0.538921

>  <SCORE.INTRA>
-3.01669

>  <SCORE.INTRA.DIHEDRAL>
-5.18694

>  <SCORE.INTRA.DIHEDRAL.0>
7.79482

>  <SCORE.INTRA.POLAR>
0

>  <SCORE.INTRA.POLAR.0>
0

>  <SCORE.INTRA.REPUL>
0

>  <SCORE.INTRA.REPUL.0>
0

>  <SCORE.INTRA.SOLV>
-0.0548995

>  <SCORE.INTRA.SOLV.lig_0>
-49.456

>  <SCORE.INTRA.VDW>
-0.395772

>  <SCORE.INTRA.VDW.0>
-0.478406

>  <SCORE.INTRA.norm>
-0.215478

>  <SCORE.RESTR>
0

>  <SCORE.RESTR.CAVITY>
0

>  <SCORE.RESTR.norm>
0

>  <SCORE.SYSTEM>
0

>  <SCORE.SYSTEM.CONST>
0

>  <SCORE.SYSTEM.DIHEDRAL>
0

>  <SCORE.SYSTEM.SOLV>
0

>  <SCORE.SYSTEM.norm>
0

>  <SCORE.heavy>
14

>  <SCORE.norm>
-0.754399

>  <RMSD>
4.955

$$$$
ligand
 OpenBabel11021811413D
libRbt.so/2013.1/901 2013/11/27
 14 13  0  0  0  0  0  0  0  0999 V2000
   46.0160    8.7041   19.1922 N   0  0  0  0  0  0  0  0  0  0  0  0
   46.1786    7.5388   20.0883 C   0  0  0  0  0  0  0  0  0  0  0  0
   46.1548    6.2156   19.2930 C   0  0  0  0  0  0  0  0  0  0  0  0
   46.2769    4.9485   20.1552 C   0  0  0  0  0  0  0  0  0  0  0  0
   46.3311    3.7272   19.3056 N   0  0  0  0  0  0  0  0  0  0  0  0
   44.9599    3.2105   19.0614 C   0  0  0  0  0  0  0  0  0  0  0  0
   44.8205    1.6511   19.0272 C   0  0  0  0  0  0  0  0  0  0  0  0
   45.5201    0.9774   17.8119 C   0  0  0  0  0  0  0  0  0  0  0  0
   44.8037    1.1917   16.4928 C   0  0  0  0  0  0  0  0  0  0  0  0
   45.4317    0.3325   15.5071 N   0  0  0  0  0  0  0  0  0  0  0  0
   44.6334    0.4612   14.3005 C   0  0  0  0  0  0  0  0  0  0  0  0
   44.9825   -0.6186   13.2830 C   0  0  0  0  0  0  0  0  0  0  0  0
   44.5200   -1.9660   13.8580 C   0  0  0  0  0  0  0  0  0  0  0  0
   44.8415   -3.0903   12.9662 N   0  0  0  0  0  0  0  0  0  0  0  0
  1  2  1  0  0  0  0
  2  3  1  0  0  0  0
  3  4  1  0  0  0  0
  4  5  1  0  0  0  0
  5  6  1  0  0  0  0
  6  7  1  0  0  0  0
  7  8  1  0  0  0  0
  8  9  1  0  0  0  0
  9 10  1  0  0  0  0
 10 11  1  0  0  0  0
 11 12  1  0  0  0  0
 12 13  1  0  0  0  0
 13 14  1  0  0  0  0
M  END
>  <CHROM.1>
-178.30163531,-176.44975590,-89.81038525,-143.10547937,-67.70250691,-72.89146443
-170.51436432,174.20537099,-167.01020865,67.89171854,-178.51239774,45.39065799
2.37739491,17.16749663,-0.22203820,-1.44037066,-1.16393520

>  <Name>
ligand

>  <RI>
0

>  <Rbt.Current_Directory>
/home/itssahil/PROJECTS/Mol_Feturizer/New_Systems/rnas/1TN2

>  <Rbt.Executable>
rbdock ($Id: //depot/dev/client3/rdock/2013.1/src/exe/rbdock.cxx#4 $)

>  <Rbt.Library>
libRbt.so (2013.1, Build901 2013/11/27)

>  <Rbt.Parameter_File>
/export/apps/rDock/src/rDock_2013.1_src/data/scripts/dock_solv.prm

>  <Rbt.Receptor>
prm/pocket_docking_5.prm

>  <SCORE>
-7.24188

>  <SCORE.INTER>
-4.96075

>  <SCORE.INTER.CONST>
1

>  <SCORE.INTER.POLAR>
0

>  <SCORE.INTER.ROT>
11

>  <SCORE.INTER.SOLV>
13.0762

>  <SCORE.INTER.VDW>
-18.5992

>  <SCORE.INTER.norm>
-0.354339

>  <SCORE.INTRA>
-2.28113

>  <SCORE.INTRA.DIHEDRAL>
-4.70288

>  <SCORE.INTRA.DIHEDRAL.0>
7.79482

>  <SCORE.INTRA.POLAR>
0

>  <SCORE.INTRA.POLAR.0>
0

>  <SCORE.INTRA.REPUL>
0

>  <SCORE.INTRA.REPUL.0>
0

>  <SCORE.INTRA.SOLV>
0.903322

>  <SCORE.INTRA.SOLV.lig_0>
-49.456

>  <SCORE.INTRA.VDW>
-0.381348

>  <SCORE.INTRA.VDW.0>
-0.478406

>  <SCORE.INTRA.norm>
-0.162938

>  <SCORE.RESTR>
0

>  <SCORE.RESTR.CAVITY>
0

>  <SCORE.RESTR.norm>
0

>  <SCORE.SYSTEM>
0

>  <SCORE.SYSTEM.CONST>
0

>  <SCORE.SYSTEM.DIHEDRAL>
0

>  <SCORE.SYSTEM.SOLV>
0

>  <SCORE.SYSTEM.norm>
0

>  <SCORE.heavy>
14

>  <SCORE.norm>
-0.517277

>  <RMSD>
4.959

$$$$
ligand
 OpenBabel11021811413D
libRbt.so/2013.1/901 2013/11/27
 14 13  0  0  0  0  0  0  0  0999 V2000
   44.6344    8.5639   19.8481 N   0  0  0  0  0  0  0  0  0  0  0  0
   44.6026    7.2405   20.5074 C   0  0  0  0  0  0  0  0  0  0  0  0
   45.9478    6.5012   20.3399 C   0  0  0  0  0  0  0  0  0  0  0  0
   45.9876    5.0961   20.9628 C   0  0  0  0  0  0  0  0  0  0  0  0
   45.0208    4.1857   20.2900 N   0  0  0  0  0  0  0  0  0  0  0  0
   45.6624    3.5269   19.1233 C   0  0  0  0  0  0  0  0  0  0  0  0
   45.1677    2.0747   18.8096 C   0  0  0  0  0  0  0  0  0  0  0  0
   45.7556    1.4722   17.5013 C   0  0  0  0  0  0  0  0  0  0  0  0
   45.2949    0.0565   17.2142 C   0  0  0  0  0  0  0  0  0  0  0  0
   45.8232   -0.3230   15.9176 N   0  0  0  0  0  0  0  0  0  0  0  0
   45.5999   -1.7534   15.8000 C   0  0  0  0  0  0  0  0  0  0  0  0
   44.8456   -2.0968   14.5208 C   0  0  0  0  0  0  0  0  0  0  0  0
   45.7650   -1.7646   13.3358 C   0  0  0  0  0  0  0  0  0  0  0  0
   45.1214   -2.0330   12.0410 N   0  0  0  0  0  0  0  0  0  0  0  0
  1  2  1  0  0  0  0
  2  3  1  0  0  0  0
  3  4  1  0  0  0  0
  4  5  1  0  0  0  0
  5  6  1  0  0  0  0
  6  7  1  0  0  0  0
  7  8  1  0  0  0  0
  8  9  1  0  0  0  0
  9 10  1  0  0  0  0
 10 11  1  0  0  0  0
 11 12  1  0  0  0  0
 12 13  1  0  0  0  0
 13 14  1  0  0  0  0
M  END
>  <CHROM.1>
-178.32962195,63.89909633,88.31154093,147.47500170,174.18671555,178.91332189
175.00919732,168.62638748,126.20352844,66.53264096,-178.78735603,45.37357768
2.19603753,17.58677247,1.65780363,-1.37774812,0.73344506

>  <Name>
ligand

>  <RI>
0

>  <Rbt.Current_Directory>
/home/itssahil/PROJECTS/Mol_Feturizer/New_Systems/rnas/1TN2

>  <Rbt.Executable>
rbdock ($Id: //depot/dev/client3/rdock/2013.1/src/exe/rbdock.cxx#4 $)

>  <Rbt.Library>
libRbt.so (2013.1, Build901 2013/11/27)

>  <Rbt.Parameter_File>
/export/apps/rDock/src/rDock_2013.1_src/data/scripts/dock_solv.prm

>  <Rbt.Receptor>
prm/blind_docking_60.prm

>  <SCORE>
-9.78285

>  <SCORE.INTER>
-7.35643

>  <SCORE.INTER.CONST>
1

>  <SCORE.INTER.POLAR>
0

>  <SCORE.INTER.ROT>
11

>  <SCORE.INTER.SOLV>
12.952

>  <SCORE.INTER.VDW>
-20.155

>  <SCORE.INTER.norm>
-0.525459

>  <SCORE.INTRA>
-2.42642

>  <SCORE.INTRA.DIHEDRAL>
-4.83795

>  <SCORE.INTRA.DIHEDRAL.0>
7.79482

>  <SCORE.INTRA.POLAR>
0

>  <SCORE.INTRA.POLAR.0>
0

>  <SCORE.INTRA.REPUL>
0

>  <SCORE.INTRA.REPUL.0>
0

>  <SCORE.INTRA.SOLV>
0.700552

>  <SCORE.INTRA.SOLV.lig_0>
-49.456

>  <SCORE.INTRA.VDW>
-0.357725

>  <SCORE.INTRA.VDW.0>
-0.478406

>  <SCORE.INTRA.norm>
-0.173316

>  <SCORE.RESTR>
0

>  <SCORE.RESTR.CAVITY>
0

>  <SCORE.RESTR.norm>
0

>  <SCORE.SYSTEM>
0

>  <SCORE.SYSTEM.CONST>
0

>  <SCORE.SYSTEM.DIHEDRAL>
0

>  <SCORE.SYSTEM.SOLV>
0

>  <SCORE.SYSTEM.norm>
0

>  <SCORE.heavy>
14

>  <SCORE.norm>
-0.698775

>  <RMSD>
4.964

$$$$
ligand
 OpenBabel11021811413D
libRbt.so/2013.1/901 2013/11/27
 14 13  0  0  0  0  0  0  0  0999 V2000
   44.5308   -2.9860   12.0953 N   0  0  0  0  0  0  0  0  0  0  0  0
   45.2499   -2.1503   13.0810 C   0  0  0  0  0  0  0  0  0  0  0  0
   44.7291   -2.4028   14.5124 C   0  0  0  0  0  0  0  0  0  0  0  0
   45.4556   -1.6051   15.6077 C   0  0  0  0  0  0  0  0  0  0  0  0
   45.3036   -0.1399   15.3916 N   0  0  0  0  0  0  0  0  0  0  0  0
   44.7917    0.5106   16.6251 C   0  0  0  0  0  0  0  0  0  0  0  0
   45.8240    1.3956   17.4017 C   0  0  0  0  0  0  0  0  0  0  0  0
   45.1854    2.3198   18.4780 C   0  0  0  0  0  0  0  0  0  0  0  0
   46.1504    3.3232   19.0788 C   0  0  0  0  0  0  0  0  0  0  0  0
   45.3833    4.2197   19.9227 N   0  0  0  0  0  0  0  0  0  0  0  0
   46.0511    5.5072   19.8462 C   0  0  0  0  0  0  0  0  0  0  0  0
   45.2831    6.5801   20.6094 C   0  0  0  0  0  0  0  0  0  0  0  0
   46.0510    7.9013   20.4530 C   0  0  0  0  0  0  0  0  0  0  0  0
   46.0366    8.3916   19.0666 N   0  0  0  0  0  0  0  0  0  0  0  0
  1  2  1  0  0  0  0
  2  3  1  0  0  0  0
  3  4  1  0  0  0  0
  4  5  1  0  0  0  0
  5  6  1  0  0  0  0
  6  7  1  0  0  0  0
  7  8  1  0  0  0  0
  8  9  1  0  0  0  0
  9 10  1  0  0  0  0
 10 11  1  0  0  0  0
 11 12  1  0  0  0  0
 12 13  1  0  0  0  0
 13 14  1  0  0  0  0
M  END
>  <CHROM.1>
178.13220955,61.07271859,127.39371252,108.43140031,166.24497849,-171.16849361
172.59557434,-147.77765993,175.64630060,-179.15139722,66.86602449,45.43043689
2.20458335,17.29810293,-2.91771158,1.48801994,1.95524531

>  <Name>
ligand

>  <RI>
0

>  <Rbt.Current_Directory>
/home/itssahil/PROJECTS/Mol_Feturizer/New_Systems/rnas/1TN2

>  <Rbt.Executable>
rbdock ($Id: //depot/dev/client3/rdock/2013.1/src/exe/rbdock.cxx#4 $)

>  <Rbt.Library>
libRbt.so (2013.1, Build901 2013/11/27)

>  <Rbt.Parameter_File>
/export/apps/rDock/src/rDock_2013.1_src/data/scripts/dock_solv.prm

>  <Rbt.Receptor>
prm/blind_docking_80.prm

>  <SCORE>
-8.69017

>  <SCORE.INTER>
-6.90433

>  <SCORE.INTER.CONST>
1

>  <SCORE.INTER.POLAR>
0

>  <SCORE.INTER.ROT>
11

>  <SCORE.INTER.SOLV>
10.2587

>  <SCORE.INTER.VDW>
-18.9558

>  <SCORE.INTER.norm>
-0.493166

>  <SCORE.INTRA>
-1.78584

>  <SCORE.INTRA.DIHEDRAL>
-3.45247

>  <SCORE.INTRA.DIHEDRAL.0>
7.79482

>  <SCORE.INTRA.POLAR>
0

>  <SCORE.INTRA.POLAR.0>
0

>  <SCORE.INTRA.REPUL>
0

>  <SCORE.INTRA.REPUL.0>
0

>  <SCORE.INTRA.SOLV>
1.07965

>  <SCORE.INTRA.SOLV.lig_0>
-49.456

>  <SCORE.INTRA.VDW>
-0.599434

>  <SCORE.INTRA.VDW.0>
-0.478406

>  <SCORE.INTRA.norm>
-0.12756

>  <SCORE.RESTR>
0

>  <SCORE.RESTR.CAVITY>
0

>  <SCORE.RESTR.norm>
0

>  <SCORE.SYSTEM>
0

>  <SCORE.SYSTEM.CONST>
0

>  <SCORE.SYSTEM.DIHEDRAL>
0

>  <SCORE.SYSTEM.SOLV>
0

>  <SCORE.SYSTEM.norm>
0

>  <SCORE.heavy>
14

>  <SCORE.norm>
-0.620727

>  <RMSD>
4.975

$$$$
ligand
 OpenBabel11021811413D
libRbt.so/2013.1/901 2013/11/27
 14 13  0  0  0  0  0  0  0  0999 V2000
   45.6870    8.5602   19.3201 N   0  0  0  0  0  0  0  0  0  0  0  0
   46.0176    7.4404   20.2278 C   0  0  0  0  0  0  0  0  0  0  0  0
   45.4081    6.1145   19.7233 C   0  0  0  0  0  0  0  0  0  0  0  0
   45.7184    4.8921   20.6028 C   0  0  0  0  0  0  0  0  0  0  0  0
   45.3338    3.6284   19.9161 N   0  0  0  0  0  0  0  0  0  0  0  0
   46.3574    3.2622   18.9037 C   0  0  0  0  0  0  0  0  0  0  0  0
   46.2897    1.7898   18.3749 C   0  0  0  0  0  0  0  0  0  0  0  0
   44.9505    1.4290   17.6703 C   0  0  0  0  0  0  0  0  0  0  0  0
   44.9139    0.0247   17.0998 C   0  0  0  0  0  0  0  0  0  0  0  0
   45.7993   -0.0061   15.9511 N   0  0  0  0  0  0  0  0  0  0  0  0
   45.5947   -1.3009   15.3255 C   0  0  0  0  0  0  0  0  0  0  0  0
   44.4094   -1.2763   14.3674 C   0  0  0  0  0  0  0  0  0  0  0  0
   44.1796   -2.7134   13.8755 C   0  0  0  0  0  0  0  0  0  0  0  0
   45.2679   -3.1833   13.0051 N   0  0  0  0  0  0  0  0  0  0  0  0
  1  2  1  0  0  0  0
  2  3  1  0  0  0  0
  3  4  1  0  0  0  0
  4  5  1  0  0  0  0
  5  6  1  0  0  0  0
  6  7  1  0  0  0  0
  7  8  1  0  0  0  0
  8  9  1  0  0  0  0
  9 10  1  0  0  0  0
 10 11  1  0  0  0  0
 11 12  1  0  0  0  0
 12 13  1  0  0  0  0
 13 14  1  0  0  0  0
M  END
>  <CHROM.1>
179.31933394,-168.69265530,78.21836394,164.56519919,60.63305017,177.16364791
-70.91672457,-172.21356074,85.03415839,-174.00583916,-68.53921946,45.42335376
2.04716408,17.45469171,1.12557738,-1.37938107,0.14390108

>  <Name>
ligand

>  <RI>
0

>  <Rbt.Current_Directory>
/home/itssahil/PROJECTS/Mol_Feturizer/New_Systems/rnas/1TN2

>  <Rbt.Executable>
rbdock ($Id: //depot/dev/client3/rdock/2013.1/src/exe/rbdock.cxx#4 $)

>  <Rbt.Library>
libRbt.so (2013.1, Build901 2013/11/27)

>  <Rbt.Parameter_File>
/export/apps/rDock/src/rDock_2013.1_src/data/scripts/dock_solv.prm

>  <Rbt.Receptor>
prm/blind_docking_60.prm

>  <SCORE>
-9.22666

>  <SCORE.INTER>
-7.62369

>  <SCORE.INTER.CONST>
1

>  <SCORE.INTER.POLAR>
0

>  <SCORE.INTER.ROT>
11

>  <SCORE.INTER.SOLV>
12.8875

>  <SCORE.INTER.VDW>
-20.3116

>  <SCORE.INTER.norm>
-0.544549

>  <SCORE.INTRA>
-1.60298

>  <SCORE.INTRA.DIHEDRAL>
-5.50991

>  <SCORE.INTRA.DIHEDRAL.0>
7.79482

>  <SCORE.INTRA.POLAR>
0

>  <SCORE.INTRA.POLAR.0>
0

>  <SCORE.INTRA.REPUL>
0

>  <SCORE.INTRA.REPUL.0>
0

>  <SCORE.INTRA.SOLV>
1.38417

>  <SCORE.INTRA.SOLV.lig_0>
-49.456

>  <SCORE.INTRA.VDW>
0.45989

>  <SCORE.INTRA.VDW.0>
-0.478406

>  <SCORE.INTRA.norm>
-0.114498

>  <SCORE.RESTR>
0

>  <SCORE.RESTR.CAVITY>
0

>  <SCORE.RESTR.norm>
0

>  <SCORE.SYSTEM>
0

>  <SCORE.SYSTEM.CONST>
0

>  <SCORE.SYSTEM.DIHEDRAL>
0

>  <SCORE.SYSTEM.SOLV>
0

>  <SCORE.SYSTEM.norm>
0

>  <SCORE.heavy>
14

>  <SCORE.norm>
-0.659047

>  <RMSD>
4.983

$$$$
ligand
 OpenBabel11021811413D
libRbt.so/2013.1/901 2013/11/27
 14 13  0  0  0  0  0  0  0  0999 V2000
   42.6207   14.9057   16.9609 N   0  0  0  0  0  0  0  0  0  0  0  0
   41.7567   13.7896   17.4024 C   0  0  0  0  0  0  0  0  0  0  0  0
   42.5917   12.5317   17.7259 C   0  0  0  0  0  0  0  0  0  0  0  0
   41.7745   11.3372   18.2448 C   0  0  0  0  0  0  0  0  0  0  0  0
   42.6673   10.2384   18.7050 N   0  0  0  0  0  0  0  0  0  0  0  0
   41.8700    9.1684   19.3578 C   0  0  0  0  0  0  0  0  0  0  0  0
   42.6983    8.0423   20.0636 C   0  0  0  0  0  0  0  0  0  0  0  0
   41.8295    6.9258   20.7109 C   0  0  0  0  0  0  0  0  0  0  0  0
   42.6258    5.9089   21.5050 C   0  0  0  0  0  0  0  0  0  0  0  0
   43.5613    5.2756   20.5950 N   0  0  0  0  0  0  0  0  0  0  0  0
   44.8329    5.2353   21.2957 C   0  0  0  0  0  0  0  0  0  0  0  0
   45.9754    4.8657   20.3569 C   0  0  0  0  0  0  0  0  0  0  0  0
   46.1011    5.9866   19.3140 C   0  0  0  0  0  0  0  0  0  0  0  0
   46.4524    7.2773   19.9253 N   0  0  0  0  0  0  0  0  0  0  0  0
  1  2  1  0  0  0  0
  2  3  1  0  0  0  0
  3  4  1  0  0  0  0
  4  5  1  0  0  0  0
  5  6  1  0  0  0  0
  6  7  1  0  0  0  0
  7  8  1  0  0  0  0
  8  9  1  0  0  0  0
  9 10  1  0  0  0  0
 10 11  1  0  0  0  0
 11 12  1  0  0  0  0
 12 13  1  0  0  0  0
 13 14  1  0  0  0  0
M  END
>  <CHROM.1>
177.79428212,-172.27349164,172.90170148,-171.97515200,-178.85573442,-174.49674628
-60.35459518,135.00320563,-167.95922077,64.14578650,62.75319123,43.38251823
8.67745447,19.44038084,-1.87708249,-0.23683040,2.68869406

>  <Name>
ligand

>  <RI>
0

>  <Rbt.Current_Directory>
/home/itssahil/PROJECTS/Mol_Feturizer/New_Systems/rnas/1TN2

>  <Rbt.Executable>
rbdock ($Id: //depot/dev/client3/rdock/2013.1/src/exe/rbdock.cxx#4 $)

>  <Rbt.Library>
libRbt.so (2013.1, Build901 2013/11/27)

>  <Rbt.Parameter_File>
/export/apps/rDock/src/rDock_2013.1_src/data/scripts/dock_solv.prm

>  <Rbt.Receptor>
prm/pocket_docking_7.prm

>  <SCORE>
-12.6652

>  <SCORE.INTER>
-10.4982

>  <SCORE.INTER.CONST>
1

>  <SCORE.INTER.POLAR>
0

>  <SCORE.INTER.ROT>
11

>  <SCORE.INTER.SOLV>
15.5337

>  <SCORE.INTER.VDW>
-23.11

>  <SCORE.INTER.norm>
-0.749871

>  <SCORE.INTRA>
-2.16704

>  <SCORE.INTRA.DIHEDRAL>
-6.09595

>  <SCORE.INTRA.DIHEDRAL.0>
7.79482

>  <SCORE.INTRA.POLAR>
0

>  <SCORE.INTRA.POLAR.0>
0

>  <SCORE.INTRA.REPUL>
0

>  <SCORE.INTRA.REPUL.0>
0

>  <SCORE.INTRA.SOLV>
3.08043

>  <SCORE.INTRA.SOLV.lig_0>
-49.456

>  <SCORE.INTRA.VDW>
-0.659278

>  <SCORE.INTRA.VDW.0>
-0.478406

>  <SCORE.INTRA.norm>
-0.154789

>  <SCORE.RESTR>
0

>  <SCORE.RESTR.CAVITY>
0

>  <SCORE.RESTR.norm>
0

>  <SCORE.SYSTEM>
0

>  <SCORE.SYSTEM.CONST>
0

>  <SCORE.SYSTEM.DIHEDRAL>
0

>  <SCORE.SYSTEM.SOLV>
0

>  <SCORE.SYSTEM.norm>
0

>  <SCORE.heavy>
14

>  <SCORE.norm>
-0.90466

>  <RMSD>
4.996

$$$$
ligand
 OpenBabel11021811413D
libRbt.so/2013.1/901 2013/11/27
 14 13  0  0  0  0  0  0  0  0999 V2000
   44.4435   -3.9226   12.6541 N   0  0  0  0  0  0  0  0  0  0  0  0
   44.1539   -2.5402   13.0925 C   0  0  0  0  0  0  0  0  0  0  0  0
   44.8727   -2.2134   14.4193 C   0  0  0  0  0  0  0  0  0  0  0  0
   44.6925   -0.7658   14.9050 C   0  0  0  0  0  0  0  0  0  0  0  0
   45.4405   -0.5296   16.1704 N   0  0  0  0  0  0  0  0  0  0  0  0
   44.7644    0.5175   16.9786 C   0  0  0  0  0  0  0  0  0  0  0  0
   45.7065    1.4068   17.8583 C   0  0  0  0  0  0  0  0  0  0  0  0
   44.9752    2.5555   18.6107 C   0  0  0  0  0  0  0  0  0  0  0  0
   45.9078    3.5214   19.3152 C   0  0  0  0  0  0  0  0  0  0  0  0
   45.0892    4.5255   19.9678 N   0  0  0  0  0  0  0  0  0  0  0  0
   45.9914    5.2850   20.8157 C   0  0  0  0  0  0  0  0  0  0  0  0
   45.9093    6.7782   20.5210 C   0  0  0  0  0  0  0  0  0  0  0  0
   46.5139    7.0109   19.1281 C   0  0  0  0  0  0  0  0  0  0  0  0
   46.4908    8.4299   18.7425 N   0  0  0  0  0  0  0  0  0  0  0  0
  1  2  1  0  0  0  0
  2  3  1  0  0  0  0
  3  4  1  0  0  0  0
  4  5  1  0  0  0  0
  5  6  1  0  0  0  0
  6  7  1  0  0  0  0
  7  8  1  0  0  0  0
  8  9  1  0  0  0  0
  9 10  1  0  0  0  0
 10 11  1  0  0  0  0
 11 12  1  0  0  0  0
 12 13  1  0  0  0  0
 13 14  1  0  0  0  0
M  END
>  <CHROM.1>
176.54804129,-178.74721078,-150.83612315,-148.35766338,175.85919904,-172.46771023
-179.89156054,170.27050700,125.62311043,-69.11117378,-179.75198043,45.35367181
2.14708842,17.37014940,-2.38758678,1.38187849,1.39621759

>  <Name>
ligand

>  <RI>
0

>  <Rbt.Current_Directory>
/home/itssahil/PROJECTS/Mol_Feturizer/New_Systems/rnas/1TN2

>  <Rbt.Executable>
rbdock ($Id: //depot/dev/client3/rdock/2013.1/src/exe/rbdock.cxx#4 $)

>  <Rbt.Library>
libRbt.so (2013.1, Build901 2013/11/27)

>  <Rbt.Parameter_File>
/export/apps/rDock/src/rDock_2013.1_src/data/scripts/dock_solv.prm

>  <Rbt.Receptor>
prm/blind_docking_100.prm

>  <SCORE>
-9.98737

>  <SCORE.INTER>
-7.13893

>  <SCORE.INTER.CONST>
1

>  <SCORE.INTER.POLAR>
0

>  <SCORE.INTER.ROT>
11

>  <SCORE.INTER.SOLV>
13.6838

>  <SCORE.INTER.VDW>
-20.2539

>  <SCORE.INTER.norm>
-0.509924

>  <SCORE.INTRA>
-2.84843

>  <SCORE.INTRA.DIHEDRAL>
-4.66032

>  <SCORE.INTRA.DIHEDRAL.0>
7.79482

>  <SCORE.INTRA.POLAR>
0

>  <SCORE.INTRA.POLAR.0>
0

>  <SCORE.INTRA.REPUL>
0

>  <SCORE.INTRA.REPUL.0>
0

>  <SCORE.INTRA.SOLV>
0.339355

>  <SCORE.INTRA.SOLV.lig_0>
-49.456

>  <SCORE.INTRA.VDW>
-0.687952

>  <SCORE.INTRA.VDW.0>
-0.478406

>  <SCORE.INTRA.norm>
-0.203459

>  <SCORE.RESTR>
0

>  <SCORE.RESTR.CAVITY>
0

>  <SCORE.RESTR.norm>
0

>  <SCORE.SYSTEM>
0

>  <SCORE.SYSTEM.CONST>
0

>  <SCORE.SYSTEM.DIHEDRAL>
0

>  <SCORE.SYSTEM.SOLV>
0

>  <SCORE.SYSTEM.norm>
0

>  <SCORE.heavy>
14

>  <SCORE.norm>
-0.713383

>  <RMSD>
5.008

$$$$
ligand
 OpenBabel11021811413D
libRbt.so/2013.1/901 2013/11/27
 14 13  0  0  0  0  0  0  0  0999 V2000
   44.8162   -4.0049   13.2468 N   0  0  0  0  0  0  0  0  0  0  0  0
   43.7996   -3.1267   13.8651 C   0  0  0  0  0  0  0  0  0  0  0  0
   44.4073   -1.7645   14.2640 C   0  0  0  0  0  0  0  0  0  0  0  0
   45.3985   -1.8251   15.4378 C   0  0  0  0  0  0  0  0  0  0  0  0
   46.0252   -0.4961   15.6773 N   0  0  0  0  0  0  0  0  0  0  0  0
   45.4959    0.1031   16.9293 C   0  0  0  0  0  0  0  0  0  0  0  0
   46.0221    1.5386   17.2677 C   0  0  0  0  0  0  0  0  0  0  0  0
   45.4613    2.1239   18.5956 C   0  0  0  0  0  0  0  0  0  0  0  0
   45.9462    3.5273   18.9030 C   0  0  0  0  0  0  0  0  0  0  0  0
   45.2556    3.9793   20.0959 N   0  0  0  0  0  0  0  0  0  0  0  0
   45.7755    5.3059   20.3781 C   0  0  0  0  0  0  0  0  0  0  0  0
   44.6519    6.3251   20.5270 C   0  0  0  0  0  0  0  0  0  0  0  0
   45.2948    7.7187   20.5962 C   0  0  0  0  0  0  0  0  0  0  0  0
   45.8507    8.1389   19.3012 N   0  0  0  0  0  0  0  0  0  0  0  0
  1  2  1  0  0  0  0
  2  3  1  0  0  0  0
  3  4  1  0  0  0  0
  4  5  1  0  0  0  0
  5  6  1  0  0  0  0
  6  7  1  0  0  0  0
  7  8  1  0  0  0  0
  8  9  1  0  0  0  0
  9 10  1  0  0  0  0
 10 11  1  0  0  0  0
 11 12  1  0  0  0  0
 12 13  1  0  0  0  0
 13 14  1  0  0  0  0
M  END
>  <CHROM.1>
-69.44031970,174.97723405,108.21970201,-177.19989798,-179.17493885,-178.57753923
175.10227642,178.34620212,127.05937013,-171.07954683,70.96314436,45.29998321
1.96742907,17.50623363,1.78864015,1.28806367,-2.77955681

>  <Name>
ligand

>  <RI>
0

>  <Rbt.Current_Directory>
/home/itssahil/PROJECTS/Mol_Feturizer/New_Systems/rnas/1TN2

>  <Rbt.Executable>
rbdock ($Id: //depot/dev/client3/rdock/2013.1/src/exe/rbdock.cxx#4 $)

>  <Rbt.Library>
libRbt.so (2013.1, Build901 2013/11/27)

>  <Rbt.Parameter_File>
/export/apps/rDock/src/rDock_2013.1_src/data/scripts/dock_solv.prm

>  <Rbt.Receptor>
prm/blind_docking_80.prm

>  <SCORE>
-9.02788

>  <SCORE.INTER>
-6.9749

>  <SCORE.INTER.CONST>
1

>  <SCORE.INTER.POLAR>
0

>  <SCORE.INTER.ROT>
11

>  <SCORE.INTER.SOLV>
15.5694

>  <SCORE.INTER.VDW>
-20.7731

>  <SCORE.INTER.norm>
-0.498207

>  <SCORE.INTRA>
-2.05298

>  <SCORE.INTRA.DIHEDRAL>
-4.27265

>  <SCORE.INTRA.DIHEDRAL.0>
7.79482

>  <SCORE.INTRA.POLAR>
0

>  <SCORE.INTRA.POLAR.0>
0

>  <SCORE.INTRA.REPUL>
0

>  <SCORE.INTRA.REPUL.0>
0

>  <SCORE.INTRA.SOLV>
1.42801

>  <SCORE.INTRA.SOLV.lig_0>
-49.456

>  <SCORE.INTRA.VDW>
-0.630666

>  <SCORE.INTRA.VDW.0>
-0.478406

>  <SCORE.INTRA.norm>
-0.146642

>  <SCORE.RESTR>
0

>  <SCORE.RESTR.CAVITY>
0

>  <SCORE.RESTR.norm>
0

>  <SCORE.SYSTEM>
0

>  <SCORE.SYSTEM.CONST>
0

>  <SCORE.SYSTEM.DIHEDRAL>
0

>  <SCORE.SYSTEM.SOLV>
0

>  <SCORE.SYSTEM.norm>
0

>  <SCORE.heavy>
14

>  <SCORE.norm>
-0.644849

>  <RMSD>
5.033

$$$$
ligand
 OpenBabel11021811413D
libRbt.so/2013.1/901 2013/11/27
 14 13  0  0  0  0  0  0  0  0999 V2000
   46.0737    8.6588   19.1280 N   0  0  0  0  0  0  0  0  0  0  0  0
   46.3260    7.2188   19.3515 C   0  0  0  0  0  0  0  0  0  0  0  0
   45.4104    6.6574   20.4607 C   0  0  0  0  0  0  0  0  0  0  0  0
   45.5693    5.1502   20.7198 C   0  0  0  0  0  0  0  0  0  0  0  0
   45.2560    4.3618   19.4963 N   0  0  0  0  0  0  0  0  0  0  0  0
   44.3685    3.2197   19.8349 C   0  0  0  0  0  0  0  0  0  0  0  0
   44.3843    2.0267   18.8206 C   0  0  0  0  0  0  0  0  0  0  0  0
   45.7920    1.4045   18.5938 C   0  0  0  0  0  0  0  0  0  0  0  0
   46.7357    2.2889   17.8025 C   0  0  0  0  0  0  0  0  0  0  0  0
   46.1727    2.4563   16.4762 N   0  0  0  0  0  0  0  0  0  0  0  0
   46.8892    3.5687   15.8771 C   0  0  0  0  0  0  0  0  0  0  0  0
   46.1938    4.0649   14.6148 C   0  0  0  0  0  0  0  0  0  0  0  0
   47.0022    5.2550   14.0761 C   0  0  0  0  0  0  0  0  0  0  0  0
   48.3498    4.8595   13.6403 N   0  0  0  0  0  0  0  0  0  0  0  0
  1  2  1  0  0  0  0
  2  3  1  0  0  0  0
  3  4  1  0  0  0  0
  4  5  1  0  0  0  0
  5  6  1  0  0  0  0
  6  7  1  0  0  0  0
  7  8  1  0  0  0  0
  8  9  1  0  0  0  0
  9 10  1  0  0  0  0
 10 11  1  0  0  0  0
 11 12  1  0  0  0  0
 12 13  1  0  0  0  0
 13 14  1  0  0  0  0
M  END
>  <CHROM.1>
177.72630255,-60.14568041,-133.80752923,-157.92969333,57.46702417,-71.41857771
-63.61577579,165.17249787,-166.86370509,178.68248168,64.89031847,46.03722782
4.37051699,17.77828566,-2.42779856,-1.17812245,-2.70281929

>  <Name>
ligand

>  <RI>
0

>  <Rbt.Current_Directory>
/home/itssahil/PROJECTS/Mol_Feturizer/New_Systems/rnas/1TN2

>  <Rbt.Executable>
rbdock ($Id: //depot/dev/client3/rdock/2013.1/src/exe/rbdock.cxx#4 $)

>  <Rbt.Library>
libRbt.so (2013.1, Build901 2013/11/27)

>  <Rbt.Parameter_File>
/export/apps/rDock/src/rDock_2013.1_src/data/scripts/dock_solv.prm

>  <Rbt.Receptor>
prm/blind_docking_100.prm

>  <SCORE>
-7.21841

>  <SCORE.INTER>
-5.3432

>  <SCORE.INTER.CONST>
1

>  <SCORE.INTER.POLAR>
0

>  <SCORE.INTER.ROT>
11

>  <SCORE.INTER.SOLV>
10.6477

>  <SCORE.INTER.VDW>
-18.0447

>  <SCORE.INTER.norm>
-0.381657

>  <SCORE.INTRA>
-1.87521

>  <SCORE.INTRA.DIHEDRAL>
-5.35806

>  <SCORE.INTRA.DIHEDRAL.0>
7.79482

>  <SCORE.INTRA.POLAR>
0

>  <SCORE.INTRA.POLAR.0>
0

>  <SCORE.INTRA.REPUL>
0

>  <SCORE.INTRA.REPUL.0>
0

>  <SCORE.INTRA.SOLV>
3.17309

>  <SCORE.INTRA.SOLV.lig_0>
-49.456

>  <SCORE.INTRA.VDW>
-0.782726

>  <SCORE.INTRA.VDW.0>
-0.478406

>  <SCORE.INTRA.norm>
-0.133944

>  <SCORE.RESTR>
0

>  <SCORE.RESTR.CAVITY>
0

>  <SCORE.RESTR.norm>
0

>  <SCORE.SYSTEM>
0

>  <SCORE.SYSTEM.CONST>
0

>  <SCORE.SYSTEM.DIHEDRAL>
0

>  <SCORE.SYSTEM.SOLV>
0

>  <SCORE.SYSTEM.norm>
0

>  <SCORE.heavy>
14

>  <SCORE.norm>
-0.515601

>  <RMSD>
5.034

$$$$
ligand
 OpenBabel11021811413D
libRbt.so/2013.1/901 2013/11/27
 14 13  0  0  0  0  0  0  0  0999 V2000
   46.0274    6.3557   19.1199 N   0  0  0  0  0  0  0  0  0  0  0  0
   46.1244    4.9994   19.7014 C   0  0  0  0  0  0  0  0  0  0  0  0
   45.6061    4.9774   21.1556 C   0  0  0  0  0  0  0  0  0  0  0  0
   44.0873    5.1713   21.2966 C   0  0  0  0  0  0  0  0  0  0  0  0
   43.6609    6.4805   20.7304 N   0  0  0  0  0  0  0  0  0  0  0  0
   42.2385    6.7463   21.0665 C   0  0  0  0  0  0  0  0  0  0  0  0
   41.4852    7.7201   20.0989 C   0  0  0  0  0  0  0  0  0  0  0  0
   42.2304    9.0612   19.8404 C   0  0  0  0  0  0  0  0  0  0  0  0
   41.4949   10.0044   18.9086 C   0  0  0  0  0  0  0  0  0  0  0  0
   42.3746   11.1245   18.6332 N   0  0  0  0  0  0  0  0  0  0  0  0
   41.7808   11.8304   17.5112 C   0  0  0  0  0  0  0  0  0  0  0  0
   42.8111   12.6841   16.7812 C   0  0  0  0  0  0  0  0  0  0  0  0
   43.8231   11.7321   16.1258 C   0  0  0  0  0  0  0  0  0  0  0  0
   44.9435   12.4543   15.5046 N   0  0  0  0  0  0  0  0  0  0  0  0
  1  2  1  0  0  0  0
  2  3  1  0  0  0  0
  3  4  1  0  0  0  0
  4  5  1  0  0  0  0
  5  6  1  0  0  0  0
  6  7  1  0  0  0  0
  7  8  1  0  0  0  0
  8  9  1  0  0  0  0
  9 10  1  0  0  0  0
 10 11  1  0  0  0  0
 11 12  1  0  0  0  0
 12 13  1  0  0  0  0
 13 14  1  0  0  0  0
M  END
>  <CHROM.1>
69.65624482,-60.02949444,-170.99238030,-155.54578389,-50.97519349,-179.71342898
-173.07510746,166.81118303,-158.54820437,66.64388883,-174.22932022,43.47742448
8.66708283,19.03410545,-1.33959628,0.43376614,-0.63020417

>  <Name>
ligand

>  <RI>
0

>  <Rbt.Current_Directory>
/home/itssahil/PROJECTS/Mol_Feturizer/New_Systems/rnas/1TN2

>  <Rbt.Executable>
rbdock ($Id: //depot/dev/client3/rdock/2013.1/src/exe/rbdock.cxx#4 $)

>  <Rbt.Library>
libRbt.so (2013.1, Build901 2013/11/27)

>  <Rbt.Parameter_File>
/export/apps/rDock/src/rDock_2013.1_src/data/scripts/dock_solv.prm

>  <Rbt.Receptor>
prm/pocket_docking_7.prm

>  <SCORE>
-13.1929

>  <SCORE.INTER>
-11.3449

>  <SCORE.INTER.CONST>
1

>  <SCORE.INTER.POLAR>
0

>  <SCORE.INTER.ROT>
11

>  <SCORE.INTER.SOLV>
15.9547

>  <SCORE.INTER.VDW>
-23.8149

>  <SCORE.INTER.norm>
-0.810353

>  <SCORE.INTRA>
-1.84798

>  <SCORE.INTRA.DIHEDRAL>
-5.70538

>  <SCORE.INTRA.DIHEDRAL.0>
7.79482

>  <SCORE.INTRA.POLAR>
0

>  <SCORE.INTRA.POLAR.0>
0

>  <SCORE.INTRA.REPUL>
0

>  <SCORE.INTRA.REPUL.0>
0

>  <SCORE.INTRA.SOLV>
3.62259

>  <SCORE.INTRA.SOLV.lig_0>
-49.456

>  <SCORE.INTRA.VDW>
-0.806585

>  <SCORE.INTRA.VDW.0>
-0.478406

>  <SCORE.INTRA.norm>
-0.131999

>  <SCORE.RESTR>
0

>  <SCORE.RESTR.CAVITY>
0

>  <SCORE.RESTR.norm>
0

>  <SCORE.SYSTEM>
0

>  <SCORE.SYSTEM.CONST>
0

>  <SCORE.SYSTEM.DIHEDRAL>
0

>  <SCORE.SYSTEM.SOLV>
0

>  <SCORE.SYSTEM.norm>
0

>  <SCORE.heavy>
14

>  <SCORE.norm>
-0.942352

>  <RMSD>
5.036

$$$$
ligand
 OpenBabel11021811413D
libRbt.so/2013.1/901 2013/11/27
 14 13  0  0  0  0  0  0  0  0999 V2000
   46.0974    8.5702   18.9304 N   0  0  0  0  0  0  0  0  0  0  0  0
   46.2678    8.0893   20.3185 C   0  0  0  0  0  0  0  0  0  0  0  0
   45.6178    6.7022   20.5123 C   0  0  0  0  0  0  0  0  0  0  0  0
   46.2264    5.5843   19.6497 C   0  0  0  0  0  0  0  0  0  0  0  0
   45.5365    4.2873   19.8914 N   0  0  0  0  0  0  0  0  0  0  0  0
   46.0988    3.2342   19.0074 C   0  0  0  0  0  0  0  0  0  0  0  0
   45.0514    2.2791   18.3419 C   0  0  0  0  0  0  0  0  0  0  0  0
   45.6811    1.1542   17.4709 C   0  0  0  0  0  0  0  0  0  0  0  0
   44.6809    0.4136   16.6049 C   0  0  0  0  0  0  0  0  0  0  0  0
   45.4122   -0.5778   15.8389 N   0  0  0  0  0  0  0  0  0  0  0  0
   44.5588   -0.9213   14.7149 C   0  0  0  0  0  0  0  0  0  0  0  0
   44.9415   -2.2695   14.1156 C   0  0  0  0  0  0  0  0  0  0  0  0
   44.0223   -2.5202   12.9106 C   0  0  0  0  0  0  0  0  0  0  0  0
   44.3118   -3.8008   12.2480 N   0  0  0  0  0  0  0  0  0  0  0  0
  1  2  1  0  0  0  0
  2  3  1  0  0  0  0
  3  4  1  0  0  0  0
  4  5  1  0  0  0  0
  5  6  1  0  0  0  0
  6  7  1  0  0  0  0
  7  8  1  0  0  0  0
  8  9  1  0  0  0  0
  9 10  1  0  0  0  0
 10 11  1  0  0  0  0
 11 12  1  0  0  0  0
 12 13  1  0  0  0  0
 13 14  1  0  0  0  0
M  END
>  <CHROM.1>
62.24121505,-179.59961687,177.56105028,-137.40316483,-177.61029345,-168.04172926
178.93901887,-160.15449111,-159.51215971,-178.00308479,179.70881542,45.32176869
2.15894107,17.18272296,0.58432221,-1.41200074,-0.38674579

>  <Name>
ligand

>  <RI>
0

>  <Rbt.Current_Directory>
/home/itssahil/PROJECTS/Mol_Feturizer/New_Systems/rnas/1TN2

>  <Rbt.Executable>
rbdock ($Id: //depot/dev/client3/rdock/2013.1/src/exe/rbdock.cxx#4 $)

>  <Rbt.Library>
libRbt.so (2013.1, Build901 2013/11/27)

>  <Rbt.Parameter_File>
/export/apps/rDock/src/rDock_2013.1_src/data/scripts/dock_solv.prm

>  <Rbt.Receptor>
prm/blind_docking_100.prm

>  <SCORE>
-10.0022

>  <SCORE.INTER>
-6.80838

>  <SCORE.INTER.CONST>
1

>  <SCORE.INTER.POLAR>
0

>  <SCORE.INTER.ROT>
11

>  <SCORE.INTER.SOLV>
12.0958

>  <SCORE.INTER.VDW>
-19.5042

>  <SCORE.INTER.norm>
-0.486313

>  <SCORE.INTRA>
-3.19383

>  <SCORE.INTRA.DIHEDRAL>
-5.57179

>  <SCORE.INTRA.DIHEDRAL.0>
7.79482

>  <SCORE.INTRA.POLAR>
0

>  <SCORE.INTRA.POLAR.0>
0

>  <SCORE.INTRA.REPUL>
0

>  <SCORE.INTRA.REPUL.0>
0

>  <SCORE.INTRA.SOLV>
0.640476

>  <SCORE.INTRA.SOLV.lig_0>
-49.456

>  <SCORE.INTRA.VDW>
-0.728171

>  <SCORE.INTRA.VDW.0>
-0.478406

>  <SCORE.INTRA.norm>
-0.228131

>  <SCORE.RESTR>
0

>  <SCORE.RESTR.CAVITY>
0

>  <SCORE.RESTR.norm>
0

>  <SCORE.SYSTEM>
0

>  <SCORE.SYSTEM.CONST>
0

>  <SCORE.SYSTEM.DIHEDRAL>
0

>  <SCORE.SYSTEM.SOLV>
0

>  <SCORE.SYSTEM.norm>
0

>  <SCORE.heavy>
14

>  <SCORE.norm>
-0.714443

>  <RMSD>
5.042

$$$$
ligand
 OpenBabel11021811413D
libRbt.so/2013.1/901 2013/11/27
 14 13  0  0  0  0  0  0  0  0999 V2000
   46.1594    3.6276   19.2802 N   0  0  0  0  0  0  0  0  0  0  0  0
   45.7406    5.0399   19.4101 C   0  0  0  0  0  0  0  0  0  0  0  0
   45.0860    5.3038   20.7834 C   0  0  0  0  0  0  0  0  0  0  0  0
   44.4678    6.7029   20.9393 C   0  0  0  0  0  0  0  0  0  0  0  0
   43.3376    6.8966   19.9898 N   0  0  0  0  0  0  0  0  0  0  0  0
   42.7872    8.2702   20.1202 C   0  0  0  0  0  0  0  0  0  0  0  0
   41.4411    8.5344   19.3648 C   0  0  0  0  0  0  0  0  0  0  0  0
   40.8564    9.9587   19.5882 C   0  0  0  0  0  0  0  0  0  0  0  0
   41.7178   11.0727   19.0263 C   0  0  0  0  0  0  0  0  0  0  0  0
   41.5924   11.0390   17.5815 N   0  0  0  0  0  0  0  0  0  0  0  0
   42.2556   12.2367   17.0964 C   0  0  0  0  0  0  0  0  0  0  0  0
   43.3772   11.8971   16.1217 C   0  0  0  0  0  0  0  0  0  0  0  0
   44.4560   11.1317   16.9030 C   0  0  0  0  0  0  0  0  0  0  0  0
   45.6234   10.8101   16.0685 N   0  0  0  0  0  0  0  0  0  0  0  0
  1  2  1  0  0  0  0
  2  3  1  0  0  0  0
  3  4  1  0  0  0  0
  4  5  1  0  0  0  0
  5  6  1  0  0  0  0
  6  7  1  0  0  0  0
  7  8  1  0  0  0  0
  8  9  1  0  0  0  0
  9 10  1  0  0  0  0
 10 11  1  0  0  0  0
 11 12  1  0  0  0  0
 12 13  1  0  0  0  0
 13 14  1  0  0  0  0
M  END
>  <CHROM.1>
-172.95237192,63.95763156,-177.88743180,-169.76979973,176.82411511,65.09280343
72.99201855,171.33571133,122.29144229,-65.29313554,-177.16890188,43.49247262
8.75179518,18.73402660,-1.16681913,0.53346597,-0.62616063

>  <Name>
ligand

>  <RI>
0

>  <Rbt.Current_Directory>
/home/itssahil/PROJECTS/Mol_Feturizer/New_Systems/rnas/1TN2

>  <Rbt.Executable>
rbdock ($Id: //depot/dev/client3/rdock/2013.1/src/exe/rbdock.cxx#4 $)

>  <Rbt.Library>
libRbt.so (2013.1, Build901 2013/11/27)

>  <Rbt.Parameter_File>
/export/apps/rDock/src/rDock_2013.1_src/data/scripts/dock_solv.prm

>  <Rbt.Receptor>
prm/blind_docking_100.prm

>  <SCORE>
-11.4645

>  <SCORE.INTER>
-8.96455

>  <SCORE.INTER.CONST>
1

>  <SCORE.INTER.POLAR>
0

>  <SCORE.INTER.ROT>
11

>  <SCORE.INTER.SOLV>
18.5699

>  <SCORE.INTER.VDW>
-23.0997

>  <SCORE.INTER.norm>
-0.640325

>  <SCORE.INTRA>
-2.49991

>  <SCORE.INTRA.DIHEDRAL>
-5.30973

>  <SCORE.INTRA.DIHEDRAL.0>
7.79482

>  <SCORE.INTRA.POLAR>
0

>  <SCORE.INTRA.POLAR.0>
0

>  <SCORE.INTRA.REPUL>
0

>  <SCORE.INTRA.REPUL.0>
0

>  <SCORE.INTRA.SOLV>
1.28394

>  <SCORE.INTRA.SOLV.lig_0>
-49.456

>  <SCORE.INTRA.VDW>
-0.487012

>  <SCORE.INTRA.VDW.0>
-0.478406

>  <SCORE.INTRA.norm>
-0.178565

>  <SCORE.RESTR>
0

>  <SCORE.RESTR.CAVITY>
0

>  <SCORE.RESTR.norm>
0

>  <SCORE.SYSTEM>
0

>  <SCORE.SYSTEM.CONST>
0

>  <SCORE.SYSTEM.DIHEDRAL>
0

>  <SCORE.SYSTEM.SOLV>
0

>  <SCORE.SYSTEM.norm>
0

>  <SCORE.heavy>
14

>  <SCORE.norm>
-0.81889

>  <RMSD>
5.064

$$$$
ligand
 OpenBabel11021811413D
libRbt.so/2013.1/901 2013/11/27
 14 13  0  0  0  0  0  0  0  0999 V2000
   44.5104   -3.7113   13.1589 N   0  0  0  0  0  0  0  0  0  0  0  0
   44.3642   -2.6304   14.1577 C   0  0  0  0  0  0  0  0  0  0  0  0
   45.5222   -1.6145   14.0540 C   0  0  0  0  0  0  0  0  0  0  0  0
   45.4510   -0.4577   15.0644 C   0  0  0  0  0  0  0  0  0  0  0  0
   45.5518   -0.9617   16.4616 N   0  0  0  0  0  0  0  0  0  0  0  0
   45.6724    0.1753   17.4100 C   0  0  0  0  0  0  0  0  0  0  0  0
   44.3435    0.9450   17.7163 C   0  0  0  0  0  0  0  0  0  0  0  0
   44.4263    1.8890   18.9502 C   0  0  0  0  0  0  0  0  0  0  0  0
   45.4138    3.0281   18.7886 C   0  0  0  0  0  0  0  0  0  0  0  0
   45.3053    3.8734   19.9625 N   0  0  0  0  0  0  0  0  0  0  0  0
   46.1398    5.0322   19.6969 C   0  0  0  0  0  0  0  0  0  0  0  0
   45.4809    6.3174   20.1843 C   0  0  0  0  0  0  0  0  0  0  0  0
   46.3526    7.4928   19.7166 C   0  0  0  0  0  0  0  0  0  0  0  0
   45.7638    8.7944   20.0659 N   0  0  0  0  0  0  0  0  0  0  0  0
  1  2  1  0  0  0  0
  2  3  1  0  0  0  0
  3  4  1  0  0  0  0
  4  5  1  0  0  0  0
  5  6  1  0  0  0  0
  6  7  1  0  0  0  0
  7  8  1  0  0  0  0
  8  9  1  0  0  0  0
  9 10  1  0  0  0  0
 10 11  1  0  0  0  0
 11 12  1  0  0  0  0
 12 13  1  0  0  0  0
 13 14  1  0  0  0  0
M  END
>  <CHROM.1>
-179.72757690,63.07354863,172.10821274,77.05270859,165.95904541,63.66986781
175.63645451,-173.17921733,139.65476506,-173.50565070,176.58152413,45.30701505
2.01228573,17.52776666,-1.84545768,1.26087733,0.81946585

>  <Name>
ligand

>  <RI>
0

>  <Rbt.Current_Directory>
/home/itssahil/PROJECTS/Mol_Feturizer/New_Systems/rnas/1TN2

>  <Rbt.Executable>
rbdock ($Id: //depot/dev/client3/rdock/2013.1/src/exe/rbdock.cxx#4 $)

>  <Rbt.Library>
libRbt.so (2013.1, Build901 2013/11/27)

>  <Rbt.Parameter_File>
/export/apps/rDock/src/rDock_2013.1_src/data/scripts/dock_solv.prm

>  <Rbt.Receptor>
prm/blind_docking_100.prm

>  <SCORE>
-8.66313

>  <SCORE.INTER>
-5.9252

>  <SCORE.INTER.CONST>
1

>  <SCORE.INTER.POLAR>
0

>  <SCORE.INTER.ROT>
11

>  <SCORE.INTER.SOLV>
17.9238

>  <SCORE.INTER.VDW>
-20.8581

>  <SCORE.INTER.norm>
-0.423229

>  <SCORE.INTRA>
-2.73793

>  <SCORE.INTRA.DIHEDRAL>
-5.49442

>  <SCORE.INTRA.DIHEDRAL.0>
7.79482

>  <SCORE.INTRA.POLAR>
0

>  <SCORE.INTRA.POLAR.0>
0

>  <SCORE.INTRA.REPUL>
0

>  <SCORE.INTRA.REPUL.0>
0

>  <SCORE.INTRA.SOLV>
0.383462

>  <SCORE.INTRA.SOLV.lig_0>
-49.456

>  <SCORE.INTRA.VDW>
-0.182448

>  <SCORE.INTRA.VDW.0>
-0.478406

>  <SCORE.INTRA.norm>
-0.195566

>  <SCORE.RESTR>
0

>  <SCORE.RESTR.CAVITY>
0

>  <SCORE.RESTR.norm>
0

>  <SCORE.SYSTEM>
0

>  <SCORE.SYSTEM.CONST>
0

>  <SCORE.SYSTEM.DIHEDRAL>
0

>  <SCORE.SYSTEM.SOLV>
0

>  <SCORE.SYSTEM.norm>
0

>  <SCORE.heavy>
14

>  <SCORE.norm>
-0.618795

>  <RMSD>
5.073

$$$$
ligand
 OpenBabel11021811413D
libRbt.so/2013.1/901 2013/11/27
 14 13  0  0  0  0  0  0  0  0999 V2000
   41.8402    7.7080   20.7443 N   0  0  0  0  0  0  0  0  0  0  0  0
   42.9881    7.0151   20.1202 C   0  0  0  0  0  0  0  0  0  0  0  0
   44.1767    6.9104   21.1001 C   0  0  0  0  0  0  0  0  0  0  0  0
   45.3946    6.1503   20.5498 C   0  0  0  0  0  0  0  0  0  0  0  0
   45.0639    4.7204   20.3000 N   0  0  0  0  0  0  0  0  0  0  0  0
   46.0504    4.1212   19.3648 C   0  0  0  0  0  0  0  0  0  0  0  0
   45.6844    2.7021   18.8131 C   0  0  0  0  0  0  0  0  0  0  0  0
   46.6980    2.1441   17.7731 C   0  0  0  0  0  0  0  0  0  0  0  0
   46.7391    2.9245   16.4737 C   0  0  0  0  0  0  0  0  0  0  0  0
   47.7554    2.3225   15.6316 N   0  0  0  0  0  0  0  0  0  0  0  0
   47.7951    3.1241   14.4210 C   0  0  0  0  0  0  0  0  0  0  0  0
   48.7268    2.5154   13.3795 C   0  0  0  0  0  0  0  0  0  0  0  0
   48.7489    3.4591   12.1676 C   0  0  0  0  0  0  0  0  0  0  0  0
   49.6300    2.9683   11.0973 N   0  0  0  0  0  0  0  0  0  0  0  0
  1  2  1  0  0  0  0
  2  3  1  0  0  0  0
  3  4  1  0  0  0  0
  4  5  1  0  0  0  0
  5  6  1  0  0  0  0
  6  7  1  0  0  0  0
  7  8  1  0  0  0  0
  8  9  1  0  0  0  0
  9 10  1  0  0  0  0
 10 11  1  0  0  0  0
 11 12  1  0  0  0  0
 12 13  1  0  0  0  0
 13 14  1  0  0  0  0
M  END
>  <CHROM.1>
177.58765274,-64.76802279,160.71462291,-169.51050278,176.55257333,-66.20872487
177.90203315,-178.08364581,-174.12942862,-177.61380504,179.66739876,46.23518245
4.19887075,17.28128291,2.71413186,-0.98113593,2.19393371

>  <Name>
ligand

>  <RI>
0

>  <Rbt.Current_Directory>
/home/itssahil/PROJECTS/Mol_Feturizer/New_Systems/rnas/1TN2

>  <Rbt.Executable>
rbdock ($Id: //depot/dev/client3/rdock/2013.1/src/exe/rbdock.cxx#4 $)

>  <Rbt.Library>
libRbt.so (2013.1, Build901 2013/11/27)

>  <Rbt.Parameter_File>
/export/apps/rDock/src/rDock_2013.1_src/data/scripts/dock_solv.prm

>  <Rbt.Receptor>
prm/blind_docking_60.prm

>  <SCORE>
-6.34443

>  <SCORE.INTER>
-2.45743

>  <SCORE.INTER.CONST>
1

>  <SCORE.INTER.POLAR>
0

>  <SCORE.INTER.ROT>
11

>  <SCORE.INTER.SOLV>
16.757

>  <SCORE.INTER.VDW>
-18.1573

>  <SCORE.INTER.norm>
-0.175531

>  <SCORE.INTRA>
-3.887

>  <SCORE.INTRA.DIHEDRAL>
-7.04342

>  <SCORE.INTRA.DIHEDRAL.0>
7.79482

>  <SCORE.INTRA.POLAR>
0

>  <SCORE.INTRA.POLAR.0>
0

>  <SCORE.INTRA.REPUL>
0

>  <SCORE.INTRA.REPUL.0>
0

>  <SCORE.INTRA.SOLV>
0.406617

>  <SCORE.INTRA.SOLV.lig_0>
-49.456

>  <SCORE.INTRA.VDW>
-0.568592

>  <SCORE.INTRA.VDW.0>
-0.478406

>  <SCORE.INTRA.norm>
-0.277643

>  <SCORE.RESTR>
0

>  <SCORE.RESTR.CAVITY>
0

>  <SCORE.RESTR.norm>
0

>  <SCORE.SYSTEM>
0

>  <SCORE.SYSTEM.CONST>
0

>  <SCORE.SYSTEM.DIHEDRAL>
0

>  <SCORE.SYSTEM.SOLV>
0

>  <SCORE.SYSTEM.norm>
0

>  <SCORE.heavy>
14

>  <SCORE.norm>
-0.453173

>  <RMSD>
5.087

$$$$
ligand
 OpenBabel11021811413D
libRbt.so/2013.1/901 2013/11/27
 14 13  0  0  0  0  0  0  0  0999 V2000
   45.2555    8.4715   19.6289 N   0  0  0  0  0  0  0  0  0  0  0  0
   44.9608    7.0433   19.8749 C   0  0  0  0  0  0  0  0  0  0  0  0
   46.2030    6.3023   20.4152 C   0  0  0  0  0  0  0  0  0  0  0  0
   46.0040    4.7931   20.6314 C   0  0  0  0  0  0  0  0  0  0  0  0
   45.8030    4.0895   19.3350 N   0  0  0  0  0  0  0  0  0  0  0  0
   44.6398    3.1699   19.4249 C   0  0  0  0  0  0  0  0  0  0  0  0
   44.9206    1.6824   19.0239 C   0  0  0  0  0  0  0  0  0  0  0  0
   45.2497    1.4822   17.5166 C   0  0  0  0  0  0  0  0  0  0  0  0
   45.3854    0.0296   17.1039 C   0  0  0  0  0  0  0  0  0  0  0  0
   45.6053   -0.0012   15.6703 N   0  0  0  0  0  0  0  0  0  0  0  0
   45.3973   -1.3805   15.2653 C   0  0  0  0  0  0  0  0  0  0  0  0
   45.1840   -1.4936   13.7603 C   0  0  0  0  0  0  0  0  0  0  0  0
   44.8767   -2.9651   13.4437 C   0  0  0  0  0  0  0  0  0  0  0  0
   43.5981   -3.4028   14.0237 N   0  0  0  0  0  0  0  0  0  0  0  0
  1  2  1  0  0  0  0
  2  3  1  0  0  0  0
  3  4  1  0  0  0  0
  4  5  1  0  0  0  0
  5  6  1  0  0  0  0
  6  7  1  0  0  0  0
  7  8  1  0  0  0  0
  8  9  1  0  0  0  0
  9 10  1  0  0  0  0
 10 11  1  0  0  0  0
 11 12  1  0  0  0  0
 12 13  1  0  0  0  0
 13 14  1  0  0  0  0
M  END
>  <CHROM.1>
-177.04469291,66.68954117,-132.65260304,-126.08344702,-67.04783915,-174.25337652
176.43656941,-166.14157414,162.98252546,-176.11033820,65.92836727,45.22029233
1.98707223,17.50856558,0.52953393,-1.49013572,-0.44990055

>  <Name>
ligand

>  <RI>
0

>  <Rbt.Current_Directory>
/home/itssahil/PROJECTS/Mol_Feturizer/New_Systems/rnas/1TN2

>  <Rbt.Executable>
rbdock ($Id: //depot/dev/client3/rdock/2013.1/src/exe/rbdock.cxx#4 $)

>  <Rbt.Library>
libRbt.so (2013.1, Build901 2013/11/27)

>  <Rbt.Parameter_File>
/export/apps/rDock/src/rDock_2013.1_src/data/scripts/dock_solv.prm

>  <Rbt.Receptor>
prm/blind_docking_80.prm

>  <SCORE>
-6.92474

>  <SCORE.INTER>
-4.66476

>  <SCORE.INTER.CONST>
1

>  <SCORE.INTER.POLAR>
0

>  <SCORE.INTER.ROT>
11

>  <SCORE.INTER.SOLV>
18.1573

>  <SCORE.INTER.VDW>
-20.0956

>  <SCORE.INTER.norm>
-0.333197

>  <SCORE.INTRA>
-2.25998

>  <SCORE.INTRA.DIHEDRAL>
-4.41725

>  <SCORE.INTRA.DIHEDRAL.0>
7.79482

>  <SCORE.INTRA.POLAR>
0

>  <SCORE.INTRA.POLAR.0>
0

>  <SCORE.INTRA.REPUL>
0

>  <SCORE.INTRA.REPUL.0>
0

>  <SCORE.INTRA.SOLV>
1.38522

>  <SCORE.INTRA.SOLV.lig_0>
-49.456

>  <SCORE.INTRA.VDW>
-0.743961

>  <SCORE.INTRA.VDW.0>
-0.478406

>  <SCORE.INTRA.norm>
-0.161427

>  <SCORE.RESTR>
0

>  <SCORE.RESTR.CAVITY>
0

>  <SCORE.RESTR.norm>
0

>  <SCORE.SYSTEM>
0

>  <SCORE.SYSTEM.CONST>
0

>  <SCORE.SYSTEM.DIHEDRAL>
0

>  <SCORE.SYSTEM.SOLV>
0

>  <SCORE.SYSTEM.norm>
0

>  <SCORE.heavy>
14

>  <SCORE.norm>
-0.494624

>  <RMSD>
5.087

$$$$
ligand
 OpenBabel11021811413D
libRbt.so/2013.1/901 2013/11/27
 14 13  0  0  0  0  0  0  0  0999 V2000
   46.6133    7.8822   19.4999 N   0  0  0  0  0  0  0  0  0  0  0  0
   45.6900    7.3860   20.5432 C   0  0  0  0  0  0  0  0  0  0  0  0
   45.1498    5.9836   20.1892 C   0  0  0  0  0  0  0  0  0  0  0  0
   46.2164    4.8767   20.1556 C   0  0  0  0  0  0  0  0  0  0  0  0
   45.6608    3.6162   19.5911 N   0  0  0  0  0  0  0  0  0  0  0  0
   45.9083    3.5560   18.1276 C   0  0  0  0  0  0  0  0  0  0  0  0
   45.2645    2.3389   17.3818 C   0  0  0  0  0  0  0  0  0  0  0  0
   45.8279    0.9561   17.8187 C   0  0  0  0  0  0  0  0  0  0  0  0
   45.2209   -0.2183   17.0763 C   0  0  0  0  0  0  0  0  0  0  0  0
   45.5823   -0.0880   15.6774 N   0  0  0  0  0  0  0  0  0  0  0  0
   45.9188   -1.4272   15.2269 C   0  0  0  0  0  0  0  0  0  0  0  0
   44.7265   -2.1095   14.5665 C   0  0  0  0  0  0  0  0  0  0  0  0
   44.4279   -1.3604   13.2590 C   0  0  0  0  0  0  0  0  0  0  0  0
   45.5058   -1.5164   12.2708 N   0  0  0  0  0  0  0  0  0  0  0  0
  1  2  1  0  0  0  0
  2  3  1  0  0  0  0
  3  4  1  0  0  0  0
  4  5  1  0  0  0  0
  5  6  1  0  0  0  0
  6  7  1  0  0  0  0
  7  8  1  0  0  0  0
  8  9  1  0  0  0  0
  9 10  1  0  0  0  0
 10 11  1  0  0  0  0
 11 12  1  0  0  0  0
 12 13  1  0  0  0  0
 13 14  1  0  0  0  0
M  END
>  <CHROM.1>
65.06574825,-170.57048854,92.76542912,-174.83753071,-64.31921038,-178.91644268
63.88190808,138.86565885,95.28443503,67.37265878,66.70428734,45.55083229
2.13384818,17.24191114,-0.42320782,-1.48763181,-1.34786309

>  <Name>
ligand

>  <RI>
0

>  <Rbt.Current_Directory>
/home/itssahil/PROJECTS/Mol_Feturizer/New_Systems/rnas/1TN2

>  <Rbt.Executable>
rbdock ($Id: //depot/dev/client3/rdock/2013.1/src/exe/rbdock.cxx#4 $)

>  <Rbt.Library>
libRbt.so (2013.1, Build901 2013/11/27)

>  <Rbt.Parameter_File>
/export/apps/rDock/src/rDock_2013.1_src/data/scripts/dock_solv.prm

>  <Rbt.Receptor>
prm/blind_docking_80.prm

>  <SCORE>
-7.19922

>  <SCORE.INTER>
-6.58913

>  <SCORE.INTER.CONST>
1

>  <SCORE.INTER.POLAR>
0

>  <SCORE.INTER.ROT>
11

>  <SCORE.INTER.SOLV>
12.13

>  <SCORE.INTER.VDW>
-19.3694

>  <SCORE.INTER.norm>
-0.470652

>  <SCORE.INTRA>
-0.610088

>  <SCORE.INTRA.DIHEDRAL>
-4.46266

>  <SCORE.INTRA.DIHEDRAL.0>
7.79482

>  <SCORE.INTRA.POLAR>
0

>  <SCORE.INTRA.POLAR.0>
0

>  <SCORE.INTRA.REPUL>
0

>  <SCORE.INTRA.REPUL.0>
0

>  <SCORE.INTRA.SOLV>
3.1616

>  <SCORE.INTRA.SOLV.lig_0>
-49.456

>  <SCORE.INTRA.VDW>
0.0404412

>  <SCORE.INTRA.VDW.0>
-0.478406

>  <SCORE.INTRA.norm>
-0.0435777

>  <SCORE.RESTR>
0

>  <SCORE.RESTR.CAVITY>
0

>  <SCORE.RESTR.norm>
0

>  <SCORE.SYSTEM>
0

>  <SCORE.SYSTEM.CONST>
0

>  <SCORE.SYSTEM.DIHEDRAL>
0

>  <SCORE.SYSTEM.SOLV>
0

>  <SCORE.SYSTEM.norm>
0

>  <SCORE.heavy>
14

>  <SCORE.norm>
-0.51423

>  <RMSD>
5.096

$$$$
ligand
 OpenBabel11021811413D
libRbt.so/2013.1/901 2013/11/27
 14 13  0  0  0  0  0  0  0  0999 V2000
   46.2821    7.4302   12.9987 N   0  0  0  0  0  0  0  0  0  0  0  0
   47.4836    6.6213   13.2972 C   0  0  0  0  0  0  0  0  0  0  0  0
   47.5077    6.1832   14.7776 C   0  0  0  0  0  0  0  0  0  0  0  0
   47.6338    7.3381   15.7847 C   0  0  0  0  0  0  0  0  0  0  0  0
   47.5380    6.8397   17.1842 N   0  0  0  0  0  0  0  0  0  0  0  0
   47.6475    7.9709   18.1407 C   0  0  0  0  0  0  0  0  0  0  0  0
   46.3546    8.2870   18.9658 C   0  0  0  0  0  0  0  0  0  0  0  0
   45.8375    7.0928   19.8184 C   0  0  0  0  0  0  0  0  0  0  0  0
   44.5572    7.3861   20.5758 C   0  0  0  0  0  0  0  0  0  0  0  0
   43.5054    7.5912   19.5980 N   0  0  0  0  0  0  0  0  0  0  0  0
   43.2079    9.0127   19.6258 C   0  0  0  0  0  0  0  0  0  0  0  0
   41.8043    9.2989   19.1050 C   0  0  0  0  0  0  0  0  0  0  0  0
   40.8063    8.8085   20.1650 C   0  0  0  0  0  0  0  0  0  0  0  0
   40.8235    7.3451   20.3093 N   0  0  0  0  0  0  0  0  0  0  0  0
  1  2  1  0  0  0  0
  2  3  1  0  0  0  0
  3  4  1  0  0  0  0
  4  5  1  0  0  0  0
  5  6  1  0  0  0  0
  6  7  1  0  0  0  0
  7  8  1  0  0  0  0
  8  9  1  0  0  0  0
  9 10  1  0  0  0  0
 10 11  1  0  0  0  0
 11 12  1  0  0  0  0
 12 13  1  0  0  0  0
 13 14  1  0  0  0  0
M  END
>  <CHROM.1>
-64.69636633,175.38420915,-179.39790585,113.06186331,58.30350728,-177.85629588
65.58644199,-108.36860272,-157.05821628,71.82141224,-66.96003156,45.07089429
7.65769958,17.88200661,0.79113362,0.18449011,-1.63770859

>  <Name>
ligand

>  <RI>
0

>  <Rbt.Current_Directory>
/home/itssahil/PROJECTS/Mol_Feturizer/New_Systems/rnas/1TN2

>  <Rbt.Executable>
rbdock ($Id: //depot/dev/client3/rdock/2013.1/src/exe/rbdock.cxx#4 $)

>  <Rbt.Library>
libRbt.so (2013.1, Build901 2013/11/27)

>  <Rbt.Parameter_File>
/export/apps/rDock/src/rDock_2013.1_src/data/scripts/dock_solv.prm

>  <Rbt.Receptor>
prm/pocket_docking_7.prm

>  <SCORE>
-6.92234

>  <SCORE.INTER>
-6.86366

>  <SCORE.INTER.CONST>
1

>  <SCORE.INTER.POLAR>
0

>  <SCORE.INTER.ROT>
11

>  <SCORE.INTER.SOLV>
16.3567

>  <SCORE.INTER.VDW>
-20.9613

>  <SCORE.INTER.norm>
-0.490262

>  <SCORE.INTRA>
-0.0586787

>  <SCORE.INTRA.DIHEDRAL>
-4.15437

>  <SCORE.INTRA.DIHEDRAL.0>
7.79482

>  <SCORE.INTRA.POLAR>
0

>  <SCORE.INTRA.POLAR.0>
0

>  <SCORE.INTRA.REPUL>
0

>  <SCORE.INTRA.REPUL.0>
0

>  <SCORE.INTRA.SOLV>
4.64233

>  <SCORE.INTRA.SOLV.lig_0>
-49.456

>  <SCORE.INTRA.VDW>
-0.302655

>  <SCORE.INTRA.VDW.0>
-0.478406

>  <SCORE.INTRA.norm>
-0.00419133

>  <SCORE.RESTR>
0

>  <SCORE.RESTR.CAVITY>
0

>  <SCORE.RESTR.norm>
0

>  <SCORE.SYSTEM>
0

>  <SCORE.SYSTEM.CONST>
0

>  <SCORE.SYSTEM.DIHEDRAL>
0

>  <SCORE.SYSTEM.SOLV>
0

>  <SCORE.SYSTEM.norm>
0

>  <SCORE.heavy>
14

>  <SCORE.norm>
-0.494453

>  <RMSD>
5.106

$$$$
ligand
 OpenBabel11021811413D
libRbt.so/2013.1/901 2013/11/27
 14 13  0  0  0  0  0  0  0  0999 V2000
   44.0061   -2.7378   12.5249 N   0  0  0  0  0  0  0  0  0  0  0  0
   43.9689   -3.0178   13.9765 C   0  0  0  0  0  0  0  0  0  0  0  0
   44.9438   -2.1012   14.7468 C   0  0  0  0  0  0  0  0  0  0  0  0
   44.5921   -0.6053   14.6944 C   0  0  0  0  0  0  0  0  0  0  0  0
   45.5778    0.2027   15.4637 N   0  0  0  0  0  0  0  0  0  0  0  0
   44.9044    0.8961   16.5918 C   0  0  0  0  0  0  0  0  0  0  0  0
   45.7357    1.0010   17.9147 C   0  0  0  0  0  0  0  0  0  0  0  0
   44.9729    1.6728   19.0925 C   0  0  0  0  0  0  0  0  0  0  0  0
   44.9081    3.1849   19.0010 C   0  0  0  0  0  0  0  0  0  0  0  0
   46.2503    3.6954   19.2065 N   0  0  0  0  0  0  0  0  0  0  0  0
   46.1023    4.8853   20.0263 C   0  0  0  0  0  0  0  0  0  0  0  0
   46.3549    6.1535   19.2194 C   0  0  0  0  0  0  0  0  0  0  0  0
   46.1256    7.3518   20.1529 C   0  0  0  0  0  0  0  0  0  0  0  0
   44.7086    7.5137   20.5111 N   0  0  0  0  0  0  0  0  0  0  0  0
  1  2  1  0  0  0  0
  2  3  1  0  0  0  0
  3  4  1  0  0  0  0
  4  5  1  0  0  0  0
  5  6  1  0  0  0  0
  6  7  1  0  0  0  0
  7  8  1  0  0  0  0
  8  9  1  0  0  0  0
  9 10  1  0  0  0  0
 10 11  1  0  0  0  0
 11 12  1  0  0  0  0
 12 13  1  0  0  0  0
 13 14  1  0  0  0  0
M  END
>  <CHROM.1>
64.70272101,179.82427467,-117.76032697,142.91081975,-177.24706192,-78.06201616
-68.63007139,-140.20922259,-107.61652859,177.95173566,-69.34607799,45.22512864
2.00672086,17.36607841,2.27433435,1.37413156,3.07373482

>  <Name>
ligand

>  <RI>
0

>  <Rbt.Current_Directory>
/home/itssahil/PROJECTS/Mol_Feturizer/New_Systems/rnas/1TN2

>  <Rbt.Executable>
rbdock ($Id: //depot/dev/client3/rdock/2013.1/src/exe/rbdock.cxx#4 $)

>  <Rbt.Library>
libRbt.so (2013.1, Build901 2013/11/27)

>  <Rbt.Parameter_File>
/export/apps/rDock/src/rDock_2013.1_src/data/scripts/dock_solv.prm

>  <Rbt.Receptor>
prm/blind_docking_100.prm

>  <SCORE>
-7.48137

>  <SCORE.INTER>
-7.22168

>  <SCORE.INTER.CONST>
1

>  <SCORE.INTER.POLAR>
0

>  <SCORE.INTER.ROT>
11

>  <SCORE.INTER.SOLV>
14.7619

>  <SCORE.INTER.VDW>
-20.6684

>  <SCORE.INTER.norm>
-0.515834

>  <SCORE.INTRA>
-0.259686

>  <SCORE.INTRA.DIHEDRAL>
-1.81057

>  <SCORE.INTRA.DIHEDRAL.0>
7.79482

>  <SCORE.INTRA.POLAR>
0

>  <SCORE.INTRA.POLAR.0>
0

>  <SCORE.INTRA.REPUL>
0

>  <SCORE.INTRA.REPUL.0>
0

>  <SCORE.INTRA.SOLV>
1.98542

>  <SCORE.INTRA.SOLV.lig_0>
-49.456

>  <SCORE.INTRA.VDW>
-0.347114

>  <SCORE.INTRA.VDW.0>
-0.478406

>  <SCORE.INTRA.norm>
-0.018549

>  <SCORE.RESTR>
0

>  <SCORE.RESTR.CAVITY>
0

>  <SCORE.RESTR.norm>
0

>  <SCORE.SYSTEM>
0

>  <SCORE.SYSTEM.CONST>
0

>  <SCORE.SYSTEM.DIHEDRAL>
0

>  <SCORE.SYSTEM.SOLV>
0

>  <SCORE.SYSTEM.norm>
0

>  <SCORE.heavy>
14

>  <SCORE.norm>
-0.534383

>  <RMSD>
5.118

$$$$
ligand
 OpenBabel11021811413D
libRbt.so/2013.1/901 2013/11/27
 14 13  0  0  0  0  0  0  0  0999 V2000
   46.0357    6.6251   19.1620 N   0  0  0  0  0  0  0  0  0  0  0  0
   46.1749    5.2265   19.6220 C   0  0  0  0  0  0  0  0  0  0  0  0
   45.6520    5.0591   21.0651 C   0  0  0  0  0  0  0  0  0  0  0  0
   44.1263    5.1814   21.2110 C   0  0  0  0  0  0  0  0  0  0  0  0
   43.6449    6.4965   20.7059 N   0  0  0  0  0  0  0  0  0  0  0  0
   42.2200    6.6977   21.0746 C   0  0  0  0  0  0  0  0  0  0  0  0
   41.3917    7.6059   20.1043 C   0  0  0  0  0  0  0  0  0  0  0  0
   41.9757    9.0359   19.9193 C   0  0  0  0  0  0  0  0  0  0  0  0
   41.0811    9.9682   19.1259 C   0  0  0  0  0  0  0  0  0  0  0  0
   41.7553   11.2491   19.0311 N   0  0  0  0  0  0  0  0  0  0  0  0
   42.3889   11.2696   17.7243 C   0  0  0  0  0  0  0  0  0  0  0  0
   43.2218   12.5310   17.5280 C   0  0  0  0  0  0  0  0  0  0  0  0
   43.9138   12.4230   16.1608 C   0  0  0  0  0  0  0  0  0  0  0  0
   44.7629   13.5890   15.8742 N   0  0  0  0  0  0  0  0  0  0  0  0
  1  2  1  0  0  0  0
  2  3  1  0  0  0  0
  3  4  1  0  0  0  0
  4  5  1  0  0  0  0
  5  6  1  0  0  0  0
  6  7  1  0  0  0  0
  7  8  1  0  0  0  0
  8  9  1  0  0  0  0
  9 10  1  0  0  0  0
 10 11  1  0  0  0  0
 11 12  1  0  0  0  0
 12 13  1  0  0  0  0
 13 14  1  0  0  0  0
M  END
>  <CHROM.1>
70.03206226,-57.75641621,-169.83572657,-151.57250337,-57.56717465,-172.51148376
-179.69337142,98.72704438,-176.00575265,176.71762663,-179.29959911,43.45295526
8.78242915,19.16507971,-1.38441487,0.36338858,-0.55039722

>  <Name>
ligand

>  <RI>
0

>  <Rbt.Current_Directory>
/home/itssahil/PROJECTS/Mol_Feturizer/New_Systems/rnas/1TN2

>  <Rbt.Executable>
rbdock ($Id: //depot/dev/client3/rdock/2013.1/src/exe/rbdock.cxx#4 $)

>  <Rbt.Library>
libRbt.so (2013.1, Build901 2013/11/27)

>  <Rbt.Parameter_File>
/export/apps/rDock/src/rDock_2013.1_src/data/scripts/dock_solv.prm

>  <Rbt.Receptor>
prm/pocket_docking_7.prm

>  <SCORE>
-12.0466

>  <SCORE.INTER>
-10.2606

>  <SCORE.INTER.CONST>
1

>  <SCORE.INTER.POLAR>
0

>  <SCORE.INTER.ROT>
11

>  <SCORE.INTER.SOLV>
14.6247

>  <SCORE.INTER.VDW>
-22.6487

>  <SCORE.INTER.norm>
-0.732903

>  <SCORE.INTRA>
-1.78598

>  <SCORE.INTRA.DIHEDRAL>
-5.59481

>  <SCORE.INTRA.DIHEDRAL.0>
7.79482

>  <SCORE.INTRA.POLAR>
0

>  <SCORE.INTRA.POLAR.0>
0

>  <SCORE.INTRA.REPUL>
0

>  <SCORE.INTRA.REPUL.0>
0

>  <SCORE.INTRA.SOLV>
3.13581

>  <SCORE.INTRA.SOLV.lig_0>
-49.456

>  <SCORE.INTRA.VDW>
-0.556479

>  <SCORE.INTRA.VDW.0>
-0.478406

>  <SCORE.INTRA.norm>
-0.12757

>  <SCORE.RESTR>
0

>  <SCORE.RESTR.CAVITY>
0

>  <SCORE.RESTR.norm>
0

>  <SCORE.SYSTEM>
0

>  <SCORE.SYSTEM.CONST>
0

>  <SCORE.SYSTEM.DIHEDRAL>
0

>  <SCORE.SYSTEM.SOLV>
0

>  <SCORE.SYSTEM.norm>
0

>  <SCORE.heavy>
14

>  <SCORE.norm>
-0.860473

>  <RMSD>
5.127

$$$$
ligand
 OpenBabel11021811413D
libRbt.so/2013.1/901 2013/11/27
 14 13  0  0  0  0  0  0  0  0999 V2000
   42.8917    5.6269   20.8351 N   0  0  0  0  0  0  0  0  0  0  0  0
   43.7642    6.8102   20.9952 C   0  0  0  0  0  0  0  0  0  0  0  0
   45.0689    6.6553   20.1841 C   0  0  0  0  0  0  0  0  0  0  0  0
   45.9673    5.4912   20.6334 C   0  0  0  0  0  0  0  0  0  0  0  0
   45.3125    4.1797   20.3734 N   0  0  0  0  0  0  0  0  0  0  0  0
   45.8432    3.5800   19.1222 C   0  0  0  0  0  0  0  0  0  0  0  0
   45.3784    2.1147   18.8239 C   0  0  0  0  0  0  0  0  0  0  0  0
   45.8570    1.5639   17.4499 C   0  0  0  0  0  0  0  0  0  0  0  0
   45.3223    0.1840   17.1199 C   0  0  0  0  0  0  0  0  0  0  0  0
   45.7519   -0.1432   15.7735 N   0  0  0  0  0  0  0  0  0  0  0  0
   45.4209   -1.5441   15.5796 C   0  0  0  0  0  0  0  0  0  0  0  0
   45.5037   -1.9384   14.1095 C   0  0  0  0  0  0  0  0  0  0  0  0
   44.3996   -1.1763   13.3611 C   0  0  0  0  0  0  0  0  0  0  0  0
   44.3489   -1.5309   11.9347 N   0  0  0  0  0  0  0  0  0  0  0  0
  1  2  1  0  0  0  0
  2  3  1  0  0  0  0
  3  4  1  0  0  0  0
  4  5  1  0  0  0  0
  5  6  1  0  0  0  0
  6  7  1  0  0  0  0
  7  8  1  0  0  0  0
  8  9  1  0  0  0  0
  9 10  1  0  0  0  0
 10 11  1  0  0  0  0
 11 12  1  0  0  0  0
 12 13  1  0  0  0  0
 13 14  1  0  0  0  0
M  END
>  <CHROM.1>
-63.38288510,66.31779578,99.47424435,172.40130656,175.14843735,-175.78988781
175.04830464,170.58555982,166.22434337,-66.03707153,-177.39017961,45.05953136
2.13383012,17.59268578,1.62332789,-0.71006103,0.78396838

>  <Name>
ligand

>  <RI>
0

>  <Rbt.Current_Directory>
/home/itssahil/PROJECTS/Mol_Feturizer/New_Systems/rnas/1TN2

>  <Rbt.Executable>
rbdock ($Id: //depot/dev/client3/rdock/2013.1/src/exe/rbdock.cxx#4 $)

>  <Rbt.Library>
libRbt.so (2013.1, Build901 2013/11/27)

>  <Rbt.Parameter_File>
/export/apps/rDock/src/rDock_2013.1_src/data/scripts/dock_solv.prm

>  <Rbt.Receptor>
prm/blind_docking_60.prm

>  <SCORE>
-8.54813

>  <SCORE.INTER>
-6.62733

>  <SCORE.INTER.CONST>
1

>  <SCORE.INTER.POLAR>
0

>  <SCORE.INTER.ROT>
11

>  <SCORE.INTER.SOLV>
13.0746

>  <SCORE.INTER.VDW>
-19.7097

>  <SCORE.INTER.norm>
-0.473381

>  <SCORE.INTRA>
-1.9208

>  <SCORE.INTRA.DIHEDRAL>
-6.03134

>  <SCORE.INTRA.DIHEDRAL.0>
7.79482

>  <SCORE.INTRA.POLAR>
0

>  <SCORE.INTRA.POLAR.0>
0

>  <SCORE.INTRA.REPUL>
0

>  <SCORE.INTRA.REPUL.0>
0

>  <SCORE.INTRA.SOLV>
3.45982

>  <SCORE.INTRA.SOLV.lig_0>
-49.456

>  <SCORE.INTRA.VDW>
-0.635038

>  <SCORE.INTRA.VDW.0>
-0.478406

>  <SCORE.INTRA.norm>
-0.1372

>  <SCORE.RESTR>
0

>  <SCORE.RESTR.CAVITY>
0

>  <SCORE.RESTR.norm>
0

>  <SCORE.SYSTEM>
0

>  <SCORE.SYSTEM.CONST>
0

>  <SCORE.SYSTEM.DIHEDRAL>
0

>  <SCORE.SYSTEM.SOLV>
0

>  <SCORE.SYSTEM.norm>
0

>  <SCORE.heavy>
14

>  <SCORE.norm>
-0.610581

>  <RMSD>
5.140

$$$$
ligand
 OpenBabel11021811413D
libRbt.so/2013.1/901 2013/11/27
 14 13  0  0  0  0  0  0  0  0999 V2000
   47.6626    0.9085   12.4134 N   0  0  0  0  0  0  0  0  0  0  0  0
   46.7212    2.0259   12.1850 C   0  0  0  0  0  0  0  0  0  0  0  0
   46.1390    2.5463   13.5170 C   0  0  0  0  0  0  0  0  0  0  0  0
   45.3016    1.5176   14.2945 C   0  0  0  0  0  0  0  0  0  0  0  0
   44.9142    2.0450   15.6318 N   0  0  0  0  0  0  0  0  0  0  0  0
   44.3670    0.9520   16.4759 C   0  0  0  0  0  0  0  0  0  0  0  0
   44.3185    1.2441   18.0136 C   0  0  0  0  0  0  0  0  0  0  0  0
   45.7144    1.4750   18.6606 C   0  0  0  0  0  0  0  0  0  0  0  0
   46.3525    2.7998   18.2912 C   0  0  0  0  0  0  0  0  0  0  0  0
   45.5501    3.8539   18.8822 N   0  0  0  0  0  0  0  0  0  0  0  0
   46.3402    4.3891   19.9773 C   0  0  0  0  0  0  0  0  0  0  0  0
   45.7170    5.6583   20.5464 C   0  0  0  0  0  0  0  0  0  0  0  0
   45.8352    6.7543   19.4764 C   0  0  0  0  0  0  0  0  0  0  0  0
   45.3877    8.0647   19.9717 N   0  0  0  0  0  0  0  0  0  0  0  0
  1  2  1  0  0  0  0
  2  3  1  0  0  0  0
  3  4  1  0  0  0  0
  4  5  1  0  0  0  0
  5  6  1  0  0  0  0
  6  7  1  0  0  0  0
  7  8  1  0  0  0  0
  8  9  1  0  0  0  0
  9 10  1  0  0  0  0
 10 11  1  0  0  0  0
 11 12  1  0  0  0  0
 12 13  1  0  0  0  0
 13 14  1  0  0  0  0
M  END
>  <CHROM.1>
-62.81817951,173.36648925,-167.84747541,162.44449235,-62.52645944,72.20270288
66.88136868,108.06449797,170.64526897,-68.08815293,-174.11845819,45.73718728
3.15937587,17.02419128,-1.36976954,1.22434877,0.78323398

>  <Name>
ligand

>  <RI>
0

>  <Rbt.Current_Directory>
/home/itssahil/PROJECTS/Mol_Feturizer/New_Systems/rnas/1TN2

>  <Rbt.Executable>
rbdock ($Id: //depot/dev/client3/rdock/2013.1/src/exe/rbdock.cxx#4 $)

>  <Rbt.Library>
libRbt.so (2013.1, Build901 2013/11/27)

>  <Rbt.Parameter_File>
/export/apps/rDock/src/rDock_2013.1_src/data/scripts/dock_solv.prm

>  <Rbt.Receptor>
prm/blind_docking_60.prm

>  <SCORE>
-6.59103

>  <SCORE.INTER>
-5.06589

>  <SCORE.INTER.CONST>
1

>  <SCORE.INTER.POLAR>
0

>  <SCORE.INTER.ROT>
11

>  <SCORE.INTER.SOLV>
12.1055

>  <SCORE.INTER.VDW>
-18.3457

>  <SCORE.INTER.norm>
-0.361849

>  <SCORE.INTRA>
-1.52514

>  <SCORE.INTRA.DIHEDRAL>
-4.91067

>  <SCORE.INTRA.DIHEDRAL.0>
7.79482

>  <SCORE.INTRA.POLAR>
0

>  <SCORE.INTRA.POLAR.0>
0

>  <SCORE.INTRA.REPUL>
0

>  <SCORE.INTRA.REPUL.0>
0

>  <SCORE.INTRA.SOLV>
2.78415

>  <SCORE.INTRA.SOLV.lig_0>
-49.456

>  <SCORE.INTRA.VDW>
-0.46188

>  <SCORE.INTRA.VDW.0>
-0.478406

>  <SCORE.INTRA.norm>
-0.108939

>  <SCORE.RESTR>
0

>  <SCORE.RESTR.CAVITY>
0

>  <SCORE.RESTR.norm>
0

>  <SCORE.SYSTEM>
0

>  <SCORE.SYSTEM.CONST>
0

>  <SCORE.SYSTEM.DIHEDRAL>
0

>  <SCORE.SYSTEM.SOLV>
0

>  <SCORE.SYSTEM.norm>
0

>  <SCORE.heavy>
14

>  <SCORE.norm>
-0.470788

>  <RMSD>
5.145

$$$$
ligand
 OpenBabel11021811413D
libRbt.so/2013.1/901 2013/11/27
 14 13  0  0  0  0  0  0  0  0999 V2000
   45.8401    8.5781   19.8439 N   0  0  0  0  0  0  0  0  0  0  0  0
   46.0682    7.1901   20.3006 C   0  0  0  0  0  0  0  0  0  0  0  0
   46.0346    6.2003   19.1160 C   0  0  0  0  0  0  0  0  0  0  0  0
   46.1930    4.7230   19.5118 C   0  0  0  0  0  0  0  0  0  0  0  0
   46.1492    3.8410   18.3133 N   0  0  0  0  0  0  0  0  0  0  0  0
   46.2800    2.4177   18.7182 C   0  0  0  0  0  0  0  0  0  0  0  0
   44.9409    1.6094   18.7922 C   0  0  0  0  0  0  0  0  0  0  0  0
   44.4878    1.0053   17.4320 C   0  0  0  0  0  0  0  0  0  0  0  0
   45.3906   -0.0989   16.9177 C   0  0  0  0  0  0  0  0  0  0  0  0
   44.9131   -0.4798   15.6019 N   0  0  0  0  0  0  0  0  0  0  0  0
   45.9018   -1.4020   15.0712 C   0  0  0  0  0  0  0  0  0  0  0  0
   46.9511   -0.6758   14.2377 C   0  0  0  0  0  0  0  0  0  0  0  0
   48.0079   -1.7089   13.8182 C   0  0  0  0  0  0  0  0  0  0  0  0
   47.4898   -2.6618   12.8251 N   0  0  0  0  0  0  0  0  0  0  0  0
  1  2  1  0  0  0  0
  2  3  1  0  0  0  0
  3  4  1  0  0  0  0
  4  5  1  0  0  0  0
  5  6  1  0  0  0  0
  6  7  1  0  0  0  0
  7  8  1  0  0  0  0
  8  9  1  0  0  0  0
  9 10  1  0  0  0  0
 10 11  1  0  0  0  0
 11 12  1  0  0  0  0
 12 13  1  0  0  0  0
 13 14  1  0  0  0  0
M  END
>  <CHROM.1>
-177.06488627,179.99645200,-179.02073805,99.76953028,85.23932894,67.81432538
-175.17225760,172.48595561,-92.82296695,175.50201911,70.39042257,46.04626947
2.03829088,17.17876387,-1.67692735,-0.76252119,-2.62712226

>  <Name>
ligand

>  <RI>
0

>  <Rbt.Current_Directory>
/home/itssahil/PROJECTS/Mol_Feturizer/New_Systems/rnas/1TN2

>  <Rbt.Executable>
rbdock ($Id: //depot/dev/client3/rdock/2013.1/src/exe/rbdock.cxx#4 $)

>  <Rbt.Library>
libRbt.so (2013.1, Build901 2013/11/27)

>  <Rbt.Parameter_File>
/export/apps/rDock/src/rDock_2013.1_src/data/scripts/dock_solv.prm

>  <Rbt.Receptor>
prm/blind_docking_100.prm

>  <SCORE>
-6.70766

>  <SCORE.INTER>
-5.5082

>  <SCORE.INTER.CONST>
1

>  <SCORE.INTER.POLAR>
0

>  <SCORE.INTER.ROT>
11

>  <SCORE.INTER.SOLV>
13.9675

>  <SCORE.INTER.VDW>
-19.2613

>  <SCORE.INTER.norm>
-0.393443

>  <SCORE.INTRA>
-1.19946

>  <SCORE.INTRA.DIHEDRAL>
-3.2395

>  <SCORE.INTRA.DIHEDRAL.0>
7.79482

>  <SCORE.INTRA.POLAR>
0

>  <SCORE.INTRA.POLAR.0>
0

>  <SCORE.INTRA.REPUL>
0

>  <SCORE.INTRA.REPUL.0>
0

>  <SCORE.INTRA.SOLV>
1.10512

>  <SCORE.INTRA.SOLV.lig_0>
-49.456

>  <SCORE.INTRA.VDW>
-0.132266

>  <SCORE.INTRA.VDW.0>
-0.478406

>  <SCORE.INTRA.norm>
-0.0856755

>  <SCORE.RESTR>
0

>  <SCORE.RESTR.CAVITY>
0

>  <SCORE.RESTR.norm>
0

>  <SCORE.SYSTEM>
0

>  <SCORE.SYSTEM.CONST>
0

>  <SCORE.SYSTEM.DIHEDRAL>
0

>  <SCORE.SYSTEM.SOLV>
0

>  <SCORE.SYSTEM.norm>
0

>  <SCORE.heavy>
14

>  <SCORE.norm>
-0.479119

>  <RMSD>
5.147

$$$$
ligand
 OpenBabel11021811413D
libRbt.so/2013.1/901 2013/11/27
 14 13  0  0  0  0  0  0  0  0999 V2000
   42.5076   11.8026   18.0249 N   0  0  0  0  0  0  0  0  0  0  0  0
   41.4917   10.7656   18.3073 C   0  0  0  0  0  0  0  0  0  0  0  0
   41.9510    9.8300   19.4464 C   0  0  0  0  0  0  0  0  0  0  0  0
   41.0122    8.6428   19.7172 C   0  0  0  0  0  0  0  0  0  0  0  0
   41.5025    7.8235   20.8594 N   0  0  0  0  0  0  0  0  0  0  0  0
   42.6379    6.9683   20.4278 C   0  0  0  0  0  0  0  0  0  0  0  0
   44.0299    7.6812   20.3479 C   0  0  0  0  0  0  0  0  0  0  0  0
   45.1486    6.8190   19.6956 C   0  0  0  0  0  0  0  0  0  0  0  0
   46.4393    7.5736   19.4437 C   0  0  0  0  0  0  0  0  0  0  0  0
   47.2692    6.7502   18.5848 N   0  0  0  0  0  0  0  0  0  0  0  0
   48.2643    7.6434   18.0178 C   0  0  0  0  0  0  0  0  0  0  0  0
   47.9148    8.0306   16.5856 C   0  0  0  0  0  0  0  0  0  0  0  0
   48.0023    6.7602   15.7263 C   0  0  0  0  0  0  0  0  0  0  0  0
   47.7038    7.0253   14.3109 N   0  0  0  0  0  0  0  0  0  0  0  0
  1  2  1  0  0  0  0
  2  3  1  0  0  0  0
  3  4  1  0  0  0  0
  4  5  1  0  0  0  0
  5  6  1  0  0  0  0
  6  7  1  0  0  0  0
  7  8  1  0  0  0  0
  8  9  1  0  0  0  0
  9 10  1  0  0  0  0
 10 11  1  0  0  0  0
 11 12  1  0  0  0  0
 12 13  1  0  0  0  0
 13 14  1  0  0  0  0
M  END
>  <CHROM.1>
-174.59297272,-177.91185130,-76.97236361,80.04754765,-171.42821397,171.94489118
-167.78009223,161.89518903,-101.64866158,-65.92568151,-179.03641747,44.70536048
8.15108567,18.53564452,2.99353623,-0.52757948,2.26429487

>  <Name>
ligand

>  <RI>
0

>  <Rbt.Current_Directory>
/home/itssahil/PROJECTS/Mol_Feturizer/New_Systems/rnas/1TN2

>  <Rbt.Executable>
rbdock ($Id: //depot/dev/client3/rdock/2013.1/src/exe/rbdock.cxx#4 $)

>  <Rbt.Library>
libRbt.so (2013.1, Build901 2013/11/27)

>  <Rbt.Parameter_File>
/export/apps/rDock/src/rDock_2013.1_src/data/scripts/dock_solv.prm

>  <Rbt.Receptor>
prm/pocket_docking_6.prm

>  <SCORE>
-9.00543

>  <SCORE.INTER>
-7.43596

>  <SCORE.INTER.CONST>
1

>  <SCORE.INTER.POLAR>
0

>  <SCORE.INTER.ROT>
11

>  <SCORE.INTER.SOLV>
14.4058

>  <SCORE.INTER.VDW>
-20.6926

>  <SCORE.INTER.norm>
-0.53114

>  <SCORE.INTRA>
-1.56947

>  <SCORE.INTRA.DIHEDRAL>
-4.72902

>  <SCORE.INTRA.DIHEDRAL.0>
7.79482

>  <SCORE.INTRA.POLAR>
0

>  <SCORE.INTRA.POLAR.0>
0

>  <SCORE.INTRA.REPUL>
0

>  <SCORE.INTRA.REPUL.0>
0

>  <SCORE.INTRA.SOLV>
0.364077

>  <SCORE.INTRA.SOLV.lig_0>
-49.456

>  <SCORE.INTRA.VDW>
0.613003

>  <SCORE.INTRA.VDW.0>
-0.478406

>  <SCORE.INTRA.norm>
-0.112105

>  <SCORE.RESTR>
0

>  <SCORE.RESTR.CAVITY>
0

>  <SCORE.RESTR.norm>
0

>  <SCORE.SYSTEM>
0

>  <SCORE.SYSTEM.CONST>
0

>  <SCORE.SYSTEM.DIHEDRAL>
0

>  <SCORE.SYSTEM.SOLV>
0

>  <SCORE.SYSTEM.norm>
0

>  <SCORE.heavy>
14

>  <SCORE.norm>
-0.643245

>  <RMSD>
5.154

$$$$
ligand
 OpenBabel11021811413D
libRbt.so/2013.1/901 2013/11/27
 14 13  0  0  0  0  0  0  0  0999 V2000
   46.4682    8.2448   19.1330 N   0  0  0  0  0  0  0  0  0  0  0  0
   45.6786    7.6368   20.2257 C   0  0  0  0  0  0  0  0  0  0  0  0
   46.0933    6.1687   20.4638 C   0  0  0  0  0  0  0  0  0  0  0  0
   45.8584    5.2349   19.2651 C   0  0  0  0  0  0  0  0  0  0  0  0
   46.3227    3.8527   19.5654 N   0  0  0  0  0  0  0  0  0  0  0  0
   45.9269    2.9291   18.4713 C   0  0  0  0  0  0  0  0  0  0  0  0
   44.8814    1.8296   18.8588 C   0  0  0  0  0  0  0  0  0  0  0  0
   44.3666    0.9901   17.6543 C   0  0  0  0  0  0  0  0  0  0  0  0
   45.4226    0.1005   17.0280 C   0  0  0  0  0  0  0  0  0  0  0  0
   44.8521   -0.4804   15.8275 N   0  0  0  0  0  0  0  0  0  0  0  0
   45.8726   -1.3621   15.2882 C   0  0  0  0  0  0  0  0  0  0  0  0
   45.5238   -1.8216   13.8773 C   0  0  0  0  0  0  0  0  0  0  0  0
   44.2759   -2.7123   13.9738 C   0  0  0  0  0  0  0  0  0  0  0  0
   43.8836   -3.2623   12.6676 N   0  0  0  0  0  0  0  0  0  0  0  0
  1  2  1  0  0  0  0
  2  3  1  0  0  0  0
  3  4  1  0  0  0  0
  4  5  1  0  0  0  0
  5  6  1  0  0  0  0
  6  7  1  0  0  0  0
  7  8  1  0  0  0  0
  8  9  1  0  0  0  0
  9 10  1  0  0  0  0
 10 11  1  0  0  0  0
 11 12  1  0  0  0  0
 12 13  1  0  0  0  0
 13 14  1  0  0  0  0
M  END
>  <CHROM.1>
-62.22055563,178.27263845,172.55596056,-114.00439498,173.18827435,67.36929073
-172.74221258,-177.85157642,-168.31797763,-66.56673737,-177.48487286,45.38761744
1.95339744,17.30734148,-0.74099964,-1.39738899,-1.74484485

>  <Name>
ligand

>  <RI>
0

>  <Rbt.Current_Directory>
/home/itssahil/PROJECTS/Mol_Feturizer/New_Systems/rnas/1TN2

>  <Rbt.Executable>
rbdock ($Id: //depot/dev/client3/rdock/2013.1/src/exe/rbdock.cxx#4 $)

>  <Rbt.Library>
libRbt.so (2013.1, Build901 2013/11/27)

>  <Rbt.Parameter_File>
/export/apps/rDock/src/rDock_2013.1_src/data/scripts/dock_solv.prm

>  <Rbt.Receptor>
prm/blind_docking_80.prm

>  <SCORE>
-9.85819

>  <SCORE.INTER>
-7.25217

>  <SCORE.INTER.CONST>
1

>  <SCORE.INTER.POLAR>
0

>  <SCORE.INTER.ROT>
11

>  <SCORE.INTER.SOLV>
15.2444

>  <SCORE.INTER.VDW>
-20.8496

>  <SCORE.INTER.norm>
-0.518012

>  <SCORE.INTRA>
-2.60602

>  <SCORE.INTRA.DIHEDRAL>
-5.65563

>  <SCORE.INTRA.DIHEDRAL.0>
7.79482

>  <SCORE.INTRA.POLAR>
0

>  <SCORE.INTRA.POLAR.0>
0

>  <SCORE.INTRA.REPUL>
0

>  <SCORE.INTRA.REPUL.0>
0

>  <SCORE.INTRA.SOLV>
1.16933

>  <SCORE.INTRA.SOLV.lig_0>
-49.456

>  <SCORE.INTRA.VDW>
-0.362872

>  <SCORE.INTRA.VDW.0>
-0.478406

>  <SCORE.INTRA.norm>
-0.186144

>  <SCORE.RESTR>
0

>  <SCORE.RESTR.CAVITY>
0

>  <SCORE.RESTR.norm>
0

>  <SCORE.SYSTEM>
0

>  <SCORE.SYSTEM.CONST>
0

>  <SCORE.SYSTEM.DIHEDRAL>
0

>  <SCORE.SYSTEM.SOLV>
0

>  <SCORE.SYSTEM.norm>
0

>  <SCORE.heavy>
14

>  <SCORE.norm>
-0.704156

>  <RMSD>
5.155

$$$$
ligand
 OpenBabel11021811413D
libRbt.so/2013.1/901 2013/11/27
 14 13  0  0  0  0  0  0  0  0999 V2000
   45.9489    8.4622   19.2625 N   0  0  0  0  0  0  0  0  0  0  0  0
   46.4755    7.2017   19.8289 C   0  0  0  0  0  0  0  0  0  0  0  0
   45.3324    6.3030   20.3484 C   0  0  0  0  0  0  0  0  0  0  0  0
   45.7941    4.9703   20.9606 C   0  0  0  0  0  0  0  0  0  0  0  0
   46.4965    4.1328   19.9499 N   0  0  0  0  0  0  0  0  0  0  0  0
   45.5098    3.4003   19.1151 C   0  0  0  0  0  0  0  0  0  0  0  0
   46.0334    2.0845   18.4466 C   0  0  0  0  0  0  0  0  0  0  0  0
   45.0229    1.4258   17.4640 C   0  0  0  0  0  0  0  0  0  0  0  0
   45.5368    0.1576   16.8111 C   0  0  0  0  0  0  0  0  0  0  0  0
   44.6129   -0.1959   15.7502 N   0  0  0  0  0  0  0  0  0  0  0  0
   45.1541   -1.3948   15.1341 C   0  0  0  0  0  0  0  0  0  0  0  0
   44.3931   -1.7621   13.8655 C   0  0  0  0  0  0  0  0  0  0  0  0
   44.9233   -3.1206   13.3824 C   0  0  0  0  0  0  0  0  0  0  0  0
   44.2983   -3.5438   12.1203 N   0  0  0  0  0  0  0  0  0  0  0  0
  1  2  1  0  0  0  0
  2  3  1  0  0  0  0
  3  4  1  0  0  0  0
  4  5  1  0  0  0  0
  5  6  1  0  0  0  0
  6  7  1  0  0  0  0
  7  8  1  0  0  0  0
  8  9  1  0  0  0  0
  9 10  1  0  0  0  0
 10 11  1  0  0  0  0
 11 12  1  0  0  0  0
 12 13  1  0  0  0  0
 13 14  1  0  0  0  0
M  END
>  <CHROM.1>
-179.77290133,-61.91273198,-82.13387451,-155.64243125,-173.93166058,179.58683460
-169.30586218,178.82109261,-171.47967881,-173.40306499,-177.28267125,45.39516972
2.00856493,17.31732452,0.89695601,-1.37589578,-0.04000780

>  <Name>
ligand

>  <RI>
0

>  <Rbt.Current_Directory>
/home/itssahil/PROJECTS/Mol_Feturizer/New_Systems/rnas/1TN2

>  <Rbt.Executable>
rbdock ($Id: //depot/dev/client3/rdock/2013.1/src/exe/rbdock.cxx#4 $)

>  <Rbt.Library>
libRbt.so (2013.1, Build901 2013/11/27)

>  <Rbt.Parameter_File>
/export/apps/rDock/src/rDock_2013.1_src/data/scripts/dock_solv.prm

>  <Rbt.Receptor>
prm/pocket_docking_8.prm

>  <SCORE>
-10.7043

>  <SCORE.INTER>
-7.32482

>  <SCORE.INTER.CONST>
1

>  <SCORE.INTER.POLAR>
0

>  <SCORE.INTER.ROT>
11

>  <SCORE.INTER.SOLV>
13.3926

>  <SCORE.INTER.VDW>
-20.2808

>  <SCORE.INTER.norm>
-0.523202

>  <SCORE.INTRA>
-3.37944

>  <SCORE.INTRA.DIHEDRAL>
-6.18455

>  <SCORE.INTRA.DIHEDRAL.0>
7.79482

>  <SCORE.INTRA.POLAR>
0

>  <SCORE.INTRA.POLAR.0>
0

>  <SCORE.INTRA.REPUL>
0

>  <SCORE.INTRA.REPUL.0>
0

>  <SCORE.INTRA.SOLV>
0.286368

>  <SCORE.INTRA.SOLV.lig_0>
-49.456

>  <SCORE.INTRA.VDW>
-0.430354

>  <SCORE.INTRA.VDW.0>
-0.478406

>  <SCORE.INTRA.norm>
-0.241389

>  <SCORE.RESTR>
0

>  <SCORE.RESTR.CAVITY>
0

>  <SCORE.RESTR.norm>
0

>  <SCORE.SYSTEM>
0

>  <SCORE.SYSTEM.CONST>
0

>  <SCORE.SYSTEM.DIHEDRAL>
0

>  <SCORE.SYSTEM.SOLV>
0

>  <SCORE.SYSTEM.norm>
0

>  <SCORE.heavy>
14

>  <SCORE.norm>
-0.76459

>  <RMSD>
5.158

$$$$
ligand
 OpenBabel11021811413D
libRbt.so/2013.1/901 2013/11/27
 14 13  0  0  0  0  0  0  0  0999 V2000
   45.9869    8.7694   19.7955 N   0  0  0  0  0  0  0  0  0  0  0  0
   46.2049    7.3863   20.2715 C   0  0  0  0  0  0  0  0  0  0  0  0
   46.1050    6.3741   19.1099 C   0  0  0  0  0  0  0  0  0  0  0  0
   46.2362    4.9013   19.5314 C   0  0  0  0  0  0  0  0  0  0  0  0
   46.0784    3.9945   18.3613 N   0  0  0  0  0  0  0  0  0  0  0  0
   46.1805    2.5768   18.7931 C   0  0  0  0  0  0  0  0  0  0  0  0
   45.9006    1.5092   17.6822 C   0  0  0  0  0  0  0  0  0  0  0  0
   44.4789    1.6010   17.0570 C   0  0  0  0  0  0  0  0  0  0  0  0
   44.1814    0.5143   16.0424 C   0  0  0  0  0  0  0  0  0  0  0  0
   45.0791    0.7043   14.9189 N   0  0  0  0  0  0  0  0  0  0  0  0
   44.5695   -0.1426   13.8545 C   0  0  0  0  0  0  0  0  0  0  0  0
   45.3595    0.0465   12.5648 C   0  0  0  0  0  0  0  0  0  0  0  0
   44.7741   -0.9119   11.5165 C   0  0  0  0  0  0  0  0  0  0  0  0
   44.9661   -2.3226   11.8850 N   0  0  0  0  0  0  0  0  0  0  0  0
  1  2  1  0  0  0  0
  2  3  1  0  0  0  0
  3  4  1  0  0  0  0
  4  5  1  0  0  0  0
  5  6  1  0  0  0  0
  6  7  1  0  0  0  0
  7  8  1  0  0  0  0
  8  9  1  0  0  0  0
  9 10  1  0  0  0  0
 10 11  1  0  0  0  0
 11 12  1  0  0  0  0
 12 13  1  0  0  0  0
 13 14  1  0  0  0  0
M  END
>  <CHROM.1>
-176.53078205,177.90087407,-178.84824285,174.56687005,-59.94128672,-176.48131339
-64.89809923,-167.29411664,175.34862772,178.51377481,-64.66332372,45.43575404
2.49992692,16.52754314,-0.17020209,-1.44295105,-0.99999617

>  <Name>
ligand

>  <RI>
0

>  <Rbt.Current_Directory>
/home/itssahil/PROJECTS/Mol_Feturizer/New_Systems/rnas/1TN2

>  <Rbt.Executable>
rbdock ($Id: //depot/dev/client3/rdock/2013.1/src/exe/rbdock.cxx#4 $)

>  <Rbt.Library>
libRbt.so (2013.1, Build901 2013/11/27)

>  <Rbt.Parameter_File>
/export/apps/rDock/src/rDock_2013.1_src/data/scripts/dock_solv.prm

>  <Rbt.Receptor>
prm/blind_docking_100.prm

>  <SCORE>
-6.89503

>  <SCORE.INTER>
-3.40042

>  <SCORE.INTER.CONST>
1

>  <SCORE.INTER.POLAR>
0

>  <SCORE.INTER.ROT>
11

>  <SCORE.INTER.SOLV>
12.4014

>  <SCORE.INTER.VDW>
-17.3341

>  <SCORE.INTER.norm>
-0.242887

>  <SCORE.INTRA>
-3.49462

>  <SCORE.INTRA.DIHEDRAL>
-7.3296

>  <SCORE.INTRA.DIHEDRAL.0>
7.79482

>  <SCORE.INTRA.POLAR>
0

>  <SCORE.INTRA.POLAR.0>
0

>  <SCORE.INTRA.REPUL>
0

>  <SCORE.INTRA.REPUL.0>
0

>  <SCORE.INTRA.SOLV>
1.50566

>  <SCORE.INTRA.SOLV.lig_0>
-49.456

>  <SCORE.INTRA.VDW>
-0.582646

>  <SCORE.INTRA.VDW.0>
-0.478406

>  <SCORE.INTRA.norm>
-0.249616

>  <SCORE.RESTR>
0

>  <SCORE.RESTR.CAVITY>
0

>  <SCORE.RESTR.norm>
0

>  <SCORE.SYSTEM>
0

>  <SCORE.SYSTEM.CONST>
0

>  <SCORE.SYSTEM.DIHEDRAL>
0

>  <SCORE.SYSTEM.SOLV>
0

>  <SCORE.SYSTEM.norm>
0

>  <SCORE.heavy>
14

>  <SCORE.norm>
-0.492502

>  <RMSD>
5.206

$$$$
ligand
 OpenBabel11021811413D
libRbt.so/2013.1/901 2013/11/27
 14 13  0  0  0  0  0  0  0  0999 V2000
   47.4616    4.3515   12.8978 N   0  0  0  0  0  0  0  0  0  0  0  0
   46.3684    4.7400   13.8149 C   0  0  0  0  0  0  0  0  0  0  0  0
   46.7223    4.4027   15.2795 C   0  0  0  0  0  0  0  0  0  0  0  0
   46.8007    2.8986   15.5888 C   0  0  0  0  0  0  0  0  0  0  0  0
   45.4564    2.2647   15.5037 N   0  0  0  0  0  0  0  0  0  0  0  0
   45.4862    0.9131   16.1193 C   0  0  0  0  0  0  0  0  0  0  0  0
   44.6851    0.7606   17.4561 C   0  0  0  0  0  0  0  0  0  0  0  0
   45.2776    1.5672   18.6472 C   0  0  0  0  0  0  0  0  0  0  0  0
   45.1975    3.0712   18.4725 C   0  0  0  0  0  0  0  0  0  0  0  0
   45.7360    3.6823   19.6729 N   0  0  0  0  0  0  0  0  0  0  0  0
   45.9512    5.0809   19.3453 C   0  0  0  0  0  0  0  0  0  0  0  0
   45.9950    5.9469   20.5988 C   0  0  0  0  0  0  0  0  0  0  0  0
   46.3025    7.3863   20.1588 C   0  0  0  0  0  0  0  0  0  0  0  0
   45.1800    7.9962   19.4303 N   0  0  0  0  0  0  0  0  0  0  0  0
  1  2  1  0  0  0  0
  2  3  1  0  0  0  0
  3  4  1  0  0  0  0
  4  5  1  0  0  0  0
  5  6  1  0  0  0  0
  6  7  1  0  0  0  0
  7  8  1  0  0  0  0
  8  9  1  0  0  0  0
  9 10  1  0  0  0  0
 10 11  1  0  0  0  0
 11 12  1  0  0  0  0
 12 13  1  0  0  0  0
 13 14  1  0  0  0  0
M  END
>  <CHROM.1>
-67.80013287,-68.02652267,-166.15346247,111.14819864,-66.87919545,66.42327016
177.85282080,166.25324201,158.07112188,176.91683814,69.57831267,45.90144832
3.93275339,17.35633413,-1.34587888,1.26451795,0.73746031

>  <Name>
ligand

>  <RI>
0

>  <Rbt.Current_Directory>
/home/itssahil/PROJECTS/Mol_Feturizer/New_Systems/rnas/1TN2

>  <Rbt.Executable>
rbdock ($Id: //depot/dev/client3/rdock/2013.1/src/exe/rbdock.cxx#4 $)

>  <Rbt.Library>
libRbt.so (2013.1, Build901 2013/11/27)

>  <Rbt.Parameter_File>
/export/apps/rDock/src/rDock_2013.1_src/data/scripts/dock_solv.prm

>  <Rbt.Receptor>
prm/blind_docking_100.prm

>  <SCORE>
-5.43267

>  <SCORE.INTER>
-3.73755

>  <SCORE.INTER.CONST>
1

>  <SCORE.INTER.POLAR>
0

>  <SCORE.INTER.ROT>
11

>  <SCORE.INTER.SOLV>
12.7824

>  <SCORE.INTER.VDW>
-17.6858

>  <SCORE.INTER.norm>
-0.266968

>  <SCORE.INTRA>
-1.69513

>  <SCORE.INTRA.DIHEDRAL>
-4.79554

>  <SCORE.INTRA.DIHEDRAL.0>
7.79482

>  <SCORE.INTRA.POLAR>
0

>  <SCORE.INTRA.POLAR.0>
0

>  <SCORE.INTRA.REPUL>
0

>  <SCORE.INTRA.REPUL.0>
0

>  <SCORE.INTRA.SOLV>
3.24723

>  <SCORE.INTRA.SOLV.lig_0>
-49.456

>  <SCORE.INTRA.VDW>
-0.920971

>  <SCORE.INTRA.VDW.0>
-0.478406

>  <SCORE.INTRA.norm>
-0.12108

>  <SCORE.RESTR>
0

>  <SCORE.RESTR.CAVITY>
0

>  <SCORE.RESTR.norm>
0

>  <SCORE.SYSTEM>
0

>  <SCORE.SYSTEM.CONST>
0

>  <SCORE.SYSTEM.DIHEDRAL>
0

>  <SCORE.SYSTEM.SOLV>
0

>  <SCORE.SYSTEM.norm>
0

>  <SCORE.heavy>
14

>  <SCORE.norm>
-0.388048

>  <RMSD>
5.214

$$$$
ligand
 OpenBabel11021811413D
libRbt.so/2013.1/901 2013/11/27
 14 13  0  0  0  0  0  0  0  0999 V2000
   47.0861    7.6890   18.9122 N   0  0  0  0  0  0  0  0  0  0  0  0
   45.9271    7.0663   19.5876 C   0  0  0  0  0  0  0  0  0  0  0  0
   46.1538    5.5545   19.8047 C   0  0  0  0  0  0  0  0  0  0  0  0
   44.9495    4.8057   20.3987 C   0  0  0  0  0  0  0  0  0  0  0  0
   44.5275    5.4122   21.6912 N   0  0  0  0  0  0  0  0  0  0  0  0
   43.0934    5.7954   21.6345 C   0  0  0  0  0  0  0  0  0  0  0  0
   42.7466    6.9785   20.6691 C   0  0  0  0  0  0  0  0  0  0  0  0
   41.2747    7.4717   20.7720 C   0  0  0  0  0  0  0  0  0  0  0  0
   40.9058    8.5262   19.7470 C   0  0  0  0  0  0  0  0  0  0  0  0
   41.8309    9.6327   19.9024 N   0  0  0  0  0  0  0  0  0  0  0  0
   41.4586   10.6077   18.8923 C   0  0  0  0  0  0  0  0  0  0  0  0
   42.6668   11.0575   18.0792 C   0  0  0  0  0  0  0  0  0  0  0  0
   42.1936   12.1512   17.1098 C   0  0  0  0  0  0  0  0  0  0  0  0
   41.9160   13.4210   17.7977 N   0  0  0  0  0  0  0  0  0  0  0  0
  1  2  1  0  0  0  0
  2  3  1  0  0  0  0
  3  4  1  0  0  0  0
  4  5  1  0  0  0  0
  5  6  1  0  0  0  0
  6  7  1  0  0  0  0
  7  8  1  0  0  0  0
  8  9  1  0  0  0  0
  9 10  1  0  0  0  0
 10 11  1  0  0  0  0
 11 12  1  0  0  0  0
 12 13  1  0  0  0  0
 13 14  1  0  0  0  0
M  END
>  <CHROM.1>
-175.27243978,-56.55192903,124.16352700,-68.22003043,-172.51267928,-174.52147143
-56.75314975,179.10400570,-129.81969271,-176.17154926,72.95590809,43.33769298
8.29753267,19.64277976,-1.09203488,0.30353438,-0.53794635

>  <Name>
ligand

>  <RI>
0

>  <Rbt.Current_Directory>
/home/itssahil/PROJECTS/Mol_Feturizer/New_Systems/rnas/1TN2

>  <Rbt.Executable>
rbdock ($Id: //depot/dev/client3/rdock/2013.1/src/exe/rbdock.cxx#4 $)

>  <Rbt.Library>
libRbt.so (2013.1, Build901 2013/11/27)

>  <Rbt.Parameter_File>
/export/apps/rDock/src/rDock_2013.1_src/data/scripts/dock_solv.prm

>  <Rbt.Receptor>
prm/pocket_docking_8.prm

>  <SCORE>
-13.313

>  <SCORE.INTER>
-11.7916

>  <SCORE.INTER.CONST>
1

>  <SCORE.INTER.POLAR>
0

>  <SCORE.INTER.ROT>
11

>  <SCORE.INTER.SOLV>
19.0119

>  <SCORE.INTER.VDW>
-25.1317

>  <SCORE.INTER.norm>
-0.842259

>  <SCORE.INTRA>
-1.52132

>  <SCORE.INTRA.DIHEDRAL>
-4.26167

>  <SCORE.INTRA.DIHEDRAL.0>
7.79482

>  <SCORE.INTRA.POLAR>
0

>  <SCORE.INTRA.POLAR.0>
0

>  <SCORE.INTRA.REPUL>
0

>  <SCORE.INTRA.REPUL.0>
0

>  <SCORE.INTRA.SOLV>
1.4565

>  <SCORE.INTRA.SOLV.lig_0>
-49.456

>  <SCORE.INTRA.VDW>
-0.118735

>  <SCORE.INTRA.VDW.0>
-0.478406

>  <SCORE.INTRA.norm>
-0.108666

>  <SCORE.RESTR>
0

>  <SCORE.RESTR.CAVITY>
0

>  <SCORE.RESTR.norm>
0

>  <SCORE.SYSTEM>
0

>  <SCORE.SYSTEM.CONST>
0

>  <SCORE.SYSTEM.DIHEDRAL>
0

>  <SCORE.SYSTEM.SOLV>
0

>  <SCORE.SYSTEM.norm>
0

>  <SCORE.heavy>
14

>  <SCORE.norm>
-0.950925

>  <RMSD>
5.217

$$$$
ligand
 OpenBabel11021811413D
libRbt.so/2013.1/901 2013/11/27
 14 13  0  0  0  0  0  0  0  0999 V2000
   46.0870    8.6344   19.1723 N   0  0  0  0  0  0  0  0  0  0  0  0
   46.1592    7.4741   20.0864 C   0  0  0  0  0  0  0  0  0  0  0  0
   46.1110    6.1436   19.3043 C   0  0  0  0  0  0  0  0  0  0  0  0
   46.1928    4.8829   20.1807 C   0  0  0  0  0  0  0  0  0  0  0  0
   46.2365    3.6524   19.3439 N   0  0  0  0  0  0  0  0  0  0  0  0
   44.8743    3.0756   19.2076 C   0  0  0  0  0  0  0  0  0  0  0  0
   44.8166    1.5689   18.7848 C   0  0  0  0  0  0  0  0  0  0  0  0
   45.4053    1.2823   17.3735 C   0  0  0  0  0  0  0  0  0  0  0  0
   45.2909   -0.1665   16.9415 C   0  0  0  0  0  0  0  0  0  0  0  0
   45.8391   -0.2704   15.6025 N   0  0  0  0  0  0  0  0  0  0  0  0
   45.3088   -1.5045   15.0499 C   0  0  0  0  0  0  0  0  0  0  0  0
   45.7897   -1.7276   13.6208 C   0  0  0  0  0  0  0  0  0  0  0  0
   45.0921   -2.9880   13.0871 C   0  0  0  0  0  0  0  0  0  0  0  0
   43.6522   -2.7779   12.8741 N   0  0  0  0  0  0  0  0  0  0  0  0
  1  2  1  0  0  0  0
  2  3  1  0  0  0  0
  3  4  1  0  0  0  0
  4  5  1  0  0  0  0
  5  6  1  0  0  0  0
  6  7  1  0  0  0  0
  7  8  1  0  0  0  0
  8  9  1  0  0  0  0
  9 10  1  0  0  0  0
 10 11  1  0  0  0  0
 11 12  1  0  0  0  0
 12 13  1  0  0  0  0
 13 14  1  0  0  0  0
M  END
>  <CHROM.1>
179.52050738,-175.99771993,-96.10935059,-160.27989828,-63.40115958,-177.37631050
178.27547796,-160.66913838,178.95537954,-175.54972483,69.55667282,45.48970228
1.94837206,17.18797938,-0.84583668,-1.41564384,-1.83064412

>  <Name>
ligand

>  <RI>
0

>  <Rbt.Current_Directory>
/home/itssahil/PROJECTS/Mol_Feturizer/New_Systems/rnas/1TN2

>  <Rbt.Executable>
rbdock ($Id: //depot/dev/client3/rdock/2013.1/src/exe/rbdock.cxx#4 $)

>  <Rbt.Library>
libRbt.so (2013.1, Build901 2013/11/27)

>  <Rbt.Parameter_File>
/export/apps/rDock/src/rDock_2013.1_src/data/scripts/dock_solv.prm

>  <Rbt.Receptor>
prm/pocket_docking_7.prm

>  <SCORE>
-8.6641

>  <SCORE.INTER>
-5.65527

>  <SCORE.INTER.CONST>
1

>  <SCORE.INTER.POLAR>
0

>  <SCORE.INTER.ROT>
11

>  <SCORE.INTER.SOLV>
13.8014

>  <SCORE.INTER.VDW>
-19.304

>  <SCORE.INTER.norm>
-0.403948

>  <SCORE.INTRA>
-3.00883

>  <SCORE.INTRA.DIHEDRAL>
-5.8729

>  <SCORE.INTRA.DIHEDRAL.0>
7.79482

>  <SCORE.INTRA.POLAR>
0

>  <SCORE.INTRA.POLAR.0>
0

>  <SCORE.INTRA.REPUL>
0

>  <SCORE.INTRA.REPUL.0>
0

>  <SCORE.INTRA.SOLV>
1.04544

>  <SCORE.INTRA.SOLV.lig_0>
-49.456

>  <SCORE.INTRA.VDW>
-0.595097

>  <SCORE.INTRA.VDW.0>
-0.478406

>  <SCORE.INTRA.norm>
-0.214916

>  <SCORE.RESTR>
0

>  <SCORE.RESTR.CAVITY>
0

>  <SCORE.RESTR.norm>
0

>  <SCORE.SYSTEM>
0

>  <SCORE.SYSTEM.CONST>
0

>  <SCORE.SYSTEM.DIHEDRAL>
0

>  <SCORE.SYSTEM.SOLV>
0

>  <SCORE.SYSTEM.norm>
0

>  <SCORE.heavy>
14

>  <SCORE.norm>
-0.618864

>  <RMSD>
5.222

$$$$
ligand
 OpenBabel11021811413D
libRbt.so/2013.1/901 2013/11/27
 14 13  0  0  0  0  0  0  0  0999 V2000
   40.9360    7.6614   20.3779 N   0  0  0  0  0  0  0  0  0  0  0  0
   42.3825    7.5627   20.0862 C   0  0  0  0  0  0  0  0  0  0  0  0
   43.0315    6.4010   20.8693 C   0  0  0  0  0  0  0  0  0  0  0  0
   44.5377    6.2223   20.6175 C   0  0  0  0  0  0  0  0  0  0  0  0
   45.2997    7.4218   21.0614 N   0  0  0  0  0  0  0  0  0  0  0  0
   46.3553    7.7551   20.0706 C   0  0  0  0  0  0  0  0  0  0  0  0
   45.8601    8.4722   18.7696 C   0  0  0  0  0  0  0  0  0  0  0  0
   45.0867    9.7968   19.0297 C   0  0  0  0  0  0  0  0  0  0  0  0
   44.4622   10.3993   17.7863 C   0  0  0  0  0  0  0  0  0  0  0  0
   45.5405   10.7875   16.8971 N   0  0  0  0  0  0  0  0  0  0  0  0
   44.9907   10.7258   15.5541 C   0  0  0  0  0  0  0  0  0  0  0  0
   44.3220   12.0389   15.1643 C   0  0  0  0  0  0  0  0  0  0  0  0
   45.4139   13.1181   15.1095 C   0  0  0  0  0  0  0  0  0  0  0  0
   44.8667   14.4466   14.7960 N   0  0  0  0  0  0  0  0  0  0  0  0
  1  2  1  0  0  0  0
  2  3  1  0  0  0  0
  3  4  1  0  0  0  0
  4  5  1  0  0  0  0
  5  6  1  0  0  0  0
  6  7  1  0  0  0  0
  7  8  1  0  0  0  0
  8  9  1  0  0  0  0
  9 10  1  0  0  0  0
 10 11  1  0  0  0  0
 11 12  1  0  0  0  0
 12 13  1  0  0  0  0
 13 14  1  0  0  0  0
M  END
>  <CHROM.1>
179.68566985,62.70425560,-138.42378835,77.02897308,56.85538992,-172.86199876
-65.07197508,152.67160147,87.50105312,64.87831364,-177.56174125,44.50625770
9.48615816,18.29925838,1.73563156,-0.01060138,2.39427802

>  <Name>
ligand

>  <RI>
0

>  <Rbt.Current_Directory>
/home/itssahil/PROJECTS/Mol_Feturizer/New_Systems/rnas/1TN2

>  <Rbt.Executable>
rbdock ($Id: //depot/dev/client3/rdock/2013.1/src/exe/rbdock.cxx#4 $)

>  <Rbt.Library>
libRbt.so (2013.1, Build901 2013/11/27)

>  <Rbt.Parameter_File>
/export/apps/rDock/src/rDock_2013.1_src/data/scripts/dock_solv.prm

>  <Rbt.Receptor>
prm/pocket_docking_8.prm

>  <SCORE>
-5.88055

>  <SCORE.INTER>
-3.8135

>  <SCORE.INTER.CONST>
1

>  <SCORE.INTER.POLAR>
0

>  <SCORE.INTER.ROT>
11

>  <SCORE.INTER.SOLV>
13.2049

>  <SCORE.INTER.VDW>
-17.8773

>  <SCORE.INTER.norm>
-0.272393

>  <SCORE.INTRA>
-2.06705

>  <SCORE.INTRA.DIHEDRAL>
-5.1065

>  <SCORE.INTRA.DIHEDRAL.0>
7.79482

>  <SCORE.INTRA.POLAR>
0

>  <SCORE.INTRA.POLAR.0>
0

>  <SCORE.INTRA.REPUL>
0

>  <SCORE.INTRA.REPUL.0>
0

>  <SCORE.INTRA.SOLV>
1.48847

>  <SCORE.INTRA.SOLV.lig_0>
-49.456

>  <SCORE.INTRA.VDW>
-0.258041

>  <SCORE.INTRA.VDW.0>
-0.478406

>  <SCORE.INTRA.norm>
-0.147647

>  <SCORE.RESTR>
0

>  <SCORE.RESTR.CAVITY>
0

>  <SCORE.RESTR.norm>
0

>  <SCORE.SYSTEM>
0

>  <SCORE.SYSTEM.CONST>
0

>  <SCORE.SYSTEM.DIHEDRAL>
0

>  <SCORE.SYSTEM.SOLV>
0

>  <SCORE.SYSTEM.norm>
0

>  <SCORE.heavy>
14

>  <SCORE.norm>
-0.42004

>  <RMSD>
5.223

$$$$
ligand
 OpenBabel11021811413D
libRbt.so/2013.1/901 2013/11/27
 14 13  0  0  0  0  0  0  0  0999 V2000
   44.7769   12.2840   14.9028 N   0  0  0  0  0  0  0  0  0  0  0  0
   44.4770   13.3984   15.8277 C   0  0  0  0  0  0  0  0  0  0  0  0
   44.0791   12.8730   17.2240 C   0  0  0  0  0  0  0  0  0  0  0  0
   42.7944   12.0286   17.2477 C   0  0  0  0  0  0  0  0  0  0  0  0
   42.5417   11.4782   18.6078 N   0  0  0  0  0  0  0  0  0  0  0  0
   41.2962   10.6686   18.6107 C   0  0  0  0  0  0  0  0  0  0  0  0
   41.2162    9.5540   19.7077 C   0  0  0  0  0  0  0  0  0  0  0  0
   42.3235    8.4674   19.5911 C   0  0  0  0  0  0  0  0  0  0  0  0
   42.2882    7.4314   20.6976 C   0  0  0  0  0  0  0  0  0  0  0  0
   43.3624    6.4882   20.4508 N   0  0  0  0  0  0  0  0  0  0  0  0
   43.5479    5.7618   21.6949 C   0  0  0  0  0  0  0  0  0  0  0  0
   44.4196    4.5275   21.4953 C   0  0  0  0  0  0  0  0  0  0  0  0
   45.8317    5.0099   21.1303 C   0  0  0  0  0  0  0  0  0  0  0  0
   45.8722    5.6643   19.8139 N   0  0  0  0  0  0  0  0  0  0  0  0
  1  2  1  0  0  0  0
  2  3  1  0  0  0  0
  3  4  1  0  0  0  0
  4  5  1  0  0  0  0
  5  6  1  0  0  0  0
  6  7  1  0  0  0  0
  7  8  1  0  0  0  0
  8  9  1  0  0  0  0
  9 10  1  0  0  0  0
 10 11  1  0  0  0  0
 11 12  1  0  0  0  0
 12 13  1  0  0  0  0
 13 14  1  0  0  0  0
M  END
>  <CHROM.1>
-62.98468565,175.67453764,179.89470055,154.28718509,-61.51808207,176.90906019
179.55741453,163.94447576,166.98078657,66.48998333,-67.22261709,43.48738887
8.97395244,19.07184875,-1.66733572,-0.41150246,2.53884819

>  <Name>
ligand

>  <RI>
0

>  <Rbt.Current_Directory>
/home/itssahil/PROJECTS/Mol_Feturizer/New_Systems/rnas/1TN2

>  <Rbt.Executable>
rbdock ($Id: //depot/dev/client3/rdock/2013.1/src/exe/rbdock.cxx#4 $)

>  <Rbt.Library>
libRbt.so (2013.1, Build901 2013/11/27)

>  <Rbt.Parameter_File>
/export/apps/rDock/src/rDock_2013.1_src/data/scripts/dock_solv.prm

>  <Rbt.Receptor>
prm/pocket_docking_7.prm

>  <SCORE>
-11.0254

>  <SCORE.INTER>
-9.35717

>  <SCORE.INTER.CONST>
1

>  <SCORE.INTER.POLAR>
0

>  <SCORE.INTER.ROT>
11

>  <SCORE.INTER.SOLV>
16.8193

>  <SCORE.INTER.VDW>
-22.7779

>  <SCORE.INTER.norm>
-0.66837

>  <SCORE.INTRA>
-1.66819

>  <SCORE.INTRA.DIHEDRAL>
-6.48805

>  <SCORE.INTRA.DIHEDRAL.0>
7.79482

>  <SCORE.INTRA.POLAR>
0

>  <SCORE.INTRA.POLAR.0>
0

>  <SCORE.INTRA.REPUL>
0

>  <SCORE.INTRA.REPUL.0>
0

>  <SCORE.INTRA.SOLV>
4.23049

>  <SCORE.INTRA.SOLV.lig_0>
-49.456

>  <SCORE.INTRA.VDW>
-0.539414

>  <SCORE.INTRA.VDW.0>
-0.478406

>  <SCORE.INTRA.norm>
-0.119157

>  <SCORE.RESTR>
0

>  <SCORE.RESTR.CAVITY>
0

>  <SCORE.RESTR.norm>
0

>  <SCORE.SYSTEM>
0

>  <SCORE.SYSTEM.CONST>
0

>  <SCORE.SYSTEM.DIHEDRAL>
0

>  <SCORE.SYSTEM.SOLV>
0

>  <SCORE.SYSTEM.norm>
0

>  <SCORE.heavy>
14

>  <SCORE.norm>
-0.787526

>  <RMSD>
5.224

$$$$
ligand
 OpenBabel11021811413D
libRbt.so/2013.1/901 2013/11/27
 14 13  0  0  0  0  0  0  0  0999 V2000
   45.2218   -3.5946   12.7106 N   0  0  0  0  0  0  0  0  0  0  0  0
   44.1167   -3.2566   13.6333 C   0  0  0  0  0  0  0  0  0  0  0  0
   44.2630   -1.8186   14.1762 C   0  0  0  0  0  0  0  0  0  0  0  0
   45.5346   -1.5740   15.0053 C   0  0  0  0  0  0  0  0  0  0  0  0
   45.5534   -0.1925   15.5599 N   0  0  0  0  0  0  0  0  0  0  0  0
   45.4891   -0.2340   17.0434 C   0  0  0  0  0  0  0  0  0  0  0  0
   45.2248    1.1394   17.7479 C   0  0  0  0  0  0  0  0  0  0  0  0
   46.3361    2.2011   17.5068 C   0  0  0  0  0  0  0  0  0  0  0  0
   46.0110    3.5710   18.0693 C   0  0  0  0  0  0  0  0  0  0  0  0
   45.9225    3.4441   19.5117 N   0  0  0  0  0  0  0  0  0  0  0  0
   45.0408    4.5112   19.9517 C   0  0  0  0  0  0  0  0  0  0  0  0
   45.8187    5.6344   20.6274 C   0  0  0  0  0  0  0  0  0  0  0  0
   44.8140    6.7330   21.0064 C   0  0  0  0  0  0  0  0  0  0  0  0
   44.2387    7.3916   19.8240 N   0  0  0  0  0  0  0  0  0  0  0  0
  1  2  1  0  0  0  0
  2  3  1  0  0  0  0
  3  4  1  0  0  0  0
  4  5  1  0  0  0  0
  5  6  1  0  0  0  0
  6  7  1  0  0  0  0
  7  8  1  0  0  0  0
  8  9  1  0  0  0  0
  9 10  1  0  0  0  0
 10 11  1  0  0  0  0
 11 12  1  0  0  0  0
 12 13  1  0  0  0  0
 13 14  1  0  0  0  0
M  END
>  <CHROM.1>
-62.18449593,-176.40161961,115.29174633,-168.72476035,-62.42077136,174.04241297
64.10741429,-153.93953654,-105.87706467,177.85612871,-67.32207095,45.25610145
1.71109767,17.31258652,1.60305040,0.63911686,-2.52204682

>  <Name>
ligand

>  <RI>
0

>  <Rbt.Current_Directory>
/home/itssahil/PROJECTS/Mol_Feturizer/New_Systems/rnas/1TN2

>  <Rbt.Executable>
rbdock ($Id: //depot/dev/client3/rdock/2013.1/src/exe/rbdock.cxx#4 $)

>  <Rbt.Library>
libRbt.so (2013.1, Build901 2013/11/27)

>  <Rbt.Parameter_File>
/export/apps/rDock/src/rDock_2013.1_src/data/scripts/dock_solv.prm

>  <Rbt.Receptor>
prm/blind_docking_60.prm

>  <SCORE>
-8.22054

>  <SCORE.INTER>
-6.70292

>  <SCORE.INTER.CONST>
1

>  <SCORE.INTER.POLAR>
0

>  <SCORE.INTER.ROT>
11

>  <SCORE.INTER.SOLV>
15.0896

>  <SCORE.INTER.VDW>
-20.4318

>  <SCORE.INTER.norm>
-0.47878

>  <SCORE.INTRA>
-1.51762

>  <SCORE.INTRA.DIHEDRAL>
-4.47298

>  <SCORE.INTRA.DIHEDRAL.0>
7.79482

>  <SCORE.INTRA.POLAR>
0

>  <SCORE.INTRA.POLAR.0>
0

>  <SCORE.INTRA.REPUL>
0

>  <SCORE.INTRA.REPUL.0>
0

>  <SCORE.INTRA.SOLV>
2.28518

>  <SCORE.INTRA.SOLV.lig_0>
-49.456

>  <SCORE.INTRA.VDW>
-0.423717

>  <SCORE.INTRA.VDW.0>
-0.478406

>  <SCORE.INTRA.norm>
-0.108401

>  <SCORE.RESTR>
0

>  <SCORE.RESTR.CAVITY>
0

>  <SCORE.RESTR.norm>
0

>  <SCORE.SYSTEM>
0

>  <SCORE.SYSTEM.CONST>
0

>  <SCORE.SYSTEM.DIHEDRAL>
0

>  <SCORE.SYSTEM.SOLV>
0

>  <SCORE.SYSTEM.norm>
0

>  <SCORE.heavy>
14

>  <SCORE.norm>
-0.587181

>  <RMSD>
5.249

$$$$
ligand
 OpenBabel11021811413D
libRbt.so/2013.1/901 2013/11/27
 14 13  0  0  0  0  0  0  0  0999 V2000
   46.5611    4.3611   19.9018 N   0  0  0  0  0  0  0  0  0  0  0  0
   45.8230    4.9989   21.0133 C   0  0  0  0  0  0  0  0  0  0  0  0
   44.2970    4.8673   20.8180 C   0  0  0  0  0  0  0  0  0  0  0  0
   43.4514    5.5757   21.8889 C   0  0  0  0  0  0  0  0  0  0  0  0
   41.9972    5.4216   21.6098 N   0  0  0  0  0  0  0  0  0  0  0  0
   41.5656    6.4007   20.5793 C   0  0  0  0  0  0  0  0  0  0  0  0
   40.7709    7.6396   21.1138 C   0  0  0  0  0  0  0  0  0  0  0  0
   40.4426    8.7014   20.0251 C   0  0  0  0  0  0  0  0  0  0  0  0
   41.6648    9.3825   19.4410 C   0  0  0  0  0  0  0  0  0  0  0  0
   41.2013   10.3992   18.5160 N   0  0  0  0  0  0  0  0  0  0  0  0
   42.3758   11.1733   18.1542 C   0  0  0  0  0  0  0  0  0  0  0  0
   42.0292   12.2871   17.1731 C   0  0  0  0  0  0  0  0  0  0  0  0
   43.3225   13.0589   16.8703 C   0  0  0  0  0  0  0  0  0  0  0  0
   44.2773   12.2583   16.0892 N   0  0  0  0  0  0  0  0  0  0  0  0
  1  2  1  0  0  0  0
  2  3  1  0  0  0  0
  3  4  1  0  0  0  0
  4  5  1  0  0  0  0
  5  6  1  0  0  0  0
  6  7  1  0  0  0  0
  7  8  1  0  0  0  0
  8  9  1  0  0  0  0
  9 10  1  0  0  0  0
 10 11  1  0  0  0  0
 11 12  1  0  0  0  0
 12 13  1  0  0  0  0
 13 14  1  0  0  0  0
M  END
>  <CHROM.1>
-176.61581688,178.86626072,-80.55471380,-103.70326395,175.02541402,-65.12621580
-176.21257212,170.59454240,179.87909426,179.09275441,68.88934701,42.84113291
8.32335057,19.51402593,-1.37118491,0.33321129,-0.56636266

>  <Name>
ligand

>  <RI>
0

>  <Rbt.Current_Directory>
/home/itssahil/PROJECTS/Mol_Feturizer/New_Systems/rnas/1TN2

>  <Rbt.Executable>
rbdock ($Id: //depot/dev/client3/rdock/2013.1/src/exe/rbdock.cxx#4 $)

>  <Rbt.Library>
libRbt.so (2013.1, Build901 2013/11/27)

>  <Rbt.Parameter_File>
/export/apps/rDock/src/rDock_2013.1_src/data/scripts/dock_solv.prm

>  <Rbt.Receptor>
prm/pocket_docking_8.prm

>  <SCORE>
-12.9037

>  <SCORE.INTER>
-10.4188

>  <SCORE.INTER.CONST>
1

>  <SCORE.INTER.POLAR>
0

>  <SCORE.INTER.ROT>
11

>  <SCORE.INTER.SOLV>
19.4053

>  <SCORE.INTER.VDW>
-24.3477

>  <SCORE.INTER.norm>
-0.744201

>  <SCORE.INTRA>
-2.48489

>  <SCORE.INTRA.DIHEDRAL>
-5.81224

>  <SCORE.INTRA.DIHEDRAL.0>
7.79482

>  <SCORE.INTRA.POLAR>
0

>  <SCORE.INTRA.POLAR.0>
0

>  <SCORE.INTRA.REPUL>
0

>  <SCORE.INTRA.REPUL.0>
0

>  <SCORE.INTRA.SOLV>
0.837154

>  <SCORE.INTRA.SOLV.lig_0>
-49.456

>  <SCORE.INTRA.VDW>
0.00264765

>  <SCORE.INTRA.VDW.0>
-0.478406

>  <SCORE.INTRA.norm>
-0.177492

>  <SCORE.RESTR>
0

>  <SCORE.RESTR.CAVITY>
0

>  <SCORE.RESTR.norm>
0

>  <SCORE.SYSTEM>
0

>  <SCORE.SYSTEM.CONST>
0

>  <SCORE.SYSTEM.DIHEDRAL>
0

>  <SCORE.SYSTEM.SOLV>
0

>  <SCORE.SYSTEM.norm>
0

>  <SCORE.heavy>
14

>  <SCORE.norm>
-0.921694

>  <RMSD>
5.298

$$$$
ligand
 OpenBabel11021811413D
libRbt.so/2013.1/901 2013/11/27
 14 13  0  0  0  0  0  0  0  0999 V2000
   45.8407    3.9658   19.5447 N   0  0  0  0  0  0  0  0  0  0  0  0
   46.1128    4.7980   20.7366 C   0  0  0  0  0  0  0  0  0  0  0  0
   45.1121    5.9693   20.8396 C   0  0  0  0  0  0  0  0  0  0  0  0
   43.6510    5.5450   21.0613 C   0  0  0  0  0  0  0  0  0  0  0  0
   42.7502    6.7298   21.0979 N   0  0  0  0  0  0  0  0  0  0  0  0
   41.3399    6.2972   21.2737 C   0  0  0  0  0  0  0  0  0  0  0  0
   40.2908    7.4511   21.4149 C   0  0  0  0  0  0  0  0  0  0  0  0
   40.1364    8.3286   20.1395 C   0  0  0  0  0  0  0  0  0  0  0  0
   41.3408    9.2006   19.8429 C   0  0  0  0  0  0  0  0  0  0  0  0
   40.9576   10.1417   18.8076 N   0  0  0  0  0  0  0  0  0  0  0  0
   42.1887   10.7784   18.3730 C   0  0  0  0  0  0  0  0  0  0  0  0
   41.9184   11.8738   17.3482 C   0  0  0  0  0  0  0  0  0  0  0  0
   43.2759   12.3597   16.8183 C   0  0  0  0  0  0  0  0  0  0  0  0
   44.0809   13.0078   17.8646 N   0  0  0  0  0  0  0  0  0  0  0  0
  1  2  1  0  0  0  0
  2  3  1  0  0  0  0
  3  4  1  0  0  0  0
  4  5  1  0  0  0  0
  5  6  1  0  0  0  0
  6  7  1  0  0  0  0
  7  8  1  0  0  0  0
  8  9  1  0  0  0  0
  9 10  1  0  0  0  0
 10 11  1  0  0  0  0
 11 12  1  0  0  0  0
 12 13  1  0  0  0  0
 13 14  1  0  0  0  0
M  END
>  <CHROM.1>
64.55697454,-177.88853232,178.38068978,176.50000965,65.34033256,-69.52566159
-168.74906523,-169.39070212,-175.83822882,-172.85773575,-64.99377860,42.78518858
8.31756162,19.65460370,-1.28421338,0.30047158,-0.50273635

>  <Name>
ligand

>  <RI>
0

>  <Rbt.Current_Directory>
/home/itssahil/PROJECTS/Mol_Feturizer/New_Systems/rnas/1TN2

>  <Rbt.Executable>
rbdock ($Id: //depot/dev/client3/rdock/2013.1/src/exe/rbdock.cxx#4 $)

>  <Rbt.Library>
libRbt.so (2013.1, Build901 2013/11/27)

>  <Rbt.Parameter_File>
/export/apps/rDock/src/rDock_2013.1_src/data/scripts/dock_solv.prm

>  <Rbt.Receptor>
prm/blind_docking_80.prm

>  <SCORE>
-12.7163

>  <SCORE.INTER>
-10.1549

>  <SCORE.INTER.CONST>
1

>  <SCORE.INTER.POLAR>
0

>  <SCORE.INTER.ROT>
11

>  <SCORE.INTER.SOLV>
17.9667

>  <SCORE.INTER.VDW>
-23.6922

>  <SCORE.INTER.norm>
-0.725352

>  <SCORE.INTRA>
-2.56135

>  <SCORE.INTRA.DIHEDRAL>
-6.3534

>  <SCORE.INTRA.DIHEDRAL.0>
7.79482

>  <SCORE.INTRA.POLAR>
0

>  <SCORE.INTRA.POLAR.0>
0

>  <SCORE.INTRA.REPUL>
0

>  <SCORE.INTRA.REPUL.0>
0

>  <SCORE.INTRA.SOLV>
2.31815

>  <SCORE.INTRA.SOLV.lig_0>
-49.456

>  <SCORE.INTRA.VDW>
-0.543727

>  <SCORE.INTRA.VDW.0>
-0.478406

>  <SCORE.INTRA.norm>
-0.182954

>  <SCORE.RESTR>
0

>  <SCORE.RESTR.CAVITY>
0

>  <SCORE.RESTR.norm>
0

>  <SCORE.SYSTEM>
0

>  <SCORE.SYSTEM.CONST>
0

>  <SCORE.SYSTEM.DIHEDRAL>
0

>  <SCORE.SYSTEM.SOLV>
0

>  <SCORE.SYSTEM.norm>
0

>  <SCORE.heavy>
14

>  <SCORE.norm>
-0.908306

>  <RMSD>
5.352

$$$$
ligand
 OpenBabel11021811413D
libRbt.so/2013.1/901 2013/11/27
 14 13  0  0  0  0  0  0  0  0999 V2000
   46.7951    7.6357   19.3689 N   0  0  0  0  0  0  0  0  0  0  0  0
   45.5087    7.0715   19.8317 C   0  0  0  0  0  0  0  0  0  0  0  0
   45.7233    5.7494   20.5996 C   0  0  0  0  0  0  0  0  0  0  0  0
   44.4278    5.0396   21.0260 C   0  0  0  0  0  0  0  0  0  0  0  0
   43.5987    5.9180   21.8963 N   0  0  0  0  0  0  0  0  0  0  0  0
   42.1619    5.7799   21.5451 C   0  0  0  0  0  0  0  0  0  0  0  0
   41.4164    7.1149   21.2076 C   0  0  0  0  0  0  0  0  0  0  0  0
   42.0077    7.8823   19.9903 C   0  0  0  0  0  0  0  0  0  0  0  0
   41.3226    9.2043   19.7042 C   0  0  0  0  0  0  0  0  0  0  0  0
   41.9549    9.7826   18.5337 N   0  0  0  0  0  0  0  0  0  0  0  0
   41.6758   11.2068   18.5934 C   0  0  0  0  0  0  0  0  0  0  0  0
   42.0985   11.9122   17.3100 C   0  0  0  0  0  0  0  0  0  0  0  0
   43.6184   11.7424   17.1653 C   0  0  0  0  0  0  0  0  0  0  0  0
   44.1497   12.4652   15.9999 N   0  0  0  0  0  0  0  0  0  0  0  0
  1  2  1  0  0  0  0
  2  3  1  0  0  0  0
  3  4  1  0  0  0  0
  4  5  1  0  0  0  0
  5  6  1  0  0  0  0
  6  7  1  0  0  0  0
  7  8  1  0  0  0  0
  8  9  1  0  0  0  0
  9 10  1  0  0  0  0
 10 11  1  0  0  0  0
 11 12  1  0  0  0  0
 12 13  1  0  0  0  0
 13 14  1  0  0  0  0
M  END
>  <CHROM.1>
-175.63890724,-58.66635079,139.73019207,-125.62299457,60.53739147,-177.43182674
-178.62642468,-158.19598497,-171.19743206,-62.25193176,-176.17281644,43.31820309
8.46442827,19.48393046,-1.38395675,0.24908395,-0.62499396

>  <Name>
ligand

>  <RI>
0

>  <Rbt.Current_Directory>
/home/itssahil/PROJECTS/Mol_Feturizer/New_Systems/rnas/1TN2

>  <Rbt.Executable>
rbdock ($Id: //depot/dev/client3/rdock/2013.1/src/exe/rbdock.cxx#4 $)

>  <Rbt.Library>
libRbt.so (2013.1, Build901 2013/11/27)

>  <Rbt.Parameter_File>
/export/apps/rDock/src/rDock_2013.1_src/data/scripts/dock_solv.prm

>  <Rbt.Receptor>
prm/pocket_docking_7.prm

>  <SCORE>
-14.0022

>  <SCORE.INTER>
-10.9618

>  <SCORE.INTER.CONST>
1

>  <SCORE.INTER.POLAR>
0

>  <SCORE.INTER.ROT>
11

>  <SCORE.INTER.SOLV>
16.9958

>  <SCORE.INTER.VDW>
-23.9065

>  <SCORE.INTER.norm>
-0.782988

>  <SCORE.INTRA>
-3.04032

>  <SCORE.INTRA.DIHEDRAL>
-5.11175

>  <SCORE.INTRA.DIHEDRAL.0>
7.79482

>  <SCORE.INTRA.POLAR>
0

>  <SCORE.INTRA.POLAR.0>
0

>  <SCORE.INTRA.REPUL>
0

>  <SCORE.INTRA.REPUL.0>
0

>  <SCORE.INTRA.SOLV>
1.10486

>  <SCORE.INTRA.SOLV.lig_0>
-49.456

>  <SCORE.INTRA.VDW>
-1.03688

>  <SCORE.INTRA.VDW.0>
-0.478406

>  <SCORE.INTRA.norm>
-0.217166

>  <SCORE.RESTR>
0

>  <SCORE.RESTR.CAVITY>
0

>  <SCORE.RESTR.norm>
0

>  <SCORE.SYSTEM>
0

>  <SCORE.SYSTEM.CONST>
0

>  <SCORE.SYSTEM.DIHEDRAL>
0

>  <SCORE.SYSTEM.SOLV>
0

>  <SCORE.SYSTEM.norm>
0

>  <SCORE.heavy>
14

>  <SCORE.norm>
-1.00015

>  <RMSD>
5.368

$$$$
ligand
 OpenBabel11021811413D
libRbt.so/2013.1/901 2013/11/27
 14 13  0  0  0  0  0  0  0  0999 V2000
   39.3083    6.7127   21.0323 N   0  0  0  0  0  0  0  0  0  0  0  0
   39.8371    8.0494   20.6851 C   0  0  0  0  0  0  0  0  0  0  0  0
   41.2018    7.9415   19.9711 C   0  0  0  0  0  0  0  0  0  0  0  0
   42.3272    7.3408   20.8293 C   0  0  0  0  0  0  0  0  0  0  0  0
   43.5877    7.2166   20.0469 N   0  0  0  0  0  0  0  0  0  0  0  0
   44.7084    6.8213   20.9383 C   0  0  0  0  0  0  0  0  0  0  0  0
   46.1126    6.7148   20.2534 C   0  0  0  0  0  0  0  0  0  0  0  0
   46.6291    8.0535   19.6520 C   0  0  0  0  0  0  0  0  0  0  0  0
   45.8234    8.5469   18.4662 C   0  0  0  0  0  0  0  0  0  0  0  0
   46.4213    9.7892   18.0151 N   0  0  0  0  0  0  0  0  0  0  0  0
   45.5498   10.2933   16.9681 C   0  0  0  0  0  0  0  0  0  0  0  0
   44.5746   11.3334   17.5070 C   0  0  0  0  0  0  0  0  0  0  0  0
   43.6596   11.7570   16.3481 C   0  0  0  0  0  0  0  0  0  0  0  0
   42.7180   12.8158   16.7421 N   0  0  0  0  0  0  0  0  0  0  0  0
  1  2  1  0  0  0  0
  2  3  1  0  0  0  0
  3  4  1  0  0  0  0
  4  5  1  0  0  0  0
  5  6  1  0  0  0  0
  6  7  1  0  0  0  0
  7  8  1  0  0  0  0
  8  9  1  0  0  0  0
  9 10  1  0  0  0  0
 10 11  1  0  0  0  0
 11 12  1  0  0  0  0
 12 13  1  0  0  0  0
 13 14  1  0  0  0  0
M  END
>  <CHROM.1>
-63.90929894,177.43692888,171.87714457,-177.44193962,61.96884220,-67.27588010
-179.79601957,-174.63483598,97.08997749,-177.47922976,-177.04991181,43.74736805
8.81316474,19.10398911,2.20985422,-0.13156842,2.48127955

>  <Name>
ligand

>  <RI>
0

>  <Rbt.Current_Directory>
/home/itssahil/PROJECTS/Mol_Feturizer/New_Systems/rnas/1TN2

>  <Rbt.Executable>
rbdock ($Id: //depot/dev/client3/rdock/2013.1/src/exe/rbdock.cxx#4 $)

>  <Rbt.Library>
libRbt.so (2013.1, Build901 2013/11/27)

>  <Rbt.Parameter_File>
/export/apps/rDock/src/rDock_2013.1_src/data/scripts/dock_solv.prm

>  <Rbt.Receptor>
prm/pocket_docking_8.prm

>  <SCORE>
-9.3553

>  <SCORE.INTER>
-6.48546

>  <SCORE.INTER.CONST>
1

>  <SCORE.INTER.POLAR>
0

>  <SCORE.INTER.ROT>
11

>  <SCORE.INTER.SOLV>
10.4381

>  <SCORE.INTER.VDW>
-18.7363

>  <SCORE.INTER.norm>
-0.463247

>  <SCORE.INTRA>
-2.86984

>  <SCORE.INTRA.DIHEDRAL>
-6.52132

>  <SCORE.INTRA.DIHEDRAL.0>
7.79482

>  <SCORE.INTRA.POLAR>
0

>  <SCORE.INTRA.POLAR.0>
0

>  <SCORE.INTRA.REPUL>
0

>  <SCORE.INTRA.REPUL.0>
0

>  <SCORE.INTRA.SOLV>
1.65089

>  <SCORE.INTRA.SOLV.lig_0>
-49.456

>  <SCORE.INTRA.VDW>
-0.434621

>  <SCORE.INTRA.VDW.0>
-0.478406

>  <SCORE.INTRA.norm>
-0.204988

>  <SCORE.RESTR>
0

>  <SCORE.RESTR.CAVITY>
0

>  <SCORE.RESTR.norm>
0

>  <SCORE.SYSTEM>
0

>  <SCORE.SYSTEM.CONST>
0

>  <SCORE.SYSTEM.DIHEDRAL>
0

>  <SCORE.SYSTEM.SOLV>
0

>  <SCORE.SYSTEM.norm>
0

>  <SCORE.heavy>
14

>  <SCORE.norm>
-0.668235

>  <RMSD>
5.380

$$$$
ligand
 OpenBabel11021811413D
libRbt.so/2013.1/901 2013/11/27
 14 13  0  0  0  0  0  0  0  0999 V2000
   43.6833   -2.9753   12.9392 N   0  0  0  0  0  0  0  0  0  0  0  0
   44.5376   -2.1993   13.8639 C   0  0  0  0  0  0  0  0  0  0  0  0
   44.4006   -0.6825   13.6101 C   0  0  0  0  0  0  0  0  0  0  0  0
   45.3510    0.1940   14.4422 C   0  0  0  0  0  0  0  0  0  0  0  0
   45.1166    0.0019   15.8998 N   0  0  0  0  0  0  0  0  0  0  0  0
   44.3717    1.1601   16.4570 C   0  0  0  0  0  0  0  0  0  0  0  0
   44.3284    1.2483   18.0198 C   0  0  0  0  0  0  0  0  0  0  0  0
   45.7197    1.4615   18.6826 C   0  0  0  0  0  0  0  0  0  0  0  0
   46.2860    2.8548   18.4905 C   0  0  0  0  0  0  0  0  0  0  0  0
   45.3815    3.7893   19.1331 N   0  0  0  0  0  0  0  0  0  0  0  0
   46.2161    4.8599   19.6496 C   0  0  0  0  0  0  0  0  0  0  0  0
   45.3832    6.0706   20.0541 C   0  0  0  0  0  0  0  0  0  0  0  0
   44.5125    5.6570   21.2502 C   0  0  0  0  0  0  0  0  0  0  0  0
   43.3802    4.8098   20.8465 N   0  0  0  0  0  0  0  0  0  0  0  0
  1  2  1  0  0  0  0
  2  3  1  0  0  0  0
  3  4  1  0  0  0  0
  4  5  1  0  0  0  0
  5  6  1  0  0  0  0
  6  7  1  0  0  0  0
  7  8  1  0  0  0  0
  8  9  1  0  0  0  0
  9 10  1  0  0  0  0
 10 11  1  0  0  0  0
 11 12  1  0  0  0  0
 12 13  1  0  0  0  0
 13 14  1  0  0  0  0
M  END
>  <CHROM.1>
-174.70908515,-60.09860141,-104.10201160,-167.09114110,64.20955111,72.50981156
62.39404402,146.45650179,166.34260148,66.19974831,-75.29399801,44.90509270
1.87521002,17.38140060,1.64017998,-0.34324650,-2.34436819

>  <Name>
ligand

>  <RI>
0

>  <Rbt.Current_Directory>
/home/itssahil/PROJECTS/Mol_Feturizer/New_Systems/rnas/1TN2

>  <Rbt.Executable>
rbdock ($Id: //depot/dev/client3/rdock/2013.1/src/exe/rbdock.cxx#4 $)

>  <Rbt.Library>
libRbt.so (2013.1, Build901 2013/11/27)

>  <Rbt.Parameter_File>
/export/apps/rDock/src/rDock_2013.1_src/data/scripts/dock_solv.prm

>  <Rbt.Receptor>
prm/blind_docking_80.prm

>  <SCORE>
-6.61587

>  <SCORE.INTER>
-6.29185

>  <SCORE.INTER.CONST>
1

>  <SCORE.INTER.POLAR>
0

>  <SCORE.INTER.ROT>
11

>  <SCORE.INTER.SOLV>
14.3893

>  <SCORE.INTER.VDW>
-19.9243

>  <SCORE.INTER.norm>
-0.449418

>  <SCORE.INTRA>
-0.324023

>  <SCORE.INTRA.DIHEDRAL>
-3.99158

>  <SCORE.INTRA.DIHEDRAL.0>
7.79482

>  <SCORE.INTRA.POLAR>
0

>  <SCORE.INTRA.POLAR.0>
0

>  <SCORE.INTRA.REPUL>
0

>  <SCORE.INTRA.REPUL.0>
0

>  <SCORE.INTRA.SOLV>
4.27727

>  <SCORE.INTRA.SOLV.lig_0>
-49.456

>  <SCORE.INTRA.VDW>
-0.466866

>  <SCORE.INTRA.VDW.0>
-0.478406

>  <SCORE.INTRA.norm>
-0.0231445

>  <SCORE.RESTR>
0

>  <SCORE.RESTR.CAVITY>
0

>  <SCORE.RESTR.norm>
0

>  <SCORE.SYSTEM>
0

>  <SCORE.SYSTEM.CONST>
0

>  <SCORE.SYSTEM.DIHEDRAL>
0

>  <SCORE.SYSTEM.SOLV>
0

>  <SCORE.SYSTEM.norm>
0

>  <SCORE.heavy>
14

>  <SCORE.norm>
-0.472562

>  <RMSD>
5.402

$$$$
ligand
 OpenBabel11021811413D
libRbt.so/2013.1/901 2013/11/27
 14 13  0  0  0  0  0  0  0  0999 V2000
   43.9373    7.4237   20.5687 N   0  0  0  0  0  0  0  0  0  0  0  0
   44.9148    6.5384   19.8995 C   0  0  0  0  0  0  0  0  0  0  0  0
   45.3385    5.3759   20.8231 C   0  0  0  0  0  0  0  0  0  0  0  0
   46.3018    4.3654   20.1789 C   0  0  0  0  0  0  0  0  0  0  0  0
   45.6656    3.6868   19.0165 N   0  0  0  0  0  0  0  0  0  0  0  0
   46.5140    2.5588   18.5532 C   0  0  0  0  0  0  0  0  0  0  0  0
   46.0884    1.9053   17.1953 C   0  0  0  0  0  0  0  0  0  0  0  0
   44.6881    1.2281   17.2276 C   0  0  0  0  0  0  0  0  0  0  0  0
   44.2726    0.6100   15.9070 C   0  0  0  0  0  0  0  0  0  0  0  0
   45.1610   -0.5066   15.6457 N   0  0  0  0  0  0  0  0  0  0  0  0
   44.6498   -1.1502   14.4481 C   0  0  0  0  0  0  0  0  0  0  0  0
   44.6150   -2.6663   14.6013 C   0  0  0  0  0  0  0  0  0  0  0  0
   44.0180   -3.2501   13.3119 C   0  0  0  0  0  0  0  0  0  0  0  0
   44.9032   -3.0579   12.1533 N   0  0  0  0  0  0  0  0  0  0  0  0
  1  2  1  0  0  0  0
  2  3  1  0  0  0  0
  3  4  1  0  0  0  0
  4  5  1  0  0  0  0
  5  6  1  0  0  0  0
  6  7  1  0  0  0  0
  7  8  1  0  0  0  0
  8  9  1  0  0  0  0
  9 10  1  0  0  0  0
 10 11  1  0  0  0  0
 11 12  1  0  0  0  0
 12 13  1  0  0  0  0
 13 14  1  0  0  0  0
M  END
>  <CHROM.1>
177.07061137,-62.60661247,-170.35581469,-170.27816384,-63.57003039,179.35387532
66.81172965,174.45697997,-135.03207907,178.05857670,67.53623082,45.07636274
1.64713175,17.10940299,1.50302602,-0.53579694,0.63903604

>  <Name>
ligand

>  <RI>
0

>  <Rbt.Current_Directory>
/home/itssahil/PROJECTS/Mol_Feturizer/New_Systems/rnas/1TN2

>  <Rbt.Executable>
rbdock ($Id: //depot/dev/client3/rdock/2013.1/src/exe/rbdock.cxx#4 $)

>  <Rbt.Library>
libRbt.so (2013.1, Build901 2013/11/27)

>  <Rbt.Parameter_File>
/export/apps/rDock/src/rDock_2013.1_src/data/scripts/dock_solv.prm

>  <Rbt.Receptor>
prm/blind_docking_60.prm

>  <SCORE>
-8.75381

>  <SCORE.INTER>
-5.95425

>  <SCORE.INTER.CONST>
1

>  <SCORE.INTER.POLAR>
0

>  <SCORE.INTER.ROT>
11

>  <SCORE.INTER.SOLV>
14.132

>  <SCORE.INTER.VDW>
-19.6135

>  <SCORE.INTER.norm>
-0.425303

>  <SCORE.INTRA>
-2.79957

>  <SCORE.INTRA.DIHEDRAL>
-6.08728

>  <SCORE.INTRA.DIHEDRAL.0>
7.79482

>  <SCORE.INTRA.POLAR>
0

>  <SCORE.INTRA.POLAR.0>
0

>  <SCORE.INTRA.REPUL>
0

>  <SCORE.INTRA.REPUL.0>
0

>  <SCORE.INTRA.SOLV>
1.73327

>  <SCORE.INTRA.SOLV.lig_0>
-49.456

>  <SCORE.INTRA.VDW>
-0.622563

>  <SCORE.INTRA.VDW.0>
-0.478406

>  <SCORE.INTRA.norm>
-0.199969

>  <SCORE.RESTR>
0

>  <SCORE.RESTR.CAVITY>
0

>  <SCORE.RESTR.norm>
0

>  <SCORE.SYSTEM>
0

>  <SCORE.SYSTEM.CONST>
0

>  <SCORE.SYSTEM.DIHEDRAL>
0

>  <SCORE.SYSTEM.SOLV>
0

>  <SCORE.SYSTEM.norm>
0

>  <SCORE.heavy>
14

>  <SCORE.norm>
-0.625272

>  <RMSD>
5.421

$$$$
ligand
 OpenBabel11021811413D
libRbt.so/2013.1/901 2013/11/27
 14 13  0  0  0  0  0  0  0  0999 V2000
   48.0278   -1.3147   11.9269 N   0  0  0  0  0  0  0  0  0  0  0  0
   47.6355   -1.0663   13.3310 C   0  0  0  0  0  0  0  0  0  0  0  0
   46.3273   -1.8067   13.6841 C   0  0  0  0  0  0  0  0  0  0  0  0
   45.8019   -1.5357   15.1035 C   0  0  0  0  0  0  0  0  0  0  0  0
   45.4163   -0.1071   15.2669 N   0  0  0  0  0  0  0  0  0  0  0  0
   45.1409    0.1901   16.6961 C   0  0  0  0  0  0  0  0  0  0  0  0
   44.1207    1.3479   16.9622 C   0  0  0  0  0  0  0  0  0  0  0  0
   43.8633    1.6336   18.4696 C   0  0  0  0  0  0  0  0  0  0  0  0
   45.0499    2.2404   19.1925 C   0  0  0  0  0  0  0  0  0  0  0  0
   45.1459    3.6307   18.7896 N   0  0  0  0  0  0  0  0  0  0  0  0
   46.1573    4.2245   19.6464 C   0  0  0  0  0  0  0  0  0  0  0  0
   46.2529    5.7310   19.4350 C   0  0  0  0  0  0  0  0  0  0  0  0
   44.9542    6.3579   19.9645 C   0  0  0  0  0  0  0  0  0  0  0  0
   44.9060    7.8102   19.7385 N   0  0  0  0  0  0  0  0  0  0  0  0
  1  2  1  0  0  0  0
  2  3  1  0  0  0  0
  3  4  1  0  0  0  0
  4  5  1  0  0  0  0
  5  6  1  0  0  0  0
  6  7  1  0  0  0  0
  7  8  1  0  0  0  0
  8  9  1  0  0  0  0
  9 10  1  0  0  0  0
 10 11  1  0  0  0  0
 11 12  1  0  0  0  0
 12 13  1  0  0  0  0
 13 14  1  0  0  0  0
M  END
>  <CHROM.1>
-176.55571538,64.53324310,-170.05236856,-152.06088386,-179.73931281,69.02291595
74.89113719,171.65581096,-173.69455571,68.21518768,-176.69700169,45.62846395
1.95233326,17.01500756,-1.34439714,0.78285312,0.54637918

>  <Name>
ligand

>  <RI>
0

>  <Rbt.Current_Directory>
/home/itssahil/PROJECTS/Mol_Feturizer/New_Systems/rnas/1TN2

>  <Rbt.Executable>
rbdock ($Id: //depot/dev/client3/rdock/2013.1/src/exe/rbdock.cxx#4 $)

>  <Rbt.Library>
libRbt.so (2013.1, Build901 2013/11/27)

>  <Rbt.Parameter_File>
/export/apps/rDock/src/rDock_2013.1_src/data/scripts/dock_solv.prm

>  <Rbt.Receptor>
prm/blind_docking_80.prm

>  <SCORE>
-5.79694

>  <SCORE.INTER>
-3.09912

>  <SCORE.INTER.CONST>
1

>  <SCORE.INTER.POLAR>
0

>  <SCORE.INTER.ROT>
11

>  <SCORE.INTER.SOLV>
11.9982

>  <SCORE.INTER.VDW>
-16.9988

>  <SCORE.INTER.norm>
-0.221366

>  <SCORE.INTRA>
-2.69782

>  <SCORE.INTRA.DIHEDRAL>
-5.54363

>  <SCORE.INTRA.DIHEDRAL.0>
7.79482

>  <SCORE.INTRA.POLAR>
0

>  <SCORE.INTRA.POLAR.0>
0

>  <SCORE.INTRA.REPUL>
0

>  <SCORE.INTRA.REPUL.0>
0

>  <SCORE.INTRA.SOLV>
1.20537

>  <SCORE.INTRA.SOLV.lig_0>
-49.456

>  <SCORE.INTRA.VDW>
-0.528688

>  <SCORE.INTRA.VDW.0>
-0.478406

>  <SCORE.INTRA.norm>
-0.192701

>  <SCORE.RESTR>
0

>  <SCORE.RESTR.CAVITY>
0

>  <SCORE.RESTR.norm>
0

>  <SCORE.SYSTEM>
0

>  <SCORE.SYSTEM.CONST>
0

>  <SCORE.SYSTEM.DIHEDRAL>
0

>  <SCORE.SYSTEM.SOLV>
0

>  <SCORE.SYSTEM.norm>
0

>  <SCORE.heavy>
14

>  <SCORE.norm>
-0.414067

>  <RMSD>
5.439

$$$$
ligand
 OpenBabel11021811413D
libRbt.so/2013.1/901 2013/11/27
 14 13  0  0  0  0  0  0  0  0999 V2000
   43.7763   12.3509   17.6571 N   0  0  0  0  0  0  0  0  0  0  0  0
   42.3690   11.9531   17.4371 C   0  0  0  0  0  0  0  0  0  0  0  0
   41.8195   11.1572   18.6406 C   0  0  0  0  0  0  0  0  0  0  0  0
   42.5203    9.8119   18.8919 C   0  0  0  0  0  0  0  0  0  0  0  0
   41.9194    9.1055   20.0564 N   0  0  0  0  0  0  0  0  0  0  0  0
   40.5448    8.6489   19.7264 C   0  0  0  0  0  0  0  0  0  0  0  0
   39.7731    7.9328   20.8856 C   0  0  0  0  0  0  0  0  0  0  0  0
   40.1418    6.4316   21.0617 C   0  0  0  0  0  0  0  0  0  0  0  0
   41.4984    6.2016   21.6987 C   0  0  0  0  0  0  0  0  0  0  0  0
   42.5090    6.5604   20.7219 N   0  0  0  0  0  0  0  0  0  0  0  0
   43.6466    5.6984   20.9912 C   0  0  0  0  0  0  0  0  0  0  0  0
   44.9355    6.2828   20.4251 C   0  0  0  0  0  0  0  0  0  0  0  0
   46.0510    5.2502   20.6475 C   0  0  0  0  0  0  0  0  0  0  0  0
   45.8208    4.0117   19.8886 N   0  0  0  0  0  0  0  0  0  0  0  0
  1  2  1  0  0  0  0
  2  3  1  0  0  0  0
  3  4  1  0  0  0  0
  4  5  1  0  0  0  0
  5  6  1  0  0  0  0
  6  7  1  0  0  0  0
  7  8  1  0  0  0  0
  8  9  1  0  0  0  0
  9 10  1  0  0  0  0
 10 11  1  0  0  0  0
 11 12  1  0  0  0  0
 12 13  1  0  0  0  0
 13 14  1  0  0  0  0
M  END
>  <CHROM.1>
-63.89123915,-179.32008473,69.05002970,-177.86160783,-81.32017380,74.26365013
-71.75603646,-149.00352669,-158.68110032,-175.05866069,64.65222199,42.66576600
7.95691174,19.90940651,-1.90180623,-0.27269908,2.67072063

>  <Name>
ligand

>  <RI>
0

>  <Rbt.Current_Directory>
/home/itssahil/PROJECTS/Mol_Feturizer/New_Systems/rnas/1TN2

>  <Rbt.Executable>
rbdock ($Id: //depot/dev/client3/rdock/2013.1/src/exe/rbdock.cxx#4 $)

>  <Rbt.Library>
libRbt.so (2013.1, Build901 2013/11/27)

>  <Rbt.Parameter_File>
/export/apps/rDock/src/rDock_2013.1_src/data/scripts/dock_solv.prm

>  <Rbt.Receptor>
prm/pocket_docking_7.prm

>  <SCORE>
-9.27621

>  <SCORE.INTER>
-9.86847

>  <SCORE.INTER.CONST>
1

>  <SCORE.INTER.POLAR>
0

>  <SCORE.INTER.ROT>
11

>  <SCORE.INTER.SOLV>
15.8577

>  <SCORE.INTER.VDW>
-22.7982

>  <SCORE.INTER.norm>
-0.704891

>  <SCORE.INTRA>
0.592258

>  <SCORE.INTRA.DIHEDRAL>
-3.65549

>  <SCORE.INTRA.DIHEDRAL.0>
7.79482

>  <SCORE.INTRA.POLAR>
0

>  <SCORE.INTRA.POLAR.0>
0

>  <SCORE.INTRA.REPUL>
0

>  <SCORE.INTRA.REPUL.0>
0

>  <SCORE.INTRA.SOLV>
4.72385

>  <SCORE.INTRA.SOLV.lig_0>
-49.456

>  <SCORE.INTRA.VDW>
0.0580779

>  <SCORE.INTRA.VDW.0>
-0.478406

>  <SCORE.INTRA.norm>
0.0423041

>  <SCORE.RESTR>
0

>  <SCORE.RESTR.CAVITY>
0

>  <SCORE.RESTR.norm>
0

>  <SCORE.SYSTEM>
0

>  <SCORE.SYSTEM.CONST>
0

>  <SCORE.SYSTEM.DIHEDRAL>
0

>  <SCORE.SYSTEM.SOLV>
0

>  <SCORE.SYSTEM.norm>
0

>  <SCORE.heavy>
14

>  <SCORE.norm>
-0.662586

>  <RMSD>
5.446

$$$$
ligand
 OpenBabel11021811413D
libRbt.so/2013.1/901 2013/11/27
 14 13  0  0  0  0  0  0  0  0999 V2000
   47.9077    0.2564   13.2365 N   0  0  0  0  0  0  0  0  0  0  0  0
   46.7620    0.0395   14.1461 C   0  0  0  0  0  0  0  0  0  0  0  0
   46.6440   -1.4459   14.5505 C   0  0  0  0  0  0  0  0  0  0  0  0
   45.5159   -1.7492   15.5502 C   0  0  0  0  0  0  0  0  0  0  0  0
   45.7925   -1.1254   16.8734 N   0  0  0  0  0  0  0  0  0  0  0  0
   45.0705    0.1675   16.9923 C   0  0  0  0  0  0  0  0  0  0  0  0
   45.8851    1.3409   17.6340 C   0  0  0  0  0  0  0  0  0  0  0  0
   45.1496    2.7116   17.6112 C   0  0  0  0  0  0  0  0  0  0  0  0
   45.9727    3.8610   18.1589 C   0  0  0  0  0  0  0  0  0  0  0  0
   46.1729    3.6222   19.5757 N   0  0  0  0  0  0  0  0  0  0  0  0
   46.1652    4.9312   20.2050 C   0  0  0  0  0  0  0  0  0  0  0  0
   45.1687    4.9904   21.3568 C   0  0  0  0  0  0  0  0  0  0  0  0
   43.7625    4.8131   20.7643 C   0  0  0  0  0  0  0  0  0  0  0  0
   42.7240    4.7608   21.8042 N   0  0  0  0  0  0  0  0  0  0  0  0
  1  2  1  0  0  0  0
  2  3  1  0  0  0  0
  3  4  1  0  0  0  0
  4  5  1  0  0  0  0
  5  6  1  0  0  0  0
  6  7  1  0  0  0  0
  7  8  1  0  0  0  0
  8  9  1  0  0  0  0
  9 10  1  0  0  0  0
 10 11  1  0  0  0  0
 11 12  1  0  0  0  0
 12 13  1  0  0  0  0
 13 14  1  0  0  0  0
M  END
>  <CHROM.1>
177.25614718,-66.82447063,97.40321010,-137.65760208,174.15352476,-176.59563885
-66.47659920,-145.34005080,127.19846173,-64.85206321,176.03159718,45.62094900
1.94102551,17.74702087,-1.23477072,0.77365005,0.59409450

>  <Name>
ligand

>  <RI>
0

>  <Rbt.Current_Directory>
/home/itssahil/PROJECTS/Mol_Feturizer/New_Systems/rnas/1TN2

>  <Rbt.Executable>
rbdock ($Id: //depot/dev/client3/rdock/2013.1/src/exe/rbdock.cxx#4 $)

>  <Rbt.Library>
libRbt.so (2013.1, Build901 2013/11/27)

>  <Rbt.Parameter_File>
/export/apps/rDock/src/rDock_2013.1_src/data/scripts/dock_solv.prm

>  <Rbt.Receptor>
prm/blind_docking_80.prm

>  <SCORE>
-6.7162

>  <SCORE.INTER>
-4.90693

>  <SCORE.INTER.CONST>
1

>  <SCORE.INTER.POLAR>
0

>  <SCORE.INTER.ROT>
11

>  <SCORE.INTER.SOLV>
15.7417

>  <SCORE.INTER.VDW>
-19.4518

>  <SCORE.INTER.norm>
-0.350495

>  <SCORE.INTRA>
-1.80926

>  <SCORE.INTRA.DIHEDRAL>
-3.41916

>  <SCORE.INTRA.DIHEDRAL.0>
7.79482

>  <SCORE.INTRA.POLAR>
0

>  <SCORE.INTRA.POLAR.0>
0

>  <SCORE.INTRA.REPUL>
0

>  <SCORE.INTRA.REPUL.0>
0

>  <SCORE.INTRA.SOLV>
1.11959

>  <SCORE.INTRA.SOLV.lig_0>
-49.456

>  <SCORE.INTRA.VDW>
-0.659474

>  <SCORE.INTRA.VDW.0>
-0.478406

>  <SCORE.INTRA.norm>
-0.129233

>  <SCORE.RESTR>
0

>  <SCORE.RESTR.CAVITY>
0

>  <SCORE.RESTR.norm>
0

>  <SCORE.SYSTEM>
0

>  <SCORE.SYSTEM.CONST>
0

>  <SCORE.SYSTEM.DIHEDRAL>
0

>  <SCORE.SYSTEM.SOLV>
0

>  <SCORE.SYSTEM.norm>
0

>  <SCORE.heavy>
14

>  <SCORE.norm>
-0.479728

>  <RMSD>
5.453

$$$$
ligand
 OpenBabel11021811413D
libRbt.so/2013.1/901 2013/11/27
 14 13  0  0  0  0  0  0  0  0999 V2000
   43.9454    7.4727   19.9079 N   0  0  0  0  0  0  0  0  0  0  0  0
   44.9734    7.1462   20.9197 C   0  0  0  0  0  0  0  0  0  0  0  0
   45.2983    5.6368   20.9181 C   0  0  0  0  0  0  0  0  0  0  0  0
   45.9762    5.1296   19.6347 C   0  0  0  0  0  0  0  0  0  0  0  0
   46.0680    3.6437   19.6301 N   0  0  0  0  0  0  0  0  0  0  0  0
   46.0074    3.1298   18.2377 C   0  0  0  0  0  0  0  0  0  0  0  0
   45.7587    1.5904   18.0947 C   0  0  0  0  0  0  0  0  0  0  0  0
   45.6910    1.0920   16.6224 C   0  0  0  0  0  0  0  0  0  0  0  0
   45.5048   -0.4067   16.4879 C   0  0  0  0  0  0  0  0  0  0  0  0
   45.6206   -0.7392   15.0806 N   0  0  0  0  0  0  0  0  0  0  0  0
   45.0474   -2.0660   14.9367 C   0  0  0  0  0  0  0  0  0  0  0  0
   44.2213   -2.1813   13.6609 C   0  0  0  0  0  0  0  0  0  0  0  0
   43.7819   -3.6469   13.5226 C   0  0  0  0  0  0  0  0  0  0  0  0
   44.8823   -4.5175   13.0822 N   0  0  0  0  0  0  0  0  0  0  0  0
  1  2  1  0  0  0  0
  2  3  1  0  0  0  0
  3  4  1  0  0  0  0
  4  5  1  0  0  0  0
  5  6  1  0  0  0  0
  6  7  1  0  0  0  0
  7  8  1  0  0  0  0
  8  9  1  0  0  0  0
  9 10  1  0  0  0  0
 10 11  1  0  0  0  0
 11 12  1  0  0  0  0
 12 13  1  0  0  0  0
 13 14  1  0  0  0  0
M  END
>  <CHROM.1>
66.19448503,-171.48251585,149.48490920,-166.34913326,179.56368371,177.71150834
-173.29677004,-163.14809253,140.01776082,174.22786312,-75.27480805,45.19837011
1.52028073,17.19555516,1.51545121,-0.57998165,0.58236711

>  <Name>
ligand

>  <RI>
0

>  <Rbt.Current_Directory>
/home/itssahil/PROJECTS/Mol_Feturizer/New_Systems/rnas/1TN2

>  <Rbt.Executable>
rbdock ($Id: //depot/dev/client3/rdock/2013.1/src/exe/rbdock.cxx#4 $)

>  <Rbt.Library>
libRbt.so (2013.1, Build901 2013/11/27)

>  <Rbt.Parameter_File>
/export/apps/rDock/src/rDock_2013.1_src/data/scripts/dock_solv.prm

>  <Rbt.Receptor>
prm/blind_docking_60.prm

>  <SCORE>
-8.23731

>  <SCORE.INTER>
-5.9999

>  <SCORE.INTER.CONST>
1

>  <SCORE.INTER.POLAR>
0

>  <SCORE.INTER.ROT>
11

>  <SCORE.INTER.SOLV>
18.6874

>  <SCORE.INTER.VDW>
-21.1624

>  <SCORE.INTER.norm>
-0.428565

>  <SCORE.INTRA>
-2.2374

>  <SCORE.INTRA.DIHEDRAL>
-4.34693

>  <SCORE.INTRA.DIHEDRAL.0>
7.79482

>  <SCORE.INTRA.POLAR>
0

>  <SCORE.INTRA.POLAR.0>
0

>  <SCORE.INTRA.REPUL>
0

>  <SCORE.INTRA.REPUL.0>
0

>  <SCORE.INTRA.SOLV>
1.30948

>  <SCORE.INTRA.SOLV.lig_0>
-49.456

>  <SCORE.INTRA.VDW>
-0.71868

>  <SCORE.INTRA.VDW.0>
-0.478406

>  <SCORE.INTRA.norm>
-0.159815

>  <SCORE.RESTR>
0

>  <SCORE.RESTR.CAVITY>
0

>  <SCORE.RESTR.norm>
0

>  <SCORE.SYSTEM>
0

>  <SCORE.SYSTEM.CONST>
0

>  <SCORE.SYSTEM.DIHEDRAL>
0

>  <SCORE.SYSTEM.SOLV>
0

>  <SCORE.SYSTEM.norm>
0

>  <SCORE.heavy>
14

>  <SCORE.norm>
-0.588379

>  <RMSD>
5.456

$$$$
ligand
 OpenBabel11021811413D
libRbt.so/2013.1/901 2013/11/27
 14 13  0  0  0  0  0  0  0  0999 V2000
   47.6556    9.0441   18.1746 N   0  0  0  0  0  0  0  0  0  0  0  0
   47.0930    7.6876   18.3493 C   0  0  0  0  0  0  0  0  0  0  0  0
   46.3586    7.5578   19.7012 C   0  0  0  0  0  0  0  0  0  0  0  0
   45.7391    6.1751   19.9628 C   0  0  0  0  0  0  0  0  0  0  0  0
   45.0096    6.1532   21.2603 N   0  0  0  0  0  0  0  0  0  0  0  0
   43.6340    5.6267   21.0671 C   0  0  0  0  0  0  0  0  0  0  0  0
   42.4910    6.6969   21.0847 C   0  0  0  0  0  0  0  0  0  0  0  0
   42.5148    7.6715   19.8722 C   0  0  0  0  0  0  0  0  0  0  0  0
   41.3745    8.6708   19.8633 C   0  0  0  0  0  0  0  0  0  0  0  0
   41.4255    9.3844   18.6013 N   0  0  0  0  0  0  0  0  0  0  0  0
   41.6199   10.7828   18.9425 C   0  0  0  0  0  0  0  0  0  0  0  0
   42.0431   11.5997   17.7272 C   0  0  0  0  0  0  0  0  0  0  0  0
   42.2840   13.0421   18.1978 C   0  0  0  0  0  0  0  0  0  0  0  0
   42.7203   13.9188   17.1006 N   0  0  0  0  0  0  0  0  0  0  0  0
  1  2  1  0  0  0  0
  2  3  1  0  0  0  0
  3  4  1  0  0  0  0
  4  5  1  0  0  0  0
  5  6  1  0  0  0  0
  6  7  1  0  0  0  0
  7  8  1  0  0  0  0
  8  9  1  0  0  0  0
  9 10  1  0  0  0  0
 10 11  1  0  0  0  0
 11 12  1  0  0  0  0
 12 13  1  0  0  0  0
 13 14  1  0  0  0  0
M  END
>  <CHROM.1>
179.88077424,-177.87070449,128.53504595,-104.23490281,67.78955715,177.67318404
-172.59355504,-119.37070559,165.55145376,-177.50238690,179.10887917,43.71145670
8.85765872,19.27911960,-1.07961890,0.21735130,-0.49156268

>  <Name>
ligand

>  <RI>
0

>  <Rbt.Current_Directory>
/home/itssahil/PROJECTS/Mol_Feturizer/New_Systems/rnas/1TN2

>  <Rbt.Executable>
rbdock ($Id: //depot/dev/client3/rdock/2013.1/src/exe/rbdock.cxx#4 $)

>  <Rbt.Library>
libRbt.so (2013.1, Build901 2013/11/27)

>  <Rbt.Parameter_File>
/export/apps/rDock/src/rDock_2013.1_src/data/scripts/dock_solv.prm

>  <Rbt.Receptor>
prm/pocket_docking_5.prm

>  <SCORE>
-12.7495

>  <SCORE.INTER>
-9.95519

>  <SCORE.INTER.CONST>
1

>  <SCORE.INTER.POLAR>
0

>  <SCORE.INTER.ROT>
11

>  <SCORE.INTER.SOLV>
16.6013

>  <SCORE.INTER.VDW>
-23.1039

>  <SCORE.INTER.norm>
-0.711085

>  <SCORE.INTRA>
-2.79429

>  <SCORE.INTRA.DIHEDRAL>
-3.78568

>  <SCORE.INTRA.DIHEDRAL.0>
7.79482

>  <SCORE.INTRA.POLAR>
0

>  <SCORE.INTRA.POLAR.0>
0

>  <SCORE.INTRA.REPUL>
0

>  <SCORE.INTRA.REPUL.0>
0

>  <SCORE.INTRA.SOLV>
0.231662

>  <SCORE.INTRA.SOLV.lig_0>
-49.456

>  <SCORE.INTRA.VDW>
-1.01728

>  <SCORE.INTRA.VDW.0>
-0.478406

>  <SCORE.INTRA.norm>
-0.199592

>  <SCORE.RESTR>
0

>  <SCORE.RESTR.CAVITY>
0

>  <SCORE.RESTR.norm>
0

>  <SCORE.SYSTEM>
0

>  <SCORE.SYSTEM.CONST>
0

>  <SCORE.SYSTEM.DIHEDRAL>
0

>  <SCORE.SYSTEM.SOLV>
0

>  <SCORE.SYSTEM.norm>
0

>  <SCORE.heavy>
14

>  <SCORE.norm>
-0.910677

>  <RMSD>
5.463

$$$$
ligand
 OpenBabel11021811413D
libRbt.so/2013.1/901 2013/11/27
 14 13  0  0  0  0  0  0  0  0999 V2000
   46.2383    8.5835   19.2354 N   0  0  0  0  0  0  0  0  0  0  0  0
   46.2011    7.2744   19.9224 C   0  0  0  0  0  0  0  0  0  0  0  0
   46.2298    6.1109   18.9078 C   0  0  0  0  0  0  0  0  0  0  0  0
   46.0099    4.7193   19.5237 C   0  0  0  0  0  0  0  0  0  0  0  0
   46.0139    3.6636   18.4740 N   0  0  0  0  0  0  0  0  0  0  0  0
   45.5142    2.3814   19.0335 C   0  0  0  0  0  0  0  0  0  0  0  0
   45.9618    1.0897   18.2696 C   0  0  0  0  0  0  0  0  0  0  0  0
   45.1150    0.7755   17.0029 C   0  0  0  0  0  0  0  0  0  0  0  0
   45.5079   -0.5112   16.3036 C   0  0  0  0  0  0  0  0  0  0  0  0
   44.5797   -0.7168   15.2079 N   0  0  0  0  0  0  0  0  0  0  0  0
   45.3638   -1.2787   14.1221 C   0  0  0  0  0  0  0  0  0  0  0  0
   44.4822   -1.6704   12.9420 C   0  0  0  0  0  0  0  0  0  0  0  0
   43.7887   -2.9938   13.2992 C   0  0  0  0  0  0  0  0  0  0  0  0
   44.7283   -4.1249   13.3217 N   0  0  0  0  0  0  0  0  0  0  0  0
  1  2  1  0  0  0  0
  2  3  1  0  0  0  0
  3  4  1  0  0  0  0
  4  5  1  0  0  0  0
  5  6  1  0  0  0  0
  6  7  1  0  0  0  0
  7  8  1  0  0  0  0
  8  9  1  0  0  0  0
  9 10  1  0  0  0  0
 10 11  1  0  0  0  0
 11 12  1  0  0  0  0
 12 13  1  0  0  0  0
 13 14  1  0  0  0  0
M  END
>  <CHROM.1>
-172.41539595,178.37260072,-167.81066385,-157.22493796,-81.22162067,-177.21445524
176.07752326,142.79415228,174.57985408,-77.30500059,-70.26137414,45.40961166
1.66439245,16.82622367,0.75882030,-1.36690562,-0.23800352

>  <Name>
ligand

>  <RI>
0

>  <Rbt.Current_Directory>
/home/itssahil/PROJECTS/Mol_Feturizer/New_Systems/rnas/1TN2

>  <Rbt.Executable>
rbdock ($Id: //depot/dev/client3/rdock/2013.1/src/exe/rbdock.cxx#4 $)

>  <Rbt.Library>
libRbt.so (2013.1, Build901 2013/11/27)

>  <Rbt.Parameter_File>
/export/apps/rDock/src/rDock_2013.1_src/data/scripts/dock_solv.prm

>  <Rbt.Receptor>
prm/blind_docking_100.prm

>  <SCORE>
-6.74232

>  <SCORE.INTER>
-5.23902

>  <SCORE.INTER.CONST>
1

>  <SCORE.INTER.POLAR>
0

>  <SCORE.INTER.ROT>
11

>  <SCORE.INTER.SOLV>
16.2516

>  <SCORE.INTER.VDW>
-19.8432

>  <SCORE.INTER.norm>
-0.374216

>  <SCORE.INTRA>
-1.5033

>  <SCORE.INTRA.DIHEDRAL>
-3.15592

>  <SCORE.INTRA.DIHEDRAL.0>
7.79482

>  <SCORE.INTRA.POLAR>
0

>  <SCORE.INTRA.POLAR.0>
0

>  <SCORE.INTRA.REPUL>
0

>  <SCORE.INTRA.REPUL.0>
0

>  <SCORE.INTRA.SOLV>
1.61854

>  <SCORE.INTRA.SOLV.lig_0>
-49.456

>  <SCORE.INTRA.VDW>
-0.734603

>  <SCORE.INTRA.VDW.0>
-0.478406

>  <SCORE.INTRA.norm>
-0.107378

>  <SCORE.RESTR>
0

>  <SCORE.RESTR.CAVITY>
0

>  <SCORE.RESTR.norm>
0

>  <SCORE.SYSTEM>
0

>  <SCORE.SYSTEM.CONST>
0

>  <SCORE.SYSTEM.DIHEDRAL>
0

>  <SCORE.SYSTEM.SOLV>
0

>  <SCORE.SYSTEM.norm>
0

>  <SCORE.heavy>
14

>  <SCORE.norm>
-0.481594

>  <RMSD>
5.466

$$$$
ligand
 OpenBabel11021811413D
libRbt.so/2013.1/901 2013/11/27
 14 13  0  0  0  0  0  0  0  0999 V2000
   46.6116    9.2410   16.0721 N   0  0  0  0  0  0  0  0  0  0  0  0
   46.0790    9.3257   17.4491 C   0  0  0  0  0  0  0  0  0  0  0  0
   47.1355    8.8826   18.4843 C   0  0  0  0  0  0  0  0  0  0  0  0
   47.5081    7.3923   18.4204 C   0  0  0  0  0  0  0  0  0  0  0  0
   46.3679    6.5374   18.8510 N   0  0  0  0  0  0  0  0  0  0  0  0
   46.2954    6.4870   20.3339 C   0  0  0  0  0  0  0  0  0  0  0  0
   45.5629    5.2396   20.9336 C   0  0  0  0  0  0  0  0  0  0  0  0
   44.0657    5.1258   20.5263 C   0  0  0  0  0  0  0  0  0  0  0  0
   43.1841    6.2111   21.1128 C   0  0  0  0  0  0  0  0  0  0  0  0
   43.6195    7.4786   20.5577 N   0  0  0  0  0  0  0  0  0  0  0  0
   42.4119    8.1584   20.1226 C   0  0  0  0  0  0  0  0  0  0  0  0
   42.7363    9.4304   19.3478 C   0  0  0  0  0  0  0  0  0  0  0  0
   41.4056   10.1136   18.9980 C   0  0  0  0  0  0  0  0  0  0  0  0
   41.6037   11.3727   18.2643 N   0  0  0  0  0  0  0  0  0  0  0  0
  1  2  1  0  0  0  0
  2  3  1  0  0  0  0
  3  4  1  0  0  0  0
  4  5  1  0  0  0  0
  5  6  1  0  0  0  0
  6  7  1  0  0  0  0
  7  8  1  0  0  0  0
  8  9  1  0  0  0  0
  9 10  1  0  0  0  0
 10 11  1  0  0  0  0
 11 12  1  0  0  0  0
 12 13  1  0  0  0  0
 13 14  1  0  0  0  0
M  END
>  <CHROM.1>
-66.95485579,-68.23299207,-80.50995190,-156.68258222,-61.85833363,-67.76042106
64.45492633,132.52934394,-172.43978766,-177.02268932,178.99346827,44.61340548
7.92801257,19.24847541,-0.59664697,0.37285266,-0.64518833

>  <Name>
ligand

>  <RI>
0

>  <Rbt.Current_Directory>
/home/itssahil/PROJECTS/Mol_Feturizer/New_Systems/rnas/1TN2

>  <Rbt.Executable>
rbdock ($Id: //depot/dev/client3/rdock/2013.1/src/exe/rbdock.cxx#4 $)

>  <Rbt.Library>
libRbt.so (2013.1, Build901 2013/11/27)

>  <Rbt.Parameter_File>
/export/apps/rDock/src/rDock_2013.1_src/data/scripts/dock_solv.prm

>  <Rbt.Receptor>
prm/pocket_docking_5.prm

>  <SCORE>
-10.0919

>  <SCORE.INTER>
-8.89059

>  <SCORE.INTER.CONST>
1

>  <SCORE.INTER.POLAR>
0

>  <SCORE.INTER.ROT>
11

>  <SCORE.INTER.SOLV>
17.4762

>  <SCORE.INTER.VDW>
-22.6858

>  <SCORE.INTER.norm>
-0.635042

>  <SCORE.INTRA>
-1.20128

>  <SCORE.INTRA.DIHEDRAL>
-5.15693

>  <SCORE.INTRA.DIHEDRAL.0>
7.79482

>  <SCORE.INTRA.POLAR>
0

>  <SCORE.INTRA.POLAR.0>
0

>  <SCORE.INTRA.REPUL>
0

>  <SCORE.INTRA.REPUL.0>
0

>  <SCORE.INTRA.SOLV>
3.87409

>  <SCORE.INTRA.SOLV.lig_0>
-49.456

>  <SCORE.INTRA.VDW>
-0.559862

>  <SCORE.INTRA.VDW.0>
-0.478406

>  <SCORE.INTRA.norm>
-0.0858056

>  <SCORE.RESTR>
0

>  <SCORE.RESTR.CAVITY>
0

>  <SCORE.RESTR.norm>
0

>  <SCORE.SYSTEM>
0

>  <SCORE.SYSTEM.CONST>
0

>  <SCORE.SYSTEM.DIHEDRAL>
0

>  <SCORE.SYSTEM.SOLV>
0

>  <SCORE.SYSTEM.norm>
0

>  <SCORE.heavy>
14

>  <SCORE.norm>
-0.720848

>  <RMSD>
5.478

$$$$
ligand
 OpenBabel11021811413D
libRbt.so/2013.1/901 2013/11/27
 14 13  0  0  0  0  0  0  0  0999 V2000
   44.7428    7.2834   19.8263 N   0  0  0  0  0  0  0  0  0  0  0  0
   45.9656    6.4566   19.9173 C   0  0  0  0  0  0  0  0  0  0  0  0
   45.7709    5.2782   20.8958 C   0  0  0  0  0  0  0  0  0  0  0  0
   44.7143    4.2507   20.4578 C   0  0  0  0  0  0  0  0  0  0  0  0
   45.1242    3.5650   19.2015 N   0  0  0  0  0  0  0  0  0  0  0  0
   44.5996    2.1753   19.1805 C   0  0  0  0  0  0  0  0  0  0  0  0
   44.4613    1.5256   17.7625 C   0  0  0  0  0  0  0  0  0  0  0  0
   45.7882    1.4828   16.9513 C   0  0  0  0  0  0  0  0  0  0  0  0
   45.6164    1.0335   15.5134 C   0  0  0  0  0  0  0  0  0  0  0  0
   45.2112   -0.3592   15.5337 N   0  0  0  0  0  0  0  0  0  0  0  0
   44.3548   -0.5415   14.3748 C   0  0  0  0  0  0  0  0  0  0  0  0
   44.3837   -1.9833   13.8812 C   0  0  0  0  0  0  0  0  0  0  0  0
   45.7687   -2.2365   13.2667 C   0  0  0  0  0  0  0  0  0  0  0  0
   45.8327   -3.5196   12.5510 N   0  0  0  0  0  0  0  0  0  0  0  0
  1  2  1  0  0  0  0
  2  3  1  0  0  0  0
  3  4  1  0  0  0  0
  4  5  1  0  0  0  0
  5  6  1  0  0  0  0
  6  7  1  0  0  0  0
  7  8  1  0  0  0  0
  8  9  1  0  0  0  0
  9 10  1  0  0  0  0
 10 11  1  0  0  0  0
 11 12  1  0  0  0  0
 12 13  1  0  0  0  0
 13 14  1  0  0  0  0
M  END
>  <CHROM.1>
64.68496874,64.35460661,148.62642132,157.45629289,57.32437048,-171.93257971
-66.87369052,148.04738000,153.08821367,-70.07124615,-170.12907760,45.16669399
1.74367124,17.09398005,-1.57585970,-1.18356301,-2.43416087

>  <Name>
ligand

>  <RI>
0

>  <Rbt.Current_Directory>
/home/itssahil/PROJECTS/Mol_Feturizer/New_Systems/rnas/1TN2

>  <Rbt.Executable>
rbdock ($Id: //depot/dev/client3/rdock/2013.1/src/exe/rbdock.cxx#4 $)

>  <Rbt.Library>
libRbt.so (2013.1, Build901 2013/11/27)

>  <Rbt.Parameter_File>
/export/apps/rDock/src/rDock_2013.1_src/data/scripts/dock_solv.prm

>  <Rbt.Receptor>
prm/blind_docking_100.prm

>  <SCORE>
-4.92071

>  <SCORE.INTER>
-3.37243

>  <SCORE.INTER.CONST>
1

>  <SCORE.INTER.POLAR>
0

>  <SCORE.INTER.ROT>
11

>  <SCORE.INTER.SOLV>
13.0576

>  <SCORE.INTER.VDW>
-17.5342

>  <SCORE.INTER.norm>
-0.240888

>  <SCORE.INTRA>
-1.54828

>  <SCORE.INTRA.DIHEDRAL>
-4.25308

>  <SCORE.INTRA.DIHEDRAL.0>
7.79482

>  <SCORE.INTRA.POLAR>
0

>  <SCORE.INTRA.POLAR.0>
0

>  <SCORE.INTRA.REPUL>
0

>  <SCORE.INTRA.REPUL.0>
0

>  <SCORE.INTRA.SOLV>
2.60675

>  <SCORE.INTRA.SOLV.lig_0>
-49.456

>  <SCORE.INTRA.VDW>
-0.725121

>  <SCORE.INTRA.VDW.0>
-0.478406

>  <SCORE.INTRA.norm>
-0.110592

>  <SCORE.RESTR>
0

>  <SCORE.RESTR.CAVITY>
0

>  <SCORE.RESTR.norm>
0

>  <SCORE.SYSTEM>
0

>  <SCORE.SYSTEM.CONST>
0

>  <SCORE.SYSTEM.DIHEDRAL>
0

>  <SCORE.SYSTEM.SOLV>
0

>  <SCORE.SYSTEM.norm>
0

>  <SCORE.heavy>
14

>  <SCORE.norm>
-0.351479

>  <RMSD>
5.511

$$$$
ligand
 OpenBabel11021811413D
libRbt.so/2013.1/901 2013/11/27
 14 13  0  0  0  0  0  0  0  0999 V2000
   49.2525    3.6537   12.3882 N   0  0  0  0  0  0  0  0  0  0  0  0
   48.7425    2.5693   11.5216 C   0  0  0  0  0  0  0  0  0  0  0  0
   47.2492    2.2900   11.7976 C   0  0  0  0  0  0  0  0  0  0  0  0
   46.9362    1.8485   13.2368 C   0  0  0  0  0  0  0  0  0  0  0  0
   47.1338    2.9707   14.1949 N   0  0  0  0  0  0  0  0  0  0  0  0
   47.1069    2.4644   15.5912 C   0  0  0  0  0  0  0  0  0  0  0  0
   45.6829    2.2186   16.1945 C   0  0  0  0  0  0  0  0  0  0  0  0
   45.6961    1.6182   17.6297 C   0  0  0  0  0  0  0  0  0  0  0  0
   46.3095    2.5312   18.6733 C   0  0  0  0  0  0  0  0  0  0  0  0
   45.3881    3.6302   18.8916 N   0  0  0  0  0  0  0  0  0  0  0  0
   46.1686    4.6868   19.5114 C   0  0  0  0  0  0  0  0  0  0  0  0
   45.3545    5.9666   19.6617 C   0  0  0  0  0  0  0  0  0  0  0  0
   46.3249    7.0914   20.0529 C   0  0  0  0  0  0  0  0  0  0  0  0
   45.6508    8.3940   20.1614 N   0  0  0  0  0  0  0  0  0  0  0  0
  1  2  1  0  0  0  0
  2  3  1  0  0  0  0
  3  4  1  0  0  0  0
  4  5  1  0  0  0  0
  5  6  1  0  0  0  0
  6  7  1  0  0  0  0
  7  8  1  0  0  0  0
  8  9  1  0  0  0  0
  9 10  1  0  0  0  0
 10 11  1  0  0  0  0
 11 12  1  0  0  0  0
 12 13  1  0  0  0  0
 13 14  1  0  0  0  0
M  END
>  <CHROM.1>
-60.45117785,69.36906958,-168.19007519,-80.44898972,176.93656867,64.21319069
71.11461021,-160.90758581,173.87160133,-168.76342669,177.21914813,46.64251658
3.70915630,16.39334486,-0.95286339,1.11734084,0.54699455

>  <Name>
ligand

>  <RI>
0

>  <Rbt.Current_Directory>
/home/itssahil/PROJECTS/Mol_Feturizer/New_Systems/rnas/1TN2

>  <Rbt.Executable>
rbdock ($Id: //depot/dev/client3/rdock/2013.1/src/exe/rbdock.cxx#4 $)

>  <Rbt.Library>
libRbt.so (2013.1, Build901 2013/11/27)

>  <Rbt.Parameter_File>
/export/apps/rDock/src/rDock_2013.1_src/data/scripts/dock_solv.prm

>  <Rbt.Receptor>
prm/blind_docking_60.prm

>  <SCORE>
-3.9873

>  <SCORE.INTER>
-2.57946

>  <SCORE.INTER.CONST>
1

>  <SCORE.INTER.POLAR>
0

>  <SCORE.INTER.ROT>
11

>  <SCORE.INTER.SOLV>
10.8699

>  <SCORE.INTER.VDW>
-16.2763

>  <SCORE.INTER.norm>
-0.184247

>  <SCORE.INTRA>
-1.40784

>  <SCORE.INTRA.DIHEDRAL>
-5.68168

>  <SCORE.INTRA.DIHEDRAL.0>
7.79482

>  <SCORE.INTRA.POLAR>
0

>  <SCORE.INTRA.POLAR.0>
0

>  <SCORE.INTRA.REPUL>
0

>  <SCORE.INTRA.REPUL.0>
0

>  <SCORE.INTRA.SOLV>
3.61736

>  <SCORE.INTRA.SOLV.lig_0>
-49.456

>  <SCORE.INTRA.VDW>
-0.375679

>  <SCORE.INTRA.VDW.0>
-0.478406

>  <SCORE.INTRA.norm>
-0.10056

>  <SCORE.RESTR>
0

>  <SCORE.RESTR.CAVITY>
0

>  <SCORE.RESTR.norm>
0

>  <SCORE.SYSTEM>
0

>  <SCORE.SYSTEM.CONST>
0

>  <SCORE.SYSTEM.DIHEDRAL>
0

>  <SCORE.SYSTEM.SOLV>
0

>  <SCORE.SYSTEM.norm>
0

>  <SCORE.heavy>
14

>  <SCORE.norm>
-0.284807

>  <RMSD>
5.552

$$$$
ligand
 OpenBabel11021811413D
libRbt.so/2013.1/901 2013/11/27
 14 13  0  0  0  0  0  0  0  0999 V2000
   44.5213   -3.6579   13.0229 N   0  0  0  0  0  0  0  0  0  0  0  0
   44.7230   -2.2343   13.3690 C   0  0  0  0  0  0  0  0  0  0  0  0
   45.1097   -2.0706   14.8548 C   0  0  0  0  0  0  0  0  0  0  0  0
   45.5372   -0.6481   15.2518 C   0  0  0  0  0  0  0  0  0  0  0  0
   44.4330    0.3245   15.0254 N   0  0  0  0  0  0  0  0  0  0  0  0
   44.9464    1.7153   15.1202 C   0  0  0  0  0  0  0  0  0  0  0  0
   44.6880    2.4405   16.4839 C   0  0  0  0  0  0  0  0  0  0  0  0
   45.5221    1.8777   17.6705 C   0  0  0  0  0  0  0  0  0  0  0  0
   45.2298    2.5459   18.9998 C   0  0  0  0  0  0  0  0  0  0  0  0
   45.4427    3.9709   18.8315 N   0  0  0  0  0  0  0  0  0  0  0  0
   46.3113    4.3752   19.9232 C   0  0  0  0  0  0  0  0  0  0  0  0
   45.7396    5.5700   20.6775 C   0  0  0  0  0  0  0  0  0  0  0  0
   44.5921    5.0564   21.5604 C   0  0  0  0  0  0  0  0  0  0  0  0
   43.4639    4.5487   20.7654 N   0  0  0  0  0  0  0  0  0  0  0  0
  1  2  1  0  0  0  0
  2  3  1  0  0  0  0
  3  4  1  0  0  0  0
  4  5  1  0  0  0  0
  5  6  1  0  0  0  0
  6  7  1  0  0  0  0
  7  8  1  0  0  0  0
  8  9  1  0  0  0  0
  9 10  1  0  0  0  0
 10 11  1  0  0  0  0
 11 12  1  0  0  0  0
 12 13  1  0  0  0  0
 13 14  1  0  0  0  0
M  END
>  <CHROM.1>
171.52718237,60.94410797,-167.39047982,-99.74109121,70.03317786,-177.73504927
-55.91480033,-129.53068868,-128.50963863,75.74573276,-65.59417226,45.01879484
1.70116077,17.25415782,1.62714955,-1.06700007,-2.32002209

>  <Name>
ligand

>  <RI>
0

>  <Rbt.Current_Directory>
/home/itssahil/PROJECTS/Mol_Feturizer/New_Systems/rnas/1TN2

>  <Rbt.Executable>
rbdock ($Id: //depot/dev/client3/rdock/2013.1/src/exe/rbdock.cxx#4 $)

>  <Rbt.Library>
libRbt.so (2013.1, Build901 2013/11/27)

>  <Rbt.Parameter_File>
/export/apps/rDock/src/rDock_2013.1_src/data/scripts/dock_solv.prm

>  <Rbt.Receptor>
prm/blind_docking_100.prm

>  <SCORE>
-3.81031

>  <SCORE.INTER>
-4.26564

>  <SCORE.INTER.CONST>
1

>  <SCORE.INTER.POLAR>
0

>  <SCORE.INTER.ROT>
11

>  <SCORE.INTER.SOLV>
15.6142

>  <SCORE.INTER.VDW>
-18.9818

>  <SCORE.INTER.norm>
-0.304688

>  <SCORE.INTRA>
0.455328

>  <SCORE.INTRA.DIHEDRAL>
-2.77683

>  <SCORE.INTRA.DIHEDRAL.0>
7.79482

>  <SCORE.INTRA.POLAR>
0

>  <SCORE.INTRA.POLAR.0>
0

>  <SCORE.INTRA.REPUL>
0

>  <SCORE.INTRA.REPUL.0>
0

>  <SCORE.INTRA.SOLV>
4.71318

>  <SCORE.INTRA.SOLV.lig_0>
-49.456

>  <SCORE.INTRA.VDW>
-0.512848

>  <SCORE.INTRA.VDW.0>
-0.478406

>  <SCORE.INTRA.norm>
0.0325234

>  <SCORE.RESTR>
0

>  <SCORE.RESTR.CAVITY>
0

>  <SCORE.RESTR.norm>
0

>  <SCORE.SYSTEM>
0

>  <SCORE.SYSTEM.CONST>
0

>  <SCORE.SYSTEM.DIHEDRAL>
0

>  <SCORE.SYSTEM.SOLV>
0

>  <SCORE.SYSTEM.norm>
0

>  <SCORE.heavy>
14

>  <SCORE.norm>
-0.272165

>  <RMSD>
5.557

$$$$
ligand
 OpenBabel11021811413D
libRbt.so/2013.1/901 2013/11/27
 14 13  0  0  0  0  0  0  0  0999 V2000
   40.5026    7.5920   20.3029 N   0  0  0  0  0  0  0  0  0  0  0  0
   41.9589    7.8383   20.3783 C   0  0  0  0  0  0  0  0  0  0  0  0
   42.7160    6.5722   20.8341 C   0  0  0  0  0  0  0  0  0  0  0  0
   44.2307    6.7634   21.0165 C   0  0  0  0  0  0  0  0  0  0  0  0
   44.8691    7.2131   19.7490 N   0  0  0  0  0  0  0  0  0  0  0  0
   46.1790    7.8536   20.0330 C   0  0  0  0  0  0  0  0  0  0  0  0
   46.8619    8.5657   18.8170 C   0  0  0  0  0  0  0  0  0  0  0  0
   45.9809    9.6568   18.1434 C   0  0  0  0  0  0  0  0  0  0  0  0
   46.6344   10.3251   16.9495 C   0  0  0  0  0  0  0  0  0  0  0  0
   47.7811   11.0688   17.4355 N   0  0  0  0  0  0  0  0  0  0  0  0
   47.4176   12.4715   17.3346 C   0  0  0  0  0  0  0  0  0  0  0  0
   48.5655   13.3774   17.7647 C   0  0  0  0  0  0  0  0  0  0  0  0
   48.0691   14.8287   17.6793 C   0  0  0  0  0  0  0  0  0  0  0  0
   47.0468   15.1267   18.6936 N   0  0  0  0  0  0  0  0  0  0  0  0
  1  2  1  0  0  0  0
  2  3  1  0  0  0  0
  3  4  1  0  0  0  0
  4  5  1  0  0  0  0
  5  6  1  0  0  0  0
  6  7  1  0  0  0  0
  7  8  1  0  0  0  0
  8  9  1  0  0  0  0
  9 10  1  0  0  0  0
 10 11  1  0  0  0  0
 11 12  1  0  0  0  0
 12 13  1  0  0  0  0
 13 14  1  0  0  0  0
M  END
>  <CHROM.1>
-176.69425649,-58.92053804,159.59994220,-171.15482308,56.35357510,-178.85392709
-65.87054366,-108.40614532,-177.68970073,-177.71305755,68.54765126,45.62976112
9.94656088,18.93790908,2.23777425,-0.34582744,2.99646418

>  <Name>
ligand

>  <RI>
0

>  <Rbt.Current_Directory>
/home/itssahil/PROJECTS/Mol_Feturizer/New_Systems/rnas/1TN2

>  <Rbt.Executable>
rbdock ($Id: //depot/dev/client3/rdock/2013.1/src/exe/rbdock.cxx#4 $)

>  <Rbt.Library>
libRbt.so (2013.1, Build901 2013/11/27)

>  <Rbt.Parameter_File>
/export/apps/rDock/src/rDock_2013.1_src/data/scripts/dock_solv.prm

>  <Rbt.Receptor>
prm/pocket_docking_8.prm

>  <SCORE>
-2.94381

>  <SCORE.INTER>
-0.422327

>  <SCORE.INTER.CONST>
1

>  <SCORE.INTER.POLAR>
0

>  <SCORE.INTER.ROT>
11

>  <SCORE.INTER.SOLV>
9.15522

>  <SCORE.INTER.VDW>
-14.2666

>  <SCORE.INTER.norm>
-0.0301662

>  <SCORE.INTRA>
-2.52148

>  <SCORE.INTRA.DIHEDRAL>
-5.80121

>  <SCORE.INTRA.DIHEDRAL.0>
7.79482

>  <SCORE.INTRA.POLAR>
0

>  <SCORE.INTRA.POLAR.0>
0

>  <SCORE.INTRA.REPUL>
0

>  <SCORE.INTRA.REPUL.0>
0

>  <SCORE.INTRA.SOLV>
1.80743

>  <SCORE.INTRA.SOLV.lig_0>
-49.456

>  <SCORE.INTRA.VDW>
-0.524592

>  <SCORE.INTRA.VDW.0>
-0.478406

>  <SCORE.INTRA.norm>
-0.180106

>  <SCORE.RESTR>
0

>  <SCORE.RESTR.CAVITY>
0

>  <SCORE.RESTR.norm>
0

>  <SCORE.SYSTEM>
0

>  <SCORE.SYSTEM.CONST>
0

>  <SCORE.SYSTEM.DIHEDRAL>
0

>  <SCORE.SYSTEM.SOLV>
0

>  <SCORE.SYSTEM.norm>
0

>  <SCORE.heavy>
14

>  <SCORE.norm>
-0.210272

>  <RMSD>
5.559

$$$$
ligand
 OpenBabel11021811413D
libRbt.so/2013.1/901 2013/11/27
 14 13  0  0  0  0  0  0  0  0999 V2000
   44.6722   12.6808   15.8099 N   0  0  0  0  0  0  0  0  0  0  0  0
   45.0148   11.2425   15.8408 C   0  0  0  0  0  0  0  0  0  0  0  0
   46.0933   10.9485   16.9059 C   0  0  0  0  0  0  0  0  0  0  0  0
   46.4861    9.4669   17.0267 C   0  0  0  0  0  0  0  0  0  0  0  0
   47.4815    9.2650   18.1153 N   0  0  0  0  0  0  0  0  0  0  0  0
   47.6543    7.8155   18.3906 C   0  0  0  0  0  0  0  0  0  0  0  0
   46.4072    7.0885   18.9974 C   0  0  0  0  0  0  0  0  0  0  0  0
   46.0215    7.5734   20.4245 C   0  0  0  0  0  0  0  0  0  0  0  0
   44.6063    7.2157   20.8346 C   0  0  0  0  0  0  0  0  0  0  0  0
   43.7011    8.0271   20.0430 N   0  0  0  0  0  0  0  0  0  0  0  0
   42.3654    7.5420   20.3438 C   0  0  0  0  0  0  0  0  0  0  0  0
   41.2957    8.4937   19.8212 C   0  0  0  0  0  0  0  0  0  0  0  0
   39.9285    7.8408   20.0753 C   0  0  0  0  0  0  0  0  0  0  0  0
   39.6683    7.6362   21.5082 N   0  0  0  0  0  0  0  0  0  0  0  0
  1  2  1  0  0  0  0
  2  3  1  0  0  0  0
  3  4  1  0  0  0  0
  4  5  1  0  0  0  0
  5  6  1  0  0  0  0
  6  7  1  0  0  0  0
  7  8  1  0  0  0  0
  8  9  1  0  0  0  0
  9 10  1  0  0  0  0
 10 11  1  0  0  0  0
 11 12  1  0  0  0  0
 12 13  1  0  0  0  0
 13 14  1  0  0  0  0
M  END
>  <CHROM.1>
178.68212321,-177.39339726,169.25927789,-66.64276627,-65.65308061,161.67797857
-70.23980527,173.19606991,167.56048117,175.13726579,62.24373556,44.38565033
8.77379763,18.86694245,0.67804711,0.18271530,-0.74742036

>  <Name>
ligand

>  <RI>
0

>  <Rbt.Current_Directory>
/home/itssahil/PROJECTS/Mol_Feturizer/New_Systems/rnas/1TN2

>  <Rbt.Executable>
rbdock ($Id: //depot/dev/client3/rdock/2013.1/src/exe/rbdock.cxx#4 $)

>  <Rbt.Library>
libRbt.so (2013.1, Build901 2013/11/27)

>  <Rbt.Parameter_File>
/export/apps/rDock/src/rDock_2013.1_src/data/scripts/dock_solv.prm

>  <Rbt.Receptor>
prm/pocket_docking_8.prm

>  <SCORE>
-8.69874

>  <SCORE.INTER>
-6.45165

>  <SCORE.INTER.CONST>
1

>  <SCORE.INTER.POLAR>
0

>  <SCORE.INTER.ROT>
11

>  <SCORE.INTER.SOLV>
13.171

>  <SCORE.INTER.VDW>
-19.6247

>  <SCORE.INTER.norm>
-0.460832

>  <SCORE.INTRA>
-2.24709

>  <SCORE.INTRA.DIHEDRAL>
-5.55505

>  <SCORE.INTRA.DIHEDRAL.0>
7.79482

>  <SCORE.INTRA.POLAR>
0

>  <SCORE.INTRA.POLAR.0>
0

>  <SCORE.INTRA.REPUL>
0

>  <SCORE.INTRA.REPUL.0>
0

>  <SCORE.INTRA.SOLV>
1.67903

>  <SCORE.INTRA.SOLV.lig_0>
-49.456

>  <SCORE.INTRA.VDW>
-0.309081

>  <SCORE.INTRA.VDW.0>
-0.478406

>  <SCORE.INTRA.norm>
-0.160507

>  <SCORE.RESTR>
0

>  <SCORE.RESTR.CAVITY>
0

>  <SCORE.RESTR.norm>
0

>  <SCORE.SYSTEM>
0

>  <SCORE.SYSTEM.CONST>
0

>  <SCORE.SYSTEM.DIHEDRAL>
0

>  <SCORE.SYSTEM.SOLV>
0

>  <SCORE.SYSTEM.norm>
0

>  <SCORE.heavy>
14

>  <SCORE.norm>
-0.621339

>  <RMSD>
5.579

$$$$
ligand
 OpenBabel11021811413D
libRbt.so/2013.1/901 2013/11/27
 14 13  0  0  0  0  0  0  0  0999 V2000
   46.1936    5.7863   19.9035 N   0  0  0  0  0  0  0  0  0  0  0  0
   45.6858    5.0157   21.0591 C   0  0  0  0  0  0  0  0  0  0  0  0
   44.1421    4.9899   21.0777 C   0  0  0  0  0  0  0  0  0  0  0  0
   43.4810    6.3692   21.2346 C   0  0  0  0  0  0  0  0  0  0  0  0
   42.0182    6.2941   20.9679 N   0  0  0  0  0  0  0  0  0  0  0  0
   41.4603    7.6578   20.7787 C   0  0  0  0  0  0  0  0  0  0  0  0
   41.9907    8.4387   19.5292 C   0  0  0  0  0  0  0  0  0  0  0  0
   41.4650    9.8991   19.4228 C   0  0  0  0  0  0  0  0  0  0  0  0
   42.1449   10.7209   18.3452 C   0  0  0  0  0  0  0  0  0  0  0  0
   41.6627   12.0840   18.4624 N   0  0  0  0  0  0  0  0  0  0  0  0
   42.3626   12.8431   17.4408 C   0  0  0  0  0  0  0  0  0  0  0  0
   42.1649   14.3429   17.6268 C   0  0  0  0  0  0  0  0  0  0  0  0
   42.9751   15.0574   16.5345 C   0  0  0  0  0  0  0  0  0  0  0  0
   42.8329   16.5195   16.6042 N   0  0  0  0  0  0  0  0  0  0  0  0
  1  2  1  0  0  0  0
  2  3  1  0  0  0  0
  3  4  1  0  0  0  0
  4  5  1  0  0  0  0
  5  6  1  0  0  0  0
  6  7  1  0  0  0  0
  7  8  1  0  0  0  0
  8  9  1  0  0  0  0
  9 10  1  0  0  0  0
 10 11  1  0  0  0  0
 11 12  1  0  0  0  0
 12 13  1  0  0  0  0
 13 14  1  0  0  0  0
M  END
>  <CHROM.1>
-62.58074602,168.48793275,-165.49515250,64.49868167,-175.70025769,170.79216112
-173.81575681,178.47545247,-168.59516374,178.16881462,178.83629260,42.89844442
9.71543567,19.21347084,-1.39617246,0.20572423,-0.43312717

>  <Name>
ligand

>  <RI>
0

>  <Rbt.Current_Directory>
/home/itssahil/PROJECTS/Mol_Feturizer/New_Systems/rnas/1TN2

>  <Rbt.Executable>
rbdock ($Id: //depot/dev/client3/rdock/2013.1/src/exe/rbdock.cxx#4 $)

>  <Rbt.Library>
libRbt.so (2013.1, Build901 2013/11/27)

>  <Rbt.Parameter_File>
/export/apps/rDock/src/rDock_2013.1_src/data/scripts/dock_solv.prm

>  <Rbt.Receptor>
prm/pocket_docking_6.prm

>  <SCORE>
-11.7234

>  <SCORE.INTER>
-8.70142

>  <SCORE.INTER.CONST>
1

>  <SCORE.INTER.POLAR>
0

>  <SCORE.INTER.ROT>
11

>  <SCORE.INTER.SOLV>
14.5714

>  <SCORE.INTER.VDW>
-21.5914

>  <SCORE.INTER.norm>
-0.62153

>  <SCORE.INTRA>
-3.02198

>  <SCORE.INTRA.DIHEDRAL>
-6.41638

>  <SCORE.INTRA.DIHEDRAL.0>
7.79482

>  <SCORE.INTRA.POLAR>
0

>  <SCORE.INTRA.POLAR.0>
0

>  <SCORE.INTRA.REPUL>
0

>  <SCORE.INTRA.REPUL.0>
0

>  <SCORE.INTRA.SOLV>
0.705035

>  <SCORE.INTRA.SOLV.lig_0>
-49.456

>  <SCORE.INTRA.VDW>
-0.166308

>  <SCORE.INTRA.VDW.0>
-0.478406

>  <SCORE.INTRA.norm>
-0.215856

>  <SCORE.RESTR>
0

>  <SCORE.RESTR.CAVITY>
0

>  <SCORE.RESTR.norm>
0

>  <SCORE.SYSTEM>
0

>  <SCORE.SYSTEM.CONST>
0

>  <SCORE.SYSTEM.DIHEDRAL>
0

>  <SCORE.SYSTEM.SOLV>
0

>  <SCORE.SYSTEM.norm>
0

>  <SCORE.heavy>
14

>  <SCORE.norm>
-0.837386

>  <RMSD>
5.616

$$$$
ligand
 OpenBabel11021811413D
libRbt.so/2013.1/901 2013/11/27
 14 13  0  0  0  0  0  0  0  0999 V2000
   46.4414    7.4852   19.9428 N   0  0  0  0  0  0  0  0  0  0  0  0
   45.8996    6.1712   19.5342 C   0  0  0  0  0  0  0  0  0  0  0  0
   45.2151    5.4568   20.7195 C   0  0  0  0  0  0  0  0  0  0  0  0
   44.0264    6.2199   21.3266 C   0  0  0  0  0  0  0  0  0  0  0  0
   42.9861    6.4946   20.2977 N   0  0  0  0  0  0  0  0  0  0  0  0
   41.8595    7.2552   20.8970 C   0  0  0  0  0  0  0  0  0  0  0  0
   41.1900    8.3201   19.9643 C   0  0  0  0  0  0  0  0  0  0  0  0
   42.1687    9.4096   19.4394 C   0  0  0  0  0  0  0  0  0  0  0  0
   41.5025   10.4832   18.6013 C   0  0  0  0  0  0  0  0  0  0  0  0
   42.5450   11.3564   18.0963 N   0  0  0  0  0  0  0  0  0  0  0  0
   41.8717   12.3446   17.2718 C   0  0  0  0  0  0  0  0  0  0  0  0
   42.0689   13.7540   17.8176 C   0  0  0  0  0  0  0  0  0  0  0  0
   41.1907   14.7015   16.9864 C   0  0  0  0  0  0  0  0  0  0  0  0
   41.3398   16.1045   17.4012 N   0  0  0  0  0  0  0  0  0  0  0  0
  1  2  1  0  0  0  0
  2  3  1  0  0  0  0
  3  4  1  0  0  0  0
  4  5  1  0  0  0  0
  5  6  1  0  0  0  0
  6  7  1  0  0  0  0
  7  8  1  0  0  0  0
  8  9  1  0  0  0  0
  9 10  1  0  0  0  0
 10 11  1  0  0  0  0
 11 12  1  0  0  0  0
 12 13  1  0  0  0  0
 13 14  1  0  0  0  0
M  END
>  <CHROM.1>
60.51471142,57.53815788,-178.88429209,144.21908544,-58.42597588,-176.70485939
-175.38006931,178.45681988,118.32240127,-173.35207785,-178.04965337,42.87878858
9.68236100,19.16409982,-1.22857910,0.16383514,-0.42705112

>  <Name>
ligand

>  <RI>
0

>  <Rbt.Current_Directory>
/home/itssahil/PROJECTS/Mol_Feturizer/New_Systems/rnas/1TN2

>  <Rbt.Executable>
rbdock ($Id: //depot/dev/client3/rdock/2013.1/src/exe/rbdock.cxx#4 $)

>  <Rbt.Library>
libRbt.so (2013.1, Build901 2013/11/27)

>  <Rbt.Parameter_File>
/export/apps/rDock/src/rDock_2013.1_src/data/scripts/dock_solv.prm

>  <Rbt.Receptor>
prm/pocket_docking_6.prm

>  <SCORE>
-13.305

>  <SCORE.INTER>
-10.8046

>  <SCORE.INTER.CONST>
1

>  <SCORE.INTER.POLAR>
0

>  <SCORE.INTER.ROT>
11

>  <SCORE.INTER.SOLV>
14.4994

>  <SCORE.INTER.VDW>
-22.9695

>  <SCORE.INTER.norm>
-0.771758

>  <SCORE.INTRA>
-2.50043

>  <SCORE.INTRA.DIHEDRAL>
-5.47634

>  <SCORE.INTRA.DIHEDRAL.0>
7.79482

>  <SCORE.INTRA.POLAR>
0

>  <SCORE.INTRA.POLAR.0>
0

>  <SCORE.INTRA.REPUL>
0

>  <SCORE.INTRA.REPUL.0>
0

>  <SCORE.INTRA.SOLV>
2.1568

>  <SCORE.INTRA.SOLV.lig_0>
-49.456

>  <SCORE.INTRA.VDW>
-0.840662

>  <SCORE.INTRA.VDW.0>
-0.478406

>  <SCORE.INTRA.norm>
-0.178602

>  <SCORE.RESTR>
0

>  <SCORE.RESTR.CAVITY>
0

>  <SCORE.RESTR.norm>
0

>  <SCORE.SYSTEM>
0

>  <SCORE.SYSTEM.CONST>
0

>  <SCORE.SYSTEM.DIHEDRAL>
0

>  <SCORE.SYSTEM.SOLV>
0

>  <SCORE.SYSTEM.norm>
0

>  <SCORE.heavy>
14

>  <SCORE.norm>
-0.95036

>  <RMSD>
5.620

$$$$
ligand
 OpenBabel11021811413D
libRbt.so/2013.1/901 2013/11/27
 14 13  0  0  0  0  0  0  0  0999 V2000
   47.2894   12.2771   16.1069 N   0  0  0  0  0  0  0  0  0  0  0  0
   46.4480   11.3394   15.3323 C   0  0  0  0  0  0  0  0  0  0  0  0
   45.5162   10.5294   16.2595 C   0  0  0  0  0  0  0  0  0  0  0  0
   44.4451   11.3655   16.9790 C   0  0  0  0  0  0  0  0  0  0  0  0
   43.6296   10.5180   17.8918 N   0  0  0  0  0  0  0  0  0  0  0  0
   42.4343   11.2673   18.3569 C   0  0  0  0  0  0  0  0  0  0  0  0
   41.1778   10.3955   18.6937 C   0  0  0  0  0  0  0  0  0  0  0  0
   41.3610    9.4683   19.9295 C   0  0  0  0  0  0  0  0  0  0  0  0
   42.4511    8.4279   19.7623 C   0  0  0  0  0  0  0  0  0  0  0  0
   42.5218    7.6638   20.9934 N   0  0  0  0  0  0  0  0  0  0  0  0
   43.5751    6.6838   20.7936 C   0  0  0  0  0  0  0  0  0  0  0  0
   43.4085    5.4885   21.7246 C   0  0  0  0  0  0  0  0  0  0  0  0
   42.0724    4.8134   21.3796 C   0  0  0  0  0  0  0  0  0  0  0  0
   41.7554    3.7082   22.2965 N   0  0  0  0  0  0  0  0  0  0  0  0
  1  2  1  0  0  0  0
  2  3  1  0  0  0  0
  3  4  1  0  0  0  0
  4  5  1  0  0  0  0
  5  6  1  0  0  0  0
  6  7  1  0  0  0  0
  7  8  1  0  0  0  0
  8  9  1  0  0  0  0
  9 10  1  0  0  0  0
 10 11  1  0  0  0  0
 11 12  1  0  0  0  0
 12 13  1  0  0  0  0
 13 14  1  0  0  0  0
M  END
>  <CHROM.1>
66.06407068,-177.66954042,-168.19944818,150.83723781,66.89817653,-62.57405535
178.86568888,-179.89889193,-157.31361682,62.17654121,-175.22778646,43.43455133
8.85342112,19.03556855,-1.15571366,-0.39187484,2.60215106

>  <Name>
ligand

>  <RI>
0

>  <Rbt.Current_Directory>
/home/itssahil/PROJECTS/Mol_Feturizer/New_Systems/rnas/1TN2

>  <Rbt.Executable>
rbdock ($Id: //depot/dev/client3/rdock/2013.1/src/exe/rbdock.cxx#4 $)

>  <Rbt.Library>
libRbt.so (2013.1, Build901 2013/11/27)

>  <Rbt.Parameter_File>
/export/apps/rDock/src/rDock_2013.1_src/data/scripts/dock_solv.prm

>  <Rbt.Receptor>
prm/pocket_docking_7.prm

>  <SCORE>
-8.35413

>  <SCORE.INTER>
-5.92916

>  <SCORE.INTER.CONST>
1

>  <SCORE.INTER.POLAR>
0

>  <SCORE.INTER.ROT>
11

>  <SCORE.INTER.SOLV>
12.9051

>  <SCORE.INTER.VDW>
-19.1878

>  <SCORE.INTER.norm>
-0.423511

>  <SCORE.INTRA>
-2.42498

>  <SCORE.INTRA.DIHEDRAL>
-6.26156

>  <SCORE.INTRA.DIHEDRAL.0>
7.79482

>  <SCORE.INTRA.POLAR>
0

>  <SCORE.INTRA.POLAR.0>
0

>  <SCORE.INTRA.REPUL>
0

>  <SCORE.INTRA.REPUL.0>
0

>  <SCORE.INTRA.SOLV>
2.11769

>  <SCORE.INTRA.SOLV.lig_0>
-49.456

>  <SCORE.INTRA.VDW>
-0.353038

>  <SCORE.INTRA.VDW.0>
-0.478406

>  <SCORE.INTRA.norm>
-0.173213

>  <SCORE.RESTR>
0

>  <SCORE.RESTR.CAVITY>
0

>  <SCORE.RESTR.norm>
0

>  <SCORE.SYSTEM>
0

>  <SCORE.SYSTEM.CONST>
0

>  <SCORE.SYSTEM.DIHEDRAL>
0

>  <SCORE.SYSTEM.SOLV>
0

>  <SCORE.SYSTEM.norm>
0

>  <SCORE.heavy>
14

>  <SCORE.norm>
-0.596724

>  <RMSD>
5.635

$$$$
ligand
 OpenBabel11021811413D
libRbt.so/2013.1/901 2013/11/27
 14 13  0  0  0  0  0  0  0  0999 V2000
   44.0626    7.5045   20.6478 N   0  0  0  0  0  0  0  0  0  0  0  0
   44.3675    6.0582   20.5982 C   0  0  0  0  0  0  0  0  0  0  0  0
   45.7855    5.8055   20.0419 C   0  0  0  0  0  0  0  0  0  0  0  0
   46.1631    4.3217   19.9024 C   0  0  0  0  0  0  0  0  0  0  0  0
   45.3065    3.6451   18.8900 N   0  0  0  0  0  0  0  0  0  0  0  0
   45.6321    2.1971   18.8272 C   0  0  0  0  0  0  0  0  0  0  0  0
   45.0524    1.4260   17.5937 C   0  0  0  0  0  0  0  0  0  0  0  0
   45.5687    1.9446   16.2207 C   0  0  0  0  0  0  0  0  0  0  0  0
   45.0628    1.1497   15.0328 C   0  0  0  0  0  0  0  0  0  0  0  0
   45.6456    1.7280   13.8369 N   0  0  0  0  0  0  0  0  0  0  0  0
   45.8206    0.6262   12.9066 C   0  0  0  0  0  0  0  0  0  0  0  0
   46.8323    0.9696   11.8195 C   0  0  0  0  0  0  0  0  0  0  0  0
   47.0116   -0.2777   10.9409 C   0  0  0  0  0  0  0  0  0  0  0  0
   47.6207   -1.3943   11.6790 N   0  0  0  0  0  0  0  0  0  0  0  0
  1  2  1  0  0  0  0
  2  3  1  0  0  0  0
  3  4  1  0  0  0  0
  4  5  1  0  0  0  0
  5  6  1  0  0  0  0
  6  7  1  0  0  0  0
  7  8  1  0  0  0  0
  8  9  1  0  0  0  0
  9 10  1  0  0  0  0
 10 11  1  0  0  0  0
 11 12  1  0  0  0  0
 12 13  1  0  0  0  0
 13 14  1  0  0  0  0
M  END
>  <CHROM.1>
-177.62089759,65.01891139,-176.67947273,-166.56174796,61.61813451,176.95280403
-178.81161392,147.87762612,-160.59879035,176.64503026,-65.32683784,45.70943893
2.55015673,16.35271239,2.67968025,-1.37914393,2.07117604

>  <Name>
ligand

>  <RI>
0

>  <Rbt.Current_Directory>
/home/itssahil/PROJECTS/Mol_Feturizer/New_Systems/rnas/1TN2

>  <Rbt.Executable>
rbdock ($Id: //depot/dev/client3/rdock/2013.1/src/exe/rbdock.cxx#4 $)

>  <Rbt.Library>
libRbt.so (2013.1, Build901 2013/11/27)

>  <Rbt.Parameter_File>
/export/apps/rDock/src/rDock_2013.1_src/data/scripts/dock_solv.prm

>  <Rbt.Receptor>
prm/blind_docking_80.prm

>  <SCORE>
-4.62094

>  <SCORE.INTER>
-1.43214

>  <SCORE.INTER.CONST>
1

>  <SCORE.INTER.POLAR>
0

>  <SCORE.INTER.ROT>
11

>  <SCORE.INTER.SOLV>
12.9098

>  <SCORE.INTER.VDW>
-16.1914

>  <SCORE.INTER.norm>
-0.102296

>  <SCORE.INTRA>
-3.1888

>  <SCORE.INTRA.DIHEDRAL>
-6.37349

>  <SCORE.INTRA.DIHEDRAL.0>
7.79482

>  <SCORE.INTRA.POLAR>
0

>  <SCORE.INTRA.POLAR.0>
0

>  <SCORE.INTRA.REPUL>
0

>  <SCORE.INTRA.REPUL.0>
0

>  <SCORE.INTRA.SOLV>
1.42327

>  <SCORE.INTRA.SOLV.lig_0>
-49.456

>  <SCORE.INTRA.VDW>
-0.713691

>  <SCORE.INTRA.VDW.0>
-0.478406

>  <SCORE.INTRA.norm>
-0.227772

>  <SCORE.RESTR>
0

>  <SCORE.RESTR.CAVITY>
0

>  <SCORE.RESTR.norm>
0

>  <SCORE.SYSTEM>
0

>  <SCORE.SYSTEM.CONST>
0

>  <SCORE.SYSTEM.DIHEDRAL>
0

>  <SCORE.SYSTEM.SOLV>
0

>  <SCORE.SYSTEM.norm>
0

>  <SCORE.heavy>
14

>  <SCORE.norm>
-0.330067

>  <RMSD>
5.644

$$$$
ligand
 OpenBabel11021811413D
libRbt.so/2013.1/901 2013/11/27
 14 13  0  0  0  0  0  0  0  0999 V2000
   48.1680    2.2937   11.6156 N   0  0  0  0  0  0  0  0  0  0  0  0
   47.0291    2.1095   12.5408 C   0  0  0  0  0  0  0  0  0  0  0  0
   46.3106    0.7678   12.2811 C   0  0  0  0  0  0  0  0  0  0  0  0
   45.1406    0.4735   13.2343 C   0  0  0  0  0  0  0  0  0  0  0  0
   45.6028    0.4249   14.6486 N   0  0  0  0  0  0  0  0  0  0  0  0
   44.4385    0.3305   15.5663 C   0  0  0  0  0  0  0  0  0  0  0  0
   44.7481    0.5823   17.0805 C   0  0  0  0  0  0  0  0  0  0  0  0
   45.2979    2.0048   17.3883 C   0  0  0  0  0  0  0  0  0  0  0  0
   45.5009    2.2799   18.8655 C   0  0  0  0  0  0  0  0  0  0  0  0
   46.0223    3.6275   18.9938 N   0  0  0  0  0  0  0  0  0  0  0  0
   45.2550    4.2515   20.0576 C   0  0  0  0  0  0  0  0  0  0  0  0
   45.9234    5.5291   20.5517 C   0  0  0  0  0  0  0  0  0  0  0  0
   45.9061    6.5400   19.3951 C   0  0  0  0  0  0  0  0  0  0  0  0
   46.5213    7.8223   19.7688 N   0  0  0  0  0  0  0  0  0  0  0  0
  1  2  1  0  0  0  0
  2  3  1  0  0  0  0
  3  4  1  0  0  0  0
  4  5  1  0  0  0  0
  5  6  1  0  0  0  0
  6  7  1  0  0  0  0
  7  8  1  0  0  0  0
  8  9  1  0  0  0  0
  9 10  1  0  0  0  0
 10 11  1  0  0  0  0
 11 12  1  0  0  0  0
 12 13  1  0  0  0  0
 13 14  1  0  0  0  0
M  END
>  <CHROM.1>
177.98435802,-59.92740383,172.08916647,-167.27041464,61.77920085,175.76557614
179.54891647,134.09411352,165.04331776,65.10042553,179.53574072,45.84717396
2.78805682,16.57070151,-1.48497239,1.04221437,0.90509462

>  <Name>
ligand

>  <RI>
0

>  <Rbt.Current_Directory>
/home/itssahil/PROJECTS/Mol_Feturizer/New_Systems/rnas/1TN2

>  <Rbt.Executable>
rbdock ($Id: //depot/dev/client3/rdock/2013.1/src/exe/rbdock.cxx#4 $)

>  <Rbt.Library>
libRbt.so (2013.1, Build901 2013/11/27)

>  <Rbt.Parameter_File>
/export/apps/rDock/src/rDock_2013.1_src/data/scripts/dock_solv.prm

>  <Rbt.Receptor>
prm/blind_docking_60.prm

>  <SCORE>
-6.14432

>  <SCORE.INTER>
-2.88042

>  <SCORE.INTER.CONST>
1

>  <SCORE.INTER.POLAR>
0

>  <SCORE.INTER.ROT>
11

>  <SCORE.INTER.SOLV>
13.7699

>  <SCORE.INTER.VDW>
-17.4436

>  <SCORE.INTER.norm>
-0.205744

>  <SCORE.INTRA>
-3.2639

>  <SCORE.INTRA.DIHEDRAL>
-6.19532

>  <SCORE.INTRA.DIHEDRAL.0>
7.79482

>  <SCORE.INTRA.POLAR>
0

>  <SCORE.INTRA.POLAR.0>
0

>  <SCORE.INTRA.REPUL>
0

>  <SCORE.INTRA.REPUL.0>
0

>  <SCORE.INTRA.SOLV>
1.04497

>  <SCORE.INTRA.SOLV.lig_0>
-49.456

>  <SCORE.INTRA.VDW>
-0.688728

>  <SCORE.INTRA.VDW.0>
-0.478406

>  <SCORE.INTRA.norm>
-0.233136

>  <SCORE.RESTR>
0

>  <SCORE.RESTR.CAVITY>
0

>  <SCORE.RESTR.norm>
0

>  <SCORE.SYSTEM>
0

>  <SCORE.SYSTEM.CONST>
0

>  <SCORE.SYSTEM.DIHEDRAL>
0

>  <SCORE.SYSTEM.SOLV>
0

>  <SCORE.SYSTEM.norm>
0

>  <SCORE.heavy>
14

>  <SCORE.norm>
-0.43888

>  <RMSD>
5.690

$$$$
ligand
 OpenBabel11021811413D
libRbt.so/2013.1/901 2013/11/27
 14 13  0  0  0  0  0  0  0  0999 V2000
   40.4709    2.6706   22.1815 N   0  0  0  0  0  0  0  0  0  0  0  0
   41.4445    3.4858   21.4234 C   0  0  0  0  0  0  0  0  0  0  0  0
   42.1606    4.4982   22.3432 C   0  0  0  0  0  0  0  0  0  0  0  0
   43.1346    5.4425   21.6196 C   0  0  0  0  0  0  0  0  0  0  0  0
   42.4380    6.2146   20.5542 N   0  0  0  0  0  0  0  0  0  0  0  0
   41.5090    7.2028   21.1602 C   0  0  0  0  0  0  0  0  0  0  0  0
   40.8969    8.2512   20.1711 C   0  0  0  0  0  0  0  0  0  0  0  0
   41.9298    9.2658   19.6019 C   0  0  0  0  0  0  0  0  0  0  0  0
   41.3119   10.3702   18.7668 C   0  0  0  0  0  0  0  0  0  0  0  0
   42.3764   11.2766   18.3800 N   0  0  0  0  0  0  0  0  0  0  0  0
   41.8601   12.0413   17.2583 C   0  0  0  0  0  0  0  0  0  0  0  0
   42.4078   13.4637   17.2537 C   0  0  0  0  0  0  0  0  0  0  0  0
   41.8896   14.1653   18.5183 C   0  0  0  0  0  0  0  0  0  0  0  0
   42.3077   15.5738   18.5830 N   0  0  0  0  0  0  0  0  0  0  0  0
  1  2  1  0  0  0  0
  2  3  1  0  0  0  0
  3  4  1  0  0  0  0
  4  5  1  0  0  0  0
  5  6  1  0  0  0  0
  6  7  1  0  0  0  0
  7  8  1  0  0  0  0
  8  9  1  0  0  0  0
  9 10  1  0  0  0  0
 10 11  1  0  0  0  0
 11 12  1  0  0  0  0
 12 13  1  0  0  0  0
 13 14  1  0  0  0  0
M  END
>  <CHROM.1>
-176.70089540,57.76589692,69.71410573,169.76395627,-68.09867401,-173.63626015
176.45484934,161.80315164,146.61300389,-64.20177270,-177.24448849,41.86696727
8.85156543,19.84390757,1.64345699,0.88629216,2.70807576

>  <Name>
ligand

>  <RI>
0

>  <Rbt.Current_Directory>
/home/itssahil/PROJECTS/Mol_Feturizer/New_Systems/rnas/1TN2

>  <Rbt.Executable>
rbdock ($Id: //depot/dev/client3/rdock/2013.1/src/exe/rbdock.cxx#4 $)

>  <Rbt.Library>
libRbt.so (2013.1, Build901 2013/11/27)

>  <Rbt.Parameter_File>
/export/apps/rDock/src/rDock_2013.1_src/data/scripts/dock_solv.prm

>  <Rbt.Receptor>
prm/pocket_docking_8.prm

>  <SCORE>
-9.67028

>  <SCORE.INTER>
-7.31503

>  <SCORE.INTER.CONST>
1

>  <SCORE.INTER.POLAR>
0

>  <SCORE.INTER.ROT>
11

>  <SCORE.INTER.SOLV>
12.5382

>  <SCORE.INTER.VDW>
-19.9894

>  <SCORE.INTER.norm>
-0.522502

>  <SCORE.INTRA>
-2.35525

>  <SCORE.INTRA.DIHEDRAL>
-6.06123

>  <SCORE.INTRA.DIHEDRAL.0>
7.79482

>  <SCORE.INTRA.POLAR>
0

>  <SCORE.INTRA.POLAR.0>
0

>  <SCORE.INTRA.REPUL>
0

>  <SCORE.INTRA.REPUL.0>
0

>  <SCORE.INTRA.SOLV>
1.05019

>  <SCORE.INTRA.SOLV.lig_0>
-49.456

>  <SCORE.INTRA.VDW>
0.150272

>  <SCORE.INTRA.VDW.0>
-0.478406

>  <SCORE.INTRA.norm>
-0.168232

>  <SCORE.RESTR>
0

>  <SCORE.RESTR.CAVITY>
0

>  <SCORE.RESTR.norm>
0

>  <SCORE.SYSTEM>
0

>  <SCORE.SYSTEM.CONST>
0

>  <SCORE.SYSTEM.DIHEDRAL>
0

>  <SCORE.SYSTEM.SOLV>
0

>  <SCORE.SYSTEM.norm>
0

>  <SCORE.heavy>
14

>  <SCORE.norm>
-0.690735

>  <RMSD>
5.704

$$$$
ligand
 OpenBabel11021811413D
libRbt.so/2013.1/901 2013/11/27
 14 13  0  0  0  0  0  0  0  0999 V2000
   46.9763    8.1223   17.9485 N   0  0  0  0  0  0  0  0  0  0  0  0
   46.7327    6.9794   18.8547 C   0  0  0  0  0  0  0  0  0  0  0  0
   46.1904    7.4553   20.2198 C   0  0  0  0  0  0  0  0  0  0  0  0
   44.8473    8.2004   20.1502 C   0  0  0  0  0  0  0  0  0  0  0  0
   43.7590    7.2977   19.6842 N   0  0  0  0  0  0  0  0  0  0  0  0
   42.8608    6.9501   20.8153 C   0  0  0  0  0  0  0  0  0  0  0  0
   41.3331    7.1837   20.5626 C   0  0  0  0  0  0  0  0  0  0  0  0
   40.9420    8.6773   20.3716 C   0  0  0  0  0  0  0  0  0  0  0  0
   41.5616    9.3242   19.1483 C   0  0  0  0  0  0  0  0  0  0  0  0
   41.2349   10.7371   19.1853 N   0  0  0  0  0  0  0  0  0  0  0  0
   41.9125   11.3323   18.0467 C   0  0  0  0  0  0  0  0  0  0  0  0
   42.1775   12.8167   18.2690 C   0  0  0  0  0  0  0  0  0  0  0  0
   42.8220   13.3705   16.9891 C   0  0  0  0  0  0  0  0  0  0  0  0
   44.1538   12.7968   16.7447 N   0  0  0  0  0  0  0  0  0  0  0  0
  1  2  1  0  0  0  0
  2  3  1  0  0  0  0
  3  4  1  0  0  0  0
  4  5  1  0  0  0  0
  5  6  1  0  0  0  0
  6  7  1  0  0  0  0
  7  8  1  0  0  0  0
  8  9  1  0  0  0  0
  9 10  1  0  0  0  0
 10 11  1  0  0  0  0
 11 12  1  0  0  0  0
 12 13  1  0  0  0  0
 13 14  1  0  0  0  0
M  END
>  <CHROM.1>
61.17242931,65.18313066,107.01380584,128.24863729,-65.41159717,63.62800166
-173.63814932,176.58970205,-155.25460836,-176.93345667,-65.85919492,43.39288199
9.37440398,19.07099280,-1.10983831,0.28061425,-0.51213987

>  <Name>
ligand

>  <RI>
0

>  <Rbt.Current_Directory>
/home/itssahil/PROJECTS/Mol_Feturizer/New_Systems/rnas/1TN2

>  <Rbt.Executable>
rbdock ($Id: //depot/dev/client3/rdock/2013.1/src/exe/rbdock.cxx#4 $)

>  <Rbt.Library>
libRbt.so (2013.1, Build901 2013/11/27)

>  <Rbt.Parameter_File>
/export/apps/rDock/src/rDock_2013.1_src/data/scripts/dock_solv.prm

>  <Rbt.Receptor>
prm/pocket_docking_6.prm

>  <SCORE>
-11.7423

>  <SCORE.INTER>
-10.6655

>  <SCORE.INTER.CONST>
1

>  <SCORE.INTER.POLAR>
0

>  <SCORE.INTER.ROT>
11

>  <SCORE.INTER.SOLV>
13.9914

>  <SCORE.INTER.VDW>
-22.7075

>  <SCORE.INTER.norm>
-0.761823

>  <SCORE.INTRA>
-1.07674

>  <SCORE.INTRA.DIHEDRAL>
-4.54942

>  <SCORE.INTRA.DIHEDRAL.0>
7.79482

>  <SCORE.INTRA.POLAR>
0

>  <SCORE.INTRA.POLAR.0>
0

>  <SCORE.INTRA.REPUL>
0

>  <SCORE.INTRA.REPUL.0>
0

>  <SCORE.INTRA.SOLV>
3.50664

>  <SCORE.INTRA.SOLV.lig_0>
-49.456

>  <SCORE.INTRA.VDW>
-0.555353

>  <SCORE.INTRA.VDW.0>
-0.478406

>  <SCORE.INTRA.norm>
-0.0769102

>  <SCORE.RESTR>
0

>  <SCORE.RESTR.CAVITY>
0

>  <SCORE.RESTR.norm>
0

>  <SCORE.SYSTEM>
0

>  <SCORE.SYSTEM.CONST>
0

>  <SCORE.SYSTEM.DIHEDRAL>
0

>  <SCORE.SYSTEM.SOLV>
0

>  <SCORE.SYSTEM.norm>
0

>  <SCORE.heavy>
14

>  <SCORE.norm>
-0.838733

>  <RMSD>
5.723

$$$$
ligand
 OpenBabel11021811413D
libRbt.so/2013.1/901 2013/11/27
 14 13  0  0  0  0  0  0  0  0999 V2000
   46.1480    8.5945   19.0961 N   0  0  0  0  0  0  0  0  0  0  0  0
   46.0012    7.2236   19.6312 C   0  0  0  0  0  0  0  0  0  0  0  0
   44.8357    7.1404   20.6405 C   0  0  0  0  0  0  0  0  0  0  0  0
   44.5610    5.7293   21.1858 C   0  0  0  0  0  0  0  0  0  0  0  0
   43.3563    5.7195   22.0604 N   0  0  0  0  0  0  0  0  0  0  0  0
   42.1477    5.3812   21.2657 C   0  0  0  0  0  0  0  0  0  0  0  0
   41.6181    6.5145   20.3237 C   0  0  0  0  0  0  0  0  0  0  0  0
   41.0542    7.7540   21.0761 C   0  0  0  0  0  0  0  0  0  0  0  0
   40.6620    8.9010   20.1654 C   0  0  0  0  0  0  0  0  0  0  0  0
   41.8719    9.3964   19.5368 N   0  0  0  0  0  0  0  0  0  0  0  0
   41.4849   10.6003   18.8224 C   0  0  0  0  0  0  0  0  0  0  0  0
   42.6428   11.1596   18.0039 C   0  0  0  0  0  0  0  0  0  0  0  0
   42.1179   12.3770   17.2277 C   0  0  0  0  0  0  0  0  0  0  0  0
   41.8959   13.5391   18.1011 N   0  0  0  0  0  0  0  0  0  0  0  0
  1  2  1  0  0  0  0
  2  3  1  0  0  0  0
  3  4  1  0  0  0  0
  4  5  1  0  0  0  0
  5  6  1  0  0  0  0
  6  7  1  0  0  0  0
  7  8  1  0  0  0  0
  8  9  1  0  0  0  0
  9 10  1  0  0  0  0
 10 11  1  0  0  0  0
 11 12  1  0  0  0  0
 12 13  1  0  0  0  0
 13 14  1  0  0  0  0
M  END
>  <CHROM.1>
176.64625945,-175.28988595,92.65953160,-73.95866104,-66.99803841,174.60451878
-65.38859492,-172.36985454,-174.74720634,176.86572970,73.01157684,42.88536372
8.57328192,19.79552814,-1.30962969,0.17179195,-0.51313790

>  <Name>
ligand

>  <RI>
0

>  <Rbt.Current_Directory>
/home/itssahil/PROJECTS/Mol_Feturizer/New_Systems/rnas/1TN2

>  <Rbt.Executable>
rbdock ($Id: //depot/dev/client3/rdock/2013.1/src/exe/rbdock.cxx#4 $)

>  <Rbt.Library>
libRbt.so (2013.1, Build901 2013/11/27)

>  <Rbt.Parameter_File>
/export/apps/rDock/src/rDock_2013.1_src/data/scripts/dock_solv.prm

>  <Rbt.Receptor>
prm/pocket_docking_7.prm

>  <SCORE>
-13.1151

>  <SCORE.INTER>
-10.5616

>  <SCORE.INTER.CONST>
1

>  <SCORE.INTER.POLAR>
0

>  <SCORE.INTER.ROT>
11

>  <SCORE.INTER.SOLV>
16.3908

>  <SCORE.INTER.VDW>
-23.438

>  <SCORE.INTER.norm>
-0.754398

>  <SCORE.INTRA>
-2.55355

>  <SCORE.INTRA.DIHEDRAL>
-5.69568

>  <SCORE.INTRA.DIHEDRAL.0>
7.79482

>  <SCORE.INTRA.POLAR>
0

>  <SCORE.INTRA.POLAR.0>
0

>  <SCORE.INTRA.REPUL>
0

>  <SCORE.INTRA.REPUL.0>
0

>  <SCORE.INTRA.SOLV>
1.78972

>  <SCORE.INTRA.SOLV.lig_0>
-49.456

>  <SCORE.INTRA.VDW>
-0.600574

>  <SCORE.INTRA.VDW.0>
-0.478406

>  <SCORE.INTRA.norm>
-0.182397

>  <SCORE.RESTR>
0

>  <SCORE.RESTR.CAVITY>
0

>  <SCORE.RESTR.norm>
0

>  <SCORE.SYSTEM>
0

>  <SCORE.SYSTEM.CONST>
0

>  <SCORE.SYSTEM.DIHEDRAL>
0

>  <SCORE.SYSTEM.SOLV>
0

>  <SCORE.SYSTEM.norm>
0

>  <SCORE.heavy>
14

>  <SCORE.norm>
-0.936795

>  <RMSD>
5.732

$$$$
ligand
 OpenBabel11021811413D
libRbt.so/2013.1/901 2013/11/27
 14 13  0  0  0  0  0  0  0  0999 V2000
   45.3467    7.6534   20.7350 N   0  0  0  0  0  0  0  0  0  0  0  0
   45.5033    6.1837   20.7835 C   0  0  0  0  0  0  0  0  0  0  0  0
   45.9498    5.6246   19.4153 C   0  0  0  0  0  0  0  0  0  0  0  0
   46.0987    4.0950   19.3668 C   0  0  0  0  0  0  0  0  0  0  0  0
   46.4025    3.6312   17.9852 N   0  0  0  0  0  0  0  0  0  0  0  0
   46.5649    2.1547   17.9634 C   0  0  0  0  0  0  0  0  0  0  0  0
   45.2410    1.3266   18.0796 C   0  0  0  0  0  0  0  0  0  0  0  0
   45.2521   -0.0050   17.2750 C   0  0  0  0  0  0  0  0  0  0  0  0
   45.2436    0.1847   15.7708 C   0  0  0  0  0  0  0  0  0  0  0  0
   45.1767   -1.1305   15.1624 N   0  0  0  0  0  0  0  0  0  0  0  0
   44.4943   -0.9477   13.8933 C   0  0  0  0  0  0  0  0  0  0  0  0
   44.7568   -2.1126   12.9461 C   0  0  0  0  0  0  0  0  0  0  0  0
   44.1113   -3.3646   13.5590 C   0  0  0  0  0  0  0  0  0  0  0  0
   44.3733   -4.5719   12.7613 N   0  0  0  0  0  0  0  0  0  0  0  0
  1  2  1  0  0  0  0
  2  3  1  0  0  0  0
  3  4  1  0  0  0  0
  4  5  1  0  0  0  0
  5  6  1  0  0  0  0
  6  7  1  0  0  0  0
  7  8  1  0  0  0  0
  8  9  1  0  0  0  0
  9 10  1  0  0  0  0
 10 11  1  0  0  0  0
 11 12  1  0  0  0  0
 12 13  1  0  0  0  0
 13 14  1  0  0  0  0
M  END
>  <CHROM.1>
-178.36060581,174.54059513,179.05834010,74.50993327,146.01301787,-68.86343594
-176.73592347,151.07638785,160.81506651,65.74156922,-176.61085698,45.32249679
1.33723917,16.83555235,1.15366441,-1.28018132,0.24281683

>  <Name>
ligand

>  <RI>
0

>  <Rbt.Current_Directory>
/home/itssahil/PROJECTS/Mol_Feturizer/New_Systems/rnas/1TN2

>  <Rbt.Executable>
rbdock ($Id: //depot/dev/client3/rdock/2013.1/src/exe/rbdock.cxx#4 $)

>  <Rbt.Library>
libRbt.so (2013.1, Build901 2013/11/27)

>  <Rbt.Parameter_File>
/export/apps/rDock/src/rDock_2013.1_src/data/scripts/dock_solv.prm

>  <Rbt.Receptor>
prm/blind_docking_60.prm

>  <SCORE>
-6.28538

>  <SCORE.INTER>
-5.11812

>  <SCORE.INTER.CONST>
1

>  <SCORE.INTER.POLAR>
0

>  <SCORE.INTER.ROT>
11

>  <SCORE.INTER.SOLV>
17.9508

>  <SCORE.INTER.VDW>
-20.329

>  <SCORE.INTER.norm>
-0.36558

>  <SCORE.INTRA>
-1.16726

>  <SCORE.INTRA.DIHEDRAL>
-2.79964

>  <SCORE.INTRA.DIHEDRAL.0>
7.79482

>  <SCORE.INTRA.POLAR>
0

>  <SCORE.INTRA.POLAR.0>
0

>  <SCORE.INTRA.REPUL>
0

>  <SCORE.INTRA.REPUL.0>
0

>  <SCORE.INTRA.SOLV>
0.651547

>  <SCORE.INTRA.SOLV.lig_0>
-49.456

>  <SCORE.INTRA.VDW>
-0.0932069

>  <SCORE.INTRA.VDW.0>
-0.478406

>  <SCORE.INTRA.norm>
-0.0833754

>  <SCORE.RESTR>
0

>  <SCORE.RESTR.CAVITY>
0

>  <SCORE.RESTR.norm>
0

>  <SCORE.SYSTEM>
0

>  <SCORE.SYSTEM.CONST>
0

>  <SCORE.SYSTEM.DIHEDRAL>
0

>  <SCORE.SYSTEM.SOLV>
0

>  <SCORE.SYSTEM.norm>
0

>  <SCORE.heavy>
14

>  <SCORE.norm>
-0.448955

>  <RMSD>
5.751

$$$$
ligand
 OpenBabel11021811413D
libRbt.so/2013.1/901 2013/11/27
 14 13  0  0  0  0  0  0  0  0999 V2000
   47.6258   14.6388   19.0119 N   0  0  0  0  0  0  0  0  0  0  0  0
   46.8113   13.4441   19.3222 C   0  0  0  0  0  0  0  0  0  0  0  0
   46.6611   12.5342   18.0838 C   0  0  0  0  0  0  0  0  0  0  0  0
   45.8346   11.2599   18.3225 C   0  0  0  0  0  0  0  0  0  0  0  0
   46.4390   10.4241   19.3960 N   0  0  0  0  0  0  0  0  0  0  0  0
   45.8598    9.0564   19.3693 C   0  0  0  0  0  0  0  0  0  0  0  0
   46.5158    8.0245   20.3475 C   0  0  0  0  0  0  0  0  0  0  0  0
   45.8782    6.6063   20.2958 C   0  0  0  0  0  0  0  0  0  0  0  0
   44.4679    6.5450   20.8493 C   0  0  0  0  0  0  0  0  0  0  0  0
   43.6158    7.3204   19.9678 N   0  0  0  0  0  0  0  0  0  0  0  0
   42.3477    7.4606   20.6619 C   0  0  0  0  0  0  0  0  0  0  0  0
   41.3105    8.1617   19.7924 C   0  0  0  0  0  0  0  0  0  0  0  0
   39.9933    8.2025   20.5819 C   0  0  0  0  0  0  0  0  0  0  0  0
   39.4579    6.8572   20.8391 N   0  0  0  0  0  0  0  0  0  0  0  0
  1  2  1  0  0  0  0
  2  3  1  0  0  0  0
  3  4  1  0  0  0  0
  4  5  1  0  0  0  0
  5  6  1  0  0  0  0
  6  7  1  0  0  0  0
  7  8  1  0  0  0  0
  8  9  1  0  0  0  0
  9 10  1  0  0  0  0
 10 11  1  0  0  0  0
 11 12  1  0  0  0  0
 12 13  1  0  0  0  0
 13 14  1  0  0  0  0
M  END
>  <CHROM.1>
179.57012247,-59.05780610,-164.95223787,173.72039499,179.71566840,-68.87309388
66.36207553,-168.97373829,-175.22983265,177.33709643,-63.98428798,44.48713830
9.32378799,19.77438408,0.80842490,0.06120376,-0.23410702

>  <Name>
ligand

>  <RI>
0

>  <Rbt.Current_Directory>
/home/itssahil/PROJECTS/Mol_Feturizer/New_Systems/rnas/1TN2

>  <Rbt.Executable>
rbdock ($Id: //depot/dev/client3/rdock/2013.1/src/exe/rbdock.cxx#4 $)

>  <Rbt.Library>
libRbt.so (2013.1, Build901 2013/11/27)

>  <Rbt.Parameter_File>
/export/apps/rDock/src/rDock_2013.1_src/data/scripts/dock_solv.prm

>  <Rbt.Receptor>
prm/pocket_docking_8.prm

>  <SCORE>
-9.55747

>  <SCORE.INTER>
-6.97364

>  <SCORE.INTER.CONST>
1

>  <SCORE.INTER.POLAR>
0

>  <SCORE.INTER.ROT>
11

>  <SCORE.INTER.SOLV>
9.69135

>  <SCORE.INTER.VDW>
-18.8129

>  <SCORE.INTER.norm>
-0.498117

>  <SCORE.INTRA>
-2.58382

>  <SCORE.INTRA.DIHEDRAL>
-6.90295

>  <SCORE.INTRA.DIHEDRAL.0>
7.79482

>  <SCORE.INTRA.POLAR>
0

>  <SCORE.INTRA.POLAR.0>
0

>  <SCORE.INTRA.REPUL>
0

>  <SCORE.INTRA.REPUL.0>
0

>  <SCORE.INTRA.SOLV>
2.21397

>  <SCORE.INTRA.SOLV.lig_0>
-49.456

>  <SCORE.INTRA.VDW>
-0.239332

>  <SCORE.INTRA.VDW.0>
-0.478406

>  <SCORE.INTRA.norm>
-0.184559

>  <SCORE.RESTR>
0

>  <SCORE.RESTR.CAVITY>
0

>  <SCORE.RESTR.norm>
0

>  <SCORE.SYSTEM>
0

>  <SCORE.SYSTEM.CONST>
0

>  <SCORE.SYSTEM.DIHEDRAL>
0

>  <SCORE.SYSTEM.SOLV>
0

>  <SCORE.SYSTEM.norm>
0

>  <SCORE.heavy>
14

>  <SCORE.norm>
-0.682676

>  <RMSD>
5.756

$$$$
ligand
 OpenBabel11021811413D
libRbt.so/2013.1/901 2013/11/27
 14 13  0  0  0  0  0  0  0  0999 V2000
   42.0630   14.2887   17.8973 N   0  0  0  0  0  0  0  0  0  0  0  0
   42.7089   13.2644   17.0482 C   0  0  0  0  0  0  0  0  0  0  0  0
   41.9704   11.9120   17.1460 C   0  0  0  0  0  0  0  0  0  0  0  0
   41.9864   11.2740   18.5448 C   0  0  0  0  0  0  0  0  0  0  0  0
   41.2354    9.9885   18.5545 N   0  0  0  0  0  0  0  0  0  0  0  0
   40.8080    9.6540   19.9373 C   0  0  0  0  0  0  0  0  0  0  0  0
   40.6656    8.1263   20.2506 C   0  0  0  0  0  0  0  0  0  0  0  0
   41.9037    7.2765   19.8440 C   0  0  0  0  0  0  0  0  0  0  0  0
   43.1924    7.7043   20.5186 C   0  0  0  0  0  0  0  0  0  0  0  0
   44.2701    6.9218   19.9436 N   0  0  0  0  0  0  0  0  0  0  0  0
   45.4890    7.4016   20.5712 C   0  0  0  0  0  0  0  0  0  0  0  0
   46.6834    7.2845   19.6316 C   0  0  0  0  0  0  0  0  0  0  0  0
   46.4884    8.3075   18.5023 C   0  0  0  0  0  0  0  0  0  0  0  0
   47.5780    8.2603   17.5158 N   0  0  0  0  0  0  0  0  0  0  0  0
  1  2  1  0  0  0  0
  2  3  1  0  0  0  0
  3  4  1  0  0  0  0
  4  5  1  0  0  0  0
  5  6  1  0  0  0  0
  6  7  1  0  0  0  0
  7  8  1  0  0  0  0
  8  9  1  0  0  0  0
  9 10  1  0  0  0  0
 10 11  1  0  0  0  0
 11 12  1  0  0  0  0
 12 13  1  0  0  0  0
 13 14  1  0  0  0  0
M  END
>  <CHROM.1>
-63.30959002,179.06775723,-158.21456000,-150.99724204,50.31587680,59.03963004
-174.20364251,177.53862853,-149.06346887,69.20663170,-178.79715006,43.36002121
9.40441318,18.99349381,-2.24603922,-0.24864698,2.64716242

>  <Name>
ligand

>  <RI>
0

>  <Rbt.Current_Directory>
/home/itssahil/PROJECTS/Mol_Feturizer/New_Systems/rnas/1TN2

>  <Rbt.Executable>
rbdock ($Id: //depot/dev/client3/rdock/2013.1/src/exe/rbdock.cxx#4 $)

>  <Rbt.Library>
libRbt.so (2013.1, Build901 2013/11/27)

>  <Rbt.Parameter_File>
/export/apps/rDock/src/rDock_2013.1_src/data/scripts/dock_solv.prm

>  <Rbt.Receptor>
prm/pocket_docking_6.prm

>  <SCORE>
-12.5585

>  <SCORE.INTER>
-10.2991

>  <SCORE.INTER.CONST>
1

>  <SCORE.INTER.POLAR>
0

>  <SCORE.INTER.ROT>
11

>  <SCORE.INTER.SOLV>
14.3128

>  <SCORE.INTER.VDW>
-22.5703

>  <SCORE.INTER.norm>
-0.73565

>  <SCORE.INTRA>
-2.25943

>  <SCORE.INTRA.DIHEDRAL>
-5.40003

>  <SCORE.INTRA.DIHEDRAL.0>
7.79482

>  <SCORE.INTRA.POLAR>
0

>  <SCORE.INTRA.POLAR.0>
0

>  <SCORE.INTRA.REPUL>
0

>  <SCORE.INTRA.REPUL.0>
0

>  <SCORE.INTRA.SOLV>
1.88188

>  <SCORE.INTRA.SOLV.lig_0>
-49.456

>  <SCORE.INTRA.VDW>
-0.50035

>  <SCORE.INTRA.VDW.0>
-0.478406

>  <SCORE.INTRA.norm>
-0.161388

>  <SCORE.RESTR>
0

>  <SCORE.RESTR.CAVITY>
0

>  <SCORE.RESTR.norm>
0

>  <SCORE.SYSTEM>
0

>  <SCORE.SYSTEM.CONST>
0

>  <SCORE.SYSTEM.DIHEDRAL>
0

>  <SCORE.SYSTEM.SOLV>
0

>  <SCORE.SYSTEM.norm>
0

>  <SCORE.heavy>
14

>  <SCORE.norm>
-0.897038

>  <RMSD>
5.768

$$$$
ligand
 OpenBabel11021811413D
libRbt.so/2013.1/901 2013/11/27
 14 13  0  0  0  0  0  0  0  0999 V2000
   43.8859   -3.2796   14.2771 N   0  0  0  0  0  0  0  0  0  0  0  0
   44.3563   -2.8487   12.9428 C   0  0  0  0  0  0  0  0  0  0  0  0
   43.9535   -1.3863   12.6546 C   0  0  0  0  0  0  0  0  0  0  0  0
   44.6655   -0.3420   13.5302 C   0  0  0  0  0  0  0  0  0  0  0  0
   44.3445   -0.5436   14.9699 N   0  0  0  0  0  0  0  0  0  0  0  0
   44.9981    0.5059   15.7934 C   0  0  0  0  0  0  0  0  0  0  0  0
   45.3966    0.0762   17.2455 C   0  0  0  0  0  0  0  0  0  0  0  0
   46.0663    1.2051   18.0807 C   0  0  0  0  0  0  0  0  0  0  0  0
   45.1253    2.3325   18.4580 C   0  0  0  0  0  0  0  0  0  0  0  0
   45.8970    3.3257   19.1807 N   0  0  0  0  0  0  0  0  0  0  0  0
   44.9421    4.0556   19.9962 C   0  0  0  0  0  0  0  0  0  0  0  0
   45.6409    5.0395   20.9272 C   0  0  0  0  0  0  0  0  0  0  0  0
   46.1563    6.2051   20.0695 C   0  0  0  0  0  0  0  0  0  0  0  0
   45.0675    7.0798   19.6090 N   0  0  0  0  0  0  0  0  0  0  0  0
  1  2  1  0  0  0  0
  2  3  1  0  0  0  0
  3  4  1  0  0  0  0
  4  5  1  0  0  0  0
  5  6  1  0  0  0  0
  6  7  1  0  0  0  0
  7  8  1  0  0  0  0
  8  9  1  0  0  0  0
  9 10  1  0  0  0  0
 10 11  1  0  0  0  0
 11 12  1  0  0  0  0
 12 13  1  0  0  0  0
 13 14  1  0  0  0  0
M  END
>  <CHROM.1>
67.89981548,-61.73416840,-177.78996135,-149.58048100,-179.47663781,69.14957266
-177.77107019,-156.17022007,173.87945581,72.72238858,72.79531533,45.03550310
1.53032385,16.98104612,-2.12937801,-1.31661210,0.17949846

>  <Name>
ligand

>  <RI>
0

>  <Rbt.Current_Directory>
/home/itssahil/PROJECTS/Mol_Feturizer/New_Systems/rnas/1TN2

>  <Rbt.Executable>
rbdock ($Id: //depot/dev/client3/rdock/2013.1/src/exe/rbdock.cxx#4 $)

>  <Rbt.Library>
libRbt.so (2013.1, Build901 2013/11/27)

>  <Rbt.Parameter_File>
/export/apps/rDock/src/rDock_2013.1_src/data/scripts/dock_solv.prm

>  <Rbt.Receptor>
prm/pocket_docking_7.prm

>  <SCORE>
-5.26318

>  <SCORE.INTER>
-4.46203

>  <SCORE.INTER.CONST>
1

>  <SCORE.INTER.POLAR>
0

>  <SCORE.INTER.ROT>
11

>  <SCORE.INTER.SOLV>
18.9804

>  <SCORE.INTER.VDW>
-20.2348

>  <SCORE.INTER.norm>
-0.318716

>  <SCORE.INTRA>
-0.801155

>  <SCORE.INTRA.DIHEDRAL>
-4.9425

>  <SCORE.INTRA.DIHEDRAL.0>
7.79482

>  <SCORE.INTRA.POLAR>
0

>  <SCORE.INTRA.POLAR.0>
0

>  <SCORE.INTRA.REPUL>
0

>  <SCORE.INTRA.REPUL.0>
0

>  <SCORE.INTRA.SOLV>
4.43252

>  <SCORE.INTRA.SOLV.lig_0>
-49.456

>  <SCORE.INTRA.VDW>
-0.546164

>  <SCORE.INTRA.VDW.0>
-0.478406

>  <SCORE.INTRA.norm>
-0.0572253

>  <SCORE.RESTR>
0

>  <SCORE.RESTR.CAVITY>
0

>  <SCORE.RESTR.norm>
0

>  <SCORE.SYSTEM>
0

>  <SCORE.SYSTEM.CONST>
0

>  <SCORE.SYSTEM.DIHEDRAL>
0

>  <SCORE.SYSTEM.SOLV>
0

>  <SCORE.SYSTEM.norm>
0

>  <SCORE.heavy>
14

>  <SCORE.norm>
-0.375941

>  <RMSD>
5.778

$$$$
ligand
 OpenBabel11021811413D
libRbt.so/2013.1/901 2013/11/27
 14 13  0  0  0  0  0  0  0  0999 V2000
   46.1636    7.8306   20.1111 N   0  0  0  0  0  0  0  0  0  0  0  0
   45.8221    6.5596   19.4363 C   0  0  0  0  0  0  0  0  0  0  0  0
   45.5569    5.4368   20.4624 C   0  0  0  0  0  0  0  0  0  0  0  0
   45.1989    4.0757   19.8432 C   0  0  0  0  0  0  0  0  0  0  0  0
   46.3155    3.5598   19.0045 N   0  0  0  0  0  0  0  0  0  0  0  0
   46.1016    2.1233   18.6921 C   0  0  0  0  0  0  0  0  0  0  0  0
   45.5026    1.8204   17.2773 C   0  0  0  0  0  0  0  0  0  0  0  0
   45.3719    0.3042   16.9543 C   0  0  0  0  0  0  0  0  0  0  0  0
   44.9117    0.0138   15.5392 C   0  0  0  0  0  0  0  0  0  0  0  0
   44.9125   -1.4262   15.3637 N   0  0  0  0  0  0  0  0  0  0  0  0
   44.3986   -1.6645   14.0262 C   0  0  0  0  0  0  0  0  0  0  0  0
   44.4464   -3.1447   13.6659 C   0  0  0  0  0  0  0  0  0  0  0  0
   44.0001   -3.2814   12.2023 C   0  0  0  0  0  0  0  0  0  0  0  0
   44.1933   -4.6455   11.6877 N   0  0  0  0  0  0  0  0  0  0  0  0
  1  2  1  0  0  0  0
  2  3  1  0  0  0  0
  3  4  1  0  0  0  0
  4  5  1  0  0  0  0
  5  6  1  0  0  0  0
  6  7  1  0  0  0  0
  7  8  1  0  0  0  0
  8  9  1  0  0  0  0
  9 10  1  0  0  0  0
 10 11  1  0  0  0  0
 11 12  1  0  0  0  0
 12 13  1  0  0  0  0
 13 14  1  0  0  0  0
M  END
>  <CHROM.1>
-179.79082230,61.83839238,166.08722941,99.50812251,176.56060900,-174.70503937
176.73108034,176.98857745,175.58010029,-175.23174851,171.72310369,45.20676004
1.25438931,16.73337951,0.99881132,-1.31604209,0.09656263

>  <Name>
ligand

>  <RI>
0

>  <Rbt.Current_Directory>
/home/itssahil/PROJECTS/Mol_Feturizer/New_Systems/rnas/1TN2

>  <Rbt.Executable>
rbdock ($Id: //depot/dev/client3/rdock/2013.1/src/exe/rbdock.cxx#4 $)

>  <Rbt.Library>
libRbt.so (2013.1, Build901 2013/11/27)

>  <Rbt.Parameter_File>
/export/apps/rDock/src/rDock_2013.1_src/data/scripts/dock_solv.prm

>  <Rbt.Receptor>
prm/blind_docking_100.prm

>  <SCORE>
-9.06379

>  <SCORE.INTER>
-5.38734

>  <SCORE.INTER.CONST>
1

>  <SCORE.INTER.POLAR>
0

>  <SCORE.INTER.ROT>
11

>  <SCORE.INTER.SOLV>
14.2345

>  <SCORE.INTER.VDW>
-19.2697

>  <SCORE.INTER.norm>
-0.38481

>  <SCORE.INTRA>
-3.67644

>  <SCORE.INTRA.DIHEDRAL>
-6.17709

>  <SCORE.INTRA.DIHEDRAL.0>
7.79482

>  <SCORE.INTRA.POLAR>
0

>  <SCORE.INTRA.POLAR.0>
0

>  <SCORE.INTRA.REPUL>
0

>  <SCORE.INTRA.REPUL.0>
0

>  <SCORE.INTRA.SOLV>
0.279382

>  <SCORE.INTRA.SOLV.lig_0>
-49.456

>  <SCORE.INTRA.VDW>
-0.727585

>  <SCORE.INTRA.VDW.0>
-0.478406

>  <SCORE.INTRA.norm>
-0.262603

>  <SCORE.RESTR>
0

>  <SCORE.RESTR.CAVITY>
0

>  <SCORE.RESTR.norm>
0

>  <SCORE.SYSTEM>
0

>  <SCORE.SYSTEM.CONST>
0

>  <SCORE.SYSTEM.DIHEDRAL>
0

>  <SCORE.SYSTEM.SOLV>
0

>  <SCORE.SYSTEM.norm>
0

>  <SCORE.heavy>
14

>  <SCORE.norm>
-0.647413

>  <RMSD>
5.917

$$$$
ligand
 OpenBabel11021811413D
libRbt.so/2013.1/901 2013/11/27
 14 13  0  0  0  0  0  0  0  0999 V2000
   47.3518   11.3418   15.7428 N   0  0  0  0  0  0  0  0  0  0  0  0
   46.0668   11.8696   16.2502 C   0  0  0  0  0  0  0  0  0  0  0  0
   44.8733   11.2782   15.4693 C   0  0  0  0  0  0  0  0  0  0  0  0
   43.4929   11.7405   15.9639 C   0  0  0  0  0  0  0  0  0  0  0  0
   43.2785   11.3561   17.3861 N   0  0  0  0  0  0  0  0  0  0  0  0
   41.8578   11.5657   17.7661 C   0  0  0  0  0  0  0  0  0  0  0  0
   41.3815   10.8061   19.0499 C   0  0  0  0  0  0  0  0  0  0  0  0
   41.6244    9.2701   19.0059 C   0  0  0  0  0  0  0  0  0  0  0  0
   41.0309    8.5191   20.1818 C   0  0  0  0  0  0  0  0  0  0  0  0
   41.3808    7.1194   20.0310 N   0  0  0  0  0  0  0  0  0  0  0  0
   42.0306    6.7356   21.2720 C   0  0  0  0  0  0  0  0  0  0  0  0
   43.3607    6.0380   21.0125 C   0  0  0  0  0  0  0  0  0  0  0  0
   44.3177    7.0739   20.4032 C   0  0  0  0  0  0  0  0  0  0  0  0
   45.6316    6.4959   20.0837 N   0  0  0  0  0  0  0  0  0  0  0  0
  1  2  1  0  0  0  0
  2  3  1  0  0  0  0
  3  4  1  0  0  0  0
  4  5  1  0  0  0  0
  5  6  1  0  0  0  0
  6  7  1  0  0  0  0
  7  8  1  0  0  0  0
  8  9  1  0  0  0  0
  9 10  1  0  0  0  0
 10 11  1  0  0  0  0
 11 12  1  0  0  0  0
 12 13  1  0  0  0  0
 13 14  1  0  0  0  0
M  END
>  <CHROM.1>
178.10375167,-60.15172333,-168.85952151,161.58890169,-54.99191477,-173.82446016
-177.78349902,125.74336375,-129.51434437,66.82784036,-178.74173017,43.40526130
9.37224799,18.54426225,-1.19461931,-0.27937447,2.47960518

>  <Name>
ligand

>  <RI>
0

>  <Rbt.Current_Directory>
/home/itssahil/PROJECTS/Mol_Feturizer/New_Systems/rnas/1TN2

>  <Rbt.Executable>
rbdock ($Id: //depot/dev/client3/rdock/2013.1/src/exe/rbdock.cxx#4 $)

>  <Rbt.Library>
libRbt.so (2013.1, Build901 2013/11/27)

>  <Rbt.Parameter_File>
/export/apps/rDock/src/rDock_2013.1_src/data/scripts/dock_solv.prm

>  <Rbt.Receptor>
prm/pocket_docking_8.prm

>  <SCORE>
-11.4089

>  <SCORE.INTER>
-8.79836

>  <SCORE.INTER.CONST>
1

>  <SCORE.INTER.POLAR>
0

>  <SCORE.INTER.ROT>
11

>  <SCORE.INTER.SOLV>
13.0919

>  <SCORE.INTER.VDW>
-21.1629

>  <SCORE.INTER.norm>
-0.628454

>  <SCORE.INTRA>
-2.61051

>  <SCORE.INTRA.DIHEDRAL>
-4.67193

>  <SCORE.INTRA.DIHEDRAL.0>
7.79482

>  <SCORE.INTRA.POLAR>
0

>  <SCORE.INTRA.POLAR.0>
0

>  <SCORE.INTRA.REPUL>
0

>  <SCORE.INTRA.REPUL.0>
0

>  <SCORE.INTRA.SOLV>
1.07949

>  <SCORE.INTRA.SOLV.lig_0>
-49.456

>  <SCORE.INTRA.VDW>
-0.814289

>  <SCORE.INTRA.VDW.0>
-0.478406

>  <SCORE.INTRA.norm>
-0.186465

>  <SCORE.RESTR>
0

>  <SCORE.RESTR.CAVITY>
0

>  <SCORE.RESTR.norm>
0

>  <SCORE.SYSTEM>
0

>  <SCORE.SYSTEM.CONST>
0

>  <SCORE.SYSTEM.DIHEDRAL>
0

>  <SCORE.SYSTEM.SOLV>
0

>  <SCORE.SYSTEM.norm>
0

>  <SCORE.heavy>
14

>  <SCORE.norm>
-0.814919

>  <RMSD>
5.924

$$$$
ligand
 OpenBabel11021811413D
libRbt.so/2013.1/901 2013/11/27
 14 13  0  0  0  0  0  0  0  0999 V2000
   49.1055    6.3428   14.9129 N   0  0  0  0  0  0  0  0  0  0  0  0
   49.5209    7.7485   15.1093 C   0  0  0  0  0  0  0  0  0  0  0  0
   50.0538    7.9781   16.5401 C   0  0  0  0  0  0  0  0  0  0  0  0
   49.0251    7.7248   17.6544 C   0  0  0  0  0  0  0  0  0  0  0  0
   47.8644    8.6488   17.5304 N   0  0  0  0  0  0  0  0  0  0  0  0
   47.0927    8.6769   18.7994 C   0  0  0  0  0  0  0  0  0  0  0  0
   46.3297    7.3570   19.1568 C   0  0  0  0  0  0  0  0  0  0  0  0
   45.1211    7.5616   20.1149 C   0  0  0  0  0  0  0  0  0  0  0  0
   44.0061    8.4048   19.5278 C   0  0  0  0  0  0  0  0  0  0  0  0
   42.8762    8.3322   20.4347 N   0  0  0  0  0  0  0  0  0  0  0  0
   41.7503    8.9002   19.7141 C   0  0  0  0  0  0  0  0  0  0  0  0
   40.4265    8.5540   20.3855 C   0  0  0  0  0  0  0  0  0  0  0  0
   40.2516    7.0296   20.3097 C   0  0  0  0  0  0  0  0  0  0  0  0
   39.0073    6.5805   20.9521 N   0  0  0  0  0  0  0  0  0  0  0  0
  1  2  1  0  0  0  0
  2  3  1  0  0  0  0
  3  4  1  0  0  0  0
  4  5  1  0  0  0  0
  5  6  1  0  0  0  0
  6  7  1  0  0  0  0
  7  8  1  0  0  0  0
  8  9  1  0  0  0  0
  9 10  1  0  0  0  0
 10 11  1  0  0  0  0
 11 12  1  0  0  0  0
 12 13  1  0  0  0  0
 13 14  1  0  0  0  0
M  END
>  <CHROM.1>
-61.94722102,-61.62163356,-163.43692698,-68.39408346,-156.63363651,64.09509865
171.11759789,-168.04233452,164.61651228,-64.20474749,179.07207348,45.17384980
7.84585063,18.65309031,0.37195590,-0.25814430,-2.16624988

>  <Name>
ligand

>  <RI>
0

>  <Rbt.Current_Directory>
/home/itssahil/PROJECTS/Mol_Feturizer/New_Systems/rnas/1TN2

>  <Rbt.Executable>
rbdock ($Id: //depot/dev/client3/rdock/2013.1/src/exe/rbdock.cxx#4 $)

>  <Rbt.Library>
libRbt.so (2013.1, Build901 2013/11/27)

>  <Rbt.Parameter_File>
/export/apps/rDock/src/rDock_2013.1_src/data/scripts/dock_solv.prm

>  <Rbt.Receptor>
prm/pocket_docking_8.prm

>  <SCORE>
-7.78165

>  <SCORE.INTER>
-6.67704

>  <SCORE.INTER.CONST>
1

>  <SCORE.INTER.POLAR>
0

>  <SCORE.INTER.ROT>
11

>  <SCORE.INTER.SOLV>
8.87505

>  <SCORE.INTER.VDW>
-18.343

>  <SCORE.INTER.norm>
-0.476931

>  <SCORE.INTRA>
-1.10461

>  <SCORE.INTRA.DIHEDRAL>
-4.94991

>  <SCORE.INTRA.DIHEDRAL.0>
7.79482

>  <SCORE.INTRA.POLAR>
0

>  <SCORE.INTRA.POLAR.0>
0

>  <SCORE.INTRA.REPUL>
0

>  <SCORE.INTRA.REPUL.0>
0

>  <SCORE.INTRA.SOLV>
2.3499

>  <SCORE.INTRA.SOLV.lig_0>
-49.456

>  <SCORE.INTRA.VDW>
0.195398

>  <SCORE.INTRA.VDW.0>
-0.478406

>  <SCORE.INTRA.norm>
-0.0789006

>  <SCORE.RESTR>
0

>  <SCORE.RESTR.CAVITY>
0

>  <SCORE.RESTR.norm>
0

>  <SCORE.SYSTEM>
0

>  <SCORE.SYSTEM.CONST>
0

>  <SCORE.SYSTEM.DIHEDRAL>
0

>  <SCORE.SYSTEM.SOLV>
0

>  <SCORE.SYSTEM.norm>
0

>  <SCORE.heavy>
14

>  <SCORE.norm>
-0.555832

>  <RMSD>
5.952

$$$$
ligand
 OpenBabel11021811413D
libRbt.so/2013.1/901 2013/11/27
 14 13  0  0  0  0  0  0  0  0999 V2000
   43.5096   -3.2582   11.5193 N   0  0  0  0  0  0  0  0  0  0  0  0
   44.1856   -1.9446   11.5863 C   0  0  0  0  0  0  0  0  0  0  0  0
   45.0885   -1.8446   12.8348 C   0  0  0  0  0  0  0  0  0  0  0  0
   44.3339   -1.8736   14.1741 C   0  0  0  0  0  0  0  0  0  0  0  0
   45.2766   -1.7637   15.3211 N   0  0  0  0  0  0  0  0  0  0  0  0
   45.5571   -0.3358   15.6201 C   0  0  0  0  0  0  0  0  0  0  0  0
   45.4147    0.0816   17.1226 C   0  0  0  0  0  0  0  0  0  0  0  0
   45.8544    1.5440   17.4199 C   0  0  0  0  0  0  0  0  0  0  0  0
   45.5263    2.0120   18.8242 C   0  0  0  0  0  0  0  0  0  0  0  0
   46.0370    3.3621   18.9681 N   0  0  0  0  0  0  0  0  0  0  0  0
   45.1992    4.0001   19.9684 C   0  0  0  0  0  0  0  0  0  0  0  0
   45.8444    5.2713   20.5078 C   0  0  0  0  0  0  0  0  0  0  0  0
   45.9144    6.2827   19.3536 C   0  0  0  0  0  0  0  0  0  0  0  0
   46.3983    7.5988   19.7968 N   0  0  0  0  0  0  0  0  0  0  0  0
  1  2  1  0  0  0  0
  2  3  1  0  0  0  0
  3  4  1  0  0  0  0
  4  5  1  0  0  0  0
  5  6  1  0  0  0  0
  6  7  1  0  0  0  0
  7  8  1  0  0  0  0
  8  9  1  0  0  0  0
  9 10  1  0  0  0  0
 10 11  1  0  0  0  0
 11 12  1  0  0  0  0
 12 13  1  0  0  0  0
 13 14  1  0  0  0  0
M  END
>  <CHROM.1>
-65.46785943,-179.62332104,86.10257631,130.71556063,174.12285917,171.43011727
177.86543602,152.82012819,163.93517481,65.68342275,174.22615123,45.29571072
1.36653654,16.64417073,2.53638129,1.39359879,2.91613446

>  <Name>
ligand

>  <RI>
0

>  <Rbt.Current_Directory>
/home/itssahil/PROJECTS/Mol_Feturizer/New_Systems/rnas/1TN2

>  <Rbt.Executable>
rbdock ($Id: //depot/dev/client3/rdock/2013.1/src/exe/rbdock.cxx#4 $)

>  <Rbt.Library>
libRbt.so (2013.1, Build901 2013/11/27)

>  <Rbt.Parameter_File>
/export/apps/rDock/src/rDock_2013.1_src/data/scripts/dock_solv.prm

>  <Rbt.Receptor>
prm/blind_docking_80.prm

>  <SCORE>
-6.53382

>  <SCORE.INTER>
-4.40512

>  <SCORE.INTER.CONST>
1

>  <SCORE.INTER.POLAR>
0

>  <SCORE.INTER.ROT>
11

>  <SCORE.INTER.SOLV>
13.5663

>  <SCORE.INTER.VDW>
-18.3922

>  <SCORE.INTER.norm>
-0.314651

>  <SCORE.INTRA>
-2.1287

>  <SCORE.INTRA.DIHEDRAL>
-4.68748

>  <SCORE.INTRA.DIHEDRAL.0>
7.79482

>  <SCORE.INTRA.POLAR>
0

>  <SCORE.INTRA.POLAR.0>
0

>  <SCORE.INTRA.REPUL>
0

>  <SCORE.INTRA.REPUL.0>
0

>  <SCORE.INTRA.SOLV>
1.01562

>  <SCORE.INTRA.SOLV.lig_0>
-49.456

>  <SCORE.INTRA.VDW>
-0.292772

>  <SCORE.INTRA.VDW.0>
-0.478406

>  <SCORE.INTRA.norm>
-0.15205

>  <SCORE.RESTR>
0

>  <SCORE.RESTR.CAVITY>
0

>  <SCORE.RESTR.norm>
0

>  <SCORE.SYSTEM>
0

>  <SCORE.SYSTEM.CONST>
0

>  <SCORE.SYSTEM.DIHEDRAL>
0

>  <SCORE.SYSTEM.SOLV>
0

>  <SCORE.SYSTEM.norm>
0

>  <SCORE.heavy>
14

>  <SCORE.norm>
-0.466702

>  <RMSD>
6.011

$$$$
ligand
 OpenBabel11021811413D
libRbt.so/2013.1/901 2013/11/27
 14 13  0  0  0  0  0  0  0  0999 V2000
   44.3901    5.1789   21.0960 N   0  0  0  0  0  0  0  0  0  0  0  0
   44.5549    6.6318   20.8744 C   0  0  0  0  0  0  0  0  0  0  0  0
   43.3163    7.2337   20.1761 C   0  0  0  0  0  0  0  0  0  0  0  0
   42.0204    7.1649   21.0006 C   0  0  0  0  0  0  0  0  0  0  0  0
   40.8584    7.6588   20.2119 N   0  0  0  0  0  0  0  0  0  0  0  0
   40.8927    9.1412   20.1205 C   0  0  0  0  0  0  0  0  0  0  0  0
   41.5331    9.7240   18.8158 C   0  0  0  0  0  0  0  0  0  0  0  0
   41.5964   11.2781   18.7789 C   0  0  0  0  0  0  0  0  0  0  0  0
   41.9822   11.8464   17.4272 C   0  0  0  0  0  0  0  0  0  0  0  0
   43.2900   11.3196   17.0860 N   0  0  0  0  0  0  0  0  0  0  0  0
   43.5745   11.7985   15.7446 C   0  0  0  0  0  0  0  0  0  0  0  0
   44.5735   10.8958   15.0303 C   0  0  0  0  0  0  0  0  0  0  0  0
   45.9304   11.0571   15.7323 C   0  0  0  0  0  0  0  0  0  0  0  0
   45.9323   10.4679   17.0797 N   0  0  0  0  0  0  0  0  0  0  0  0
  1  2  1  0  0  0  0
  2  3  1  0  0  0  0
  3  4  1  0  0  0  0
  4  5  1  0  0  0  0
  5  6  1  0  0  0  0
  6  7  1  0  0  0  0
  7  8  1  0  0  0  0
  8  9  1  0  0  0  0
  9 10  1  0  0  0  0
 10 11  1  0  0  0  0
 11 12  1  0  0  0  0
 12 13  1  0  0  0  0
 13 14  1  0  0  0  0
M  END
>  <CHROM.1>
64.22341674,-175.17811933,-75.37150974,96.53735344,-177.95794838,-169.62588327
-59.39053612,175.52811668,-155.73447117,-68.50269870,69.74672779,43.17447560
9.38577814,18.51230511,-1.79781246,0.38536902,-0.70751961

>  <Name>
ligand

>  <RI>
0

>  <Rbt.Current_Directory>
/home/itssahil/PROJECTS/Mol_Feturizer/New_Systems/rnas/1TN2

>  <Rbt.Executable>
rbdock ($Id: //depot/dev/client3/rdock/2013.1/src/exe/rbdock.cxx#4 $)

>  <Rbt.Library>
libRbt.so (2013.1, Build901 2013/11/27)

>  <Rbt.Parameter_File>
/export/apps/rDock/src/rDock_2013.1_src/data/scripts/dock_solv.prm

>  <Rbt.Receptor>
prm/pocket_docking_6.prm

>  <SCORE>
-10.0728

>  <SCORE.INTER>
-9.65482

>  <SCORE.INTER.CONST>
1

>  <SCORE.INTER.POLAR>
0

>  <SCORE.INTER.ROT>
11

>  <SCORE.INTER.SOLV>
14.174

>  <SCORE.INTER.VDW>
-22.0945

>  <SCORE.INTER.norm>
-0.68963

>  <SCORE.INTRA>
-0.418021

>  <SCORE.INTRA.DIHEDRAL>
-5.13742

>  <SCORE.INTRA.DIHEDRAL.0>
7.79482

>  <SCORE.INTRA.POLAR>
0

>  <SCORE.INTRA.POLAR.0>
0

>  <SCORE.INTRA.REPUL>
0

>  <SCORE.INTRA.REPUL.0>
0

>  <SCORE.INTRA.SOLV>
3.95406

>  <SCORE.INTRA.SOLV.lig_0>
-49.456

>  <SCORE.INTRA.VDW>
0.173657

>  <SCORE.INTRA.VDW.0>
-0.478406

>  <SCORE.INTRA.norm>
-0.0298586

>  <SCORE.RESTR>
0

>  <SCORE.RESTR.CAVITY>
0

>  <SCORE.RESTR.norm>
0

>  <SCORE.SYSTEM>
0

>  <SCORE.SYSTEM.CONST>
0

>  <SCORE.SYSTEM.DIHEDRAL>
0

>  <SCORE.SYSTEM.SOLV>
0

>  <SCORE.SYSTEM.norm>
0

>  <SCORE.heavy>
14

>  <SCORE.norm>
-0.719489

>  <RMSD>
6.014

$$$$
ligand
 OpenBabel11021811413D
libRbt.so/2013.1/901 2013/11/27
 14 13  0  0  0  0  0  0  0  0999 V2000
   46.2840    7.6668   20.0636 N   0  0  0  0  0  0  0  0  0  0  0  0
   45.8883    6.4192   19.3750 C   0  0  0  0  0  0  0  0  0  0  0  0
   45.5757    5.2974   20.3888 C   0  0  0  0  0  0  0  0  0  0  0  0
   45.2216    3.9423   19.7545 C   0  0  0  0  0  0  0  0  0  0  0  0
   46.3449    3.4324   18.9211 N   0  0  0  0  0  0  0  0  0  0  0  0
   46.1390    1.9955   18.6054 C   0  0  0  0  0  0  0  0  0  0  0  0
   45.4695    1.6959   17.2219 C   0  0  0  0  0  0  0  0  0  0  0  0
   45.3573    0.1811   16.8854 C   0  0  0  0  0  0  0  0  0  0  0  0
   44.8509   -0.1025   15.4847 C   0  0  0  0  0  0  0  0  0  0  0  0
   44.9397   -1.5339   15.2668 N   0  0  0  0  0  0  0  0  0  0  0  0
   44.3944   -1.7692   13.9412 C   0  0  0  0  0  0  0  0  0  0  0  0
   44.5303   -3.2317   13.5339 C   0  0  0  0  0  0  0  0  0  0  0  0
   44.0086   -3.3638   12.0951 C   0  0  0  0  0  0  0  0  0  0  0  0
   44.3147   -4.6786   11.5116 N   0  0  0  0  0  0  0  0  0  0  0  0
  1  2  1  0  0  0  0
  2  3  1  0  0  0  0
  3  4  1  0  0  0  0
  4  5  1  0  0  0  0
  5  6  1  0  0  0  0
  6  7  1  0  0  0  0
  7  8  1  0  0  0  0
  8  9  1  0  0  0  0
  9 10  1  0  0  0  0
 10 11  1  0  0  0  0
 11 12  1  0  0  0  0
 12 13  1  0  0  0  0
 13 14  1  0  0  0  0
M  END
>  <CHROM.1>
-177.14917868,60.27104559,165.52820837,95.98305966,176.11247666,-173.60606977
173.81313562,177.64039959,175.38171313,-176.60196856,169.63294398,45.23697488
1.13931705,16.64643734,0.92842040,-1.33952391,0.03191734

>  <Name>
ligand

>  <RI>
0

>  <Rbt.Current_Directory>
/home/itssahil/PROJECTS/Mol_Feturizer/New_Systems/rnas/1TN2

>  <Rbt.Executable>
rbdock ($Id: //depot/dev/client3/rdock/2013.1/src/exe/rbdock.cxx#4 $)

>  <Rbt.Library>
libRbt.so (2013.1, Build901 2013/11/27)

>  <Rbt.Parameter_File>
/export/apps/rDock/src/rDock_2013.1_src/data/scripts/dock_solv.prm

>  <Rbt.Receptor>
prm/blind_docking_100.prm

>  <SCORE>
-9.01492

>  <SCORE.INTER>
-5.47955

>  <SCORE.INTER.CONST>
1

>  <SCORE.INTER.POLAR>
0

>  <SCORE.INTER.ROT>
11

>  <SCORE.INTER.SOLV>
14.2075

>  <SCORE.INTER.VDW>
-19.3222

>  <SCORE.INTER.norm>
-0.391396

>  <SCORE.INTRA>
-3.53537

>  <SCORE.INTRA.DIHEDRAL>
-5.98202

>  <SCORE.INTRA.DIHEDRAL.0>
7.79482

>  <SCORE.INTRA.POLAR>
0

>  <SCORE.INTRA.POLAR.0>
0

>  <SCORE.INTRA.REPUL>
0

>  <SCORE.INTRA.REPUL.0>
0

>  <SCORE.INTRA.SOLV>
0.303949

>  <SCORE.INTRA.SOLV.lig_0>
-49.456

>  <SCORE.INTRA.VDW>
-0.696332

>  <SCORE.INTRA.VDW.0>
-0.478406

>  <SCORE.INTRA.norm>
-0.252526

>  <SCORE.RESTR>
0

>  <SCORE.RESTR.CAVITY>
0

>  <SCORE.RESTR.norm>
0

>  <SCORE.SYSTEM>
0

>  <SCORE.SYSTEM.CONST>
0

>  <SCORE.SYSTEM.DIHEDRAL>
0

>  <SCORE.SYSTEM.SOLV>
0

>  <SCORE.SYSTEM.norm>
0

>  <SCORE.heavy>
14

>  <SCORE.norm>
-0.643923

>  <RMSD>
6.043

$$$$
ligand
 OpenBabel11021811413D
libRbt.so/2013.1/901 2013/11/27
 14 13  0  0  0  0  0  0  0  0999 V2000
   46.1638    9.7793   18.4287 N   0  0  0  0  0  0  0  0  0  0  0  0
   47.3973    8.9635   18.4239 C   0  0  0  0  0  0  0  0  0  0  0  0
   47.0690    7.4552   18.4588 C   0  0  0  0  0  0  0  0  0  0  0  0
   46.4570    6.9640   19.7810 C   0  0  0  0  0  0  0  0  0  0  0  0
   46.0445    5.5370   19.6813 N   0  0  0  0  0  0  0  0  0  0  0  0
   45.9427    4.9362   21.0361 C   0  0  0  0  0  0  0  0  0  0  0  0
   44.4946    4.5724   21.5080 C   0  0  0  0  0  0  0  0  0  0  0  0
   43.5881    5.8062   21.7847 C   0  0  0  0  0  0  0  0  0  0  0  0
   43.2919    6.6408   20.5540 C   0  0  0  0  0  0  0  0  0  0  0  0
   42.5046    7.7834   20.9771 N   0  0  0  0  0  0  0  0  0  0  0  0
   42.0667    8.4387   19.7570 C   0  0  0  0  0  0  0  0  0  0  0  0
   40.6796    9.0494   19.9190 C   0  0  0  0  0  0  0  0  0  0  0  0
   39.6846    7.8962   20.1194 C   0  0  0  0  0  0  0  0  0  0  0  0
   39.8758    7.2152   21.4087 N   0  0  0  0  0  0  0  0  0  0  0  0
  1  2  1  0  0  0  0
  2  3  1  0  0  0  0
  3  4  1  0  0  0  0
  4  5  1  0  0  0  0
  5  6  1  0  0  0  0
  6  7  1  0  0  0  0
  7  8  1  0  0  0  0
  8  9  1  0  0  0  0
  9 10  1  0  0  0  0
 10 11  1  0  0  0  0
 11 12  1  0  0  0  0
 12 13  1  0  0  0  0
 13 14  1  0  0  0  0
M  END
>  <CHROM.1>
-68.63078719,174.21435853,158.82426533,111.44582773,-69.00344096,64.62493744
-176.98409542,-171.31378672,145.78996161,-65.80103295,68.39271218,43.94728006
7.21680009,20.13126769,0.04762385,0.23444223,-0.53501345

>  <Name>
ligand

>  <RI>
0

>  <Rbt.Current_Directory>
/home/itssahil/PROJECTS/Mol_Feturizer/New_Systems/rnas/1TN2

>  <Rbt.Executable>
rbdock ($Id: //depot/dev/client3/rdock/2013.1/src/exe/rbdock.cxx#4 $)

>  <Rbt.Library>
libRbt.so (2013.1, Build901 2013/11/27)

>  <Rbt.Parameter_File>
/export/apps/rDock/src/rDock_2013.1_src/data/scripts/dock_solv.prm

>  <Rbt.Receptor>
prm/pocket_docking_8.prm

>  <SCORE>
-11.6526

>  <SCORE.INTER>
-11.7734

>  <SCORE.INTER.CONST>
1

>  <SCORE.INTER.POLAR>
0

>  <SCORE.INTER.ROT>
11

>  <SCORE.INTER.SOLV>
14.6834

>  <SCORE.INTER.VDW>
-23.6767

>  <SCORE.INTER.norm>
-0.84096

>  <SCORE.INTRA>
0.120838

>  <SCORE.INTRA.DIHEDRAL>
-4.3133

>  <SCORE.INTRA.DIHEDRAL.0>
7.79482

>  <SCORE.INTRA.POLAR>
0

>  <SCORE.INTRA.POLAR.0>
0

>  <SCORE.INTRA.REPUL>
0

>  <SCORE.INTRA.REPUL.0>
0

>  <SCORE.INTRA.SOLV>
5.82508

>  <SCORE.INTRA.SOLV.lig_0>
-49.456

>  <SCORE.INTRA.VDW>
-0.635055

>  <SCORE.INTRA.VDW.0>
-0.478406

>  <SCORE.INTRA.norm>
0.00863132

>  <SCORE.RESTR>
0

>  <SCORE.RESTR.CAVITY>
0

>  <SCORE.RESTR.norm>
0

>  <SCORE.SYSTEM>
0

>  <SCORE.SYSTEM.CONST>
0

>  <SCORE.SYSTEM.DIHEDRAL>
0

>  <SCORE.SYSTEM.SOLV>
0

>  <SCORE.SYSTEM.norm>
0

>  <SCORE.heavy>
14

>  <SCORE.norm>
-0.832329

>  <RMSD>
6.052

$$$$
ligand
 OpenBabel11021811413D
libRbt.so/2013.1/901 2013/11/27
 14 13  0  0  0  0  0  0  0  0999 V2000
   45.6851   11.5780   15.1945 N   0  0  0  0  0  0  0  0  0  0  0  0
   44.2100   11.5468   15.2967 C   0  0  0  0  0  0  0  0  0  0  0  0
   43.7465   11.7750   16.7517 C   0  0  0  0  0  0  0  0  0  0  0  0
   42.2209   11.8059   16.9399 C   0  0  0  0  0  0  0  0  0  0  0  0
   41.8621   11.9074   18.3812 N   0  0  0  0  0  0  0  0  0  0  0  0
   42.0941   10.6070   19.0608 C   0  0  0  0  0  0  0  0  0  0  0  0
   40.8183    9.7305   19.2982 C   0  0  0  0  0  0  0  0  0  0  0  0
   41.0054    8.6119   20.3632 C   0  0  0  0  0  0  0  0  0  0  0  0
   42.0796    7.6012   20.0120 C   0  0  0  0  0  0  0  0  0  0  0  0
   43.3648    8.2596   20.1510 N   0  0  0  0  0  0  0  0  0  0  0  0
   44.3491    7.1956   20.2443 C   0  0  0  0  0  0  0  0  0  0  0  0
   45.7692    7.7384   20.1353 C   0  0  0  0  0  0  0  0  0  0  0  0
   45.8989    8.4294   18.7694 C   0  0  0  0  0  0  0  0  0  0  0  0
   47.2455    8.9786   18.5504 N   0  0  0  0  0  0  0  0  0  0  0  0
  1  2  1  0  0  0  0
  2  3  1  0  0  0  0
  3  4  1  0  0  0  0
  4  5  1  0  0  0  0
  5  6  1  0  0  0  0
  6  7  1  0  0  0  0
  7  8  1  0  0  0  0
  8  9  1  0  0  0  0
  9 10  1  0  0  0  0
 10 11  1  0  0  0  0
 11 12  1  0  0  0  0
 12 13  1  0  0  0  0
 13 14  1  0  0  0  0
M  END
>  <CHROM.1>
178.00403483,174.92351294,-74.05625812,-100.59224343,-162.45237479,-60.96690264
71.44443276,161.77926398,169.45157542,-60.25821772,-179.26423087,43.59600485
9.69731666,18.51078499,-1.44452455,-0.27754804,2.36161391

>  <Name>
ligand

>  <RI>
0

>  <Rbt.Current_Directory>
/home/itssahil/PROJECTS/Mol_Feturizer/New_Systems/rnas/1TN2

>  <Rbt.Executable>
rbdock ($Id: //depot/dev/client3/rdock/2013.1/src/exe/rbdock.cxx#4 $)

>  <Rbt.Library>
libRbt.so (2013.1, Build901 2013/11/27)

>  <Rbt.Parameter_File>
/export/apps/rDock/src/rDock_2013.1_src/data/scripts/dock_solv.prm

>  <Rbt.Receptor>
prm/pocket_docking_8.prm

>  <SCORE>
-10.9202

>  <SCORE.INTER>
-9.59764

>  <SCORE.INTER.CONST>
1

>  <SCORE.INTER.POLAR>
0

>  <SCORE.INTER.ROT>
11

>  <SCORE.INTER.SOLV>
16.3857

>  <SCORE.INTER.VDW>
-22.7937

>  <SCORE.INTER.norm>
-0.685546

>  <SCORE.INTRA>
-1.32259

>  <SCORE.INTRA.DIHEDRAL>
-4.69702

>  <SCORE.INTRA.DIHEDRAL.0>
7.79482

>  <SCORE.INTRA.POLAR>
0

>  <SCORE.INTRA.POLAR.0>
0

>  <SCORE.INTRA.REPUL>
0

>  <SCORE.INTRA.REPUL.0>
0

>  <SCORE.INTRA.SOLV>
1.4156

>  <SCORE.INTRA.SOLV.lig_0>
-49.456

>  <SCORE.INTRA.VDW>
0.318118

>  <SCORE.INTRA.VDW.0>
-0.478406

>  <SCORE.INTRA.norm>
-0.0944707

>  <SCORE.RESTR>
0

>  <SCORE.RESTR.CAVITY>
0

>  <SCORE.RESTR.norm>
0

>  <SCORE.SYSTEM>
0

>  <SCORE.SYSTEM.CONST>
0

>  <SCORE.SYSTEM.DIHEDRAL>
0

>  <SCORE.SYSTEM.SOLV>
0

>  <SCORE.SYSTEM.norm>
0

>  <SCORE.heavy>
14

>  <SCORE.norm>
-0.780017

>  <RMSD>
6.081

$$$$
ligand
 OpenBabel11021811413D
libRbt.so/2013.1/901 2013/11/27
 14 13  0  0  0  0  0  0  0  0999 V2000
   46.2437   10.4690   17.4114 N   0  0  0  0  0  0  0  0  0  0  0  0
   46.5861    9.1084   17.8791 C   0  0  0  0  0  0  0  0  0  0  0  0
   46.2727    8.9394   19.3815 C   0  0  0  0  0  0  0  0  0  0  0  0
   46.6446    7.5652   19.9621 C   0  0  0  0  0  0  0  0  0  0  0  0
   45.8861    6.4767   19.2867 N   0  0  0  0  0  0  0  0  0  0  0  0
   46.0628    5.1967   20.0196 C   0  0  0  0  0  0  0  0  0  0  0  0
   45.3233    5.0976   21.3964 C   0  0  0  0  0  0  0  0  0  0  0  0
   43.7910    4.8556   21.2783 C   0  0  0  0  0  0  0  0  0  0  0  0
   43.0727    5.8701   20.4102 C   0  0  0  0  0  0  0  0  0  0  0  0
   43.1313    7.1502   21.0901 N   0  0  0  0  0  0  0  0  0  0  0  0
   42.6593    8.1327   20.1302 C   0  0  0  0  0  0  0  0  0  0  0  0
   41.2311    8.5690   20.4353 C   0  0  0  0  0  0  0  0  0  0  0  0
   40.3089    7.3742   20.1489 C   0  0  0  0  0  0  0  0  0  0  0  0
   38.9124    7.6491   20.5190 N   0  0  0  0  0  0  0  0  0  0  0  0
  1  2  1  0  0  0  0
  2  3  1  0  0  0  0
  3  4  1  0  0  0  0
  4  5  1  0  0  0  0
  5  6  1  0  0  0  0
  6  7  1  0  0  0  0
  7  8  1  0  0  0  0
  8  9  1  0  0  0  0
  9 10  1  0  0  0  0
 10 11  1  0  0  0  0
 11 12  1  0  0  0  0
 12 13  1  0  0  0  0
 13 14  1  0  0  0  0
M  END
>  <CHROM.1>
-178.00390028,-61.31867179,-169.49541757,72.01457010,76.15735300,-54.21881041
-67.33720994,169.78423796,103.45704040,-68.95555536,175.16537543,44.00918432
7.31788272,19.95362427,0.26381228,0.18241735,-0.49985975

>  <Name>
ligand

>  <RI>
0

>  <Rbt.Current_Directory>
/home/itssahil/PROJECTS/Mol_Feturizer/New_Systems/rnas/1TN2

>  <Rbt.Executable>
rbdock ($Id: //depot/dev/client3/rdock/2013.1/src/exe/rbdock.cxx#4 $)

>  <Rbt.Library>
libRbt.so (2013.1, Build901 2013/11/27)

>  <Rbt.Parameter_File>
/export/apps/rDock/src/rDock_2013.1_src/data/scripts/dock_solv.prm

>  <Rbt.Receptor>
prm/pocket_docking_8.prm

>  <SCORE>
-9.67875

>  <SCORE.INTER>
-9.007

>  <SCORE.INTER.CONST>
1

>  <SCORE.INTER.POLAR>
0

>  <SCORE.INTER.ROT>
11

>  <SCORE.INTER.SOLV>
13.5748

>  <SCORE.INTER.VDW>
-21.4629

>  <SCORE.INTER.norm>
-0.643357

>  <SCORE.INTRA>
-0.671752

>  <SCORE.INTRA.DIHEDRAL>
-4.84104

>  <SCORE.INTRA.DIHEDRAL.0>
7.79482

>  <SCORE.INTRA.POLAR>
0

>  <SCORE.INTRA.POLAR.0>
0

>  <SCORE.INTRA.REPUL>
0

>  <SCORE.INTRA.REPUL.0>
0

>  <SCORE.INTRA.SOLV>
3.66168

>  <SCORE.INTRA.SOLV.lig_0>
-49.456

>  <SCORE.INTRA.VDW>
-0.0820728

>  <SCORE.INTRA.VDW.0>
-0.478406

>  <SCORE.INTRA.norm>
-0.0479823

>  <SCORE.RESTR>
0

>  <SCORE.RESTR.CAVITY>
0

>  <SCORE.RESTR.norm>
0

>  <SCORE.SYSTEM>
0

>  <SCORE.SYSTEM.CONST>
0

>  <SCORE.SYSTEM.DIHEDRAL>
0

>  <SCORE.SYSTEM.SOLV>
0

>  <SCORE.SYSTEM.norm>
0

>  <SCORE.heavy>
14

>  <SCORE.norm>
-0.691339

>  <RMSD>
6.088

$$$$
ligand
 OpenBabel11021811413D
libRbt.so/2013.1/901 2013/11/27
 14 13  0  0  0  0  0  0  0  0999 V2000
   51.4316    6.9587   15.8749 N   0  0  0  0  0  0  0  0  0  0  0  0
   50.6852    8.1832   15.5135 C   0  0  0  0  0  0  0  0  0  0  0  0
   49.8784    8.7202   16.7155 C   0  0  0  0  0  0  0  0  0  0  0  0
   48.7595    7.7857   17.2038 C   0  0  0  0  0  0  0  0  0  0  0  0
   48.0329    8.3802   18.3593 N   0  0  0  0  0  0  0  0  0  0  0  0
   46.9406    7.4749   18.7998 C   0  0  0  0  0  0  0  0  0  0  0  0
   46.1228    7.9572   20.0451 C   0  0  0  0  0  0  0  0  0  0  0  0
   45.4153    9.3287   19.8479 C   0  0  0  0  0  0  0  0  0  0  0  0
   44.1454    9.2532   19.0229 C   0  0  0  0  0  0  0  0  0  0  0  0
   43.1436    8.5710   19.8199 N   0  0  0  0  0  0  0  0  0  0  0  0
   41.8594    9.0560   19.3452 C   0  0  0  0  0  0  0  0  0  0  0  0
   40.7204    8.5910   20.2451 C   0  0  0  0  0  0  0  0  0  0  0  0
   40.6815    7.0563   20.1899 C   0  0  0  0  0  0  0  0  0  0  0  0
   39.6218    6.4965   21.0422 N   0  0  0  0  0  0  0  0  0  0  0  0
  1  2  1  0  0  0  0
  2  3  1  0  0  0  0
  3  4  1  0  0  0  0
  4  5  1  0  0  0  0
  5  6  1  0  0  0  0
  6  7  1  0  0  0  0
  7  8  1  0  0  0  0
  8  9  1  0  0  0  0
  9 10  1  0  0  0  0
 10 11  1  0  0  0  0
 11 12  1  0  0  0  0
 12 13  1  0  0  0  0
 13 14  1  0  0  0  0
M  END
>  <CHROM.1>
-64.57436302,-179.87369427,178.93915634,177.97169162,59.57971582,77.79681209
70.33525272,153.28015449,-170.85077547,-62.45871764,179.27358500,45.53129718
8.12969601,18.71604960,0.05284011,-0.38714657,-2.99356282

>  <Name>
ligand

>  <RI>
0

>  <Rbt.Current_Directory>
/home/itssahil/PROJECTS/Mol_Feturizer/New_Systems/rnas/1TN2

>  <Rbt.Executable>
rbdock ($Id: //depot/dev/client3/rdock/2013.1/src/exe/rbdock.cxx#4 $)

>  <Rbt.Library>
libRbt.so (2013.1, Build901 2013/11/27)

>  <Rbt.Parameter_File>
/export/apps/rDock/src/rDock_2013.1_src/data/scripts/dock_solv.prm

>  <Rbt.Receptor>
prm/pocket_docking_8.prm

>  <SCORE>
-9.44898

>  <SCORE.INTER>
-7.24267

>  <SCORE.INTER.CONST>
1

>  <SCORE.INTER.POLAR>
0

>  <SCORE.INTER.ROT>
11

>  <SCORE.INTER.SOLV>
9.07336

>  <SCORE.INTER.VDW>
-18.7862

>  <SCORE.INTER.norm>
-0.517334

>  <SCORE.INTRA>
-2.20631

>  <SCORE.INTRA.DIHEDRAL>
-5.49166

>  <SCORE.INTRA.DIHEDRAL.0>
7.79482

>  <SCORE.INTRA.POLAR>
0

>  <SCORE.INTRA.POLAR.0>
0

>  <SCORE.INTRA.REPUL>
0

>  <SCORE.INTRA.REPUL.0>
0

>  <SCORE.INTRA.SOLV>
2.10411

>  <SCORE.INTRA.SOLV.lig_0>
-49.456

>  <SCORE.INTRA.VDW>
-0.512537

>  <SCORE.INTRA.VDW.0>
-0.478406

>  <SCORE.INTRA.norm>
-0.157594

>  <SCORE.RESTR>
0

>  <SCORE.RESTR.CAVITY>
0

>  <SCORE.RESTR.norm>
0

>  <SCORE.SYSTEM>
0

>  <SCORE.SYSTEM.CONST>
0

>  <SCORE.SYSTEM.DIHEDRAL>
0

>  <SCORE.SYSTEM.SOLV>
0

>  <SCORE.SYSTEM.norm>
0

>  <SCORE.heavy>
14

>  <SCORE.norm>
-0.674927

>  <RMSD>
6.120

$$$$
ligand
 OpenBabel11021811413D
libRbt.so/2013.1/901 2013/11/27
 14 13  0  0  0  0  0  0  0  0999 V2000
   41.1068   14.6710   17.8901 N   0  0  0  0  0  0  0  0  0  0  0  0
   42.2433   13.9968   18.5542 C   0  0  0  0  0  0  0  0  0  0  0  0
   42.1797   12.4673   18.3529 C   0  0  0  0  0  0  0  0  0  0  0  0
   42.3082   12.0084   16.8912 C   0  0  0  0  0  0  0  0  0  0  0  0
   43.5794   12.4950   16.2880 N   0  0  0  0  0  0  0  0  0  0  0  0
   44.3652   11.3525   15.7551 C   0  0  0  0  0  0  0  0  0  0  0  0
   45.2478   10.5917   16.8012 C   0  0  0  0  0  0  0  0  0  0  0  0
   46.1869    9.5186   16.1791 C   0  0  0  0  0  0  0  0  0  0  0  0
   47.0934    8.8365   17.1850 C   0  0  0  0  0  0  0  0  0  0  0  0
   47.9888    7.9643   16.4488 N   0  0  0  0  0  0  0  0  0  0  0  0
   49.2125    7.9002   17.2288 C   0  0  0  0  0  0  0  0  0  0  0  0
   50.2082    8.9688   16.7929 C   0  0  0  0  0  0  0  0  0  0  0  0
   51.5160    8.7266   17.5616 C   0  0  0  0  0  0  0  0  0  0  0  0
   52.1937    7.4946   17.1306 N   0  0  0  0  0  0  0  0  0  0  0  0
  1  2  1  0  0  0  0
  2  3  1  0  0  0  0
  3  4  1  0  0  0  0
  4  5  1  0  0  0  0
  5  6  1  0  0  0  0
  6  7  1  0  0  0  0
  7  8  1  0  0  0  0
  8  9  1  0  0  0  0
  9 10  1  0  0  0  0
 10 11  1  0  0  0  0
 11 12  1  0  0  0  0
 12 13  1  0  0  0  0
 13 14  1  0  0  0  0
M  END
>  <CHROM.1>
63.59600754,57.53661739,124.08286902,-83.38403813,-172.83383643,176.87607322
-174.70103821,150.37999077,-91.69921506,-173.97819656,68.97087839,46.10209082
10.49937566,17.07574036,-2.68230628,0.31854544,-2.47790989

>  <Name>
ligand

>  <RI>
0

>  <Rbt.Current_Directory>
/home/itssahil/PROJECTS/Mol_Feturizer/New_Systems/rnas/1TN2

>  <Rbt.Executable>
rbdock ($Id: //depot/dev/client3/rdock/2013.1/src/exe/rbdock.cxx#4 $)

>  <Rbt.Library>
libRbt.so (2013.1, Build901 2013/11/27)

>  <Rbt.Parameter_File>
/export/apps/rDock/src/rDock_2013.1_src/data/scripts/dock_solv.prm

>  <Rbt.Receptor>
prm/pocket_docking_7.prm

>  <SCORE>
1.00426

>  <SCORE.INTER>
1.91936

>  <SCORE.INTER.CONST>
1

>  <SCORE.INTER.POLAR>
0

>  <SCORE.INTER.ROT>
11

>  <SCORE.INTER.SOLV>
7.52454

>  <SCORE.INTER.VDW>
-12.1619

>  <SCORE.INTER.norm>
0.137097

>  <SCORE.INTRA>
-0.915097

>  <SCORE.INTRA.DIHEDRAL>
-4.12572

>  <SCORE.INTRA.DIHEDRAL.0>
7.79482

>  <SCORE.INTRA.POLAR>
0

>  <SCORE.INTRA.POLAR.0>
0

>  <SCORE.INTRA.REPUL>
0

>  <SCORE.INTRA.REPUL.0>
0

>  <SCORE.INTRA.SOLV>
2.53457

>  <SCORE.INTRA.SOLV.lig_0>
-49.456

>  <SCORE.INTRA.VDW>
-0.119524

>  <SCORE.INTRA.VDW.0>
-0.478406

>  <SCORE.INTRA.norm>
-0.0653641

>  <SCORE.RESTR>
0

>  <SCORE.RESTR.CAVITY>
0

>  <SCORE.RESTR.norm>
0

>  <SCORE.SYSTEM>
0

>  <SCORE.SYSTEM.CONST>
0

>  <SCORE.SYSTEM.DIHEDRAL>
0

>  <SCORE.SYSTEM.SOLV>
0

>  <SCORE.SYSTEM.norm>
0

>  <SCORE.heavy>
14

>  <SCORE.norm>
0.0717331

>  <RMSD>
6.140

$$$$
ligand
 OpenBabel11021811413D
libRbt.so/2013.1/901 2013/11/27
 14 13  0  0  0  0  0  0  0  0999 V2000
   51.9922    6.9176   15.5732 N   0  0  0  0  0  0  0  0  0  0  0  0
   50.5268    7.1169   15.5737 C   0  0  0  0  0  0  0  0  0  0  0  0
   50.0222    7.5442   16.9689 C   0  0  0  0  0  0  0  0  0  0  0  0
   48.5000    7.7375   17.0674 C   0  0  0  0  0  0  0  0  0  0  0  0
   48.1069    8.2005   18.4266 N   0  0  0  0  0  0  0  0  0  0  0  0
   46.7282    7.7478   18.7443 C   0  0  0  0  0  0  0  0  0  0  0  0
   46.3134    7.8479   20.2510 C   0  0  0  0  0  0  0  0  0  0  0  0
   44.8550    7.3898   20.5400 C   0  0  0  0  0  0  0  0  0  0  0  0
   43.7967    8.2532   19.8818 C   0  0  0  0  0  0  0  0  0  0  0  0
   42.5000    7.7324   20.2712 N   0  0  0  0  0  0  0  0  0  0  0  0
   41.5181    8.6079   19.6555 C   0  0  0  0  0  0  0  0  0  0  0  0
   40.1344    8.4085   20.2630 C   0  0  0  0  0  0  0  0  0  0  0  0
   39.7031    6.9630   19.9722 C   0  0  0  0  0  0  0  0  0  0  0  0
   38.3682    6.6626   20.5110 N   0  0  0  0  0  0  0  0  0  0  0  0
  1  2  1  0  0  0  0
  2  3  1  0  0  0  0
  3  4  1  0  0  0  0
  4  5  1  0  0  0  0
  5  6  1  0  0  0  0
  6  7  1  0  0  0  0
  7  8  1  0  0  0  0
  8  9  1  0  0  0  0
  9 10  1  0  0  0  0
 10 11  1  0  0  0  0
 11 12  1  0  0  0  0
 12 13  1  0  0  0  0
 13 14  1  0  0  0  0
M  END
>  <CHROM.1>
-178.46700738,-177.72040554,-151.56568277,165.40341459,178.93492898,-64.27241184
-178.31907369,178.31997177,-165.14910396,-62.62703715,-179.64496207,45.21892111
7.65223924,18.83575087,0.34307617,-0.10255424,-1.90236290

>  <Name>
ligand

>  <RI>
0

>  <Rbt.Current_Directory>
/home/itssahil/PROJECTS/Mol_Feturizer/New_Systems/rnas/1TN2

>  <Rbt.Executable>
rbdock ($Id: //depot/dev/client3/rdock/2013.1/src/exe/rbdock.cxx#4 $)

>  <Rbt.Library>
libRbt.so (2013.1, Build901 2013/11/27)

>  <Rbt.Parameter_File>
/export/apps/rDock/src/rDock_2013.1_src/data/scripts/dock_solv.prm

>  <Rbt.Receptor>
prm/pocket_docking_8.prm

>  <SCORE>
-10.7653

>  <SCORE.INTER>
-7.36808

>  <SCORE.INTER.CONST>
1

>  <SCORE.INTER.POLAR>
0

>  <SCORE.INTER.ROT>
11

>  <SCORE.INTER.SOLV>
10.3501

>  <SCORE.INTER.VDW>
-19.2954

>  <SCORE.INTER.norm>
-0.526291

>  <SCORE.INTRA>
-3.39722

>  <SCORE.INTRA.DIHEDRAL>
-6.75603

>  <SCORE.INTRA.DIHEDRAL.0>
7.79482

>  <SCORE.INTRA.POLAR>
0

>  <SCORE.INTRA.POLAR.0>
0

>  <SCORE.INTRA.REPUL>
0

>  <SCORE.INTRA.REPUL.0>
0

>  <SCORE.INTRA.SOLV>
0.537549

>  <SCORE.INTRA.SOLV.lig_0>
-49.456

>  <SCORE.INTRA.VDW>
-0.287981

>  <SCORE.INTRA.VDW.0>
-0.478406

>  <SCORE.INTRA.norm>
-0.242659

>  <SCORE.RESTR>
0

>  <SCORE.RESTR.CAVITY>
0

>  <SCORE.RESTR.norm>
0

>  <SCORE.SYSTEM>
0

>  <SCORE.SYSTEM.CONST>
0

>  <SCORE.SYSTEM.DIHEDRAL>
0

>  <SCORE.SYSTEM.SOLV>
0

>  <SCORE.SYSTEM.norm>
0

>  <SCORE.heavy>
14

>  <SCORE.norm>
-0.76895

>  <RMSD>
6.150

$$$$
ligand
 OpenBabel11021811413D
libRbt.so/2013.1/901 2013/11/27
 14 13  0  0  0  0  0  0  0  0999 V2000
   52.7118    7.2300   17.8090 N   0  0  0  0  0  0  0  0  0  0  0  0
   52.0456    7.2367   16.4887 C   0  0  0  0  0  0  0  0  0  0  0  0
   50.5089    7.2344   16.6391 C   0  0  0  0  0  0  0  0  0  0  0  0
   49.9323    8.4778   17.3358 C   0  0  0  0  0  0  0  0  0  0  0  0
   48.4445    8.4780   17.2833 N   0  0  0  0  0  0  0  0  0  0  0  0
   47.8935    7.5844   18.3343 C   0  0  0  0  0  0  0  0  0  0  0  0
   46.5508    8.0560   18.9878 C   0  0  0  0  0  0  0  0  0  0  0  0
   45.9518    7.0456   20.0080 C   0  0  0  0  0  0  0  0  0  0  0  0
   44.6131    7.4691   20.5801 C   0  0  0  0  0  0  0  0  0  0  0  0
   43.6817    7.5912   19.4747 N   0  0  0  0  0  0  0  0  0  0  0  0
   42.5286    8.2995   20.0022 C   0  0  0  0  0  0  0  0  0  0  0  0
   41.3486    7.3597   20.2204 C   0  0  0  0  0  0  0  0  0  0  0  0
   40.1520    8.2124   20.6689 C   0  0  0  0  0  0  0  0  0  0  0  0
   38.9501    7.3999   20.9095 N   0  0  0  0  0  0  0  0  0  0  0  0
  1  2  1  0  0  0  0
  2  3  1  0  0  0  0
  3  4  1  0  0  0  0
  4  5  1  0  0  0  0
  5  6  1  0  0  0  0
  6  7  1  0  0  0  0
  7  8  1  0  0  0  0
  8  9  1  0  0  0  0
  9 10  1  0  0  0  0
 10 11  1  0  0  0  0
 11 12  1  0  0  0  0
 12 13  1  0  0  0  0
 13 14  1  0  0  0  0
M  END
>  <CHROM.1>
63.19155098,172.69963994,80.08563222,144.96189047,175.76989741,-176.72920391
60.40992481,-166.50367576,-105.27420287,-175.55815406,-179.99629156,46.09385992
7.69105305,18.91014331,-0.27380476,-0.16544506,2.05970302

>  <Name>
ligand

>  <RI>
0

>  <Rbt.Current_Directory>
/home/itssahil/PROJECTS/Mol_Feturizer/New_Systems/rnas/1TN2

>  <Rbt.Executable>
rbdock ($Id: //depot/dev/client3/rdock/2013.1/src/exe/rbdock.cxx#4 $)

>  <Rbt.Library>
libRbt.so (2013.1, Build901 2013/11/27)

>  <Rbt.Parameter_File>
/export/apps/rDock/src/rDock_2013.1_src/data/scripts/dock_solv.prm

>  <Rbt.Receptor>
prm/pocket_docking_7.prm

>  <SCORE>
-7.45277

>  <SCORE.INTER>
-5.3995

>  <SCORE.INTER.CONST>
1

>  <SCORE.INTER.POLAR>
0

>  <SCORE.INTER.ROT>
11

>  <SCORE.INTER.SOLV>
11.7437

>  <SCORE.INTER.VDW>
-18.4476

>  <SCORE.INTER.norm>
-0.385679

>  <SCORE.INTRA>
-2.05327

>  <SCORE.INTRA.DIHEDRAL>
-5.13727

>  <SCORE.INTRA.DIHEDRAL.0>
7.79482

>  <SCORE.INTRA.POLAR>
0

>  <SCORE.INTRA.POLAR.0>
0

>  <SCORE.INTRA.REPUL>
0

>  <SCORE.INTRA.REPUL.0>
0

>  <SCORE.INTRA.SOLV>
1.0758

>  <SCORE.INTRA.SOLV.lig_0>
-49.456

>  <SCORE.INTRA.VDW>
-0.0225375

>  <SCORE.INTRA.VDW.0>
-0.478406

>  <SCORE.INTRA.norm>
-0.146662

>  <SCORE.RESTR>
0

>  <SCORE.RESTR.CAVITY>
0

>  <SCORE.RESTR.norm>
0

>  <SCORE.SYSTEM>
0

>  <SCORE.SYSTEM.CONST>
0

>  <SCORE.SYSTEM.DIHEDRAL>
0

>  <SCORE.SYSTEM.SOLV>
0

>  <SCORE.SYSTEM.norm>
0

>  <SCORE.heavy>
14

>  <SCORE.norm>
-0.532341

>  <RMSD>
6.218

$$$$
ligand
 OpenBabel11021811413D
libRbt.so/2013.1/901 2013/11/27
 14 13  0  0  0  0  0  0  0  0999 V2000
   44.4767    6.9906   19.8737 N   0  0  0  0  0  0  0  0  0  0  0  0
   44.8463    6.2000   21.0677 C   0  0  0  0  0  0  0  0  0  0  0  0
   45.7056    4.9764   20.6827 C   0  0  0  0  0  0  0  0  0  0  0  0
   45.0035    3.9662   19.7603 C   0  0  0  0  0  0  0  0  0  0  0  0
   45.9523    2.9169   19.2966 N   0  0  0  0  0  0  0  0  0  0  0  0
   45.2072    1.7776   18.7020 C   0  0  0  0  0  0  0  0  0  0  0  0
   45.9356    1.0272   17.5364 C   0  0  0  0  0  0  0  0  0  0  0  0
   45.1581   -0.2049   16.9905 C   0  0  0  0  0  0  0  0  0  0  0  0
   45.8788   -0.9451   15.8807 C   0  0  0  0  0  0  0  0  0  0  0  0
   45.0710   -2.0959   15.5235 N   0  0  0  0  0  0  0  0  0  0  0  0
   44.5455   -1.8173   14.1984 C   0  0  0  0  0  0  0  0  0  0  0  0
   44.0211   -3.0824   13.5291 C   0  0  0  0  0  0  0  0  0  0  0  0
   43.4926   -2.6891   12.1413 C   0  0  0  0  0  0  0  0  0  0  0  0
   43.0956   -3.8604   11.3456 N   0  0  0  0  0  0  0  0  0  0  0  0
  1  2  1  0  0  0  0
  2  3  1  0  0  0  0
  3  4  1  0  0  0  0
  4  5  1  0  0  0  0
  5  6  1  0  0  0  0
  6  7  1  0  0  0  0
  7  8  1  0  0  0  0
  8  9  1  0  0  0  0
  9 10  1  0  0  0  0
 10 11  1  0  0  0  0
 11 12  1  0  0  0  0
 12 13  1  0  0  0  0
 13 14  1  0  0  0  0
M  END
>  <CHROM.1>
-62.02915345,172.57734102,165.77068785,147.87969672,176.92124764,-178.85744457
177.21712315,110.37631565,163.42017909,-179.88621448,173.71754858,44.88509608
0.93996624,16.89505940,1.40993879,-0.84285659,0.60514389

>  <Name>
ligand

>  <RI>
0

>  <Rbt.Current_Directory>
/home/itssahil/PROJECTS/Mol_Feturizer/New_Systems/rnas/1TN2

>  <Rbt.Executable>
rbdock ($Id: //depot/dev/client3/rdock/2013.1/src/exe/rbdock.cxx#4 $)

>  <Rbt.Library>
libRbt.so (2013.1, Build901 2013/11/27)

>  <Rbt.Parameter_File>
/export/apps/rDock/src/rDock_2013.1_src/data/scripts/dock_solv.prm

>  <Rbt.Receptor>
prm/blind_docking_80.prm

>  <SCORE>
-8.78411

>  <SCORE.INTER>
-5.96112

>  <SCORE.INTER.CONST>
1

>  <SCORE.INTER.POLAR>
0

>  <SCORE.INTER.ROT>
11

>  <SCORE.INTER.SOLV>
16.3466

>  <SCORE.INTER.VDW>
-20.3563

>  <SCORE.INTER.norm>
-0.425794

>  <SCORE.INTRA>
-2.82299

>  <SCORE.INTRA.DIHEDRAL>
-5.19177

>  <SCORE.INTRA.DIHEDRAL.0>
7.79482

>  <SCORE.INTRA.POLAR>
0

>  <SCORE.INTRA.POLAR.0>
0

>  <SCORE.INTRA.REPUL>
0

>  <SCORE.INTRA.REPUL.0>
0

>  <SCORE.INTRA.SOLV>
0.677026

>  <SCORE.INTRA.SOLV.lig_0>
-49.456

>  <SCORE.INTRA.VDW>
-0.565614

>  <SCORE.INTRA.VDW.0>
-0.478406

>  <SCORE.INTRA.norm>
-0.201642

>  <SCORE.RESTR>
0

>  <SCORE.RESTR.CAVITY>
0

>  <SCORE.RESTR.norm>
0

>  <SCORE.SYSTEM>
0

>  <SCORE.SYSTEM.CONST>
0

>  <SCORE.SYSTEM.DIHEDRAL>
0

>  <SCORE.SYSTEM.SOLV>
0

>  <SCORE.SYSTEM.norm>
0

>  <SCORE.heavy>
14

>  <SCORE.norm>
-0.627436

>  <RMSD>
6.273

$$$$
ligand
 OpenBabel11021811413D
libRbt.so/2013.1/901 2013/11/27
 14 13  0  0  0  0  0  0  0  0999 V2000
   40.6288    3.2751   23.2848 N   0  0  0  0  0  0  0  0  0  0  0  0
   39.9983    4.4411   22.6288 C   0  0  0  0  0  0  0  0  0  0  0  0
   41.0626    5.4276   22.1015 C   0  0  0  0  0  0  0  0  0  0  0  0
   40.4911    6.7035   21.4615 C   0  0  0  0  0  0  0  0  0  0  0  0
   41.5785    7.5589   20.9118 N   0  0  0  0  0  0  0  0  0  0  0  0
   41.0048    8.6442   20.0754 C   0  0  0  0  0  0  0  0  0  0  0  0
   42.0447    9.6100   19.4135 C   0  0  0  0  0  0  0  0  0  0  0  0
   41.4047   10.7689   18.5964 C   0  0  0  0  0  0  0  0  0  0  0  0
   42.4016   11.8023   18.1094 C   0  0  0  0  0  0  0  0  0  0  0  0
   43.3164   11.1367   17.2014 N   0  0  0  0  0  0  0  0  0  0  0  0
   43.2968   11.9149   15.9752 C   0  0  0  0  0  0  0  0  0  0  0  0
   44.1454   11.2650   14.8886 C   0  0  0  0  0  0  0  0  0  0  0  0
   45.6133   11.3464   15.3344 C   0  0  0  0  0  0  0  0  0  0  0  0
   45.8977   10.4616   16.4741 N   0  0  0  0  0  0  0  0  0  0  0  0
  1  2  1  0  0  0  0
  2  3  1  0  0  0  0
  3  4  1  0  0  0  0
  4  5  1  0  0  0  0
  5  6  1  0  0  0  0
  6  7  1  0  0  0  0
  7  8  1  0  0  0  0
  8  9  1  0  0  0  0
  9 10  1  0  0  0  0
 10 11  1  0  0  0  0
 11 12  1  0  0  0  0
 12 13  1  0  0  0  0
 13 14  1  0  0  0  0
M  END
>  <CHROM.1>
-177.28265657,-176.73794156,169.13457039,-179.08544956,-177.48973784,172.42959961
62.99126754,126.44700505,-175.85630957,-67.45174794,69.95204643,42.34869913
8.88289009,19.03244964,-2.04121221,0.57922876,-0.50670578

>  <Name>
ligand

>  <RI>
0

>  <Rbt.Current_Directory>
/home/itssahil/PROJECTS/Mol_Feturizer/New_Systems/rnas/1TN2

>  <Rbt.Executable>
rbdock ($Id: //depot/dev/client3/rdock/2013.1/src/exe/rbdock.cxx#4 $)

>  <Rbt.Library>
libRbt.so (2013.1, Build901 2013/11/27)

>  <Rbt.Parameter_File>
/export/apps/rDock/src/rDock_2013.1_src/data/scripts/dock_solv.prm

>  <Rbt.Receptor>
prm/pocket_docking_8.prm

>  <SCORE>
-7.85199

>  <SCORE.INTER>
-6.27163

>  <SCORE.INTER.CONST>
1

>  <SCORE.INTER.POLAR>
0

>  <SCORE.INTER.ROT>
11

>  <SCORE.INTER.SOLV>
11.9261

>  <SCORE.INTER.VDW>
-19.0898

>  <SCORE.INTER.norm>
-0.447974

>  <SCORE.INTRA>
-1.58035

>  <SCORE.INTRA.DIHEDRAL>
-5.58277

>  <SCORE.INTRA.DIHEDRAL.0>
7.79482

>  <SCORE.INTRA.POLAR>
0

>  <SCORE.INTRA.POLAR.0>
0

>  <SCORE.INTRA.REPUL>
0

>  <SCORE.INTRA.REPUL.0>
0

>  <SCORE.INTRA.SOLV>
3.3497

>  <SCORE.INTRA.SOLV.lig_0>
-49.456

>  <SCORE.INTRA.VDW>
-0.463817

>  <SCORE.INTRA.VDW.0>
-0.478406

>  <SCORE.INTRA.norm>
-0.112882

>  <SCORE.RESTR>
0

>  <SCORE.RESTR.CAVITY>
0

>  <SCORE.RESTR.norm>
0

>  <SCORE.SYSTEM>
0

>  <SCORE.SYSTEM.CONST>
0

>  <SCORE.SYSTEM.DIHEDRAL>
0

>  <SCORE.SYSTEM.SOLV>
0

>  <SCORE.SYSTEM.norm>
0

>  <SCORE.heavy>
14

>  <SCORE.norm>
-0.560856

>  <RMSD>
6.323

$$$$
ligand
 OpenBabel11021811413D
libRbt.so/2013.1/901 2013/11/27
 14 13  0  0  0  0  0  0  0  0999 V2000
   41.6504   11.2632   18.7610 N   0  0  0  0  0  0  0  0  0  0  0  0
   41.9954    9.8258   18.8061 C   0  0  0  0  0  0  0  0  0  0  0  0
   41.3001    9.1220   19.9915 C   0  0  0  0  0  0  0  0  0  0  0  0
   41.6505    7.6330   20.1464 C   0  0  0  0  0  0  0  0  0  0  0  0
   41.1057    7.0854   21.4191 N   0  0  0  0  0  0  0  0  0  0  0  0
   41.6029    5.7026   21.6375 C   0  0  0  0  0  0  0  0  0  0  0  0
   43.1455    5.5669   21.8698 C   0  0  0  0  0  0  0  0  0  0  0  0
   43.9711    5.3868   20.5635 C   0  0  0  0  0  0  0  0  0  0  0  0
   45.4556    5.6443   20.7332 C   0  0  0  0  0  0  0  0  0  0  0  0
   45.6323    7.0670   20.9548 N   0  0  0  0  0  0  0  0  0  0  0  0
   46.2590    7.5826   19.7502 C   0  0  0  0  0  0  0  0  0  0  0  0
   46.0667    9.0893   19.6227 C   0  0  0  0  0  0  0  0  0  0  0  0
   46.7984    9.5452   18.3511 C   0  0  0  0  0  0  0  0  0  0  0  0
   46.6478   10.9882   18.1107 N   0  0  0  0  0  0  0  0  0  0  0  0
  1  2  1  0  0  0  0
  2  3  1  0  0  0  0
  3  4  1  0  0  0  0
  4  5  1  0  0  0  0
  5  6  1  0  0  0  0
  6  7  1  0  0  0  0
  7  8  1  0  0  0  0
  8  9  1  0  0  0  0
  9 10  1  0  0  0  0
 10 11  1  0  0  0  0
 11 12  1  0  0  0  0
 12 13  1  0  0  0  0
 13 14  1  0  0  0  0
M  END
>  <CHROM.1>
-177.63518279,171.51104703,-172.56030639,65.48560024,-88.98945493,163.69092948
-69.84197701,-109.56889973,159.99058279,178.19609341,178.52355389,43.80584134
7.96398126,20.05135757,0.84392306,0.13743800,-0.49417880

>  <Name>
ligand

>  <RI>
0

>  <Rbt.Current_Directory>
/home/itssahil/PROJECTS/Mol_Feturizer/New_Systems/rnas/1TN2

>  <Rbt.Executable>
rbdock ($Id: //depot/dev/client3/rdock/2013.1/src/exe/rbdock.cxx#4 $)

>  <Rbt.Library>
libRbt.so (2013.1, Build901 2013/11/27)

>  <Rbt.Parameter_File>
/export/apps/rDock/src/rDock_2013.1_src/data/scripts/dock_solv.prm

>  <Rbt.Receptor>
prm/blind_docking_60.prm

>  <SCORE>
-9.81478

>  <SCORE.INTER>
-8.6464

>  <SCORE.INTER.CONST>
1

>  <SCORE.INTER.POLAR>
0

>  <SCORE.INTER.ROT>
11

>  <SCORE.INTER.SOLV>
18.1322

>  <SCORE.INTER.VDW>
-22.7417

>  <SCORE.INTER.norm>
-0.6176

>  <SCORE.INTRA>
-1.16838

>  <SCORE.INTRA.DIHEDRAL>
-1.98047

>  <SCORE.INTRA.DIHEDRAL.0>
7.79482

>  <SCORE.INTRA.POLAR>
0

>  <SCORE.INTRA.POLAR.0>
0

>  <SCORE.INTRA.REPUL>
0

>  <SCORE.INTRA.REPUL.0>
0

>  <SCORE.INTRA.SOLV>
0.790801

>  <SCORE.INTRA.SOLV.lig_0>
-49.456

>  <SCORE.INTRA.VDW>
-0.57354

>  <SCORE.INTRA.VDW.0>
-0.478406

>  <SCORE.INTRA.norm>
-0.0834555

>  <SCORE.RESTR>
0

>  <SCORE.RESTR.CAVITY>
0

>  <SCORE.RESTR.norm>
0

>  <SCORE.SYSTEM>
0

>  <SCORE.SYSTEM.CONST>
0

>  <SCORE.SYSTEM.DIHEDRAL>
0

>  <SCORE.SYSTEM.SOLV>
0

>  <SCORE.SYSTEM.norm>
0

>  <SCORE.heavy>
14

>  <SCORE.norm>
-0.701056

>  <RMSD>
6.389

$$$$
ligand
 OpenBabel11021811413D
libRbt.so/2013.1/901 2013/11/27
 14 13  0  0  0  0  0  0  0  0999 V2000
   42.2573    4.5288   21.7648 N   0  0  0  0  0  0  0  0  0  0  0  0
   43.5859    4.1354   21.2479 C   0  0  0  0  0  0  0  0  0  0  0  0
   44.5982    5.2948   21.3710 C   0  0  0  0  0  0  0  0  0  0  0  0
   44.2340    6.5508   20.5626 C   0  0  0  0  0  0  0  0  0  0  0  0
   45.2564    7.6178   20.7433 N   0  0  0  0  0  0  0  0  0  0  0  0
   45.0084    8.7327   19.7934 C   0  0  0  0  0  0  0  0  0  0  0  0
   45.8050    8.6643   18.4470 C   0  0  0  0  0  0  0  0  0  0  0  0
   47.3502    8.7155   18.6199 C   0  0  0  0  0  0  0  0  0  0  0  0
   48.1201    8.5676   17.3221 C   0  0  0  0  0  0  0  0  0  0  0  0
   49.5285    8.7381   17.6248 N   0  0  0  0  0  0  0  0  0  0  0  0
   50.1960    7.5657   17.0866 C   0  0  0  0  0  0  0  0  0  0  0  0
   51.6379    7.4728   17.5721 C   0  0  0  0  0  0  0  0  0  0  0  0
   52.2585    6.2141   16.9473 C   0  0  0  0  0  0  0  0  0  0  0  0
   53.6515    6.0116   17.3732 N   0  0  0  0  0  0  0  0  0  0  0  0
  1  2  1  0  0  0  0
  2  3  1  0  0  0  0
  3  4  1  0  0  0  0
  4  5  1  0  0  0  0
  5  6  1  0  0  0  0
  6  7  1  0  0  0  0
  7  8  1  0  0  0  0
  8  9  1  0  0  0  0
  9 10  1  0  0  0  0
 10 11  1  0  0  0  0
 11 12  1  0  0  0  0
 12 13  1  0  0  0  0
 13 14  1  0  0  0  0
M  END
>  <CHROM.1>
-62.09914682,179.71301697,170.90845300,-94.35871343,-61.83208892,176.61099762
175.65005887,126.58433209,-168.62934962,-179.67537432,-178.87336991,47.39188576
7.05799733,19.03385453,-2.83150779,0.36473087,-0.38194716

>  <Name>
ligand

>  <RI>
0

>  <Rbt.Current_Directory>
/home/itssahil/PROJECTS/Mol_Feturizer/New_Systems/rnas/1TN2

>  <Rbt.Executable>
rbdock ($Id: //depot/dev/client3/rdock/2013.1/src/exe/rbdock.cxx#4 $)

>  <Rbt.Library>
libRbt.so (2013.1, Build901 2013/11/27)

>  <Rbt.Parameter_File>
/export/apps/rDock/src/rDock_2013.1_src/data/scripts/dock_solv.prm

>  <Rbt.Receptor>
prm/pocket_docking_8.prm

>  <SCORE>
-4.96701

>  <SCORE.INTER>
-1.98305

>  <SCORE.INTER.CONST>
1

>  <SCORE.INTER.POLAR>
0

>  <SCORE.INTER.ROT>
11

>  <SCORE.INTER.SOLV>
12.1709

>  <SCORE.INTER.VDW>
-16.3123

>  <SCORE.INTER.norm>
-0.141646

>  <SCORE.INTRA>
-2.98396

>  <SCORE.INTRA.DIHEDRAL>
-5.57025

>  <SCORE.INTRA.DIHEDRAL.0>
7.79482

>  <SCORE.INTRA.POLAR>
0

>  <SCORE.INTRA.POLAR.0>
0

>  <SCORE.INTRA.REPUL>
0

>  <SCORE.INTRA.REPUL.0>
0

>  <SCORE.INTRA.SOLV>
0.987229

>  <SCORE.INTRA.SOLV.lig_0>
-49.456

>  <SCORE.INTRA.VDW>
-0.692454

>  <SCORE.INTRA.VDW.0>
-0.478406

>  <SCORE.INTRA.norm>
-0.21314

>  <SCORE.RESTR>
0

>  <SCORE.RESTR.CAVITY>
0

>  <SCORE.RESTR.norm>
0

>  <SCORE.SYSTEM>
0

>  <SCORE.SYSTEM.CONST>
0

>  <SCORE.SYSTEM.DIHEDRAL>
0

>  <SCORE.SYSTEM.SOLV>
0

>  <SCORE.SYSTEM.norm>
0

>  <SCORE.heavy>
14

>  <SCORE.norm>
-0.354786

>  <RMSD>
6.449

$$$$
ligand
 OpenBabel11021811413D
libRbt.so/2013.1/901 2013/11/27
 14 13  0  0  0  0  0  0  0  0999 V2000
   38.2408    3.5200   20.0440 N   0  0  0  0  0  0  0  0  0  0  0  0
   38.5763    4.1746   18.7610 C   0  0  0  0  0  0  0  0  0  0  0  0
   37.8889    5.5520   18.6407 C   0  0  0  0  0  0  0  0  0  0  0  0
   38.3519    6.5906   19.6755 C   0  0  0  0  0  0  0  0  0  0  0  0
   39.7748    6.9683   19.4539 N   0  0  0  0  0  0  0  0  0  0  0  0
   40.1018    8.2041   20.2107 C   0  0  0  0  0  0  0  0  0  0  0  0
   41.4906    8.8498   19.8845 C   0  0  0  0  0  0  0  0  0  0  0  0
   42.7067    7.9287   20.1897 C   0  0  0  0  0  0  0  0  0  0  0  0
   44.0504    8.5633   19.8886 C   0  0  0  0  0  0  0  0  0  0  0  0
   45.0760    7.5801   20.1812 N   0  0  0  0  0  0  0  0  0  0  0  0
   46.3430    8.2281   19.8906 C   0  0  0  0  0  0  0  0  0  0  0  0
   46.7046    8.1090   18.4146 C   0  0  0  0  0  0  0  0  0  0  0  0
   47.9153    9.0192   18.1579 C   0  0  0  0  0  0  0  0  0  0  0  0
   48.2150    9.1539   16.7244 N   0  0  0  0  0  0  0  0  0  0  0  0
  1  2  1  0  0  0  0
  2  3  1  0  0  0  0
  3  4  1  0  0  0  0
  4  5  1  0  0  0  0
  5  6  1  0  0  0  0
  6  7  1  0  0  0  0
  7  8  1  0  0  0  0
  8  9  1  0  0  0  0
  9 10  1  0  0  0  0
 10 11  1  0  0  0  0
 11 12  1  0  0  0  0
 12 13  1  0  0  0  0
 13 14  1  0  0  0  0
M  END
>  <CHROM.1>
64.35126163,66.60750318,165.27596435,-170.21558808,-61.17611640,-179.29322943
-178.28065144,-179.57916606,-85.20007820,170.35368610,-170.63214842,42.53102585
7.31746889,19.29417852,-2.87530102,0.26878934,0.47906461

>  <Name>
ligand

>  <RI>
0

>  <Rbt.Current_Directory>
/home/itssahil/PROJECTS/Mol_Feturizer/New_Systems/rnas/1TN2

>  <Rbt.Executable>
rbdock ($Id: //depot/dev/client3/rdock/2013.1/src/exe/rbdock.cxx#4 $)

>  <Rbt.Library>
libRbt.so (2013.1, Build901 2013/11/27)

>  <Rbt.Parameter_File>
/export/apps/rDock/src/rDock_2013.1_src/data/scripts/dock_solv.prm

>  <Rbt.Receptor>
prm/blind_docking_60.prm

>  <SCORE>
-9.61145

>  <SCORE.INTER>
-7.23929

>  <SCORE.INTER.CONST>
1

>  <SCORE.INTER.POLAR>
0

>  <SCORE.INTER.ROT>
11

>  <SCORE.INTER.SOLV>
9.68487

>  <SCORE.INTER.VDW>
-18.9878

>  <SCORE.INTER.norm>
-0.517092

>  <SCORE.INTRA>
-2.37216

>  <SCORE.INTRA.DIHEDRAL>
-6.1738

>  <SCORE.INTRA.DIHEDRAL.0>
7.79482

>  <SCORE.INTRA.POLAR>
0

>  <SCORE.INTRA.POLAR.0>
0

>  <SCORE.INTRA.REPUL>
0

>  <SCORE.INTRA.REPUL.0>
0

>  <SCORE.INTRA.SOLV>
1.86639

>  <SCORE.INTRA.SOLV.lig_0>
-49.456

>  <SCORE.INTRA.VDW>
-0.218452

>  <SCORE.INTRA.VDW.0>
-0.478406

>  <SCORE.INTRA.norm>
-0.16944

>  <SCORE.RESTR>
0

>  <SCORE.RESTR.CAVITY>
0

>  <SCORE.RESTR.norm>
0

>  <SCORE.SYSTEM>
0

>  <SCORE.SYSTEM.CONST>
0

>  <SCORE.SYSTEM.DIHEDRAL>
0

>  <SCORE.SYSTEM.SOLV>
0

>  <SCORE.SYSTEM.norm>
0

>  <SCORE.heavy>
14

>  <SCORE.norm>
-0.686532

>  <RMSD>
6.503

$$$$
ligand
 OpenBabel11021811413D
libRbt.so/2013.1/901 2013/11/27
 14 13  0  0  0  0  0  0  0  0999 V2000
   47.2972    9.5253   16.3270 N   0  0  0  0  0  0  0  0  0  0  0  0
   46.5932   10.6486   15.6715 C   0  0  0  0  0  0  0  0  0  0  0  0
   45.0700   10.5685   15.9109 C   0  0  0  0  0  0  0  0  0  0  0  0
   44.2580   11.6936   15.2485 C   0  0  0  0  0  0  0  0  0  0  0  0
   42.8235   11.6188   15.6394 N   0  0  0  0  0  0  0  0  0  0  0  0
   42.5769   12.4460   16.8483 C   0  0  0  0  0  0  0  0  0  0  0  0
   42.6444   11.6843   18.2148 C   0  0  0  0  0  0  0  0  0  0  0  0
   41.5374   10.6063   18.3964 C   0  0  0  0  0  0  0  0  0  0  0  0
   41.7614    9.6876   19.5816 C   0  0  0  0  0  0  0  0  0  0  0  0
   40.6908    8.7088   19.5872 N   0  0  0  0  0  0  0  0  0  0  0  0
   40.9528    7.8389   20.7205 C   0  0  0  0  0  0  0  0  0  0  0  0
   40.3422    6.4574   20.5161 C   0  0  0  0  0  0  0  0  0  0  0  0
   40.6680    5.6166   21.7598 C   0  0  0  0  0  0  0  0  0  0  0  0
   40.1355    4.2493   21.6611 N   0  0  0  0  0  0  0  0  0  0  0  0
  1  2  1  0  0  0  0
  2  3  1  0  0  0  0
  3  4  1  0  0  0  0
  4  5  1  0  0  0  0
  5  6  1  0  0  0  0
  6  7  1  0  0  0  0
  7  8  1  0  0  0  0
  8  9  1  0  0  0  0
  9 10  1  0  0  0  0
 10 11  1  0  0  0  0
 11 12  1  0  0  0  0
 12 13  1  0  0  0  0
 13 14  1  0  0  0  0
M  END
>  <CHROM.1>
-179.35644059,-174.35789794,91.33847308,-94.24886079,-64.90182851,168.50065410
-177.54141638,179.13592268,-154.29520272,-179.88975922,-179.32110475,42.66792280
9.38248559,18.29163997,-0.94776140,-0.45252674,2.64428919

>  <Name>
ligand

>  <RI>
0

>  <Rbt.Current_Directory>
/home/itssahil/PROJECTS/Mol_Feturizer/New_Systems/rnas/1TN2

>  <Rbt.Executable>
rbdock ($Id: //depot/dev/client3/rdock/2013.1/src/exe/rbdock.cxx#4 $)

>  <Rbt.Library>
libRbt.so (2013.1, Build901 2013/11/27)

>  <Rbt.Parameter_File>
/export/apps/rDock/src/rDock_2013.1_src/data/scripts/dock_solv.prm

>  <Rbt.Receptor>
prm/pocket_docking_7.prm

>  <SCORE>
-8.59274

>  <SCORE.INTER>
-5.41954

>  <SCORE.INTER.CONST>
1

>  <SCORE.INTER.POLAR>
0

>  <SCORE.INTER.ROT>
11

>  <SCORE.INTER.SOLV>
12.4064

>  <SCORE.INTER.VDW>
-18.6818

>  <SCORE.INTER.norm>
-0.38711

>  <SCORE.INTRA>
-3.17321

>  <SCORE.INTRA.DIHEDRAL>
-5.17933

>  <SCORE.INTRA.DIHEDRAL.0>
7.79482

>  <SCORE.INTRA.POLAR>
0

>  <SCORE.INTRA.POLAR.0>
0

>  <SCORE.INTRA.REPUL>
0

>  <SCORE.INTRA.REPUL.0>
0

>  <SCORE.INTRA.SOLV>
0.287025

>  <SCORE.INTRA.SOLV.lig_0>
-49.456

>  <SCORE.INTRA.VDW>
-0.727055

>  <SCORE.INTRA.VDW.0>
-0.478406

>  <SCORE.INTRA.norm>
-0.226658

>  <SCORE.RESTR>
0

>  <SCORE.RESTR.CAVITY>
0

>  <SCORE.RESTR.norm>
0

>  <SCORE.SYSTEM>
0

>  <SCORE.SYSTEM.CONST>
0

>  <SCORE.SYSTEM.DIHEDRAL>
0

>  <SCORE.SYSTEM.SOLV>
0

>  <SCORE.SYSTEM.norm>
0

>  <SCORE.heavy>
14

>  <SCORE.norm>
-0.613767

>  <RMSD>
6.602

$$$$
ligand
 OpenBabel11021811413D
libRbt.so/2013.1/901 2013/11/27
 14 13  0  0  0  0  0  0  0  0999 V2000
   40.6320    3.3405   23.4938 N   0  0  0  0  0  0  0  0  0  0  0  0
   40.0107    4.4895   22.8003 C   0  0  0  0  0  0  0  0  0  0  0  0
   41.0826    5.4532   22.2467 C   0  0  0  0  0  0  0  0  0  0  0  0
   40.5204    6.6943   21.5343 C   0  0  0  0  0  0  0  0  0  0  0  0
   41.6167    7.5305   20.9727 N   0  0  0  0  0  0  0  0  0  0  0  0
   41.0532    8.6243   20.1403 C   0  0  0  0  0  0  0  0  0  0  0  0
   42.1031    9.5422   19.4280 C   0  0  0  0  0  0  0  0  0  0  0  0
   41.4753   10.6580   18.5442 C   0  0  0  0  0  0  0  0  0  0  0  0
   42.4947   11.5344   17.8431 C   0  0  0  0  0  0  0  0  0  0  0  0
   41.7718   12.4245   16.9545 N   0  0  0  0  0  0  0  0  0  0  0  0
   42.0407   13.7693   17.4330 C   0  0  0  0  0  0  0  0  0  0  0  0
   40.9494   14.7428   17.0031 C   0  0  0  0  0  0  0  0  0  0  0  0
   41.3469   16.1385   17.5070 C   0  0  0  0  0  0  0  0  0  0  0  0
   41.3806   16.2102   18.9755 N   0  0  0  0  0  0  0  0  0  0  0  0
  1  2  1  0  0  0  0
  2  3  1  0  0  0  0
  3  4  1  0  0  0  0
  4  5  1  0  0  0  0
  5  6  1  0  0  0  0
  6  7  1  0  0  0  0
  7  8  1  0  0  0  0
  8  9  1  0  0  0  0
  9 10  1  0  0  0  0
 10 11  1  0  0  0  0
 11 12  1  0  0  0  0
 12 13  1  0  0  0  0
 13 14  1  0  0  0  0
M  END
>  <CHROM.1>
-178.77604931,-177.09625427,172.63969722,-177.11625148,178.88002450,-179.31126345
173.99684896,117.57860852,-156.55142374,-177.89209772,-64.41325186,41.31985268
10.08238392,19.63385128,1.76078090,-1.13444761,2.85050585

>  <Name>
ligand

>  <RI>
0

>  <Rbt.Current_Directory>
/home/itssahil/PROJECTS/Mol_Feturizer/New_Systems/rnas/1TN2

>  <Rbt.Executable>
rbdock ($Id: //depot/dev/client3/rdock/2013.1/src/exe/rbdock.cxx#4 $)

>  <Rbt.Library>
libRbt.so (2013.1, Build901 2013/11/27)

>  <Rbt.Parameter_File>
/export/apps/rDock/src/rDock_2013.1_src/data/scripts/dock_solv.prm

>  <Rbt.Receptor>
prm/pocket_docking_8.prm

>  <SCORE>
-7.58367

>  <SCORE.INTER>
-4.47659

>  <SCORE.INTER.CONST>
1

>  <SCORE.INTER.POLAR>
0

>  <SCORE.INTER.ROT>
11

>  <SCORE.INTER.SOLV>
12.1012

>  <SCORE.INTER.VDW>
-17.9515

>  <SCORE.INTER.norm>
-0.319756

>  <SCORE.INTRA>
-3.10709

>  <SCORE.INTRA.DIHEDRAL>
-5.88099

>  <SCORE.INTRA.DIHEDRAL.0>
7.79482

>  <SCORE.INTRA.POLAR>
0

>  <SCORE.INTRA.POLAR.0>
0

>  <SCORE.INTRA.REPUL>
0

>  <SCORE.INTRA.REPUL.0>
0

>  <SCORE.INTRA.SOLV>
0.755666

>  <SCORE.INTRA.SOLV.lig_0>
-49.456

>  <SCORE.INTRA.VDW>
-0.544427

>  <SCORE.INTRA.VDW.0>
-0.478406

>  <SCORE.INTRA.norm>
-0.221935

>  <SCORE.RESTR>
0

>  <SCORE.RESTR.CAVITY>
0

>  <SCORE.RESTR.norm>
0

>  <SCORE.SYSTEM>
0

>  <SCORE.SYSTEM.CONST>
0

>  <SCORE.SYSTEM.DIHEDRAL>
0

>  <SCORE.SYSTEM.SOLV>
0

>  <SCORE.SYSTEM.norm>
0

>  <SCORE.heavy>
14

>  <SCORE.norm>
-0.541691

>  <RMSD>
6.756

$$$$
ligand
 OpenBabel11021811413D
libRbt.so/2013.1/901 2013/11/27
 14 13  0  0  0  0  0  0  0  0999 V2000
   38.4472    4.8244   20.2709 N   0  0  0  0  0  0  0  0  0  0  0  0
   38.4187    6.1095   19.5396 C   0  0  0  0  0  0  0  0  0  0  0  0
   38.3940    7.3061   20.5150 C   0  0  0  0  0  0  0  0  0  0  0  0
   39.6990    7.5192   21.2996 C   0  0  0  0  0  0  0  0  0  0  0  0
   40.8004    7.9532   20.3969 N   0  0  0  0  0  0  0  0  0  0  0  0
   40.6472    9.3905   20.0541 C   0  0  0  0  0  0  0  0  0  0  0  0
   41.5130    9.8953   18.8510 C   0  0  0  0  0  0  0  0  0  0  0  0
   43.0426    9.9165   19.1340 C   0  0  0  0  0  0  0  0  0  0  0  0
   43.6322    8.5520   19.4332 C   0  0  0  0  0  0  0  0  0  0  0  0
   45.0619    8.7206   19.6117 N   0  0  0  0  0  0  0  0  0  0  0  0
   45.6374    7.3925   19.4908 C   0  0  0  0  0  0  0  0  0  0  0  0
   47.1288    7.4570   19.1826 C   0  0  0  0  0  0  0  0  0  0  0  0
   47.2839    7.9654   17.7413 C   0  0  0  0  0  0  0  0  0  0  0  0
   46.9110    9.3818   17.6087 N   0  0  0  0  0  0  0  0  0  0  0  0
  1  2  1  0  0  0  0
  2  3  1  0  0  0  0
  3  4  1  0  0  0  0
  4  5  1  0  0  0  0
  5  6  1  0  0  0  0
  6  7  1  0  0  0  0
  7  8  1  0  0  0  0
  8  9  1  0  0  0  0
  9 10  1  0  0  0  0
 10 11  1  0  0  0  0
 11 12  1  0  0  0  0
 12 13  1  0  0  0  0
 13 14  1  0  0  0  0
M  END
>  <CHROM.1>
69.37057899,67.97060828,77.11639866,-165.58052367,-68.12860691,61.93734961
177.36067502,-163.21919987,160.57080024,-70.56406613,69.89148602,42.61543646
8.02755367,19.50925736,-2.92206004,0.20852471,-0.10385886

>  <Name>
ligand

>  <RI>
0

>  <Rbt.Current_Directory>
/home/itssahil/PROJECTS/Mol_Feturizer/New_Systems/rnas/1TN2

>  <Rbt.Executable>
rbdock ($Id: //depot/dev/client3/rdock/2013.1/src/exe/rbdock.cxx#4 $)

>  <Rbt.Library>
libRbt.so (2013.1, Build901 2013/11/27)

>  <Rbt.Parameter_File>
/export/apps/rDock/src/rDock_2013.1_src/data/scripts/dock_solv.prm

>  <Rbt.Receptor>
prm/blind_docking_60.prm

>  <SCORE>
-8.33362

>  <SCORE.INTER>
-8.5655

>  <SCORE.INTER.CONST>
1

>  <SCORE.INTER.POLAR>
0

>  <SCORE.INTER.ROT>
11

>  <SCORE.INTER.SOLV>
9.1258

>  <SCORE.INTER.VDW>
-19.6856

>  <SCORE.INTER.norm>
-0.611822

>  <SCORE.INTRA>
0.23188

>  <SCORE.INTRA.DIHEDRAL>
-5.28054

>  <SCORE.INTRA.DIHEDRAL.0>
7.79482

>  <SCORE.INTRA.POLAR>
0

>  <SCORE.INTRA.POLAR.0>
0

>  <SCORE.INTRA.REPUL>
0

>  <SCORE.INTRA.REPUL.0>
0

>  <SCORE.INTRA.SOLV>
5.82178

>  <SCORE.INTRA.SOLV.lig_0>
-49.456

>  <SCORE.INTRA.VDW>
-0.038737

>  <SCORE.INTRA.VDW.0>
-0.478406

>  <SCORE.INTRA.norm>
0.0165628

>  <SCORE.RESTR>
0

>  <SCORE.RESTR.CAVITY>
0

>  <SCORE.RESTR.norm>
0

>  <SCORE.SYSTEM>
0

>  <SCORE.SYSTEM.CONST>
0

>  <SCORE.SYSTEM.DIHEDRAL>
0

>  <SCORE.SYSTEM.SOLV>
0

>  <SCORE.SYSTEM.norm>
0

>  <SCORE.heavy>
14

>  <SCORE.norm>
-0.595259

>  <RMSD>
6.785

$$$$
ligand
 OpenBabel11021811413D
libRbt.so/2013.1/901 2013/11/27
 14 13  0  0  0  0  0  0  0  0999 V2000
   45.3426    4.5360   20.3277 N   0  0  0  0  0  0  0  0  0  0  0  0
   44.1542    4.9721   21.0923 C   0  0  0  0  0  0  0  0  0  0  0  0
   44.1222    6.5081   21.2458 C   0  0  0  0  0  0  0  0  0  0  0  0
   44.0224    7.2816   19.9207 C   0  0  0  0  0  0  0  0  0  0  0  0
   44.0743    8.7510   20.1544 N   0  0  0  0  0  0  0  0  0  0  0  0
   43.8729    9.4815   18.8767 C   0  0  0  0  0  0  0  0  0  0  0  0
   42.5955   10.3846   18.8076 C   0  0  0  0  0  0  0  0  0  0  0  0
   41.2563    9.5990   18.9054 C   0  0  0  0  0  0  0  0  0  0  0  0
   41.0288    8.9352   20.2495 C   0  0  0  0  0  0  0  0  0  0  0  0
   39.7402    8.2709   20.1991 N   0  0  0  0  0  0  0  0  0  0  0  0
   40.0146    6.8560   20.3793 C   0  0  0  0  0  0  0  0  0  0  0  0
   38.8352    5.9983   19.9357 C   0  0  0  0  0  0  0  0  0  0  0  0
   39.1859    4.5336   20.2384 C   0  0  0  0  0  0  0  0  0  0  0  0
   38.1001    3.6141   19.8664 N   0  0  0  0  0  0  0  0  0  0  0  0
  1  2  1  0  0  0  0
  2  3  1  0  0  0  0
  3  4  1  0  0  0  0
  4  5  1  0  0  0  0
  5  6  1  0  0  0  0
  6  7  1  0  0  0  0
  7  8  1  0  0  0  0
  8  9  1  0  0  0  0
  9 10  1  0  0  0  0
 10 11  1  0  0  0  0
 11 12  1  0  0  0  0
 12 13  1  0  0  0  0
 13 14  1  0  0  0  0
M  END
>  <CHROM.1>
62.19313644,-176.81464447,-175.70567613,117.02463560,-63.90148506,66.32692429
178.84578575,117.63694530,-162.76505471,-176.78914216,179.10093407,41.88182907
7.12334421,20.01416322,-0.57051349,0.08456920,2.90837819

>  <Name>
ligand

>  <RI>
0

>  <Rbt.Current_Directory>
/home/itssahil/PROJECTS/Mol_Feturizer/New_Systems/rnas/1TN2

>  <Rbt.Executable>
rbdock ($Id: //depot/dev/client3/rdock/2013.1/src/exe/rbdock.cxx#4 $)

>  <Rbt.Library>
libRbt.so (2013.1, Build901 2013/11/27)

>  <Rbt.Parameter_File>
/export/apps/rDock/src/rDock_2013.1_src/data/scripts/dock_solv.prm

>  <Rbt.Receptor>
prm/blind_docking_60.prm

>  <SCORE>
-10.3193

>  <SCORE.INTER>
-7.70054

>  <SCORE.INTER.CONST>
1

>  <SCORE.INTER.POLAR>
0

>  <SCORE.INTER.ROT>
11

>  <SCORE.INTER.SOLV>
14.2202

>  <SCORE.INTER.VDW>
-20.8071

>  <SCORE.INTER.norm>
-0.550039

>  <SCORE.INTRA>
-2.61878

>  <SCORE.INTRA.DIHEDRAL>
-4.83614

>  <SCORE.INTRA.DIHEDRAL.0>
7.79482

>  <SCORE.INTRA.POLAR>
0

>  <SCORE.INTRA.POLAR.0>
0

>  <SCORE.INTRA.REPUL>
0

>  <SCORE.INTRA.REPUL.0>
0

>  <SCORE.INTRA.SOLV>
1.84462

>  <SCORE.INTRA.SOLV.lig_0>
-49.456

>  <SCORE.INTRA.VDW>
-1.12302

>  <SCORE.INTRA.VDW.0>
-0.478406

>  <SCORE.INTRA.norm>
-0.187056

>  <SCORE.RESTR>
0

>  <SCORE.RESTR.CAVITY>
0

>  <SCORE.RESTR.norm>
0

>  <SCORE.SYSTEM>
0

>  <SCORE.SYSTEM.CONST>
0

>  <SCORE.SYSTEM.DIHEDRAL>
0

>  <SCORE.SYSTEM.SOLV>
0

>  <SCORE.SYSTEM.norm>
0

>  <SCORE.heavy>
14

>  <SCORE.norm>
-0.737095

>  <RMSD>
6.980

$$$$
ligand
 OpenBabel11021811413D
libRbt.so/2013.1/901 2013/11/27
 14 13  0  0  0  0  0  0  0  0999 V2000
   45.9698    6.2073   20.4786 N   0  0  0  0  0  0  0  0  0  0  0  0
   45.7571    4.7438   20.4724 C   0  0  0  0  0  0  0  0  0  0  0  0
   46.0440    4.1441   19.0788 C   0  0  0  0  0  0  0  0  0  0  0  0
   45.6975    2.6525   18.9403 C   0  0  0  0  0  0  0  0  0  0  0  0
   46.0702    2.1401   17.5931 N   0  0  0  0  0  0  0  0  0  0  0  0
   45.0189    2.4876   16.6028 C   0  0  0  0  0  0  0  0  0  0  0  0
   45.0083    1.6245   15.2962 C   0  0  0  0  0  0  0  0  0  0  0  0
   44.6651    0.1250   15.5283 C   0  0  0  0  0  0  0  0  0  0  0  0
   44.6897   -0.7147   14.2661 C   0  0  0  0  0  0  0  0  0  0  0  0
   44.3141   -2.0675   14.6309 N   0  0  0  0  0  0  0  0  0  0  0  0
   44.6427   -2.8950   13.4833 C   0  0  0  0  0  0  0  0  0  0  0  0
   43.4544   -3.0367   12.5393 C   0  0  0  0  0  0  0  0  0  0  0  0
   43.9288   -3.8269   11.3103 C   0  0  0  0  0  0  0  0  0  0  0  0
   42.8738   -3.9602   10.2945 N   0  0  0  0  0  0  0  0  0  0  0  0
  1  2  1  0  0  0  0
  2  3  1  0  0  0  0
  3  4  1  0  0  0  0
  4  5  1  0  0  0  0
  5  6  1  0  0  0  0
  6  7  1  0  0  0  0
  7  8  1  0  0  0  0
  8  9  1  0  0  0  0
  9 10  1  0  0  0  0
 10 11  1  0  0  0  0
 11 12  1  0  0  0  0
 12 13  1  0  0  0  0
 13 14  1  0  0  0  0
M  END
>  <CHROM.1>
-173.51243736,-177.03459136,-81.36814848,-159.70185329,65.20631445,-178.54831860
-178.32139923,-167.24562265,-92.08533391,175.50536824,-176.89813141,44.86675271
0.54454866,15.75106290,0.93292911,-1.23766281,0.15954063

>  <Name>
ligand

>  <RI>
0

>  <Rbt.Current_Directory>
/home/itssahil/PROJECTS/Mol_Feturizer/New_Systems/rnas/1TN2

>  <Rbt.Executable>
rbdock ($Id: //depot/dev/client3/rdock/2013.1/src/exe/rbdock.cxx#4 $)

>  <Rbt.Library>
libRbt.so (2013.1, Build901 2013/11/27)

>  <Rbt.Parameter_File>
/export/apps/rDock/src/rDock_2013.1_src/data/scripts/dock_solv.prm

>  <Rbt.Receptor>
prm/blind_docking_100.prm

>  <SCORE>
-5.13241

>  <SCORE.INTER>
-2.27943

>  <SCORE.INTER.CONST>
1

>  <SCORE.INTER.POLAR>
0

>  <SCORE.INTER.ROT>
11

>  <SCORE.INTER.SOLV>
13.9577

>  <SCORE.INTER.VDW>
-17.1055

>  <SCORE.INTER.norm>
-0.162816

>  <SCORE.INTRA>
-2.85299

>  <SCORE.INTRA.DIHEDRAL>
-5.92971

>  <SCORE.INTRA.DIHEDRAL.0>
7.79482

>  <SCORE.INTRA.POLAR>
0

>  <SCORE.INTRA.POLAR.0>
0

>  <SCORE.INTRA.REPUL>
0

>  <SCORE.INTRA.REPUL.0>
0

>  <SCORE.INTRA.SOLV>
0.280206

>  <SCORE.INTRA.SOLV.lig_0>
-49.456

>  <SCORE.INTRA.VDW>
-0.0282341

>  <SCORE.INTRA.VDW.0>
-0.478406

>  <SCORE.INTRA.norm>
-0.203785

>  <SCORE.RESTR>
0

>  <SCORE.RESTR.CAVITY>
0

>  <SCORE.RESTR.norm>
0

>  <SCORE.SYSTEM>
0

>  <SCORE.SYSTEM.CONST>
0

>  <SCORE.SYSTEM.DIHEDRAL>
0

>  <SCORE.SYSTEM.SOLV>
0

>  <SCORE.SYSTEM.norm>
0

>  <SCORE.heavy>
14

>  <SCORE.norm>
-0.366601

>  <RMSD>
7.001

$$$$
ligand
 OpenBabel11021811413D
libRbt.so/2013.1/901 2013/11/27
 14 13  0  0  0  0  0  0  0  0999 V2000
   45.3336    5.7068   20.3660 N   0  0  0  0  0  0  0  0  0  0  0  0
   46.1697    4.7234   19.6440 C   0  0  0  0  0  0  0  0  0  0  0  0
   45.3496    3.4758   19.2506 C   0  0  0  0  0  0  0  0  0  0  0  0
   46.1445    2.4009   18.4911 C   0  0  0  0  0  0  0  0  0  0  0  0
   45.2751    1.2467   18.1329 N   0  0  0  0  0  0  0  0  0  0  0  0
   44.5068    1.5466   16.8974 C   0  0  0  0  0  0  0  0  0  0  0  0
   45.3093    1.4343   15.5574 C   0  0  0  0  0  0  0  0  0  0  0  0
   45.7132   -0.0197   15.1791 C   0  0  0  0  0  0  0  0  0  0  0  0
   44.5461   -0.8952   14.7667 C   0  0  0  0  0  0  0  0  0  0  0  0
   45.0786   -2.1945   14.4023 N   0  0  0  0  0  0  0  0  0  0  0  0
   43.9406   -2.9813   13.9602 C   0  0  0  0  0  0  0  0  0  0  0  0
   44.3848   -4.2318   13.2103 C   0  0  0  0  0  0  0  0  0  0  0  0
   45.0235   -3.7789   11.8886 C   0  0  0  0  0  0  0  0  0  0  0  0
   44.0546   -3.1186   11.0010 N   0  0  0  0  0  0  0  0  0  0  0  0
  1  2  1  0  0  0  0
  2  3  1  0  0  0  0
  3  4  1  0  0  0  0
  4  5  1  0  0  0  0
  5  6  1  0  0  0  0
  6  7  1  0  0  0  0
  7  8  1  0  0  0  0
  8  9  1  0  0  0  0
  9 10  1  0  0  0  0
 10 11  1  0  0  0  0
 11 12  1  0  0  0  0
 12 13  1  0  0  0  0
 13 14  1  0  0  0  0
M  END
>  <CHROM.1>
179.88158729,-179.09692280,82.00620441,77.22716223,68.84317927,69.94756072
178.07893254,-177.60305096,165.12973162,-67.86390562,-64.65685392,45.05934915
0.23667244,15.91051282,-0.34332621,-1.45040776,-1.17646159

>  <Name>
ligand

>  <RI>
0

>  <Rbt.Current_Directory>
/home/itssahil/PROJECTS/Mol_Feturizer/New_Systems/rnas/1TN2

>  <Rbt.Executable>
rbdock ($Id: //depot/dev/client3/rdock/2013.1/src/exe/rbdock.cxx#4 $)

>  <Rbt.Library>
libRbt.so (2013.1, Build901 2013/11/27)

>  <Rbt.Parameter_File>
/export/apps/rDock/src/rDock_2013.1_src/data/scripts/dock_solv.prm

>  <Rbt.Receptor>
prm/blind_docking_80.prm

>  <SCORE>
-5.46638

>  <SCORE.INTER>
-3.90584

>  <SCORE.INTER.CONST>
1

>  <SCORE.INTER.POLAR>
0

>  <SCORE.INTER.ROT>
11

>  <SCORE.INTER.SOLV>
12.3292

>  <SCORE.INTER.VDW>
-17.647

>  <SCORE.INTER.norm>
-0.278988

>  <SCORE.INTRA>
-1.56055

>  <SCORE.INTRA.DIHEDRAL>
-6.00732

>  <SCORE.INTRA.DIHEDRAL.0>
7.79482

>  <SCORE.INTRA.POLAR>
0

>  <SCORE.INTRA.POLAR.0>
0

>  <SCORE.INTRA.REPUL>
0

>  <SCORE.INTRA.REPUL.0>
0

>  <SCORE.INTRA.SOLV>
2.50089

>  <SCORE.INTRA.SOLV.lig_0>
-49.456

>  <SCORE.INTRA.VDW>
0.192666

>  <SCORE.INTRA.VDW.0>
-0.478406

>  <SCORE.INTRA.norm>
-0.111468

>  <SCORE.RESTR>
0

>  <SCORE.RESTR.CAVITY>
0

>  <SCORE.RESTR.norm>
0

>  <SCORE.SYSTEM>
0

>  <SCORE.SYSTEM.CONST>
0

>  <SCORE.SYSTEM.DIHEDRAL>
0

>  <SCORE.SYSTEM.SOLV>
0

>  <SCORE.SYSTEM.norm>
0

>  <SCORE.heavy>
14

>  <SCORE.norm>
-0.390456

>  <RMSD>
7.088

$$$$
ligand
 OpenBabel11021811413D
libRbt.so/2013.1/901 2013/11/27
 14 13  0  0  0  0  0  0  0  0999 V2000
   38.9905   16.6625   20.2570 N   0  0  0  0  0  0  0  0  0  0  0  0
   39.4383   15.5303   19.4175 C   0  0  0  0  0  0  0  0  0  0  0  0
   40.2929   16.0208   18.2288 C   0  0  0  0  0  0  0  0  0  0  0  0
   40.7642   14.9086   17.2776 C   0  0  0  0  0  0  0  0  0  0  0  0
   41.5913   13.9030   17.9994 N   0  0  0  0  0  0  0  0  0  0  0  0
   42.0105   12.8215   17.0712 C   0  0  0  0  0  0  0  0  0  0  0  0
   42.5699   11.5261   17.7503 C   0  0  0  0  0  0  0  0  0  0  0  0
   41.5195   10.7460   18.5920 C   0  0  0  0  0  0  0  0  0  0  0  0
   42.0695    9.5033   19.2643 C   0  0  0  0  0  0  0  0  0  0  0  0
   40.9680    8.8467   19.9426 N   0  0  0  0  0  0  0  0  0  0  0  0
   41.5428    7.6907   20.6081 C   0  0  0  0  0  0  0  0  0  0  0  0
   40.4611    6.7449   21.1166 C   0  0  0  0  0  0  0  0  0  0  0  0
   41.1628    5.5469   21.7742 C   0  0  0  0  0  0  0  0  0  0  0  0
   40.2061    4.5433   22.2645 N   0  0  0  0  0  0  0  0  0  0  0  0
  1  2  1  0  0  0  0
  2  3  1  0  0  0  0
  3  4  1  0  0  0  0
  4  5  1  0  0  0  0
  5  6  1  0  0  0  0
  6  7  1  0  0  0  0
  7  8  1  0  0  0  0
  8  9  1  0  0  0  0
  9 10  1  0  0  0  0
 10 11  1  0  0  0  0
 11 12  1  0  0  0  0
 12 13  1  0  0  0  0
 13 14  1  0  0  0  0
M  END
>  <CHROM.1>
-178.17075338,-59.58043001,178.70410306,-165.19352175,65.61042902,-179.16282078
-176.81214340,-178.14374078,-167.98794136,178.82001176,-178.13621557,40.97073471
11.07106765,19.39714535,1.65433567,0.85040431,-0.36543098

>  <Name>
ligand

>  <RI>
0

>  <Rbt.Current_Directory>
/home/itssahil/PROJECTS/Mol_Feturizer/New_Systems/rnas/1TN2

>  <Rbt.Executable>
rbdock ($Id: //depot/dev/client3/rdock/2013.1/src/exe/rbdock.cxx#4 $)

>  <Rbt.Library>
libRbt.so (2013.1, Build901 2013/11/27)

>  <Rbt.Parameter_File>
/export/apps/rDock/src/rDock_2013.1_src/data/scripts/dock_solv.prm

>  <Rbt.Receptor>
prm/pocket_docking_8.prm

>  <SCORE>
-10.0671

>  <SCORE.INTER>
-5.8393

>  <SCORE.INTER.CONST>
1

>  <SCORE.INTER.POLAR>
0

>  <SCORE.INTER.ROT>
11

>  <SCORE.INTER.SOLV>
10.5467

>  <SCORE.INTER.VDW>
-18.3418

>  <SCORE.INTER.norm>
-0.417093

>  <SCORE.INTRA>
-4.22782

>  <SCORE.INTRA.DIHEDRAL>
-7.31309

>  <SCORE.INTRA.DIHEDRAL.0>
7.79482

>  <SCORE.INTRA.POLAR>
0

>  <SCORE.INTRA.POLAR.0>
0

>  <SCORE.INTRA.REPUL>
0

>  <SCORE.INTRA.REPUL.0>
0

>  <SCORE.INTRA.SOLV>
0.5901

>  <SCORE.INTRA.SOLV.lig_0>
-49.456

>  <SCORE.INTRA.VDW>
-0.866328

>  <SCORE.INTRA.VDW.0>
-0.478406

>  <SCORE.INTRA.norm>
-0.301987

>  <SCORE.RESTR>
0

>  <SCORE.RESTR.CAVITY>
0

>  <SCORE.RESTR.norm>
0

>  <SCORE.SYSTEM>
0

>  <SCORE.SYSTEM.CONST>
0

>  <SCORE.SYSTEM.DIHEDRAL>
0

>  <SCORE.SYSTEM.SOLV>
0

>  <SCORE.SYSTEM.norm>
0

>  <SCORE.heavy>
14

>  <SCORE.norm>
-0.71908

>  <RMSD>
7.319

$$$$
ligand
 OpenBabel11021811413D
libRbt.so/2013.1/901 2013/11/27
 14 13  0  0  0  0  0  0  0  0999 V2000
   43.0569   -3.2496    9.8192 N   0  0  0  0  0  0  0  0  0  0  0  0
   42.6633   -3.4096   11.2357 C   0  0  0  0  0  0  0  0  0  0  0  0
   43.8764   -3.2360   12.1750 C   0  0  0  0  0  0  0  0  0  0  0  0
   43.5710   -3.4676   13.6640 C   0  0  0  0  0  0  0  0  0  0  0  0
   44.7375   -3.0990   14.5124 N   0  0  0  0  0  0  0  0  0  0  0  0
   44.8233   -1.6227   14.6540 C   0  0  0  0  0  0  0  0  0  0  0  0
   45.4089   -1.1061   16.0113 C   0  0  0  0  0  0  0  0  0  0  0  0
   45.3958    0.4425   16.1602 C   0  0  0  0  0  0  0  0  0  0  0  0
   45.8031    0.9321   17.5362 C   0  0  0  0  0  0  0  0  0  0  0  0
   45.8558    2.3810   17.4892 N   0  0  0  0  0  0  0  0  0  0  0  0
   45.9771    2.8197   18.8685 C   0  0  0  0  0  0  0  0  0  0  0  0
   45.9465    4.3399   18.9749 C   0  0  0  0  0  0  0  0  0  0  0  0
   45.9714    4.7019   20.4677 C   0  0  0  0  0  0  0  0  0  0  0  0
   45.8754    6.1526   20.6892 N   0  0  0  0  0  0  0  0  0  0  0  0
  1  2  1  0  0  0  0
  2  3  1  0  0  0  0
  3  4  1  0  0  0  0
  4  5  1  0  0  0  0
  5  6  1  0  0  0  0
  6  7  1  0  0  0  0
  7  8  1  0  0  0  0
  8  9  1  0  0  0  0
  9 10  1  0  0  0  0
 10 11  1  0  0  0  0
 11 12  1  0  0  0  0
 12 13  1  0  0  0  0
 13 14  1  0  0  0  0
M  END
>  <CHROM.1>
-176.62297240,-172.15204376,77.27924987,148.21532653,-176.16807351,172.89103310
175.14074389,168.69937012,-176.06332711,175.73280400,-177.07918133,44.92590572
0.18408312,15.87563714,2.10409810,1.12290444,-2.84744528

>  <Name>
ligand

>  <RI>
0

>  <Rbt.Current_Directory>
/home/itssahil/PROJECTS/Mol_Feturizer/New_Systems/rnas/1TN2

>  <Rbt.Executable>
rbdock ($Id: //depot/dev/client3/rdock/2013.1/src/exe/rbdock.cxx#4 $)

>  <Rbt.Library>
libRbt.so (2013.1, Build901 2013/11/27)

>  <Rbt.Parameter_File>
/export/apps/rDock/src/rDock_2013.1_src/data/scripts/dock_solv.prm

>  <Rbt.Receptor>
prm/blind_docking_80.prm

>  <SCORE>
-8.4234

>  <SCORE.INTER>
-5.10642

>  <SCORE.INTER.CONST>
1

>  <SCORE.INTER.POLAR>
0

>  <SCORE.INTER.ROT>
11

>  <SCORE.INTER.SOLV>
15.3681

>  <SCORE.INTER.VDW>
-19.4603

>  <SCORE.INTER.norm>
-0.364744

>  <SCORE.INTRA>
-3.31698

>  <SCORE.INTRA.DIHEDRAL>
-6.06748

>  <SCORE.INTRA.DIHEDRAL.0>
7.79482

>  <SCORE.INTRA.POLAR>
0

>  <SCORE.INTRA.POLAR.0>
0

>  <SCORE.INTRA.REPUL>
0

>  <SCORE.INTRA.REPUL.0>
0

>  <SCORE.INTRA.SOLV>
-0.0473046

>  <SCORE.INTRA.SOLV.lig_0>
-49.456

>  <SCORE.INTRA.VDW>
-0.259582

>  <SCORE.INTRA.VDW.0>
-0.478406

>  <SCORE.INTRA.norm>
-0.236927

>  <SCORE.RESTR>
0

>  <SCORE.RESTR.CAVITY>
0

>  <SCORE.RESTR.norm>
0

>  <SCORE.SYSTEM>
0

>  <SCORE.SYSTEM.CONST>
0

>  <SCORE.SYSTEM.DIHEDRAL>
0

>  <SCORE.SYSTEM.SOLV>
0

>  <SCORE.SYSTEM.norm>
0

>  <SCORE.heavy>
14

>  <SCORE.norm>
-0.601671

>  <RMSD>
7.321

$$$$
ligand
 OpenBabel11021811413D
libRbt.so/2013.1/901 2013/11/27
 14 13  0  0  0  0  0  0  0  0999 V2000
   42.7653   -3.4870   10.4150 N   0  0  0  0  0  0  0  0  0  0  0  0
   43.1627   -2.8963   11.7113 C   0  0  0  0  0  0  0  0  0  0  0  0
   43.9844   -1.6050   11.5076 C   0  0  0  0  0  0  0  0  0  0  0  0
   44.4332   -0.9202   12.8089 C   0  0  0  0  0  0  0  0  0  0  0  0
   45.3690   -1.7888   13.5746 N   0  0  0  0  0  0  0  0  0  0  0  0
   45.1302   -1.6402   15.0333 C   0  0  0  0  0  0  0  0  0  0  0  0
   45.6943   -0.3310   15.6814 C   0  0  0  0  0  0  0  0  0  0  0  0
   45.2885   -0.1336   17.1703 C   0  0  0  0  0  0  0  0  0  0  0  0
   45.9233    1.0772   17.8259 C   0  0  0  0  0  0  0  0  0  0  0  0
   45.4690    2.2537   17.1091 N   0  0  0  0  0  0  0  0  0  0  0  0
   46.6581    2.8455   16.5212 C   0  0  0  0  0  0  0  0  0  0  0  0
   46.3019    3.9620   15.5466 C   0  0  0  0  0  0  0  0  0  0  0  0
   47.6101    4.4642   14.9169 C   0  0  0  0  0  0  0  0  0  0  0  0
   47.3874    5.5894   13.9966 N   0  0  0  0  0  0  0  0  0  0  0  0
  1  2  1  0  0  0  0
  2  3  1  0  0  0  0
  3  4  1  0  0  0  0
  4  5  1  0  0  0  0
  5  6  1  0  0  0  0
  6  7  1  0  0  0  0
  7  8  1  0  0  0  0
  8  9  1  0  0  0  0
  9 10  1  0  0  0  0
 10 11  1  0  0  0  0
 11 12  1  0  0  0  0
 12 13  1  0  0  0  0
 13 14  1  0  0  0  0
M  END
>  <CHROM.1>
179.69876732,64.10576642,-143.56982548,-76.48119912,173.47518508,175.49503278
61.82612542,-116.57938918,170.57031083,-176.63011234,-177.53625109,45.36987243
0.52780320,14.55879856,-2.92388029,1.16911743,1.91543208

>  <Name>
ligand

>  <RI>
0

>  <Rbt.Current_Directory>
/home/itssahil/PROJECTS/Mol_Feturizer/New_Systems/rnas/1TN2

>  <Rbt.Executable>
rbdock ($Id: //depot/dev/client3/rdock/2013.1/src/exe/rbdock.cxx#4 $)

>  <Rbt.Library>
libRbt.so (2013.1, Build901 2013/11/27)

>  <Rbt.Parameter_File>
/export/apps/rDock/src/rDock_2013.1_src/data/scripts/dock_solv.prm

>  <Rbt.Receptor>
prm/blind_docking_60.prm

>  <SCORE>
-3.31675

>  <SCORE.INTER>
-0.72155

>  <SCORE.INTER.CONST>
1

>  <SCORE.INTER.POLAR>
0

>  <SCORE.INTER.ROT>
11

>  <SCORE.INTER.SOLV>
7.04349

>  <SCORE.INTER.VDW>
-13.7622

>  <SCORE.INTER.norm>
-0.0515393

>  <SCORE.INTRA>
-2.5952

>  <SCORE.INTRA.DIHEDRAL>
-5.13815

>  <SCORE.INTRA.DIHEDRAL.0>
7.79482

>  <SCORE.INTRA.POLAR>
0

>  <SCORE.INTRA.POLAR.0>
0

>  <SCORE.INTRA.REPUL>
0

>  <SCORE.INTRA.REPUL.0>
0

>  <SCORE.INTRA.SOLV>
0.676012

>  <SCORE.INTRA.SOLV.lig_0>
-49.456

>  <SCORE.INTRA.VDW>
-0.364129

>  <SCORE.INTRA.VDW.0>
-0.478406

>  <SCORE.INTRA.norm>
-0.185371

>  <SCORE.RESTR>
0

>  <SCORE.RESTR.CAVITY>
0

>  <SCORE.RESTR.norm>
0

>  <SCORE.SYSTEM>
0

>  <SCORE.SYSTEM.CONST>
0

>  <SCORE.SYSTEM.DIHEDRAL>
0

>  <SCORE.SYSTEM.SOLV>
0

>  <SCORE.SYSTEM.norm>
0

>  <SCORE.heavy>
14

>  <SCORE.norm>
-0.23691

>  <RMSD>
7.337

$$$$
ligand
 OpenBabel11021811413D
libRbt.so/2013.1/901 2013/11/27
 14 13  0  0  0  0  0  0  0  0999 V2000
   50.4213    9.2453   16.4999 N   0  0  0  0  0  0  0  0  0  0  0  0
   49.2697    9.7351   17.2879 C   0  0  0  0  0  0  0  0  0  0  0  0
   48.1787   10.3296   16.3712 C   0  0  0  0  0  0  0  0  0  0  0  0
   46.9566   10.8942   17.1140 C   0  0  0  0  0  0  0  0  0  0  0  0
   45.9293   11.3867   16.1556 N   0  0  0  0  0  0  0  0  0  0  0  0
   44.7710   11.9551   16.8918 C   0  0  0  0  0  0  0  0  0  0  0  0
   43.3685   11.7097   16.2401 C   0  0  0  0  0  0  0  0  0  0  0  0
   42.1801   12.3080   17.0465 C   0  0  0  0  0  0  0  0  0  0  0  0
   42.0285   11.7297   18.4399 C   0  0  0  0  0  0  0  0  0  0  0  0
   41.7782   10.3077   18.3006 N   0  0  0  0  0  0  0  0  0  0  0  0
   41.0958    9.9027   19.5171 C   0  0  0  0  0  0  0  0  0  0  0  0
   41.0019    8.3852   19.6251 C   0  0  0  0  0  0  0  0  0  0  0  0
   40.1456    8.0591   20.8582 C   0  0  0  0  0  0  0  0  0  0  0  0
   39.9387    6.6126   21.0241 N   0  0  0  0  0  0  0  0  0  0  0  0
  1  2  1  0  0  0  0
  2  3  1  0  0  0  0
  3  4  1  0  0  0  0
  4  5  1  0  0  0  0
  5  6  1  0  0  0  0
  6  7  1  0  0  0  0
  7  8  1  0  0  0  0
  8  9  1  0  0  0  0
  9 10  1  0  0  0  0
 10 11  1  0  0  0  0
 11 12  1  0  0  0  0
 12 13  1  0  0  0  0
 13 14  1  0  0  0  0
M  END
>  <CHROM.1>
-178.61530910,-177.31558937,-178.74505401,-144.01655457,179.45631872,-61.43638993
-61.32919327,-156.41872429,-169.32162903,-174.29281823,177.43953288,44.07582261
10.18321013,17.95513460,-0.36772440,-0.23910492,2.56203325

>  <Name>
ligand

>  <RI>
0

>  <Rbt.Current_Directory>
/home/itssahil/PROJECTS/Mol_Feturizer/New_Systems/rnas/1TN2

>  <Rbt.Executable>
rbdock ($Id: //depot/dev/client3/rdock/2013.1/src/exe/rbdock.cxx#4 $)

>  <Rbt.Library>
libRbt.so (2013.1, Build901 2013/11/27)

>  <Rbt.Parameter_File>
/export/apps/rDock/src/rDock_2013.1_src/data/scripts/dock_solv.prm

>  <Rbt.Receptor>
prm/pocket_docking_8.prm

>  <SCORE>
-8.85571

>  <SCORE.INTER>
-5.69115

>  <SCORE.INTER.CONST>
1

>  <SCORE.INTER.POLAR>
0

>  <SCORE.INTER.ROT>
11

>  <SCORE.INTER.SOLV>
8.99046

>  <SCORE.INTER.VDW>
-17.7243

>  <SCORE.INTER.norm>
-0.406511

>  <SCORE.INTRA>
-3.16456

>  <SCORE.INTRA.DIHEDRAL>
-6.31711

>  <SCORE.INTRA.DIHEDRAL.0>
7.79482

>  <SCORE.INTRA.POLAR>
0

>  <SCORE.INTRA.POLAR.0>
0

>  <SCORE.INTRA.REPUL>
0

>  <SCORE.INTRA.REPUL.0>
0

>  <SCORE.INTRA.SOLV>
0.664716

>  <SCORE.INTRA.SOLV.lig_0>
-49.456

>  <SCORE.INTRA.VDW>
-0.338359

>  <SCORE.INTRA.VDW.0>
-0.478406

>  <SCORE.INTRA.norm>
-0.22604

>  <SCORE.RESTR>
0

>  <SCORE.RESTR.CAVITY>
0

>  <SCORE.RESTR.norm>
0

>  <SCORE.SYSTEM>
0

>  <SCORE.SYSTEM.CONST>
0

>  <SCORE.SYSTEM.DIHEDRAL>
0

>  <SCORE.SYSTEM.SOLV>
0

>  <SCORE.SYSTEM.norm>
0

>  <SCORE.heavy>
14

>  <SCORE.norm>
-0.632551

>  <RMSD>
7.383

$$$$
ligand
 OpenBabel11021811413D
libRbt.so/2013.1/901 2013/11/27
 14 13  0  0  0  0  0  0  0  0999 V2000
   43.1479   -3.2088    9.8618 N   0  0  0  0  0  0  0  0  0  0  0  0
   43.9890   -3.0886   11.0723 C   0  0  0  0  0  0  0  0  0  0  0  0
   43.1860   -3.4308   12.3459 C   0  0  0  0  0  0  0  0  0  0  0  0
   43.9815   -3.3088   13.6560 C   0  0  0  0  0  0  0  0  0  0  0  0
   44.3803   -1.8970   13.9095 N   0  0  0  0  0  0  0  0  0  0  0  0
   45.2336   -1.8146   15.1227 C   0  0  0  0  0  0  0  0  0  0  0  0
   46.0068   -0.4666   15.3158 C   0  0  0  0  0  0  0  0  0  0  0  0
   45.0853    0.7759   15.4819 C   0  0  0  0  0  0  0  0  0  0  0  0
   44.3122    0.7989   16.7860 C   0  0  0  0  0  0  0  0  0  0  0  0
   45.2757    0.8937   17.8664 N   0  0  0  0  0  0  0  0  0  0  0  0
   45.0151    2.1635   18.5218 C   0  0  0  0  0  0  0  0  0  0  0  0
   46.3036    2.9411   18.7635 C   0  0  0  0  0  0  0  0  0  0  0  0
   45.9148    4.3415   19.2610 C   0  0  0  0  0  0  0  0  0  0  0  0
   45.1812    4.2947   20.5347 N   0  0  0  0  0  0  0  0  0  0  0  0
  1  2  1  0  0  0  0
  2  3  1  0  0  0  0
  3  4  1  0  0  0  0
  4  5  1  0  0  0  0
  5  6  1  0  0  0  0
  6  7  1  0  0  0  0
  7  8  1  0  0  0  0
  8  9  1  0  0  0  0
  9 10  1  0  0  0  0
 10 11  1  0  0  0  0
 11 12  1  0  0  0  0
 12 13  1  0  0  0  0
 13 14  1  0  0  0  0
M  END
>  <CHROM.1>
-179.06329931,65.02072991,-175.72513467,165.75645583,62.10878044,69.04867076
63.79352412,116.56210049,-133.19151649,171.71292402,61.95599292,44.78676185
-0.07188397,15.60711317,2.35284457,1.30684162,-3.04894273

>  <Name>
ligand

>  <RI>
0

>  <Rbt.Current_Directory>
/home/itssahil/PROJECTS/Mol_Feturizer/New_Systems/rnas/1TN2

>  <Rbt.Executable>
rbdock ($Id: //depot/dev/client3/rdock/2013.1/src/exe/rbdock.cxx#4 $)

>  <Rbt.Library>
libRbt.so (2013.1, Build901 2013/11/27)

>  <Rbt.Parameter_File>
/export/apps/rDock/src/rDock_2013.1_src/data/scripts/dock_solv.prm

>  <Rbt.Receptor>
prm/blind_docking_80.prm

>  <SCORE>
-4.78562

>  <SCORE.INTER>
-3.27865

>  <SCORE.INTER.CONST>
1

>  <SCORE.INTER.POLAR>
0

>  <SCORE.INTER.ROT>
11

>  <SCORE.INTER.SOLV>
12.9898

>  <SCORE.INTER.VDW>
-17.449

>  <SCORE.INTER.norm>
-0.23419

>  <SCORE.INTRA>
-1.50697

>  <SCORE.INTRA.DIHEDRAL>
-4.59128

>  <SCORE.INTRA.DIHEDRAL.0>
7.79482

>  <SCORE.INTRA.POLAR>
0

>  <SCORE.INTRA.POLAR.0>
0

>  <SCORE.INTRA.REPUL>
0

>  <SCORE.INTRA.REPUL.0>
0

>  <SCORE.INTRA.SOLV>
2.22409

>  <SCORE.INTRA.SOLV.lig_0>
-49.456

>  <SCORE.INTRA.VDW>
-0.32337

>  <SCORE.INTRA.VDW.0>
-0.478406

>  <SCORE.INTRA.norm>
-0.10764

>  <SCORE.RESTR>
0

>  <SCORE.RESTR.CAVITY>
0

>  <SCORE.RESTR.norm>
0

>  <SCORE.SYSTEM>
0

>  <SCORE.SYSTEM.CONST>
0

>  <SCORE.SYSTEM.DIHEDRAL>
0

>  <SCORE.SYSTEM.SOLV>
0

>  <SCORE.SYSTEM.norm>
0

>  <SCORE.heavy>
14

>  <SCORE.norm>
-0.34183

>  <RMSD>
7.634

$$$$
ligand
 OpenBabel11021811413D
libRbt.so/2013.1/901 2013/11/27
 14 13  0  0  0  0  0  0  0  0999 V2000
   44.8482   -5.6684   11.5144 N   0  0  0  0  0  0  0  0  0  0  0  0
   44.9378   -4.1967   11.6292 C   0  0  0  0  0  0  0  0  0  0  0  0
   44.6019   -3.7273   13.0613 C   0  0  0  0  0  0  0  0  0  0  0  0
   44.6413   -2.2032   13.2609 C   0  0  0  0  0  0  0  0  0  0  0  0
   44.4401   -1.8464   14.6922 N   0  0  0  0  0  0  0  0  0  0  0  0
   45.7056   -1.3317   15.2757 C   0  0  0  0  0  0  0  0  0  0  0  0
   45.6168   -0.8444   16.7612 C   0  0  0  0  0  0  0  0  0  0  0  0
   44.6906    0.3878   16.9712 C   0  0  0  0  0  0  0  0  0  0  0  0
   45.1949    1.6565   16.3116 C   0  0  0  0  0  0  0  0  0  0  0  0
   46.4160    2.0485   16.9894 N   0  0  0  0  0  0  0  0  0  0  0  0
   46.9535    3.1628   16.2283 C   0  0  0  0  0  0  0  0  0  0  0  0
   48.2740    2.7968   15.5607 C   0  0  0  0  0  0  0  0  0  0  0  0
   48.7736    4.0387   14.8070 C   0  0  0  0  0  0  0  0  0  0  0  0
   50.0529    3.7963   14.1234 N   0  0  0  0  0  0  0  0  0  0  0  0
  1  2  1  0  0  0  0
  2  3  1  0  0  0  0
  3  4  1  0  0  0  0
  4  5  1  0  0  0  0
  5  6  1  0  0  0  0
  6  7  1  0  0  0  0
  7  8  1  0  0  0  0
  8  9  1  0  0  0  0
  9 10  1  0  0  0  0
 10 11  1  0  0  0  0
 11 12  1  0  0  0  0
 12 13  1  0  0  0  0
 13 14  1  0  0  0  0
M  END
>  <CHROM.1>
-178.72035286,-174.35993561,109.48500831,176.83361205,-64.36688774,-66.17907123
-66.52173277,173.10936450,-113.67653870,-178.93660947,179.86236798,46.08179733
-0.13777597,14.79921070,-2.12456926,0.75137403,0.79555415

>  <Name>
ligand

>  <RI>
0

>  <Rbt.Current_Directory>
/home/itssahil/PROJECTS/Mol_Feturizer/New_Systems/rnas/1TN2

>  <Rbt.Executable>
rbdock ($Id: //depot/dev/client3/rdock/2013.1/src/exe/rbdock.cxx#4 $)

>  <Rbt.Library>
libRbt.so (2013.1, Build901 2013/11/27)

>  <Rbt.Parameter_File>
/export/apps/rDock/src/rDock_2013.1_src/data/scripts/dock_solv.prm

>  <Rbt.Receptor>
prm/blind_docking_100.prm

>  <SCORE>
-2.69672

>  <SCORE.INTER>
-0.222756

>  <SCORE.INTER.CONST>
1

>  <SCORE.INTER.POLAR>
0

>  <SCORE.INTER.ROT>
11

>  <SCORE.INTER.SOLV>
8.51313

>  <SCORE.INTER.VDW>
-13.9195

>  <SCORE.INTER.norm>
-0.0159111

>  <SCORE.INTRA>
-2.47397

>  <SCORE.INTRA.DIHEDRAL>
-4.94924

>  <SCORE.INTRA.DIHEDRAL.0>
7.79482

>  <SCORE.INTRA.POLAR>
0

>  <SCORE.INTRA.POLAR.0>
0

>  <SCORE.INTRA.REPUL>
0

>  <SCORE.INTRA.REPUL.0>
0

>  <SCORE.INTRA.SOLV>
1.09752

>  <SCORE.INTRA.SOLV.lig_0>
-49.456

>  <SCORE.INTRA.VDW>
-0.548105

>  <SCORE.INTRA.VDW.0>
-0.478406

>  <SCORE.INTRA.norm>
-0.176712

>  <SCORE.RESTR>
0

>  <SCORE.RESTR.CAVITY>
0

>  <SCORE.RESTR.norm>
0

>  <SCORE.SYSTEM>
0

>  <SCORE.SYSTEM.CONST>
0

>  <SCORE.SYSTEM.DIHEDRAL>
0

>  <SCORE.SYSTEM.SOLV>
0

>  <SCORE.SYSTEM.norm>
0

>  <SCORE.heavy>
14

>  <SCORE.norm>
-0.192623

>  <RMSD>
7.746

$$$$
ligand
 OpenBabel11021811413D
libRbt.so/2013.1/901 2013/11/27
 14 13  0  0  0  0  0  0  0  0999 V2000
   44.9093   -5.6793   11.3020 N   0  0  0  0  0  0  0  0  0  0  0  0
   45.3419   -4.6259   12.2456 C   0  0  0  0  0  0  0  0  0  0  0  0
   46.5403   -3.8310   11.6835 C   0  0  0  0  0  0  0  0  0  0  0  0
   47.0795   -2.7381   12.6209 C   0  0  0  0  0  0  0  0  0  0  0  0
   46.0616   -1.6747   12.8433 N   0  0  0  0  0  0  0  0  0  0  0  0
   46.2284   -1.0786   14.1937 C   0  0  0  0  0  0  0  0  0  0  0  0
   45.4170   -1.7673   15.3423 C   0  0  0  0  0  0  0  0  0  0  0  0
   45.6957   -1.1814   16.7563 C   0  0  0  0  0  0  0  0  0  0  0  0
   45.1138    0.2015   16.9753 C   0  0  0  0  0  0  0  0  0  0  0  0
   45.8328    1.1220   16.1151 N   0  0  0  0  0  0  0  0  0  0  0  0
   45.5874    2.4471   16.6568 C   0  0  0  0  0  0  0  0  0  0  0  0
   45.9283    3.5351   15.6452 C   0  0  0  0  0  0  0  0  0  0  0  0
   47.4325    3.4389   15.3485 C   0  0  0  0  0  0  0  0  0  0  0  0
   47.8654    4.4251   14.3471 N   0  0  0  0  0  0  0  0  0  0  0  0
  1  2  1  0  0  0  0
  2  3  1  0  0  0  0
  3  4  1  0  0  0  0
  4  5  1  0  0  0  0
  5  6  1  0  0  0  0
  6  7  1  0  0  0  0
  7  8  1  0  0  0  0
  8  9  1  0  0  0  0
  9 10  1  0  0  0  0
 10 11  1  0  0  0  0
 11 12  1  0  0  0  0
 12 13  1  0  0  0  0
 13 14  1  0  0  0  0
M  END
>  <CHROM.1>
-178.40030177,-64.40113309,149.52257176,-90.02766325,175.81670394,71.69699139
-67.44053243,-161.22998744,-163.26352040,-62.81386729,178.31974813,46.07381633
-0.52907781,14.43428457,-1.76499463,1.06166329,0.63993525

>  <Name>
ligand

>  <RI>
0

>  <Rbt.Current_Directory>
/home/itssahil/PROJECTS/Mol_Feturizer/New_Systems/rnas/1TN2

>  <Rbt.Executable>
rbdock ($Id: //depot/dev/client3/rdock/2013.1/src/exe/rbdock.cxx#4 $)

>  <Rbt.Library>
libRbt.so (2013.1, Build901 2013/11/27)

>  <Rbt.Parameter_File>
/export/apps/rDock/src/rDock_2013.1_src/data/scripts/dock_solv.prm

>  <Rbt.Receptor>
prm/blind_docking_60.prm

>  <SCORE>
-1.14617

>  <SCORE.INTER>
0.940997

>  <SCORE.INTER.CONST>
1

>  <SCORE.INTER.POLAR>
0

>  <SCORE.INTER.ROT>
11

>  <SCORE.INTER.SOLV>
5.71013

>  <SCORE.INTER.VDW>
-12.2094

>  <SCORE.INTER.norm>
0.0672141

>  <SCORE.INTRA>
-2.08717

>  <SCORE.INTRA.DIHEDRAL>
-5.1436

>  <SCORE.INTRA.DIHEDRAL.0>
7.79482

>  <SCORE.INTRA.POLAR>
0

>  <SCORE.INTRA.POLAR.0>
0

>  <SCORE.INTRA.REPUL>
0

>  <SCORE.INTRA.REPUL.0>
0

>  <SCORE.INTRA.SOLV>
1.68981

>  <SCORE.INTRA.SOLV.lig_0>
-49.456

>  <SCORE.INTRA.VDW>
-0.360267

>  <SCORE.INTRA.VDW.0>
-0.478406

>  <SCORE.INTRA.norm>
-0.149083

>  <SCORE.RESTR>
0

>  <SCORE.RESTR.CAVITY>
0

>  <SCORE.RESTR.norm>
0

>  <SCORE.SYSTEM>
0

>  <SCORE.SYSTEM.CONST>
0

>  <SCORE.SYSTEM.DIHEDRAL>
0

>  <SCORE.SYSTEM.SOLV>
0

>  <SCORE.SYSTEM.norm>
0

>  <SCORE.heavy>
14

>  <SCORE.norm>
-0.0818692

>  <RMSD>
8.031

$$$$
ligand
 OpenBabel11021811413D
libRbt.so/2013.1/901 2013/11/27
 14 13  0  0  0  0  0  0  0  0999 V2000
   41.3969   -3.6682    9.9045 N   0  0  0  0  0  0  0  0  0  0  0  0
   42.1659   -2.9849   10.9670 C   0  0  0  0  0  0  0  0  0  0  0  0
   43.5322   -3.6674   11.1938 C   0  0  0  0  0  0  0  0  0  0  0  0
   44.4344   -2.9668   12.2230 C   0  0  0  0  0  0  0  0  0  0  0  0
   43.7845   -2.9237   13.5617 N   0  0  0  0  0  0  0  0  0  0  0  0
   44.6454   -2.1931   14.5270 C   0  0  0  0  0  0  0  0  0  0  0  0
   44.7173   -0.6413   14.3297 C   0  0  0  0  0  0  0  0  0  0  0  0
   44.3812    0.1778   15.6090 C   0  0  0  0  0  0  0  0  0  0  0  0
   45.3581   -0.0332   16.7493 C   0  0  0  0  0  0  0  0  0  0  0  0
   44.9454    0.8227   17.8454 N   0  0  0  0  0  0  0  0  0  0  0  0
   46.1604    1.1593   18.5667 C   0  0  0  0  0  0  0  0  0  0  0  0
   46.5324    2.6255   18.3789 C   0  0  0  0  0  0  0  0  0  0  0  0
   45.4735    3.4701   19.1039 C   0  0  0  0  0  0  0  0  0  0  0  0
   45.7788    4.9077   19.0520 N   0  0  0  0  0  0  0  0  0  0  0  0
  1  2  1  0  0  0  0
  2  3  1  0  0  0  0
  3  4  1  0  0  0  0
  4  5  1  0  0  0  0
  5  6  1  0  0  0  0
  6  7  1  0  0  0  0
  7  8  1  0  0  0  0
  8  9  1  0  0  0  0
  9 10  1  0  0  0  0
 10 11  1  0  0  0  0
 11 12  1  0  0  0  0
 12 13  1  0  0  0  0
 13 14  1  0  0  0  0
M  END
>  <CHROM.1>
176.38459340,60.62467399,-177.59611234,72.53378372,126.67372543,63.76296796
178.04751817,-150.42136869,109.91307851,68.47403916,176.71735400,44.52211770
-0.42261782,15.14373796,2.03032085,0.84974078,-2.62754556

>  <Name>
ligand

>  <RI>
0

>  <Rbt.Current_Directory>
/home/itssahil/PROJECTS/Mol_Feturizer/New_Systems/rnas/1TN2

>  <Rbt.Executable>
rbdock ($Id: //depot/dev/client3/rdock/2013.1/src/exe/rbdock.cxx#4 $)

>  <Rbt.Library>
libRbt.so (2013.1, Build901 2013/11/27)

>  <Rbt.Parameter_File>
/export/apps/rDock/src/rDock_2013.1_src/data/scripts/dock_solv.prm

>  <Rbt.Receptor>
prm/blind_docking_100.prm

>  <SCORE>
-2.67099

>  <SCORE.INTER>
-3.10428

>  <SCORE.INTER.CONST>
1

>  <SCORE.INTER.POLAR>
0

>  <SCORE.INTER.ROT>
11

>  <SCORE.INTER.SOLV>
15.5743

>  <SCORE.INTER.VDW>
-18.1943

>  <SCORE.INTER.norm>
-0.221734

>  <SCORE.INTRA>
0.433283

>  <SCORE.INTRA.DIHEDRAL>
-0.174912

>  <SCORE.INTRA.DIHEDRAL.0>
7.79482

>  <SCORE.INTRA.POLAR>
0

>  <SCORE.INTRA.POLAR.0>
0

>  <SCORE.INTRA.REPUL>
0

>  <SCORE.INTRA.REPUL.0>
0

>  <SCORE.INTRA.SOLV>
0.844329

>  <SCORE.INTRA.SOLV.lig_0>
-49.456

>  <SCORE.INTRA.VDW>
0.0985741

>  <SCORE.INTRA.VDW.0>
-0.478406

>  <SCORE.INTRA.norm>
0.0309488

>  <SCORE.RESTR>
0

>  <SCORE.RESTR.CAVITY>
0

>  <SCORE.RESTR.norm>
0

>  <SCORE.SYSTEM>
0

>  <SCORE.SYSTEM.CONST>
0

>  <SCORE.SYSTEM.DIHEDRAL>
0

>  <SCORE.SYSTEM.SOLV>
0

>  <SCORE.SYSTEM.norm>
0

>  <SCORE.heavy>
14

>  <SCORE.norm>
-0.190785

>  <RMSD>
8.213

$$$$
ligand
 OpenBabel11021811413D
libRbt.so/2013.1/901 2013/11/27
 14 13  0  0  0  0  0  0  0  0999 V2000
   41.1969   -3.8599    9.6822 N   0  0  0  0  0  0  0  0  0  0  0  0
   42.6294   -3.5932    9.4295 C   0  0  0  0  0  0  0  0  0  0  0  0
   43.0796   -2.2787   10.1028 C   0  0  0  0  0  0  0  0  0  0  0  0
   43.0031   -2.2876   11.6384 C   0  0  0  0  0  0  0  0  0  0  0  0
   43.9339   -3.2969   12.2141 N   0  0  0  0  0  0  0  0  0  0  0  0
   43.7695   -3.3645   13.6889 C   0  0  0  0  0  0  0  0  0  0  0  0
   44.7005   -2.4166   14.5177 C   0  0  0  0  0  0  0  0  0  0  0  0
   44.4399   -0.9017   14.2779 C   0  0  0  0  0  0  0  0  0  0  0  0
   45.2937    0.0129   15.1343 C   0  0  0  0  0  0  0  0  0  0  0  0
   44.9169    1.3798   14.8280 N   0  0  0  0  0  0  0  0  0  0  0  0
   46.0257    2.2070   15.2708 C   0  0  0  0  0  0  0  0  0  0  0  0
   46.3083    3.3350   14.2854 C   0  0  0  0  0  0  0  0  0  0  0  0
   47.5514    4.0872   14.7841 C   0  0  0  0  0  0  0  0  0  0  0  0
   47.9147    5.2063   13.9018 N   0  0  0  0  0  0  0  0  0  0  0  0
  1  2  1  0  0  0  0
  2  3  1  0  0  0  0
  3  4  1  0  0  0  0
  4  5  1  0  0  0  0
  5  6  1  0  0  0  0
  6  7  1  0  0  0  0
  7  8  1  0  0  0  0
  8  9  1  0  0  0  0
  9 10  1  0  0  0  0
 10 11  1  0  0  0  0
 11 12  1  0  0  0  0
 12 13  1  0  0  0  0
 13 14  1  0  0  0  0
M  END
>  <CHROM.1>
64.09991449,63.72972529,-175.61983472,-91.12599595,64.43352390,177.02497436
-178.51680825,-160.24603642,139.97784302,-175.98585425,-179.89723744,44.62602290
-0.41231340,13.12562105,3.07805768,1.08147167,2.15277332

>  <Name>
ligand

>  <RI>
0

>  <Rbt.Current_Directory>
/home/itssahil/PROJECTS/Mol_Feturizer/New_Systems/rnas/1TN2

>  <Rbt.Executable>
rbdock ($Id: //depot/dev/client3/rdock/2013.1/src/exe/rbdock.cxx#4 $)

>  <Rbt.Library>
libRbt.so (2013.1, Build901 2013/11/27)

>  <Rbt.Parameter_File>
/export/apps/rDock/src/rDock_2013.1_src/data/scripts/dock_solv.prm

>  <Rbt.Receptor>
prm/blind_docking_100.prm

>  <SCORE>
-2.11956

>  <SCORE.INTER>
0.426526

>  <SCORE.INTER.CONST>
1

>  <SCORE.INTER.POLAR>
0

>  <SCORE.INTER.ROT>
11

>  <SCORE.INTER.SOLV>
7.36561

>  <SCORE.INTER.VDW>
-13.1042

>  <SCORE.INTER.norm>
0.0304661

>  <SCORE.INTRA>
-2.54609

>  <SCORE.INTRA.DIHEDRAL>
-5.65383

>  <SCORE.INTRA.DIHEDRAL.0>
7.79482

>  <SCORE.INTRA.POLAR>
0

>  <SCORE.INTRA.POLAR.0>
0

>  <SCORE.INTRA.REPUL>
0

>  <SCORE.INTRA.REPUL.0>
0

>  <SCORE.INTRA.SOLV>
1.89861

>  <SCORE.INTRA.SOLV.lig_0>
-49.456

>  <SCORE.INTRA.VDW>
-0.668481

>  <SCORE.INTRA.VDW.0>
-0.478406

>  <SCORE.INTRA.norm>
-0.181863

>  <SCORE.RESTR>
0

>  <SCORE.RESTR.CAVITY>
0

>  <SCORE.RESTR.norm>
0

>  <SCORE.SYSTEM>
0

>  <SCORE.SYSTEM.CONST>
0

>  <SCORE.SYSTEM.DIHEDRAL>
0

>  <SCORE.SYSTEM.SOLV>
0

>  <SCORE.SYSTEM.norm>
0

>  <SCORE.heavy>
14

>  <SCORE.norm>
-0.151397

>  <RMSD>
8.908

$$$$
ligand
 OpenBabel11021811413D
libRbt.so/2013.1/901 2013/11/27
 14 13  0  0  0  0  0  0  0  0999 V2000
   43.2152   -6.8034    8.4134 N   0  0  0  0  0  0  0  0  0  0  0  0
   43.9976   -6.1363    9.4763 C   0  0  0  0  0  0  0  0  0  0  0  0
   43.2026   -4.9731   10.1079 C   0  0  0  0  0  0  0  0  0  0  0  0
   43.9506   -4.2144   11.2164 C   0  0  0  0  0  0  0  0  0  0  0  0
   43.0983   -3.1411   11.7980 N   0  0  0  0  0  0  0  0  0  0  0  0
   43.9209   -2.2281   12.6327 C   0  0  0  0  0  0  0  0  0  0  0  0
   44.2181   -2.7250   14.0877 C   0  0  0  0  0  0  0  0  0  0  0  0
   45.1394   -1.7762   14.9070 C   0  0  0  0  0  0  0  0  0  0  0  0
   44.5621   -0.3904   15.1201 C   0  0  0  0  0  0  0  0  0  0  0  0
   45.5118    0.3635   15.9163 N   0  0  0  0  0  0  0  0  0  0  0  0
   45.0253    0.2985   17.2833 C   0  0  0  0  0  0  0  0  0  0  0  0
   45.8368    1.1989   18.2075 C   0  0  0  0  0  0  0  0  0  0  0  0
   45.5355    2.6546   17.8202 C   0  0  0  0  0  0  0  0  0  0  0  0
   46.2540    3.6157   18.6704 N   0  0  0  0  0  0  0  0  0  0  0  0
  1  2  1  0  0  0  0
  2  3  1  0  0  0  0
  3  4  1  0  0  0  0
  4  5  1  0  0  0  0
  5  6  1  0  0  0  0
  6  7  1  0  0  0  0
  7  8  1  0  0  0  0
  8  9  1  0  0  0  0
  9 10  1  0  0  0  0
 10 11  1  0  0  0  0
 11 12  1  0  0  0  0
 12 13  1  0  0  0  0
 13 14  1  0  0  0  0
M  END
>  <CHROM.1>
-179.44346876,-178.19647651,-167.08773130,-81.59386913,177.14489705,61.55193633
178.81526852,-98.52356174,-172.85752209,68.53087765,179.01313143,44.53345475
-1.73272072,13.97561500,-2.03545799,-1.10890307,0.40075664

>  <Name>
ligand

>  <RI>
0

>  <Rbt.Current_Directory>
/home/itssahil/PROJECTS/Mol_Feturizer/New_Systems/rnas/1TN2

>  <Rbt.Executable>
rbdock ($Id: //depot/dev/client3/rdock/2013.1/src/exe/rbdock.cxx#4 $)

>  <Rbt.Library>
libRbt.so (2013.1, Build901 2013/11/27)

>  <Rbt.Parameter_File>
/export/apps/rDock/src/rDock_2013.1_src/data/scripts/dock_solv.prm

>  <Rbt.Receptor>
prm/blind_docking_100.prm

>  <SCORE>
-2.86071

>  <SCORE.INTER>
-0.344948

>  <SCORE.INTER.CONST>
1

>  <SCORE.INTER.POLAR>
0

>  <SCORE.INTER.ROT>
11

>  <SCORE.INTER.SOLV>
11.9975

>  <SCORE.INTER.VDW>
-15.1625

>  <SCORE.INTER.norm>
-0.0246392

>  <SCORE.INTRA>
-2.51577

>  <SCORE.INTRA.DIHEDRAL>
-6.0839

>  <SCORE.INTRA.DIHEDRAL.0>
7.79482

>  <SCORE.INTRA.POLAR>
0

>  <SCORE.INTRA.POLAR.0>
0

>  <SCORE.INTRA.REPUL>
0

>  <SCORE.INTRA.REPUL.0>
0

>  <SCORE.INTRA.SOLV>
0.469235

>  <SCORE.INTRA.SOLV.lig_0>
-49.456

>  <SCORE.INTRA.VDW>
0.291567

>  <SCORE.INTRA.VDW.0>
-0.478406

>  <SCORE.INTRA.norm>
-0.179698

>  <SCORE.RESTR>
0

>  <SCORE.RESTR.CAVITY>
0

>  <SCORE.RESTR.norm>
0

>  <SCORE.SYSTEM>
0

>  <SCORE.SYSTEM.CONST>
0

>  <SCORE.SYSTEM.DIHEDRAL>
0

>  <SCORE.SYSTEM.SOLV>
0

>  <SCORE.SYSTEM.norm>
0

>  <SCORE.heavy>
14

>  <SCORE.norm>
-0.204337

>  <RMSD>
9.616

$$$$
ligand
 OpenBabel11021811413D
libRbt.so/2013.1/901 2013/11/27
 14 13  0  0  0  0  0  0  0  0999 V2000
   40.4017   -4.3936    9.3729 N   0  0  0  0  0  0  0  0  0  0  0  0
   41.1683   -3.9762   10.5667 C   0  0  0  0  0  0  0  0  0  0  0  0
   42.1055   -2.7927   10.2425 C   0  0  0  0  0  0  0  0  0  0  0  0
   42.9528   -2.3040   11.4288 C   0  0  0  0  0  0  0  0  0  0  0  0
   44.0091   -3.2943   11.7750 N   0  0  0  0  0  0  0  0  0  0  0  0
   43.8176   -3.7847   13.1640 C   0  0  0  0  0  0  0  0  0  0  0  0
   44.1322   -2.7499   14.2965 C   0  0  0  0  0  0  0  0  0  0  0  0
   45.5059   -2.0363   14.1410 C   0  0  0  0  0  0  0  0  0  0  0  0
   46.0001   -1.3695   15.4098 C   0  0  0  0  0  0  0  0  0  0  0  0
   45.0510   -0.3292   15.7579 N   0  0  0  0  0  0  0  0  0  0  0  0
   45.2867   -0.0279   17.1591 C   0  0  0  0  0  0  0  0  0  0  0  0
   44.5400    1.2281   17.5928 C   0  0  0  0  0  0  0  0  0  0  0  0
   45.2656    2.4353   16.9795 C   0  0  0  0  0  0  0  0  0  0  0  0
   45.2061    2.4314   15.5101 N   0  0  0  0  0  0  0  0  0  0  0  0
  1  2  1  0  0  0  0
  2  3  1  0  0  0  0
  3  4  1  0  0  0  0
  4  5  1  0  0  0  0
  5  6  1  0  0  0  0
  6  7  1  0  0  0  0
  7  8  1  0  0  0  0
  8  9  1  0  0  0  0
  9 10  1  0  0  0  0
 10 11  1  0  0  0  0
 11 12  1  0  0  0  0
 12 13  1  0  0  0  0
 13 14  1  0  0  0  0
M  END
>  <CHROM.1>
-179.39867277,70.91975360,-118.75786426,-70.80506454,-49.45916687,-162.47657513
-62.97884884,161.35131170,169.31986885,-73.21527082,64.43002095,43.96030314
-1.49744284,13.81434237,2.19748171,0.81595752,-2.72027148

>  <Name>
ligand

>  <RI>
0

>  <Rbt.Current_Directory>
/home/itssahil/PROJECTS/Mol_Feturizer/New_Systems/rnas/1TN2

>  <Rbt.Executable>
rbdock ($Id: //depot/dev/client3/rdock/2013.1/src/exe/rbdock.cxx#4 $)

>  <Rbt.Library>
libRbt.so (2013.1, Build901 2013/11/27)

>  <Rbt.Parameter_File>
/export/apps/rDock/src/rDock_2013.1_src/data/scripts/dock_solv.prm

>  <Rbt.Receptor>
prm/blind_docking_60.prm

>  <SCORE>
-3.92481

>  <SCORE.INTER>
-4.10482

>  <SCORE.INTER.CONST>
1

>  <SCORE.INTER.POLAR>
0

>  <SCORE.INTER.ROT>
11

>  <SCORE.INTER.SOLV>
11.0227

>  <SCORE.INTER.VDW>
-17.3441

>  <SCORE.INTER.norm>
-0.293202

>  <SCORE.INTRA>
0.180011

>  <SCORE.INTRA.DIHEDRAL>
-3.35466

>  <SCORE.INTRA.DIHEDRAL.0>
7.79482

>  <SCORE.INTRA.POLAR>
0

>  <SCORE.INTRA.POLAR.0>
0

>  <SCORE.INTRA.REPUL>
0

>  <SCORE.INTRA.REPUL.0>
0

>  <SCORE.INTRA.SOLV>
4.19798

>  <SCORE.INTRA.SOLV.lig_0>
-49.456

>  <SCORE.INTRA.VDW>
-0.241646

>  <SCORE.INTRA.VDW.0>
-0.478406

>  <SCORE.INTRA.norm>
0.012858

>  <SCORE.RESTR>
0

>  <SCORE.RESTR.CAVITY>
0

>  <SCORE.RESTR.norm>
0

>  <SCORE.SYSTEM>
0

>  <SCORE.SYSTEM.CONST>
0

>  <SCORE.SYSTEM.DIHEDRAL>
0

>  <SCORE.SYSTEM.SOLV>
0

>  <SCORE.SYSTEM.norm>
0

>  <SCORE.heavy>
14

>  <SCORE.norm>
-0.280344

>  <RMSD>
9.639

$$$$
ligand
 OpenBabel11021811413D
libRbt.so/2013.1/901 2013/11/27
 14 13  0  0  0  0  0  0  0  0999 V2000
   39.8001   -4.3032    7.8189 N   0  0  0  0  0  0  0  0  0  0  0  0
   40.5221   -3.5185    8.8436 C   0  0  0  0  0  0  0  0  0  0  0  0
   40.5755   -4.2734   10.1894 C   0  0  0  0  0  0  0  0  0  0  0  0
   41.2759   -3.5088   11.3247 C   0  0  0  0  0  0  0  0  0  0  0  0
   42.7194   -3.3067   11.0217 N   0  0  0  0  0  0  0  0  0  0  0  0
   43.2152   -2.0731   11.6845 C   0  0  0  0  0  0  0  0  0  0  0  0
   44.0959   -2.2973   12.9598 C   0  0  0  0  0  0  0  0  0  0  0  0
   44.5050   -0.9847   13.6879 C   0  0  0  0  0  0  0  0  0  0  0  0
   45.3185   -1.2076   14.9477 C   0  0  0  0  0  0  0  0  0  0  0  0
   45.4809    0.0784   15.5991 N   0  0  0  0  0  0  0  0  0  0  0  0
   45.2603   -0.1617   17.0145 C   0  0  0  0  0  0  0  0  0  0  0  0
   44.9944    1.1375   17.7658 C   0  0  0  0  0  0  0  0  0  0  0  0
   46.3147    1.9209   17.8213 C   0  0  0  0  0  0  0  0  0  0  0  0
   46.7030    2.4489   16.5048 N   0  0  0  0  0  0  0  0  0  0  0  0
  1  2  1  0  0  0  0
  2  3  1  0  0  0  0
  3  4  1  0  0  0  0
  4  5  1  0  0  0  0
  5  6  1  0  0  0  0
  6  7  1  0  0  0  0
  7  8  1  0  0  0  0
  8  9  1  0  0  0  0
  9 10  1  0  0  0  0
 10 11  1  0  0  0  0
 11 12  1  0  0  0  0
 12 13  1  0  0  0  0
 13 14  1  0  0  0  0
M  END
>  <CHROM.1>
-178.34306222,-64.93401439,151.58963492,104.42230995,-175.54587673,178.06987198
-173.03843612,136.93034819,-163.27554310,-70.89406638,70.43530941,43.62718619
-1.43214400,13.37051616,-2.39957512,0.84189152,1.66656443

>  <Name>
ligand

>  <RI>
0

>  <Rbt.Current_Directory>
/home/itssahil/PROJECTS/Mol_Feturizer/New_Systems/rnas/1TN2

>  <Rbt.Executable>
rbdock ($Id: //depot/dev/client3/rdock/2013.1/src/exe/rbdock.cxx#4 $)

>  <Rbt.Library>
libRbt.so (2013.1, Build901 2013/11/27)

>  <Rbt.Parameter_File>
/export/apps/rDock/src/rDock_2013.1_src/data/scripts/dock_solv.prm

>  <Rbt.Receptor>
prm/blind_docking_80.prm

>  <SCORE>
-5.08046

>  <SCORE.INTER>
-4.09772

>  <SCORE.INTER.CONST>
1

>  <SCORE.INTER.POLAR>
0

>  <SCORE.INTER.ROT>
11

>  <SCORE.INTER.SOLV>
9.30423

>  <SCORE.INTER.VDW>
-16.7666

>  <SCORE.INTER.norm>
-0.292695

>  <SCORE.INTRA>
-0.982735

>  <SCORE.INTRA.DIHEDRAL>
-3.826

>  <SCORE.INTRA.DIHEDRAL.0>
7.79482

>  <SCORE.INTRA.POLAR>
0

>  <SCORE.INTRA.POLAR.0>
0

>  <SCORE.INTRA.REPUL>
0

>  <SCORE.INTRA.REPUL.0>
0

>  <SCORE.INTRA.SOLV>
3.17466

>  <SCORE.INTRA.SOLV.lig_0>
-49.456

>  <SCORE.INTRA.VDW>
-0.657061

>  <SCORE.INTRA.VDW.0>
-0.478406

>  <SCORE.INTRA.norm>
-0.0701953

>  <SCORE.RESTR>
0

>  <SCORE.RESTR.CAVITY>
0

>  <SCORE.RESTR.norm>
0

>  <SCORE.SYSTEM>
0

>  <SCORE.SYSTEM.CONST>
0

>  <SCORE.SYSTEM.DIHEDRAL>
0

>  <SCORE.SYSTEM.SOLV>
0

>  <SCORE.SYSTEM.norm>
0

>  <SCORE.heavy>
14

>  <SCORE.norm>
-0.36289

>  <RMSD>
10.122

$$$$
ligand
 OpenBabel11021811413D
libRbt.so/2013.1/901 2013/11/27
 14 13  0  0  0  0  0  0  0  0999 V2000
   51.0344   -0.3976   10.7887 N   0  0  0  0  0  0  0  0  0  0  0  0
   49.6144   -0.0102   10.6453 C   0  0  0  0  0  0  0  0  0  0  0  0
   48.8988    0.0032   12.0134 C   0  0  0  0  0  0  0  0  0  0  0  0
   47.3998    0.3389   11.9482 C   0  0  0  0  0  0  0  0  0  0  0  0
   46.7917    0.3351   13.3071 N   0  0  0  0  0  0  0  0  0  0  0  0
   45.3117    0.4163   13.2075 C   0  0  0  0  0  0  0  0  0  0  0  0
   44.5167   -0.2673   14.3705 C   0  0  0  0  0  0  0  0  0  0  0  0
   44.7455   -1.8023   14.4797 C   0  0  0  0  0  0  0  0  0  0  0  0
   44.2088   -2.5900   13.3005 C   0  0  0  0  0  0  0  0  0  0  0  0
   44.5727   -3.9802   13.4986 N   0  0  0  0  0  0  0  0  0  0  0  0
   44.6815   -4.5564   12.1698 C   0  0  0  0  0  0  0  0  0  0  0  0
   46.0265   -5.2450   11.9690 C   0  0  0  0  0  0  0  0  0  0  0  0
   47.1119   -4.1581   11.9840 C   0  0  0  0  0  0  0  0  0  0  0  0
   48.4377   -4.6922   11.6379 N   0  0  0  0  0  0  0  0  0  0  0  0
  1  2  1  0  0  0  0
  2  3  1  0  0  0  0
  3  4  1  0  0  0  0
  4  5  1  0  0  0  0
  5  6  1  0  0  0  0
  6  7  1  0  0  0  0
  7  8  1  0  0  0  0
  8  9  1  0  0  0  0
  9 10  1  0  0  0  0
 10 11  1  0  0  0  0
 11 12  1  0  0  0  0
 12 13  1  0  0  0  0
 13 14  1  0  0  0  0
M  END
>  <CHROM.1>
-177.54525082,-179.78429041,-169.80626550,150.57535705,-62.38699451,-66.19126735
176.20232044,-151.84186158,126.79047052,-66.94546861,-173.16134010,46.66757818
-1.90030731,12.52294995,-0.54109220,-0.48865366,-2.94026673

>  <Name>
ligand

>  <RI>
0

>  <Rbt.Current_Directory>
/home/itssahil/PROJECTS/Mol_Feturizer/New_Systems/rnas/1TN2

>  <Rbt.Executable>
rbdock ($Id: //depot/dev/client3/rdock/2013.1/src/exe/rbdock.cxx#4 $)

>  <Rbt.Library>
libRbt.so (2013.1, Build901 2013/11/27)

>  <Rbt.Parameter_File>
/export/apps/rDock/src/rDock_2013.1_src/data/scripts/dock_solv.prm

>  <Rbt.Receptor>
prm/blind_docking_60.prm

>  <SCORE>
-0.0947072

>  <SCORE.INTER>
2.77887

>  <SCORE.INTER.CONST>
1

>  <SCORE.INTER.POLAR>
0

>  <SCORE.INTER.ROT>
11

>  <SCORE.INTER.SOLV>
11.6291

>  <SCORE.INTER.VDW>
-12.9571

>  <SCORE.INTER.norm>
0.198491

>  <SCORE.INTRA>
-2.87358

>  <SCORE.INTRA.DIHEDRAL>
-4.81094

>  <SCORE.INTRA.DIHEDRAL.0>
7.79482

>  <SCORE.INTRA.POLAR>
0

>  <SCORE.INTRA.POLAR.0>
0

>  <SCORE.INTRA.REPUL>
0

>  <SCORE.INTRA.REPUL.0>
0

>  <SCORE.INTRA.SOLV>
1.01284

>  <SCORE.INTRA.SOLV.lig_0>
-49.456

>  <SCORE.INTRA.VDW>
-0.974526

>  <SCORE.INTRA.VDW.0>
-0.478406

>  <SCORE.INTRA.norm>
-0.205255

>  <SCORE.RESTR>
0

>  <SCORE.RESTR.CAVITY>
0

>  <SCORE.RESTR.norm>
0

>  <SCORE.SYSTEM>
0

>  <SCORE.SYSTEM.CONST>
0

>  <SCORE.SYSTEM.DIHEDRAL>
0

>  <SCORE.SYSTEM.SOLV>
0

>  <SCORE.SYSTEM.norm>
0

>  <SCORE.heavy>
14

>  <SCORE.norm>
-0.0067648

>  <RMSD>
10.488

$$$$
ligand
 OpenBabel11021811413D
libRbt.so/2013.1/901 2013/11/27
 14 13  0  0  0  0  0  0  0  0999 V2000
   45.5672    1.8331   18.0830 N   0  0  0  0  0  0  0  0  0  0  0  0
   46.1270    1.9127   16.7164 C   0  0  0  0  0  0  0  0  0  0  0  0
   45.0440    1.6316   15.6525 C   0  0  0  0  0  0  0  0  0  0  0  0
   44.4476    0.2154   15.7051 C   0  0  0  0  0  0  0  0  0  0  0  0
   45.4793   -0.8108   15.3906 N   0  0  0  0  0  0  0  0  0  0  0  0
   45.1104   -1.5478   14.1547 C   0  0  0  0  0  0  0  0  0  0  0  0
   44.1471   -2.7660   14.3553 C   0  0  0  0  0  0  0  0  0  0  0  0
   43.8345   -3.5504   13.0486 C   0  0  0  0  0  0  0  0  0  0  0  0
   43.0675   -2.7468   12.0167 C   0  0  0  0  0  0  0  0  0  0  0  0
   42.6228   -3.6656   10.9861 N   0  0  0  0  0  0  0  0  0  0  0  0
   41.1794   -3.5183   10.9174 C   0  0  0  0  0  0  0  0  0  0  0  0
   40.6142   -4.1482    9.6497 C   0  0  0  0  0  0  0  0  0  0  0  0
   40.7300   -5.6730    9.7969 C   0  0  0  0  0  0  0  0  0  0  0  0
   40.2508   -6.3844    8.6023 N   0  0  0  0  0  0  0  0  0  0  0  0
  1  2  1  0  0  0  0
  2  3  1  0  0  0  0
  3  4  1  0  0  0  0
  4  5  1  0  0  0  0
  5  6  1  0  0  0  0
  6  7  1  0  0  0  0
  7  8  1  0  0  0  0
  8  9  1  0  0  0  0
  9 10  1  0  0  0  0
 10 11  1  0  0  0  0
 11 12  1  0  0  0  0
 12 13  1  0  0  0  0
 13 14  1  0  0  0  0
M  END
>  <CHROM.1>
-63.49629380,-64.56672046,-117.23239593,-85.49597146,-177.40474034,-64.89238920
-168.92110113,123.48283932,165.38839421,70.86540664,-178.10299813,43.44440844
-2.08695971,13.21964711,0.93523579,-0.71984011,0.38240753

>  <Name>
ligand

>  <RI>
0

>  <Rbt.Current_Directory>
/home/itssahil/PROJECTS/Mol_Feturizer/New_Systems/rnas/1TN2

>  <Rbt.Executable>
rbdock ($Id: //depot/dev/client3/rdock/2013.1/src/exe/rbdock.cxx#4 $)

>  <Rbt.Library>
libRbt.so (2013.1, Build901 2013/11/27)

>  <Rbt.Parameter_File>
/export/apps/rDock/src/rDock_2013.1_src/data/scripts/dock_solv.prm

>  <Rbt.Receptor>
prm/blind_docking_80.prm

>  <SCORE>
-3.99577

>  <SCORE.INTER>
-3.06258

>  <SCORE.INTER.CONST>
1

>  <SCORE.INTER.POLAR>
0

>  <SCORE.INTER.ROT>
11

>  <SCORE.INTER.SOLV>
10.0559

>  <SCORE.INTER.VDW>
-16.327

>  <SCORE.INTER.norm>
-0.218756

>  <SCORE.INTRA>
-0.933193

>  <SCORE.INTRA.DIHEDRAL>
-3.63427

>  <SCORE.INTRA.DIHEDRAL.0>
7.79482

>  <SCORE.INTRA.POLAR>
0

>  <SCORE.INTRA.POLAR.0>
0

>  <SCORE.INTRA.REPUL>
0

>  <SCORE.INTRA.REPUL.0>
0

>  <SCORE.INTRA.SOLV>
2.08335

>  <SCORE.INTRA.SOLV.lig_0>
-49.456

>  <SCORE.INTRA.VDW>
-0.157733

>  <SCORE.INTRA.VDW.0>
-0.478406

>  <SCORE.INTRA.norm>
-0.0666567

>  <SCORE.RESTR>
0

>  <SCORE.RESTR.CAVITY>
0

>  <SCORE.RESTR.norm>
0

>  <SCORE.SYSTEM>
0

>  <SCORE.SYSTEM.CONST>
0

>  <SCORE.SYSTEM.DIHEDRAL>
0

>  <SCORE.SYSTEM.SOLV>
0

>  <SCORE.SYSTEM.norm>
0

>  <SCORE.heavy>
14

>  <SCORE.norm>
-0.285412

>  <RMSD>
10.500

$$$$
ligand
 OpenBabel11021811413D
libRbt.so/2013.1/901 2013/11/27
 14 13  0  0  0  0  0  0  0  0999 V2000
   39.3747   -3.0700    8.7616 N   0  0  0  0  0  0  0  0  0  0  0  0
   40.7461   -2.9275    9.2964 C   0  0  0  0  0  0  0  0  0  0  0  0
   41.1961   -4.2108   10.0276 C   0  0  0  0  0  0  0  0  0  0  0  0
   42.6443   -4.1792   10.5431 C   0  0  0  0  0  0  0  0  0  0  0  0
   42.7716   -3.2820   11.7243 N   0  0  0  0  0  0  0  0  0  0  0  0
   43.8571   -3.7610   12.6181 C   0  0  0  0  0  0  0  0  0  0  0  0
   44.0138   -2.9842   13.9687 C   0  0  0  0  0  0  0  0  0  0  0  0
   44.3955   -1.4856   13.7989 C   0  0  0  0  0  0  0  0  0  0  0  0
   45.7454   -1.2645   13.1447 C   0  0  0  0  0  0  0  0  0  0  0  0
   45.9469    0.1672   13.0260 N   0  0  0  0  0  0  0  0  0  0  0  0
   46.7039    0.3623   11.8018 C   0  0  0  0  0  0  0  0  0  0  0  0
   46.8639    1.8425   11.4750 C   0  0  0  0  0  0  0  0  0  0  0  0
   47.8097    2.4500   12.5221 C   0  0  0  0  0  0  0  0  0  0  0  0
   47.1945    2.5128   13.8564 N   0  0  0  0  0  0  0  0  0  0  0  0
  1  2  1  0  0  0  0
  2  3  1  0  0  0  0
  3  4  1  0  0  0  0
  4  5  1  0  0  0  0
  5  6  1  0  0  0  0
  6  7  1  0  0  0  0
  7  8  1  0  0  0  0
  8  9  1  0  0  0  0
  9 10  1  0  0  0  0
 10 11  1  0  0  0  0
 11 12  1  0  0  0  0
 12 13  1  0  0  0  0
 13 14  1  0  0  0  0
M  END
>  <CHROM.1>
176.52284793,72.89822901,150.10753572,-174.59920627,-63.02366629,-63.17838409
178.66511560,-146.49069210,174.07693583,69.46836509,-69.35286979,44.23326601
-1.41662138,11.89750209,2.90863238,0.75622544,2.39446136

>  <Name>
ligand

>  <RI>
0

>  <Rbt.Current_Directory>
/home/itssahil/PROJECTS/Mol_Feturizer/New_Systems/rnas/1TN2

>  <Rbt.Executable>
rbdock ($Id: //depot/dev/client3/rdock/2013.1/src/exe/rbdock.cxx#4 $)

>  <Rbt.Library>
libRbt.so (2013.1, Build901 2013/11/27)

>  <Rbt.Parameter_File>
/export/apps/rDock/src/rDock_2013.1_src/data/scripts/dock_solv.prm

>  <Rbt.Receptor>
prm/blind_docking_60.prm

>  <SCORE>
0.497104

>  <SCORE.INTER>
1.50099

>  <SCORE.INTER.CONST>
1

>  <SCORE.INTER.POLAR>
0

>  <SCORE.INTER.ROT>
11

>  <SCORE.INTER.SOLV>
10.8819

>  <SCORE.INTER.VDW>
-13.56

>  <SCORE.INTER.norm>
0.107213

>  <SCORE.INTRA>
-1.00388

>  <SCORE.INTRA.DIHEDRAL>
-5.04443

>  <SCORE.INTRA.DIHEDRAL.0>
7.79482

>  <SCORE.INTRA.POLAR>
0

>  <SCORE.INTRA.POLAR.0>
0

>  <SCORE.INTRA.REPUL>
0

>  <SCORE.INTRA.REPUL.0>
0

>  <SCORE.INTRA.SOLV>
3.9047

>  <SCORE.INTRA.SOLV.lig_0>
-49.456

>  <SCORE.INTRA.VDW>
-0.434015

>  <SCORE.INTRA.VDW.0>
-0.478406

>  <SCORE.INTRA.norm>
-0.071706

>  <SCORE.RESTR>
0

>  <SCORE.RESTR.CAVITY>
0

>  <SCORE.RESTR.norm>
0

>  <SCORE.SYSTEM>
0

>  <SCORE.SYSTEM.CONST>
0

>  <SCORE.SYSTEM.DIHEDRAL>
0

>  <SCORE.SYSTEM.SOLV>
0

>  <SCORE.SYSTEM.norm>
0

>  <SCORE.heavy>
14

>  <SCORE.norm>
0.0355075

>  <RMSD>
10.540

$$$$
ligand
 OpenBabel11021811413D
libRbt.so/2013.1/901 2013/11/27
 14 13  0  0  0  0  0  0  0  0999 V2000
   49.5599   -4.4107   12.4408 N   0  0  0  0  0  0  0  0  0  0  0  0
   49.6278   -4.1086   10.9947 C   0  0  0  0  0  0  0  0  0  0  0  0
   48.5256   -3.1097   10.5809 C   0  0  0  0  0  0  0  0  0  0  0  0
   48.6821   -1.7010   11.1769 C   0  0  0  0  0  0  0  0  0  0  0  0
   48.4762   -1.7186   12.6512 N   0  0  0  0  0  0  0  0  0  0  0  0
   47.0546   -1.4331   12.9744 C   0  0  0  0  0  0  0  0  0  0  0  0
   46.6812   -1.4913   14.4940 C   0  0  0  0  0  0  0  0  0  0  0  0
   45.1529   -1.4193   14.7757 C   0  0  0  0  0  0  0  0  0  0  0  0
   44.3729   -2.6073   14.2475 C   0  0  0  0  0  0  0  0  0  0  0  0
   44.3411   -2.5040   12.8009 N   0  0  0  0  0  0  0  0  0  0  0  0
   43.2329   -3.3365   12.3668 C   0  0  0  0  0  0  0  0  0  0  0  0
   42.4550   -2.6819   11.2312 C   0  0  0  0  0  0  0  0  0  0  0  0
   41.3106   -3.6309   10.8441 C   0  0  0  0  0  0  0  0  0  0  0  0
   41.7955   -4.8278   10.1406 N   0  0  0  0  0  0  0  0  0  0  0  0
  1  2  1  0  0  0  0
  2  3  1  0  0  0  0
  3  4  1  0  0  0  0
  4  5  1  0  0  0  0
  5  6  1  0  0  0  0
  6  7  1  0  0  0  0
  7  8  1  0  0  0  0
  8  9  1  0  0  0  0
  9 10  1  0  0  0  0
 10 11  1  0  0  0  0
 11 12  1  0  0  0  0
 12 13  1  0  0  0  0
 13 14  1  0  0  0  0
M  END
>  <CHROM.1>
66.53544086,-67.58609736,-92.54485555,177.06069968,-170.50410739,65.04423518
-71.34163908,-160.27089113,139.88784643,-179.96333648,-71.79826334,45.80477983
-2.78409570,12.26580359,-0.11355549,-0.04098887,-2.14761820

>  <Name>
ligand

>  <RI>
0

>  <Rbt.Current_Directory>
/home/itssahil/PROJECTS/Mol_Feturizer/New_Systems/rnas/1TN2

>  <Rbt.Executable>
rbdock ($Id: //depot/dev/client3/rdock/2013.1/src/exe/rbdock.cxx#4 $)

>  <Rbt.Library>
libRbt.so (2013.1, Build901 2013/11/27)

>  <Rbt.Parameter_File>
/export/apps/rDock/src/rDock_2013.1_src/data/scripts/dock_solv.prm

>  <Rbt.Receptor>
prm/blind_docking_80.prm

>  <SCORE>
-0.087572

>  <SCORE.INTER>
-0.123679

>  <SCORE.INTER.CONST>
1

>  <SCORE.INTER.POLAR>
0

>  <SCORE.INTER.ROT>
11

>  <SCORE.INTER.SOLV>
7.2304

>  <SCORE.INTER.VDW>
-13.4259

>  <SCORE.INTER.norm>
-0.00883425

>  <SCORE.INTRA>
0.0361075

>  <SCORE.INTRA.DIHEDRAL>
-4.11448

>  <SCORE.INTRA.DIHEDRAL.0>
7.79482

>  <SCORE.INTRA.POLAR>
0

>  <SCORE.INTRA.POLAR.0>
0

>  <SCORE.INTRA.REPUL>
0

>  <SCORE.INTRA.REPUL.0>
0

>  <SCORE.INTRA.SOLV>
4.8627

>  <SCORE.INTRA.SOLV.lig_0>
-49.456

>  <SCORE.INTRA.VDW>
-0.338005

>  <SCORE.INTRA.VDW.0>
-0.478406

>  <SCORE.INTRA.norm>
0.0025791

>  <SCORE.RESTR>
0

>  <SCORE.RESTR.CAVITY>
0

>  <SCORE.RESTR.norm>
0

>  <SCORE.SYSTEM>
0

>  <SCORE.SYSTEM.CONST>
0

>  <SCORE.SYSTEM.DIHEDRAL>
0

>  <SCORE.SYSTEM.SOLV>
0

>  <SCORE.SYSTEM.norm>
0

>  <SCORE.heavy>
14

>  <SCORE.norm>
-0.00625515

>  <RMSD>
11.749

$$$$
ligand
 OpenBabel11021811413D
libRbt.so/2013.1/901 2013/11/27
 14 13  0  0  0  0  0  0  0  0999 V2000
   36.9237   -4.9800    4.3013 N   0  0  0  0  0  0  0  0  0  0  0  0
   37.7177   -3.9654    5.0275 C   0  0  0  0  0  0  0  0  0  0  0  0
   38.1873   -4.5002    6.3977 C   0  0  0  0  0  0  0  0  0  0  0  0
   38.9712   -3.4855    7.2461 C   0  0  0  0  0  0  0  0  0  0  0  0
   39.4983   -4.1195    8.4857 N   0  0  0  0  0  0  0  0  0  0  0  0
   40.3925   -3.1759    9.2046 C   0  0  0  0  0  0  0  0  0  0  0  0
   41.1717   -3.7770   10.4227 C   0  0  0  0  0  0  0  0  0  0  0  0
   42.1928   -2.7974   11.0694 C   0  0  0  0  0  0  0  0  0  0  0  0
   42.9386   -3.3794   12.2542 C   0  0  0  0  0  0  0  0  0  0  0  0
   43.7732   -2.3295   12.8069 N   0  0  0  0  0  0  0  0  0  0  0  0
   44.2391   -2.8254   14.0902 C   0  0  0  0  0  0  0  0  0  0  0  0
   45.1283   -1.8060   14.7925 C   0  0  0  0  0  0  0  0  0  0  0  0
   46.3284   -1.5261   13.8752 C   0  0  0  0  0  0  0  0  0  0  0  0
   47.1747   -0.4366   14.3846 N   0  0  0  0  0  0  0  0  0  0  0  0
  1  2  1  0  0  0  0
  2  3  1  0  0  0  0
  3  4  1  0  0  0  0
  4  5  1  0  0  0  0
  5  6  1  0  0  0  0
  6  7  1  0  0  0  0
  7  8  1  0  0  0  0
  8  9  1  0  0  0  0
  9 10  1  0  0  0  0
 10 11  1  0  0  0  0
 11 12  1  0  0  0  0
 12 13  1  0  0  0  0
 13 14  1  0  0  0  0
M  END
>  <CHROM.1>
-177.53477935,-174.45168558,172.88764423,-171.97878657,174.73276958,179.60434027
-175.89847493,167.91849154,-179.56806786,-59.52565564,173.32982704,41.75979210
-3.07889340,10.31144662,-2.53541733,0.64029051,1.97621394

>  <Name>
ligand

>  <RI>
0

>  <Rbt.Current_Directory>
/home/itssahil/PROJECTS/Mol_Feturizer/New_Systems/rnas/1TN2

>  <Rbt.Executable>
rbdock ($Id: //depot/dev/client3/rdock/2013.1/src/exe/rbdock.cxx#4 $)

>  <Rbt.Library>
libRbt.so (2013.1, Build901 2013/11/27)

>  <Rbt.Parameter_File>
/export/apps/rDock/src/rDock_2013.1_src/data/scripts/dock_solv.prm

>  <Rbt.Receptor>
prm/blind_docking_80.prm

>  <SCORE>
-4.32704

>  <SCORE.INTER>
-0.503008

>  <SCORE.INTER.CONST>
1

>  <SCORE.INTER.POLAR>
0

>  <SCORE.INTER.ROT>
11

>  <SCORE.INTER.SOLV>
8.93059

>  <SCORE.INTER.VDW>
-14.2455

>  <SCORE.INTER.norm>
-0.0359291

>  <SCORE.INTRA>
-3.82403

>  <SCORE.INTRA.DIHEDRAL>
-7.11085

>  <SCORE.INTRA.DIHEDRAL.0>
7.79482

>  <SCORE.INTRA.POLAR>
0

>  <SCORE.INTRA.POLAR.0>
0

>  <SCORE.INTRA.REPUL>
0

>  <SCORE.INTRA.REPUL.0>
0

>  <SCORE.INTRA.SOLV>
0.499595

>  <SCORE.INTRA.SOLV.lig_0>
-49.456

>  <SCORE.INTRA.VDW>
-0.518405

>  <SCORE.INTRA.VDW.0>
-0.478406

>  <SCORE.INTRA.norm>
-0.273145

>  <SCORE.RESTR>
0

>  <SCORE.RESTR.CAVITY>
0

>  <SCORE.RESTR.norm>
0

>  <SCORE.SYSTEM>
0

>  <SCORE.SYSTEM.CONST>
0

>  <SCORE.SYSTEM.DIHEDRAL>
0

>  <SCORE.SYSTEM.SOLV>
0

>  <SCORE.SYSTEM.norm>
0

>  <SCORE.heavy>
14

>  <SCORE.norm>
-0.309074

>  <RMSD>
13.843

$$$$
ligand
 OpenBabel11021811413D
libRbt.so/2013.1/901 2013/11/27
 14 13  0  0  0  0  0  0  0  0999 V2000
   39.3027   -3.1362    2.6515 N   0  0  0  0  0  0  0  0  0  0  0  0
   40.1430   -2.1457    3.3588 C   0  0  0  0  0  0  0  0  0  0  0  0
   39.2958   -1.2727    4.3096 C   0  0  0  0  0  0  0  0  0  0  0  0
   38.6353   -2.0412    5.4659 C   0  0  0  0  0  0  0  0  0  0  0  0
   39.6595   -2.5899    6.3967 N   0  0  0  0  0  0  0  0  0  0  0  0
   39.0046   -3.3652    7.4815 C   0  0  0  0  0  0  0  0  0  0  0  0
   39.4782   -3.0277    8.9354 C   0  0  0  0  0  0  0  0  0  0  0  0
   40.9435   -3.4521    9.2406 C   0  0  0  0  0  0  0  0  0  0  0  0
   41.3246   -3.3406   10.7039 C   0  0  0  0  0  0  0  0  0  0  0  0
   42.7523   -3.5768   10.8053 N   0  0  0  0  0  0  0  0  0  0  0  0
   43.2087   -2.7797   11.9305 C   0  0  0  0  0  0  0  0  0  0  0  0
   43.8045   -3.6536   13.0279 C   0  0  0  0  0  0  0  0  0  0  0  0
   44.3081   -2.7226   14.1413 C   0  0  0  0  0  0  0  0  0  0  0  0
   45.3773   -1.8269   13.6752 N   0  0  0  0  0  0  0  0  0  0  0  0
  1  2  1  0  0  0  0
  2  3  1  0  0  0  0
  3  4  1  0  0  0  0
  4  5  1  0  0  0  0
  5  6  1  0  0  0  0
  6  7  1  0  0  0  0
  7  8  1  0  0  0  0
  8  9  1  0  0  0  0
  9 10  1  0  0  0  0
 10 11  1  0  0  0  0
 11 12  1  0  0  0  0
 12 13  1  0  0  0  0
 13 14  1  0  0  0  0
M  END
>  <CHROM.1>
64.15777343,65.62715493,-178.17479337,-131.41754611,-68.17473945,-170.25059152
-171.83840795,148.79653124,118.58478199,177.70689960,-62.49994072,41.23107930
-2.78078587,8.72328961,-2.10106276,0.35079175,1.82486783

>  <Name>
ligand

>  <RI>
0

>  <Rbt.Current_Directory>
/home/itssahil/PROJECTS/Mol_Feturizer/New_Systems/rnas/1TN2

>  <Rbt.Executable>
rbdock ($Id: //depot/dev/client3/rdock/2013.1/src/exe/rbdock.cxx#4 $)

>  <Rbt.Library>
libRbt.so (2013.1, Build901 2013/11/27)

>  <Rbt.Parameter_File>
/export/apps/rDock/src/rDock_2013.1_src/data/scripts/dock_solv.prm

>  <Rbt.Receptor>
prm/blind_docking_100.prm

>  <SCORE>
-5.75036

>  <SCORE.INTER>
-4.6682

>  <SCORE.INTER.CONST>
1

>  <SCORE.INTER.POLAR>
0

>  <SCORE.INTER.ROT>
11

>  <SCORE.INTER.SOLV>
7.83268

>  <SCORE.INTER.VDW>
-16.6564

>  <SCORE.INTER.norm>
-0.333443

>  <SCORE.INTRA>
-1.08216

>  <SCORE.INTRA.DIHEDRAL>
-3.74513

>  <SCORE.INTRA.DIHEDRAL.0>
7.79482

>  <SCORE.INTRA.POLAR>
0

>  <SCORE.INTRA.POLAR.0>
0

>  <SCORE.INTRA.REPUL>
0

>  <SCORE.INTRA.REPUL.0>
0

>  <SCORE.INTRA.SOLV>
2.70809

>  <SCORE.INTRA.SOLV.lig_0>
-49.456

>  <SCORE.INTRA.VDW>
-0.56364

>  <SCORE.INTRA.VDW.0>
-0.478406

>  <SCORE.INTRA.norm>
-0.0772972

>  <SCORE.RESTR>
0

>  <SCORE.RESTR.CAVITY>
0

>  <SCORE.RESTR.norm>
0

>  <SCORE.SYSTEM>
0

>  <SCORE.SYSTEM.CONST>
0

>  <SCORE.SYSTEM.DIHEDRAL>
0

>  <SCORE.SYSTEM.SOLV>
0

>  <SCORE.SYSTEM.norm>
0

>  <SCORE.heavy>
14

>  <SCORE.norm>
-0.41074

>  <RMSD>
14.811

$$$$
ligand
 OpenBabel11021811413D
libRbt.so/2013.1/901 2013/11/27
 14 13  0  0  0  0  0  0  0  0999 V2000
   42.0558   -3.2100    2.4287 N   0  0  0  0  0  0  0  0  0  0  0  0
   41.6469   -2.7812    3.7838 C   0  0  0  0  0  0  0  0  0  0  0  0
   40.1440   -2.4301    3.8283 C   0  0  0  0  0  0  0  0  0  0  0  0
   39.6325   -1.9805    5.2067 C   0  0  0  0  0  0  0  0  0  0  0  0
   39.8569   -3.0376    6.2308 N   0  0  0  0  0  0  0  0  0  0  0  0
   38.9607   -2.8222    7.3958 C   0  0  0  0  0  0  0  0  0  0  0  0
   39.6673   -2.7675    8.7922 C   0  0  0  0  0  0  0  0  0  0  0  0
   40.3891   -4.0868    9.1909 C   0  0  0  0  0  0  0  0  0  0  0  0
   40.9570   -4.0771   10.5966 C   0  0  0  0  0  0  0  0  0  0  0  0
   42.0237   -3.0946   10.6328 N   0  0  0  0  0  0  0  0  0  0  0  0
   42.7242   -3.3136   11.8862 C   0  0  0  0  0  0  0  0  0  0  0  0
   43.6611   -2.1561   12.2111 C   0  0  0  0  0  0  0  0  0  0  0  0
   44.3070   -2.4493   13.5738 C   0  0  0  0  0  0  0  0  0  0  0  0
   45.2233   -1.3794   13.9960 N   0  0  0  0  0  0  0  0  0  0  0  0
  1  2  1  0  0  0  0
  2  3  1  0  0  0  0
  3  4  1  0  0  0  0
  4  5  1  0  0  0  0
  5  6  1  0  0  0  0
  6  7  1  0  0  0  0
  7  8  1  0  0  0  0
  8  9  1  0  0  0  0
  9 10  1  0  0  0  0
 10 11  1  0  0  0  0
 11 12  1  0  0  0  0
 12 13  1  0  0  0  0
 13 14  1  0  0  0  0
M  END
>  <CHROM.1>
179.68092079,-58.94920044,-159.83382311,-126.82829886,-62.64718020,-174.40681141
-66.32094723,-168.07832425,-166.79759045,177.64475792,-179.23905393,41.51750621
-2.82763310,8.55392956,-1.93787261,0.24735076,1.62917206

>  <Name>
ligand

>  <RI>
0

>  <Rbt.Current_Directory>
/home/itssahil/PROJECTS/Mol_Feturizer/New_Systems/rnas/1TN2

>  <Rbt.Executable>
rbdock ($Id: //depot/dev/client3/rdock/2013.1/src/exe/rbdock.cxx#4 $)

>  <Rbt.Library>
libRbt.so (2013.1, Build901 2013/11/27)

>  <Rbt.Parameter_File>
/export/apps/rDock/src/rDock_2013.1_src/data/scripts/dock_solv.prm

>  <Rbt.Receptor>
prm/blind_docking_100.prm

>  <SCORE>
-4.9139

>  <SCORE.INTER>
-1.79879

>  <SCORE.INTER.CONST>
1

>  <SCORE.INTER.POLAR>
0

>  <SCORE.INTER.ROT>
11

>  <SCORE.INTER.SOLV>
8.93413

>  <SCORE.INTER.VDW>
-15.1106

>  <SCORE.INTER.norm>
-0.128485

>  <SCORE.INTRA>
-3.11511

>  <SCORE.INTRA.DIHEDRAL>
-5.74308

>  <SCORE.INTRA.DIHEDRAL.0>
7.79482

>  <SCORE.INTRA.POLAR>
0

>  <SCORE.INTRA.POLAR.0>
0

>  <SCORE.INTRA.REPUL>
0

>  <SCORE.INTRA.REPUL.0>
0

>  <SCORE.INTRA.SOLV>
0.973725

>  <SCORE.INTRA.SOLV.lig_0>
-49.456

>  <SCORE.INTRA.VDW>
-0.730428

>  <SCORE.INTRA.VDW.0>
-0.478406

>  <SCORE.INTRA.norm>
-0.222508

>  <SCORE.RESTR>
0

>  <SCORE.RESTR.CAVITY>
0

>  <SCORE.RESTR.norm>
0

>  <SCORE.SYSTEM>
0

>  <SCORE.SYSTEM.CONST>
0

>  <SCORE.SYSTEM.DIHEDRAL>
0

>  <SCORE.SYSTEM.SOLV>
0

>  <SCORE.SYSTEM.norm>
0

>  <SCORE.heavy>
14

>  <SCORE.norm>
-0.350993

>  <RMSD>
14.846

$$$$
ligand
 OpenBabel11021811413D
libRbt.so/2013.1/901 2013/11/27
 14 13  0  0  0  0  0  0  0  0999 V2000
   40.5567   -1.5643    1.6918 N   0  0  0  0  0  0  0  0  0  0  0  0
   39.3932   -2.0170    2.4846 C   0  0  0  0  0  0  0  0  0  0  0  0
   39.6028   -1.7430    3.9896 C   0  0  0  0  0  0  0  0  0  0  0  0
   38.4666   -2.2451    4.8956 C   0  0  0  0  0  0  0  0  0  0  0  0
   38.7332   -1.9112    6.3218 N   0  0  0  0  0  0  0  0  0  0  0  0
   39.3239   -3.0810    7.0212 C   0  0  0  0  0  0  0  0  0  0  0  0
   39.7107   -2.8485    8.5207 C   0  0  0  0  0  0  0  0  0  0  0  0
   40.3356   -4.0923    9.2156 C   0  0  0  0  0  0  0  0  0  0  0  0
   40.7125   -3.8624   10.6661 C   0  0  0  0  0  0  0  0  0  0  0  0
   41.7970   -2.8993   10.6910 N   0  0  0  0  0  0  0  0  0  0  0  0
   42.6286   -3.2655   11.8241 C   0  0  0  0  0  0  0  0  0  0  0  0
   43.5587   -2.1263   12.2245 C   0  0  0  0  0  0  0  0  0  0  0  0
   44.4075   -2.6136   13.4087 C   0  0  0  0  0  0  0  0  0  0  0  0
   45.3925   -1.6090   13.8367 N   0  0  0  0  0  0  0  0  0  0  0  0
  1  2  1  0  0  0  0
  2  3  1  0  0  0  0
  3  4  1  0  0  0  0
  4  5  1  0  0  0  0
  5  6  1  0  0  0  0
  6  7  1  0  0  0  0
  7  8  1  0  0  0  0
  8  9  1  0  0  0  0
  9 10  1  0  0  0  0
 10 11  1  0  0  0  0
 11 12  1  0  0  0  0
 12 13  1  0  0  0  0
 13 14  1  0  0  0  0
M  END
>  <CHROM.1>
-177.22030727,-178.60937494,-97.65789683,177.56020380,-179.56574865,179.83444905
-66.60701344,-146.86009654,-163.16073540,-179.11921669,177.20530441,41.04400616
-2.56296977,8.34237270,-2.06037095,0.42692316,1.85031264

>  <Name>
ligand

>  <RI>
0

>  <Rbt.Current_Directory>
/home/itssahil/PROJECTS/Mol_Feturizer/New_Systems/rnas/1TN2

>  <Rbt.Executable>
rbdock ($Id: //depot/dev/client3/rdock/2013.1/src/exe/rbdock.cxx#4 $)

>  <Rbt.Library>
libRbt.so (2013.1, Build901 2013/11/27)

>  <Rbt.Parameter_File>
/export/apps/rDock/src/rDock_2013.1_src/data/scripts/dock_solv.prm

>  <Rbt.Receptor>
prm/blind_docking_80.prm

>  <SCORE>
-5.25377

>  <SCORE.INTER>
-1.94753

>  <SCORE.INTER.CONST>
1

>  <SCORE.INTER.POLAR>
0

>  <SCORE.INTER.ROT>
11

>  <SCORE.INTER.SOLV>
12.0386

>  <SCORE.INTER.VDW>
-16.2446

>  <SCORE.INTER.norm>
-0.139109

>  <SCORE.INTRA>
-3.30624

>  <SCORE.INTRA.DIHEDRAL>
-5.80578

>  <SCORE.INTRA.DIHEDRAL.0>
7.79482

>  <SCORE.INTRA.POLAR>
0

>  <SCORE.INTRA.POLAR.0>
0

>  <SCORE.INTRA.REPUL>
0

>  <SCORE.INTRA.REPUL.0>
0

>  <SCORE.INTRA.SOLV>
0.328859

>  <SCORE.INTRA.SOLV.lig_0>
-49.456

>  <SCORE.INTRA.VDW>
-0.567779

>  <SCORE.INTRA.VDW.0>
-0.478406

>  <SCORE.INTRA.norm>
-0.23616

>  <SCORE.RESTR>
0

>  <SCORE.RESTR.CAVITY>
0

>  <SCORE.RESTR.norm>
0

>  <SCORE.SYSTEM>
0

>  <SCORE.SYSTEM.CONST>
0

>  <SCORE.SYSTEM.DIHEDRAL>
0

>  <SCORE.SYSTEM.SOLV>
0

>  <SCORE.SYSTEM.norm>
0

>  <SCORE.heavy>
14

>  <SCORE.norm>
-0.375269

>  <RMSD>
15.018

$$$$
ligand
 OpenBabel11021811413D
libRbt.so/2013.1/901 2013/11/27
 14 13  0  0  0  0  0  0  0  0999 V2000
   42.2063   -3.2391    1.5734 N   0  0  0  0  0  0  0  0  0  0  0  0
   42.6717   -2.7735    2.8977 C   0  0  0  0  0  0  0  0  0  0  0  0
   41.7737   -3.3201    4.0286 C   0  0  0  0  0  0  0  0  0  0  0  0
   42.1597   -2.8442    5.4387 C   0  0  0  0  0  0  0  0  0  0  0  0
   41.2396   -3.4090    6.4638 N   0  0  0  0  0  0  0  0  0  0  0  0
   39.9252   -2.7189    6.4099 C   0  0  0  0  0  0  0  0  0  0  0  0
   38.8480   -3.2347    7.4227 C   0  0  0  0  0  0  0  0  0  0  0  0
   39.1226   -2.8344    8.9007 C   0  0  0  0  0  0  0  0  0  0  0  0
   40.3159   -3.5376    9.5174 C   0  0  0  0  0  0  0  0  0  0  0  0
   41.4933   -2.7414    9.2274 N   0  0  0  0  0  0  0  0  0  0  0  0
   42.2986   -2.7668   10.4360 C   0  0  0  0  0  0  0  0  0  0  0  0
   43.4496   -1.7705   10.3603 C   0  0  0  0  0  0  0  0  0  0  0  0
   44.1608   -1.7777   11.7219 C   0  0  0  0  0  0  0  0  0  0  0  0
   44.8469   -3.0518   11.9836 N   0  0  0  0  0  0  0  0  0  0  0  0
  1  2  1  0  0  0  0
  2  3  1  0  0  0  0
  3  4  1  0  0  0  0
  4  5  1  0  0  0  0
  5  6  1  0  0  0  0
  6  7  1  0  0  0  0
  7  8  1  0  0  0  0
  8  9  1  0  0  0  0
  9 10  1  0  0  0  0
 10 11  1  0  0  0  0
 11 12  1  0  0  0  0
 12 13  1  0  0  0  0
 13 14  1  0  0  0  0
M  END
>  <CHROM.1>
-178.01916692,179.60183683,-74.39036820,178.92505660,72.50207469,-69.56371649
88.13464956,139.78209279,-169.97223670,174.92421594,67.53801844,41.75056076
-2.85846001,7.59884206,-1.75467493,0.12381415,1.51543233

>  <Name>
ligand

>  <RI>
0

>  <Rbt.Current_Directory>
/home/itssahil/PROJECTS/Mol_Feturizer/New_Systems/rnas/1TN2

>  <Rbt.Executable>
rbdock ($Id: //depot/dev/client3/rdock/2013.1/src/exe/rbdock.cxx#4 $)

>  <Rbt.Library>
libRbt.so (2013.1, Build901 2013/11/27)

>  <Rbt.Parameter_File>
/export/apps/rDock/src/rDock_2013.1_src/data/scripts/dock_solv.prm

>  <Rbt.Receptor>
prm/blind_docking_80.prm

>  <SCORE>
0.175908

>  <SCORE.INTER>
0.189213

>  <SCORE.INTER.CONST>
1

>  <SCORE.INTER.POLAR>
0

>  <SCORE.INTER.ROT>
11

>  <SCORE.INTER.SOLV>
7.80945

>  <SCORE.INTER.VDW>
-13.4103

>  <SCORE.INTER.norm>
0.0135152

>  <SCORE.INTRA>
-0.0133049

>  <SCORE.INTRA.DIHEDRAL>
-2.8831

>  <SCORE.INTRA.DIHEDRAL.0>
7.79482

>  <SCORE.INTRA.POLAR>
0

>  <SCORE.INTRA.POLAR.0>
0

>  <SCORE.INTRA.REPUL>
0

>  <SCORE.INTRA.REPUL.0>
0

>  <SCORE.INTRA.SOLV>
3.53828

>  <SCORE.INTRA.SOLV.lig_0>
-49.456

>  <SCORE.INTRA.VDW>
-0.340896

>  <SCORE.INTRA.VDW.0>
-0.478406

>  <SCORE.INTRA.norm>
-0.000950351

>  <SCORE.RESTR>
0

>  <SCORE.RESTR.CAVITY>
0

>  <SCORE.RESTR.norm>
0

>  <SCORE.SYSTEM>
0

>  <SCORE.SYSTEM.CONST>
0

>  <SCORE.SYSTEM.DIHEDRAL>
0

>  <SCORE.SYSTEM.SOLV>
0

>  <SCORE.SYSTEM.norm>
0

>  <SCORE.heavy>
14

>  <SCORE.norm>
0.0125649

>  <RMSD>
15.242

$$$$
ligand
 OpenBabel11021811413D
libRbt.so/2013.1/901 2013/11/27
 14 13  0  0  0  0  0  0  0  0999 V2000
   43.8521   -3.0995   12.8182 N   0  0  0  0  0  0  0  0  0  0  0  0
   43.2020   -2.4048   11.6859 C   0  0  0  0  0  0  0  0  0  0  0  0
   42.2311   -3.3441   10.9382 C   0  0  0  0  0  0  0  0  0  0  0  0
   41.5836   -2.7300    9.6861 C   0  0  0  0  0  0  0  0  0  0  0  0
   40.6178   -3.6774    9.0647 N   0  0  0  0  0  0  0  0  0  0  0  0
   39.3650   -2.9675    8.6996 C   0  0  0  0  0  0  0  0  0  0  0  0
   38.8746   -3.1745    7.2269 C   0  0  0  0  0  0  0  0  0  0  0  0
   39.8255   -2.5761    6.1508 C   0  0  0  0  0  0  0  0  0  0  0  0
   39.2342   -2.5462    4.7550 C   0  0  0  0  0  0  0  0  0  0  0  0
   40.2492   -2.0257    3.8588 N   0  0  0  0  0  0  0  0  0  0  0  0
   39.5631   -1.7182    2.6160 C   0  0  0  0  0  0  0  0  0  0  0  0
   40.5440   -1.3056    1.5248 C   0  0  0  0  0  0  0  0  0  0  0  0
   39.7226   -0.8731    0.3008 C   0  0  0  0  0  0  0  0  0  0  0  0
   38.9802   -1.9944   -0.2944 N   0  0  0  0  0  0  0  0  0  0  0  0
  1  2  1  0  0  0  0
  2  3  1  0  0  0  0
  3  4  1  0  0  0  0
  4  5  1  0  0  0  0
  5  6  1  0  0  0  0
  6  7  1  0  0  0  0
  7  8  1  0  0  0  0
  8  9  1  0  0  0  0
  9 10  1  0  0  0  0
 10 11  1  0  0  0  0
 11 12  1  0  0  0  0
 12 13  1  0  0  0  0
 13 14  1  0  0  0  0
M  END
>  <CHROM.1>
-176.00184352,-177.36655017,135.25865121,128.82248698,-65.75096735,-169.23463492
-177.39730786,-167.00702199,-173.59939194,-174.65672792,-66.22583715,40.56019689
-2.45969305,6.35938363,-1.28471655,-0.32963355,-1.33257005

>  <Name>
ligand

>  <RI>
0

>  <Rbt.Current_Directory>
/home/itssahil/PROJECTS/Mol_Feturizer/New_Systems/rnas/1TN2

>  <Rbt.Executable>
rbdock ($Id: //depot/dev/client3/rdock/2013.1/src/exe/rbdock.cxx#4 $)

>  <Rbt.Library>
libRbt.so (2013.1, Build901 2013/11/27)

>  <Rbt.Parameter_File>
/export/apps/rDock/src/rDock_2013.1_src/data/scripts/dock_solv.prm

>  <Rbt.Receptor>
prm/blind_docking_80.prm

>  <SCORE>
-4.20404

>  <SCORE.INTER>
-1.68551

>  <SCORE.INTER.CONST>
1

>  <SCORE.INTER.POLAR>
0

>  <SCORE.INTER.ROT>
11

>  <SCORE.INTER.SOLV>
8.9253

>  <SCORE.INTER.VDW>
-15.0321

>  <SCORE.INTER.norm>
-0.120394

>  <SCORE.INTRA>
-2.51853

>  <SCORE.INTRA.DIHEDRAL>
-4.50999

>  <SCORE.INTRA.DIHEDRAL.0>
7.79482

>  <SCORE.INTRA.POLAR>
0

>  <SCORE.INTRA.POLAR.0>
0

>  <SCORE.INTRA.REPUL>
0

>  <SCORE.INTRA.REPUL.0>
0

>  <SCORE.INTRA.SOLV>
1.00957

>  <SCORE.INTRA.SOLV.lig_0>
-49.456

>  <SCORE.INTRA.VDW>
-0.768324

>  <SCORE.INTRA.VDW.0>
-0.478406

>  <SCORE.INTRA.norm>
-0.179895

>  <SCORE.RESTR>
0

>  <SCORE.RESTR.CAVITY>
0

>  <SCORE.RESTR.norm>
0

>  <SCORE.SYSTEM>
0

>  <SCORE.SYSTEM.CONST>
0

>  <SCORE.SYSTEM.DIHEDRAL>
0

>  <SCORE.SYSTEM.SOLV>
0

>  <SCORE.SYSTEM.norm>
0

>  <SCORE.heavy>
14

>  <SCORE.norm>
-0.300289

>  <RMSD>
16.335

$$$$
ligand
 OpenBabel11021811413D
libRbt.so/2013.1/901 2013/11/27
 14 13  0  0  0  0  0  0  0  0999 V2000
   44.1821   -2.3456   11.3726 N   0  0  0  0  0  0  0  0  0  0  0  0
   42.7791   -2.7435   11.6179 C   0  0  0  0  0  0  0  0  0  0  0  0
   42.0677   -3.1213   10.3006 C   0  0  0  0  0  0  0  0  0  0  0  0
   40.6215   -3.6141   10.4728 C   0  0  0  0  0  0  0  0  0  0  0  0
   40.0418   -4.0362    9.1682 N   0  0  0  0  0  0  0  0  0  0  0  0
   39.2743   -2.9182    8.5617 C   0  0  0  0  0  0  0  0  0  0  0  0
   39.2038   -2.9161    6.9973 C   0  0  0  0  0  0  0  0  0  0  0  0
   40.5842   -2.7489    6.2995 C   0  0  0  0  0  0  0  0  0  0  0  0
   40.5111   -2.7386    4.7851 C   0  0  0  0  0  0  0  0  0  0  0  0
   41.8645   -2.6028    4.2809 N   0  0  0  0  0  0  0  0  0  0  0  0
   41.8151   -3.0211    2.8908 C   0  0  0  0  0  0  0  0  0  0  0  0
   41.9261   -1.8303    1.9458 C   0  0  0  0  0  0  0  0  0  0  0  0
   41.9411   -2.3764    0.5100 C   0  0  0  0  0  0  0  0  0  0  0  0
   40.6551   -2.9815    0.1323 N   0  0  0  0  0  0  0  0  0  0  0  0
  1  2  1  0  0  0  0
  2  3  1  0  0  0  0
  3  4  1  0  0  0  0
  4  5  1  0  0  0  0
  5  6  1  0  0  0  0
  6  7  1  0  0  0  0
  7  8  1  0  0  0  0
  8  9  1  0  0  0  0
  9 10  1  0  0  0  0
 10 11  1  0  0  0  0
 11 12  1  0  0  0  0
 12 13  1  0  0  0  0
 13 14  1  0  0  0  0
M  END
>  <CHROM.1>
177.16442027,-176.43594404,-94.90700481,151.44194511,-63.22964774,-179.63603925
-178.93075343,162.17892361,106.64281355,176.99486456,67.32398187,41.24750489
-2.85670361,6.38116458,-1.52289130,-0.22499058,-1.50705223

>  <Name>
ligand

>  <RI>
0

>  <Rbt.Current_Directory>
/home/itssahil/PROJECTS/Mol_Feturizer/New_Systems/rnas/1TN2

>  <Rbt.Executable>
rbdock ($Id: //depot/dev/client3/rdock/2013.1/src/exe/rbdock.cxx#4 $)

>  <Rbt.Library>
libRbt.so (2013.1, Build901 2013/11/27)

>  <Rbt.Parameter_File>
/export/apps/rDock/src/rDock_2013.1_src/data/scripts/dock_solv.prm

>  <Rbt.Receptor>
prm/blind_docking_100.prm

>  <SCORE>
-3.6526

>  <SCORE.INTER>
-1.26636

>  <SCORE.INTER.CONST>
1

>  <SCORE.INTER.POLAR>
0

>  <SCORE.INTER.ROT>
11

>  <SCORE.INTER.SOLV>
7.79273

>  <SCORE.INTER.VDW>
-14.3751

>  <SCORE.INTER.norm>
-0.0904539

>  <SCORE.INTRA>
-2.38624

>  <SCORE.INTRA.DIHEDRAL>
-4.82857

>  <SCORE.INTRA.DIHEDRAL.0>
7.79482

>  <SCORE.INTRA.POLAR>
0

>  <SCORE.INTRA.POLAR.0>
0

>  <SCORE.INTRA.REPUL>
0

>  <SCORE.INTRA.REPUL.0>
0

>  <SCORE.INTRA.SOLV>
1.06219

>  <SCORE.INTRA.SOLV.lig_0>
-49.456

>  <SCORE.INTRA.VDW>
-0.503052

>  <SCORE.INTRA.VDW.0>
-0.478406

>  <SCORE.INTRA.norm>
-0.170446

>  <SCORE.RESTR>
0

>  <SCORE.RESTR.CAVITY>
0

>  <SCORE.RESTR.norm>
0

>  <SCORE.SYSTEM>
0

>  <SCORE.SYSTEM.CONST>
0

>  <SCORE.SYSTEM.DIHEDRAL>
0

>  <SCORE.SYSTEM.SOLV>
0

>  <SCORE.SYSTEM.norm>
0

>  <SCORE.heavy>
14

>  <SCORE.norm>
-0.2609

>  <RMSD>
16.351

$$$$
ligand
 OpenBabel11021811413D
libRbt.so/2013.1/901 2013/11/27
 14 13  0  0  0  0  0  0  0  0999 V2000
   36.5224   -1.9771    0.4159 N   0  0  0  0  0  0  0  0  0  0  0  0
   36.8294   -3.3747    0.7898 C   0  0  0  0  0  0  0  0  0  0  0  0
   36.4475   -3.6559    2.2592 C   0  0  0  0  0  0  0  0  0  0  0  0
   37.0584   -2.6790    3.2773 C   0  0  0  0  0  0  0  0  0  0  0  0
   38.5378   -2.6064    3.1270 N   0  0  0  0  0  0  0  0  0  0  0  0
   39.1058   -1.6391    4.1009 C   0  0  0  0  0  0  0  0  0  0  0  0
   38.8291   -1.9558    5.6092 C   0  0  0  0  0  0  0  0  0  0  0  0
   39.0936   -3.4367    6.0061 C   0  0  0  0  0  0  0  0  0  0  0  0
   38.5381   -3.8186    7.3642 C   0  0  0  0  0  0  0  0  0  0  0  0
   38.4214   -5.2641    7.4005 N   0  0  0  0  0  0  0  0  0  0  0  0
   37.0000   -5.5509    7.3177 C   0  0  0  0  0  0  0  0  0  0  0  0
   36.5015   -5.4889    5.8787 C   0  0  0  0  0  0  0  0  0  0  0  0
   37.1292   -6.6670    5.1183 C   0  0  0  0  0  0  0  0  0  0  0  0
   38.5873   -6.5290    4.9860 N   0  0  0  0  0  0  0  0  0  0  0  0
  1  2  1  0  0  0  0
  2  3  1  0  0  0  0
  3  4  1  0  0  0  0
  4  5  1  0  0  0  0
  5  6  1  0  0  0  0
  6  7  1  0  0  0  0
  7  8  1  0  0  0  0
  8  9  1  0  0  0  0
  9 10  1  0  0  0  0
 10 11  1  0  0  0  0
 11 12  1  0  0  0  0
 12 13  1  0  0  0  0
 13 14  1  0  0  0  0
M  END
>  <CHROM.1>
-53.78002133,-53.89999303,178.91938984,59.29912455,46.76204532,-166.96719703
159.95473329,-107.40993787,81.12614237,68.09426800,-66.65052286,37.75715031
-3.90300990,4.54672133,1.84804674,-1.00976591,-0.85507788

>  <Name>
ligand

>  <RI>
0

>  <Rbt.Current_Directory>
/home/itssahil/PROJECTS/Mol_Feturizer/New_Systems/rnas/1TN2

>  <Rbt.Executable>
rbdock ($Id: //depot/dev/client3/rdock/2013.1/src/exe/rbdock.cxx#4 $)

>  <Rbt.Library>
libRbt.so (2013.1, Build901 2013/11/27)

>  <Rbt.Parameter_File>
/export/apps/rDock/src/rDock_2013.1_src/data/scripts/dock_solv.prm

>  <Rbt.Receptor>
prm/blind_docking_40.prm

>  <SCORE>
7.72486

>  <SCORE.INTER>
4.88236

>  <SCORE.INTER.CONST>
1

>  <SCORE.INTER.POLAR>
0

>  <SCORE.INTER.ROT>
11

>  <SCORE.INTER.SOLV>
5.9165

>  <SCORE.INTER.VDW>
-9.65059

>  <SCORE.INTER.norm>
0.34874

>  <SCORE.INTRA>
2.79854

>  <SCORE.INTRA.DIHEDRAL>
-2.98572

>  <SCORE.INTRA.DIHEDRAL.0>
7.79482

>  <SCORE.INTRA.POLAR>
0

>  <SCORE.INTRA.POLAR.0>
0

>  <SCORE.INTRA.REPUL>
0

>  <SCORE.INTRA.REPUL.0>
0

>  <SCORE.INTRA.SOLV>
7.45773

>  <SCORE.INTRA.SOLV.lig_0>
-49.456

>  <SCORE.INTRA.VDW>
0.562538

>  <SCORE.INTRA.VDW.0>
-0.478406

>  <SCORE.INTRA.norm>
0.199896

>  <SCORE.RESTR>
0.0439523

>  <SCORE.RESTR.CAVITY>
0.0439523

>  <SCORE.RESTR.norm>
0.00313945

>  <SCORE.SYSTEM>
0

>  <SCORE.SYSTEM.CONST>
0

>  <SCORE.SYSTEM.DIHEDRAL>
0

>  <SCORE.SYSTEM.SOLV>
0

>  <SCORE.SYSTEM.norm>
0

>  <SCORE.heavy>
14

>  <SCORE.norm>
0.551775

>  <RMSD>
18.764

$$$$
ligand
 OpenBabel11021811413D
libRbt.so/2013.1/901 2013/11/27
 14 13  0  0  0  0  0  0  0  0999 V2000
   34.8974   -1.7265    2.9514 N   0  0  0  0  0  0  0  0  0  0  0  0
   34.9007   -3.1923    3.1474 C   0  0  0  0  0  0  0  0  0  0  0  0
   36.2892   -3.7934    2.8396 C   0  0  0  0  0  0  0  0  0  0  0  0
   36.8189   -3.4906    1.4282 C   0  0  0  0  0  0  0  0  0  0  0  0
   38.2821   -3.7503    1.3396 N   0  0  0  0  0  0  0  0  0  0  0  0
   39.0401   -2.4866    1.5279 C   0  0  0  0  0  0  0  0  0  0  0  0
   39.5622   -2.2208    2.9801 C   0  0  0  0  0  0  0  0  0  0  0  0
   38.4459   -1.8514    3.9988 C   0  0  0  0  0  0  0  0  0  0  0  0
   38.8538   -2.0247    5.4488 C   0  0  0  0  0  0  0  0  0  0  0  0
   38.9959   -3.4466    5.6983 N   0  0  0  0  0  0  0  0  0  0  0  0
   38.5620   -3.6555    7.0687 C   0  0  0  0  0  0  0  0  0  0  0  0
   37.8032   -4.9688    7.2193 C   0  0  0  0  0  0  0  0  0  0  0  0
   36.5250   -4.8667    6.3733 C   0  0  0  0  0  0  0  0  0  0  0  0
   35.6581   -6.0439    6.5323 N   0  0  0  0  0  0  0  0  0  0  0  0
  1  2  1  0  0  0  0
  2  3  1  0  0  0  0
  3  4  1  0  0  0  0
  4  5  1  0  0  0  0
  5  6  1  0  0  0  0
  6  7  1  0  0  0  0
  7  8  1  0  0  0  0
  8  9  1  0  0  0  0
  9 10  1  0  0  0  0
 10 11  1  0  0  0  0
 11 12  1  0  0  0  0
 12 13  1  0  0  0  0
 13 14  1  0  0  0  0
M  END
>  <CHROM.1>
-56.62277321,163.62515158,-96.74037819,96.34600781,-71.77026012,161.56337275
-68.91203337,-145.49494632,142.75783244,-63.82769685,-175.34256481,37.47411044
-3.39400421,4.18242933,1.53507623,-0.35759832,-1.20740265

>  <Name>
ligand

>  <RI>
0

>  <Rbt.Current_Directory>
/home/itssahil/PROJECTS/Mol_Feturizer/New_Systems/rnas/1TN2

>  <Rbt.Executable>
rbdock ($Id: //depot/dev/client3/rdock/2013.1/src/exe/rbdock.cxx#4 $)

>  <Rbt.Library>
libRbt.so (2013.1, Build901 2013/11/27)

>  <Rbt.Parameter_File>
/export/apps/rDock/src/rDock_2013.1_src/data/scripts/dock_solv.prm

>  <Rbt.Receptor>
prm/blind_docking_40.prm

>  <SCORE>
7.31049

>  <SCORE.INTER>
6.10188

>  <SCORE.INTER.CONST>
1

>  <SCORE.INTER.POLAR>
0

>  <SCORE.INTER.ROT>
11

>  <SCORE.INTER.SOLV>
6.95178

>  <SCORE.INTER.VDW>
-9.18267

>  <SCORE.INTER.norm>
0.435849

>  <SCORE.INTRA>
-0.0524934

>  <SCORE.INTRA.DIHEDRAL>
-1.37436

>  <SCORE.INTRA.DIHEDRAL.0>
7.79482

>  <SCORE.INTRA.POLAR>
0

>  <SCORE.INTRA.POLAR.0>
0

>  <SCORE.INTRA.REPUL>
0

>  <SCORE.INTRA.REPUL.0>
0

>  <SCORE.INTRA.SOLV>
3.63198

>  <SCORE.INTRA.SOLV.lig_0>
-49.456

>  <SCORE.INTRA.VDW>
-1.1813

>  <SCORE.INTRA.VDW.0>
-0.478406

>  <SCORE.INTRA.norm>
-0.00374953

>  <SCORE.RESTR>
1.2611

>  <SCORE.RESTR.CAVITY>
1.2611

>  <SCORE.RESTR.norm>
0.0900786

>  <SCORE.SYSTEM>
0

>  <SCORE.SYSTEM.CONST>
0

>  <SCORE.SYSTEM.DIHEDRAL>
0

>  <SCORE.SYSTEM.SOLV>
0

>  <SCORE.SYSTEM.norm>
0

>  <SCORE.heavy>
14

>  <SCORE.norm>
0.522178

>  <RMSD>
19.011

$$$$
ligand
 OpenBabel11021811413D
libRbt.so/2013.1/901 2013/11/27
 14 13  0  0  0  0  0  0  0  0999 V2000
   39.0812   -5.1594    1.9362 N   0  0  0  0  0  0  0  0  0  0  0  0
   38.0216   -5.6148    2.8619 C   0  0  0  0  0  0  0  0  0  0  0  0
   38.6214   -6.3638    4.0715 C   0  0  0  0  0  0  0  0  0  0  0  0
   37.5869   -6.8533    5.0982 C   0  0  0  0  0  0  0  0  0  0  0  0
   37.1133   -5.7322    5.9557 N   0  0  0  0  0  0  0  0  0  0  0  0
   38.0694   -5.4976    7.0682 C   0  0  0  0  0  0  0  0  0  0  0  0
   38.4851   -4.0057    7.2999 C   0  0  0  0  0  0  0  0  0  0  0  0
   39.2707   -3.3740    6.1150 C   0  0  0  0  0  0  0  0  0  0  0  0
   38.4314   -2.4721    5.2312 C   0  0  0  0  0  0  0  0  0  0  0  0
   37.2614   -3.2248    4.8205 N   0  0  0  0  0  0  0  0  0  0  0  0
   36.6670   -2.4726    3.7294 C   0  0  0  0  0  0  0  0  0  0  0  0
   35.2978   -3.0256    3.3515 C   0  0  0  0  0  0  0  0  0  0  0  0
   34.9743   -2.5357    1.9319 C   0  0  0  0  0  0  0  0  0  0  0  0
   35.9493   -3.0178    0.9422 N   0  0  0  0  0  0  0  0  0  0  0  0
  1  2  1  0  0  0  0
  2  3  1  0  0  0  0
  3  4  1  0  0  0  0
  4  5  1  0  0  0  0
  5  6  1  0  0  0  0
  6  7  1  0  0  0  0
  7  8  1  0  0  0  0
  8  9  1  0  0  0  0
  9 10  1  0  0  0  0
 10 11  1  0  0  0  0
 11 12  1  0  0  0  0
 12 13  1  0  0  0  0
 13 14  1  0  0  0  0
M  END
>  <CHROM.1>
179.06269757,-77.26893318,-82.96401598,132.23662860,-64.24817879,101.59908005
-52.90267079,-166.03757393,-170.49153098,-160.24349228,61.28033693,37.48797700
-4.23922327,4.31558976,-2.70807943,-1.04953642,0.94905047

>  <Name>
ligand

>  <RI>
0

>  <Rbt.Current_Directory>
/home/itssahil/PROJECTS/Mol_Feturizer/New_Systems/rnas/1TN2

>  <Rbt.Executable>
rbdock ($Id: //depot/dev/client3/rdock/2013.1/src/exe/rbdock.cxx#4 $)

>  <Rbt.Library>
libRbt.so (2013.1, Build901 2013/11/27)

>  <Rbt.Parameter_File>
/export/apps/rDock/src/rDock_2013.1_src/data/scripts/dock_solv.prm

>  <Rbt.Receptor>
prm/blind_docking_40.prm

>  <SCORE>
8.73139

>  <SCORE.INTER>
5.79891

>  <SCORE.INTER.CONST>
1

>  <SCORE.INTER.POLAR>
0

>  <SCORE.INTER.ROT>
11

>  <SCORE.INTER.SOLV>
6.2962

>  <SCORE.INTER.VDW>
-9.16612

>  <SCORE.INTER.norm>
0.414208

>  <SCORE.INTRA>
2.67987

>  <SCORE.INTRA.DIHEDRAL>
1.37153

>  <SCORE.INTRA.DIHEDRAL.0>
7.79482

>  <SCORE.INTRA.POLAR>
0

>  <SCORE.INTRA.POLAR.0>
0

>  <SCORE.INTRA.REPUL>
0

>  <SCORE.INTRA.REPUL.0>
0

>  <SCORE.INTRA.SOLV>
7.8867

>  <SCORE.INTRA.SOLV.lig_0>
-49.456

>  <SCORE.INTRA.VDW>
-1.94924

>  <SCORE.INTRA.VDW.0>
-0.478406

>  <SCORE.INTRA.norm>
0.191419

>  <SCORE.RESTR>
0.252603

>  <SCORE.RESTR.CAVITY>
0.252603

>  <SCORE.RESTR.norm>
0.0180431

>  <SCORE.SYSTEM>
0

>  <SCORE.SYSTEM.CONST>
0

>  <SCORE.SYSTEM.DIHEDRAL>
0

>  <SCORE.SYSTEM.SOLV>
0

>  <SCORE.SYSTEM.norm>
0

>  <SCORE.heavy>
14

>  <SCORE.norm>
0.623671

>  <RMSD>
19.182

$$$$
ligand
 OpenBabel11021811413D
libRbt.so/2013.1/901 2013/11/27
 14 13  0  0  0  0  0  0  0  0999 V2000
   38.9824   -5.4233   -0.5325 N   0  0  0  0  0  0  0  0  0  0  0  0
   38.7883   -4.9293    0.8479 C   0  0  0  0  0  0  0  0  0  0  0  0
   37.3581   -5.2238    1.3499 C   0  0  0  0  0  0  0  0  0  0  0  0
   37.0171   -4.5990    2.7127 C   0  0  0  0  0  0  0  0  0  0  0  0
   37.1325   -3.1155    2.6644 N   0  0  0  0  0  0  0  0  0  0  0  0
   36.8983   -2.5381    4.0130 C   0  0  0  0  0  0  0  0  0  0  0  0
   37.9429   -1.4702    4.4826 C   0  0  0  0  0  0  0  0  0  0  0  0
   39.3843   -2.0277    4.6617 C   0  0  0  0  0  0  0  0  0  0  0  0
   39.5927   -2.7913    5.9548 C   0  0  0  0  0  0  0  0  0  0  0  0
   38.7073   -3.9402    5.9343 N   0  0  0  0  0  0  0  0  0  0  0  0
   38.6883   -4.4525    7.2933 C   0  0  0  0  0  0  0  0  0  0  0  0
   37.7555   -5.6507    7.4246 C   0  0  0  0  0  0  0  0  0  0  0  0
   36.3185   -5.1449    7.2269 C   0  0  0  0  0  0  0  0  0  0  0  0
   35.9682   -5.0086    5.8052 N   0  0  0  0  0  0  0  0  0  0  0  0
  1  2  1  0  0  0  0
  2  3  1  0  0  0  0
  3  4  1  0  0  0  0
  4  5  1  0  0  0  0
  5  6  1  0  0  0  0
  6  7  1  0  0  0  0
  7  8  1  0  0  0  0
  8  9  1  0  0  0  0
  9 10  1  0  0  0  0
 10 11  1  0  0  0  0
 11 12  1  0  0  0  0
 12 13  1  0  0  0  0
 13 14  1  0  0  0  0
M  END
>  <CHROM.1>
-173.15178545,60.20131556,-175.81129329,132.54198217,-64.27790536,-78.82588544
62.18994333,-166.40175025,178.39251347,-67.81135675,81.88022820,37.89540371
-4.02235370,4.27453054,1.43931987,-1.06511420,-1.75735934

>  <Name>
ligand

>  <RI>
0

>  <Rbt.Current_Directory>
/home/itssahil/PROJECTS/Mol_Feturizer/New_Systems/rnas/1TN2

>  <Rbt.Executable>
rbdock ($Id: //depot/dev/client3/rdock/2013.1/src/exe/rbdock.cxx#4 $)

>  <Rbt.Library>
libRbt.so (2013.1, Build901 2013/11/27)

>  <Rbt.Parameter_File>
/export/apps/rDock/src/rDock_2013.1_src/data/scripts/dock_solv.prm

>  <Rbt.Receptor>
prm/blind_docking_40.prm

>  <SCORE>
6.23393

>  <SCORE.INTER>
4.87673

>  <SCORE.INTER.CONST>
1

>  <SCORE.INTER.POLAR>
0

>  <SCORE.INTER.ROT>
11

>  <SCORE.INTER.SOLV>
6.92155

>  <SCORE.INTER.VDW>
-9.98937

>  <SCORE.INTER.norm>
0.348338

>  <SCORE.INTRA>
0.74367

>  <SCORE.INTRA.DIHEDRAL>
-3.07524

>  <SCORE.INTRA.DIHEDRAL.0>
7.79482

>  <SCORE.INTRA.POLAR>
0

>  <SCORE.INTRA.POLAR.0>
0

>  <SCORE.INTRA.REPUL>
0

>  <SCORE.INTRA.REPUL.0>
0

>  <SCORE.INTRA.SOLV>
7.72906

>  <SCORE.INTRA.SOLV.lig_0>
-49.456

>  <SCORE.INTRA.VDW>
-1.58324

>  <SCORE.INTRA.VDW.0>
-0.478406

>  <SCORE.INTRA.norm>
0.0531193

>  <SCORE.RESTR>
0.61353

>  <SCORE.RESTR.CAVITY>
0.61353

>  <SCORE.RESTR.norm>
0.0438236

>  <SCORE.SYSTEM>
0

>  <SCORE.SYSTEM.CONST>
0

>  <SCORE.SYSTEM.DIHEDRAL>
0

>  <SCORE.SYSTEM.SOLV>
0

>  <SCORE.SYSTEM.norm>
0

>  <SCORE.heavy>
14

>  <SCORE.norm>
0.44528

>  <RMSD>
19.253

$$$$
ligand
 OpenBabel11021811413D
libRbt.so/2013.1/901 2013/11/27
 14 13  0  0  0  0  0  0  0  0999 V2000
   38.5671   -7.0291    4.2092 N   0  0  0  0  0  0  0  0  0  0  0  0
   37.1411   -6.9111    4.5828 C   0  0  0  0  0  0  0  0  0  0  0  0
   36.8796   -5.6179    5.3849 C   0  0  0  0  0  0  0  0  0  0  0  0
   37.5296   -5.5863    6.7779 C   0  0  0  0  0  0  0  0  0  0  0  0
   37.3798   -4.2455    7.4073 N   0  0  0  0  0  0  0  0  0  0  0  0
   38.6783   -3.5241    7.3938 C   0  0  0  0  0  0  0  0  0  0  0  0
   39.2560   -3.1969    5.9756 C   0  0  0  0  0  0  0  0  0  0  0  0
   38.6692   -1.9074    5.3328 C   0  0  0  0  0  0  0  0  0  0  0  0
   37.5424   -2.1665    4.3520 C   0  0  0  0  0  0  0  0  0  0  0  0
   38.1037   -2.8685    3.2133 N   0  0  0  0  0  0  0  0  0  0  0  0
   37.0150   -3.0219    2.2642 C   0  0  0  0  0  0  0  0  0  0  0  0
   37.5359   -3.2741    0.8541 C   0  0  0  0  0  0  0  0  0  0  0  0
   38.1022   -4.7017    0.8162 C   0  0  0  0  0  0  0  0  0  0  0  0
   37.0416   -5.7186    0.7557 N   0  0  0  0  0  0  0  0  0  0  0  0
  1  2  1  0  0  0  0
  2  3  1  0  0  0  0
  3  4  1  0  0  0  0
  4  5  1  0  0  0  0
  5  6  1  0  0  0  0
  6  7  1  0  0  0  0
  7  8  1  0  0  0  0
  8  9  1  0  0  0  0
  9 10  1  0  0  0  0
 10 11  1  0  0  0  0
 11 12  1  0  0  0  0
 12 13  1  0  0  0  0
 13 14  1  0  0  0  0
M  END
>  <CHROM.1>
-67.27403516,172.58557365,-106.40002683,63.22498931,83.03488978,-97.59510371
-66.61534285,-176.49267553,159.46870832,72.09314557,76.35103130,37.81727540
-4.26898085,4.23726254,2.15340877,-1.38276205,-1.02861164

>  <Name>
ligand

>  <RI>
0

>  <Rbt.Current_Directory>
/home/itssahil/PROJECTS/Mol_Feturizer/New_Systems/rnas/1TN2

>  <Rbt.Executable>
rbdock ($Id: //depot/dev/client3/rdock/2013.1/src/exe/rbdock.cxx#4 $)

>  <Rbt.Library>
libRbt.so (2013.1, Build901 2013/11/27)

>  <Rbt.Parameter_File>
/export/apps/rDock/src/rDock_2013.1_src/data/scripts/dock_solv.prm

>  <Rbt.Receptor>
prm/blind_docking_40.prm

>  <SCORE>
10.1484

>  <SCORE.INTER>
7.6341

>  <SCORE.INTER.CONST>
1

>  <SCORE.INTER.POLAR>
0

>  <SCORE.INTER.ROT>
11

>  <SCORE.INTER.SOLV>
10.2646

>  <SCORE.INTER.VDW>
-9.26548

>  <SCORE.INTER.norm>
0.545293

>  <SCORE.INTRA>
2.28002

>  <SCORE.INTRA.DIHEDRAL>
1.6666

>  <SCORE.INTRA.DIHEDRAL.0>
7.79482

>  <SCORE.INTRA.POLAR>
0

>  <SCORE.INTRA.POLAR.0>
0

>  <SCORE.INTRA.REPUL>
0

>  <SCORE.INTRA.REPUL.0>
0

>  <SCORE.INTRA.SOLV>
5.40258

>  <SCORE.INTRA.SOLV.lig_0>
-49.456

>  <SCORE.INTRA.VDW>
-1.25457

>  <SCORE.INTRA.VDW.0>
-0.478406

>  <SCORE.INTRA.norm>
0.162859

>  <SCORE.RESTR>
0.234325

>  <SCORE.RESTR.CAVITY>
0.234325

>  <SCORE.RESTR.norm>
0.0167375

>  <SCORE.SYSTEM>
0

>  <SCORE.SYSTEM.CONST>
0

>  <SCORE.SYSTEM.DIHEDRAL>
0

>  <SCORE.SYSTEM.SOLV>
0

>  <SCORE.SYSTEM.norm>
0

>  <SCORE.heavy>
14

>  <SCORE.norm>
0.724889

>  <RMSD>
19.278

$$$$
ligand
 OpenBabel11021811413D
libRbt.so/2013.1/901 2013/11/27
 14 13  0  0  0  0  0  0  0  0999 V2000
   39.2957   -3.5291    2.5128 N   0  0  0  0  0  0  0  0  0  0  0  0
   38.4050   -2.3795    2.7813 C   0  0  0  0  0  0  0  0  0  0  0  0
   38.9977   -1.4561    3.8676 C   0  0  0  0  0  0  0  0  0  0  0  0
   39.2863   -2.1496    5.2091 C   0  0  0  0  0  0  0  0  0  0  0  0
   38.1596   -3.0389    5.6042 N   0  0  0  0  0  0  0  0  0  0  0  0
   38.6115   -4.0161    6.6277 C   0  0  0  0  0  0  0  0  0  0  0  0
   37.4952   -4.5643    7.5794 C   0  0  0  0  0  0  0  0  0  0  0  0
   36.5451   -5.6005    6.9131 C   0  0  0  0  0  0  0  0  0  0  0  0
   35.8497   -5.0864    5.6678 C   0  0  0  0  0  0  0  0  0  0  0  0
   36.7828   -5.2037    4.5633 N   0  0  0  0  0  0  0  0  0  0  0  0
   36.0717   -4.7287    3.3893 C   0  0  0  0  0  0  0  0  0  0  0  0
   36.6887   -5.2721    2.1058 C   0  0  0  0  0  0  0  0  0  0  0  0
   35.9095   -4.6723    0.9254 C   0  0  0  0  0  0  0  0  0  0  0  0
   36.0004   -3.2050    0.8880 N   0  0  0  0  0  0  0  0  0  0  0  0
  1  2  1  0  0  0  0
  2  3  1  0  0  0  0
  3  4  1  0  0  0  0
  4  5  1  0  0  0  0
  5  6  1  0  0  0  0
  6  7  1  0  0  0  0
  7  8  1  0  0  0  0
  8  9  1  0  0  0  0
  9 10  1  0  0  0  0
 10 11  1  0  0  0  0
 11 12  1  0  0  0  0
 12 13  1  0  0  0  0
 13 14  1  0  0  0  0
M  END
>  <CHROM.1>
-57.48597179,-44.00993331,161.57525570,153.98870576,74.56657926,-56.81457282
81.02556769,178.85631808,-158.03495139,-177.72336067,61.32067342,37.43558768
-3.92166525,4.18852834,-1.80769374,0.77193902,1.82038772

>  <Name>
ligand

>  <RI>
0

>  <Rbt.Current_Directory>
/home/itssahil/PROJECTS/Mol_Feturizer/New_Systems/rnas/1TN2

>  <Rbt.Executable>
rbdock ($Id: //depot/dev/client3/rdock/2013.1/src/exe/rbdock.cxx#4 $)

>  <Rbt.Library>
libRbt.so (2013.1, Build901 2013/11/27)

>  <Rbt.Parameter_File>
/export/apps/rDock/src/rDock_2013.1_src/data/scripts/dock_solv.prm

>  <Rbt.Receptor>
prm/blind_docking_40.prm

>  <SCORE>
10.3805

>  <SCORE.INTER>
6.79529

>  <SCORE.INTER.CONST>
1

>  <SCORE.INTER.POLAR>
0

>  <SCORE.INTER.ROT>
11

>  <SCORE.INTER.SOLV>
3.98028

>  <SCORE.INTER.VDW>
-7.7299

>  <SCORE.INTER.norm>
0.485378

>  <SCORE.INTRA>
3.06555

>  <SCORE.INTRA.DIHEDRAL>
-3.42544

>  <SCORE.INTRA.DIHEDRAL.0>
7.79482

>  <SCORE.INTRA.POLAR>
0

>  <SCORE.INTRA.POLAR.0>
0

>  <SCORE.INTRA.REPUL>
0

>  <SCORE.INTRA.REPUL.0>
0

>  <SCORE.INTRA.SOLV>
11.9941

>  <SCORE.INTRA.SOLV.lig_0>
-49.456

>  <SCORE.INTRA.VDW>
-1.21878

>  <SCORE.INTRA.VDW.0>
-0.478406

>  <SCORE.INTRA.norm>
0.218968

>  <SCORE.RESTR>
0.519641

>  <SCORE.RESTR.CAVITY>
0.519641

>  <SCORE.RESTR.norm>
0.0371172

>  <SCORE.SYSTEM>
0

>  <SCORE.SYSTEM.CONST>
0

>  <SCORE.SYSTEM.DIHEDRAL>
0

>  <SCORE.SYSTEM.SOLV>
0

>  <SCORE.SYSTEM.norm>
0

>  <SCORE.heavy>
14

>  <SCORE.norm>
0.741463

>  <RMSD>
19.331

$$$$
ligand
 OpenBabel11021811413D
libRbt.so/2013.1/901 2013/11/27
 14 13  0  0  0  0  0  0  0  0999 V2000
   38.2967   -6.0699    2.4932 N   0  0  0  0  0  0  0  0  0  0  0  0
   36.9313   -5.5392    2.6964 C   0  0  0  0  0  0  0  0  0  0  0  0
   36.1605   -6.3689    3.7458 C   0  0  0  0  0  0  0  0  0  0  0  0
   36.7289   -6.2839    5.1719 C   0  0  0  0  0  0  0  0  0  0  0  0
   36.3312   -5.0094    5.8306 N   0  0  0  0  0  0  0  0  0  0  0  0
   37.1432   -4.7891    7.0549 C   0  0  0  0  0  0  0  0  0  0  0  0
   38.6290   -4.3580    6.8129 C   0  0  0  0  0  0  0  0  0  0  0  0
   38.7833   -3.0024    6.0654 C   0  0  0  0  0  0  0  0  0  0  0  0
   37.9987   -2.9207    4.7705 C   0  0  0  0  0  0  0  0  0  0  0  0
   38.7964   -2.1692    3.8201 N   0  0  0  0  0  0  0  0  0  0  0  0
   38.6010   -2.8182    2.5355 C   0  0  0  0  0  0  0  0  0  0  0  0
   38.5736   -1.8049    1.3972 C   0  0  0  0  0  0  0  0  0  0  0  0
   37.8134   -2.4433    0.2248 C   0  0  0  0  0  0  0  0  0  0  0  0
   36.3962   -2.6750    0.5421 N   0  0  0  0  0  0  0  0  0  0  0  0
  1  2  1  0  0  0  0
  2  3  1  0  0  0  0
  3  4  1  0  0  0  0
  4  5  1  0  0  0  0
  5  6  1  0  0  0  0
  6  7  1  0  0  0  0
  7  8  1  0  0  0  0
  8  9  1  0  0  0  0
  9 10  1  0  0  0  0
 10 11  1  0  0  0  0
 11 12  1  0  0  0  0
 12 13  1  0  0  0  0
 13 14  1  0  0  0  0
M  END
>  <CHROM.1>
66.02983844,78.07811501,-166.21582404,73.83787699,61.80729324,-52.32174829
-143.24251855,141.55492268,143.94095074,-156.99721693,65.72640798,37.65603616
-4.01801859,3.79749905,1.40312467,-1.06730021,-1.26852207

>  <Name>
ligand

>  <RI>
0

>  <Rbt.Current_Directory>
/home/itssahil/PROJECTS/Mol_Feturizer/New_Systems/rnas/1TN2

>  <Rbt.Executable>
rbdock ($Id: //depot/dev/client3/rdock/2013.1/src/exe/rbdock.cxx#4 $)

>  <Rbt.Library>
libRbt.so (2013.1, Build901 2013/11/27)

>  <Rbt.Parameter_File>
/export/apps/rDock/src/rDock_2013.1_src/data/scripts/dock_solv.prm

>  <Rbt.Receptor>
prm/blind_docking_40.prm

>  <SCORE>
13.5818

>  <SCORE.INTER>
9.52498

>  <SCORE.INTER.CONST>
1

>  <SCORE.INTER.POLAR>
0

>  <SCORE.INTER.ROT>
11

>  <SCORE.INTER.SOLV>
7.06281

>  <SCORE.INTER.VDW>
-6.93762

>  <SCORE.INTER.norm>
0.680356

>  <SCORE.INTRA>
3.67536

>  <SCORE.INTRA.DIHEDRAL>
1.29975

>  <SCORE.INTRA.DIHEDRAL.0>
7.79482

>  <SCORE.INTRA.POLAR>
0

>  <SCORE.INTRA.POLAR.0>
0

>  <SCORE.INTRA.REPUL>
0

>  <SCORE.INTRA.REPUL.0>
0

>  <SCORE.INTRA.SOLV>
7.15664

>  <SCORE.INTRA.SOLV.lig_0>
-49.456

>  <SCORE.INTRA.VDW>
-0.552835

>  <SCORE.INTRA.VDW.0>
-0.478406

>  <SCORE.INTRA.norm>
0.262526

>  <SCORE.RESTR>
0.381498

>  <SCORE.RESTR.CAVITY>
0.381498

>  <SCORE.RESTR.norm>
0.0272498

>  <SCORE.SYSTEM>
0

>  <SCORE.SYSTEM.CONST>
0

>  <SCORE.SYSTEM.DIHEDRAL>
0

>  <SCORE.SYSTEM.SOLV>
0

>  <SCORE.SYSTEM.norm>
0

>  <SCORE.heavy>
14

>  <SCORE.norm>
0.970131

>  <RMSD>
19.380

$$$$
ligand
 OpenBabel11021811413D
libRbt.so/2013.1/901 2013/11/27
 14 13  0  0  0  0  0  0  0  0999 V2000
   35.4048   -4.9485    1.9272 N   0  0  0  0  0  0  0  0  0  0  0  0
   36.2490   -4.8668    3.1388 C   0  0  0  0  0  0  0  0  0  0  0  0
   36.3504   -6.2378    3.8417 C   0  0  0  0  0  0  0  0  0  0  0  0
   37.2131   -6.2421    5.1144 C   0  0  0  0  0  0  0  0  0  0  0  0
   36.5546   -5.4772    6.2088 N   0  0  0  0  0  0  0  0  0  0  0  0
   37.4513   -5.3970    7.3905 C   0  0  0  0  0  0  0  0  0  0  0  0
   38.2620   -4.0652    7.5356 C   0  0  0  0  0  0  0  0  0  0  0  0
   39.1121   -3.6997    6.2849 C   0  0  0  0  0  0  0  0  0  0  0  0
   38.3088   -3.0952    5.1499 C   0  0  0  0  0  0  0  0  0  0  0  0
   39.1802   -3.0064    3.9936 N   0  0  0  0  0  0  0  0  0  0  0  0
   38.4577   -2.2183    3.0104 C   0  0  0  0  0  0  0  0  0  0  0  0
   38.5258   -2.8542    1.6268 C   0  0  0  0  0  0  0  0  0  0  0  0
   37.7011   -1.9782    0.6716 C   0  0  0  0  0  0  0  0  0  0  0  0
   37.5022   -2.6184   -0.6373 N   0  0  0  0  0  0  0  0  0  0  0  0
  1  2  1  0  0  0  0
  2  3  1  0  0  0  0
  3  4  1  0  0  0  0
  4  5  1  0  0  0  0
  5  6  1  0  0  0  0
  6  7  1  0  0  0  0
  7  8  1  0  0  0  0
  8  9  1  0  0  0  0
  9 10  1  0  0  0  0
 10 11  1  0  0  0  0
 11 12  1  0  0  0  0
 12 13  1  0  0  0  0
 13 14  1  0  0  0  0
M  END
>  <CHROM.1>
179.98092768,69.30078912,-175.30778219,98.61137153,-54.89496203,78.22123906
-171.09347851,-170.34375039,-134.25463387,178.23964133,-170.03648888,37.59111428
-4.05038385,3.94735019,1.59051292,-0.82388470,-1.19405098

>  <Name>
ligand

>  <RI>
0

>  <Rbt.Current_Directory>
/home/itssahil/PROJECTS/Mol_Feturizer/New_Systems/rnas/1TN2

>  <Rbt.Executable>
rbdock ($Id: //depot/dev/client3/rdock/2013.1/src/exe/rbdock.cxx#4 $)

>  <Rbt.Library>
libRbt.so (2013.1, Build901 2013/11/27)

>  <Rbt.Parameter_File>
/export/apps/rDock/src/rDock_2013.1_src/data/scripts/dock_solv.prm

>  <Rbt.Receptor>
prm/blind_docking_40.prm

>  <SCORE>
8.29688

>  <SCORE.INTER>
8.60741

>  <SCORE.INTER.CONST>
1

>  <SCORE.INTER.POLAR>
0

>  <SCORE.INTER.ROT>
11

>  <SCORE.INTER.SOLV>
2.58769

>  <SCORE.INTER.VDW>
-6.05762

>  <SCORE.INTER.norm>
0.614815

>  <SCORE.INTRA>
-1.23672

>  <SCORE.INTRA.DIHEDRAL>
-3.41715

>  <SCORE.INTRA.DIHEDRAL.0>
7.79482

>  <SCORE.INTRA.POLAR>
0

>  <SCORE.INTRA.POLAR.0>
0

>  <SCORE.INTRA.REPUL>
0

>  <SCORE.INTRA.REPUL.0>
0

>  <SCORE.INTRA.SOLV>
4.35955

>  <SCORE.INTRA.SOLV.lig_0>
-49.456

>  <SCORE.INTRA.VDW>
-1.70791

>  <SCORE.INTRA.VDW.0>
-0.478406

>  <SCORE.INTRA.norm>
-0.088337

>  <SCORE.RESTR>
0.926182

>  <SCORE.RESTR.CAVITY>
0.926182

>  <SCORE.RESTR.norm>
0.0661558

>  <SCORE.SYSTEM>
0

>  <SCORE.SYSTEM.CONST>
0

>  <SCORE.SYSTEM.DIHEDRAL>
0

>  <SCORE.SYSTEM.SOLV>
0

>  <SCORE.SYSTEM.norm>
0

>  <SCORE.heavy>
14

>  <SCORE.norm>
0.592634

>  <RMSD>
19.398

$$$$
ligand
 OpenBabel11021811413D
libRbt.so/2013.1/901 2013/11/27
 14 13  0  0  0  0  0  0  0  0999 V2000
   37.7850   -5.5461    5.1135 N   0  0  0  0  0  0  0  0  0  0  0  0
   37.3632   -5.6076    6.5297 C   0  0  0  0  0  0  0  0  0  0  0  0
   38.4550   -5.0397    7.4622 C   0  0  0  0  0  0  0  0  0  0  0  0
   38.6500   -3.5176    7.3663 C   0  0  0  0  0  0  0  0  0  0  0  0
   39.0991   -3.1212    6.0034 N   0  0  0  0  0  0  0  0  0  0  0  0
   38.4417   -1.8532    5.5948 C   0  0  0  0  0  0  0  0  0  0  0  0
   39.1720   -1.0440    4.4705 C   0  0  0  0  0  0  0  0  0  0  0  0
   39.4549   -1.8644    3.1792 C   0  0  0  0  0  0  0  0  0  0  0  0
   38.2050   -2.3599    2.4786 C   0  0  0  0  0  0  0  0  0  0  0  0
   38.6075   -2.9080    1.1972 N   0  0  0  0  0  0  0  0  0  0  0  0
   37.5471   -3.8190    0.8031 C   0  0  0  0  0  0  0  0  0  0  0  0
   38.0191   -5.2681    0.8277 C   0  0  0  0  0  0  0  0  0  0  0  0
   36.7717   -6.1639    0.7865 C   0  0  0  0  0  0  0  0  0  0  0  0
   35.9233   -5.9898    1.9750 N   0  0  0  0  0  0  0  0  0  0  0  0
  1  2  1  0  0  0  0
  2  3  1  0  0  0  0
  3  4  1  0  0  0  0
  4  5  1  0  0  0  0
  5  6  1  0  0  0  0
  6  7  1  0  0  0  0
  7  8  1  0  0  0  0
  8  9  1  0  0  0  0
  9 10  1  0  0  0  0
 10 11  1  0  0  0  0
 11 12  1  0  0  0  0
 12 13  1  0  0  0  0
 13 14  1  0  0  0  0
M  END
>  <CHROM.1>
70.18380159,-62.56226575,141.13165435,158.29003473,54.44528215,62.34040329
170.84347465,157.90397420,-111.67689314,164.57421361,-63.60345611,38.10685840
-3.86425637,3.84207828,1.08583209,1.12923744,1.81342563

>  <Name>
ligand

>  <RI>
0

>  <Rbt.Current_Directory>
/home/itssahil/PROJECTS/Mol_Feturizer/New_Systems/rnas/1TN2

>  <Rbt.Executable>
rbdock ($Id: //depot/dev/client3/rdock/2013.1/src/exe/rbdock.cxx#4 $)

>  <Rbt.Library>
libRbt.so (2013.1, Build901 2013/11/27)

>  <Rbt.Parameter_File>
/export/apps/rDock/src/rDock_2013.1_src/data/scripts/dock_solv.prm

>  <Rbt.Receptor>
prm/blind_docking_40.prm

>  <SCORE>
8.32921

>  <SCORE.INTER>
6.7174

>  <SCORE.INTER.CONST>
1

>  <SCORE.INTER.POLAR>
0

>  <SCORE.INTER.ROT>
11

>  <SCORE.INTER.SOLV>
6.33891

>  <SCORE.INTER.VDW>
-8.56804

>  <SCORE.INTER.norm>
0.479814

>  <SCORE.INTRA>
0.954071

>  <SCORE.INTRA.DIHEDRAL>
-3.31646

>  <SCORE.INTRA.DIHEDRAL.0>
7.79482

>  <SCORE.INTRA.POLAR>
0

>  <SCORE.INTRA.POLAR.0>
0

>  <SCORE.INTRA.REPUL>
0

>  <SCORE.INTRA.REPUL.0>
0

>  <SCORE.INTRA.SOLV>
6.93329

>  <SCORE.INTRA.SOLV.lig_0>
-49.456

>  <SCORE.INTRA.VDW>
-0.854342

>  <SCORE.INTRA.VDW.0>
-0.478406

>  <SCORE.INTRA.norm>
0.0681479

>  <SCORE.RESTR>
0.657735

>  <SCORE.RESTR.CAVITY>
0.657735

>  <SCORE.RESTR.norm>
0.0469811

>  <SCORE.SYSTEM>
0

>  <SCORE.SYSTEM.CONST>
0

>  <SCORE.SYSTEM.DIHEDRAL>
0

>  <SCORE.SYSTEM.SOLV>
0

>  <SCORE.SYSTEM.norm>
0

>  <SCORE.heavy>
14

>  <SCORE.norm>
0.594943

>  <RMSD>
19.407

$$$$
ligand
 OpenBabel11021811413D
libRbt.so/2013.1/901 2013/11/27
 14 13  0  0  0  0  0  0  0  0999 V2000
   39.8070   -1.7622    3.3177 N   0  0  0  0  0  0  0  0  0  0  0  0
   38.7518   -1.2502    4.2185 C   0  0  0  0  0  0  0  0  0  0  0  0
   38.8439   -1.9041    5.6142 C   0  0  0  0  0  0  0  0  0  0  0  0
   38.7755   -3.4401    5.6069 C   0  0  0  0  0  0  0  0  0  0  0  0
   38.5684   -3.9724    6.9818 N   0  0  0  0  0  0  0  0  0  0  0  0
   37.9915   -5.3400    6.9214 C   0  0  0  0  0  0  0  0  0  0  0  0
   36.5781   -5.4494    6.2563 C   0  0  0  0  0  0  0  0  0  0  0  0
   36.5105   -6.4534    5.0698 C   0  0  0  0  0  0  0  0  0  0  0  0
   37.4411   -6.1135    3.9220 C   0  0  0  0  0  0  0  0  0  0  0  0
   36.9510   -4.8956    3.3049 N   0  0  0  0  0  0  0  0  0  0  0  0
   37.5866   -4.8265    2.0007 C   0  0  0  0  0  0  0  0  0  0  0  0
   36.5592   -4.6537    0.8881 C   0  0  0  0  0  0  0  0  0  0  0  0
   36.0379   -3.2103    0.9571 C   0  0  0  0  0  0  0  0  0  0  0  0
   35.2213   -2.9714    2.1566 N   0  0  0  0  0  0  0  0  0  0  0  0
  1  2  1  0  0  0  0
  2  3  1  0  0  0  0
  3  4  1  0  0  0  0
  4  5  1  0  0  0  0
  5  6  1  0  0  0  0
  6  7  1  0  0  0  0
  7  8  1  0  0  0  0
  8  9  1  0  0  0  0
  9 10  1  0  0  0  0
 10 11  1  0  0  0  0
 11 12  1  0  0  0  0
 12 13  1  0  0  0  0
 13 14  1  0  0  0  0
M  END
>  <CHROM.1>
-56.54243626,-167.47840906,158.18145647,-62.47422036,124.44019164,-60.26002824
-68.04192849,-162.88320234,126.56544234,73.30171417,-68.94947159,37.54451641
-4.01759305,4.08690792,-0.89662541,-0.95960321,-0.94733595

>  <Name>
ligand

>  <RI>
0

>  <Rbt.Current_Directory>
/home/itssahil/PROJECTS/Mol_Feturizer/New_Systems/rnas/1TN2

>  <Rbt.Executable>
rbdock ($Id: //depot/dev/client3/rdock/2013.1/src/exe/rbdock.cxx#4 $)

>  <Rbt.Library>
libRbt.so (2013.1, Build901 2013/11/27)

>  <Rbt.Parameter_File>
/export/apps/rDock/src/rDock_2013.1_src/data/scripts/dock_solv.prm

>  <Rbt.Receptor>
prm/blind_docking_40.prm

>  <SCORE>
10.5702

>  <SCORE.INTER>
6.62082

>  <SCORE.INTER.CONST>
1

>  <SCORE.INTER.POLAR>
0

>  <SCORE.INTER.ROT>
11

>  <SCORE.INTER.SOLV>
5.97121

>  <SCORE.INTER.VDW>
-8.50985

>  <SCORE.INTER.norm>
0.472916

>  <SCORE.INTRA>
3.17266

>  <SCORE.INTRA.DIHEDRAL>
1.1959

>  <SCORE.INTRA.DIHEDRAL.0>
7.79482

>  <SCORE.INTRA.POLAR>
0

>  <SCORE.INTRA.POLAR.0>
0

>  <SCORE.INTRA.REPUL>
0

>  <SCORE.INTRA.REPUL.0>
0

>  <SCORE.INTRA.SOLV>
6.23462

>  <SCORE.INTRA.SOLV.lig_0>
-49.456

>  <SCORE.INTRA.VDW>
-0.542604

>  <SCORE.INTRA.VDW.0>
-0.478406

>  <SCORE.INTRA.norm>
0.226618

>  <SCORE.RESTR>
0.77676

>  <SCORE.RESTR.CAVITY>
0.77676

>  <SCORE.RESTR.norm>
0.0554828

>  <SCORE.SYSTEM>
0

>  <SCORE.SYSTEM.CONST>
0

>  <SCORE.SYSTEM.DIHEDRAL>
0

>  <SCORE.SYSTEM.SOLV>
0

>  <SCORE.SYSTEM.norm>
0

>  <SCORE.heavy>
14

>  <SCORE.norm>
0.755017

>  <RMSD>
19.484

$$$$
ligand
 OpenBabel11021811413D
libRbt.so/2013.1/901 2013/11/27
 14 13  0  0  0  0  0  0  0  0999 V2000
   38.2902   -6.7658    4.8316 N   0  0  0  0  0  0  0  0  0  0  0  0
   36.8593   -6.4547    5.0386 C   0  0  0  0  0  0  0  0  0  0  0  0
   36.5568   -6.1851    6.5285 C   0  0  0  0  0  0  0  0  0  0  0  0
   36.9252   -4.7724    7.0108 C   0  0  0  0  0  0  0  0  0  0  0  0
   38.3992   -4.6258    7.1593 N   0  0  0  0  0  0  0  0  0  0  0  0
   38.9853   -4.0513    5.9210 C   0  0  0  0  0  0  0  0  0  0  0  0
   38.9180   -2.4915    5.8011 C   0  0  0  0  0  0  0  0  0  0  0  0
   39.4292   -1.9365    4.4405 C   0  0  0  0  0  0  0  0  0  0  0  0
   38.4865   -2.1880    3.2799 C   0  0  0  0  0  0  0  0  0  0  0  0
   38.3742   -3.6241    3.1084 N   0  0  0  0  0  0  0  0  0  0  0  0
   37.2383   -3.8321    2.2274 C   0  0  0  0  0  0  0  0  0  0  0  0
   37.6851   -4.1009    0.7952 C   0  0  0  0  0  0  0  0  0  0  0  0
   38.4245   -5.4475    0.7841 C   0  0  0  0  0  0  0  0  0  0  0  0
   38.9275   -5.7939   -0.5537 N   0  0  0  0  0  0  0  0  0  0  0  0
  1  2  1  0  0  0  0
  2  3  1  0  0  0  0
  3  4  1  0  0  0  0
  4  5  1  0  0  0  0
  5  6  1  0  0  0  0
  6  7  1  0  0  0  0
  7  8  1  0  0  0  0
  8  9  1  0  0  0  0
  9 10  1  0  0  0  0
 10 11  1  0  0  0  0
 11 12  1  0  0  0  0
 12 13  1  0  0  0  0
 13 14  1  0  0  0  0
M  END
>  <CHROM.1>
80.15227131,-74.28077025,94.21474211,83.11367516,-175.00976749,72.87761623
-62.79850686,166.50876160,100.47755751,66.25472908,-178.78693586,38.10694749
-4.44752480,4.02678037,1.83274188,1.20838907,1.33826471

>  <Name>
ligand

>  <RI>
0

>  <Rbt.Current_Directory>
/home/itssahil/PROJECTS/Mol_Feturizer/New_Systems/rnas/1TN2

>  <Rbt.Executable>
rbdock ($Id: //depot/dev/client3/rdock/2013.1/src/exe/rbdock.cxx#4 $)

>  <Rbt.Library>
libRbt.so (2013.1, Build901 2013/11/27)

>  <Rbt.Parameter_File>
/export/apps/rDock/src/rDock_2013.1_src/data/scripts/dock_solv.prm

>  <Rbt.Receptor>
prm/blind_docking_40.prm

>  <SCORE>
10.2513

>  <SCORE.INTER>
7.95006

>  <SCORE.INTER.CONST>
1

>  <SCORE.INTER.POLAR>
0

>  <SCORE.INTER.ROT>
11

>  <SCORE.INTER.SOLV>
6.97712

>  <SCORE.INTER.VDW>
-7.959

>  <SCORE.INTER.norm>
0.567861

>  <SCORE.INTRA>
1.61173

>  <SCORE.INTRA.DIHEDRAL>
-2.53814

>  <SCORE.INTRA.DIHEDRAL.0>
7.79482

>  <SCORE.INTRA.POLAR>
0

>  <SCORE.INTRA.POLAR.0>
0

>  <SCORE.INTRA.REPUL>
0

>  <SCORE.INTRA.REPUL.0>
0

>  <SCORE.INTRA.SOLV>
6.81639

>  <SCORE.INTRA.SOLV.lig_0>
-49.456

>  <SCORE.INTRA.VDW>
-0.527401

>  <SCORE.INTRA.VDW.0>
-0.478406

>  <SCORE.INTRA.norm>
0.115123

>  <SCORE.RESTR>
0.689538

>  <SCORE.RESTR.CAVITY>
0.689538

>  <SCORE.RESTR.norm>
0.0492527

>  <SCORE.SYSTEM>
0

>  <SCORE.SYSTEM.CONST>
0

>  <SCORE.SYSTEM.DIHEDRAL>
0

>  <SCORE.SYSTEM.SOLV>
0

>  <SCORE.SYSTEM.norm>
0

>  <SCORE.heavy>
14

>  <SCORE.norm>
0.732237

>  <RMSD>
19.500

$$$$
ligand
 OpenBabel11021811413D
libRbt.so/2013.1/901 2013/11/27
 14 13  0  0  0  0  0  0  0  0999 V2000
   38.9721   -5.5839   -0.5895 N   0  0  0  0  0  0  0  0  0  0  0  0
   38.4814   -5.0382    0.6945 C   0  0  0  0  0  0  0  0  0  0  0  0
   38.1127   -3.5447    0.5615 C   0  0  0  0  0  0  0  0  0  0  0  0
   37.7451   -2.8560    1.8861 C   0  0  0  0  0  0  0  0  0  0  0  0
   38.8650   -2.9442    2.8631 N   0  0  0  0  0  0  0  0  0  0  0  0
   39.0839   -1.6266    3.5133 C   0  0  0  0  0  0  0  0  0  0  0  0
   38.3855   -1.4326    4.9014 C   0  0  0  0  0  0  0  0  0  0  0  0
   39.0709   -2.1981    6.0697 C   0  0  0  0  0  0  0  0  0  0  0  0
   39.0321   -3.7067    5.9236 C   0  0  0  0  0  0  0  0  0  0  0  0
   37.6389   -4.1096    5.8939 N   0  0  0  0  0  0  0  0  0  0  0  0
   37.6268   -5.5249    6.2204 C   0  0  0  0  0  0  0  0  0  0  0  0
   38.1021   -6.3722    5.0460 C   0  0  0  0  0  0  0  0  0  0  0  0
   37.2913   -5.9513    3.8110 C   0  0  0  0  0  0  0  0  0  0  0  0
   35.8418   -6.0570    4.0356 N   0  0  0  0  0  0  0  0  0  0  0  0
  1  2  1  0  0  0  0
  2  3  1  0  0  0  0
  3  4  1  0  0  0  0
  4  5  1  0  0  0  0
  5  6  1  0  0  0  0
  6  7  1  0  0  0  0
  7  8  1  0  0  0  0
  8  9  1  0  0  0  0
  9 10  1  0  0  0  0
 10 11  1  0  0  0  0
 11 12  1  0  0  0  0
 12 13  1  0  0  0  0
 13 14  1  0  0  0  0
M  END
>  <CHROM.1>
-173.37240071,58.55296719,134.60822449,96.07316773,74.56020011,-64.21035299
-60.81160767,-160.70883081,-75.13635789,-51.35138531,-55.53937801,38.16082066
-4.06732496,3.63099853,1.48330234,-1.21834572,-1.80474008

>  <Name>
ligand

>  <RI>
0

>  <Rbt.Current_Directory>
/home/itssahil/PROJECTS/Mol_Feturizer/New_Systems/rnas/1TN2

>  <Rbt.Executable>
rbdock ($Id: //depot/dev/client3/rdock/2013.1/src/exe/rbdock.cxx#4 $)

>  <Rbt.Library>
libRbt.so (2013.1, Build901 2013/11/27)

>  <Rbt.Parameter_File>
/export/apps/rDock/src/rDock_2013.1_src/data/scripts/dock_solv.prm

>  <Rbt.Receptor>
prm/blind_docking_40.prm

>  <SCORE>
8.57179

>  <SCORE.INTER>
6.38141

>  <SCORE.INTER.CONST>
1

>  <SCORE.INTER.POLAR>
0

>  <SCORE.INTER.ROT>
11

>  <SCORE.INTER.SOLV>
5.92782

>  <SCORE.INTER.VDW>
-8.655

>  <SCORE.INTER.norm>
0.455815

>  <SCORE.INTRA>
1.5583

>  <SCORE.INTRA.DIHEDRAL>
-4.14857

>  <SCORE.INTRA.DIHEDRAL.0>
7.79482

>  <SCORE.INTRA.POLAR>
0

>  <SCORE.INTRA.POLAR.0>
0

>  <SCORE.INTRA.REPUL>
0

>  <SCORE.INTRA.REPUL.0>
0

>  <SCORE.INTRA.SOLV>
6.08488

>  <SCORE.INTRA.SOLV.lig_0>
-49.456

>  <SCORE.INTRA.VDW>
0.590147

>  <SCORE.INTRA.VDW.0>
-0.478406

>  <SCORE.INTRA.norm>
0.111307

>  <SCORE.RESTR>
0.632073

>  <SCORE.RESTR.CAVITY>
0.632073

>  <SCORE.RESTR.norm>
0.0451481

>  <SCORE.SYSTEM>
0

>  <SCORE.SYSTEM.CONST>
0

>  <SCORE.SYSTEM.DIHEDRAL>
0

>  <SCORE.SYSTEM.SOLV>
0

>  <SCORE.SYSTEM.norm>
0

>  <SCORE.heavy>
14

>  <SCORE.norm>
0.612271

>  <RMSD>
19.521

$$$$
ligand
 OpenBabel11021811413D
libRbt.so/2013.1/901 2013/11/27
 14 13  0  0  0  0  0  0  0  0999 V2000
   35.8253   -5.2298    5.8016 N   0  0  0  0  0  0  0  0  0  0  0  0
   36.9976   -6.1093    5.9997 C   0  0  0  0  0  0  0  0  0  0  0  0
   37.6875   -6.4306    4.6563 C   0  0  0  0  0  0  0  0  0  0  0  0
   38.0399   -5.1983    3.8071 C   0  0  0  0  0  0  0  0  0  0  0  0
   39.0545   -4.3503    4.4912 N   0  0  0  0  0  0  0  0  0  0  0  0
   38.3993   -3.4790    5.5002 C   0  0  0  0  0  0  0  0  0  0  0  0
   39.0067   -2.0436    5.6514 C   0  0  0  0  0  0  0  0  0  0  0  0
   38.6879   -1.0907    4.4637 C   0  0  0  0  0  0  0  0  0  0  0  0
   39.3938   -1.4581    3.1731 C   0  0  0  0  0  0  0  0  0  0  0  0
   38.6011   -2.4785    2.5138 N   0  0  0  0  0  0  0  0  0  0  0  0
   38.5557   -2.1030    1.1115 C   0  0  0  0  0  0  0  0  0  0  0  0
   37.4679   -2.8660    0.3648 C   0  0  0  0  0  0  0  0  0  0  0  0
   37.8644   -4.3502    0.3550 C   0  0  0  0  0  0  0  0  0  0  0  0
   36.9014   -5.1776   -0.3871 N   0  0  0  0  0  0  0  0  0  0  0  0
  1  2  1  0  0  0  0
  2  3  1  0  0  0  0
  3  4  1  0  0  0  0
  4  5  1  0  0  0  0
  5  6  1  0  0  0  0
  6  7  1  0  0  0  0
  7  8  1  0  0  0  0
  8  9  1  0  0  0  0
  9 10  1  0  0  0  0
 10 11  1  0  0  0  0
 11 12  1  0  0  0  0
 12 13  1  0  0  0  0
 13 14  1  0  0  0  0
M  END
>  <CHROM.1>
52.22027039,64.66302639,-81.45325988,-143.64070247,72.66428878,-69.69995823
83.74680648,136.20528680,-165.00561489,-65.88786242,-177.94973644,38.03469491
-3.74012245,3.39314088,1.74686521,1.13310757,1.73376191

>  <Name>
ligand

>  <RI>
0

>  <Rbt.Current_Directory>
/home/itssahil/PROJECTS/Mol_Feturizer/New_Systems/rnas/1TN2

>  <Rbt.Executable>
rbdock ($Id: //depot/dev/client3/rdock/2013.1/src/exe/rbdock.cxx#4 $)

>  <Rbt.Library>
libRbt.so (2013.1, Build901 2013/11/27)

>  <Rbt.Parameter_File>
/export/apps/rDock/src/rDock_2013.1_src/data/scripts/dock_solv.prm

>  <Rbt.Receptor>
prm/blind_docking_40.prm

>  <SCORE>
8.48541

>  <SCORE.INTER>
5.39916

>  <SCORE.INTER.CONST>
1

>  <SCORE.INTER.POLAR>
0

>  <SCORE.INTER.ROT>
11

>  <SCORE.INTER.SOLV>
3.92958

>  <SCORE.INTER.VDW>
-8.64375

>  <SCORE.INTER.norm>
0.385654

>  <SCORE.INTRA>
2.45359

>  <SCORE.INTRA.DIHEDRAL>
-2.18884

>  <SCORE.INTRA.DIHEDRAL.0>
7.79482

>  <SCORE.INTRA.POLAR>
0

>  <SCORE.INTRA.POLAR.0>
0

>  <SCORE.INTRA.REPUL>
0

>  <SCORE.INTRA.REPUL.0>
0

>  <SCORE.INTRA.SOLV>
7.09334

>  <SCORE.INTRA.SOLV.lig_0>
-49.456

>  <SCORE.INTRA.VDW>
0.00134137

>  <SCORE.INTRA.VDW.0>
-0.478406

>  <SCORE.INTRA.norm>
0.175257

>  <SCORE.RESTR>
0.632658

>  <SCORE.RESTR.CAVITY>
0.632658

>  <SCORE.RESTR.norm>
0.0451899

>  <SCORE.SYSTEM>
0

>  <SCORE.SYSTEM.CONST>
0

>  <SCORE.SYSTEM.DIHEDRAL>
0

>  <SCORE.SYSTEM.SOLV>
0

>  <SCORE.SYSTEM.norm>
0

>  <SCORE.heavy>
14

>  <SCORE.norm>
0.606101

>  <RMSD>
19.546

$$$$
ligand
 OpenBabel11021811413D
libRbt.so/2013.1/901 2013/11/27
 14 13  0  0  0  0  0  0  0  0999 V2000
   37.8403   -5.8285   -0.5830 N   0  0  0  0  0  0  0  0  0  0  0  0
   37.9840   -4.6071    0.2383 C   0  0  0  0  0  0  0  0  0  0  0  0
   36.9545   -4.5838    1.3887 C   0  0  0  0  0  0  0  0  0  0  0  0
   37.0638   -3.3658    2.3207 C   0  0  0  0  0  0  0  0  0  0  0  0
   38.3995   -3.3126    2.9760 N   0  0  0  0  0  0  0  0  0  0  0  0
   38.7424   -1.9111    3.3296 C   0  0  0  0  0  0  0  0  0  0  0  0
   38.5419   -1.5243    4.8337 C   0  0  0  0  0  0  0  0  0  0  0  0
   39.4467   -2.3179    5.8196 C   0  0  0  0  0  0  0  0  0  0  0  0
   39.1053   -3.7919    5.9177 C   0  0  0  0  0  0  0  0  0  0  0  0
   37.8749   -3.9084    6.6771 N   0  0  0  0  0  0  0  0  0  0  0  0
   37.4745   -5.3009    6.5751 C   0  0  0  0  0  0  0  0  0  0  0  0
   36.6313   -5.5489    5.3298 C   0  0  0  0  0  0  0  0  0  0  0  0
   36.9475   -6.9665    4.8293 C   0  0  0  0  0  0  0  0  0  0  0  0
   38.3419   -7.0993    4.3814 N   0  0  0  0  0  0  0  0  0  0  0  0
  1  2  1  0  0  0  0
  2  3  1  0  0  0  0
  3  4  1  0  0  0  0
  4  5  1  0  0  0  0
  5  6  1  0  0  0  0
  6  7  1  0  0  0  0
  7  8  1  0  0  0  0
  8  9  1  0  0  0  0
  9 10  1  0  0  0  0
 10 11  1  0  0  0  0
 11 12  1  0  0  0  0
 12 13  1  0  0  0  0
 13 14  1  0  0  0  0
M  END
>  <CHROM.1>
178.16296491,-60.40443283,153.52540764,101.41183645,63.08962115,-67.82296584
-73.76258269,171.52362588,-87.07326980,146.54512803,-64.83349618,37.95340025
-4.29020432,3.85976866,1.95374844,-1.26265856,-1.40167381

>  <Name>
ligand

>  <RI>
0

>  <Rbt.Current_Directory>
/home/itssahil/PROJECTS/Mol_Feturizer/New_Systems/rnas/1TN2

>  <Rbt.Executable>
rbdock ($Id: //depot/dev/client3/rdock/2013.1/src/exe/rbdock.cxx#4 $)

>  <Rbt.Library>
libRbt.so (2013.1, Build901 2013/11/27)

>  <Rbt.Parameter_File>
/export/apps/rDock/src/rDock_2013.1_src/data/scripts/dock_solv.prm

>  <Rbt.Receptor>
prm/blind_docking_40.prm

>  <SCORE>
8.7175

>  <SCORE.INTER>
7.3545

>  <SCORE.INTER.CONST>
1

>  <SCORE.INTER.POLAR>
0

>  <SCORE.INTER.ROT>
11

>  <SCORE.INTER.SOLV>
8.11172

>  <SCORE.INTER.VDW>
-8.73424

>  <SCORE.INTER.norm>
0.525322

>  <SCORE.INTRA>
0.858634

>  <SCORE.INTRA.DIHEDRAL>
-1.4677

>  <SCORE.INTRA.DIHEDRAL.0>
7.79482

>  <SCORE.INTRA.POLAR>
0

>  <SCORE.INTRA.POLAR.0>
0

>  <SCORE.INTRA.REPUL>
0

>  <SCORE.INTRA.REPUL.0>
0

>  <SCORE.INTRA.SOLV>
5.43109

>  <SCORE.INTRA.SOLV.lig_0>
-49.456

>  <SCORE.INTRA.VDW>
-1.12306

>  <SCORE.INTRA.VDW.0>
-0.478406

>  <SCORE.INTRA.norm>
0.061331

>  <SCORE.RESTR>
0.504361

>  <SCORE.RESTR.CAVITY>
0.504361

>  <SCORE.RESTR.norm>
0.0360258

>  <SCORE.SYSTEM>
0

>  <SCORE.SYSTEM.CONST>
0

>  <SCORE.SYSTEM.DIHEDRAL>
0

>  <SCORE.SYSTEM.SOLV>
0

>  <SCORE.SYSTEM.norm>
0

>  <SCORE.heavy>
14

>  <SCORE.norm>
0.622678

>  <RMSD>
19.547

$$$$
ligand
 OpenBabel11021811413D
libRbt.so/2013.1/901 2013/11/27
 14 13  0  0  0  0  0  0  0  0999 V2000
   37.2047   -5.6401   -0.2504 N   0  0  0  0  0  0  0  0  0  0  0  0
   36.9938   -4.5937    0.7732 C   0  0  0  0  0  0  0  0  0  0  0  0
   35.5029   -4.2053    0.8752 C   0  0  0  0  0  0  0  0  0  0  0  0
   35.2106   -3.0337    1.8269 C   0  0  0  0  0  0  0  0  0  0  0  0
   35.5250   -3.3983    3.2356 N   0  0  0  0  0  0  0  0  0  0  0  0
   36.5128   -2.4456    3.8043 C   0  0  0  0  0  0  0  0  0  0  0  0
   37.9915   -2.6384    3.3263 C   0  0  0  0  0  0  0  0  0  0  0  0
   39.0262   -1.7672    4.0950 C   0  0  0  0  0  0  0  0  0  0  0  0
   38.9759   -1.9370    5.6008 C   0  0  0  0  0  0  0  0  0  0  0  0
   39.0952   -3.3540    5.8875 N   0  0  0  0  0  0  0  0  0  0  0  0
   38.6222   -3.5256    7.2500 C   0  0  0  0  0  0  0  0  0  0  0  0
   38.3295   -4.9893    7.5585 C   0  0  0  0  0  0  0  0  0  0  0  0
   37.1405   -5.4194    6.6860 C   0  0  0  0  0  0  0  0  0  0  0  0
   37.5501   -5.7513    5.3132 N   0  0  0  0  0  0  0  0  0  0  0  0
  1  2  1  0  0  0  0
  2  3  1  0  0  0  0
  3  4  1  0  0  0  0
  4  5  1  0  0  0  0
  5  6  1  0  0  0  0
  6  7  1  0  0  0  0
  7  8  1  0  0  0  0
  8  9  1  0  0  0  0
  9 10  1  0  0  0  0
 10 11  1  0  0  0  0
 11 12  1  0  0  0  0
 12 13  1  0  0  0  0
 13 14  1  0  0  0  0
M  END
>  <CHROM.1>
-174.77625174,-65.46112855,122.85326679,-75.72921586,-171.44616856,54.33342910
53.53746821,-162.20549215,164.37626177,-66.17462227,80.87273733,37.40580194
-3.76389816,3.99890088,2.51023219,-1.10463645,-0.74784971

>  <Name>
ligand

>  <RI>
0

>  <Rbt.Current_Directory>
/home/itssahil/PROJECTS/Mol_Feturizer/New_Systems/rnas/1TN2

>  <Rbt.Executable>
rbdock ($Id: //depot/dev/client3/rdock/2013.1/src/exe/rbdock.cxx#4 $)

>  <Rbt.Library>
libRbt.so (2013.1, Build901 2013/11/27)

>  <Rbt.Parameter_File>
/export/apps/rDock/src/rDock_2013.1_src/data/scripts/dock_solv.prm

>  <Rbt.Receptor>
prm/blind_docking_40.prm

>  <SCORE>
6.8108

>  <SCORE.INTER>
5.94072

>  <SCORE.INTER.CONST>
1

>  <SCORE.INTER.POLAR>
0

>  <SCORE.INTER.ROT>
11

>  <SCORE.INTER.SOLV>
5.61499

>  <SCORE.INTER.VDW>
-8.84452

>  <SCORE.INTER.norm>
0.424337

>  <SCORE.INTRA>
0.809247

>  <SCORE.INTRA.DIHEDRAL>
-3.5666

>  <SCORE.INTRA.DIHEDRAL.0>
7.79482

>  <SCORE.INTRA.POLAR>
0

>  <SCORE.INTRA.POLAR.0>
0

>  <SCORE.INTRA.REPUL>
0

>  <SCORE.INTRA.REPUL.0>
0

>  <SCORE.INTRA.SOLV>
6.12314

>  <SCORE.INTRA.SOLV.lig_0>
-49.456

>  <SCORE.INTRA.VDW>
-0.469023

>  <SCORE.INTRA.VDW.0>
-0.478406

>  <SCORE.INTRA.norm>
0.0578033

>  <SCORE.RESTR>
0.0608306

>  <SCORE.RESTR.CAVITY>
0.0608306

>  <SCORE.RESTR.norm>
0.00434504

>  <SCORE.SYSTEM>
0

>  <SCORE.SYSTEM.CONST>
0

>  <SCORE.SYSTEM.DIHEDRAL>
0

>  <SCORE.SYSTEM.SOLV>
0

>  <SCORE.SYSTEM.norm>
0

>  <SCORE.heavy>
14

>  <SCORE.norm>
0.486486

>  <RMSD>
19.558

$$$$
ligand
 OpenBabel11021811413D
libRbt.so/2013.1/901 2013/11/27
 14 13  0  0  0  0  0  0  0  0999 V2000
   35.3879   -2.8421    2.1334 N   0  0  0  0  0  0  0  0  0  0  0  0
   36.3586   -3.1352    1.0569 C   0  0  0  0  0  0  0  0  0  0  0  0
   36.7188   -4.6362    1.0238 C   0  0  0  0  0  0  0  0  0  0  0  0
   37.4525   -5.1460    2.2751 C   0  0  0  0  0  0  0  0  0  0  0  0
   36.5754   -5.0725    3.4759 N   0  0  0  0  0  0  0  0  0  0  0  0
   36.3772   -6.4280    4.0506 C   0  0  0  0  0  0  0  0  0  0  0  0
   37.4464   -6.8803    5.1014 C   0  0  0  0  0  0  0  0  0  0  0  0
   37.0277   -6.6348    6.5795 C   0  0  0  0  0  0  0  0  0  0  0  0
   36.9628   -5.1700    6.9657 C   0  0  0  0  0  0  0  0  0  0  0  0
   38.2777   -4.5986    6.7445 N   0  0  0  0  0  0  0  0  0  0  0  0
   38.1010   -3.5744    5.7298 C   0  0  0  0  0  0  0  0  0  0  0  0
   39.3722   -3.3734    4.9131 C   0  0  0  0  0  0  0  0  0  0  0  0
   39.1029   -2.2468    3.9040 C   0  0  0  0  0  0  0  0  0  0  0  0
   38.8957   -0.9485    4.5631 N   0  0  0  0  0  0  0  0  0  0  0  0
  1  2  1  0  0  0  0
  2  3  1  0  0  0  0
  3  4  1  0  0  0  0
  4  5  1  0  0  0  0
  5  6  1  0  0  0  0
  6  7  1  0  0  0  0
  7  8  1  0  0  0  0
  8  9  1  0  0  0  0
  9 10  1  0  0  0  0
 10 11  1  0  0  0  0
 11 12  1  0  0  0  0
 12 13  1  0  0  0  0
 13 14  1  0  0  0  0
M  END
>  <CHROM.1>
-64.57737261,65.48888735,119.37886394,88.33436413,95.78920363,-68.69453989
-58.91881117,117.66290511,-151.87065762,-178.18050256,66.24701660,37.43270162
-4.33516467,4.17975325,1.88988093,-1.00067662,-0.86234786

>  <Name>
ligand

>  <RI>
0

>  <Rbt.Current_Directory>
/home/itssahil/PROJECTS/Mol_Feturizer/New_Systems/rnas/1TN2

>  <Rbt.Executable>
rbdock ($Id: //depot/dev/client3/rdock/2013.1/src/exe/rbdock.cxx#4 $)

>  <Rbt.Library>
libRbt.so (2013.1, Build901 2013/11/27)

>  <Rbt.Parameter_File>
/export/apps/rDock/src/rDock_2013.1_src/data/scripts/dock_solv.prm

>  <Rbt.Receptor>
prm/blind_docking_40.prm

>  <SCORE>
12.6033

>  <SCORE.INTER>
9.94708

>  <SCORE.INTER.CONST>
1

>  <SCORE.INTER.POLAR>
0

>  <SCORE.INTER.ROT>
11

>  <SCORE.INTER.SOLV>
9.29714

>  <SCORE.INTER.VDW>
-7.40099

>  <SCORE.INTER.norm>
0.710506

>  <SCORE.INTRA>
1.85605

>  <SCORE.INTRA.DIHEDRAL>
-0.0596789

>  <SCORE.INTRA.DIHEDRAL.0>
7.79482

>  <SCORE.INTRA.POLAR>
0

>  <SCORE.INTRA.POLAR.0>
0

>  <SCORE.INTRA.REPUL>
0

>  <SCORE.INTRA.REPUL.0>
0

>  <SCORE.INTRA.SOLV>
6.85051

>  <SCORE.INTRA.SOLV.lig_0>
-49.456

>  <SCORE.INTRA.VDW>
-1.53937

>  <SCORE.INTRA.VDW.0>
-0.478406

>  <SCORE.INTRA.norm>
0.132575

>  <SCORE.RESTR>
0.800176

>  <SCORE.RESTR.CAVITY>
0.800176

>  <SCORE.RESTR.norm>
0.0571555

>  <SCORE.SYSTEM>
0

>  <SCORE.SYSTEM.CONST>
0

>  <SCORE.SYSTEM.DIHEDRAL>
0

>  <SCORE.SYSTEM.SOLV>
0

>  <SCORE.SYSTEM.norm>
0

>  <SCORE.heavy>
14

>  <SCORE.norm>
0.900236

>  <RMSD>
19.658

$$$$
ligand
 OpenBabel11021811413D
libRbt.so/2013.1/901 2013/11/27
 14 13  0  0  0  0  0  0  0  0999 V2000
   34.8596   -4.5890    6.0219 N   0  0  0  0  0  0  0  0  0  0  0  0
   35.9572   -4.7970    5.0527 C   0  0  0  0  0  0  0  0  0  0  0  0
   36.4067   -6.2739    5.0271 C   0  0  0  0  0  0  0  0  0  0  0  0
   37.7384   -6.5249    4.3009 C   0  0  0  0  0  0  0  0  0  0  0  0
   38.8515   -5.7826    4.9540 N   0  0  0  0  0  0  0  0  0  0  0  0
   38.9107   -4.3900    4.4404 C   0  0  0  0  0  0  0  0  0  0  0  0
   39.1037   -3.2766    5.5244 C   0  0  0  0  0  0  0  0  0  0  0  0
   38.6555   -1.8591    5.0658 C   0  0  0  0  0  0  0  0  0  0  0  0
   39.0956   -1.4992    3.6602 C   0  0  0  0  0  0  0  0  0  0  0  0
   38.2257   -2.1996    2.7345 N   0  0  0  0  0  0  0  0  0  0  0  0
   39.0321   -2.4692    1.5569 C   0  0  0  0  0  0  0  0  0  0  0  0
   38.1908   -3.0482    0.4255 C   0  0  0  0  0  0  0  0  0  0  0  0
   37.7351   -4.4507    0.8561 C   0  0  0  0  0  0  0  0  0  0  0  0
   36.9032   -5.1028   -0.1664 N   0  0  0  0  0  0  0  0  0  0  0  0
  1  2  1  0  0  0  0
  2  3  1  0  0  0  0
  3  4  1  0  0  0  0
  4  5  1  0  0  0  0
  5  6  1  0  0  0  0
  6  7  1  0  0  0  0
  7  8  1  0  0  0  0
  8  9  1  0  0  0  0
  9 10  1  0  0  0  0
 10 11  1  0  0  0  0
 11 12  1  0  0  0  0
 12 13  1  0  0  0  0
 13 14  1  0  0  0  0
M  END
>  <CHROM.1>
-166.64434204,60.65391817,-84.80894611,135.25221675,-158.92002834,-43.72413931
76.59137269,-149.00275960,-172.74704122,-67.93816720,179.65217160,37.83352246
-4.01859776,3.53248808,2.13559643,0.99074070,1.53684942

>  <Name>
ligand

>  <RI>
0

>  <Rbt.Current_Directory>
/home/itssahil/PROJECTS/Mol_Feturizer/New_Systems/rnas/1TN2

>  <Rbt.Executable>
rbdock ($Id: //depot/dev/client3/rdock/2013.1/src/exe/rbdock.cxx#4 $)

>  <Rbt.Library>
libRbt.so (2013.1, Build901 2013/11/27)

>  <Rbt.Parameter_File>
/export/apps/rDock/src/rDock_2013.1_src/data/scripts/dock_solv.prm

>  <Rbt.Receptor>
prm/blind_docking_40.prm

>  <SCORE>
9.62233

>  <SCORE.INTER>
7.51469

>  <SCORE.INTER.CONST>
1

>  <SCORE.INTER.POLAR>
0

>  <SCORE.INTER.ROT>
11

>  <SCORE.INTER.SOLV>
4.77477

>  <SCORE.INTER.VDW>
-7.51513

>  <SCORE.INTER.norm>
0.536764

>  <SCORE.INTRA>
1.24215

>  <SCORE.INTRA.DIHEDRAL>
-1.23795

>  <SCORE.INTRA.DIHEDRAL.0>
7.79482

>  <SCORE.INTRA.POLAR>
0

>  <SCORE.INTRA.POLAR.0>
0

>  <SCORE.INTRA.REPUL>
0

>  <SCORE.INTRA.REPUL.0>
0

>  <SCORE.INTRA.SOLV>
2.63754

>  <SCORE.INTRA.SOLV.lig_0>
-49.456

>  <SCORE.INTRA.VDW>
0.54236

>  <SCORE.INTRA.VDW.0>
-0.478406

>  <SCORE.INTRA.norm>
0.0887253

>  <SCORE.RESTR>
0.865478

>  <SCORE.RESTR.CAVITY>
0.865478

>  <SCORE.RESTR.norm>
0.0618198

>  <SCORE.SYSTEM>
0

>  <SCORE.SYSTEM.CONST>
0

>  <SCORE.SYSTEM.DIHEDRAL>
0

>  <SCORE.SYSTEM.SOLV>
0

>  <SCORE.SYSTEM.norm>
0

>  <SCORE.heavy>
14

>  <SCORE.norm>
0.687309

>  <RMSD>
19.675

$$$$
ligand
 OpenBabel11021811413D
libRbt.so/2013.1/901 2013/11/27
 14 13  0  0  0  0  0  0  0  0999 V2000
   37.4374   -7.0235    5.1174 N   0  0  0  0  0  0  0  0  0  0  0  0
   37.5399   -5.5849    5.4447 C   0  0  0  0  0  0  0  0  0  0  0  0
   38.2705   -5.3689    6.7877 C   0  0  0  0  0  0  0  0  0  0  0  0
   38.5005   -3.8953    7.1612 C   0  0  0  0  0  0  0  0  0  0  0  0
   39.3633   -3.2174    6.1550 N   0  0  0  0  0  0  0  0  0  0  0  0
   38.6056   -2.1359    5.4744 C   0  0  0  0  0  0  0  0  0  0  0  0
   38.0447   -2.4918    4.0563 C   0  0  0  0  0  0  0  0  0  0  0  0
   39.1407   -2.8454    3.0102 C   0  0  0  0  0  0  0  0  0  0  0  0
   38.5911   -3.2644    1.6607 C   0  0  0  0  0  0  0  0  0  0  0  0
   37.6394   -2.2533    1.2407 N   0  0  0  0  0  0  0  0  0  0  0  0
   36.6806   -2.9377    0.3910 C   0  0  0  0  0  0  0  0  0  0  0  0
   35.5025   -3.4719    1.1972 C   0  0  0  0  0  0  0  0  0  0  0  0
   35.9649   -4.7577    1.8994 C   0  0  0  0  0  0  0  0  0  0  0  0
   36.4288   -5.7758    0.9450 N   0  0  0  0  0  0  0  0  0  0  0  0
  1  2  1  0  0  0  0
  2  3  1  0  0  0  0
  3  4  1  0  0  0  0
  4  5  1  0  0  0  0
  5  6  1  0  0  0  0
  6  7  1  0  0  0  0
  7  8  1  0  0  0  0
  8  9  1  0  0  0  0
  9 10  1  0  0  0  0
 10 11  1  0  0  0  0
 11 12  1  0  0  0  0
 12 13  1  0  0  0  0
 13 14  1  0  0  0  0
M  END
>  <CHROM.1>
176.27473227,-61.93209398,116.15682639,-100.32324637,-61.47688496,176.76376753
50.93483072,-151.72623826,90.60080613,-78.13340874,-58.68260455,37.69355982
-3.93001820,3.61015466,0.94248681,1.01671641,2.26902325

>  <Name>
ligand

>  <RI>
0

>  <Rbt.Current_Directory>
/home/itssahil/PROJECTS/Mol_Feturizer/New_Systems/rnas/1TN2

>  <Rbt.Executable>
rbdock ($Id: //depot/dev/client3/rdock/2013.1/src/exe/rbdock.cxx#4 $)

>  <Rbt.Library>
libRbt.so (2013.1, Build901 2013/11/27)

>  <Rbt.Parameter_File>
/export/apps/rDock/src/rDock_2013.1_src/data/scripts/dock_solv.prm

>  <Rbt.Receptor>
prm/blind_docking_40.prm

>  <SCORE>
9.5809

>  <SCORE.INTER>
8.24736

>  <SCORE.INTER.CONST>
1

>  <SCORE.INTER.POLAR>
0

>  <SCORE.INTER.ROT>
11

>  <SCORE.INTER.SOLV>
4.89943

>  <SCORE.INTER.VDW>
-7.06824

>  <SCORE.INTER.norm>
0.589097

>  <SCORE.INTRA>
0.761533

>  <SCORE.INTRA.DIHEDRAL>
-2.94991

>  <SCORE.INTRA.DIHEDRAL.0>
7.79482

>  <SCORE.INTRA.POLAR>
0

>  <SCORE.INTRA.POLAR.0>
0

>  <SCORE.INTRA.REPUL>
0

>  <SCORE.INTRA.REPUL.0>
0

>  <SCORE.INTRA.SOLV>
4.38816

>  <SCORE.INTRA.SOLV.lig_0>
-49.456

>  <SCORE.INTRA.VDW>
0.042411

>  <SCORE.INTRA.VDW.0>
-0.478406

>  <SCORE.INTRA.norm>
0.0543952

>  <SCORE.RESTR>
0.572005

>  <SCORE.RESTR.CAVITY>
0.572005

>  <SCORE.RESTR.norm>
0.0408575

>  <SCORE.SYSTEM>
0

>  <SCORE.SYSTEM.CONST>
0

>  <SCORE.SYSTEM.DIHEDRAL>
0

>  <SCORE.SYSTEM.SOLV>
0

>  <SCORE.SYSTEM.norm>
0

>  <SCORE.heavy>
14

>  <SCORE.norm>
0.68435

>  <RMSD>
19.682

$$$$
ligand
 OpenBabel11021811413D
libRbt.so/2013.1/901 2013/11/27
 14 13  0  0  0  0  0  0  0  0999 V2000
   39.0828   -1.4745    3.9001 N   0  0  0  0  0  0  0  0  0  0  0  0
   39.0163   -1.8034    5.3405 C   0  0  0  0  0  0  0  0  0  0  0  0
   38.8954   -3.3269    5.5600 C   0  0  0  0  0  0  0  0  0  0  0  0
   38.6028   -3.7431    7.0109 C   0  0  0  0  0  0  0  0  0  0  0  0
   38.4108   -5.2157    7.1160 N   0  0  0  0  0  0  0  0  0  0  0  0
   37.1517   -5.6190    6.4387 C   0  0  0  0  0  0  0  0  0  0  0  0
   37.3033   -6.0889    4.9526 C   0  0  0  0  0  0  0  0  0  0  0  0
   35.9980   -5.9739    4.1139 C   0  0  0  0  0  0  0  0  0  0  0  0
   35.4861   -4.5547    3.9635 C   0  0  0  0  0  0  0  0  0  0  0  0
   36.5211   -3.7818    3.3033 N   0  0  0  0  0  0  0  0  0  0  0  0
   35.8914   -3.1879    2.1369 C   0  0  0  0  0  0  0  0  0  0  0  0
   36.8781   -3.0411    0.9844 C   0  0  0  0  0  0  0  0  0  0  0  0
   37.2599   -4.4538    0.5168 C   0  0  0  0  0  0  0  0  0  0  0  0
   38.3657   -4.4381   -0.4526 N   0  0  0  0  0  0  0  0  0  0  0  0
  1  2  1  0  0  0  0
  2  3  1  0  0  0  0
  3  4  1  0  0  0  0
  4  5  1  0  0  0  0
  5  6  1  0  0  0  0
  6  7  1  0  0  0  0
  7  8  1  0  0  0  0
  8  9  1  0  0  0  0
  9 10  1  0  0  0  0
 10 11  1  0  0  0  0
 11 12  1  0  0  0  0
 12 13  1  0  0  0  0
 13 14  1  0  0  0  0
M  END
>  <CHROM.1>
-171.00289465,176.14915778,-68.60502624,94.60411556,-157.47638357,62.50737122
59.89881348,125.00506059,-147.75785106,66.76330998,-171.10097466,37.49000284
-4.05033224,3.92053140,-1.26387085,-0.92412663,-1.23303731

>  <Name>
ligand

>  <RI>
0

>  <Rbt.Current_Directory>
/home/itssahil/PROJECTS/Mol_Feturizer/New_Systems/rnas/1TN2

>  <Rbt.Executable>
rbdock ($Id: //depot/dev/client3/rdock/2013.1/src/exe/rbdock.cxx#4 $)

>  <Rbt.Library>
libRbt.so (2013.1, Build901 2013/11/27)

>  <Rbt.Parameter_File>
/export/apps/rDock/src/rDock_2013.1_src/data/scripts/dock_solv.prm

>  <Rbt.Receptor>
prm/blind_docking_40.prm

>  <SCORE>
8.38775

>  <SCORE.INTER>
7.85384

>  <SCORE.INTER.CONST>
1

>  <SCORE.INTER.POLAR>
0

>  <SCORE.INTER.ROT>
11

>  <SCORE.INTER.SOLV>
5.17519

>  <SCORE.INTER.VDW>
-7.42251

>  <SCORE.INTER.norm>
0.560988

>  <SCORE.INTRA>
0.485269

>  <SCORE.INTRA.DIHEDRAL>
-2.58655

>  <SCORE.INTRA.DIHEDRAL.0>
7.79482

>  <SCORE.INTRA.POLAR>
0

>  <SCORE.INTRA.POLAR.0>
0

>  <SCORE.INTRA.REPUL>
0

>  <SCORE.INTRA.REPUL.0>
0

>  <SCORE.INTRA.SOLV>
3.95727

>  <SCORE.INTRA.SOLV.lig_0>
-49.456

>  <SCORE.INTRA.VDW>
-0.200095

>  <SCORE.INTRA.VDW.0>
-0.478406

>  <SCORE.INTRA.norm>
0.034662

>  <SCORE.RESTR>
0.0486408

>  <SCORE.RESTR.CAVITY>
0.0486408

>  <SCORE.RESTR.norm>
0.00347434

>  <SCORE.SYSTEM>
0

>  <SCORE.SYSTEM.CONST>
0

>  <SCORE.SYSTEM.DIHEDRAL>
0

>  <SCORE.SYSTEM.SOLV>
0

>  <SCORE.SYSTEM.norm>
0

>  <SCORE.heavy>
14

>  <SCORE.norm>
0.599125

>  <RMSD>
19.697

$$$$
ligand
 OpenBabel11021811413D
libRbt.so/2013.1/901 2013/11/27
 14 13  0  0  0  0  0  0  0  0999 V2000
   37.9704   -5.3785    0.4201 N   0  0  0  0  0  0  0  0  0  0  0  0
   36.5797   -5.7430    0.7669 C   0  0  0  0  0  0  0  0  0  0  0  0
   35.7080   -4.4853    0.9728 C   0  0  0  0  0  0  0  0  0  0  0  0
   36.1471   -3.5865    2.1403 C   0  0  0  0  0  0  0  0  0  0  0  0
   37.4771   -2.9736    1.8720 N   0  0  0  0  0  0  0  0  0  0  0  0
   38.3082   -2.9909    3.1031 C   0  0  0  0  0  0  0  0  0  0  0  0
   38.0063   -1.8564    4.1394 C   0  0  0  0  0  0  0  0  0  0  0  0
   39.0829   -1.7105    5.2530 C   0  0  0  0  0  0  0  0  0  0  0  0
   38.9433   -2.7156    6.3796 C   0  0  0  0  0  0  0  0  0  0  0  0
   39.1033   -4.0398    5.8093 N   0  0  0  0  0  0  0  0  0  0  0  0
   38.5805   -4.9653    6.7992 C   0  0  0  0  0  0  0  0  0  0  0  0
   37.2857   -5.6154    6.3259 C   0  0  0  0  0  0  0  0  0  0  0  0
   37.6177   -6.4680    5.0919 C   0  0  0  0  0  0  0  0  0  0  0  0
   36.4114   -7.0199    4.4571 N   0  0  0  0  0  0  0  0  0  0  0  0
  1  2  1  0  0  0  0
  2  3  1  0  0  0  0
  3  4  1  0  0  0  0
  4  5  1  0  0  0  0
  5  6  1  0  0  0  0
  6  7  1  0  0  0  0
  7  8  1  0  0  0  0
  8  9  1  0  0  0  0
  9 10  1  0  0  0  0
 10 11  1  0  0  0  0
 11 12  1  0  0  0  0
 12 13  1  0  0  0  0
 13 14  1  0  0  0  0
M  END
>  <CHROM.1>
-62.99478955,66.20741647,-138.72824433,-80.30031657,-167.22662883,-80.57979769
61.64454686,-163.52483083,110.77459786,64.46935971,-173.38341729,37.65863832
-4.25324895,3.82388761,2.54781142,-1.13856593,-0.83784811

>  <Name>
ligand

>  <RI>
0

>  <Rbt.Current_Directory>
/home/itssahil/PROJECTS/Mol_Feturizer/New_Systems/rnas/1TN2

>  <Rbt.Executable>
rbdock ($Id: //depot/dev/client3/rdock/2013.1/src/exe/rbdock.cxx#4 $)

>  <Rbt.Library>
libRbt.so (2013.1, Build901 2013/11/27)

>  <Rbt.Parameter_File>
/export/apps/rDock/src/rDock_2013.1_src/data/scripts/dock_solv.prm

>  <Rbt.Receptor>
prm/blind_docking_40.prm

>  <SCORE>
7.8832

>  <SCORE.INTER>
6.74106

>  <SCORE.INTER.CONST>
1

>  <SCORE.INTER.POLAR>
0

>  <SCORE.INTER.ROT>
11

>  <SCORE.INTER.SOLV>
5.43935

>  <SCORE.INTER.VDW>
-8.25241

>  <SCORE.INTER.norm>
0.481504

>  <SCORE.INTRA>
0.691221

>  <SCORE.INTRA.DIHEDRAL>
-2.57805

>  <SCORE.INTRA.DIHEDRAL.0>
7.79482

>  <SCORE.INTRA.POLAR>
0

>  <SCORE.INTRA.POLAR.0>
0

>  <SCORE.INTRA.REPUL>
0

>  <SCORE.INTRA.REPUL.0>
0

>  <SCORE.INTRA.SOLV>
6.05198

>  <SCORE.INTRA.SOLV.lig_0>
-49.456

>  <SCORE.INTRA.VDW>
-1.04574

>  <SCORE.INTRA.VDW.0>
-0.478406

>  <SCORE.INTRA.norm>
0.049373

>  <SCORE.RESTR>
0.450925

>  <SCORE.RESTR.CAVITY>
0.450925

>  <SCORE.RESTR.norm>
0.0322089

>  <SCORE.SYSTEM>
0

>  <SCORE.SYSTEM.CONST>
0

>  <SCORE.SYSTEM.DIHEDRAL>
0

>  <SCORE.SYSTEM.SOLV>
0

>  <SCORE.SYSTEM.norm>
0

>  <SCORE.heavy>
14

>  <SCORE.norm>
0.563086

>  <RMSD>
19.713

$$$$
ligand
 OpenBabel11021811413D
libRbt.so/2013.1/901 2013/11/27
 14 13  0  0  0  0  0  0  0  0999 V2000
   38.0169   -5.4962   -1.2924 N   0  0  0  0  0  0  0  0  0  0  0  0
   37.1352   -5.6192   -0.1114 C   0  0  0  0  0  0  0  0  0  0  0  0
   36.8504   -4.2386    0.5185 C   0  0  0  0  0  0  0  0  0  0  0  0
   36.2175   -4.2925    1.9187 C   0  0  0  0  0  0  0  0  0  0  0  0
   37.0872   -5.0375    2.8700 N   0  0  0  0  0  0  0  0  0  0  0  0
   36.4129   -5.1689    4.1871 C   0  0  0  0  0  0  0  0  0  0  0  0
   36.9416   -6.3212    5.1061 C   0  0  0  0  0  0  0  0  0  0  0  0
   36.4360   -6.2445    6.5754 C   0  0  0  0  0  0  0  0  0  0  0  0
   36.7774   -4.9443    7.2767 C   0  0  0  0  0  0  0  0  0  0  0  0
   38.2212   -4.8780    7.4009 N   0  0  0  0  0  0  0  0  0  0  0  0
   38.5851   -3.5072    7.0874 C   0  0  0  0  0  0  0  0  0  0  0  0
   38.8000   -3.3156    5.5907 C   0  0  0  0  0  0  0  0  0  0  0  0
   38.9683   -1.8103    5.3343 C   0  0  0  0  0  0  0  0  0  0  0  0
   39.0993   -1.5020    3.9023 N   0  0  0  0  0  0  0  0  0  0  0  0
  1  2  1  0  0  0  0
  2  3  1  0  0  0  0
  3  4  1  0  0  0  0
  4  5  1  0  0  0  0
  5  6  1  0  0  0  0
  6  7  1  0  0  0  0
  7  8  1  0  0  0  0
  8  9  1  0  0  0  0
  9 10  1  0  0  0  0
 10 11  1  0  0  0  0
 11 12  1  0  0  0  0
 12 13  1  0  0  0  0
 13 14  1  0  0  0  0
M  END
>  <CHROM.1>
-166.70984848,58.46300348,-175.66146513,159.21725119,167.62378651,-57.41364515
-65.34670164,138.16484406,-87.54885912,171.59457035,-176.43820113,37.53897243
-4.45552150,4.02633841,-1.76529627,1.02301539,1.61945206

>  <Name>
ligand

>  <RI>
0

>  <Rbt.Current_Directory>
/home/itssahil/PROJECTS/Mol_Feturizer/New_Systems/rnas/1TN2

>  <Rbt.Executable>
rbdock ($Id: //depot/dev/client3/rdock/2013.1/src/exe/rbdock.cxx#4 $)

>  <Rbt.Library>
libRbt.so (2013.1, Build901 2013/11/27)

>  <Rbt.Parameter_File>
/export/apps/rDock/src/rDock_2013.1_src/data/scripts/dock_solv.prm

>  <Rbt.Receptor>
prm/blind_docking_40.prm

>  <SCORE>
7.06296

>  <SCORE.INTER>
7.57474

>  <SCORE.INTER.CONST>
1

>  <SCORE.INTER.POLAR>
0

>  <SCORE.INTER.ROT>
11

>  <SCORE.INTER.SOLV>
8.84581

>  <SCORE.INTER.VDW>
-8.83211

>  <SCORE.INTER.norm>
0.541053

>  <SCORE.INTRA>
-1.46808

>  <SCORE.INTRA.DIHEDRAL>
-4.32971

>  <SCORE.INTRA.DIHEDRAL.0>
7.79482

>  <SCORE.INTRA.POLAR>
0

>  <SCORE.INTRA.POLAR.0>
0

>  <SCORE.INTRA.REPUL>
0

>  <SCORE.INTRA.REPUL.0>
0

>  <SCORE.INTRA.SOLV>
2.11266

>  <SCORE.INTRA.SOLV.lig_0>
-49.456

>  <SCORE.INTRA.VDW>
-0.359559

>  <SCORE.INTRA.VDW.0>
-0.478406

>  <SCORE.INTRA.norm>
-0.104863

>  <SCORE.RESTR>
0.9563

>  <SCORE.RESTR.CAVITY>
0.9563

>  <SCORE.RESTR.norm>
0.0683071

>  <SCORE.SYSTEM>
0

>  <SCORE.SYSTEM.CONST>
0

>  <SCORE.SYSTEM.DIHEDRAL>
0

>  <SCORE.SYSTEM.SOLV>
0

>  <SCORE.SYSTEM.norm>
0

>  <SCORE.heavy>
14

>  <SCORE.norm>
0.504497

>  <RMSD>
19.743

$$$$
ligand
 OpenBabel11021811413D
libRbt.so/2013.1/901 2013/11/27
 14 13  0  0  0  0  0  0  0  0999 V2000
   35.5638   -6.0091    6.5051 N   0  0  0  0  0  0  0  0  0  0  0  0
   36.4530   -4.8473    6.2887 C   0  0  0  0  0  0  0  0  0  0  0  0
   37.6511   -4.8726    7.2623 C   0  0  0  0  0  0  0  0  0  0  0  0
   38.5823   -3.6532    7.1629 C   0  0  0  0  0  0  0  0  0  0  0  0
   39.1858   -3.5510    5.8058 N   0  0  0  0  0  0  0  0  0  0  0  0
   39.0962   -2.1542    5.3080 C   0  0  0  0  0  0  0  0  0  0  0  0
   37.8040   -1.8075    4.4942 C   0  0  0  0  0  0  0  0  0  0  0  0
   37.5673   -2.7222    3.2582 C   0  0  0  0  0  0  0  0  0  0  0  0
   38.5303   -2.4722    2.1140 C   0  0  0  0  0  0  0  0  0  0  0  0
   38.0307   -3.1874    0.9550 N   0  0  0  0  0  0  0  0  0  0  0  0
   38.8777   -4.3590    0.8147 C   0  0  0  0  0  0  0  0  0  0  0  0
   38.2618   -5.3823   -0.1322 C   0  0  0  0  0  0  0  0  0  0  0  0
   37.0530   -6.0069    0.5810 C   0  0  0  0  0  0  0  0  0  0  0  0
   36.0353   -5.0045    0.9306 N   0  0  0  0  0  0  0  0  0  0  0  0
  1  2  1  0  0  0  0
  2  3  1  0  0  0  0
  3  4  1  0  0  0  0
  4  5  1  0  0  0  0
  5  6  1  0  0  0  0
  6  7  1  0  0  0  0
  7  8  1  0  0  0  0
  8  9  1  0  0  0  0
  9 10  1  0  0  0  0
 10 11  1  0  0  0  0
 11 12  1  0  0  0  0
 12 13  1  0  0  0  0
 13 14  1  0  0  0  0
M  END
>  <CHROM.1>
-176.47616594,-61.04781080,133.85212092,-90.34643583,-56.54732921,-71.75895665
-168.68923704,-104.35786050,165.43334392,-71.16181831,60.10111286,37.76395727
-4.00192013,3.66777555,1.59047513,0.95092157,1.47280469

>  <Name>
ligand

>  <RI>
0

>  <Rbt.Current_Directory>
/home/itssahil/PROJECTS/Mol_Feturizer/New_Systems/rnas/1TN2

>  <Rbt.Executable>
rbdock ($Id: //depot/dev/client3/rdock/2013.1/src/exe/rbdock.cxx#4 $)

>  <Rbt.Library>
libRbt.so (2013.1, Build901 2013/11/27)

>  <Rbt.Parameter_File>
/export/apps/rDock/src/rDock_2013.1_src/data/scripts/dock_solv.prm

>  <Rbt.Receptor>
prm/blind_docking_40.prm

>  <SCORE>
6.24344

>  <SCORE.INTER>
5.24309

>  <SCORE.INTER.CONST>
1

>  <SCORE.INTER.POLAR>
0

>  <SCORE.INTER.ROT>
11

>  <SCORE.INTER.SOLV>
5.2047

>  <SCORE.INTER.VDW>
-9.17284

>  <SCORE.INTER.norm>
0.374506

>  <SCORE.INTRA>
0.324588

>  <SCORE.INTRA.DIHEDRAL>
-3.37293

>  <SCORE.INTRA.DIHEDRAL.0>
7.79482

>  <SCORE.INTRA.POLAR>
0

>  <SCORE.INTRA.POLAR.0>
0

>  <SCORE.INTRA.REPUL>
0

>  <SCORE.INTRA.REPUL.0>
0

>  <SCORE.INTRA.SOLV>
5.08167

>  <SCORE.INTRA.SOLV.lig_0>
-49.456

>  <SCORE.INTRA.VDW>
-0.529784

>  <SCORE.INTRA.VDW.0>
-0.478406

>  <SCORE.INTRA.norm>
0.0231849

>  <SCORE.RESTR>
0.675765

>  <SCORE.RESTR.CAVITY>
0.675765

>  <SCORE.RESTR.norm>
0.0482689

>  <SCORE.SYSTEM>
0

>  <SCORE.SYSTEM.CONST>
0

>  <SCORE.SYSTEM.DIHEDRAL>
0

>  <SCORE.SYSTEM.SOLV>
0

>  <SCORE.SYSTEM.norm>
0

>  <SCORE.heavy>
14

>  <SCORE.norm>
0.44596

>  <RMSD>
19.744

$$$$
ligand
 OpenBabel11021811413D
libRbt.so/2013.1/901 2013/11/27
 14 13  0  0  0  0  0  0  0  0999 V2000
   38.6121   -6.8962    4.2658 N   0  0  0  0  0  0  0  0  0  0  0  0
   37.2846   -6.2847    4.4912 C   0  0  0  0  0  0  0  0  0  0  0  0
   36.9893   -6.1322    5.9991 C   0  0  0  0  0  0  0  0  0  0  0  0
   38.0076   -5.2733    6.7668 C   0  0  0  0  0  0  0  0  0  0  0  0
   37.8284   -3.8280    6.4577 N   0  0  0  0  0  0  0  0  0  0  0  0
   39.1236   -3.2260    6.0490 C   0  0  0  0  0  0  0  0  0  0  0  0
   39.0220   -1.9174    5.1951 C   0  0  0  0  0  0  0  0  0  0  0  0
   38.2743   -2.0978    3.8428 C   0  0  0  0  0  0  0  0  0  0  0  0
   36.8316   -2.5397    3.9913 C   0  0  0  0  0  0  0  0  0  0  0  0
   36.2338   -2.5400    2.6696 N   0  0  0  0  0  0  0  0  0  0  0  0
   36.3203   -3.9097    2.1940 C   0  0  0  0  0  0  0  0  0  0  0  0
   37.1807   -4.0112    0.9399 C   0  0  0  0  0  0  0  0  0  0  0  0
   37.1798   -5.4812    0.4935 C   0  0  0  0  0  0  0  0  0  0  0  0
   38.0205   -5.7020   -0.6928 N   0  0  0  0  0  0  0  0  0  0  0  0
  1  2  1  0  0  0  0
  2  3  1  0  0  0  0
  3  4  1  0  0  0  0
  4  5  1  0  0  0  0
  5  6  1  0  0  0  0
  6  7  1  0  0  0  0
  7  8  1  0  0  0  0
  8  9  1  0  0  0  0
  9 10  1  0  0  0  0
 10 11  1  0  0  0  0
 11 12  1  0  0  0  0
 12 13  1  0  0  0  0
 13 14  1  0  0  0  0
M  END
>  <CHROM.1>
58.91478358,74.04896183,-128.25724064,157.70530037,-60.66837776,61.27076610
174.60772657,96.45767114,-117.75594749,-178.45292771,-178.18241828,37.63631765
-4.27404338,3.76188775,-0.10994269,1.40614904,3.12368823

>  <Name>
ligand

>  <RI>
0

>  <Rbt.Current_Directory>
/home/itssahil/PROJECTS/Mol_Feturizer/New_Systems/rnas/1TN2

>  <Rbt.Executable>
rbdock ($Id: //depot/dev/client3/rdock/2013.1/src/exe/rbdock.cxx#4 $)

>  <Rbt.Library>
libRbt.so (2013.1, Build901 2013/11/27)

>  <Rbt.Parameter_File>
/export/apps/rDock/src/rDock_2013.1_src/data/scripts/dock_solv.prm

>  <Rbt.Receptor>
prm/blind_docking_40.prm

>  <SCORE>
6.62064

>  <SCORE.INTER>
7.35269

>  <SCORE.INTER.CONST>
1

>  <SCORE.INTER.POLAR>
0

>  <SCORE.INTER.ROT>
11

>  <SCORE.INTER.SOLV>
8.97943

>  <SCORE.INTER.VDW>
-9.02469

>  <SCORE.INTER.norm>
0.525192

>  <SCORE.INTRA>
-0.851562

>  <SCORE.INTRA.DIHEDRAL>
-3.4333

>  <SCORE.INTRA.DIHEDRAL.0>
7.79482

>  <SCORE.INTRA.POLAR>
0

>  <SCORE.INTRA.POLAR.0>
0

>  <SCORE.INTRA.REPUL>
0

>  <SCORE.INTRA.REPUL.0>
0

>  <SCORE.INTRA.SOLV>
3.88718

>  <SCORE.INTRA.SOLV.lig_0>
-49.456

>  <SCORE.INTRA.VDW>
-1.07851

>  <SCORE.INTRA.VDW.0>
-0.478406

>  <SCORE.INTRA.norm>
-0.0608259

>  <SCORE.RESTR>
0.119513

>  <SCORE.RESTR.CAVITY>
0.119513

>  <SCORE.RESTR.norm>
0.00853667

>  <SCORE.SYSTEM>
0

>  <SCORE.SYSTEM.CONST>
0

>  <SCORE.SYSTEM.DIHEDRAL>
0

>  <SCORE.SYSTEM.SOLV>
0

>  <SCORE.SYSTEM.norm>
0

>  <SCORE.heavy>
14

>  <SCORE.norm>
0.472903

>  <RMSD>
19.774

$$$$
ligand
 OpenBabel11021811413D
libRbt.so/2013.1/901 2013/11/27
 14 13  0  0  0  0  0  0  0  0999 V2000
   38.0238   -5.7083   -0.7077 N   0  0  0  0  0  0  0  0  0  0  0  0
   37.5645   -4.4537   -0.0735 C   0  0  0  0  0  0  0  0  0  0  0  0
   36.4572   -4.7273    0.9672 C   0  0  0  0  0  0  0  0  0  0  0  0
   35.8958   -3.4693    1.6500 C   0  0  0  0  0  0  0  0  0  0  0  0
   36.9794   -2.6914    2.3112 N   0  0  0  0  0  0  0  0  0  0  0  0
   36.6696   -2.5016    3.7515 C   0  0  0  0  0  0  0  0  0  0  0  0
   37.7744   -1.7763    4.5915 C   0  0  0  0  0  0  0  0  0  0  0  0
   39.1021   -2.5770    4.7206 C   0  0  0  0  0  0  0  0  0  0  0  0
   38.9307   -3.9614    5.3145 C   0  0  0  0  0  0  0  0  0  0  0  0
   38.3082   -3.8073    6.6157 N   0  0  0  0  0  0  0  0  0  0  0  0
   38.1158   -5.1533    7.1268 C   0  0  0  0  0  0  0  0  0  0  0  0
   36.6367   -5.4778    7.3003 C   0  0  0  0  0  0  0  0  0  0  0  0
   35.9906   -5.4609    5.9066 C   0  0  0  0  0  0  0  0  0  0  0  0
   36.5217   -6.5198    5.0352 N   0  0  0  0  0  0  0  0  0  0  0  0
  1  2  1  0  0  0  0
  2  3  1  0  0  0  0
  3  4  1  0  0  0  0
  4  5  1  0  0  0  0
  5  6  1  0  0  0  0
  6  7  1  0  0  0  0
  7  8  1  0  0  0  0
  8  9  1  0  0  0  0
  9 10  1  0  0  0  0
 10 11  1  0  0  0  0
 11 12  1  0  0  0  0
 12 13  1  0  0  0  0
 13 14  1  0  0  0  0
M  END
>  <CHROM.1>
-178.49335056,-56.80600177,-123.80277900,176.20862656,-65.62598735,-56.68154003
-57.38602613,177.89292126,-116.23469316,64.31830104,64.58075627,37.35499639
-4.16301954,3.89379428,1.76939838,-1.21183581,-1.34439778

>  <Name>
ligand

>  <RI>
0

>  <Rbt.Current_Directory>
/home/itssahil/PROJECTS/Mol_Feturizer/New_Systems/rnas/1TN2

>  <Rbt.Executable>
rbdock ($Id: //depot/dev/client3/rdock/2013.1/src/exe/rbdock.cxx#4 $)

>  <Rbt.Library>
libRbt.so (2013.1, Build901 2013/11/27)

>  <Rbt.Parameter_File>
/export/apps/rDock/src/rDock_2013.1_src/data/scripts/dock_solv.prm

>  <Rbt.Receptor>
prm/blind_docking_40.prm

>  <SCORE>
6.89439

>  <SCORE.INTER>
7.47241

>  <SCORE.INTER.CONST>
1

>  <SCORE.INTER.POLAR>
0

>  <SCORE.INTER.ROT>
11

>  <SCORE.INTER.SOLV>
6.31144

>  <SCORE.INTER.VDW>
-8.05554

>  <SCORE.INTER.norm>
0.533743

>  <SCORE.INTRA>
-0.580086

>  <SCORE.INTRA.DIHEDRAL>
-5.01574

>  <SCORE.INTRA.DIHEDRAL.0>
7.79482

>  <SCORE.INTRA.POLAR>
0

>  <SCORE.INTRA.POLAR.0>
0

>  <SCORE.INTRA.REPUL>
0

>  <SCORE.INTRA.REPUL.0>
0

>  <SCORE.INTRA.SOLV>
4.89588

>  <SCORE.INTRA.SOLV.lig_0>
-49.456

>  <SCORE.INTRA.VDW>
-0.520156

>  <SCORE.INTRA.VDW.0>
-0.478406

>  <SCORE.INTRA.norm>
-0.0414347

>  <SCORE.RESTR>
0.002065

>  <SCORE.RESTR.CAVITY>
0.002065

>  <SCORE.RESTR.norm>
0.0001475

>  <SCORE.SYSTEM>
0

>  <SCORE.SYSTEM.CONST>
0

>  <SCORE.SYSTEM.DIHEDRAL>
0

>  <SCORE.SYSTEM.SOLV>
0

>  <SCORE.SYSTEM.norm>
0

>  <SCORE.heavy>
14

>  <SCORE.norm>
0.492456

>  <RMSD>
19.801

$$$$
ligand
 OpenBabel11021811413D
libRbt.so/2013.1/901 2013/11/27
 14 13  0  0  0  0  0  0  0  0999 V2000
   35.6732   -4.4583    0.9789 N   0  0  0  0  0  0  0  0  0  0  0  0
   36.4366   -5.7081    1.1843 C   0  0  0  0  0  0  0  0  0  0  0  0
   37.8216   -5.6340    0.5057 C   0  0  0  0  0  0  0  0  0  0  0  0
   38.7696   -4.5793    1.0998 C   0  0  0  0  0  0  0  0  0  0  0  0
   38.2303   -3.2055    0.9046 N   0  0  0  0  0  0  0  0  0  0  0  0
   38.0534   -2.5322    2.2169 C   0  0  0  0  0  0  0  0  0  0  0  0
   39.3660   -2.0074    2.8906 C   0  0  0  0  0  0  0  0  0  0  0  0
   39.1240   -1.0794    4.1156 C   0  0  0  0  0  0  0  0  0  0  0  0
   38.3799   -1.7467    5.2558 C   0  0  0  0  0  0  0  0  0  0  0  0
   39.1058   -2.9522    5.6083 N   0  0  0  0  0  0  0  0  0  0  0  0
   38.2293   -4.0588    5.2665 C   0  0  0  0  0  0  0  0  0  0  0  0
   37.9563   -4.9476    6.4744 C   0  0  0  0  0  0  0  0  0  0  0  0
   37.0048   -6.0660    6.0228 C   0  0  0  0  0  0  0  0  0  0  0  0
   37.6341   -6.9717    5.0501 N   0  0  0  0  0  0  0  0  0  0  0  0
  1  2  1  0  0  0  0
  2  3  1  0  0  0  0
  3  4  1  0  0  0  0
  4  5  1  0  0  0  0
  5  6  1  0  0  0  0
  6  7  1  0  0  0  0
  7  8  1  0  0  0  0
  8  9  1  0  0  0  0
  9 10  1  0  0  0  0
 10 11  1  0  0  0  0
 11 12  1  0  0  0  0
 12 13  1  0  0  0  0
 13 14  1  0  0  0  0
M  END
>  <CHROM.1>
65.01220609,-63.97670930,121.28499711,76.31715719,168.97895078,61.26769120
54.55086024,-113.91086972,-122.98383776,178.91461082,66.21429572,37.98476813
-3.99605756,3.39828332,2.07107539,-1.15239835,-1.29401902

>  <Name>
ligand

>  <RI>
0

>  <Rbt.Current_Directory>
/home/itssahil/PROJECTS/Mol_Feturizer/New_Systems/rnas/1TN2

>  <Rbt.Executable>
rbdock ($Id: //depot/dev/client3/rdock/2013.1/src/exe/rbdock.cxx#4 $)

>  <Rbt.Library>
libRbt.so (2013.1, Build901 2013/11/27)

>  <Rbt.Parameter_File>
/export/apps/rDock/src/rDock_2013.1_src/data/scripts/dock_solv.prm

>  <Rbt.Receptor>
prm/blind_docking_40.prm

>  <SCORE>
7.99561

>  <SCORE.INTER>
6.26434

>  <SCORE.INTER.CONST>
1

>  <SCORE.INTER.POLAR>
0

>  <SCORE.INTER.ROT>
11

>  <SCORE.INTER.SOLV>
4.96077

>  <SCORE.INTER.VDW>
-8.4107

>  <SCORE.INTER.norm>
0.447453

>  <SCORE.INTRA>
1.0942

>  <SCORE.INTRA.DIHEDRAL>
-3.1591

>  <SCORE.INTRA.DIHEDRAL.0>
7.79482

>  <SCORE.INTRA.POLAR>
0

>  <SCORE.INTRA.POLAR.0>
0

>  <SCORE.INTRA.REPUL>
0

>  <SCORE.INTRA.REPUL.0>
0

>  <SCORE.INTRA.SOLV>
5.59326

>  <SCORE.INTRA.SOLV.lig_0>
-49.456

>  <SCORE.INTRA.VDW>
-0.122881

>  <SCORE.INTRA.VDW.0>
-0.478406

>  <SCORE.INTRA.norm>
0.078157

>  <SCORE.RESTR>
0.63707

>  <SCORE.RESTR.CAVITY>
0.63707

>  <SCORE.RESTR.norm>
0.045505

>  <SCORE.SYSTEM>
0

>  <SCORE.SYSTEM.CONST>
0

>  <SCORE.SYSTEM.DIHEDRAL>
0

>  <SCORE.SYSTEM.SOLV>
0

>  <SCORE.SYSTEM.norm>
0

>  <SCORE.heavy>
14

>  <SCORE.norm>
0.571115

>  <RMSD>
19.802

$$$$
ligand
 OpenBabel11021811413D
libRbt.so/2013.1/901 2013/11/27
 14 13  0  0  0  0  0  0  0  0999 V2000
   36.0405   -4.8433    0.9010 N   0  0  0  0  0  0  0  0  0  0  0  0
   37.1143   -5.8006    0.5582 C   0  0  0  0  0  0  0  0  0  0  0  0
   38.3977   -5.0648    0.1163 C   0  0  0  0  0  0  0  0  0  0  0  0
   38.9986   -4.1314    1.1801 C   0  0  0  0  0  0  0  0  0  0  0  0
   38.1497   -2.9236    1.3722 N   0  0  0  0  0  0  0  0  0  0  0  0
   37.9412   -2.6677    2.8206 C   0  0  0  0  0  0  0  0  0  0  0  0
   39.0556   -1.8235    3.5260 C   0  0  0  0  0  0  0  0  0  0  0  0
   38.8120   -1.5932    5.0452 C   0  0  0  0  0  0  0  0  0  0  0  0
   38.9511   -2.8460    5.8877 C   0  0  0  0  0  0  0  0  0  0  0  0
   37.9887   -3.8144    5.3974 N   0  0  0  0  0  0  0  0  0  0  0  0
   37.8114   -4.7775    6.4701 C   0  0  0  0  0  0  0  0  0  0  0  0
   36.9910   -5.9777    6.0120 C   0  0  0  0  0  0  0  0  0  0  0  0
   37.8870   -6.8339    5.1042 C   0  0  0  0  0  0  0  0  0  0  0  0
   38.2919   -6.1158    3.8864 N   0  0  0  0  0  0  0  0  0  0  0  0
  1  2  1  0  0  0  0
  2  3  1  0  0  0  0
  3  4  1  0  0  0  0
  4  5  1  0  0  0  0
  5  6  1  0  0  0  0
  6  7  1  0  0  0  0
  7  8  1  0  0  0  0
  8  9  1  0  0  0  0
  9 10  1  0  0  0  0
 10 11  1  0  0  0  0
 11 12  1  0  0  0  0
 12 13  1  0  0  0  0
 13 14  1  0  0  0  0
M  END
>  <CHROM.1>
60.30452542,-71.18569188,133.26332344,85.95709482,-179.21110256,69.24852545
-59.04427797,-160.52636067,-171.00136044,73.71662446,-63.18985134,38.03093537
-4.22943390,3.44860056,1.85459791,-1.24811600,-1.40282680

>  <Name>
ligand

>  <RI>
0

>  <Rbt.Current_Directory>
/home/itssahil/PROJECTS/Mol_Feturizer/New_Systems/rnas/1TN2

>  <Rbt.Executable>
rbdock ($Id: //depot/dev/client3/rdock/2013.1/src/exe/rbdock.cxx#4 $)

>  <Rbt.Library>
libRbt.so (2013.1, Build901 2013/11/27)

>  <Rbt.Parameter_File>
/export/apps/rDock/src/rDock_2013.1_src/data/scripts/dock_solv.prm

>  <Rbt.Receptor>
prm/blind_docking_40.prm

>  <SCORE>
8.03446

>  <SCORE.INTER>
5.16254

>  <SCORE.INTER.CONST>
1

>  <SCORE.INTER.POLAR>
0

>  <SCORE.INTER.ROT>
11

>  <SCORE.INTER.SOLV>
4.75368

>  <SCORE.INTER.VDW>
-9.0762

>  <SCORE.INTER.norm>
0.368753

>  <SCORE.INTRA>
2.85998

>  <SCORE.INTRA.DIHEDRAL>
-4.37054

>  <SCORE.INTRA.DIHEDRAL.0>
7.79482

>  <SCORE.INTRA.POLAR>
0

>  <SCORE.INTRA.POLAR.0>
0

>  <SCORE.INTRA.REPUL>
0

>  <SCORE.INTRA.REPUL.0>
0

>  <SCORE.INTRA.SOLV>
11.4635

>  <SCORE.INTRA.SOLV.lig_0>
-49.456

>  <SCORE.INTRA.VDW>
-0.686495

>  <SCORE.INTRA.VDW.0>
-0.478406

>  <SCORE.INTRA.norm>
0.204284

>  <SCORE.RESTR>
0.0119407

>  <SCORE.RESTR.CAVITY>
0.0119407

>  <SCORE.RESTR.norm>
0.000852907

>  <SCORE.SYSTEM>
0

>  <SCORE.SYSTEM.CONST>
0

>  <SCORE.SYSTEM.DIHEDRAL>
0

>  <SCORE.SYSTEM.SOLV>
0

>  <SCORE.SYSTEM.norm>
0

>  <SCORE.heavy>
14

>  <SCORE.norm>
0.57389

>  <RMSD>
19.813

$$$$
ligand
 OpenBabel11021811413D
libRbt.so/2013.1/901 2013/11/27
 14 13  0  0  0  0  0  0  0  0999 V2000
   38.2658   -7.0739    4.3716 N   0  0  0  0  0  0  0  0  0  0  0  0
   36.9786   -6.7561    5.0268 C   0  0  0  0  0  0  0  0  0  0  0  0
   36.9938   -5.3332    5.6261 C   0  0  0  0  0  0  0  0  0  0  0  0
   38.1195   -5.0788    6.6420 C   0  0  0  0  0  0  0  0  0  0  0  0
   38.2524   -3.6263    6.9399 N   0  0  0  0  0  0  0  0  0  0  0  0
   39.2142   -2.9953    6.0000 C   0  0  0  0  0  0  0  0  0  0  0  0
   38.6823   -1.7407    5.2285 C   0  0  0  0  0  0  0  0  0  0  0  0
   37.5664   -2.0583    4.1921 C   0  0  0  0  0  0  0  0  0  0  0  0
   38.0638   -2.7760    2.9525 C   0  0  0  0  0  0  0  0  0  0  0  0
   36.9221   -2.9982    2.0856 N   0  0  0  0  0  0  0  0  0  0  0  0
   36.5563   -4.3932    2.2590 C   0  0  0  0  0  0  0  0  0  0  0  0
   36.5390   -5.1348    0.9275 C   0  0  0  0  0  0  0  0  0  0  0  0
   37.9590   -5.0758    0.3442 C   0  0  0  0  0  0  0  0  0  0  0  0
   38.0036   -5.5245   -1.0556 N   0  0  0  0  0  0  0  0  0  0  0  0
  1  2  1  0  0  0  0
  2  3  1  0  0  0  0
  3  4  1  0  0  0  0
  4  5  1  0  0  0  0
  5  6  1  0  0  0  0
  6  7  1  0  0  0  0
  7  8  1  0  0  0  0
  8  9  1  0  0  0  0
  9 10  1  0  0  0  0
 10 11  1  0  0  0  0
 11 12  1  0  0  0  0
 12 13  1  0  0  0  0
 13 14  1  0  0  0  0
M  END
>  <CHROM.1>
-57.19322059,167.42237636,-90.14128026,126.51119281,-68.17462792,-72.30516156
-179.81435797,-102.05201550,-124.36776545,61.32504595,-168.66844136,37.72255661
-4.32588356,3.68166534,0.70689746,1.38737092,2.23285964

>  <Name>
ligand

>  <RI>
0

>  <Rbt.Current_Directory>
/home/itssahil/PROJECTS/Mol_Feturizer/New_Systems/rnas/1TN2

>  <Rbt.Executable>
rbdock ($Id: //depot/dev/client3/rdock/2013.1/src/exe/rbdock.cxx#4 $)

>  <Rbt.Library>
libRbt.so (2013.1, Build901 2013/11/27)

>  <Rbt.Parameter_File>
/export/apps/rDock/src/rDock_2013.1_src/data/scripts/dock_solv.prm

>  <Rbt.Receptor>
prm/blind_docking_40.prm

>  <SCORE>
6.84999

>  <SCORE.INTER>
7.00531

>  <SCORE.INTER.CONST>
1

>  <SCORE.INTER.POLAR>
0

>  <SCORE.INTER.ROT>
11

>  <SCORE.INTER.SOLV>
8.07522

>  <SCORE.INTER.VDW>
-8.95486

>  <SCORE.INTER.norm>
0.50038

>  <SCORE.INTRA>
-0.273052

>  <SCORE.INTRA.DIHEDRAL>
-1.93867

>  <SCORE.INTRA.DIHEDRAL.0>
7.79482

>  <SCORE.INTRA.POLAR>
0

>  <SCORE.INTRA.POLAR.0>
0

>  <SCORE.INTRA.REPUL>
0

>  <SCORE.INTRA.REPUL.0>
0

>  <SCORE.INTRA.SOLV>
3.48775

>  <SCORE.INTRA.SOLV.lig_0>
-49.456

>  <SCORE.INTRA.VDW>
-1.04759

>  <SCORE.INTRA.VDW.0>
-0.478406

>  <SCORE.INTRA.norm>
-0.0195037

>  <SCORE.RESTR>
0.117727

>  <SCORE.RESTR.CAVITY>
0.117727

>  <SCORE.RESTR.norm>
0.00840904

>  <SCORE.SYSTEM>
0

>  <SCORE.SYSTEM.CONST>
0

>  <SCORE.SYSTEM.DIHEDRAL>
0

>  <SCORE.SYSTEM.SOLV>
0

>  <SCORE.SYSTEM.norm>
0

>  <SCORE.heavy>
14

>  <SCORE.norm>
0.489285

>  <RMSD>
19.861

$$$$
ligand
 OpenBabel11021811413D
libRbt.so/2013.1/901 2013/11/27
 14 13  0  0  0  0  0  0  0  0999 V2000
   37.2816   -7.0784    5.0186 N   0  0  0  0  0  0  0  0  0  0  0  0
   36.6507   -5.7516    5.1882 C   0  0  0  0  0  0  0  0  0  0  0  0
   36.9639   -5.1585    6.5790 C   0  0  0  0  0  0  0  0  0  0  0  0
   38.4582   -4.9191    6.8507 C   0  0  0  0  0  0  0  0  0  0  0  0
   39.0615   -4.0573    5.7972 N   0  0  0  0  0  0  0  0  0  0  0  0
   38.7011   -2.6349    6.0289 C   0  0  0  0  0  0  0  0  0  0  0  0
   38.7757   -1.7044    4.7716 C   0  0  0  0  0  0  0  0  0  0  0  0
   38.1214   -2.3075    3.4955 C   0  0  0  0  0  0  0  0  0  0  0  0
   36.6403   -2.5972    3.6414 C   0  0  0  0  0  0  0  0  0  0  0  0
   36.1314   -2.9550    2.3309 N   0  0  0  0  0  0  0  0  0  0  0  0
   35.7781   -4.3615    2.4116 C   0  0  0  0  0  0  0  0  0  0  0  0
   35.9778   -5.0643    1.0739 C   0  0  0  0  0  0  0  0  0  0  0  0
   37.4719   -4.9849    0.7257 C   0  0  0  0  0  0  0  0  0  0  0  0
   37.7896   -5.6926   -0.5237 N   0  0  0  0  0  0  0  0  0  0  0  0
  1  2  1  0  0  0  0
  2  3  1  0  0  0  0
  3  4  1  0  0  0  0
  4  5  1  0  0  0  0
  5  6  1  0  0  0  0
  6  7  1  0  0  0  0
  7  8  1  0  0  0  0
  8  9  1  0  0  0  0
  9 10  1  0  0  0  0
 10 11  1  0  0  0  0
 11 12  1  0  0  0  0
 12 13  1  0  0  0  0
 13 14  1  0  0  0  0
M  END
>  <CHROM.1>
61.46456707,55.38393161,77.92898427,-157.54248042,45.84488902,61.10769528
171.42095938,112.10968324,-148.15631384,62.47764327,177.26613686,37.41444664
-4.23308584,3.81382299,0.67112259,1.24678722,2.30102996

>  <Name>
ligand

>  <RI>
0

>  <Rbt.Current_Directory>
/home/itssahil/PROJECTS/Mol_Feturizer/New_Systems/rnas/1TN2

>  <Rbt.Executable>
rbdock ($Id: //depot/dev/client3/rdock/2013.1/src/exe/rbdock.cxx#4 $)

>  <Rbt.Library>
libRbt.so (2013.1, Build901 2013/11/27)

>  <Rbt.Parameter_File>
/export/apps/rDock/src/rDock_2013.1_src/data/scripts/dock_solv.prm

>  <Rbt.Receptor>
prm/blind_docking_40.prm

>  <SCORE>
6.11604

>  <SCORE.INTER>
6.63999

>  <SCORE.INTER.CONST>
1

>  <SCORE.INTER.POLAR>
0

>  <SCORE.INTER.ROT>
11

>  <SCORE.INTER.SOLV>
6.00476

>  <SCORE.INTER.VDW>
-8.50826

>  <SCORE.INTER.norm>
0.474285

>  <SCORE.INTRA>
-0.594754

>  <SCORE.INTRA.DIHEDRAL>
-4.23009

>  <SCORE.INTRA.DIHEDRAL.0>
7.79482

>  <SCORE.INTRA.POLAR>
0

>  <SCORE.INTRA.POLAR.0>
0

>  <SCORE.INTRA.REPUL>
0

>  <SCORE.INTRA.REPUL.0>
0

>  <SCORE.INTRA.SOLV>
3.89972

>  <SCORE.INTRA.SOLV.lig_0>
-49.456

>  <SCORE.INTRA.VDW>
-0.429569

>  <SCORE.INTRA.VDW.0>
-0.478406

>  <SCORE.INTRA.norm>
-0.0424824

>  <SCORE.RESTR>
0.0708063

>  <SCORE.RESTR.CAVITY>
0.0708063

>  <SCORE.RESTR.norm>
0.00505759

>  <SCORE.SYSTEM>
0

>  <SCORE.SYSTEM.CONST>
0

>  <SCORE.SYSTEM.DIHEDRAL>
0

>  <SCORE.SYSTEM.SOLV>
0

>  <SCORE.SYSTEM.norm>
0

>  <SCORE.heavy>
14

>  <SCORE.norm>
0.43686

>  <RMSD>
19.866

$$$$
ligand
 OpenBabel11021811413D
libRbt.so/2013.1/901 2013/11/27
 14 13  0  0  0  0  0  0  0  0999 V2000
   37.1332   -2.3567    3.2671 N   0  0  0  0  0  0  0  0  0  0  0  0
   38.6121   -2.3520    3.2614 C   0  0  0  0  0  0  0  0  0  0  0  0
   39.1736   -1.8198    4.5976 C   0  0  0  0  0  0  0  0  0  0  0  0
   38.7015   -2.5896    5.8420 C   0  0  0  0  0  0  0  0  0  0  0  0
   39.0791   -4.0271    5.7562 N   0  0  0  0  0  0  0  0  0  0  0  0
   38.2868   -4.8248    6.7272 C   0  0  0  0  0  0  0  0  0  0  0  0
   37.0809   -5.6213    6.1242 C   0  0  0  0  0  0  0  0  0  0  0  0
   37.4922   -6.7152    5.0973 C   0  0  0  0  0  0  0  0  0  0  0  0
   37.9679   -6.1634    3.7676 C   0  0  0  0  0  0  0  0  0  0  0  0
   36.8206   -5.5810    3.0978 N   0  0  0  0  0  0  0  0  0  0  0  0
   37.3087   -5.1012    1.8167 C   0  0  0  0  0  0  0  0  0  0  0  0
   36.9483   -6.0601    0.6880 C   0  0  0  0  0  0  0  0  0  0  0  0
   37.5593   -5.5040   -0.6071 C   0  0  0  0  0  0  0  0  0  0  0  0
   39.0295   -5.5258   -0.5818 N   0  0  0  0  0  0  0  0  0  0  0  0
  1  2  1  0  0  0  0
  2  3  1  0  0  0  0
  3  4  1  0  0  0  0
  4  5  1  0  0  0  0
  5  6  1  0  0  0  0
  6  7  1  0  0  0  0
  7  8  1  0  0  0  0
  8  9  1  0  0  0  0
  9 10  1  0  0  0  0
 10 11  1  0  0  0  0
 11 12  1  0  0  0  0
 12 13  1  0  0  0  0
 13 14  1  0  0  0  0
M  END
>  <CHROM.1>
56.97240828,58.77715392,-162.99849286,101.50105112,63.19021490,-72.21863435
-69.17714455,-178.36300387,101.34565228,-177.41821648,66.34330029,37.94238538
-4.58880923,3.48981853,-1.19906240,-1.26572223,-1.52393549

>  <Name>
ligand

>  <RI>
0

>  <Rbt.Current_Directory>
/home/itssahil/PROJECTS/Mol_Feturizer/New_Systems/rnas/1TN2

>  <Rbt.Executable>
rbdock ($Id: //depot/dev/client3/rdock/2013.1/src/exe/rbdock.cxx#4 $)

>  <Rbt.Library>
libRbt.so (2013.1, Build901 2013/11/27)

>  <Rbt.Parameter_File>
/export/apps/rDock/src/rDock_2013.1_src/data/scripts/dock_solv.prm

>  <Rbt.Receptor>
prm/blind_docking_40.prm

>  <SCORE>
7.02813

>  <SCORE.INTER>
6.4299

>  <SCORE.INTER.CONST>
1

>  <SCORE.INTER.POLAR>
0

>  <SCORE.INTER.ROT>
11

>  <SCORE.INTER.SOLV>
7.49865

>  <SCORE.INTER.VDW>
-9.14628

>  <SCORE.INTER.norm>
0.459279

>  <SCORE.INTRA>
0.576586

>  <SCORE.INTRA.DIHEDRAL>
-4.52206

>  <SCORE.INTRA.DIHEDRAL.0>
7.79482

>  <SCORE.INTRA.POLAR>
0

>  <SCORE.INTRA.POLAR.0>
0

>  <SCORE.INTRA.REPUL>
0

>  <SCORE.INTRA.REPUL.0>
0

>  <SCORE.INTRA.SOLV>
8.23739

>  <SCORE.INTRA.SOLV.lig_0>
-49.456

>  <SCORE.INTRA.VDW>
-1.28108

>  <SCORE.INTRA.VDW.0>
-0.478406

>  <SCORE.INTRA.norm>
0.0411847

>  <SCORE.RESTR>
0.0216402

>  <SCORE.RESTR.CAVITY>
0.0216402

>  <SCORE.RESTR.norm>
0.00154573

>  <SCORE.SYSTEM>
0

>  <SCORE.SYSTEM.CONST>
0

>  <SCORE.SYSTEM.DIHEDRAL>
0

>  <SCORE.SYSTEM.SOLV>
0

>  <SCORE.SYSTEM.norm>
0

>  <SCORE.heavy>
14

>  <SCORE.norm>
0.502009

>  <RMSD>
19.870

$$$$
ligand
 OpenBabel11021811413D
libRbt.so/2013.1/901 2013/11/27
 14 13  0  0  0  0  0  0  0  0999 V2000
   37.0582   -5.9975   -0.6018 N   0  0  0  0  0  0  0  0  0  0  0  0
   36.5943   -5.8236    0.7916 C   0  0  0  0  0  0  0  0  0  0  0  0
   36.6819   -4.3453    1.2285 C   0  0  0  0  0  0  0  0  0  0  0  0
   38.0761   -3.7150    1.0777 C   0  0  0  0  0  0  0  0  0  0  0  0
   38.1334   -2.3806    1.7354 N   0  0  0  0  0  0  0  0  0  0  0  0
   38.8086   -2.4869    3.0543 C   0  0  0  0  0  0  0  0  0  0  0  0
   38.1099   -1.7320    4.2350 C   0  0  0  0  0  0  0  0  0  0  0  0
   38.8467   -1.8655    5.5987 C   0  0  0  0  0  0  0  0  0  0  0  0
   39.0921   -3.2988    6.0279 C   0  0  0  0  0  0  0  0  0  0  0  0
   37.8208   -3.9958    5.9797 N   0  0  0  0  0  0  0  0  0  0  0  0
   38.1171   -5.3855    6.2809 C   0  0  0  0  0  0  0  0  0  0  0  0
   38.6166   -6.1292    5.0477 C   0  0  0  0  0  0  0  0  0  0  0  0
   37.4655   -6.1692    4.0312 C   0  0  0  0  0  0  0  0  0  0  0  0
   36.3411   -6.9944    4.4974 N   0  0  0  0  0  0  0  0  0  0  0  0
  1  2  1  0  0  0  0
  2  3  1  0  0  0  0
  3  4  1  0  0  0  0
  4  5  1  0  0  0  0
  5  6  1  0  0  0  0
  6  7  1  0  0  0  0
  7  8  1  0  0  0  0
  8  9  1  0  0  0  0
  9 10  1  0  0  0  0
 10 11  1  0  0  0  0
 11 12  1  0  0  0  0
 12 13  1  0  0  0  0
 13 14  1  0  0  0  0
M  END
>  <CHROM.1>
-55.59058616,-170.06483177,101.30385338,-135.03022839,-179.94772593,-54.85342353
-52.85429098,175.09144511,-81.90066415,-64.93311126,-66.80930710,37.84036425
-4.30830758,3.49911807,2.41893967,-1.22047292,-1.05940367

>  <Name>
ligand

>  <RI>
0

>  <Rbt.Current_Directory>
/home/itssahil/PROJECTS/Mol_Feturizer/New_Systems/rnas/1TN2

>  <Rbt.Executable>
rbdock ($Id: //depot/dev/client3/rdock/2013.1/src/exe/rbdock.cxx#4 $)

>  <Rbt.Library>
libRbt.so (2013.1, Build901 2013/11/27)

>  <Rbt.Parameter_File>
/export/apps/rDock/src/rDock_2013.1_src/data/scripts/dock_solv.prm

>  <Rbt.Receptor>
prm/blind_docking_40.prm

>  <SCORE>
7.92602

>  <SCORE.INTER>
7.43349

>  <SCORE.INTER.CONST>
1

>  <SCORE.INTER.POLAR>
0

>  <SCORE.INTER.ROT>
11

>  <SCORE.INTER.SOLV>
7.28949

>  <SCORE.INTER.VDW>
-8.40751

>  <SCORE.INTER.norm>
0.530963

>  <SCORE.INTRA>
0.170458

>  <SCORE.INTRA.DIHEDRAL>
-4.45882

>  <SCORE.INTRA.DIHEDRAL.0>
7.79482

>  <SCORE.INTRA.POLAR>
0

>  <SCORE.INTRA.POLAR.0>
0

>  <SCORE.INTRA.REPUL>
0

>  <SCORE.INTRA.REPUL.0>
0

>  <SCORE.INTRA.SOLV>
4.39428

>  <SCORE.INTRA.SOLV.lig_0>
-49.456

>  <SCORE.INTRA.VDW>
0.202725

>  <SCORE.INTRA.VDW.0>
-0.478406

>  <SCORE.INTRA.norm>
0.0121756

>  <SCORE.RESTR>
0.322077

>  <SCORE.RESTR.CAVITY>
0.322077

>  <SCORE.RESTR.norm>
0.0230055

>  <SCORE.SYSTEM>
0

>  <SCORE.SYSTEM.CONST>
0

>  <SCORE.SYSTEM.DIHEDRAL>
0

>  <SCORE.SYSTEM.SOLV>
0

>  <SCORE.SYSTEM.norm>
0

>  <SCORE.heavy>
14

>  <SCORE.norm>
0.566144

>  <RMSD>
19.878

$$$$
ligand
 OpenBabel11021811413D
libRbt.so/2013.1/901 2013/11/27
 14 13  0  0  0  0  0  0  0  0999 V2000
   36.8841   -6.1863    0.4111 N   0  0  0  0  0  0  0  0  0  0  0  0
   38.2720   -5.7255    0.6316 C   0  0  0  0  0  0  0  0  0  0  0  0
   38.4884   -4.3100    0.0541 C   0  0  0  0  0  0  0  0  0  0  0  0
   37.7794   -3.1874    0.8294 C   0  0  0  0  0  0  0  0  0  0  0  0
   38.4459   -2.9375    2.1370 N   0  0  0  0  0  0  0  0  0  0  0  0
   37.4299   -2.7755    3.2085 C   0  0  0  0  0  0  0  0  0  0  0  0
   37.7837   -1.7360    4.3249 C   0  0  0  0  0  0  0  0  0  0  0  0
   39.0938   -2.0575    5.0999 C   0  0  0  0  0  0  0  0  0  0  0  0
   38.9533   -3.1830    6.1061 C   0  0  0  0  0  0  0  0  0  0  0  0
   38.5158   -4.3639    5.3862 N   0  0  0  0  0  0  0  0  0  0  0  0
   37.3121   -4.8179    6.0605 C   0  0  0  0  0  0  0  0  0  0  0  0
   36.5129   -5.7789    5.1880 C   0  0  0  0  0  0  0  0  0  0  0  0
   37.3364   -7.0673    5.0408 C   0  0  0  0  0  0  0  0  0  0  0  0
   38.6020   -6.8392    4.3275 N   0  0  0  0  0  0  0  0  0  0  0  0
  1  2  1  0  0  0  0
  2  3  1  0  0  0  0
  3  4  1  0  0  0  0
  4  5  1  0  0  0  0
  5  6  1  0  0  0  0
  6  7  1  0  0  0  0
  7  8  1  0  0  0  0
  8  9  1  0  0  0  0
  9 10  1  0  0  0  0
 10 11  1  0  0  0  0
 11 12  1  0  0  0  0
 12 13  1  0  0  0  0
 13 14  1  0  0  0  0
M  END
>  <CHROM.1>
70.68166925,72.07144265,-136.44352446,-144.55289169,-59.67460711,-75.68650730
58.43624009,-125.62517844,162.83592720,67.65349809,-64.08903188,37.95777321
-4.35441041,3.48629117,1.76684342,-1.36829468,-1.50866062

>  <Name>
ligand

>  <RI>
0

>  <Rbt.Current_Directory>
/home/itssahil/PROJECTS/Mol_Feturizer/New_Systems/rnas/1TN2

>  <Rbt.Executable>
rbdock ($Id: //depot/dev/client3/rdock/2013.1/src/exe/rbdock.cxx#4 $)

>  <Rbt.Library>
libRbt.so (2013.1, Build901 2013/11/27)

>  <Rbt.Parameter_File>
/export/apps/rDock/src/rDock_2013.1_src/data/scripts/dock_solv.prm

>  <Rbt.Receptor>
prm/blind_docking_40.prm

>  <SCORE>
9.84784

>  <SCORE.INTER>
8.11786

>  <SCORE.INTER.CONST>
1

>  <SCORE.INTER.POLAR>
0

>  <SCORE.INTER.ROT>
11

>  <SCORE.INTER.SOLV>
8.44969

>  <SCORE.INTER.VDW>
-8.33799

>  <SCORE.INTER.norm>
0.579847

>  <SCORE.INTRA>
1.60655

>  <SCORE.INTRA.DIHEDRAL>
-2.41392

>  <SCORE.INTRA.DIHEDRAL.0>
7.79482

>  <SCORE.INTRA.POLAR>
0

>  <SCORE.INTRA.POLAR.0>
0

>  <SCORE.INTRA.REPUL>
0

>  <SCORE.INTRA.REPUL.0>
0

>  <SCORE.INTRA.SOLV>
7.47164

>  <SCORE.INTRA.SOLV.lig_0>
-49.456

>  <SCORE.INTRA.VDW>
-0.922303

>  <SCORE.INTRA.VDW.0>
-0.478406

>  <SCORE.INTRA.norm>
0.114754

>  <SCORE.RESTR>
0.12343

>  <SCORE.RESTR.CAVITY>
0.12343

>  <SCORE.RESTR.norm>
0.0088164

>  <SCORE.SYSTEM>
0

>  <SCORE.SYSTEM.CONST>
0

>  <SCORE.SYSTEM.DIHEDRAL>
0

>  <SCORE.SYSTEM.SOLV>
0

>  <SCORE.SYSTEM.norm>
0

>  <SCORE.heavy>
14

>  <SCORE.norm>
0.703417

>  <RMSD>
19.881

$$$$
ligand
 OpenBabel11021811413D
libRbt.so/2013.1/901 2013/11/27
 14 13  0  0  0  0  0  0  0  0999 V2000
   36.3997   -7.0048    4.5083 N   0  0  0  0  0  0  0  0  0  0  0  0
   37.6007   -6.3690    5.0916 C   0  0  0  0  0  0  0  0  0  0  0  0
   37.2225   -5.4152    6.2454 C   0  0  0  0  0  0  0  0  0  0  0  0
   38.4165   -4.7122    6.9119 C   0  0  0  0  0  0  0  0  0  0  0  0
   39.1630   -3.8795    5.9291 N   0  0  0  0  0  0  0  0  0  0  0  0
   38.8620   -2.4405    6.1420 C   0  0  0  0  0  0  0  0  0  0  0  0
   38.5391   -1.6182    4.8491 C   0  0  0  0  0  0  0  0  0  0  0  0
   37.3216   -2.1547    4.0427 C   0  0  0  0  0  0  0  0  0  0  0  0
   37.5958   -3.4493    3.3025 C   0  0  0  0  0  0  0  0  0  0  0  0
   38.5694   -3.1647    2.2654 N   0  0  0  0  0  0  0  0  0  0  0  0
   38.0608   -3.7934    1.0588 C   0  0  0  0  0  0  0  0  0  0  0  0
   38.9762   -4.9173    0.5873 C   0  0  0  0  0  0  0  0  0  0  0  0
   38.2890   -5.6092   -0.5997 C   0  0  0  0  0  0  0  0  0  0  0  0
   36.9835   -6.1774   -0.2318 N   0  0  0  0  0  0  0  0  0  0  0  0
  1  2  1  0  0  0  0
  2  3  1  0  0  0  0
  3  4  1  0  0  0  0
  4  5  1  0  0  0  0
  5  6  1  0  0  0  0
  6  7  1  0  0  0  0
  7  8  1  0  0  0  0
  8  9  1  0  0  0  0
  9 10  1  0  0  0  0
 10 11  1  0  0  0  0
 11 12  1  0  0  0  0
 12 13  1  0  0  0  0
 13 14  1  0  0  0  0
M  END
>  <CHROM.1>
179.88551840,60.33510309,104.79924049,-133.82790400,58.81606597,-72.68312031
-66.64718086,-133.31524596,-115.07133661,174.35902235,-60.10238957,38.00007189
-4.33582016,3.57895049,1.41905848,1.26515391,1.48291296

>  <Name>
ligand

>  <RI>
0

>  <Rbt.Current_Directory>
/home/itssahil/PROJECTS/Mol_Feturizer/New_Systems/rnas/1TN2

>  <Rbt.Executable>
rbdock ($Id: //depot/dev/client3/rdock/2013.1/src/exe/rbdock.cxx#4 $)

>  <Rbt.Library>
libRbt.so (2013.1, Build901 2013/11/27)

>  <Rbt.Parameter_File>
/export/apps/rDock/src/rDock_2013.1_src/data/scripts/dock_solv.prm

>  <Rbt.Receptor>
prm/blind_docking_40.prm

>  <SCORE>
6.74994

>  <SCORE.INTER>
6.6386

>  <SCORE.INTER.CONST>
1

>  <SCORE.INTER.POLAR>
0

>  <SCORE.INTER.ROT>
11

>  <SCORE.INTER.SOLV>
7.6239

>  <SCORE.INTER.VDW>
-9.0489

>  <SCORE.INTER.norm>
0.474186

>  <SCORE.INTRA>
-0.324857

>  <SCORE.INTRA.DIHEDRAL>
-2.5443

>  <SCORE.INTRA.DIHEDRAL.0>
7.79482

>  <SCORE.INTRA.POLAR>
0

>  <SCORE.INTRA.POLAR.0>
0

>  <SCORE.INTRA.REPUL>
0

>  <SCORE.INTRA.REPUL.0>
0

>  <SCORE.INTRA.SOLV>
3.87436

>  <SCORE.INTRA.SOLV.lig_0>
-49.456

>  <SCORE.INTRA.VDW>
-0.989885

>  <SCORE.INTRA.VDW.0>
-0.478406

>  <SCORE.INTRA.norm>
-0.0232041

>  <SCORE.RESTR>
0.436195

>  <SCORE.RESTR.CAVITY>
0.436195

>  <SCORE.RESTR.norm>
0.0311568

>  <SCORE.SYSTEM>
0

>  <SCORE.SYSTEM.CONST>
0

>  <SCORE.SYSTEM.DIHEDRAL>
0

>  <SCORE.SYSTEM.SOLV>
0

>  <SCORE.SYSTEM.norm>
0

>  <SCORE.heavy>
14

>  <SCORE.norm>
0.482138

>  <RMSD>
19.882

$$$$
ligand
 OpenBabel11021811413D
libRbt.so/2013.1/901 2013/11/27
 14 13  0  0  0  0  0  0  0  0999 V2000
   38.1660   -6.3900    3.8724 N   0  0  0  0  0  0  0  0  0  0  0  0
   37.6035   -7.0462    5.0724 C   0  0  0  0  0  0  0  0  0  0  0  0
   36.9229   -6.0190    6.0028 C   0  0  0  0  0  0  0  0  0  0  0  0
   37.8535   -4.9104    6.5215 C   0  0  0  0  0  0  0  0  0  0  0  0
   38.3821   -4.0877    5.3990 N   0  0  0  0  0  0  0  0  0  0  0  0
   38.9921   -2.8380    5.9214 C   0  0  0  0  0  0  0  0  0  0  0  0
   38.6569   -1.5350    5.1201 C   0  0  0  0  0  0  0  0  0  0  0  0
   39.1122   -1.5692    3.6329 C   0  0  0  0  0  0  0  0  0  0  0  0
   38.3869   -2.6004    2.7906 C   0  0  0  0  0  0  0  0  0  0  0  0
   38.9221   -2.5234    1.4445 N   0  0  0  0  0  0  0  0  0  0  0  0
   38.1417   -3.4575    0.6519 C   0  0  0  0  0  0  0  0  0  0  0  0
   38.9796   -4.6530    0.2140 C   0  0  0  0  0  0  0  0  0  0  0  0
   38.1034   -5.5258   -0.6974 C   0  0  0  0  0  0  0  0  0  0  0  0
   36.9411   -6.0792    0.0137 N   0  0  0  0  0  0  0  0  0  0  0  0
  1  2  1  0  0  0  0
  2  3  1  0  0  0  0
  3  4  1  0  0  0  0
  4  5  1  0  0  0  0
  5  6  1  0  0  0  0
  6  7  1  0  0  0  0
  7  8  1  0  0  0  0
  8  9  1  0  0  0  0
  9 10  1  0  0  0  0
 10 11  1  0  0  0  0
 11 12  1  0  0  0  0
 12 13  1  0  0  0  0
 13 14  1  0  0  0  0
M  END
>  <CHROM.1>
-59.77665380,62.44927045,165.96062585,-137.13754604,-60.06446185,65.56972201
-179.47510211,-176.19803478,-111.46108872,-175.93623040,-63.59425942,38.22604320
-4.23083587,3.28307650,1.58198622,1.27074275,1.48455749

>  <Name>
ligand

>  <RI>
0

>  <Rbt.Current_Directory>
/home/itssahil/PROJECTS/Mol_Feturizer/New_Systems/rnas/1TN2

>  <Rbt.Executable>
rbdock ($Id: //depot/dev/client3/rdock/2013.1/src/exe/rbdock.cxx#4 $)

>  <Rbt.Library>
libRbt.so (2013.1, Build901 2013/11/27)

>  <Rbt.Parameter_File>
/export/apps/rDock/src/rDock_2013.1_src/data/scripts/dock_solv.prm

>  <Rbt.Receptor>
prm/blind_docking_40.prm

>  <SCORE>
5.69088

>  <SCORE.INTER>
5.63772

>  <SCORE.INTER.CONST>
1

>  <SCORE.INTER.POLAR>
0

>  <SCORE.INTER.ROT>
11

>  <SCORE.INTER.SOLV>
7.73025

>  <SCORE.INTER.VDW>
-9.7516

>  <SCORE.INTER.norm>
0.402694

>  <SCORE.INTRA>
-0.00807927

>  <SCORE.INTRA.DIHEDRAL>
-5.24869

>  <SCORE.INTRA.DIHEDRAL.0>
7.79482

>  <SCORE.INTRA.POLAR>
0

>  <SCORE.INTRA.POLAR.0>
0

>  <SCORE.INTRA.REPUL>
0

>  <SCORE.INTRA.REPUL.0>
0

>  <SCORE.INTRA.SOLV>
6.42473

>  <SCORE.INTRA.SOLV.lig_0>
-49.456

>  <SCORE.INTRA.VDW>
-0.596101

>  <SCORE.INTRA.VDW.0>
-0.478406

>  <SCORE.INTRA.norm>
-0.000577091

>  <SCORE.RESTR>
0.0612423

>  <SCORE.RESTR.CAVITY>
0.0612423

>  <SCORE.RESTR.norm>
0.00437445

>  <SCORE.SYSTEM>
0

>  <SCORE.SYSTEM.CONST>
0

>  <SCORE.SYSTEM.DIHEDRAL>
0

>  <SCORE.SYSTEM.SOLV>
0

>  <SCORE.SYSTEM.norm>
0

>  <SCORE.heavy>
14

>  <SCORE.norm>
0.406492

>  <RMSD>
19.895

$$$$
ligand
 OpenBabel11021811413D
libRbt.so/2013.1/901 2013/11/27
 14 13  0  0  0  0  0  0  0  0999 V2000
   37.0925   -7.1307    4.9701 N   0  0  0  0  0  0  0  0  0  0  0  0
   37.9789   -5.9502    4.8809 C   0  0  0  0  0  0  0  0  0  0  0  0
   38.1387   -5.2671    6.2563 C   0  0  0  0  0  0  0  0  0  0  0  0
   38.9943   -3.9897    6.2408 C   0  0  0  0  0  0  0  0  0  0  0  0
   38.2086   -2.8263    5.7452 N   0  0  0  0  0  0  0  0  0  0  0  0
   39.1217   -1.7435    5.2975 C   0  0  0  0  0  0  0  0  0  0  0  0
   38.9103   -1.2442    3.8284 C   0  0  0  0  0  0  0  0  0  0  0  0
   38.8048   -2.3871    2.7782 C   0  0  0  0  0  0  0  0  0  0  0  0
   37.6402   -3.3300    3.0094 C   0  0  0  0  0  0  0  0  0  0  0  0
   36.4612   -2.7250    2.4192 N   0  0  0  0  0  0  0  0  0  0  0  0
   35.4778   -3.7888    2.3149 C   0  0  0  0  0  0  0  0  0  0  0  0
   35.4744   -4.4108    0.9234 C   0  0  0  0  0  0  0  0  0  0  0  0
   36.7293   -5.2887    0.8037 C   0  0  0  0  0  0  0  0  0  0  0  0
   36.9310   -5.7858   -0.5656 N   0  0  0  0  0  0  0  0  0  0  0  0
  1  2  1  0  0  0  0
  2  3  1  0  0  0  0
  3  4  1  0  0  0  0
  4  5  1  0  0  0  0
  5  6  1  0  0  0  0
  6  7  1  0  0  0  0
  7  8  1  0  0  0  0
  8  9  1  0  0  0  0
  9 10  1  0  0  0  0
 10 11  1  0  0  0  0
 11 12  1  0  0  0  0
 12 13  1  0  0  0  0
 13 14  1  0  0  0  0
M  END
>  <CHROM.1>
-177.28663905,79.48452869,-160.70388588,124.83834302,-48.06483994,61.08678941
83.43688934,164.12507282,-96.59856769,74.32984295,-171.75095150,37.56900635
-3.99030551,3.49316895,0.29044980,1.11394889,2.51830090

>  <Name>
ligand

>  <RI>
0

>  <Rbt.Current_Directory>
/home/itssahil/PROJECTS/Mol_Feturizer/New_Systems/rnas/1TN2

>  <Rbt.Executable>
rbdock ($Id: //depot/dev/client3/rdock/2013.1/src/exe/rbdock.cxx#4 $)

>  <Rbt.Library>
libRbt.so (2013.1, Build901 2013/11/27)

>  <Rbt.Parameter_File>
/export/apps/rDock/src/rDock_2013.1_src/data/scripts/dock_solv.prm

>  <Rbt.Receptor>
prm/blind_docking_40.prm

>  <SCORE>
10.2083

>  <SCORE.INTER>
8.44909

>  <SCORE.INTER.CONST>
1

>  <SCORE.INTER.POLAR>
0

>  <SCORE.INTER.ROT>
11

>  <SCORE.INTER.SOLV>
6.20944

>  <SCORE.INTER.VDW>
-7.37042

>  <SCORE.INTER.norm>
0.603506

>  <SCORE.INTRA>
1.329

>  <SCORE.INTRA.DIHEDRAL>
-0.639036

>  <SCORE.INTRA.DIHEDRAL.0>
7.79482

>  <SCORE.INTRA.POLAR>
0

>  <SCORE.INTRA.POLAR.0>
0

>  <SCORE.INTRA.REPUL>
0

>  <SCORE.INTRA.REPUL.0>
0

>  <SCORE.INTRA.SOLV>
3.40373

>  <SCORE.INTRA.SOLV.lig_0>
-49.456

>  <SCORE.INTRA.VDW>
-0.0533481

>  <SCORE.INTRA.VDW.0>
-0.478406

>  <SCORE.INTRA.norm>
0.0949285

>  <SCORE.RESTR>
0.430258

>  <SCORE.RESTR.CAVITY>
0.430258

>  <SCORE.RESTR.norm>
0.0307327

>  <SCORE.SYSTEM>
0

>  <SCORE.SYSTEM.CONST>
0

>  <SCORE.SYSTEM.DIHEDRAL>
0

>  <SCORE.SYSTEM.SOLV>
0

>  <SCORE.SYSTEM.norm>
0

>  <SCORE.heavy>
14

>  <SCORE.norm>
0.729167

>  <RMSD>
19.902

$$$$
ligand
 OpenBabel11021811413D
libRbt.so/2013.1/901 2013/11/27
 14 13  0  0  0  0  0  0  0  0999 V2000
   36.4376   -5.7017    3.8526 N   0  0  0  0  0  0  0  0  0  0  0  0
   36.4961   -6.5041    5.0935 C   0  0  0  0  0  0  0  0  0  0  0  0
   36.6228   -5.5988    6.3379 C   0  0  0  0  0  0  0  0  0  0  0  0
   38.0002   -4.9378    6.5107 C   0  0  0  0  0  0  0  0  0  0  0  0
   38.3463   -4.1060    5.3255 N   0  0  0  0  0  0  0  0  0  0  0  0
   38.8727   -2.7867    5.7603 C   0  0  0  0  0  0  0  0  0  0  0  0
   39.7381   -2.0216    4.7030 C   0  0  0  0  0  0  0  0  0  0  0  0
   38.9166   -1.4140    3.5298 C   0  0  0  0  0  0  0  0  0  0  0  0
   38.6691   -2.3792    2.3870 C   0  0  0  0  0  0  0  0  0  0  0  0
   37.3855   -3.0142    2.6183 N   0  0  0  0  0  0  0  0  0  0  0  0
   37.1084   -3.7974    1.4269 C   0  0  0  0  0  0  0  0  0  0  0  0
   37.8329   -5.1380    1.4598 C   0  0  0  0  0  0  0  0  0  0  0  0
   37.3960   -5.9329    0.2199 C   0  0  0  0  0  0  0  0  0  0  0  0
   37.9985   -5.4104   -1.0157 N   0  0  0  0  0  0  0  0  0  0  0  0
  1  2  1  0  0  0  0
  2  3  1  0  0  0  0
  3  4  1  0  0  0  0
  4  5  1  0  0  0  0
  5  6  1  0  0  0  0
  6  7  1  0  0  0  0
  7  8  1  0  0  0  0
  8  9  1  0  0  0  0
  9 10  1  0  0  0  0
 10 11  1  0  0  0  0
 11 12  1  0  0  0  0
 12 13  1  0  0  0  0
 13 14  1  0  0  0  0
M  END
>  <CHROM.1>
-72.57602959,58.43106152,133.97191898,158.92855912,73.24135684,-86.01174748
93.49234890,172.97679056,81.49187394,175.74278964,73.53223814,37.84447379
-4.19577267,3.44383836,1.41542422,1.07299432,1.54601049

>  <Name>
ligand

>  <RI>
0

>  <Rbt.Current_Directory>
/home/itssahil/PROJECTS/Mol_Feturizer/New_Systems/rnas/1TN2

>  <Rbt.Executable>
rbdock ($Id: //depot/dev/client3/rdock/2013.1/src/exe/rbdock.cxx#4 $)

>  <Rbt.Library>
libRbt.so (2013.1, Build901 2013/11/27)

>  <Rbt.Parameter_File>
/export/apps/rDock/src/rDock_2013.1_src/data/scripts/dock_solv.prm

>  <Rbt.Receptor>
prm/blind_docking_40.prm

>  <SCORE>
12.3509

>  <SCORE.INTER>
6.86613

>  <SCORE.INTER.CONST>
1

>  <SCORE.INTER.POLAR>
0

>  <SCORE.INTER.ROT>
11

>  <SCORE.INTER.SOLV>
4.59146

>  <SCORE.INTER.VDW>
-7.8864

>  <SCORE.INTER.norm>
0.490438

>  <SCORE.INTRA>
5.11531

>  <SCORE.INTRA.DIHEDRAL>
1.60651

>  <SCORE.INTRA.DIHEDRAL.0>
7.79482

>  <SCORE.INTRA.POLAR>
0

>  <SCORE.INTRA.POLAR.0>
0

>  <SCORE.INTRA.REPUL>
0.00980997

>  <SCORE.INTRA.REPUL.0>
0

>  <SCORE.INTRA.SOLV>
10.2166

>  <SCORE.INTRA.SOLV.lig_0>
-49.456

>  <SCORE.INTRA.VDW>
-0.845302

>  <SCORE.INTRA.VDW.0>
-0.478406

>  <SCORE.INTRA.norm>
0.365379

>  <SCORE.RESTR>
0.369499

>  <SCORE.RESTR.CAVITY>
0.369499

>  <SCORE.RESTR.norm>
0.0263928

>  <SCORE.SYSTEM>
0

>  <SCORE.SYSTEM.CONST>
0

>  <SCORE.SYSTEM.DIHEDRAL>
0

>  <SCORE.SYSTEM.SOLV>
0

>  <SCORE.SYSTEM.norm>
0

>  <SCORE.heavy>
14

>  <SCORE.norm>
0.882209

>  <RMSD>
19.933

$$$$
ligand
 OpenBabel11021811413D
libRbt.so/2013.1/901 2013/11/27
 14 13  0  0  0  0  0  0  0  0999 V2000
   37.0316   -6.0093   -0.7357 N   0  0  0  0  0  0  0  0  0  0  0  0
   38.4602   -5.8975   -0.3700 C   0  0  0  0  0  0  0  0  0  0  0  0
   38.8213   -4.4518    0.0343 C   0  0  0  0  0  0  0  0  0  0  0  0
   37.8287   -3.7922    1.0057 C   0  0  0  0  0  0  0  0  0  0  0  0
   38.4248   -2.5849    1.6408 N   0  0  0  0  0  0  0  0  0  0  0  0
   38.1932   -2.6093    3.1080 C   0  0  0  0  0  0  0  0  0  0  0  0
   39.0864   -1.6372    3.9503 C   0  0  0  0  0  0  0  0  0  0  0  0
   38.8166   -1.6931    5.4815 C   0  0  0  0  0  0  0  0  0  0  0  0
   39.0131   -3.0672    6.0914 C   0  0  0  0  0  0  0  0  0  0  0  0
   37.7771   -3.8063    5.9167 N   0  0  0  0  0  0  0  0  0  0  0  0
   38.0790   -5.1790    6.2832 C   0  0  0  0  0  0  0  0  0  0  0  0
   37.7771   -6.1408    5.1400 C   0  0  0  0  0  0  0  0  0  0  0  0
   38.8066   -5.8809    4.0298 C   0  0  0  0  0  0  0  0  0  0  0  0
   38.3279   -6.3266    2.7127 N   0  0  0  0  0  0  0  0  0  0  0  0
  1  2  1  0  0  0  0
  2  3  1  0  0  0  0
  3  4  1  0  0  0  0
  4  5  1  0  0  0  0
  5  6  1  0  0  0  0
  6  7  1  0  0  0  0
  7  8  1  0  0  0  0
  8  9  1  0  0  0  0
  9 10  1  0  0  0  0
 10 11  1  0  0  0  0
 11 12  1  0  0  0  0
 12 13  1  0  0  0  0
 13 14  1  0  0  0  0
M  END
>  <CHROM.1>
46.33508312,163.87727684,-132.66137216,163.62890010,-179.90442000,58.32778528
-85.02714588,169.76322598,-122.45711353,69.29071371,-157.14627589,38.31757212
-4.21953819,3.16378977,2.07334439,-1.40996881,-1.38665310

>  <Name>
ligand

>  <RI>
0

>  <Rbt.Current_Directory>
/home/itssahil/PROJECTS/Mol_Feturizer/New_Systems/rnas/1TN2

>  <Rbt.Executable>
rbdock ($Id: //depot/dev/client3/rdock/2013.1/src/exe/rbdock.cxx#4 $)

>  <Rbt.Library>
libRbt.so (2013.1, Build901 2013/11/27)

>  <Rbt.Parameter_File>
/export/apps/rDock/src/rDock_2013.1_src/data/scripts/dock_solv.prm

>  <Rbt.Receptor>
prm/blind_docking_40.prm

>  <SCORE>
10.4482

>  <SCORE.INTER>
7.36532

>  <SCORE.INTER.CONST>
1

>  <SCORE.INTER.POLAR>
0

>  <SCORE.INTER.ROT>
11

>  <SCORE.INTER.SOLV>
8.69637

>  <SCORE.INTER.VDW>
-8.92191

>  <SCORE.INTER.norm>
0.526094

>  <SCORE.INTRA>
2.93778

>  <SCORE.INTRA.DIHEDRAL>
0.500374

>  <SCORE.INTRA.DIHEDRAL.0>
7.79482

>  <SCORE.INTRA.POLAR>
0

>  <SCORE.INTRA.POLAR.0>
0

>  <SCORE.INTRA.REPUL>
0

>  <SCORE.INTRA.REPUL.0>
0

>  <SCORE.INTRA.SOLV>
7.8282

>  <SCORE.INTRA.SOLV.lig_0>
-49.456

>  <SCORE.INTRA.VDW>
-1.22651

>  <SCORE.INTRA.VDW.0>
-0.478406

>  <SCORE.INTRA.norm>
0.209841

>  <SCORE.RESTR>
0.145135

>  <SCORE.RESTR.CAVITY>
0.145135

>  <SCORE.RESTR.norm>
0.0103668

>  <SCORE.SYSTEM>
0

>  <SCORE.SYSTEM.CONST>
0

>  <SCORE.SYSTEM.DIHEDRAL>
0

>  <SCORE.SYSTEM.SOLV>
0

>  <SCORE.SYSTEM.norm>
0

>  <SCORE.heavy>
14

>  <SCORE.norm>
0.746302

>  <RMSD>
19.948

$$$$
ligand
 OpenBabel11021811413D
libRbt.so/2013.1/901 2013/11/27
 14 13  0  0  0  0  0  0  0  0999 V2000
   37.1506   -6.3405    7.4760 N   0  0  0  0  0  0  0  0  0  0  0  0
   37.0117   -6.2549    6.0061 C   0  0  0  0  0  0  0  0  0  0  0  0
   38.0836   -5.3249    5.3977 C   0  0  0  0  0  0  0  0  0  0  0  0
   38.0956   -3.8995    5.9738 C   0  0  0  0  0  0  0  0  0  0  0  0
   39.2545   -3.1228    5.4541 N   0  0  0  0  0  0  0  0  0  0  0  0
   38.8199   -1.7612    5.0491 C   0  0  0  0  0  0  0  0  0  0  0  0
   39.0427   -1.4001    3.5418 C   0  0  0  0  0  0  0  0  0  0  0  0
   38.5367   -2.4843    2.5474 C   0  0  0  0  0  0  0  0  0  0  0  0
   37.0626   -2.8096    2.6892 C   0  0  0  0  0  0  0  0  0  0  0  0
   36.6845   -3.6369    1.5592 N   0  0  0  0  0  0  0  0  0  0  0  0
   37.0486   -4.9956    1.9212 C   0  0  0  0  0  0  0  0  0  0  0  0
   36.7547   -5.9723    0.7885 C   0  0  0  0  0  0  0  0  0  0  0  0
   37.6089   -5.5551   -0.4182 C   0  0  0  0  0  0  0  0  0  0  0  0
   39.0325   -5.8705   -0.2267 N   0  0  0  0  0  0  0  0  0  0  0  0
  1  2  1  0  0  0  0
  2  3  1  0  0  0  0
  3  4  1  0  0  0  0
  4  5  1  0  0  0  0
  5  6  1  0  0  0  0
  6  7  1  0  0  0  0
  7  8  1  0  0  0  0
  8  9  1  0  0  0  0
  9 10  1  0  0  0  0
 10 11  1  0  0  0  0
 11 12  1  0  0  0  0
 12 13  1  0  0  0  0
 13 14  1  0  0  0  0
M  END
>  <CHROM.1>
-56.34474776,173.25046507,135.18115168,-119.58367822,48.47451405,57.87846614
169.78697363,83.56520587,-177.69233511,61.65954532,72.84753724,37.87044483
-4.24465086,3.41131625,1.36360145,1.24314720,1.64747159

>  <Name>
ligand

>  <RI>
0

>  <Rbt.Current_Directory>
/home/itssahil/PROJECTS/Mol_Feturizer/New_Systems/rnas/1TN2

>  <Rbt.Executable>
rbdock ($Id: //depot/dev/client3/rdock/2013.1/src/exe/rbdock.cxx#4 $)

>  <Rbt.Library>
libRbt.so (2013.1, Build901 2013/11/27)

>  <Rbt.Parameter_File>
/export/apps/rDock/src/rDock_2013.1_src/data/scripts/dock_solv.prm

>  <Rbt.Receptor>
prm/blind_docking_40.prm

>  <SCORE>
8.54786

>  <SCORE.INTER>
7.49328

>  <SCORE.INTER.CONST>
1

>  <SCORE.INTER.POLAR>
0

>  <SCORE.INTER.ROT>
11

>  <SCORE.INTER.SOLV>
7.85155

>  <SCORE.INTER.VDW>
-8.555

>  <SCORE.INTER.norm>
0.535234

>  <SCORE.INTRA>
0.250167

>  <SCORE.INTRA.DIHEDRAL>
-3.44439

>  <SCORE.INTRA.DIHEDRAL.0>
7.79482

>  <SCORE.INTRA.POLAR>
0

>  <SCORE.INTRA.POLAR.0>
0

>  <SCORE.INTRA.REPUL>
0

>  <SCORE.INTRA.REPUL.0>
0

>  <SCORE.INTRA.SOLV>
3.70196

>  <SCORE.INTRA.SOLV.lig_0>
-49.456

>  <SCORE.INTRA.VDW>
0.121382

>  <SCORE.INTRA.VDW.0>
-0.478406

>  <SCORE.INTRA.norm>
0.0178691

>  <SCORE.RESTR>
0.804407

>  <SCORE.RESTR.CAVITY>
0.804407

>  <SCORE.RESTR.norm>
0.0574576

>  <SCORE.SYSTEM>
0

>  <SCORE.SYSTEM.CONST>
0

>  <SCORE.SYSTEM.DIHEDRAL>
0

>  <SCORE.SYSTEM.SOLV>
0

>  <SCORE.SYSTEM.norm>
0

>  <SCORE.heavy>
14

>  <SCORE.norm>
0.610561

>  <RMSD>
19.996

$$$$
ligand
 OpenBabel11021811413D
libRbt.so/2013.1/901 2013/11/27
 14 13  0  0  0  0  0  0  0  0999 V2000
   36.0086   -5.5936    5.5216 N   0  0  0  0  0  0  0  0  0  0  0  0
   36.9809   -5.6008    4.4072 C   0  0  0  0  0  0  0  0  0  0  0  0
   38.4284   -5.7234    4.9303 C   0  0  0  0  0  0  0  0  0  0  0  0
   38.8828   -4.5648    5.8331 C   0  0  0  0  0  0  0  0  0  0  0  0
   39.5271   -3.4861    5.0345 N   0  0  0  0  0  0  0  0  0  0  0  0
   39.1156   -2.1533    5.5456 C   0  0  0  0  0  0  0  0  0  0  0  0
   38.1544   -1.3391    4.6154 C   0  0  0  0  0  0  0  0  0  0  0  0
   37.1239   -2.2140    3.8454 C   0  0  0  0  0  0  0  0  0  0  0  0
   37.6839   -2.8714    2.5992 C   0  0  0  0  0  0  0  0  0  0  0  0
   36.5727   -3.4599    1.8757 N   0  0  0  0  0  0  0  0  0  0  0  0
   36.9843   -3.5068    0.4836 C   0  0  0  0  0  0  0  0  0  0  0  0
   36.9172   -4.9252   -0.0703 C   0  0  0  0  0  0  0  0  0  0  0  0
   37.9074   -5.7843    0.7305 C   0  0  0  0  0  0  0  0  0  0  0  0
   39.3029   -5.3782    0.5062 N   0  0  0  0  0  0  0  0  0  0  0  0
  1  2  1  0  0  0  0
  2  3  1  0  0  0  0
  3  4  1  0  0  0  0
  4  5  1  0  0  0  0
  5  6  1  0  0  0  0
  6  7  1  0  0  0  0
  7  8  1  0  0  0  0
  8  9  1  0  0  0  0
  9 10  1  0  0  0  0
 10 11  1  0  0  0  0
 11 12  1  0  0  0  0
 12 13  1  0  0  0  0
 13 14  1  0  0  0  0
M  END
>  <CHROM.1>
-61.67942901,-91.15186453,140.12646089,-109.34899900,35.79879365,-81.06151529
-170.65666544,153.95500806,123.36821811,-62.49614190,-66.09384034,37.82786077
-4.04274146,3.27558887,0.39780795,1.39409100,2.48499630

>  <Name>
ligand

>  <RI>
0

>  <Rbt.Current_Directory>
/home/itssahil/PROJECTS/Mol_Feturizer/New_Systems/rnas/1TN2

>  <Rbt.Executable>
rbdock ($Id: //depot/dev/client3/rdock/2013.1/src/exe/rbdock.cxx#4 $)

>  <Rbt.Library>
libRbt.so (2013.1, Build901 2013/11/27)

>  <Rbt.Parameter_File>
/export/apps/rDock/src/rDock_2013.1_src/data/scripts/dock_solv.prm

>  <Rbt.Receptor>
prm/blind_docking_40.prm

>  <SCORE>
11.8074

>  <SCORE.INTER>
8.33025

>  <SCORE.INTER.CONST>
1

>  <SCORE.INTER.POLAR>
0

>  <SCORE.INTER.ROT>
11

>  <SCORE.INTER.SOLV>
4.88455

>  <SCORE.INTER.VDW>
-7.00802

>  <SCORE.INTER.norm>
0.595018

>  <SCORE.INTRA>
3.22169

>  <SCORE.INTRA.DIHEDRAL>
2.91616

>  <SCORE.INTRA.DIHEDRAL.0>
7.79482

>  <SCORE.INTRA.POLAR>
0

>  <SCORE.INTRA.POLAR.0>
0

>  <SCORE.INTRA.REPUL>
0

>  <SCORE.INTRA.REPUL.0>
0

>  <SCORE.INTRA.SOLV>
6.63848

>  <SCORE.INTRA.SOLV.lig_0>
-49.456

>  <SCORE.INTRA.VDW>
-1.55562

>  <SCORE.INTRA.VDW.0>
-0.478406

>  <SCORE.INTRA.norm>
0.230121

>  <SCORE.RESTR>
0.255496

>  <SCORE.RESTR.CAVITY>
0.255496

>  <SCORE.RESTR.norm>
0.0182497

>  <SCORE.SYSTEM>
0

>  <SCORE.SYSTEM.CONST>
0

>  <SCORE.SYSTEM.DIHEDRAL>
0

>  <SCORE.SYSTEM.SOLV>
0

>  <SCORE.SYSTEM.norm>
0

>  <SCORE.heavy>
14

>  <SCORE.norm>
0.843389

>  <RMSD>
20.004

$$$$
ligand
 OpenBabel11021811413D
libRbt.so/2013.1/901 2013/11/27
 14 13  0  0  0  0  0  0  0  0999 V2000
   38.2528   -5.8094    2.5298 N   0  0  0  0  0  0  0  0  0  0  0  0
   39.0905   -5.4759    1.3575 C   0  0  0  0  0  0  0  0  0  0  0  0
   38.2973   -5.6324    0.0421 C   0  0  0  0  0  0  0  0  0  0  0  0
   37.1964   -4.5803   -0.1703 C   0  0  0  0  0  0  0  0  0  0  0  0
   36.1724   -4.6532    0.9079 N   0  0  0  0  0  0  0  0  0  0  0  0
   35.6199   -3.3020    1.1834 C   0  0  0  0  0  0  0  0  0  0  0  0
   35.9420   -2.7150    2.5990 C   0  0  0  0  0  0  0  0  0  0  0  0
   37.4561   -2.7135    2.9565 C   0  0  0  0  0  0  0  0  0  0  0  0
   37.7881   -1.9541    4.2261 C   0  0  0  0  0  0  0  0  0  0  0  0
   39.1009   -2.3866    4.6662 N   0  0  0  0  0  0  0  0  0  0  0  0
   38.9188   -2.9071    6.0099 C   0  0  0  0  0  0  0  0  0  0  0  0
   38.3861   -4.3351    5.9874 C   0  0  0  0  0  0  0  0  0  0  0  0
   38.0656   -4.7345    7.4357 C   0  0  0  0  0  0  0  0  0  0  0  0
   37.4944   -6.0866    7.5257 N   0  0  0  0  0  0  0  0  0  0  0  0
  1  2  1  0  0  0  0
  2  3  1  0  0  0  0
  3  4  1  0  0  0  0
  4  5  1  0  0  0  0
  5  6  1  0  0  0  0
  6  7  1  0  0  0  0
  7  8  1  0  0  0  0
  8  9  1  0  0  0  0
  9 10  1  0  0  0  0
 10 11  1  0  0  0  0
 11 12  1  0  0  0  0
 12 13  1  0  0  0  0
 13 14  1  0  0  0  0
M  END
>  <CHROM.1>
69.84119130,-61.26670873,147.53973276,-114.09660860,53.05152234,171.01268419
161.77818223,-121.92831205,80.88528829,-173.22170597,177.89768479,37.69863843
-4.09157833,3.37526945,-2.09354978,-1.20987829,1.01407793

>  <Name>
ligand

>  <RI>
0

>  <Rbt.Current_Directory>
/home/itssahil/PROJECTS/Mol_Feturizer/New_Systems/rnas/1TN2

>  <Rbt.Executable>
rbdock ($Id: //depot/dev/client3/rdock/2013.1/src/exe/rbdock.cxx#4 $)

>  <Rbt.Library>
libRbt.so (2013.1, Build901 2013/11/27)

>  <Rbt.Parameter_File>
/export/apps/rDock/src/rDock_2013.1_src/data/scripts/dock_solv.prm

>  <Rbt.Receptor>
prm/blind_docking_40.prm

>  <SCORE>
9.77224

>  <SCORE.INTER>
8.69876

>  <SCORE.INTER.CONST>
1

>  <SCORE.INTER.POLAR>
0

>  <SCORE.INTER.ROT>
11

>  <SCORE.INTER.SOLV>
8.41541

>  <SCORE.INTER.VDW>
-7.9393

>  <SCORE.INTER.norm>
0.62134

>  <SCORE.INTRA>
1.05899

>  <SCORE.INTRA.DIHEDRAL>
-2.19466

>  <SCORE.INTRA.DIHEDRAL.0>
7.79482

>  <SCORE.INTRA.POLAR>
0

>  <SCORE.INTRA.POLAR.0>
0

>  <SCORE.INTRA.REPUL>
0

>  <SCORE.INTRA.REPUL.0>
0

>  <SCORE.INTRA.SOLV>
6.18142

>  <SCORE.INTRA.SOLV.lig_0>
-49.456

>  <SCORE.INTRA.VDW>
-0.934392

>  <SCORE.INTRA.VDW.0>
-0.478406

>  <SCORE.INTRA.norm>
0.0756421

>  <SCORE.RESTR>
0.0144933

>  <SCORE.RESTR.CAVITY>
0.0144933

>  <SCORE.RESTR.norm>
0.00103524

>  <SCORE.SYSTEM>
0

>  <SCORE.SYSTEM.CONST>
0

>  <SCORE.SYSTEM.DIHEDRAL>
0

>  <SCORE.SYSTEM.SOLV>
0

>  <SCORE.SYSTEM.norm>
0

>  <SCORE.heavy>
14

>  <SCORE.norm>
0.698017

>  <RMSD>
20.013

$$$$
ligand
 OpenBabel11021811413D
libRbt.so/2013.1/901 2013/11/27
 14 13  0  0  0  0  0  0  0  0999 V2000
   39.5638   -5.5181    0.5100 N   0  0  0  0  0  0  0  0  0  0  0  0
   38.1765   -5.7725    0.0651 C   0  0  0  0  0  0  0  0  0  0  0  0
   37.5599   -4.5156   -0.5860 C   0  0  0  0  0  0  0  0  0  0  0  0
   37.2789   -3.3616    0.3904 C   0  0  0  0  0  0  0  0  0  0  0  0
   36.2292   -3.7394    1.3762 N   0  0  0  0  0  0  0  0  0  0  0  0
   36.3091   -2.8626    2.5727 C   0  0  0  0  0  0  0  0  0  0  0  0
   37.7027   -2.8158    3.2855 C   0  0  0  0  0  0  0  0  0  0  0  0
   37.7462   -1.8899    4.5350 C   0  0  0  0  0  0  0  0  0  0  0  0
   38.9948   -2.0538    5.3793 C   0  0  0  0  0  0  0  0  0  0  0  0
   39.2310   -3.4757    5.5431 N   0  0  0  0  0  0  0  0  0  0  0  0
   38.4747   -3.8720    6.7181 C   0  0  0  0  0  0  0  0  0  0  0  0
   38.0820   -5.3436    6.6583 C   0  0  0  0  0  0  0  0  0  0  0  0
   37.1961   -5.5382    5.4185 C   0  0  0  0  0  0  0  0  0  0  0  0
   37.0014   -6.9589    5.0923 N   0  0  0  0  0  0  0  0  0  0  0  0
  1  2  1  0  0  0  0
  2  3  1  0  0  0  0
  3  4  1  0  0  0  0
  4  5  1  0  0  0  0
  5  6  1  0  0  0  0
  6  7  1  0  0  0  0
  7  8  1  0  0  0  0
  8  9  1  0  0  0  0
  9 10  1  0  0  0  0
 10 11  1  0  0  0  0
 11 12  1  0  0  0  0
 12 13  1  0  0  0  0
 13 14  1  0  0  0  0
M  END
>  <CHROM.1>
-69.34556599,-65.37480942,159.54076445,-55.19570683,-179.87723059,168.44997473
-45.44606607,-88.01062192,153.30921922,-61.09441211,167.38105681,37.82464609
-4.12236768,3.35427137,-2.98900353,-1.48251414,0.08333001

>  <Name>
ligand

>  <RI>
0

>  <Rbt.Current_Directory>
/home/itssahil/PROJECTS/Mol_Feturizer/New_Systems/rnas/1TN2

>  <Rbt.Executable>
rbdock ($Id: //depot/dev/client3/rdock/2013.1/src/exe/rbdock.cxx#4 $)

>  <Rbt.Library>
libRbt.so (2013.1, Build901 2013/11/27)

>  <Rbt.Parameter_File>
/export/apps/rDock/src/rDock_2013.1_src/data/scripts/dock_solv.prm

>  <Rbt.Receptor>
prm/blind_docking_40.prm

>  <SCORE>
7.94495

>  <SCORE.INTER>
7.23408

>  <SCORE.INTER.CONST>
1

>  <SCORE.INTER.POLAR>
0

>  <SCORE.INTER.ROT>
11

>  <SCORE.INTER.SOLV>
5.45264

>  <SCORE.INTER.VDW>
-7.92816

>  <SCORE.INTER.norm>
0.51672

>  <SCORE.INTRA>
0.570324

>  <SCORE.INTRA.DIHEDRAL>
-4.10521

>  <SCORE.INTRA.DIHEDRAL.0>
7.79482

>  <SCORE.INTRA.POLAR>
0

>  <SCORE.INTRA.POLAR.0>
0

>  <SCORE.INTRA.REPUL>
0

>  <SCORE.INTRA.REPUL.0>
0

>  <SCORE.INTRA.SOLV>
3.04034

>  <SCORE.INTRA.SOLV.lig_0>
-49.456

>  <SCORE.INTRA.VDW>
1.10276

>  <SCORE.INTRA.VDW.0>
-0.478406

>  <SCORE.INTRA.norm>
0.0407374

>  <SCORE.RESTR>
0.14054

>  <SCORE.RESTR.CAVITY>
0.14054

>  <SCORE.RESTR.norm>
0.0100386

>  <SCORE.SYSTEM>
0

>  <SCORE.SYSTEM.CONST>
0

>  <SCORE.SYSTEM.DIHEDRAL>
0

>  <SCORE.SYSTEM.SOLV>
0

>  <SCORE.SYSTEM.norm>
0

>  <SCORE.heavy>
14

>  <SCORE.norm>
0.567496

>  <RMSD>
20.062

$$$$
ligand
 OpenBabel11021811413D
libRbt.so/2013.1/901 2013/11/27
 14 13  0  0  0  0  0  0  0  0999 V2000
   39.1009   -1.5669    3.5868 N   0  0  0  0  0  0  0  0  0  0  0  0
   38.9198   -1.5768    5.0546 C   0  0  0  0  0  0  0  0  0  0  0  0
   38.8218   -3.0198    5.5950 C   0  0  0  0  0  0  0  0  0  0  0  0
   37.6221   -3.8217    5.0644 C   0  0  0  0  0  0  0  0  0  0  0  0
   37.5892   -5.1879    5.6550 N   0  0  0  0  0  0  0  0  0  0  0  0
   38.6002   -6.0557    4.9981 C   0  0  0  0  0  0  0  0  0  0  0  0
   38.4033   -6.2799    3.4608 C   0  0  0  0  0  0  0  0  0  0  0  0
   39.0200   -5.1620    2.5718 C   0  0  0  0  0  0  0  0  0  0  0  0
   38.7503   -5.3350    1.0899 C   0  0  0  0  0  0  0  0  0  0  0  0
   37.3502   -5.0329    0.8599 N   0  0  0  0  0  0  0  0  0  0  0  0
   37.2839   -3.5993    0.6359 C   0  0  0  0  0  0  0  0  0  0  0  0
   35.9055   -3.0448    0.9760 C   0  0  0  0  0  0  0  0  0  0  0  0
   35.7615   -3.0633    2.5054 C   0  0  0  0  0  0  0  0  0  0  0  0
   34.5071   -2.4395    2.9528 N   0  0  0  0  0  0  0  0  0  0  0  0
  1  2  1  0  0  0  0
  2  3  1  0  0  0  0
  3  4  1  0  0  0  0
  4  5  1  0  0  0  0
  5  6  1  0  0  0  0
  6  7  1  0  0  0  0
  7  8  1  0  0  0  0
  8  9  1  0  0  0  0
  9 10  1  0  0  0  0
 10 11  1  0  0  0  0
 11 12  1  0  0  0  0
 12 13  1  0  0  0  0
 13 14  1  0  0  0  0
M  END
>  <CHROM.1>
-62.31245882,-178.88014687,-76.94797393,-61.43479900,84.86711664,-176.24879277
72.26153111,87.69993330,-155.27346908,72.15725456,175.09221371,37.68850376
-3.94196172,3.21472866,0.69299202,-0.94238159,0.85001807

>  <Name>
ligand

>  <RI>
0

>  <Rbt.Current_Directory>
/home/itssahil/PROJECTS/Mol_Feturizer/New_Systems/rnas/1TN2

>  <Rbt.Executable>
rbdock ($Id: //depot/dev/client3/rdock/2013.1/src/exe/rbdock.cxx#4 $)

>  <Rbt.Library>
libRbt.so (2013.1, Build901 2013/11/27)

>  <Rbt.Parameter_File>
/export/apps/rDock/src/rDock_2013.1_src/data/scripts/dock_solv.prm

>  <Rbt.Receptor>
prm/blind_docking_40.prm

>  <SCORE>
9.21439

>  <SCORE.INTER>
8.16147

>  <SCORE.INTER.CONST>
1

>  <SCORE.INTER.POLAR>
0

>  <SCORE.INTER.ROT>
11

>  <SCORE.INTER.SOLV>
7.88269

>  <SCORE.INTER.VDW>
-8.11992

>  <SCORE.INTER.norm>
0.582962

>  <SCORE.INTRA>
1.04368

>  <SCORE.INTRA.DIHEDRAL>
-3.31602

>  <SCORE.INTRA.DIHEDRAL.0>
7.79482

>  <SCORE.INTRA.POLAR>
0

>  <SCORE.INTRA.POLAR.0>
0

>  <SCORE.INTRA.REPUL>
0

>  <SCORE.INTRA.REPUL.0>
0

>  <SCORE.INTRA.SOLV>
4.58331

>  <SCORE.INTRA.SOLV.lig_0>
-49.456

>  <SCORE.INTRA.VDW>
0.410034

>  <SCORE.INTRA.VDW.0>
-0.478406

>  <SCORE.INTRA.norm>
0.0745484

>  <SCORE.RESTR>
0.00924192

>  <SCORE.RESTR.CAVITY>
0.00924192

>  <SCORE.RESTR.norm>
0.000660137

>  <SCORE.SYSTEM>
0

>  <SCORE.SYSTEM.CONST>
0

>  <SCORE.SYSTEM.DIHEDRAL>
0

>  <SCORE.SYSTEM.SOLV>
0

>  <SCORE.SYSTEM.norm>
0

>  <SCORE.heavy>
14

>  <SCORE.norm>
0.658171

>  <RMSD>
20.097

$$$$
ligand
 OpenBabel11021811413D
libRbt.so/2013.1/901 2013/11/27
 14 13  0  0  0  0  0  0  0  0999 V2000
   36.7284   -6.9434    4.7069 N   0  0  0  0  0  0  0  0  0  0  0  0
   37.7875   -6.0514    5.2260 C   0  0  0  0  0  0  0  0  0  0  0  0
   37.5432   -5.6994    6.7094 C   0  0  0  0  0  0  0  0  0  0  0  0
   38.6261   -4.8106    7.3430 C   0  0  0  0  0  0  0  0  0  0  0  0
   38.4035   -3.3770    7.0090 N   0  0  0  0  0  0  0  0  0  0  0  0
   39.0985   -3.0310    5.7425 C   0  0  0  0  0  0  0  0  0  0  0  0
   38.2161   -2.3278    4.6567 C   0  0  0  0  0  0  0  0  0  0  0  0
   37.0486   -3.2056    4.1210 C   0  0  0  0  0  0  0  0  0  0  0  0
   36.3929   -2.6596    2.8677 C   0  0  0  0  0  0  0  0  0  0  0  0
   35.5495   -3.7059    2.3216 N   0  0  0  0  0  0  0  0  0  0  0  0
   36.1874   -4.1275    1.0867 C   0  0  0  0  0  0  0  0  0  0  0  0
   36.5382   -5.6105    1.1183 C   0  0  0  0  0  0  0  0  0  0  0  0
   37.1954   -5.9613   -0.2252 C   0  0  0  0  0  0  0  0  0  0  0  0
   38.4912   -5.2887   -0.4022 N   0  0  0  0  0  0  0  0  0  0  0  0
  1  2  1  0  0  0  0
  2  3  1  0  0  0  0
  3  4  1  0  0  0  0
  4  5  1  0  0  0  0
  5  6  1  0  0  0  0
  6  7  1  0  0  0  0
  7  8  1  0  0  0  0
  8  9  1  0  0  0  0
  9 10  1  0  0  0  0
 10 11  1  0  0  0  0
 11 12  1  0  0  0  0
 12 13  1  0  0  0  0
 13 14  1  0  0  0  0
M  END
>  <CHROM.1>
178.07047543,81.75428359,-89.26468720,128.16159773,-63.65655821,-166.98934194
167.37995589,-110.79154522,120.91643554,179.63919105,66.00017934,37.41480109
-4.48556756,3.73451014,-0.04024496,1.35649189,3.05756467

>  <Name>
ligand

>  <RI>
0

>  <Rbt.Current_Directory>
/home/itssahil/PROJECTS/Mol_Feturizer/New_Systems/rnas/1TN2

>  <Rbt.Executable>
rbdock ($Id: //depot/dev/client3/rdock/2013.1/src/exe/rbdock.cxx#4 $)

>  <Rbt.Library>
libRbt.so (2013.1, Build901 2013/11/27)

>  <Rbt.Parameter_File>
/export/apps/rDock/src/rDock_2013.1_src/data/scripts/dock_solv.prm

>  <Rbt.Receptor>
prm/blind_docking_40.prm

>  <SCORE>
7.90302

>  <SCORE.INTER>
7.37016

>  <SCORE.INTER.CONST>
1

>  <SCORE.INTER.POLAR>
0

>  <SCORE.INTER.ROT>
11

>  <SCORE.INTER.SOLV>
6.69101

>  <SCORE.INTER.VDW>
-8.25023

>  <SCORE.INTER.norm>
0.52644

>  <SCORE.INTRA>
0.370561

>  <SCORE.INTRA.DIHEDRAL>
-0.671854

>  <SCORE.INTRA.DIHEDRAL.0>
7.79482

>  <SCORE.INTRA.POLAR>
0

>  <SCORE.INTRA.POLAR.0>
0

>  <SCORE.INTRA.REPUL>
0

>  <SCORE.INTRA.REPUL.0>
0

>  <SCORE.INTRA.SOLV>
3.11364

>  <SCORE.INTRA.SOLV.lig_0>
-49.456

>  <SCORE.INTRA.VDW>
-0.850332

>  <SCORE.INTRA.VDW.0>
-0.478406

>  <SCORE.INTRA.norm>
0.0264686

>  <SCORE.RESTR>
0.162304

>  <SCORE.RESTR.CAVITY>
0.162304

>  <SCORE.RESTR.norm>
0.0115932

>  <SCORE.SYSTEM>
0

>  <SCORE.SYSTEM.CONST>
0

>  <SCORE.SYSTEM.DIHEDRAL>
0

>  <SCORE.SYSTEM.SOLV>
0

>  <SCORE.SYSTEM.norm>
0

>  <SCORE.heavy>
14

>  <SCORE.norm>
0.564502

>  <RMSD>
20.118

$$$$
ligand
 OpenBabel11021811413D
libRbt.so/2013.1/901 2013/11/27
 14 13  0  0  0  0  0  0  0  0999 V2000
   36.9249   -5.1291   -0.3539 N   0  0  0  0  0  0  0  0  0  0  0  0
   36.5504   -5.8767    0.8659 C   0  0  0  0  0  0  0  0  0  0  0  0
   35.5354   -5.0834    1.7171 C   0  0  0  0  0  0  0  0  0  0  0  0
   36.1408   -3.9121    2.5080 C   0  0  0  0  0  0  0  0  0  0  0  0
   36.4774   -2.7760    1.6067 N   0  0  0  0  0  0  0  0  0  0  0  0
   37.9179   -2.8162    1.2460 C   0  0  0  0  0  0  0  0  0  0  0  0
   38.8450   -1.8460    2.0532 C   0  0  0  0  0  0  0  0  0  0  0  0
   39.1403   -2.3130    3.5075 C   0  0  0  0  0  0  0  0  0  0  0  0
   37.9600   -2.1766    4.4494 C   0  0  0  0  0  0  0  0  0  0  0  0
   38.3982   -2.5976    5.7667 N   0  0  0  0  0  0  0  0  0  0  0  0
   38.3451   -4.0491    5.7587 C   0  0  0  0  0  0  0  0  0  0  0  0
   36.9257   -4.5565    5.9850 C   0  0  0  0  0  0  0  0  0  0  0  0
   36.9799   -6.0915    6.0134 C   0  0  0  0  0  0  0  0  0  0  0  0
   37.3772   -6.6574    4.7155 N   0  0  0  0  0  0  0  0  0  0  0  0
  1  2  1  0  0  0  0
  2  3  1  0  0  0  0
  3  4  1  0  0  0  0
  4  5  1  0  0  0  0
  5  6  1  0  0  0  0
  6  7  1  0  0  0  0
  7  8  1  0  0  0  0
  8  9  1  0  0  0  0
  9 10  1  0  0  0  0
 10 11  1  0  0  0  0
 11 12  1  0  0  0  0
 12 13  1  0  0  0  0
 13 14  1  0  0  0  0
M  END
>  <CHROM.1>
-75.59482744,73.59758170,-97.36374881,-99.88373921,75.13687082,-72.52111241
-177.82837951,-80.71649797,-80.34452380,-177.88339724,-65.29946239,37.39420777
-3.99136832,3.27436882,2.01904498,-1.07718827,-1.19591987

>  <Name>
ligand

>  <RI>
0

>  <Rbt.Current_Directory>
/home/itssahil/PROJECTS/Mol_Feturizer/New_Systems/rnas/1TN2

>  <Rbt.Executable>
rbdock ($Id: //depot/dev/client3/rdock/2013.1/src/exe/rbdock.cxx#4 $)

>  <Rbt.Library>
libRbt.so (2013.1, Build901 2013/11/27)

>  <Rbt.Parameter_File>
/export/apps/rDock/src/rDock_2013.1_src/data/scripts/dock_solv.prm

>  <Rbt.Receptor>
prm/blind_docking_40.prm

>  <SCORE>
12.7117

>  <SCORE.INTER>
8.97799

>  <SCORE.INTER.CONST>
1

>  <SCORE.INTER.POLAR>
0

>  <SCORE.INTER.ROT>
11

>  <SCORE.INTER.SOLV>
5.29083

>  <SCORE.INTER.VDW>
-6.71162

>  <SCORE.INTER.norm>
0.641285

>  <SCORE.INTRA>
3.41781

>  <SCORE.INTRA.DIHEDRAL>
-2.3055

>  <SCORE.INTRA.DIHEDRAL.0>
7.79482

>  <SCORE.INTRA.POLAR>
0

>  <SCORE.INTRA.POLAR.0>
0

>  <SCORE.INTRA.REPUL>
0

>  <SCORE.INTRA.REPUL.0>
0

>  <SCORE.INTRA.SOLV>
7.32151

>  <SCORE.INTRA.SOLV.lig_0>
-49.456

>  <SCORE.INTRA.VDW>
0.909803

>  <SCORE.INTRA.VDW.0>
-0.478406

>  <SCORE.INTRA.norm>
0.244129

>  <SCORE.RESTR>
0.315889

>  <SCORE.RESTR.CAVITY>
0.315889

>  <SCORE.RESTR.norm>
0.0225635

>  <SCORE.SYSTEM>
0

>  <SCORE.SYSTEM.CONST>
0

>  <SCORE.SYSTEM.DIHEDRAL>
0

>  <SCORE.SYSTEM.SOLV>
0

>  <SCORE.SYSTEM.norm>
0

>  <SCORE.heavy>
14

>  <SCORE.norm>
0.907978

>  <RMSD>
20.139

$$$$
ligand
 OpenBabel11021811413D
libRbt.so/2013.1/901 2013/11/27
 14 13  0  0  0  0  0  0  0  0999 V2000
   38.0213   -4.4995    7.8031 N   0  0  0  0  0  0  0  0  0  0  0  0
   37.0028   -5.4854    7.3814 C   0  0  0  0  0  0  0  0  0  0  0  0
   36.6039   -5.2787    5.9042 C   0  0  0  0  0  0  0  0  0  0  0  0
   37.7590   -5.4353    4.9016 C   0  0  0  0  0  0  0  0  0  0  0  0
   38.8557   -4.4722    5.1951 N   0  0  0  0  0  0  0  0  0  0  0  0
   39.0711   -3.5703    4.0345 C   0  0  0  0  0  0  0  0  0  0  0  0
   38.2149   -2.2592    4.0282 C   0  0  0  0  0  0  0  0  0  0  0  0
   36.6830   -2.5017    3.9063 C   0  0  0  0  0  0  0  0  0  0  0  0
   36.2801   -3.2859    2.6728 C   0  0  0  0  0  0  0  0  0  0  0  0
   36.7947   -2.5789    1.5153 N   0  0  0  0  0  0  0  0  0  0  0  0
   36.9985   -3.5880    0.4907 C   0  0  0  0  0  0  0  0  0  0  0  0
   38.3398   -4.2918    0.6602 C   0  0  0  0  0  0  0  0  0  0  0  0
   38.5255   -5.2333   -0.5395 C   0  0  0  0  0  0  0  0  0  0  0  0
   37.4976   -6.2841   -0.5852 N   0  0  0  0  0  0  0  0  0  0  0  0
  1  2  1  0  0  0  0
  2  3  1  0  0  0  0
  3  4  1  0  0  0  0
  4  5  1  0  0  0  0
  5  6  1  0  0  0  0
  6  7  1  0  0  0  0
  7  8  1  0  0  0  0
  8  9  1  0  0  0  0
  9 10  1  0  0  0  0
 10 11  1  0  0  0  0
 11 12  1  0  0  0  0
 12 13  1  0  0  0  0
 13 14  1  0  0  0  0
M  END
>  <CHROM.1>
60.77318122,-58.64192619,-119.59205222,89.23940129,-64.63740198,-57.34130729
-56.10799944,152.49532755,-83.46500491,-174.46589131,-62.83757022,37.61763236
-4.19734734,3.38343576,-1.61127744,1.38486792,-1.50731205

>  <Name>
ligand

>  <RI>
0

>  <Rbt.Current_Directory>
/home/itssahil/PROJECTS/Mol_Feturizer/New_Systems/rnas/1TN2

>  <Rbt.Executable>
rbdock ($Id: //depot/dev/client3/rdock/2013.1/src/exe/rbdock.cxx#4 $)

>  <Rbt.Library>
libRbt.so (2013.1, Build901 2013/11/27)

>  <Rbt.Parameter_File>
/export/apps/rDock/src/rDock_2013.1_src/data/scripts/dock_solv.prm

>  <Rbt.Receptor>
prm/blind_docking_40.prm

>  <SCORE>
10.3615

>  <SCORE.INTER>
9.723

>  <SCORE.INTER.CONST>
1

>  <SCORE.INTER.POLAR>
0

>  <SCORE.INTER.ROT>
11

>  <SCORE.INTER.SOLV>
10.308

>  <SCORE.INTER.VDW>
-7.88733

>  <SCORE.INTER.norm>
0.6945

>  <SCORE.INTRA>
0.638474

>  <SCORE.INTRA.DIHEDRAL>
-4.77595

>  <SCORE.INTRA.DIHEDRAL.0>
7.79482

>  <SCORE.INTRA.POLAR>
0

>  <SCORE.INTRA.POLAR.0>
0

>  <SCORE.INTRA.REPUL>
0

>  <SCORE.INTRA.REPUL.0>
0

>  <SCORE.INTRA.SOLV>
5.77059

>  <SCORE.INTRA.SOLV.lig_0>
-49.456

>  <SCORE.INTRA.VDW>
0.141156

>  <SCORE.INTRA.VDW.0>
-0.478406

>  <SCORE.INTRA.norm>
0.0456053

>  <SCORE.RESTR>
0

>  <SCORE.RESTR.CAVITY>
0

>  <SCORE.RESTR.norm>
0

>  <SCORE.SYSTEM>
0

>  <SCORE.SYSTEM.CONST>
0

>  <SCORE.SYSTEM.DIHEDRAL>
0

>  <SCORE.SYSTEM.SOLV>
0

>  <SCORE.SYSTEM.norm>
0

>  <SCORE.heavy>
14

>  <SCORE.norm>
0.740106

>  <RMSD>
20.153

$$$$
ligand
 OpenBabel11021811413D
libRbt.so/2013.1/901 2013/11/27
 14 13  0  0  0  0  0  0  0  0999 V2000
   39.1003   -5.3172    1.1947 N   0  0  0  0  0  0  0  0  0  0  0  0
   38.2963   -5.6079   -0.0121 C   0  0  0  0  0  0  0  0  0  0  0  0
   36.7876   -5.4363    0.2679 C   0  0  0  0  0  0  0  0  0  0  0  0
   36.3798   -4.0300    0.7370 C   0  0  0  0  0  0  0  0  0  0  0  0
   36.7185   -3.8263    2.1723 N   0  0  0  0  0  0  0  0  0  0  0  0
   37.7155   -2.7343    2.3145 C   0  0  0  0  0  0  0  0  0  0  0  0
   38.1081   -2.3637    3.7845 C   0  0  0  0  0  0  0  0  0  0  0  0
   38.7213   -3.5419    4.5944 C   0  0  0  0  0  0  0  0  0  0  0  0
   38.6111   -3.3786    6.0978 C   0  0  0  0  0  0  0  0  0  0  0  0
   38.5973   -4.7054    6.6841 N   0  0  0  0  0  0  0  0  0  0  0  0
   37.2230   -4.9485    7.0864 C   0  0  0  0  0  0  0  0  0  0  0  0
   36.3457   -5.3000    5.8906 C   0  0  0  0  0  0  0  0  0  0  0  0
   37.0563   -6.4117    5.1037 C   0  0  0  0  0  0  0  0  0  0  0  0
   36.4267   -6.6573    3.7976 N   0  0  0  0  0  0  0  0  0  0  0  0
  1  2  1  0  0  0  0
  2  3  1  0  0  0  0
  3  4  1  0  0  0  0
  4  5  1  0  0  0  0
  5  6  1  0  0  0  0
  6  7  1  0  0  0  0
  7  8  1  0  0  0  0
  8  9  1  0  0  0  0
  9 10  1  0  0  0  0
 10 11  1  0  0  0  0
 11 12  1  0  0  0  0
 12 13  1  0  0  0  0
 13 14  1  0  0  0  0
M  END
>  <CHROM.1>
59.13631335,-77.64127362,117.13438713,176.98996053,59.43224559,-157.77391805
153.05394175,-105.33486702,77.02634177,50.09313406,-169.39973507,37.57763120
-4.58972553,3.55097745,-1.67810774,1.14806461,1.64172497

>  <Name>
ligand

>  <RI>
0

>  <Rbt.Current_Directory>
/home/itssahil/PROJECTS/Mol_Feturizer/New_Systems/rnas/1TN2

>  <Rbt.Executable>
rbdock ($Id: //depot/dev/client3/rdock/2013.1/src/exe/rbdock.cxx#4 $)

>  <Rbt.Library>
libRbt.so (2013.1, Build901 2013/11/27)

>  <Rbt.Parameter_File>
/export/apps/rDock/src/rDock_2013.1_src/data/scripts/dock_solv.prm

>  <Rbt.Receptor>
prm/blind_docking_40.prm

>  <SCORE>
14.3991

>  <SCORE.INTER>
9.03368

>  <SCORE.INTER.CONST>
1

>  <SCORE.INTER.POLAR>
0

>  <SCORE.INTER.ROT>
11

>  <SCORE.INTER.SOLV>
5.7887

>  <SCORE.INTER.VDW>
-6.84044

>  <SCORE.INTER.norm>
0.645263

>  <SCORE.INTRA>
5.35034

>  <SCORE.INTRA.DIHEDRAL>
0.70716

>  <SCORE.INTRA.DIHEDRAL.0>
7.79482

>  <SCORE.INTRA.POLAR>
0

>  <SCORE.INTRA.POLAR.0>
0

>  <SCORE.INTRA.REPUL>
0

>  <SCORE.INTRA.REPUL.0>
0

>  <SCORE.INTRA.SOLV>
10.0181

>  <SCORE.INTRA.SOLV.lig_0>
-49.456

>  <SCORE.INTRA.VDW>
-0.0122842

>  <SCORE.INTRA.VDW.0>
-0.478406

>  <SCORE.INTRA.norm>
0.382167

>  <SCORE.RESTR>
0.0150414

>  <SCORE.RESTR.CAVITY>
0.0150414

>  <SCORE.RESTR.norm>
0.00107439

>  <SCORE.SYSTEM>
0

>  <SCORE.SYSTEM.CONST>
0

>  <SCORE.SYSTEM.DIHEDRAL>
0

>  <SCORE.SYSTEM.SOLV>
0

>  <SCORE.SYSTEM.norm>
0

>  <SCORE.heavy>
14

>  <SCORE.norm>
1.0285

>  <RMSD>
20.172

$$$$
ligand
 OpenBabel11021811413D
libRbt.so/2013.1/901 2013/11/27
 14 13  0  0  0  0  0  0  0  0999 V2000
   36.5511   -5.1779    5.7444 N   0  0  0  0  0  0  0  0  0  0  0  0
   36.5899   -6.5043    5.0915 C   0  0  0  0  0  0  0  0  0  0  0  0
   37.8080   -6.6278    4.1508 C   0  0  0  0  0  0  0  0  0  0  0  0
   37.7308   -5.7566    2.8863 C   0  0  0  0  0  0  0  0  0  0  0  0
   36.4651   -6.0048    2.1428 N   0  0  0  0  0  0  0  0  0  0  0  0
   36.7540   -6.2601    0.7082 C   0  0  0  0  0  0  0  0  0  0  0  0
   37.1085   -4.9965   -0.1461 C   0  0  0  0  0  0  0  0  0  0  0  0
   38.4994   -4.3799    0.1789 C   0  0  0  0  0  0  0  0  0  0  0  0
   38.4841   -2.8712    0.3285 C   0  0  0  0  0  0  0  0  0  0  0  0
   37.5731   -2.5461    1.4096 N   0  0  0  0  0  0  0  0  0  0  0  0
   38.3869   -2.4854    2.6112 C   0  0  0  0  0  0  0  0  0  0  0  0
   37.5330   -2.5936    3.8691 C   0  0  0  0  0  0  0  0  0  0  0  0
   38.4504   -2.3464    5.0763 C   0  0  0  0  0  0  0  0  0  0  0  0
   39.0510   -1.0042    5.0518 N   0  0  0  0  0  0  0  0  0  0  0  0
  1  2  1  0  0  0  0
  2  3  1  0  0  0  0
  3  4  1  0  0  0  0
  4  5  1  0  0  0  0
  5  6  1  0  0  0  0
  6  7  1  0  0  0  0
  7  8  1  0  0  0  0
  8  9  1  0  0  0  0
  9 10  1  0  0  0  0
 10 11  1  0  0  0  0
 11 12  1  0  0  0  0
 12 13  1  0  0  0  0
 13 14  1  0  0  0  0
M  END
>  <CHROM.1>
-69.50501898,-53.69359252,-130.00329671,-76.06127463,70.67765833,-134.14962914
59.66273609,92.16174629,-161.89077567,-173.12278054,61.46555498,37.64191054
-4.25417188,2.79277875,1.13814662,1.22041395,1.45925673

>  <Name>
ligand

>  <RI>
0

>  <Rbt.Current_Directory>
/home/itssahil/PROJECTS/Mol_Feturizer/New_Systems/rnas/1TN2

>  <Rbt.Executable>
rbdock ($Id: //depot/dev/client3/rdock/2013.1/src/exe/rbdock.cxx#4 $)

>  <Rbt.Library>
libRbt.so (2013.1, Build901 2013/11/27)

>  <Rbt.Parameter_File>
/export/apps/rDock/src/rDock_2013.1_src/data/scripts/dock_solv.prm

>  <Rbt.Receptor>
prm/blind_docking_40.prm

>  <SCORE>
13.7553

>  <SCORE.INTER>
10.1378

>  <SCORE.INTER.CONST>
1

>  <SCORE.INTER.POLAR>
0

>  <SCORE.INTER.ROT>
11

>  <SCORE.INTER.SOLV>
11.6603

>  <SCORE.INTER.VDW>
-8.06156

>  <SCORE.INTER.norm>
0.72413

>  <SCORE.INTRA>
3.4825

>  <SCORE.INTRA.DIHEDRAL>
0.8502

>  <SCORE.INTRA.DIHEDRAL.0>
7.79482

>  <SCORE.INTRA.POLAR>
0

>  <SCORE.INTRA.POLAR.0>
0

>  <SCORE.INTRA.REPUL>
0

>  <SCORE.INTRA.REPUL.0>
0

>  <SCORE.INTRA.SOLV>
6.85985

>  <SCORE.INTRA.SOLV.lig_0>
-49.456

>  <SCORE.INTRA.VDW>
-0.372528

>  <SCORE.INTRA.VDW.0>
-0.478406

>  <SCORE.INTRA.norm>
0.24875

>  <SCORE.RESTR>
0.13502

>  <SCORE.RESTR.CAVITY>
0.13502

>  <SCORE.RESTR.norm>
0.00964426

>  <SCORE.SYSTEM>
0

>  <SCORE.SYSTEM.CONST>
0

>  <SCORE.SYSTEM.DIHEDRAL>
0

>  <SCORE.SYSTEM.SOLV>
0

>  <SCORE.SYSTEM.norm>
0

>  <SCORE.heavy>
14

>  <SCORE.norm>
0.982525

>  <RMSD>
20.304

$$$$
ligand
 OpenBabel11021811413D
libRbt.so/2013.1/901 2013/11/27
 14 13  0  0  0  0  0  0  0  0999 V2000
   38.5414   -6.6877    4.3436 N   0  0  0  0  0  0  0  0  0  0  0  0
   37.2715   -6.7210    5.1008 C   0  0  0  0  0  0  0  0  0  0  0  0
   36.8085   -5.2968    5.4768 C   0  0  0  0  0  0  0  0  0  0  0  0
   37.7628   -4.5407    6.4157 C   0  0  0  0  0  0  0  0  0  0  0  0
   39.0194   -4.1652    5.7113 N   0  0  0  0  0  0  0  0  0  0  0  0
   38.9550   -2.7495    5.2659 C   0  0  0  0  0  0  0  0  0  0  0  0
   38.2968   -2.5100    3.8654 C   0  0  0  0  0  0  0  0  0  0  0  0
   36.7415   -2.4814    3.8911 C   0  0  0  0  0  0  0  0  0  0  0  0
   36.0957   -2.9558    2.6039 C   0  0  0  0  0  0  0  0  0  0  0  0
   36.1783   -4.4039    2.5787 N   0  0  0  0  0  0  0  0  0  0  0  0
   35.6774   -4.8085    1.2767 C   0  0  0  0  0  0  0  0  0  0  0  0
   36.7428   -5.5458    0.4739 C   0  0  0  0  0  0  0  0  0  0  0  0
   37.8631   -4.5433    0.1575 C   0  0  0  0  0  0  0  0  0  0  0  0
   38.9604   -5.1586   -0.6041 N   0  0  0  0  0  0  0  0  0  0  0  0
  1  2  1  0  0  0  0
  2  3  1  0  0  0  0
  3  4  1  0  0  0  0
  4  5  1  0  0  0  0
  5  6  1  0  0  0  0
  6  7  1  0  0  0  0
  7  8  1  0  0  0  0
  8  9  1  0  0  0  0
  9 10  1  0  0  0  0
 10 11  1  0  0  0  0
 11 12  1  0  0  0  0
 12 13  1  0  0  0  0
 13 14  1  0  0  0  0
M  END
>  <CHROM.1>
-63.23975037,70.36951035,98.84053452,-87.13105304,81.58602156,-150.30520712
76.82611055,-174.28840313,118.82566730,-66.10840316,179.19259232,37.49362614
-4.46889502,3.32564704,-0.45554831,1.41152998,-2.76315538

>  <Name>
ligand

>  <RI>
0

>  <Rbt.Current_Directory>
/home/itssahil/PROJECTS/Mol_Feturizer/New_Systems/rnas/1TN2

>  <Rbt.Executable>
rbdock ($Id: //depot/dev/client3/rdock/2013.1/src/exe/rbdock.cxx#4 $)

>  <Rbt.Library>
libRbt.so (2013.1, Build901 2013/11/27)

>  <Rbt.Parameter_File>
/export/apps/rDock/src/rDock_2013.1_src/data/scripts/dock_solv.prm

>  <Rbt.Receptor>
prm/blind_docking_40.prm

>  <SCORE>
9.9624

>  <SCORE.INTER>
7.80836

>  <SCORE.INTER.CONST>
1

>  <SCORE.INTER.POLAR>
0

>  <SCORE.INTER.ROT>
11

>  <SCORE.INTER.SOLV>
5.15821

>  <SCORE.INTER.VDW>
-7.44716

>  <SCORE.INTER.norm>
0.55774

>  <SCORE.INTRA>
2.14915

>  <SCORE.INTRA.DIHEDRAL>
0.985514

>  <SCORE.INTRA.DIHEDRAL.0>
7.79482

>  <SCORE.INTRA.POLAR>
0

>  <SCORE.INTRA.POLAR.0>
0

>  <SCORE.INTRA.REPUL>
0

>  <SCORE.INTRA.REPUL.0>
0

>  <SCORE.INTRA.SOLV>
6.34369

>  <SCORE.INTRA.SOLV.lig_0>
-49.456

>  <SCORE.INTRA.VDW>
-1.51545

>  <SCORE.INTRA.VDW.0>
-0.478406

>  <SCORE.INTRA.norm>
0.153511

>  <SCORE.RESTR>
0.00488748

>  <SCORE.RESTR.CAVITY>
0.00488748

>  <SCORE.RESTR.norm>
0.000349106

>  <SCORE.SYSTEM>
0

>  <SCORE.SYSTEM.CONST>
0

>  <SCORE.SYSTEM.DIHEDRAL>
0

>  <SCORE.SYSTEM.SOLV>
0

>  <SCORE.SYSTEM.norm>
0

>  <SCORE.heavy>
14

>  <SCORE.norm>
0.7116

>  <RMSD>
20.321

$$$$
ligand
 OpenBabel11021811413D
libRbt.so/2013.1/901 2013/11/27
 14 13  0  0  0  0  0  0  0  0999 V2000
   37.1865   -2.0777    4.3654 N   0  0  0  0  0  0  0  0  0  0  0  0
   38.5750   -1.9539    4.8591 C   0  0  0  0  0  0  0  0  0  0  0  0
   39.1483   -3.3295    5.2630 C   0  0  0  0  0  0  0  0  0  0  0  0
   38.5233   -3.9362    6.5300 C   0  0  0  0  0  0  0  0  0  0  0  0
   37.1063   -4.3264    6.2926 N   0  0  0  0  0  0  0  0  0  0  0  0
   36.9947   -5.8022    6.1647 C   0  0  0  0  0  0  0  0  0  0  0  0
   37.4548   -6.3991    4.7920 C   0  0  0  0  0  0  0  0  0  0  0  0
   36.7210   -5.7966    3.5596 C   0  0  0  0  0  0  0  0  0  0  0  0
   37.4730   -5.9630    2.2535 C   0  0  0  0  0  0  0  0  0  0  0  0
   36.6228   -5.4623    1.1901 N   0  0  0  0  0  0  0  0  0  0  0  0
   36.9732   -6.2279    0.0066 C   0  0  0  0  0  0  0  0  0  0  0  0
   37.8833   -5.4331   -0.9226 C   0  0  0  0  0  0  0  0  0  0  0  0
   39.1749   -5.1200   -0.1521 C   0  0  0  0  0  0  0  0  0  0  0  0
   38.9739   -4.0828    0.8709 N   0  0  0  0  0  0  0  0  0  0  0  0
  1  2  1  0  0  0  0
  2  3  1  0  0  0  0
  3  4  1  0  0  0  0
  4  5  1  0  0  0  0
  5  6  1  0  0  0  0
  6  7  1  0  0  0  0
  7  8  1  0  0  0  0
  8  9  1  0  0  0  0
  9 10  1  0  0  0  0
 10 11  1  0  0  0  0
 11 12  1  0  0  0  0
 12 13  1  0  0  0  0
 13 14  1  0  0  0  0
M  END
>  <CHROM.1>
-69.99656320,68.50389733,105.05589577,-77.07387988,-56.24136371,158.62404642
175.16297177,-150.32986887,-101.38441146,61.44589126,-73.40055294,37.77233024
-4.70818096,3.21951301,-1.56725152,-1.09352053,-1.83772191

>  <Name>
ligand

>  <RI>
0

>  <Rbt.Current_Directory>
/home/itssahil/PROJECTS/Mol_Feturizer/New_Systems/rnas/1TN2

>  <Rbt.Executable>
rbdock ($Id: //depot/dev/client3/rdock/2013.1/src/exe/rbdock.cxx#4 $)

>  <Rbt.Library>
libRbt.so (2013.1, Build901 2013/11/27)

>  <Rbt.Parameter_File>
/export/apps/rDock/src/rDock_2013.1_src/data/scripts/dock_solv.prm

>  <Rbt.Receptor>
prm/blind_docking_40.prm

>  <SCORE>
12.5326

>  <SCORE.INTER>
8.24

>  <SCORE.INTER.CONST>
1

>  <SCORE.INTER.POLAR>
0

>  <SCORE.INTER.ROT>
11

>  <SCORE.INTER.SOLV>
9.10775

>  <SCORE.INTER.VDW>
-8.47592

>  <SCORE.INTER.norm>
0.588572

>  <SCORE.INTRA>
4.16436

>  <SCORE.INTRA.DIHEDRAL>
-1.85406

>  <SCORE.INTRA.DIHEDRAL.0>
7.79482

>  <SCORE.INTRA.POLAR>
0

>  <SCORE.INTRA.POLAR.0>
0

>  <SCORE.INTRA.REPUL>
0

>  <SCORE.INTRA.REPUL.0>
0

>  <SCORE.INTRA.SOLV>
8.97415

>  <SCORE.INTRA.SOLV.lig_0>
-49.456

>  <SCORE.INTRA.VDW>
0.60431

>  <SCORE.INTRA.VDW.0>
-0.478406

>  <SCORE.INTRA.norm>
0.297454

>  <SCORE.RESTR>
0.128246

>  <SCORE.RESTR.CAVITY>
0.128246

>  <SCORE.RESTR.norm>
0.00916045

>  <SCORE.SYSTEM>
0

>  <SCORE.SYSTEM.CONST>
0

>  <SCORE.SYSTEM.DIHEDRAL>
0

>  <SCORE.SYSTEM.SOLV>
0

>  <SCORE.SYSTEM.norm>
0

>  <SCORE.heavy>
14

>  <SCORE.norm>
0.895186

>  <RMSD>
20.333

$$$$
ligand
 OpenBabel11021811413D
libRbt.so/2013.1/901 2013/11/27
 14 13  0  0  0  0  0  0  0  0999 V2000
   36.6704   -6.7569    4.2963 N   0  0  0  0  0  0  0  0  0  0  0  0
   37.8845   -6.8258    5.1379 C   0  0  0  0  0  0  0  0  0  0  0  0
   38.0488   -5.5462    5.9862 C   0  0  0  0  0  0  0  0  0  0  0  0
   38.9064   -4.4506    5.3320 C   0  0  0  0  0  0  0  0  0  0  0  0
   38.7072   -3.1401    6.0097 N   0  0  0  0  0  0  0  0  0  0  0  0
   38.8178   -2.0317    5.0267 C   0  0  0  0  0  0  0  0  0  0  0  0
   37.9835   -2.2065    3.7131 C   0  0  0  0  0  0  0  0  0  0  0  0
   36.4608   -2.4183    3.9513 C   0  0  0  0  0  0  0  0  0  0  0  0
   35.6965   -2.8394    2.7114 C   0  0  0  0  0  0  0  0  0  0  0  0
   36.1980   -4.1389    2.3064 N   0  0  0  0  0  0  0  0  0  0  0  0
   35.7834   -4.3128    0.9252 C   0  0  0  0  0  0  0  0  0  0  0  0
   36.9836   -4.4255   -0.0074 C   0  0  0  0  0  0  0  0  0  0  0  0
   37.7457   -5.7054    0.3684 C   0  0  0  0  0  0  0  0  0  0  0  0
   38.9637   -5.8832   -0.4362 N   0  0  0  0  0  0  0  0  0  0  0  0
  1  2  1  0  0  0  0
  2  3  1  0  0  0  0
  3  4  1  0  0  0  0
  4  5  1  0  0  0  0
  5  6  1  0  0  0  0
  6  7  1  0  0  0  0
  7  8  1  0  0  0  0
  8  9  1  0  0  0  0
  9 10  1  0  0  0  0
 10 11  1  0  0  0  0
 11 12  1  0  0  0  0
 12 13  1  0  0  0  0
 13 14  1  0  0  0  0
M  END
>  <CHROM.1>
-92.17427859,164.04630460,-146.54002857,48.73587013,56.68233155,-169.32407729
63.97401427,-162.01704812,117.19857233,64.26147795,-177.50709157,37.48924304
-4.33411465,3.23729681,-0.83172304,1.27452563,-2.49254403

>  <Name>
ligand

>  <RI>
0

>  <Rbt.Current_Directory>
/home/itssahil/PROJECTS/Mol_Feturizer/New_Systems/rnas/1TN2

>  <Rbt.Executable>
rbdock ($Id: //depot/dev/client3/rdock/2013.1/src/exe/rbdock.cxx#4 $)

>  <Rbt.Library>
libRbt.so (2013.1, Build901 2013/11/27)

>  <Rbt.Parameter_File>
/export/apps/rDock/src/rDock_2013.1_src/data/scripts/dock_solv.prm

>  <Rbt.Receptor>
prm/blind_docking_40.prm

>  <SCORE>
10.5039

>  <SCORE.INTER>
8.83655

>  <SCORE.INTER.CONST>
1

>  <SCORE.INTER.POLAR>
0

>  <SCORE.INTER.ROT>
11

>  <SCORE.INTER.SOLV>
8.01012

>  <SCORE.INTER.VDW>
-7.71234

>  <SCORE.INTER.norm>
0.631182

>  <SCORE.INTRA>
1.62944

>  <SCORE.INTRA.DIHEDRAL>
-0.904398

>  <SCORE.INTRA.DIHEDRAL.0>
7.79482

>  <SCORE.INTRA.POLAR>
0

>  <SCORE.INTRA.POLAR.0>
0

>  <SCORE.INTRA.REPUL>
0

>  <SCORE.INTRA.REPUL.0>
0

>  <SCORE.INTRA.SOLV>
4.31413

>  <SCORE.INTRA.SOLV.lig_0>
-49.456

>  <SCORE.INTRA.VDW>
-0.075429

>  <SCORE.INTRA.VDW.0>
-0.478406

>  <SCORE.INTRA.norm>
0.116388

>  <SCORE.RESTR>
0.0379425

>  <SCORE.RESTR.CAVITY>
0.0379425

>  <SCORE.RESTR.norm>
0.00271018

>  <SCORE.SYSTEM>
0

>  <SCORE.SYSTEM.CONST>
0

>  <SCORE.SYSTEM.DIHEDRAL>
0

>  <SCORE.SYSTEM.SOLV>
0

>  <SCORE.SYSTEM.norm>
0

>  <SCORE.heavy>
14

>  <SCORE.norm>
0.750281

>  <RMSD>
20.356

$$$$
ligand
 OpenBabel11021811413D
libRbt.so/2013.1/901 2013/11/27
 14 13  0  0  0  0  0  0  0  0999 V2000
   43.5125   -9.1651    0.3154 N   0  0  0  0  0  0  0  0  0  0  0  0
   42.4928   -8.9676   -0.7374 C   0  0  0  0  0  0  0  0  0  0  0  0
   42.2409   -7.4664   -0.9956 C   0  0  0  0  0  0  0  0  0  0  0  0
   41.7529   -6.6790    0.2315 C   0  0  0  0  0  0  0  0  0  0  0  0
   41.5632   -5.2396   -0.0979 N   0  0  0  0  0  0  0  0  0  0  0  0
   42.8315   -4.4943    0.1083 C   0  0  0  0  0  0  0  0  0  0  0  0
   42.6743   -2.9990    0.5458 C   0  0  0  0  0  0  0  0  0  0  0  0
   42.0896   -2.8137    1.9755 C   0  0  0  0  0  0  0  0  0  0  0  0
   42.9956   -3.3189    3.0813 C   0  0  0  0  0  0  0  0  0  0  0  0
   42.8701   -4.7634    3.1266 N   0  0  0  0  0  0  0  0  0  0  0  0
   44.0899   -5.2496    3.7475 C   0  0  0  0  0  0  0  0  0  0  0  0
   43.7910   -6.2661    4.8432 C   0  0  0  0  0  0  0  0  0  0  0  0
   43.1222   -5.5148    6.0043 C   0  0  0  0  0  0  0  0  0  0  0  0
   42.9152   -6.3767    7.1778 N   0  0  0  0  0  0  0  0  0  0  0  0
  1  2  1  0  0  0  0
  2  3  1  0  0  0  0
  3  4  1  0  0  0  0
  4  5  1  0  0  0  0
  5  6  1  0  0  0  0
  6  7  1  0  0  0  0
  7  8  1  0  0  0  0
  8  9  1  0  0  0  0
  9 10  1  0  0  0  0
 10 11  1  0  0  0  0
 11 12  1  0  0  0  0
 12 13  1  0  0  0  0
 13 14  1  0  0  0  0
M  END
>  <CHROM.1>
-59.41632071,178.80821889,-88.20953306,-148.93954382,67.87903520,65.93586149
-78.04621154,156.74836661,132.37348243,-69.06637510,-174.06728919,42.78157829
-5.66500554,2.09452684,-2.34507573,-1.37819280,0.49043471

>  <Name>
ligand

>  <RI>
0

>  <Rbt.Current_Directory>
/home/itssahil/PROJECTS/Mol_Feturizer/New_Systems/rnas/1TN2

>  <Rbt.Executable>
rbdock ($Id: //depot/dev/client3/rdock/2013.1/src/exe/rbdock.cxx#4 $)

>  <Rbt.Library>
libRbt.so (2013.1, Build901 2013/11/27)

>  <Rbt.Parameter_File>
/export/apps/rDock/src/rDock_2013.1_src/data/scripts/dock_solv.prm

>  <Rbt.Receptor>
prm/blind_docking_100.prm

>  <SCORE>
1.32997

>  <SCORE.INTER>
1.97821

>  <SCORE.INTER.CONST>
1

>  <SCORE.INTER.POLAR>
0

>  <SCORE.INTER.ROT>
11

>  <SCORE.INTER.SOLV>
10.4494

>  <SCORE.INTER.VDW>
-13.0977

>  <SCORE.INTER.norm>
0.141301

>  <SCORE.INTRA>
-0.648242

>  <SCORE.INTRA.DIHEDRAL>
-3.18166

>  <SCORE.INTRA.DIHEDRAL.0>
7.79482

>  <SCORE.INTRA.POLAR>
0

>  <SCORE.INTRA.POLAR.0>
0

>  <SCORE.INTRA.REPUL>
0

>  <SCORE.INTRA.REPUL.0>
0

>  <SCORE.INTRA.SOLV>
3.23839

>  <SCORE.INTRA.SOLV.lig_0>
-49.456

>  <SCORE.INTRA.VDW>
-0.676606

>  <SCORE.INTRA.VDW.0>
-0.478406

>  <SCORE.INTRA.norm>
-0.046303

>  <SCORE.RESTR>
0

>  <SCORE.RESTR.CAVITY>
0

>  <SCORE.RESTR.norm>
0

>  <SCORE.SYSTEM>
0

>  <SCORE.SYSTEM.CONST>
0

>  <SCORE.SYSTEM.DIHEDRAL>
0

>  <SCORE.SYSTEM.SOLV>
0

>  <SCORE.SYSTEM.norm>
0

>  <SCORE.heavy>
14

>  <SCORE.norm>
0.0949977

>  <RMSD>
20.373

$$$$
ligand
 OpenBabel11021811413D
libRbt.so/2013.1/901 2013/11/27
 14 13  0  0  0  0  0  0  0  0999 V2000
   39.0925   -3.9496    6.0118 N   0  0  0  0  0  0  0  0  0  0  0  0
   38.0356   -4.3082    6.9822 C   0  0  0  0  0  0  0  0  0  0  0  0
   37.3096   -5.6047    6.5627 C   0  0  0  0  0  0  0  0  0  0  0  0
   37.2399   -5.8365    5.0444 C   0  0  0  0  0  0  0  0  0  0  0  0
   36.8898   -4.5796    4.3274 N   0  0  0  0  0  0  0  0  0  0  0  0
   35.4142   -4.4348    4.2358 C   0  0  0  0  0  0  0  0  0  0  0  0
   34.9032   -3.0855    3.6272 C   0  0  0  0  0  0  0  0  0  0  0  0
   35.3875   -2.8211    2.1725 C   0  0  0  0  0  0  0  0  0  0  0  0
   36.8917   -2.6840    2.0400 C   0  0  0  0  0  0  0  0  0  0  0  0
   37.1916   -2.4723    0.6366 N   0  0  0  0  0  0  0  0  0  0  0  0
   38.5174   -3.0264    0.4248 C   0  0  0  0  0  0  0  0  0  0  0  0
   38.4699   -4.2602   -0.4689 C   0  0  0  0  0  0  0  0  0  0  0  0
   37.6976   -5.3521    0.2869 C   0  0  0  0  0  0  0  0  0  0  0  0
   37.5837   -6.5933   -0.4936 N   0  0  0  0  0  0  0  0  0  0  0  0
  1  2  1  0  0  0  0
  2  3  1  0  0  0  0
  3  4  1  0  0  0  0
  4  5  1  0  0  0  0
  5  6  1  0  0  0  0
  6  7  1  0  0  0  0
  7  8  1  0  0  0  0
  8  9  1  0  0  0  0
  9 10  1  0  0  0  0
 10 11  1  0  0  0  0
 11 12  1  0  0  0  0
 12 13  1  0  0  0  0
 13 14  1  0  0  0  0
M  END
>  <CHROM.1>
-30.64825663,-43.37059938,-87.85432098,174.28189072,60.01851431,-63.09013842
178.76222987,-150.89285590,112.49043314,-65.33530867,179.63413478,37.18724579
-4.21480525,2.95655541,-1.63058814,0.85102531,-1.44065961

>  <Name>
ligand

>  <RI>
0

>  <Rbt.Current_Directory>
/home/itssahil/PROJECTS/Mol_Feturizer/New_Systems/rnas/1TN2

>  <Rbt.Executable>
rbdock ($Id: //depot/dev/client3/rdock/2013.1/src/exe/rbdock.cxx#4 $)

>  <Rbt.Library>
libRbt.so (2013.1, Build901 2013/11/27)

>  <Rbt.Parameter_File>
/export/apps/rDock/src/rDock_2013.1_src/data/scripts/dock_solv.prm

>  <Rbt.Receptor>
prm/blind_docking_40.prm

>  <SCORE>
13.4934

>  <SCORE.INTER>
11.3602

>  <SCORE.INTER.CONST>
1

>  <SCORE.INTER.POLAR>
0

>  <SCORE.INTER.ROT>
11

>  <SCORE.INTER.SOLV>
8.71248

>  <SCORE.INTER.VDW>
-6.26406

>  <SCORE.INTER.norm>
0.81144

>  <SCORE.INTRA>
1.95491

>  <SCORE.INTRA.DIHEDRAL>
-1.70783

>  <SCORE.INTRA.DIHEDRAL.0>
7.79482

>  <SCORE.INTRA.POLAR>
0

>  <SCORE.INTRA.POLAR.0>
0

>  <SCORE.INTRA.REPUL>
0

>  <SCORE.INTRA.REPUL.0>
0

>  <SCORE.INTRA.SOLV>
4.92789

>  <SCORE.INTRA.SOLV.lig_0>
-49.456

>  <SCORE.INTRA.VDW>
0.344879

>  <SCORE.INTRA.VDW.0>
-0.478406

>  <SCORE.INTRA.norm>
0.139636

>  <SCORE.RESTR>
0.178292

>  <SCORE.RESTR.CAVITY>
0.178292

>  <SCORE.RESTR.norm>
0.0127351

>  <SCORE.SYSTEM>
0

>  <SCORE.SYSTEM.CONST>
0

>  <SCORE.SYSTEM.DIHEDRAL>
0

>  <SCORE.SYSTEM.SOLV>
0

>  <SCORE.SYSTEM.norm>
0

>  <SCORE.heavy>
14

>  <SCORE.norm>
0.963811

>  <RMSD>
20.708

$$$$
