@<TRIPOS>MOLECULE
1TN2_rdock.pdb
 654 726 0 0 0
SMALL
GASTEIGER

@<TRIPOS>ATOM
      1  P         55.5420   14.7630   33.4110 P.3    19  G19         0.1280
      2  C5'       54.3330   15.7720   31.4530 C.3    19  G19         0.1795
      3  O5'       55.1980   16.0360   32.5400 O.3    19  G19        -0.3259
      4  C4'       54.1210   17.0160   30.6210 C.3    19  G19         0.1772
      5  O4'       54.6330   18.1110   31.3660 O.3    19  G19        -0.3307
      6  C3'       54.9140   16.9880   29.3470 C.3    19  G19         0.1860
      7  O3'       54.2450   17.8550   28.4660 O.3    19  G19        -0.3112
      8  C2'       56.2000   17.6610   29.6870 C.3    19  G19         0.2309
      9  O2'       56.5270   18.3590   28.5290 O.3    19  G19        -0.2156
     10  C1'       55.7390   18.6910   30.6770 C.3    19  G19         0.2408
     11  N1        57.2120   22.5140   33.7900 N.ar   19  G19        -0.1709
     12  C2        56.4430   22.5720   32.7220 C.ar   19  G19         0.2606
     13  N2        55.9210   23.7390   32.3810 N.pl3  19  G19        -0.0859
     14  N3        56.1800   21.5040   31.9820 N.ar   19  G19        -0.1918
     15  C4        56.7930   20.2990   32.2190 C.ar   19  G19         0.1723
     16  C5        57.7150   20.3050   33.2830 C.ar   19  G19         0.1748
     17  C6        57.8390   21.4000   34.1310 C.ar   19  G19         0.3023
     18  O6        58.4510   21.3020   35.2110 O.2    19  G19        -0.2633
     19  N7        58.2760   19.0120   33.3680 N.ar   19  G19        -0.2173
     20  C8        57.6160   18.2300   32.3480 C.ar   19  G19         0.1817
     21  N9        56.6700   19.0580   31.7100 N.ar   19  G19        -0.2693
     22  OP1       54.6920   13.5440   33.0920 O.3    19  G19        -0.1955
     23  OP2       56.9820   14.5900   33.4230 O.co2  19  G19        -0.7863
     24  P         52.9610   17.2870   27.7010 P.3    20  G20         0.2141
     25  C5'       54.2710   16.9280   25.4970 C.3    20  G20         0.1812
     26  O5'       53.5930   16.3480   26.6010 O.3    20  G20        -0.3114
     27  C4'       54.4750   15.8030   24.4840 C.3    20  G20         0.1773
     28  O4'       55.2800   14.7380   25.0280 O.3    20  G20        -0.3307
     29  C3'       53.1640   15.1350   24.1270 C.3    20  G20         0.1860
     30  O3'       52.4550   15.8730   23.1230 O.3    20  G20        -0.3112
     31  C2'       53.6600   13.8130   23.6210 C.3    20  G20         0.2309
     32  O2'       54.3040   14.0580   22.3950 O.3    20  G20        -0.2156
     33  C1'       54.7810   13.4660   24.5660 C.3    20  G20         0.2408
     34  N1        52.5100    8.9730   26.2120 N.ar   20  G20        -0.1709
     35  C2        52.7700    9.3610   24.9530 C.ar   20  G20         0.2606
     36  N2        52.4610    8.5560   23.9670 N.pl3  20  G20        -0.0859
     37  N3        53.3270   10.5250   24.6540 N.ar   20  G20        -0.1918
     38  C4        53.7100   11.4270   25.6410 C.ar   20  G20         0.1723
     39  C5        53.4500   10.9900   26.9600 C.ar   20  G20         0.1748
     40  C6        52.8410    9.7780   27.2620 C.ar   20  G20         0.3023
     41  O6        52.6300    9.5060   28.4690 O.2    20  G20        -0.2633
     42  N7        53.8840   11.9590   27.8470 N.ar   20  G20        -0.2173
     43  C8        54.4260   12.9920   27.0360 C.ar   20  G20         0.1817
     44  N9        54.3160   12.6590   25.6850 N.ar   20  G20        -0.2693
     45  OP1       52.2690   18.4070   26.9630 O.2    20  G20        -0.5172
     46  OP2       52.1750   16.3870   28.6270 O.co2  20  G20        -0.4373
     47  P         50.9200   16.3230   23.3890 P.3    21  A21         0.2141
     48  C5'       49.6760   14.3870   24.4600 C.3    21  A21         0.1812
     49  O5'       50.1930   14.9230   23.2660 O.3    21  A21        -0.3114
     50  C4'       49.7430   12.8900   24.2880 C.3    21  A21         0.1773
     51  O4'       48.7480   12.4520   25.2150 O.3    21  A21        -0.3307
     52  C3'       49.3450   12.4260   22.8820 C.3    21  A21         0.1860
     53  O3'       49.9330   11.1850   22.4460 O.3    21  A21        -0.3112
     54  C2'       47.9160   12.0990   23.1110 C.3    21  A21         0.2309
     55  O2'       47.6580   10.9380   22.3570 O.3    21  A21        -0.2156
     56  C1'       47.8370   11.6600   24.5370 C.3    21  A21         0.2408
     57  N1        43.9330    9.5000   27.1040 N.ar   21  A21        -0.2040
     58  C2        45.1790    9.1270   27.0210 C.ar   21  A21         0.2016
     59  N3        46.0940    9.8060   26.3600 N.ar   21  A21        -0.2048
     60  C4        45.8120   10.9900   25.7510 C.ar   21  A21         0.1692
     61  C5        44.4920   11.4060   25.9210 C.ar   21  A21         0.1518
     62  C6        43.5590   10.6090   26.5460 C.ar   21  A21         0.1919
     63  N6        42.2760   10.9070   26.5420 N.pl3  21  A21        -0.1054
     64  N7        44.3960   12.6430   25.2600 N.ar   21  A21        -0.2193
     65  C8        45.6520   12.9110   24.6750 C.ar   21  A21         0.1816
     66  N9        46.4850   11.8430   24.9720 N.ar   21  A21        -0.2693
     67  OP1       50.4580   17.2440   22.2960 O.2    21  A21        -0.5172
     68  OP2       50.7780   16.7830   24.8080 O.co2  21  A21        -0.4373
     69  P         49.8430   10.6730   20.8990 P.3    22  G22         0.2141
     70  C5'       50.1780    8.1500   20.7060 C.3    22  G22         0.1812
     71  O5'       49.3080    9.1860   21.1130 O.3    22  G22        -0.3114
     72  C4'       50.0280    6.9310   21.5870 C.3    22  G22         0.1773
     73  O4'       49.4110    7.2060   22.8370 O.3    22  G22        -0.3307
     74  C3'       49.2480    5.7840   21.0160 C.3    22  G22         0.1860
     75  O3'       50.1030    5.1530   20.0740 O.3    22  G22        -0.3112
     76  C2'       49.2080    4.9220   22.2590 C.3    22  G22         0.2309
     77  O2'       50.4530    4.2410   22.3480 O.3    22  G22        -0.2156
     78  C1'       49.0680    5.9210   23.4070 C.3    22  G22         0.2408
     79  N1        45.0490    3.3180   25.4630 N.ar   22  G22        -0.1709
     80  C2        46.3060    2.9520   25.3850 C.ar   22  G22         0.2606
     81  N2        46.6620    1.8150   25.8960 N.pl3  22  G22        -0.0859
     82  N3        47.2510    3.6990   24.8500 N.ar   22  G22        -0.1918
     83  C4        46.9800    4.9630   24.4080 C.ar   22  G22         0.1723
     84  C5        45.6610    5.3610   24.5820 C.ar   22  G22         0.1748
     85  C6        44.6970    4.5320   25.0680 C.ar   22  G22         0.3023
     86  O6        43.5450    4.9720   25.1060 O.2    22  G22        -0.2633
     87  N7        45.5100    6.6380   24.1370 N.ar   22  G22        -0.2173
     88  C8        46.7470    7.0200   23.6390 C.ar   22  G22         0.1817
     89  N9        47.6580    5.9490   23.8090 N.ar   22  G22        -0.2693
     90  OP1       51.1700   10.4980   20.3170 O.3    22  G22        -0.4373
     91  OP2       48.9140   11.4300   20.0720 O.co2  22  G22        -0.5172
     92  P         49.7250    4.0550   18.9630 P.3    23  A23         0.2141
     93  C5'       50.4290    1.8800   19.8190 C.3    23  A23         0.1812
     94  O5'       49.2690    2.6870   19.6590 O.3    23  A23        -0.3114
     95  C4'       50.1860    0.5840   20.5390 C.3    23  A23         0.1773
     96  O4'       49.7190    0.7940   21.8600 O.3    23  A23        -0.3307
     97  C3'       49.1990   -0.3180   19.8870 C.3    23  A23         0.1860
     98  O3'       49.8950   -0.9470   18.8200 O.3    23  A23        -0.3112
     99  C2'       48.9710   -1.2300   21.0320 C.3    23  A23         0.2309
    100  O2'       50.2370   -1.7910   21.3040 O.3    23  A23        -0.2156
    101  C1'       48.8100   -0.2480   22.1340 C.3    23  A23         0.2408
    102  N1        44.0210   -0.6120   23.8820 N.ar   23  A23        -0.2040
    103  C2        45.0050   -1.4640   23.9330 C.ar   23  A23         0.2016
    104  N3        46.1780   -1.2440   23.4300 N.ar   23  A23        -0.2048
    105  C4        46.4520   -0.0970   22.7900 C.ar   23  A23         0.1692
    106  C5        45.3850    0.8020   22.7340 C.ar   23  A23         0.1518
    107  C6        44.1830    0.5060   23.3000 C.ar   23  A23         0.1919
    108  N6        43.1860    1.3390   23.2320 N.pl3  23  A23        -0.1054
    109  N7        45.8210    1.9480   22.0390 N.ar   23  A23        -0.2193
    110  C8        47.1880    1.6930   21.7020 C.ar   23  A23         0.1816
    111  N9        47.5350    0.4120   22.2020 N.ar   23  A23        -0.2693
    112  OP1       51.0060    3.6320   18.3590 O.3    23  A23        -0.4373
    113  OP2       48.9160    4.6420   17.9470 O.co2  23  A23        -0.5172
    114  P         49.2430   -1.2170   17.3810 P.3    24  G24         0.2141
    115  C5'       49.0040   -3.5710   18.2330 C.3    24  G24         0.1812
    116  O5'       48.3100   -2.4380   17.7240 O.3    24  G24        -0.3114
    117  C4'       48.0130   -4.5310   18.8870 C.3    24  G24         0.1773
    118  O4'       47.5720   -4.0400   20.1620 O.3    24  G24        -0.3307
    119  C3'       46.7610   -4.7560   18.0530 C.3    24  G24         0.1860
    120  O3'       46.9490   -5.8550   17.1740 O.3    24  G24        -0.3112
    121  C2'       45.7190   -5.0790   19.0930 C.3    24  G24         0.2309
    122  O2'       45.5380   -6.4660   19.2860 O.3    24  G24        -0.2156
    123  C1'       46.2010   -4.4130   20.3650 C.3    24  G24         0.2408
    124  N1        41.4950   -2.4280   21.2250 N.ar   24  G24        -0.1709
    125  C2        41.9340   -3.6380   21.5740 C.ar   24  G24         0.2606
    126  N2        41.1020   -4.4800   22.1600 N.pl3  24  G24        -0.0859
    127  N3        43.1870   -4.0300   21.3620 N.ar   24  G24        -0.1918
    128  C4        44.1220   -3.1560   20.7960 C.ar   24  G24         0.1723
    129  C5        43.6370   -1.8820   20.5230 C.ar   24  G24         0.1748
    130  C6        42.3200   -1.5250   20.6950 C.ar   24  G24         0.3023
    131  O6        41.9760   -0.3870   20.3460 O.2    24  G24        -0.2633
    132  N7        44.6800   -1.1460   19.9960 N.ar   24  G24        -0.2173
    133  C8        45.7970   -1.9990   19.8970 C.ar   24  G24         0.1817
    134  N9        45.4060   -3.2380   20.3570 N.ar   24  G24        -0.2693
    135  OP1       50.3240   -1.6890   16.5380 O.2    24  G24        -0.5172
    136  OP2       48.5340   -0.0620   16.8030 O.co2  24  G24        -0.4373
    137  P         46.4770   -5.7230   15.6900 P.3    25  C25         0.2141
    138  C5'       44.3270   -7.0170   16.0100 C.3    25  C25         0.1786
    139  O5'       44.9120   -5.7390   15.8220 O.3    25  C25        -0.3115
    140  C4'       42.8900   -6.8620   16.5240 C.3    25  C25         0.1500
    141  O4'       42.8710   -6.0460   17.7170 O.3    25  C25        -0.3333
    142  C3'       41.8510   -6.2420   15.5680 C.3    25  C25         0.0698
    143  O3'       41.2530   -7.2180   14.7340 O.2    25  C25        -0.2722
    144  C2'       40.7760   -5.8920   16.5280 C.3    25  C25         0.2037
    145  O2'       39.9930   -7.0640   16.6420 O.3    25  C25        -0.2183
    146  C1'       41.5320   -5.5400   17.8330 C.3    25  C25         0.2394
    147  N1        41.6100   -4.1020   17.7990 N.ar   25  C25        -0.2536
    148  C2        40.5260   -3.4310   18.0950 C.ar   25  C25         0.3532
    149  O2        39.5520   -4.0120   18.5810 O.2    25  C25        -0.2443
    150  N3        40.4620   -2.1380   17.8830 N.ar   25  C25        -0.1739
    151  C4        41.4910   -1.4780   17.3940 C.ar   25  C25         0.1759
    152  N4        41.4450   -0.1510   17.2740 N.pl3  25  C25        -0.1070
    153  C5        42.6400   -2.1650   17.0870 C.ar   25  C25         0.0566
    154  C6        42.6610   -3.5160   17.3110 C.ar   25  C25         0.0850
    155  OP1       46.9510   -6.9570   14.9890 O.2    25  C25        -0.5172
    156  OP2       46.8550   -4.3900   15.1860 O.co2  25  C25        -0.4373
    157  CM1       37.6220    3.8320   15.1520 C.3    26  M2G26       0.1151
    158  CM2       36.2310    1.8020   15.3240 C.3    26  M2G26       0.1151
    159  P         40.8960   -6.8020   13.2490 P.3    26  M2G26       0.3006
    160  C5'       38.4880   -6.2030   13.8040 C.3    26  M2G26       0.1823
    161  O5'       39.7650   -5.7090   13.4290 O.3    26  M2G26      -0.3001
    162  C4'       37.7080   -4.9820   14.1670 C.3    26  M2G26       0.1773
    163  O4'       38.5090   -4.1980   15.0570 O.3    26  M2G26      -0.3307
    164  C3'       37.4940   -4.0790   12.9720 C.3    26  M2G26       0.1860
    165  O3'       36.3110   -4.4490   12.2780 O.3    26  M2G26      -0.3112
    166  C2'       37.3040   -2.7170   13.6040 C.3    26  M2G26       0.2309
    167  O2'       35.9550   -2.5340   14.0270 O.3    26  M2G26      -0.2156
    168  C1'       38.1570   -2.8060   14.8490 C.3    26  M2G26       0.2408
    169  N1        39.8230    2.0790   14.8700 N.ar   26  M2G26      -0.1735
    170  C2        38.6120    1.5870   15.0480 C.ar   26  M2G26       0.2243
    171  N2        37.5890    2.3620   15.2260 N.pl3  26  M2G26      -0.2746
    172  N3        38.3120    0.3110   15.0380 N.ar   26  M2G26      -0.1943
    173  C4        39.2630   -0.6100   14.7250 C.ar   26  M2G26       0.1722
    174  C5        40.5230   -0.0700   14.4420 C.ar   26  M2G26       0.1748
    175  C6        40.8030    1.2800   14.5510 C.ar   26  M2G26       0.3023
    176  O6        41.9520    1.6810   14.3410 O.2    26  M2G26      -0.2633
    177  N7        41.3450   -1.1650   14.1120 N.ar   26  M2G26      -0.2173
    178  C8        40.5650   -2.3530   14.2180 C.ar   26  M2G26       0.1817
    179  N9        39.2970   -1.9550   14.6140 N.ar   26  M2G26      -0.2693
    180  OP1       40.3100   -8.0130   12.5880 O.co2  26  M2G26      -0.7578
    181  OP2       42.0720   -6.1390   12.6540 O.3    26  M2G26      -0.1534
    182  P         36.3840   -4.3710   10.7140 P.3    27  C27         0.2141
    183  C5'       35.0360   -2.3520   10.3750 C.3    27  C27         0.1812
    184  O5'       36.3490   -2.8490   10.3290 O.3    27  C27        -0.3114
    185  C4'       35.1110   -0.8520   10.3060 C.3    27  C27         0.1773
    186  O4'       36.0270   -0.3850   11.2790 O.3    27  C27        -0.3307
    187  C3'       35.6780   -0.3450    9.0160 C.3    27  C27         0.1860
    188  O3'       34.7130   -0.3950    7.9900 O.3    27  C27        -0.3112
    189  C2'       36.2080    1.0380    9.3440 C.3    27  C27         0.2309
    190  O2'       35.2740    2.1280    9.1930 O.3    27  C27        -0.2156
    191  C1'       36.5900    0.8570   10.8040 C.3    27  C27         0.2420
    192  N1        38.0230    0.7250   10.9010 N.ar   27  C27        -0.2535
    193  C2        38.7290    1.8040   10.7850 C.ar   27  C27         0.3532
    194  O2        38.1720    2.8730   10.5270 O.2    27  C27        -0.2443
    195  N3        40.0180    1.7770   10.9420 N.ar   27  C27        -0.1739
    196  C4        40.6320    0.6750   11.2110 C.ar   27  C27         0.1759
    197  N4        41.9040    0.7360   11.5320 N.pl3  27  C27        -0.1070
    198  C5        39.9360   -0.5030   11.2910 C.ar   27  C27         0.0566
    199  C6        38.5890   -0.4420   11.1180 C.ar   27  C27         0.0850
    200  OP1       35.1330   -4.9840   10.2290 O.2    27  C27        -0.5172
    201  OP2       37.6950   -4.9710   10.4250 O.co2  27  C27        -0.4373
    202  P         35.3800   -0.8720    6.6790 P.3    28  C28         0.2141
    203  C5'       35.3870    1.5030    5.8700 C.3    28  C28         0.1812
    204  O5'       36.2150    0.4070    6.2890 O.3    28  C28        -0.3114
    205  C4'       36.2460    2.7090    5.4810 C.3    28  C28         0.1773
    206  O4'       37.0530    3.0510    6.6190 O.3    28  C28        -0.3307
    207  C3'       37.2080    2.4150    4.3160 C.3    28  C28         0.1860
    208  O3'       36.6240    2.6470    3.0060 O.3    28  C28        -0.3112
    209  C2'       38.3990    3.2930    4.6290 C.3    28  C28         0.2309
    210  O2'       38.3030    4.6210    4.0980 O.3    28  C28        -0.2156
    211  C1'       38.3770    3.3720    6.1520 C.3    28  C28         0.2420
    212  N1        39.3430    2.4030    6.6680 N.ar   28  C28        -0.2535
    213  C2        40.6200    2.8030    6.6700 C.ar   28  C28         0.3532
    214  O2        40.9190    3.9390    6.2540 O.2    28  C28        -0.2443
    215  N3        41.5480    1.9840    7.1320 N.ar   28  C28        -0.1739
    216  C4        41.2330    0.8010    7.5910 C.ar   28  C28         0.1759
    217  N4        42.1810    0.0260    8.0040 N.pl3  28  C28        -0.1070
    218  C5        39.9400    0.3730    7.6150 C.ar   28  C28         0.0566
    219  C6        38.9820    1.2180    7.1370 C.ar   28  C28         0.0850
    220  OP1       34.3450   -1.0310    5.6680 O.2    28  C28        -0.5172
    221  OP2       36.2110   -2.0420    7.0790 O.co2  28  C28        -0.4373
    222  P         36.9400    1.5240    1.8530 P.3    29  A29         0.2141
    223  C5'       38.6210    3.0540    0.6200 C.3    29  A29         0.1812
    224  O5'       38.4650    1.9010    1.4500 O.3    29  A29        -0.3114
    225  C4'       40.0440    3.5690    0.7080 C.3    29  A29         0.1773
    226  O4'       40.4060    3.7270    2.0850 O.3    29  A29        -0.3307
    227  C3'       41.1360    2.6840    0.1070 C.3    29  A29         0.1860
    228  O3'       41.2490    2.8450   -1.3100 O.3    29  A29        -0.3112
    229  C2'       42.3510    3.2590    0.7780 C.3    29  A29         0.2309
    230  O2'       42.6620    4.5390    0.2200 O.3    29  A29        -0.2156
    231  C1'       41.8290    3.4900    2.1790 C.3    29  A29         0.2408
    232  N1        45.5910    0.7860    4.4400 N.ar   29  A29        -0.2040
    233  C2        45.6630    1.8860    3.6810 C.ar   29  A29         0.2016
    234  N3        44.6230    2.4590    3.1400 N.ar   29  A29        -0.2048
    235  C4        43.3800    1.9150    3.3190 C.ar   29  A29         0.1692
    236  C5        43.3230    0.7300    4.0950 C.ar   29  A29         0.1518
    237  C6        44.4480    0.2000    4.6710 C.ar   29  A29         0.1919
    238  N6        44.3840   -0.8410    5.4750 N.pl3  29  A29        -0.1054
    239  N7        41.9940    0.2970    4.1580 N.ar   29  A29        -0.2193
    240  C8        41.2270    1.2590    3.4190 C.ar   29  A29         0.1816
    241  N9        42.1360    2.2800    2.9470 N.ar   29  A29        -0.2693
    242  OP1       36.0220    1.7770    0.6860 O.2    29  A29        -0.5172
    243  OP2       36.9680    0.1400    2.4730 O.co2  29  A29        -0.4373
    244  P         42.0640    1.7630   -2.1750 P.3    30  G30         0.2141
    245  C5'       44.2690    3.1590   -2.3410 C.3    30  G30         0.1812
    246  O5'       43.5840    2.0210   -1.8320 O.3    30  G30        -0.3114
    247  C4'       45.6660    3.0150   -1.7360 C.3    30  G30         0.1773
    248  O4'       45.5420    2.5910   -0.3670 O.3    30  G30        -0.3307
    249  C3'       46.4620    1.8940   -2.3600 C.3    30  G30         0.1860
    250  O3'       47.0900    2.3260   -3.5800 O.3    30  G30        -0.3112
    251  C2'       47.4370    1.5080   -1.2570 C.3    30  G30         0.2309
    252  O2'       48.5720    2.3620   -1.2080 O.3    30  G30        -0.2156
    253  C1'       46.6780    1.8040   -0.0050 C.3    30  G30         0.2408
    254  N1        48.1190   -2.2920    2.8210 N.ar   30  G30        -0.1709
    255  C2        48.9140   -1.3490    2.2660 C.ar   30  G30         0.2606
    256  N2        50.2350   -1.4260    2.4290 N.pl3  30  G30        -0.0859
    257  N3        48.4130   -0.3350    1.5390 N.ar   30  G30        -0.1918
    258  C4        47.0410   -0.2640    1.2860 C.ar   30  G30         0.1723
    259  C5        46.2530   -1.2990    1.8380 C.ar   30  G30         0.1748
    260  C6        46.7870   -2.2840    2.6280 C.ar   30  G30         0.3023
    261  O6        46.0180   -3.0980    3.1430 O.2    30  G30        -0.2633
    262  N7        44.9270   -1.1020    1.4960 N.ar   30  G30        -0.2173
    263  C8        44.9010    0.0960    0.7370 C.ar   30  G30         0.1817
    264  N9        46.2410    0.6000    0.6440 N.ar   30  G30        -0.2693
    265  OP1       41.8890    2.1440   -3.6050 O.2    30  G30        -0.5172
    266  OP2       41.7030    0.3680   -1.7100 O.co2  30  G30        -0.4373
    267  P         47.1210    1.3130   -4.8520 P.3    31  A31         0.2141
    268  C5'       49.4360    0.3130   -4.1510 C.3    31  A31         0.1786
    269  O5'       48.0350    0.0820   -4.3230 O.3    31  A31        -0.3115
    270  C4'       50.0270   -0.7730   -3.2330 C.3    31  A31         0.1500
    271  O4'       49.2360   -0.9760   -2.0440 O.3    31  A31        -0.3333
    272  C3'       50.1170   -2.1880   -3.7960 C.3    31  A31         0.0698
    273  O3'       51.1400   -2.3460   -4.8040 O.2    31  A31        -0.2722
    274  C2'       50.3920   -2.9840   -2.5160 C.3    31  A31         0.2037
    275  O2'       51.7630   -2.9730   -2.1860 O.3    31  A31        -0.2183
    276  C1'       49.6620   -2.2140   -1.4370 C.3    31  A31         0.2382
    277  N1        47.9370   -6.2510    1.4360 N.ar   31  A31        -0.2040
    278  C2        49.2180   -5.8680    1.2430 C.ar   31  A31         0.2016
    279  N3        49.5490   -4.8070    0.4780 N.ar   31  A31        -0.2048
    280  C4        48.5430   -4.0600   -0.1700 C.ar   31  A31         0.1692
    281  C5        47.2120   -4.5130    0.0450 C.ar   31  A31         0.1518
    282  C6        46.9220   -5.5710    0.8570 C.ar   31  A31         0.1919
    283  N6        45.6410   -5.8370    1.0710 N.pl3  31  A31        -0.1054
    284  N7        46.3080   -3.7100   -0.6460 N.ar   31  A31        -0.2193
    285  C8        47.1210   -2.7320   -1.2910 C.ar   31  A31         0.1816
    286  N9        48.5080   -2.9740   -0.9790 N.ar   31  A31        -0.2694
    287  OP1       47.8350    2.0500   -5.9520 O.2    31  A31        -0.5172
    288  OP2       45.7510    0.7840   -5.1280 O.co2  31  A31        -0.4373
    289  CM2       49.2270   -9.6230   -2.5810 C.3    32  OMC32       0.1743
    290  P         50.8090   -2.9700   -6.2730 P.3    32  OMC32       0.3006
    291  C5'       51.3780   -5.2330   -5.2340 C.3    32  OMC32       0.1823
    292  O5'       50.3910   -4.4800   -5.9060 O.3    32  OMC32      -0.3001
    293  C4'       50.7000   -6.3770   -4.5040 C.3    32  OMC32       0.1772
    294  O4'       49.6390   -5.9460   -3.6040 O.3    32  OMC32      -0.3308
    295  C3'       50.0170   -7.4090   -5.3900 C.3    32  OMC32       0.1827
    296  O3'       50.9660   -8.2290   -6.1050 O.3    32  OMC32      -0.3113
    297  C2'       49.1770   -8.1480   -4.3290 C.3    32  OMC32       0.1945
    298  O2'       49.9930   -9.1110   -3.6690 O.3    32  OMC32      -0.3464
    299  C1'       48.8170   -7.0950   -3.2570 C.3    32  OMC32       0.2387
    300  N1        47.4180   -6.6220   -3.2730 N.ar   32  OMC32      -0.2536
    301  C2        46.3350   -7.3310   -2.8020 C.ar   32  OMC32       0.3532
    302  O2        46.4300   -8.4900   -2.3670 O.2    32  OMC32      -0.2443
    303  N3        45.1140   -6.7490   -2.7860 N.ar   32  OMC32      -0.1739
    304  C4        44.9390   -5.4640   -3.2220 C.ar   32  OMC32       0.1759
    305  N4        43.7520   -4.8380   -3.1070 N.pl3  32  OMC32      -0.1070
    306  C5        46.0270   -4.7580   -3.7340 C.ar   32  OMC32       0.0566
    307  C6        47.2710   -5.3740   -3.7530 C.ar   32  OMC32       0.0850
    308  OP1       52.1080   -2.9410   -7.0460 O.co2  32  OMC32      -0.7578
    309  OP2       49.6200   -2.2670   -6.8790 O.3    32  OMC32      -0.1534
    310  P         50.7020   -8.5150   -7.6740 P.3    33  U33         0.2141
    311  C5'       49.6050  -10.6680   -7.1120 C.3    33  U33         0.1786
    312  O5'       49.3670   -9.3480   -7.5780 O.3    33  U33        -0.3115
    313  C4'       48.2990  -11.3130   -6.6970 C.3    33  U33         0.1500
    314  O4'       47.6270  -10.5210   -5.7130 O.3    33  U33        -0.3333
    315  C3'       47.3290  -11.4240   -7.8400 C.3    33  U33         0.0698
    316  O3'       47.6770  -12.5320   -8.7050 O.2    33  U33        -0.2722
    317  C2'       46.0750  -11.6770   -7.0360 C.3    33  U33         0.2037
    318  O2'       46.1920  -13.0190   -6.5300 O.3    33  U33        -0.2183
    319  C1'       46.2160  -10.7500   -5.8390 C.3    33  U33         0.2394
    320  N1        45.5510   -9.4350   -5.9940 N.ar   33  U33        -0.2535
    321  C2        44.3490   -9.1870   -5.3970 C.ar   33  U33         0.3546
    322  O2        43.7720  -10.0560   -4.7250 O.2    33  U33        -0.2443
    323  N3        43.7790   -7.9740   -5.4950 N.ar   33  U33        -0.1530
    324  C4        44.3910   -6.9610   -6.1190 C.ar   33  U33         0.2846
    325  O4        43.8580   -5.8560   -6.2770 O.2    33  U33        -0.2650
    326  C5        45.6520   -7.1820   -6.6650 C.ar   33  U33         0.0814
    327  C6        46.2210   -8.4470   -6.5790 C.ar   33  U33         0.0870
    328  OP1       51.7520   -9.4940   -8.1020 O.3    33  U33        -0.4373
    329  OP2       50.4800   -7.2580   -8.4580 O.co2  33  U33        -0.5172
    330  CM2       39.9810  -13.0500  -12.0650 C.3    34  OMG34       0.1743
    331  P         47.3430  -12.3830  -10.2910 P.3    34  OMG34       0.3006
    332  C5'       45.2540  -10.9260  -11.0770 C.3    34  OMG34       0.1823
    333  O5'       45.7480  -12.0360  -10.3070 O.3    34  OMG34      -0.3001
    334  C4'       43.8820  -11.3140  -11.5950 C.3    34  OMG34       0.1772
    335  O4'       43.9590  -12.7360  -11.7560 O.3    34  OMG34      -0.3308
    336  C3'       42.7380  -11.0450  -10.6180 C.3    34  OMG34       0.1827
    337  O3'       42.0880   -9.7730  -10.8880 O.3    34  OMG34      -0.3113
    338  C2'       41.8180  -12.2340  -10.8440 C.3    34  OMG34       0.1944
    339  O2'       40.8270  -11.9090  -11.8300 O.3    34  OMG34      -0.3464
    340  C1'       42.7110  -13.3430  -11.4070 C.3    34  OMG34       0.2375
    341  N1        40.6100  -17.0490   -8.3160 N.ar   34  OMG34      -0.1709
    342  C2        39.9840  -16.0570   -9.0030 C.ar   34  OMG34       0.2606
    343  N2        38.6580  -15.9010   -8.9810 N.pl3  34  OMG34      -0.0859
    344  N3        40.6590  -15.1830   -9.7300 N.ar   34  OMG34      -0.1918
    345  C4        42.0530  -15.2070   -9.8080 C.ar   34  OMG34       0.1723
    346  C5        42.6840  -16.2220   -9.0530 C.ar   34  OMG34       0.1748
    347  C6        41.9570  -17.1690   -8.3230 C.ar   34  OMG34       0.3023
    348  O6        42.5540  -18.0900   -7.7330 O.2    34  OMG34      -0.2633
    349  N7        44.0730  -16.0860   -9.2390 N.ar   34  OMG34      -0.2173
    350  C8        44.2440  -14.9980  -10.1280 C.ar   34  OMG34       0.1817
    351  N9        42.9830  -14.4710  -10.4830 N.ar   34  OMG34      -0.2693
    352  OP1       47.5840  -13.6860  -10.9710 O.co2  34  OMG34      -0.7578
    353  OP2       48.0960  -11.2040  -10.8050 O.3    34  OMG34      -0.1534
    354  P         42.1880   -8.5710   -9.7780 P.3    35  A35         0.2141
    355  C5'       39.9090   -9.2040   -8.6260 C.3    35  A35         0.1812
    356  O5'       41.3420   -9.1920   -8.5710 O.3    35  A35        -0.3114
    357  C4'       39.3190  -10.3410   -7.7400 C.3    35  A35         0.1773
    358  O4'       39.7440  -11.6550   -8.1910 O.3    35  A35        -0.3307
    359  C3'       39.6080  -10.3570   -6.2190 C.3    35  A35         0.1860
    360  O3'       38.9350   -9.2950   -5.4800 O.3    35  A35        -0.3112
    361  C2'       39.0710  -11.7610   -5.9240 C.3    35  A35         0.2309
    362  O2'       37.6490  -11.7590   -5.9950 O.3    35  A35        -0.2156
    363  C1'       39.5940  -12.5780   -7.0950 C.3    35  A35         0.2408
    364  N1        42.5720  -16.2290   -4.7220 N.ar   35  A35        -0.2040
    365  C2        41.2370  -16.1300   -4.7450 C.ar   35  A35         0.2016
    366  N3        40.5970  -15.1470   -5.3640 N.ar   35  A35        -0.2048
    367  C4        41.2920  -14.1620   -6.0480 C.ar   35  A35         0.1692
    368  C5        42.7070  -14.2930   -6.0200 C.ar   35  A35         0.1518
    369  C6        43.3350  -15.3180   -5.3450 C.ar   35  A35         0.1919
    370  N6        44.6910  -15.3840   -5.2930 N.pl3  35  A35        -0.1054
    371  N7        43.2810  -13.2350   -6.7500 N.ar   35  A35        -0.2193
    372  C8        42.1870  -12.4390   -7.2450 C.ar   35  A35         0.1816
    373  N9        40.9450  -13.0490   -6.8000 N.ar   35  A35        -0.2693
    374  OP1       41.4660   -7.3470  -10.2130 O.2    35  A35        -0.5172
    375  OP2       43.6310   -8.4390   -9.3990 O.co2  35  A35        -0.4373
    376  P         39.7900   -8.2330   -4.5730 P.3    36  A36         0.2141
    377  C5'       38.3860   -8.7460   -2.5440 C.3    36  A36         0.1786
    378  O5'       39.6780   -8.8330   -3.1150 O.3    36  A36        -0.3115
    379  C4'       37.9130  -10.1430   -2.2020 C.3    36  A36         0.1500
    380  O4'       38.4320  -11.1300   -3.1100 O.3    36  A36        -0.3333
    381  C3'       38.4080  -10.5470   -0.8370 C.3    36  A36         0.0698
    382  O3'       37.5570   -9.8670    0.1190 O.2    36  A36        -0.2722
    383  C2'       38.3990  -12.0990   -0.9240 C.3    36  A36         0.2037
    384  O2'       37.1460  -12.7650   -0.7300 O.3    36  A36        -0.2183
    385  C1'       38.7400  -12.3250   -2.3800 C.3    36  A36         0.2382
    386  N1        43.0670  -15.1550   -1.9020 N.ar   36  A36        -0.2040
    387  C2        41.8220  -15.5170   -1.5580 C.ar   36  A36         0.2016
    388  N3        40.7750  -14.7180   -1.7100 N.ar   36  A36        -0.2048
    389  C4        40.9350  -13.4180   -2.1750 C.ar   36  A36         0.1692
    390  C5        42.2690  -13.0340   -2.4450 C.ar   36  A36         0.1518
    391  C6        43.3230  -13.8990   -2.3420 C.ar   36  A36         0.1919
    392  N6        44.5470  -13.4180   -2.6760 N.pl3  36  A36        -0.1054
    393  N7        42.3260  -11.6820   -2.8760 N.ar   36  A36        -0.2193
    394  C8        40.9730  -11.2780   -2.8800 C.ar   36  A36         0.1816
    395  N9        40.1390  -12.3690   -2.4760 N.ar   36  A36        -0.2694
    396  OP1       39.1440   -6.8700   -4.6250 O.3    36  A36        -0.4373
    397  OP2       41.2030   -8.2800   -4.9460 O.co2  36  A36        -0.5172
    398  P         38.1640   -9.2280    1.4930 P.3    37  YG37        0.3006
    399  C5'       40.0510  -10.9100    2.2160 C.3    37  YG37        0.1823
    400  O5'       38.6800  -10.5970    2.1700 O.3    37  YG37       -0.3001
    401  C4'       40.0840  -12.1390    3.1050 C.3    37  YG37        0.1773
    402  O4'       40.2300  -13.3060    2.2930 O.3    37  YG37       -0.3307
    403  C3'       41.2660  -12.1070    4.0770 C.3    37  YG37        0.1860
    404  O3'       40.7940  -11.6870    5.3660 O.3    37  YG37       -0.3112
    405  C2'       41.8470  -13.5080    4.0400 C.3    37  YG37        0.2309
    406  O2'       41.2890  -14.3820    5.0240 O.3    37  YG37       -0.2156
    407  C1'       41.4920  -13.9390    2.6200 C.3    37  YG37        0.2408
    408  N1        46.3700  -14.5150    0.9870 N.ar   37  YG37       -0.2464
    409  C2        45.7240  -15.2460    1.9020 C.ar   37  YG37        0.2208
    410  N2        46.4430  -16.2500    2.4640 N.ar   37  YG37       -0.2157
    411  C3        43.7280  -16.0460    3.1560 C.3    37  YG37        0.1349
    412  N3        44.4200  -15.0630    2.3000 N.ar   37  YG37       -0.2816
    413  C4        43.8140  -13.9730    1.6590 C.ar   37  YG37        0.1527
    414  C5        44.5660  -13.2100    0.7220 C.ar   37  YG37        0.1717
    415  C6        45.8500  -13.5110    0.3630 C.ar   37  YG37        0.2873
    416  O6        46.4040  -12.8060   -0.4820 O.2    37  YG37       -0.2648
    417  N7        43.7880  -12.1970    0.2350 N.ar   37  YG37       -0.2174
    418  C8        42.5620  -12.3210    0.8530 C.ar   37  YG37        0.1816
    419  N9        42.5850  -13.4400    1.7420 N.ar   37  YG37       -0.2706
    420  C10       48.8190  -17.1240    2.2280 C.3    37  YG37        0.0534
    421  C11       47.6790  -16.1800    1.7900 C.ar   37  YG37        0.0745
    422  C12       47.6330  -15.1370    0.8200 C.ar   37  YG37        0.0606
    423  C13       48.7540  -14.7490   -0.1680 C.3    37  YG37        0.0479
    424  C14       48.9200  -15.8680   -1.2050 C.3    37  YG37        0.0395
    425  C15       50.2970  -16.5640   -1.2810 C.3    37  YG37        0.1972
    426  C16       50.1960  -17.6430   -2.3550 C.2    37  YG37        0.3372
    427  O17       49.9830  -18.7920   -1.9370 O.2    37  YG37       -0.2482
    428  O18       50.3100  -17.3440   -3.5570 O.3    37  YG37       -0.4432
    429  C19       50.2620  -18.5530   -4.3320 C.3    37  YG37        0.2557
    430  N20       50.7390  -17.3160   -0.0840 N.am   37  YG37       -0.1590
    431  C21       52.0110  -17.8030    0.0120 C.2    37  YG37        0.4217
    432  O22       52.9050  -17.3370   -0.7350 O.2    37  YG37       -0.2245
    433  O23       52.2420  -18.6750    0.8730 O.3    37  YG37       -0.4294
    434  C24       53.6120  -19.1260    0.8240 C.3    37  YG37        0.2574
    435  OP1       37.0260   -8.7530    2.3780 O.co2  37  YG37       -0.7578
    436  OP2       39.3220   -8.2850    1.2240 O.3    37  YG37       -0.1534
    437  P         41.2560  -10.2590    5.9700 P.3    38  A38         0.2141
    438  C5'       42.5470  -11.7850    7.5660 C.3    38  A38         0.1786
    439  O5'       42.6740  -10.7420    6.5970 O.3    38  A38        -0.3115
    440  C4'       43.7610  -12.6780    7.4630 C.3    38  A38         0.1500
    441  O4'       43.8500  -13.2640    6.1550 O.3    38  A38        -0.3333
    442  C3'       45.0840  -11.9510    7.7030 C.3    38  A38         0.0698
    443  O3'       45.3430  -11.8510    9.1080 O.2    38  A38        -0.2722
    444  C2'       46.0620  -12.8930    7.0210 C.3    38  A38         0.2037
    445  O2'       46.4280  -13.9770    7.8820 O.3    38  A38        -0.2183
    446  C1'       45.2510  -13.4030    5.8100 C.3    38  A38         0.2382
    447  N1        48.9960  -11.6920    2.4180 N.ar   38  A38        -0.2040
    448  C2        49.0680  -12.7500    3.2510 C.ar   38  A38         0.2016
    449  N3        48.0520  -13.1280    4.0440 N.ar   38  A38        -0.2048
    450  C4        46.8020  -12.4350    3.9870 C.ar   38  A38         0.1692
    451  C5        46.7490  -11.3790    3.0350 C.ar   38  A38         0.1518
    452  C6        47.8530  -10.9870    2.3030 C.ar   38  A38         0.1919
    453  N6        47.7630   -9.8910    1.5270 N.pl3  38  A38        -0.1054
    454  N7        45.4690  -10.7940    3.0560 N.ar   38  A38        -0.2193
    455  C8        44.7320  -11.4830    4.0850 C.ar   38  A38         0.1816
    456  N9        45.5800  -12.4850    4.6850 N.ar   38  A38        -0.2694
    457  OP1       40.2410   -9.9070    7.0360 O.3    38  A38        -0.4373
    458  OP2       41.4510   -9.2150    4.8600 O.co2  38  A38        -0.5172
    459  P         46.1780  -10.6130    9.6710 P.3    39  PSU39       0.3006
    460  C5'       48.5260  -11.8060    9.1370 C.3    39  PSU39       0.1823
    461  O5'       47.5690  -10.7650    8.8510 O.3    39  PSU39      -0.3001
    462  C4'       49.8360  -11.3970    8.4230 C.3    39  PSU39       0.1752
    463  O4'       49.6800  -11.5330    6.9990 O.3    39  PSU39      -0.3500
    464  C3'       50.1990   -9.9220    8.6700 C.3    39  PSU39       0.1838
    465  O3'       51.2270   -9.7540    9.6420 O.3    39  PSU39      -0.3113
    466  C2'       50.7810   -9.4400    7.3920 C.3    39  PSU39       0.2095
    467  O2'       52.1900   -9.6110    7.4880 O.3    39  PSU39      -0.2178
    468  C1'       50.2090  -10.3570    6.3290 C.3    39  PSU39       0.1621
    469  N1        46.9200   -9.0330    5.1480 N.am   39  PSU39      -0.1634
    470  C2        47.2900   -8.2270    4.1510 C.2    39  PSU39       0.3499
    471  O2        46.4300   -7.6540    3.4670 O.2    39  PSU39      -0.2484
    472  N3        48.5830   -8.0630    3.8920 N.am   39  PSU39      -0.1256
    473  C4        49.5040   -8.6980    4.5790 C.2    39  PSU39       0.2567
    474  O4        50.6880   -8.4400    4.4330 O.2    39  PSU39      -0.2724
    475  C5        49.1370   -9.5900    5.5520 C.3    39  PSU39       0.1470
    476  C6        47.8050   -9.7150    5.8550 C.2    39  PSU39       0.0753
    477  OP1       46.4400  -10.8820   11.1190 O.co2  39  PSU39      -0.7578
    478  OP2       45.5450   -9.3110    9.2770 O.3    39  PSU39      -0.1534
    479  CM5       48.2900   -6.4440    7.3200 C.3    40  5MC40       0.0356
    480  P         51.2980   -8.3130   10.2940 P.3    40  5MC40       0.2141
    481  C5'       53.3390   -7.0900    9.2770 C.3    40  5MC40       0.1812
    482  O5'       51.9350   -7.3360    9.1970 O.3    40  5MC40      -0.3114
    483  C4'       53.7690   -6.2500    8.0840 C.3    40  5MC40       0.1773
    484  O4'       53.0500   -6.6730    6.9130 O.3    40  5MC40      -0.3307
    485  C3'       53.4140   -4.8010    8.2270 C.3    40  5MC40       0.1860
    486  O3'       54.3230   -4.1320    9.0890 O.3    40  5MC40      -0.3112
    487  C2'       53.4640   -4.3530    6.7700 C.3    40  5MC40       0.2309
    488  O2'       54.7880   -4.0970    6.2870 O.3    40  5MC40      -0.2156
    489  C1'       52.9180   -5.5620    6.0270 C.3    40  5MC40       0.2420
    490  N1        51.5050   -5.3770    5.8070 N.ar   40  5MC40      -0.2539
    491  C2        51.0940   -4.5560    4.8430 C.ar   40  5MC40       0.3531
    492  O2        51.9070   -3.8550    4.2460 O.2    40  5MC40      -0.2443
    493  N3        49.8130   -4.4420    4.5460 N.ar   40  5MC40      -0.1742
    494  C4        48.8970   -5.0370    5.2880 C.ar   40  5MC40       0.1718
    495  N4        47.6120   -4.9450    4.9490 N.pl3  40  5MC40      -0.1073
    496  C5        49.3030   -5.8070    6.3740 C.ar   40  5MC40       0.0305
    497  C6        50.6460   -5.9580    6.6140 C.ar   40  5MC40       0.0806
    498  OP1       52.1680   -8.3590   11.4930 O.co2  40  5MC40      -0.5172
    499  OP2       49.8950   -7.8980   10.4570 O.3    40  5MC40      -0.4373
    500  P         53.8330   -2.7560    9.7570 P.3    41  U41         0.2141
    501  C5'       54.4000   -1.0940    7.7940 C.3    41  U41         0.1812
    502  O5'       53.4150   -1.7840    8.5500 O.3    41  U41        -0.3114
    503  C4'       53.6590   -0.2150    6.7890 C.3    41  U41         0.1773
    504  O4'       52.6800   -0.9840    6.0680 O.3    41  U41        -0.3307
    505  C3'       52.8450    0.9370    7.3710 C.3    41  U41         0.1860
    506  O3'       53.6900    2.0090    7.7850 O.3    41  U41        -0.3112
    507  C2'       51.9860    1.2820    6.1630 C.3    41  U41         0.2309
    508  O2'       52.7670    1.9280    5.1570 O.3    41  U41        -0.2156
    509  C1'       51.6440   -0.0890    5.6160 C.3    41  U41         0.2420
    510  N1        50.3460   -0.5870    6.0960 N.ar   41  U41        -0.2534
    511  C2        49.3300   -0.2210    5.3530 C.ar   41  U41         0.3546
    512  O2        49.6010    0.5460    4.4270 O.2    41  U41        -0.2443
    513  N3        48.0760   -0.6700    5.5740 N.ar   41  U41        -0.1530
    514  C4        47.8250   -1.5390    6.5500 C.ar   41  U41         0.2846
    515  O4        46.6900   -2.0080    6.7110 O.2    41  U41        -0.2650
    516  C5        48.8850   -1.9580    7.3730 C.ar   41  U41         0.0814
    517  C6        50.1690   -1.4510    7.1150 C.ar   41  U41         0.0870
    518  OP1       55.0110   -2.1490   10.4980 O.3    41  U41        -0.4373
    519  OP2       52.5610   -3.0230   10.4780 O.co2  41  U41        -0.5172
    520  P         53.3370    2.7610    9.1540 P.3    42  G42         0.2141
    521  C5'       52.4430    4.7400    7.8610 C.3    42  G42         0.1812
    522  O5'       52.1090    3.6710    8.7340 O.3    42  G42        -0.3114
    523  C4'       51.1620    5.2510    7.2080 C.3    42  G42         0.1773
    524  O4'       50.4570    4.2050    6.5230 O.3    42  G42        -0.3307
    525  C3'       50.1590    5.7910    8.1980 C.3    42  G42         0.1860
    526  O3'       50.6010    7.0570    8.6840 O.3    42  G42        -0.3112
    527  C2'       48.9170    5.8480    7.3360 C.3    42  G42         0.2309
    528  O2'       48.9510    6.9910    6.4800 O.3    42  G42        -0.2156
    529  C1'       49.0640    4.5650    6.5080 C.3    42  G42         0.2408
    530  N1        44.4240    2.2620    7.3730 N.ar   42  G42        -0.1709
    531  C2        44.6930    3.3550    6.6530 C.ar   42  G42         0.2606
    532  N2        43.7320    4.0010    6.0170 N.pl3  42  G42        -0.0859
    533  N3        45.9140    3.8410    6.5060 N.ar   42  G42        -0.1918
    534  C4        47.0060    3.2130    7.1030 C.ar   42  G42         0.1723
    535  C5        46.6870    2.0500    7.8500 C.ar   42  G42         0.1748
    536  C6        45.3960    1.5900    7.9840 C.ar   42  G42         0.3023
    537  O6        45.2040    0.5720    8.6550 O.2    42  G42        -0.2633
    538  N7        47.8600    1.5310    8.3950 N.ar   42  G42        -0.2173
    539  C8        48.9140    2.4270    7.9600 C.ar   42  G42         0.1817
    540  N9        48.3590    3.4550    7.1530 N.ar   42  G42        -0.2693
    541  OP1       54.4640    3.6930    9.4300 O.2    42  G42        -0.5172
    542  OP2       52.9260    1.7460   10.1800 O.co2  42  G42        -0.4373
    543  P         50.1480    7.4760   10.1490 P.3    43  G43         0.2141
    544  C5'       48.3780    9.0520    8.9940 C.3    43  G43         0.1812
    545  O5'       48.6170    7.8810    9.8010 O.3    43  G43        -0.3114
    546  C4'       46.8970    9.1550    8.6080 C.3    43  G43         0.1773
    547  O4'       46.4570    7.9260    8.0370 O.3    43  G43        -0.3307
    548  C3'       45.9630    9.3770    9.7780 C.3    43  G43         0.1860
    549  O3'       45.8920   10.7770   10.1210 O.3    43  G43        -0.3112
    550  C2'       44.6520    8.7770    9.3020 C.3    43  G43         0.2309
    551  O2'       43.9930    9.6720    8.4580 O.3    43  G43        -0.2156
    552  C1'       45.0870    7.6480    8.4130 C.3    43  G43         0.2408
    553  N1        42.1710    3.6740   10.2290 N.ar   43  G43        -0.1709
    554  C2        41.7500    4.7340    9.5350 C.ar   43  G43         0.2606
    555  N2        40.4420    4.8550    9.3420 N.pl3  43  G43        -0.0859
    556  N3        42.5820    5.6800    9.0880 N.ar   43  G43        -0.1918
    557  C4        43.9400    5.6110    9.3740 C.ar   43  G43         0.1723
    558  C5        44.3360    4.4830   10.1250 C.ar   43  G43         0.1748
    559  C6        43.4480    3.5390   10.5590 C.ar   43  G43         0.3023
    560  O6        43.8700    2.6320   11.2960 O.2    43  G43        -0.2633
    561  N7        45.6820    4.5080   10.3500 N.ar   43  G43        -0.2173
    562  C8        46.1050    5.6940    9.7460 C.ar   43  G43         0.1817
    563  N9        45.0270    6.3730    9.1380 N.ar   43  G43        -0.2693
    564  OP1       50.9240    8.7060   10.5540 O.2    43  G43        -0.5172
    565  OP2       50.2240    6.2560   10.9930 O.co2  43  G43        -0.4373
    566  P         45.4800   11.1310   11.6250 P.3    44  A44         0.2141
    567  C5'       43.1670   11.8610   10.7740 C.3    44  A44         0.1812
    568  O5'       43.9080   10.9590   11.5760 O.3    44  A44        -0.3114
    569  C4'       41.7700   11.2770   10.7600 C.3    44  A44         0.1773
    570  O4'       41.8480    9.8820   10.4200 O.3    44  A44        -0.3307
    571  C3'       41.1580   11.3000   12.1350 C.3    44  A44         0.1860
    572  O3'       40.4400   12.5160   12.3150 O.3    44  A44        -0.3112
    573  C2'       40.2400   10.0860   12.1310 C.3    44  A44         0.2309
    574  O2'       38.9730   10.3420   11.5710 O.3    44  A44        -0.2156
    575  C1'       40.9240    9.1180   11.2100 C.3    44  A44         0.2408
    576  N1        40.7640    4.3600   13.4780 N.ar   44  A44        -0.2040
    577  C2        39.7660    5.0570   12.9140 C.ar   44  A44         0.2016
    578  N3        39.9300    6.2870   12.4110 N.ar   44  A44        -0.2048
    579  C4        41.1760    6.9300   12.4540 C.ar   44  A44         0.1692
    580  C5        42.2000    6.1870   13.0810 C.ar   44  A44         0.1518
    581  C6        41.9970    4.8950   13.5700 C.ar   44  A44         0.1919
    582  N6        43.0060    4.1760   14.1120 N.pl3  44  A44        -0.1054
    583  N7        43.3520    6.9770   13.0410 N.ar   44  A44        -0.2193
    584  C8        43.0240    8.1650   12.3600 C.ar   44  A44         0.1816
    585  N9        41.6750    8.1080   11.9780 N.ar   44  A44        -0.2693
    586  OP1       45.7770   12.5510   11.9440 O.2    44  A44        -0.5172
    587  OP2       46.0790   10.1150   12.5560 O.co2  44  A44        -0.4373
    588  P         40.3950   13.1860   13.7680 P.3    45  G45         0.2141
    589  C5'       38.4860   11.7280   14.7990 C.3    45  G45         0.1786
    590  O5'       39.9080   11.9550   14.7050 O.3    45  G45        -0.3115
    591  C4'       38.1350   10.4090   15.5100 C.3    45  G45         0.1500
    592  O4'       38.9060    9.3230   14.9900 O.3    45  G45        -0.3333
    593  C3'       38.4420   10.3950   16.9760 C.3    45  G45         0.0698
    594  O3'       37.3630   10.9750   17.6930 O.2    45  G45        -0.2722
    595  C2'       38.5390    8.9290   17.2610 C.3    45  G45         0.2037
    596  O2'       37.2200    8.4760   17.3120 O.3    45  G45        -0.2183
    597  C1'       39.1210    8.3240   16.0020 C.3    45  G45         0.2382
    598  N1        43.2750    5.2840   17.3930 N.ar   45  G45        -0.1709
    599  C2        42.0060    4.9720   17.6080 C.ar   45  G45         0.2606
    600  N2        41.7730    3.7980   18.2140 N.pl3  45  G45        -0.0859
    601  N3        40.9960    5.7900   17.2130 N.ar   45  G45        -0.1918
    602  C4        41.2740    7.0440   16.6070 C.ar   45  G45         0.1723
    603  C5        42.6480    7.3140   16.4760 C.ar   45  G45         0.1748
    604  C6        43.6260    6.4070   16.7740 C.ar   45  G45         0.3023
    605  O6        44.7410    6.6190   16.2850 O.2    45  G45        -0.2633
    606  N7        42.8330    8.5280   15.8800 N.ar   45  G45        -0.2173
    607  C8        41.5280    9.0220   15.6330 C.ar   45  G45         0.1817
    608  N9        40.5660    8.1210   16.0890 N.ar   45  G45        -0.2693
    609  OP1       39.2780   14.2070   13.7780 O.2    45  G45        -0.5172
    610  OP2       41.8010   13.5730   14.1100 O.co2  45  G45        -0.4373
    611  CM7       44.1140   12.2700   21.2900 C.3    46  7MG46       0.0943
    612  P         37.6550   12.3340   18.4930 P.3    46  7MG46       0.3006
    613  C5'       37.7260   10.7450   20.5620 C.3    46  7MG46       0.1824
    614  O5'       37.1440   11.8850   19.9390 O.3    46  7MG46      -0.3001
    615  C4'       37.4790   10.8300   22.0530 C.3    46  7MG46       0.1793
    616  O4'       38.6950   10.3780   22.6560 O.3    46  7MG46      -0.3137
    617  C3'       37.3520   12.2890   22.4620 C.3    46  7MG46       0.1884
    618  O3'       36.7630   12.4430   23.7620 O.3    46  7MG46      -0.3111
    619  C2'       38.7730   12.7680   22.5870 C.3    46  7MG46       0.2541
    620  O2'       38.7410   13.6970   23.6520 O.3    46  7MG46      -0.2131
    621  C1'       39.4550   11.5200   23.0840 C.3    46  7MG46       0.3178
    622  N1        43.5180    8.5650   23.7090 N.am   46  7MG46       0.0130
    623  C2        42.2640    8.3820   24.0800 C.2    46  7MG46       0.5243
    624  N2        41.9970    7.2620   24.7520 N.pl3  46  7MG46       0.1572
    625  N3        41.3170    9.2500   23.8040 N.2    46  7MG46       0.0279
    626  C4        41.5880   10.3550   23.0910 C.2    46  7MG46       0.3345
    627  C5        42.8880   10.5080   22.6620 C.3    46  7MG46       0.2643
    628  C6        43.8650    9.6120   23.0150 C.2    46  7MG46       0.3458
    629  O6        45.0440    9.8060   22.7120 O.2    46  7MG46      -0.2512
    630  N7        42.9390   11.6790   21.9440 N.3    46  7MG46      -0.2137
    631  C8        41.6560   12.2370   21.9730 C.3    46  7MG46       0.2866
    632  N9        40.8660   11.3830   22.7300 N.pl3  46  7MG46      -0.1541
    633  OP1       36.7300   13.4310   18.0840 O.co2  46  7MG46      -0.7578
    634  OP2       39.1190   12.6160   18.4830 O.3    46  7MG46      -0.1534
    635  P         35.1850   12.5540   23.9930 P.3    47  U47         0.2141
    636  C5'       36.2440   13.5640   26.0090 C.3    47  U47         0.1813
    637  O5'       35.3590   13.7970   24.9300 O.3    47  U47        -0.3114
    638  C4'       36.5720   14.9260   26.5320 C.3    47  U47         0.1801
    639  O4'       35.3730   15.7060   26.5260 O.3    47  U47        -0.3306
    640  C3'       37.1320   14.9170   27.9390 C.3    47  U47         0.2161
    641  O3'       38.5410   14.9830   27.8190 O.3    47  U47        -0.2175
    642  C2'       36.5890   16.1950   28.5550 C.3    47  U47         0.2338
    643  O2'       37.5270   17.3040   28.5300 O.3    47  U47        -0.2155
    644  C1'       35.3270   16.5000   27.7380 C.3    47  U47         0.2421
    645  N1        34.0960   16.1410   28.4980 N.ar   47  U47        -0.2534
    646  C2        33.7860   16.8100   29.6360 C.ar   47  U47         0.3546
    647  O2        34.5660   17.6510   30.1140 O.2    47  U47        -0.2443
    648  N3        32.6340   16.5590   30.2560 N.ar   47  U47        -0.1530
    649  C4        31.7760   15.6570   29.8040 C.ar   47  U47         0.2846
    650  O4        30.7260   15.4120   30.3980 O.2    47  U47        -0.2650
    651  C5        32.0740   14.9540   28.6450 C.ar   47  U47         0.0814
    652  C6        33.2620   15.2160   27.9950 C.ar   47  U47         0.0870
    653  OP1       34.6440   11.3920   24.7630 O.3    47  U47        -0.4373
    654  OP2       34.4820   12.9210   22.7440 O.co2  47  U47        -0.5172
@<TRIPOS>BOND
     1   143   159    2
     2   157   171    1
     3   158   171    1
     4   159   161    1
     5   159   180    1
     6   159   181    1
     7   160   162    1
     8   160   161    1
     9   162   163    1
    10   162   164    1
    11   163   168    1
    12   164   165    1
    13   164   166    1
    14   165   182    1
    15   166   167    1
    16   166   168    1
    17   168   179    1
    18   169   170   ar
    19   169   175   ar
    20   170   171    1
    21   170   172   ar
    22   172   173   ar
    23   173   174   ar
    24   173   179   ar
    25   174   175   ar
    26   174   177   ar
    27   175   176    2
    28   177   178   ar
    29   178   179   ar
    30   273   290    2
    31   289   298    1
    32   290   308    1
    33   290   309    1
    34   290   292    1
    35   291   292    1
    36   291   293    1
    37   293   294    1
    38   293   295    1
    39   294   299    1
    40   295   296    1
    41   295   297    1
    42   296   310    1
    43   297   298    1
    44   297   299    1
    45   299   300    1
    46   300   301   ar
    47   300   307   ar
    48   301   302    2
    49   301   303   ar
    50   303   304   ar
    51   304   305    1
    52   304   306   ar
    53   306   307   ar
    54   316   331    2
    55   330   339    1
    56   331   333    1
    57   331   352    1
    58   331   353    1
    59   332   334    1
    60   332   333    1
    61   334   335    1
    62   334   336    1
    63   335   340    1
    64   336   337    1
    65   336   338    1
    66   337   354    1
    67   338   339    1
    68   338   340    1
    69   340   351    1
    70   341   342   ar
    71   341   347   ar
    72   342   343    1
    73   342   344   ar
    74   344   345   ar
    75   345   346   ar
    76   345   351   ar
    77   346   347   ar
    78   346   349   ar
    79   347   348    2
    80   349   350   ar
    81   350   351   ar
    82   382   398    2
    83   398   435    1
    84   398   436    1
    85   398   400    1
    86   399   400    1
    87   399   401    1
    88   401   402    1
    89   401   403    1
    90   402   407    1
    91   403   404    1
    92   403   405    1
    93   404   437    1
    94   405   406    1
    95   405   407    1
    96   407   419    1
    97   408   409   ar
    98   408   415   ar
    99   408   422   ar
   100   409   412   ar
   101   409   410   ar
   102   410   421   ar
   103   411   412    1
   104   412   413   ar
   105   413   414   ar
   106   413   419   ar
   107   414   415   ar
   108   414   417   ar
   109   415   416    2
   110   417   418   ar
   111   418   419   ar
   112   420   421    1
   113   421   422   ar
   114   422   423    1
   115   423   424    1
   116   424   425    1
   117   425   426    1
   118   425   430    1
   119   426   427    2
   120   426   428    1
   121   428   429    1
   122   430   431   am
   123   431   432    2
   124   431   433    1
   125   433   434    1
   126   443   459    2
   127   459   477    1
   128   459   478    1
   129   459   461    1
   130   460   461    1
   131   460   462    1
   132   462   463    1
   133   462   464    1
   134   463   468    1
   135   464   465    1
   136   464   466    1
   137   465   480    1
   138   466   467    1
   139   466   468    1
   140   468   475    1
   141   469   470    1
   142   469   476    2
   143   470   471    2
   144   470   472   am
   145   472   473   am
   146   473   474    2
   147   473   475    1
   148   475   476    1
   149   479   496    1
   150   480   482    1
   151   480   498    2
   152   480   499    1
   153   481   483    1
   154   481   482    1
   155   483   484    1
   156   483   485    1
   157   484   489    1
   158   485   486    1
   159   485   487    1
   160   486   500    1
   161   487   488    1
   162   487   489    1
   163   489   490    1
   164   490   491   ar
   165   490   497   ar
   166   491   492    2
   167   491   493   ar
   168   493   494   ar
   169   494   495    1
   170   494   496   ar
   171   496   497   ar
   172   594   612    2
   173   611   630    1
   174   612   614    1
   175   612   633    1
   176   612   634    1
   177   613   615    1
   178   613   614    1
   179   615   616    1
   180   615   617    1
   181   616   621    1
   182   617   618    1
   183   617   619    1
   184   618   635    1
   185   619   620    1
   186   619   621    1
   187   621   632    1
   188   622   623    2
   189   622   628    1
   190   623   624    1
   191   623   625    1
   192   625   626    2
   193   626   627    1
   194   626   632    1
   195   627   628    1
   196   627   630    1
   197   628   629    2
   198   630   631    1
   199   631   632    1
   200   374   354    2
   201   354   375    1
   202   354   356    1
   203   355   356    1
   204   355   357    1
   205   329   310    2
   206   358   357    1
   207   358   363    1
   208   328   310    1
   209   315   317    1
   210   315   313    1
   211   357   359    1
   212   310   312    1
   213   312   311    1
   214   372   373   ar
   215   372   371   ar
   216   311   313    1
   217   363   373    1
   218   363   361    1
   219   317   318    1
   220   317   319    1
   221   373   367   ar
   222   371   368   ar
   223   313   314    1
   224   326   327   ar
   225   326   324   ar
   226   327   320   ar
   227   325   324    2
   228   359   361    1
   229   359   360    1
   230   324   323   ar
   231   367   368   ar
   232   367   366   ar
   233   368   369   ar
   234   362   361    1
   235   320   319    1
   236   320   321   ar
   237   287   267    2
   238   319   314    1
   239   323   321   ar
   240   360   376    1
   241   321   322    2
   242   366   365   ar
   243   369   370    1
   244   369   364   ar
   245   288   267    1
   246   397   376    2
   247   267   269    1
   248   267   250    1
   249   365   364   ar
   250   396   376    1
   251   376   378    1
   252   269   268    1
   253   268   270    1
   254   272   270    1
   255   272   274    1
   256   265   244    2
   257   250   249    1
   258   270   271    1
   259   378   377    1
   260   380   385    1
   261   380   379    1
   262   394   393   ar
   263   394   395   ar
   264   393   390   ar
   265   392   391    1
   266   377   379    1
   267   274   275    1
   268   274   276    1
   269   395   385    1
   270   395   389   ar
   271   390   391   ar
   272   390   389   ar
   273   385   383    1
   274   249   247    1
   275   249   251    1
   276   391   386   ar
   277   245   246    1
   278   245   247    1
   279   379   381    1
   280   244   246    1
   281   244   266    1
   282   244   228    1
   283   389   388   ar
   284   271   276    1
   285   386   387   ar
   286   247   248    1
   287   388   387   ar
   288   276   286    1
   289   228   227    1
   290   285   286   ar
   291   285   284   ar
   292   251   252    1
   293   251   253    1
   294   286   280   ar
   295   383   381    1
   296   383   384    1
   297   284   281   ar
   298   248   253    1
   299   280   281   ar
   300   280   279   ar
   301   253   264    1
   302   281   282   ar
   303   227   225    1
   304   227   229    1
   305   230   229    1
   306   279   278   ar
   307   223   225    1
   308   223   224    1
   309   264   263   ar
   310   264   258   ar
   311   242   222    2
   312   225   226    1
   313   263   262   ar
   314   229   231    1
   315   282   283    1
   316   282   277   ar
   317   278   277   ar
   318   258   257   ar
   319   258   259   ar
   320   224   222    1
   321   262   259   ar
   322   453   452    1
   323   257   255   ar
   324   259   260   ar
   325   222   243    1
   326   222   208    1
   327   226   231    1
   328   231   241    1
   329   255   256    1
   330   255   254   ar
   331   452   447   ar
   332   452   451   ar
   333   447   448   ar
   334   260   254   ar
   335   260   261    2
   336   241   235   ar
   337   241   240   ar
   338   208   207    1
   339   451   454   ar
   340   451   450   ar
   341   454   455   ar
   342   234   235   ar
   343   234   233   ar
   344   448   449   ar
   345   235   236   ar
   346   240   239   ar
   347   233   232   ar
   348   450   449   ar
   349   450   456   ar
   350   455   456   ar
   351   236   239   ar
   352   236   237   ar
   353   210   209    1
   354   207   209    1
   355   207   205    1
   356   512   511    2
   357   232   237   ar
   358   209   211    1
   359   237   238    1
   360   456   446    1
   361   458   437    2
   362   508   507    1
   363   511   513   ar
   364   511   510   ar
   365   205   203    1
   366   205   206    1
   367   513   514   ar
   368   509   504    1
   369   509   510    1
   370   509   507    1
   371   220   202    2
   372   446   441    1
   373   446   444    1
   374   203   204    1
   375   437   439    1
   376   437   457    1
   377   532   531    1
   378   504   503    1
   379   510   517   ar
   380   211   206    1
   381   211   212    1
   382   441   440    1
   383   507   505    1
   384   214   213    2
   385   204   202    1
   386   528   527    1
   387   533   531   ar
   388   533   534   ar
   389   529   524    1
   390   529   540    1
   391   529   527    1
   392   524   523    1
   393   514   515    2
   394   514   516   ar
   395   439   438    1
   396   531   530   ar
   397   212   213   ar
   398   212   219   ar
   399   213   215   ar
   400   202   221    1
   401   202   188    1
   402   503   505    1
   403   503   501    1
   404   444   442    1
   405   444   445    1
   406   534   540   ar
   407   534   535   ar
   408   517   516   ar
   409   215   216   ar
   410   219   218   ar
   411   540   539   ar
   412   523   521    1
   413   523   525    1
   414   527   525    1
   415   505   506    1
   416   530   536   ar
   417   440   438    1
   418   440   442    1
   419   216   218   ar
   420   216   217    1
   421   506   520    1
   422   501   502    1
   423   535   536   ar
   424   535   538   ar
   425   521   522    1
   426   539   538   ar
   427   536   537    2
   428   188   187    1
   429   547   552    1
   430   547   546    1
   431   525   526    1
   432   552   563    1
   433   552   550    1
   434   551   550    1
   435   502   500    1
   436   546   544    1
   437   546   548    1
   438   526   543    1
   439   522   520    1
   440   544   545    1
   441   187   189    1
   442   187   185    1
   443   556   557   ar
   444   556   554   ar
   445   563   557   ar
   446   563   562   ar
   447   520   541    2
   448   520   542    1
   449   190   189    1
   450   550   548    1
   451   555   554    1
   452   189   191    1
   453   557   558   ar
   454   554   553   ar
   455   562   561   ar
   456   500   519    2
   457   500   518    1
   458   548   549    1
   459   545   543    1
   460   549   566    1
   461   558   561   ar
   462   558   559   ar
   463   543   564    2
   464   543   565    1
   465   200   182    2
   466   553   559   ar
   467   185   183    1
   468   185   186    1
   469   184   183    1
   470   184   182    1
   471   570   569    1
   472   570   575    1
   473   201   182    1
   474   194   193    2
   475   559   560    2
   476   569   567    1
   477   569   571    1
   478   567   568    1
   479   193   192   ar
   480   193   195   ar
   481   191   192    1
   482   191   186    1
   483   192   199   ar
   484   195   196   ar
   485   199   198   ar
   486   575   585    1
   487   575   573    1
   488   196   198   ar
   489   196   197    1
   490   574   573    1
   491   568   566    1
   492   566   586    2
   493   566   587    1
   494   585   584   ar
   495   585   579   ar
   496   573   571    1
   497   571   572    1
   498   572   588    1
   499   584   583   ar
   500   578   579   ar
   501   578   577   ar
   502   579   580   ar
   503   577   576   ar
   504   583   580   ar
   505   580   581   ar
   506   576   581   ar
   507   581   582    1
   508   588   609    2
   509   588   610    1
   510   588   590    1
   511   590   589    1
   512   589   591    1
   513   155   137    2
   514   592   591    1
   515   592   597    1
   516   156   137    1
   517   591   593    1
   518   142   140    1
   519   142   144    1
   520   607   606   ar
   521   607   608   ar
   522   137   139    1
   523   137   120    1
   524   139   138    1
   525   606   603   ar
   526   597   608    1
   527   597   595    1
   528   138   140    1
   529   608   602   ar
   530   605   604    2
   531   603   602   ar
   532   603   604   ar
   533   140   141    1
   534   144   145    1
   535   144   146    1
   536   135   114    2
   537   602   601   ar
   538   604   598   ar
   539   136   114    1
   540   593   595    1
   541   153   154   ar
   542   153   151   ar
   543   120   119    1
   544   601   599   ar
   545   595   596    1
   546   152   151    1
   547   154   147   ar
   548   114   116    1
   549   114    98    1
   550   598   599   ar
   551   151   150   ar
   552   599   600    1
   553   141   146    1
   554   116   115    1
   555   147   146    1
   556   147   148   ar
   557   150   148   ar
   558   113    92    2
   559   119   117    1
   560   119   121    1
   561   148   149    2
   562   115   117    1
   563   112    92    1
   564    98    97    1
   565   117   118    1
   566    92    94    1
   567    92    75    1
   568   121   122    1
   569   121   123    1
   570    94    93    1
   571    93    95    1
   572    97    95    1
   573    97    99    1
   574   133   132   ar
   575   133   134   ar
   576   132   129   ar
   577    91    69    2
   578    75    74    1
   579   118   123    1
   580    90    69    1
   581   131   130    2
   582   134   123    1
   583   134   128   ar
   584   129   130   ar
   585   129   128   ar
   586    95    96    1
   587   130   124   ar
   588    70    71    1
   589    70    72    1
   590   128   127   ar
   591    69    71    1
   592    69    53    1
   593    74    72    1
   594    74    76    1
   595    99   100    1
   596    99   101    1
   597   124   125   ar
   598   127   125   ar
   599   125   126    1
   600    72    73    1
   601   110   109   ar
   602   110   111   ar
   603    96   101    1
   604   109   106   ar
   605   101   111    1
   606   111   105   ar
   607    76    77    1
   608    76    78    1
   609    67    47    2
   610    55    54    1
   611    32    31    1
   612    53    52    1
   613   106   105   ar
   614   106   107   ar
   615   654   635    2
   616   105   104   ar
   617    73    78    1
   618    52    54    1
   619    52    50    1
   620    54    56    1
   621    30    47    1
   622    30    29    1
   623   108   107    1
   624    49    47    1
   625    49    48    1
   626   107   102   ar
   627    47    68    1
   628    78    89    1
   629   104   103   ar
   630    31    29    1
   631    31    33    1
   632    88    89   ar
   633    88    87   ar
   634    89    83   ar
   635   102   103   ar
   636    36    35    1
   637   635   653    1
   638   635   637    1
   639    29    27    1
   640    87    84   ar
   641    50    48    1
   642    50    51    1
   643    83    84   ar
   644    83    82   ar
   645    27    28    1
   646    27    25    1
   647    56    66    1
   648    56    51    1
   649    33    28    1
   650    33    44    1
   651    84    85   ar
   652    37    35   ar
   653    37    38   ar
   654    65    66   ar
   655    65    64   ar
   656    82    80   ar
   657   637   636    1
   658    35    34   ar
   659    66    60   ar
   660    85    86    2
   661    85    79   ar
   662    64    61   ar
   663    80    79   ar
   664    80    81    1
   665    25    26    1
   666    38    44   ar
   667    38    39   ar
   668    44    43   ar
   669    60    61   ar
   670    60    59   ar
   671    61    62   ar
   672   636   638    1
   673    34    40   ar
   674    59    58   ar
   675   639   638    1
   676   639   644    1
   677   638   640    1
   678    63    62    1
   679    62    57   ar
   680    26    24    1
   681    39    40   ar
   682    39    42   ar
   683    45    24    2
   684    58    57   ar
   685    43    42   ar
   686    40    41    2
   687    24     7    1
   688    24    46    1
   689   644   645    1
   690   644   642    1
   691   641   640    1
   692   640   642    1
   693   652   645   ar
   694   652   651   ar
   695     7     6    1
   696   645   646   ar
   697     9     8    1
   698   643   642    1
   699   651   649   ar
   700     6     8    1
   701     6     4    1
   702   646   647    2
   703   646   648   ar
   704     8    10    1
   705   649   648   ar
   706   649   650    2
   707     4     5    1
   708     4     2    1
   709    10     5    1
   710    10    21    1
   711     2     3    1
   712    21    15   ar
   713    21    20   ar
   714    14    15   ar
   715    14    12   ar
   716    15    16   ar
   717    20    19   ar
   718    13    12    1
   719     3     1    1
   720    12    11   ar
   721    22     1    1
   722    16    19   ar
   723    16    17   ar
   724     1    23    1
   725    11    17   ar
   726    17    18    2
