lig.pdb
 OpenBabel03051820513D

 22 23  0  0  1  0  0  0  0  0999 V2000
   57.3760  -18.3270    8.1790 O   0  0  0  0  0  0  0  0  0  0  0  0
   56.8360  -17.2480    8.1110 C   0  0  0  0  0  0  0  0  0  0  0  0
   55.6720  -17.0830    7.5080 N   0  0  0  0  0  0  0  0  0  0  0  0
   57.4930  -16.0580    8.6700 C   0  0  0  0  0  0  0  0  0  0  0  0
   58.8420  -16.0330    9.2400 C   0  0  0  0  0  0  0  0  0  0  0  0
   59.6670  -17.0960    9.3530 N   0  0  0  0  0  0  0  0  0  0  0  0
   57.0570  -14.7940    8.7910 N   0  0  0  0  0  0  0  0  0  0  0  0
   58.0470  -14.0480    9.3550 C   0  0  0  0  0  0  0  0  0  0  0  0
   59.1420  -14.7980    9.6260 N   0  0  0  0  0  0  0  0  0  0  0  0
   60.4040  -14.3060   10.2430 C   0  0  1  0  0  0  0  0  0  0  0  0
   61.1650  -13.4760    9.2320 C   0  0  1  0  0  0  0  0  0  0  0  0
   61.7390  -12.3490   10.0510 C   0  0  2  0  0  0  0  0  0  0  0  0
   63.0400  -12.7110   10.5310 O   0  0  0  0  0  0  0  0  0  0  0  0
   62.1840  -14.2550    8.5860 O   0  0  0  0  0  0  0  0  0  0  0  0
   60.1140  -13.4320   11.3310 O   0  0  0  0  0  0  0  0  0  0  0  0
   60.8120  -12.2140   11.2310 C   0  0  2  0  0  0  0  0  0  0  0  0
   59.7550  -11.1340   11.1270 C   0  0  0  0  0  0  0  0  0  0  0  0
   60.2120  -10.0260   10.3790 O   0  0  0  0  0  0  0  0  0  0  0  0
   59.7950   -8.5590   10.8550 P   0  0  0  0  0  0  0  0  0  0  0  0
   61.0640   -7.7370   10.7510 O   0  0  0  0  0  0  0  0  0  0  0  0
   59.3100   -8.8070   12.2600 O   0  0  0  0  0  0  0  0  0  0  0  0
   58.6760   -8.1950    9.9190 O   0  0  0  0  0  0  0  0  0  0  0  0
  2  1  2  0  0  0  0
  2  4  1  0  0  0  0
  3  2  1  0  0  0  0
  4  7  1  0  0  0  0
  4  5  2  0  0  0  0
  5  6  1  0  0  0  0
  5  9  1  0  0  0  0
  7  8  2  0  0  0  0
  8  9  1  0  0  0  0
 10  9  1  6  0  0  0
 10 15  1  0  0  0  0
 11 14  1  1  0  0  0
 11 12  1  0  0  0  0
 11 10  1  0  0  0  0
 12 13  1  1  0  0  0
 12 16  1  0  0  0  0
 16 17  1  6  0  0  0
 16 15  1  0  0  0  0
 18 19  1  0  0  0  0
 18 17  1  0  0  0  0
 19 21  1  0  0  0  0
 20 19  1  0  0  0  0
 22 19  2  0  0  0  0
M  END
$$$$
