lig.pdb
 OpenBabel11021811523D
libRbt.so/2013.1/901 2013/11/27
 22 23  0  0  0  0  0  0  0  0999 V2000
   57.4640  -18.4258    8.0283 O   0  0  0  0  0  0  0  0  0  0  0  0
   56.8551  -17.3904    8.1614 C   0  0  0  0  0  0  0  0  0  0  0  0
   55.5899  -17.2694    7.8005 N   0  0  0  0  0  0  0  0  0  0  0  0
   57.5313  -16.2011    8.6985 C   0  0  0  0  0  0  0  0  0  0  0  0
   58.8741  -16.1905    9.2832 C   0  0  0  0  0  0  0  0  0  0  0  0
   59.6748  -17.2676    9.4319 N   0  0  0  0  0  0  0  0  0  0  0  0
   57.1212  -14.9255    8.7832 N   0  0  0  0  0  0  0  0  0  0  0  0
   58.1207  -14.1868    9.3401 C   0  0  0  0  0  0  0  0  0  0  0  0
   59.1963  -14.9529    9.6421 N   0  0  0  0  0  0  0  0  0  0  0  0
   60.4617  -14.4725   10.2614 C   0  0  1  0  0  0  0  0  0  0  0  0
   61.2206  -13.6294    9.2597 C   0  0  1  0  0  0  0  0  0  0  0  0
   61.8001  -12.5157   10.0928 C   0  0  2  0  0  0  0  0  0  0  0  0
   63.1021  -12.8873   10.5625 O   0  0  0  0  0  0  0  0  0  0  0  0
   62.2354  -14.4010    8.5984 O   0  0  0  0  0  0  0  0  0  0  0  0
   60.1777  -13.6139   11.3631 O   0  0  0  0  0  0  0  0  0  0  0  0
   60.8779  -12.3960   11.2782 C   0  0  2  0  0  0  0  0  0  0  0  0
   59.8228  -11.3125   11.1941 C   0  0  0  0  0  0  0  0  0  0  0  0
   60.3987  -10.0357   11.0092 O   0  0  0  0  0  0  0  0  0  0  0  0
   59.4374   -8.7596   10.9922 P   0  0  0  0  0  0  0  0  0  0  0  0
   60.3412   -7.5919   10.6511 O   0  0  0  0  0  0  0  0  0  0  0  0
   58.8922   -8.7541   12.3970 O   0  0  0  0  0  0  0  0  0  0  0  0
   58.3930   -9.1250    9.9742 O   0  0  0  0  0  0  0  0  0  0  0  0
  2  1  2  0  0  0  0
  2  4  1  0  0  0  0
  3  2  1  0  0  0  0
  4  7  1  0  0  0  0
  4  5  2  0  0  0  0
  5  6  1  0  0  0  0
  5  9  1  0  0  0  0
  7  8  2  0  0  0  0
  8  9  1  0  0  0  0
 10  9  1  6  0  0  0
 10 15  1  0  0  0  0
 11 14  1  1  0  0  0
 11 12  1  0  0  0  0
 11 10  1  0  0  0  0
 12 13  1  1  0  0  0
 12 16  1  0  0  0  0
 16 17  1  6  0  0  0
 16 15  1  0  0  0  0
 18 19  1  0  0  0  0
 18 17  1  0  0  0  0
 19 21  1  0  0  0  0
 20 19  1  0  0  0  0
 22 19  2  0  0  0  0
M  END
>  <CHROM.1>
-9.18466263,110.29923663,-57.92397304,-174.92524615,-176.14037331,59.48388944
-13.09206552,9.95365763,1.82745947,0.15503296,-2.86824991

>  <Name>
lig.pdb

>  <RI>
0

>  <Rbt.Current_Directory>
/home/itssahil/PROJECTS/Mol_Feturizer/New_Systems/rnas/4znp

>  <Rbt.Executable>
rbdock ($Id: //depot/dev/client3/rdock/2013.1/src/exe/rbdock.cxx#4 $)

>  <Rbt.Library>
libRbt.so (2013.1, Build901 2013/11/27)

>  <Rbt.Parameter_File>
/export/apps/rDock/src/rDock_2013.1_src/data/scripts/dock_solv.prm

>  <Rbt.Receptor>
prm/pocket_docking_2.prm

>  <SCORE>
-24.8514

>  <SCORE.INTER>
-19.0533

>  <SCORE.INTER.CONST>
1

>  <SCORE.INTER.POLAR>
0

>  <SCORE.INTER.ROT>
5

>  <SCORE.INTER.SOLV>
21.1843

>  <SCORE.INTER.VDW>
-26.697

>  <SCORE.INTER.norm>
-0.866057

>  <SCORE.INTRA>
-5.79814

>  <SCORE.INTRA.DIHEDRAL>
-9.15223

>  <SCORE.INTRA.DIHEDRAL.0>
11.9251

>  <SCORE.INTRA.POLAR>
0

>  <SCORE.INTRA.POLAR.0>
0

>  <SCORE.INTRA.REPUL>
0

>  <SCORE.INTRA.REPUL.0>
0

>  <SCORE.INTRA.SOLV>
-0.0349909

>  <SCORE.INTRA.SOLV.lig_0>
-40.9823

>  <SCORE.INTRA.VDW>
-1.20453

>  <SCORE.INTRA.VDW.0>
-0.53506

>  <SCORE.INTRA.norm>
-0.263552

>  <SCORE.RESTR>
0

>  <SCORE.RESTR.CAVITY>
0

>  <SCORE.RESTR.norm>
0

>  <SCORE.SYSTEM>
0

>  <SCORE.SYSTEM.CONST>
0

>  <SCORE.SYSTEM.DIHEDRAL>
0

>  <SCORE.SYSTEM.SOLV>
0

>  <SCORE.SYSTEM.norm>
0

>  <SCORE.heavy>
22

>  <SCORE.norm>
-1.12961

>  <RMSD>
0.365

$$$$
lig.pdb
 OpenBabel11021811523D
libRbt.so/2013.1/901 2013/11/27
 22 23  0  0  0  0  0  0  0  0999 V2000
   57.4974  -18.4186    8.0138 O   0  0  0  0  0  0  0  0  0  0  0  0
   56.8839  -17.3859    8.1463 C   0  0  0  0  0  0  0  0  0  0  0  0
   55.6186  -17.2702    7.7837 N   0  0  0  0  0  0  0  0  0  0  0  0
   57.5542  -16.1938    8.6847 C   0  0  0  0  0  0  0  0  0  0  0  0
   58.8946  -16.1784    9.2750 C   0  0  0  0  0  0  0  0  0  0  0  0
   59.6979  -17.2528    9.4284 N   0  0  0  0  0  0  0  0  0  0  0  0
   57.1399  -14.9194    8.7662 N   0  0  0  0  0  0  0  0  0  0  0  0
   58.1348  -14.1770    9.3263 C   0  0  0  0  0  0  0  0  0  0  0  0
   59.2115  -14.9394    9.6337 N   0  0  0  0  0  0  0  0  0  0  0  0
   60.4728  -14.4544   10.2576 C   0  0  1  0  0  0  0  0  0  0  0  0
   61.2202  -13.5880    9.2672 C   0  0  1  0  0  0  0  0  0  0  0  0
   61.7891  -12.4805   10.1159 C   0  0  2  0  0  0  0  0  0  0  0  0
   63.0962  -12.8447   10.5773 O   0  0  0  0  0  0  0  0  0  0  0  0
   62.2421  -14.3382    8.5924 O   0  0  0  0  0  0  0  0  0  0  0  0
   60.1817  -13.6156   11.3727 O   0  0  0  0  0  0  0  0  0  0  0  0
   60.8682  -12.3889   11.3048 C   0  0  2  0  0  0  0  0  0  0  0  0
   59.8010  -11.3160   11.2390 C   0  0  0  0  0  0  0  0  0  0  0  0
   60.3625  -10.0299   11.0754 O   0  0  0  0  0  0  0  0  0  0  0  0
   59.3878   -8.7641   11.0866 P   0  0  0  0  0  0  0  0  0  0  0  0
   60.2864   -7.5743   10.8146 O   0  0  0  0  0  0  0  0  0  0  0  0
   58.8096   -8.8209   12.4769 O   0  0  0  0  0  0  0  0  0  0  0  0
   58.3718   -9.0985   10.0299 O   0  0  0  0  0  0  0  0  0  0  0  0
  2  1  2  0  0  0  0
  2  4  1  0  0  0  0
  3  2  1  0  0  0  0
  4  7  1  0  0  0  0
  4  5  2  0  0  0  0
  5  6  1  0  0  0  0
  5  9  1  0  0  0  0
  7  8  2  0  0  0  0
  8  9  1  0  0  0  0
 10  9  1  6  0  0  0
 10 15  1  0  0  0  0
 11 14  1  1  0  0  0
 11 12  1  0  0  0  0
 11 10  1  0  0  0  0
 12 13  1  1  0  0  0
 12 16  1  0  0  0  0
 16 17  1  6  0  0  0
 16 15  1  0  0  0  0
 18 19  1  0  0  0  0
 18 17  1  0  0  0  0
 19 21  1  0  0  0  0
 20 19  1  0  0  0  0
 22 19  2  0  0  0  0
M  END
>  <CHROM.1>
-9.37826026,111.39798650,-58.06069827,-176.98109237,-175.86558122,59.47714379
-13.08138299,9.98058303,1.81833219,0.14786848,-2.85301193

>  <Name>
lig.pdb

>  <RI>
0

>  <Rbt.Current_Directory>
/home/itssahil/PROJECTS/Mol_Feturizer/New_Systems/rnas/4znp

>  <Rbt.Executable>
rbdock ($Id: //depot/dev/client3/rdock/2013.1/src/exe/rbdock.cxx#4 $)

>  <Rbt.Library>
libRbt.so (2013.1, Build901 2013/11/27)

>  <Rbt.Parameter_File>
/export/apps/rDock/src/rDock_2013.1_src/data/scripts/dock_solv.prm

>  <Rbt.Receptor>
prm/pocket_docking_3.prm

>  <SCORE>
-24.7639

>  <SCORE.INTER>
-18.9439

>  <SCORE.INTER.CONST>
1

>  <SCORE.INTER.POLAR>
0

>  <SCORE.INTER.ROT>
5

>  <SCORE.INTER.SOLV>
21.0389

>  <SCORE.INTER.VDW>
-26.5756

>  <SCORE.INTER.norm>
-0.861088

>  <SCORE.INTRA>
-5.82

>  <SCORE.INTRA.DIHEDRAL>
-9.16293

>  <SCORE.INTRA.DIHEDRAL.0>
11.9251

>  <SCORE.INTRA.POLAR>
0

>  <SCORE.INTRA.POLAR.0>
0

>  <SCORE.INTRA.REPUL>
0

>  <SCORE.INTRA.REPUL.0>
0

>  <SCORE.INTRA.SOLV>
-0.0543686

>  <SCORE.INTRA.SOLV.lig_0>
-40.9823

>  <SCORE.INTRA.VDW>
-1.21136

>  <SCORE.INTRA.VDW.0>
-0.53506

>  <SCORE.INTRA.norm>
-0.264546

>  <SCORE.RESTR>
0

>  <SCORE.RESTR.CAVITY>
0

>  <SCORE.RESTR.norm>
0

>  <SCORE.SYSTEM>
0

>  <SCORE.SYSTEM.CONST>
0

>  <SCORE.SYSTEM.DIHEDRAL>
0

>  <SCORE.SYSTEM.SOLV>
0

>  <SCORE.SYSTEM.norm>
0

>  <SCORE.heavy>
22

>  <SCORE.norm>
-1.12563

>  <RMSD>
0.381

$$$$
lig.pdb
 OpenBabel11021811523D
libRbt.so/2013.1/901 2013/11/27
 22 23  0  0  0  0  0  0  0  0999 V2000
   57.5194  -18.3468    8.0649 O   0  0  0  0  0  0  0  0  0  0  0  0
   56.9178  -17.3066    8.1933 C   0  0  0  0  0  0  0  0  0  0  0  0
   55.6518  -17.1799    7.8369 N   0  0  0  0  0  0  0  0  0  0  0  0
   57.6039  -16.1179    8.7191 C   0  0  0  0  0  0  0  0  0  0  0  0
   58.9481  -16.1124    9.3009 C   0  0  0  0  0  0  0  0  0  0  0  0
   59.7411  -17.1942    9.4567 N   0  0  0  0  0  0  0  0  0  0  0  0
   57.2035  -14.8386    8.7942 N   0  0  0  0  0  0  0  0  0  0  0  0
   58.2096  -14.1029    9.3428 C   0  0  0  0  0  0  0  0  0  0  0  0
   59.2802  -14.8744    9.6489 N   0  0  0  0  0  0  0  0  0  0  0  0
   60.5504  -14.3983   10.2614 C   0  0  1  0  0  0  0  0  0  0  0  0
   61.2949  -13.5370    9.2644 C   0  0  1  0  0  0  0  0  0  0  0  0
   61.8792  -12.4337   10.1080 C   0  0  2  0  0  0  0  0  0  0  0  0
   63.1878  -12.8071   10.5576 O   0  0  0  0  0  0  0  0  0  0  0  0
   62.3054  -14.2943    8.5804 O   0  0  0  0  0  0  0  0  0  0  0  0
   60.2752  -13.5577   11.3792 O   0  0  0  0  0  0  0  0  0  0  0  0
   60.9697  -12.3358   11.3051 C   0  0  2  0  0  0  0  0  0  0  0  0
   59.9095  -11.2554   11.2491 C   0  0  0  0  0  0  0  0  0  0  0  0
   60.4813   -9.9646   11.1957 O   0  0  0  0  0  0  0  0  0  0  0  0
   59.5139   -8.6964   11.2884 P   0  0  0  0  0  0  0  0  0  0  0  0
   60.4325   -7.4945   11.1972 O   0  0  0  0  0  0  0  0  0  0  0  0
   58.8568   -8.8957   12.6298 O   0  0  0  0  0  0  0  0  0  0  0  0
   58.5583   -8.9042   10.1463 O   0  0  0  0  0  0  0  0  0  0  0  0
  2  1  2  0  0  0  0
  2  4  1  0  0  0  0
  3  2  1  0  0  0  0
  4  7  1  0  0  0  0
  4  5  2  0  0  0  0
  5  6  1  0  0  0  0
  5  9  1  0  0  0  0
  7  8  2  0  0  0  0
  8  9  1  0  0  0  0
 10  9  1  6  0  0  0
 10 15  1  0  0  0  0
 11 14  1  1  0  0  0
 11 12  1  0  0  0  0
 11 10  1  0  0  0  0
 12 13  1  1  0  0  0
 12 16  1  0  0  0  0
 16 17  1  6  0  0  0
 16 15  1  0  0  0  0
 18 19  1  0  0  0  0
 18 17  1  0  0  0  0
 19 21  1  0  0  0  0
 20 19  1  0  0  0  0
 22 19  2  0  0  0  0
M  END
>  <CHROM.1>
-9.33349373,111.87542497,-63.11088132,-179.80936117,-173.60704012,59.56120081
-13.01776369,10.04820202,1.82403308,0.12126166,-2.83126646

>  <Name>
lig.pdb

>  <RI>
0

>  <Rbt.Current_Directory>
/home/itssahil/PROJECTS/Mol_Feturizer/New_Systems/rnas/4znp

>  <Rbt.Executable>
rbdock ($Id: //depot/dev/client3/rdock/2013.1/src/exe/rbdock.cxx#4 $)

>  <Rbt.Library>
libRbt.so (2013.1, Build901 2013/11/27)

>  <Rbt.Parameter_File>
/export/apps/rDock/src/rDock_2013.1_src/data/scripts/dock_solv.prm

>  <Rbt.Receptor>
prm/pocket_docking_3.prm

>  <SCORE>
-24.6867

>  <SCORE.INTER>
-18.8821

>  <SCORE.INTER.CONST>
1

>  <SCORE.INTER.POLAR>
0

>  <SCORE.INTER.ROT>
5

>  <SCORE.INTER.SOLV>
20.5036

>  <SCORE.INTER.VDW>
-26.3559

>  <SCORE.INTER.norm>
-0.858277

>  <SCORE.INTRA>
-5.80462

>  <SCORE.INTRA.DIHEDRAL>
-9.04652

>  <SCORE.INTRA.DIHEDRAL.0>
11.9251

>  <SCORE.INTRA.POLAR>
0

>  <SCORE.INTRA.POLAR.0>
0

>  <SCORE.INTRA.REPUL>
0

>  <SCORE.INTRA.REPUL.0>
0

>  <SCORE.INTRA.SOLV>
-0.101147

>  <SCORE.INTRA.SOLV.lig_0>
-40.9823

>  <SCORE.INTRA.VDW>
-1.23079

>  <SCORE.INTRA.VDW.0>
-0.53506

>  <SCORE.INTRA.norm>
-0.263846

>  <SCORE.RESTR>
0

>  <SCORE.RESTR.CAVITY>
0

>  <SCORE.RESTR.norm>
0

>  <SCORE.SYSTEM>
0

>  <SCORE.SYSTEM.CONST>
0

>  <SCORE.SYSTEM.DIHEDRAL>
0

>  <SCORE.SYSTEM.SOLV>
0

>  <SCORE.SYSTEM.norm>
0

>  <SCORE.heavy>
22

>  <SCORE.norm>
-1.12212

>  <RMSD>
0.381

$$$$
lig.pdb
 OpenBabel11021811523D
libRbt.so/2013.1/901 2013/11/27
 22 23  0  0  0  0  0  0  0  0999 V2000
   57.4943  -18.4138    8.0078 O   0  0  0  0  0  0  0  0  0  0  0  0
   56.8785  -17.3836    8.1488 C   0  0  0  0  0  0  0  0  0  0  0  0
   55.6121  -17.2686    7.7899 N   0  0  0  0  0  0  0  0  0  0  0  0
   57.5471  -16.1936    8.6939 C   0  0  0  0  0  0  0  0  0  0  0  0
   58.8942  -16.1761    9.2686 C   0  0  0  0  0  0  0  0  0  0  0  0
   59.7065  -17.2467    9.3994 N   0  0  0  0  0  0  0  0  0  0  0  0
   57.1251  -14.9231    8.7957 N   0  0  0  0  0  0  0  0  0  0  0  0
   58.1216  -14.1807    9.3532 C   0  0  0  0  0  0  0  0  0  0  0  0
   59.2069  -14.9393    9.6387 N   0  0  0  0  0  0  0  0  0  0  0  0
   60.4722  -14.4533   10.2537 C   0  0  1  0  0  0  0  0  0  0  0  0
   61.2088  -13.5812    9.2602 C   0  0  1  0  0  0  0  0  0  0  0  0
   61.7820  -12.4754   10.1081 C   0  0  2  0  0  0  0  0  0  0  0  0
   63.0939  -12.8378   10.5571 O   0  0  0  0  0  0  0  0  0  0  0  0
   62.2269  -14.3262    8.5740 O   0  0  0  0  0  0  0  0  0  0  0  0
   60.1883  -13.6195   11.3743 O   0  0  0  0  0  0  0  0  0  0  0  0
   60.8710  -12.3907   11.3051 C   0  0  2  0  0  0  0  0  0  0  0  0
   59.8004  -11.3203   11.2524 C   0  0  0  0  0  0  0  0  0  0  0  0
   60.3534  -10.0385   11.0354 O   0  0  0  0  0  0  0  0  0  0  0  0
   59.3751   -8.7754   11.0322 P   0  0  0  0  0  0  0  0  0  0  0  0
   60.2456   -7.6057   10.6188 O   0  0  0  0  0  0  0  0  0  0  0  0
   58.8973   -8.7402   12.4610 O   0  0  0  0  0  0  0  0  0  0  0  0
   58.2885   -9.1800   10.0750 O   0  0  0  0  0  0  0  0  0  0  0  0
  2  1  2  0  0  0  0
  2  4  1  0  0  0  0
  3  2  1  0  0  0  0
  4  7  1  0  0  0  0
  4  5  2  0  0  0  0
  5  6  1  0  0  0  0
  5  9  1  0  0  0  0
  7  8  2  0  0  0  0
  8  9  1  0  0  0  0
 10  9  1  6  0  0  0
 10 15  1  0  0  0  0
 11 14  1  1  0  0  0
 11 12  1  0  0  0  0
 11 10  1  0  0  0  0
 12 13  1  1  0  0  0
 12 16  1  0  0  0  0
 16 17  1  6  0  0  0
 16 15  1  0  0  0  0
 18 19  1  0  0  0  0
 18 17  1  0  0  0  0
 19 21  1  0  0  0  0
 20 19  1  0  0  0  0
 22 19  2  0  0  0  0
M  END
>  <CHROM.1>
-8.70923810,110.82670586,-55.70957674,-173.63444629,-176.65531437,59.47066301
-13.08299316,9.96498188,1.81920869,0.14840616,-2.85822165

>  <Name>
lig.pdb

>  <RI>
0

>  <Rbt.Current_Directory>
/home/itssahil/PROJECTS/Mol_Feturizer/New_Systems/rnas/4znp

>  <Rbt.Executable>
rbdock ($Id: //depot/dev/client3/rdock/2013.1/src/exe/rbdock.cxx#4 $)

>  <Rbt.Library>
libRbt.so (2013.1, Build901 2013/11/27)

>  <Rbt.Parameter_File>
/export/apps/rDock/src/rDock_2013.1_src/data/scripts/dock_solv.prm

>  <Rbt.Receptor>
prm/pocket_docking_7.prm

>  <SCORE>
-24.8521

>  <SCORE.INTER>
-19.0995

>  <SCORE.INTER.CONST>
1

>  <SCORE.INTER.POLAR>
0

>  <SCORE.INTER.ROT>
5

>  <SCORE.INTER.SOLV>
21.0623

>  <SCORE.INTER.VDW>
-26.6871

>  <SCORE.INTER.norm>
-0.868158

>  <SCORE.INTRA>
-5.75263

>  <SCORE.INTRA.DIHEDRAL>
-9.11921

>  <SCORE.INTRA.DIHEDRAL.0>
11.9251

>  <SCORE.INTRA.POLAR>
0

>  <SCORE.INTRA.POLAR.0>
0

>  <SCORE.INTRA.REPUL>
0

>  <SCORE.INTRA.REPUL.0>
0

>  <SCORE.INTRA.SOLV>
-0.0234601

>  <SCORE.INTRA.SOLV.lig_0>
-40.9823

>  <SCORE.INTRA.VDW>
-1.18129

>  <SCORE.INTRA.VDW.0>
-0.53506

>  <SCORE.INTRA.norm>
-0.261483

>  <SCORE.RESTR>
0

>  <SCORE.RESTR.CAVITY>
0

>  <SCORE.RESTR.norm>
0

>  <SCORE.SYSTEM>
0

>  <SCORE.SYSTEM.CONST>
0

>  <SCORE.SYSTEM.DIHEDRAL>
0

>  <SCORE.SYSTEM.SOLV>
0

>  <SCORE.SYSTEM.norm>
0

>  <SCORE.heavy>
22

>  <SCORE.norm>
-1.12964

>  <RMSD>
0.389

$$$$
lig.pdb
 OpenBabel11021811523D
libRbt.so/2013.1/901 2013/11/27
 22 23  0  0  0  0  0  0  0  0999 V2000
   57.4618  -18.4531    8.0027 O   0  0  0  0  0  0  0  0  0  0  0  0
   56.8433  -17.4220    8.1243 C   0  0  0  0  0  0  0  0  0  0  0  0
   55.5815  -17.3124    7.7479 N   0  0  0  0  0  0  0  0  0  0  0  0
   57.5037  -16.2253    8.6647 C   0  0  0  0  0  0  0  0  0  0  0  0
   58.8363  -16.2033    9.2722 C   0  0  0  0  0  0  0  0  0  0  0  0
   59.6402  -17.2749    9.4417 N   0  0  0  0  0  0  0  0  0  0  0  0
   57.0852  -14.9515    8.7338 N   0  0  0  0  0  0  0  0  0  0  0  0
   58.0710  -14.2036    9.3026 C   0  0  0  0  0  0  0  0  0  0  0  0
   59.1455  -14.9616    9.6281 N   0  0  0  0  0  0  0  0  0  0  0  0
   60.3975  -14.4700   10.2654 C   0  0  1  0  0  0  0  0  0  0  0  0
   61.1663  -13.6252    9.2727 C   0  0  1  0  0  0  0  0  0  0  0  0
   61.7246  -12.5044   10.1106 C   0  0  2  0  0  0  0  0  0  0  0  0
   63.0216  -12.8650   10.6023 O   0  0  0  0  0  0  0  0  0  0  0  0
   62.1969  -14.3921    8.6306 O   0  0  0  0  0  0  0  0  0  0  0  0
   60.0900  -13.6093   11.3593 O   0  0  0  0  0  0  0  0  0  0  0  0
   60.7829  -12.3868   11.2808 C   0  0  2  0  0  0  0  0  0  0  0  0
   59.7217  -11.3111   11.1758 C   0  0  0  0  0  0  0  0  0  0  0  0
   60.2913  -10.0317   10.9896 O   0  0  0  0  0  0  0  0  0  0  0  0
   59.3277   -8.7574   11.0037 P   0  0  0  0  0  0  0  0  0  0  0  0
   60.2155   -7.5897   10.6224 O   0  0  0  0  0  0  0  0  0  0  0  0
   58.8372   -8.7460   12.4284 O   0  0  0  0  0  0  0  0  0  0  0  0
   58.2454   -9.1295   10.0285 O   0  0  0  0  0  0  0  0  0  0  0  0
  2  1  2  0  0  0  0
  2  4  1  0  0  0  0
  3  2  1  0  0  0  0
  4  7  1  0  0  0  0
  4  5  2  0  0  0  0
  5  6  1  0  0  0  0
  5  9  1  0  0  0  0
  7  8  2  0  0  0  0
  8  9  1  0  0  0  0
 10  9  1  6  0  0  0
 10 15  1  0  0  0  0
 11 14  1  1  0  0  0
 11 12  1  0  0  0  0
 11 10  1  0  0  0  0
 12 13  1  1  0  0  0
 12 16  1  0  0  0  0
 16 17  1  6  0  0  0
 16 15  1  0  0  0  0
 18 19  1  0  0  0  0
 18 17  1  0  0  0  0
 19 21  1  0  0  0  0
 20 19  1  0  0  0  0
 22 19  2  0  0  0  0
M  END
>  <CHROM.1>
-9.54095926,110.50068056,-57.67861874,-173.66708685,-173.99110380,59.41639586
-13.09659039,9.95033970,1.81607250,0.16332014,-2.86519666

>  <Name>
lig.pdb

>  <RI>
0

>  <Rbt.Current_Directory>
/home/itssahil/PROJECTS/Mol_Feturizer/New_Systems/rnas/4znp

>  <Rbt.Executable>
rbdock ($Id: //depot/dev/client3/rdock/2013.1/src/exe/rbdock.cxx#4 $)

>  <Rbt.Library>
libRbt.so (2013.1, Build901 2013/11/27)

>  <Rbt.Parameter_File>
/export/apps/rDock/src/rDock_2013.1_src/data/scripts/dock_solv.prm

>  <Rbt.Receptor>
prm/pocket_docking_5.prm

>  <SCORE>
-24.6856

>  <SCORE.INTER>
-18.9738

>  <SCORE.INTER.CONST>
1

>  <SCORE.INTER.POLAR>
0

>  <SCORE.INTER.ROT>
5

>  <SCORE.INTER.SOLV>
21.2318

>  <SCORE.INTER.VDW>
-26.6598

>  <SCORE.INTER.norm>
-0.862444

>  <SCORE.INTRA>
-5.71186

>  <SCORE.INTRA.DIHEDRAL>
-8.99801

>  <SCORE.INTRA.DIHEDRAL.0>
11.9251

>  <SCORE.INTRA.POLAR>
0

>  <SCORE.INTRA.POLAR.0>
0

>  <SCORE.INTRA.REPUL>
0

>  <SCORE.INTRA.REPUL.0>
0

>  <SCORE.INTRA.SOLV>
-0.0414573

>  <SCORE.INTRA.SOLV.lig_0>
-40.9823

>  <SCORE.INTRA.VDW>
-1.19213

>  <SCORE.INTRA.VDW.0>
-0.53506

>  <SCORE.INTRA.norm>
-0.25963

>  <SCORE.RESTR>
0

>  <SCORE.RESTR.CAVITY>
0

>  <SCORE.RESTR.norm>
0

>  <SCORE.SYSTEM>
0

>  <SCORE.SYSTEM.CONST>
0

>  <SCORE.SYSTEM.DIHEDRAL>
0

>  <SCORE.SYSTEM.SOLV>
0

>  <SCORE.SYSTEM.norm>
0

>  <SCORE.heavy>
22

>  <SCORE.norm>
-1.12207

>  <RMSD>
0.391

$$$$
lig.pdb
 OpenBabel11021811523D
libRbt.so/2013.1/901 2013/11/27
 22 23  0  0  0  0  0  0  0  0999 V2000
   57.4686  -18.4429    8.0134 O   0  0  0  0  0  0  0  0  0  0  0  0
   56.8459  -17.4134    8.1267 C   0  0  0  0  0  0  0  0  0  0  0  0
   55.5838  -17.3119    7.7490 N   0  0  0  0  0  0  0  0  0  0  0  0
   57.5012  -16.2098    8.6579 C   0  0  0  0  0  0  0  0  0  0  0  0
   58.8120  -16.1858    9.3109 C   0  0  0  0  0  0  0  0  0  0  0  0
   59.5968  -17.2611    9.5372 N   0  0  0  0  0  0  0  0  0  0  0  0
   57.0957  -14.9301    8.6782 N   0  0  0  0  0  0  0  0  0  0  0  0
   58.0699  -14.1778    9.2611 C   0  0  0  0  0  0  0  0  0  0  0  0
   59.1233  -14.9383    9.6442 N   0  0  0  0  0  0  0  0  0  0  0  0
   60.3581  -14.4433   10.3118 C   0  0  1  0  0  0  0  0  0  0  0  0
   61.1544  -13.6064    9.3343 C   0  0  1  0  0  0  0  0  0  0  0  0
   61.6911  -12.4801   10.1791 C   0  0  2  0  0  0  0  0  0  0  0  0
   62.9739  -12.8384   10.7083 O   0  0  0  0  0  0  0  0  0  0  0  0
   62.2013  -14.3787    8.7259 O   0  0  0  0  0  0  0  0  0  0  0  0
   60.0220  -13.5746   11.3907 O   0  0  0  0  0  0  0  0  0  0  0  0
   60.7181  -12.3533   11.3224 C   0  0  2  0  0  0  0  0  0  0  0  0
   59.6613  -11.2774   11.1810 C   0  0  0  0  0  0  0  0  0  0  0  0
   60.2359   -9.9906   11.0813 O   0  0  0  0  0  0  0  0  0  0  0  0
   59.2675   -8.7199   11.0801 P   0  0  0  0  0  0  0  0  0  0  0  0
   60.1645   -7.5429   10.7530 O   0  0  0  0  0  0  0  0  0  0  0  0
   58.7227   -8.7345   12.4850 O   0  0  0  0  0  0  0  0  0  0  0  0
   58.2248   -9.0787   10.0580 O   0  0  0  0  0  0  0  0  0  0  0  0
  2  1  2  0  0  0  0
  2  4  1  0  0  0  0
  3  2  1  0  0  0  0
  4  7  1  0  0  0  0
  4  5  2  0  0  0  0
  5  6  1  0  0  0  0
  5  9  1  0  0  0  0
  7  8  2  0  0  0  0
  8  9  1  0  0  0  0
 10  9  1  6  0  0  0
 10 15  1  0  0  0  0
 11 14  1  1  0  0  0
 11 12  1  0  0  0  0
 11 10  1  0  0  0  0
 12 13  1  1  0  0  0
 12 16  1  0  0  0  0
 16 17  1  6  0  0  0
 16 15  1  0  0  0  0
 18 19  1  0  0  0  0
 18 17  1  0  0  0  0
 19 21  1  0  0  0  0
 20 19  1  0  0  0  0
 22 19  2  0  0  0  0
M  END
>  <CHROM.1>
-11.97383275,111.85614882,-61.19755617,-171.68537185,-173.68235654,59.38233486
-13.07114549,9.99511504,1.80797332,0.17567473,-2.86078572

>  <Name>
lig.pdb

>  <RI>
0

>  <Rbt.Current_Directory>
/home/itssahil/PROJECTS/Mol_Feturizer/New_Systems/rnas/4znp

>  <Rbt.Executable>
rbdock ($Id: //depot/dev/client3/rdock/2013.1/src/exe/rbdock.cxx#4 $)

>  <Rbt.Library>
libRbt.so (2013.1, Build901 2013/11/27)

>  <Rbt.Parameter_File>
/export/apps/rDock/src/rDock_2013.1_src/data/scripts/dock_solv.prm

>  <Rbt.Receptor>
prm/pocket_docking_3.prm

>  <SCORE>
-24.7345

>  <SCORE.INTER>
-19.128

>  <SCORE.INTER.CONST>
1

>  <SCORE.INTER.POLAR>
0

>  <SCORE.INTER.ROT>
5

>  <SCORE.INTER.SOLV>
21.2293

>  <SCORE.INTER.VDW>
-26.7618

>  <SCORE.INTER.norm>
-0.869455

>  <SCORE.INTRA>
-5.60651

>  <SCORE.INTRA.DIHEDRAL>
-8.77652

>  <SCORE.INTRA.DIHEDRAL.0>
11.9251

>  <SCORE.INTRA.POLAR>
0

>  <SCORE.INTRA.POLAR.0>
0

>  <SCORE.INTRA.REPUL>
0

>  <SCORE.INTRA.REPUL.0>
0

>  <SCORE.INTRA.SOLV>
-0.0667042

>  <SCORE.INTRA.SOLV.lig_0>
-40.9823

>  <SCORE.INTRA.VDW>
-1.18489

>  <SCORE.INTRA.VDW.0>
-0.53506

>  <SCORE.INTRA.norm>
-0.254841

>  <SCORE.RESTR>
0

>  <SCORE.RESTR.CAVITY>
0

>  <SCORE.RESTR.norm>
0

>  <SCORE.SYSTEM>
0

>  <SCORE.SYSTEM.CONST>
0

>  <SCORE.SYSTEM.DIHEDRAL>
0

>  <SCORE.SYSTEM.SOLV>
0

>  <SCORE.SYSTEM.norm>
0

>  <SCORE.heavy>
22

>  <SCORE.norm>
-1.1243

>  <RMSD>
0.414

$$$$
lig.pdb
 OpenBabel11021811523D
libRbt.so/2013.1/901 2013/11/27
 22 23  0  0  0  0  0  0  0  0999 V2000
   57.5137  -18.4354    7.9976 O   0  0  0  0  0  0  0  0  0  0  0  0
   56.8573  -17.4260    8.1011 C   0  0  0  0  0  0  0  0  0  0  0  0
   55.6038  -17.3591    7.6890 N   0  0  0  0  0  0  0  0  0  0  0  0
   57.4611  -16.2077    8.6594 C   0  0  0  0  0  0  0  0  0  0  0  0
   58.7701  -16.1426    9.3132 C   0  0  0  0  0  0  0  0  0  0  0  0
   59.6002  -17.1882    9.5155 N   0  0  0  0  0  0  0  0  0  0  0  0
   57.0014  -14.9473    8.7083 N   0  0  0  0  0  0  0  0  0  0  0  0
   57.9430  -14.1674    9.3082 C   0  0  0  0  0  0  0  0  0  0  0  0
   59.0282  -14.8907    9.6745 N   0  0  0  0  0  0  0  0  0  0  0  0
   60.2411  -14.3587   10.3535 C   0  0  1  0  0  0  0  0  0  0  0  0
   60.9910  -13.4527    9.4010 C   0  0  1  0  0  0  0  0  0  0  0  0
   61.4772  -12.3299   10.2804 C   0  0  2  0  0  0  0  0  0  0  0  0
   62.7786  -12.6429   10.7928 O   0  0  0  0  0  0  0  0  0  0  0  0
   62.0707  -14.1532    8.7637 O   0  0  0  0  0  0  0  0  0  0  0  0
   59.8693  -13.5429   11.4616 O   0  0  0  0  0  0  0  0  0  0  0  0
   60.5053  -12.2878   11.4309 C   0  0  2  0  0  0  0  0  0  0  0  0
   59.3971  -11.2602   11.3288 C   0  0  0  0  0  0  0  0  0  0  0  0
   59.9096   -9.9475   11.2275 O   0  0  0  0  0  0  0  0  0  0  0  0
   58.8807   -8.7253   11.2105 P   0  0  0  0  0  0  0  0  0  0  0  0
   59.7310   -7.5001   10.9407 O   0  0  0  0  0  0  0  0  0  0  0  0
   58.2831   -8.7942   12.5921 O   0  0  0  0  0  0  0  0  0  0  0  0
   57.8974   -9.1137   10.1414 O   0  0  0  0  0  0  0  0  0  0  0  0
  2  1  2  0  0  0  0
  2  4  1  0  0  0  0
  3  2  1  0  0  0  0
  4  7  1  0  0  0  0
  4  5  2  0  0  0  0
  5  6  1  0  0  0  0
  5  9  1  0  0  0  0
  7  8  2  0  0  0  0
  8  9  1  0  0  0  0
 10  9  1  6  0  0  0
 10 15  1  0  0  0  0
 11 14  1  1  0  0  0
 11 12  1  0  0  0  0
 11 10  1  0  0  0  0
 12 13  1  1  0  0  0
 12 16  1  0  0  0  0
 16 17  1  6  0  0  0
 16 15  1  0  0  0  0
 18 19  1  0  0  0  0
 18 17  1  0  0  0  0
 19 21  1  0  0  0  0
 20 19  1  0  0  0  0
 22 19  2  0  0  0  0
M  END
>  <CHROM.1>
-10.02080015,112.57446464,-59.36717098,-173.89172698,-175.92565818,59.19733074
-13.02717083,10.06034001,1.76561918,0.16951207,-2.83498433

>  <Name>
lig.pdb

>  <RI>
0

>  <Rbt.Current_Directory>
/home/itssahil/PROJECTS/Mol_Feturizer/New_Systems/rnas/4znp

>  <Rbt.Executable>
rbdock ($Id: //depot/dev/client3/rdock/2013.1/src/exe/rbdock.cxx#4 $)

>  <Rbt.Library>
libRbt.so (2013.1, Build901 2013/11/27)

>  <Rbt.Parameter_File>
/export/apps/rDock/src/rDock_2013.1_src/data/scripts/dock_solv.prm

>  <Rbt.Receptor>
prm/pocket_docking_4.prm

>  <SCORE>
-24.6229

>  <SCORE.INTER>
-18.8583

>  <SCORE.INTER.CONST>
1

>  <SCORE.INTER.POLAR>
0

>  <SCORE.INTER.ROT>
5

>  <SCORE.INTER.SOLV>
20.9849

>  <SCORE.INTER.VDW>
-26.5005

>  <SCORE.INTER.norm>
-0.857193

>  <SCORE.INTRA>
-5.76467

>  <SCORE.INTRA.DIHEDRAL>
-9.0827

>  <SCORE.INTRA.DIHEDRAL.0>
11.9251

>  <SCORE.INTRA.POLAR>
0

>  <SCORE.INTRA.POLAR.0>
0

>  <SCORE.INTRA.REPUL>
0

>  <SCORE.INTRA.REPUL.0>
0

>  <SCORE.INTRA.SOLV>
-0.0603655

>  <SCORE.INTRA.SOLV.lig_0>
-40.9823

>  <SCORE.INTRA.VDW>
-1.19314

>  <SCORE.INTRA.VDW.0>
-0.53506

>  <SCORE.INTRA.norm>
-0.26203

>  <SCORE.RESTR>
0

>  <SCORE.RESTR.CAVITY>
0

>  <SCORE.RESTR.norm>
0

>  <SCORE.SYSTEM>
0

>  <SCORE.SYSTEM.CONST>
0

>  <SCORE.SYSTEM.DIHEDRAL>
0

>  <SCORE.SYSTEM.SOLV>
0

>  <SCORE.SYSTEM.norm>
0

>  <SCORE.heavy>
22

>  <SCORE.norm>
-1.11922

>  <RMSD>
0.586

$$$$
lig.pdb
 OpenBabel11021811523D
libRbt.so/2013.1/901 2013/11/27
 22 23  0  0  0  0  0  0  0  0999 V2000
   55.7015  -17.1797    7.8227 O   0  0  0  0  0  0  0  0  0  0  0  0
   56.8594  -17.2661    8.1576 C   0  0  0  0  0  0  0  0  0  0  0  0
   57.5251  -18.4056    8.0929 N   0  0  0  0  0  0  0  0  0  0  0  0
   57.5603  -16.0927    8.6980 C   0  0  0  0  0  0  0  0  0  0  0  0
   58.8977  -16.1142    9.2948 C   0  0  0  0  0  0  0  0  0  0  0  0
   59.6699  -17.2107    9.4531 N   0  0  0  0  0  0  0  0  0  0  0  0
   57.1815  -14.8071    8.7763 N   0  0  0  0  0  0  0  0  0  0  0  0
   58.1942  -14.0923    9.3405 C   0  0  0  0  0  0  0  0  0  0  0  0
   59.2475  -14.8842    9.6539 N   0  0  0  0  0  0  0  0  0  0  0  0
   60.5190  -14.4341   10.2834 C   0  0  1  0  0  0  0  0  0  0  0  0
   61.3044  -13.6068    9.2890 C   0  0  1  0  0  0  0  0  0  0  0  0
   61.9030  -12.5082   10.1286 C   0  0  2  0  0  0  0  0  0  0  0  0
   63.1927  -12.9104   10.6071 O   0  0  0  0  0  0  0  0  0  0  0  0
   62.3062  -14.4002    8.6337 O   0  0  0  0  0  0  0  0  0  0  0  0
   60.2466  -13.5713   11.3847 O   0  0  0  0  0  0  0  0  0  0  0  0
   60.9751  -12.3696   11.3074 C   0  0  2  0  0  0  0  0  0  0  0  0
   59.9457  -11.2620   11.2177 C   0  0  0  0  0  0  0  0  0  0  0  0
   60.5526   -9.9869   11.1747 O   0  0  0  0  0  0  0  0  0  0  0  0
   59.6134   -8.6954   11.1261 P   0  0  0  0  0  0  0  0  0  0  0  0
   60.5663   -7.5200   11.0395 O   0  0  0  0  0  0  0  0  0  0  0  0
   58.8543   -8.8058   12.4231 O   0  0  0  0  0  0  0  0  0  0  0  0
   58.7397   -8.9461    9.9283 O   0  0  0  0  0  0  0  0  0  0  0  0
  2  1  2  0  0  0  0
  2  4  1  0  0  0  0
  3  2  1  0  0  0  0
  4  7  1  0  0  0  0
  4  5  2  0  0  0  0
  5  6  1  0  0  0  0
  5  9  1  0  0  0  0
  7  8  2  0  0  0  0
  8  9  1  0  0  0  0
 10  9  1  6  0  0  0
 10 15  1  0  0  0  0
 11 14  1  1  0  0  0
 11 12  1  0  0  0  0
 11 10  1  0  0  0  0
 12 13  1  1  0  0  0
 12 16  1  0  0  0  0
 16 17  1  6  0  0  0
 16 15  1  0  0  0  0
 18 19  1  0  0  0  0
 18 17  1  0  0  0  0
 19 21  1  0  0  0  0
 20 19  1  0  0  0  0
 22 19  2  0  0  0  0
M  END
>  <CHROM.1>
171.66031627,110.58526451,-63.84486447,-178.11087549,-178.07505543,59.56973836
-13.02963261,10.00642167,1.84600915,0.15507707,-2.85677627

>  <Name>
lig.pdb

>  <RI>
0

>  <Rbt.Current_Directory>
/home/itssahil/PROJECTS/Mol_Feturizer/New_Systems/rnas/4znp

>  <Rbt.Executable>
rbdock ($Id: //depot/dev/client3/rdock/2013.1/src/exe/rbdock.cxx#4 $)

>  <Rbt.Library>
libRbt.so (2013.1, Build901 2013/11/27)

>  <Rbt.Parameter_File>
/export/apps/rDock/src/rDock_2013.1_src/data/scripts/dock_solv.prm

>  <Rbt.Receptor>
prm/pocket_docking_5.prm

>  <SCORE>
-24.4445

>  <SCORE.INTER>
-18.6966

>  <SCORE.INTER.CONST>
1

>  <SCORE.INTER.POLAR>
0

>  <SCORE.INTER.ROT>
5

>  <SCORE.INTER.SOLV>
20.5836

>  <SCORE.INTER.VDW>
-26.2589

>  <SCORE.INTER.norm>
-0.849847

>  <SCORE.INTRA>
-5.74785

>  <SCORE.INTRA.DIHEDRAL>
-9.25447

>  <SCORE.INTRA.DIHEDRAL.0>
11.9251

>  <SCORE.INTRA.POLAR>
0

>  <SCORE.INTRA.POLAR.0>
0

>  <SCORE.INTRA.REPUL>
0

>  <SCORE.INTRA.REPUL.0>
0

>  <SCORE.INTRA.SOLV>
0.178831

>  <SCORE.INTRA.SOLV.lig_0>
-40.9823

>  <SCORE.INTRA.VDW>
-1.21003

>  <SCORE.INTRA.VDW.0>
-0.53506

>  <SCORE.INTRA.norm>
-0.261266

>  <SCORE.RESTR>
0

>  <SCORE.RESTR.CAVITY>
0

>  <SCORE.RESTR.norm>
0

>  <SCORE.SYSTEM>
0

>  <SCORE.SYSTEM.CONST>
0

>  <SCORE.SYSTEM.DIHEDRAL>
0

>  <SCORE.SYSTEM.SOLV>
0

>  <SCORE.SYSTEM.norm>
0

>  <SCORE.heavy>
22

>  <SCORE.norm>
-1.11111

>  <RMSD>
0.749

$$$$
lig.pdb
 OpenBabel11021811523D
libRbt.so/2013.1/901 2013/11/27
 22 23  0  0  0  0  0  0  0  0999 V2000
   55.6995  -17.2102    7.8602 O   0  0  0  0  0  0  0  0  0  0  0  0
   56.8720  -17.2756    8.1453 C   0  0  0  0  0  0  0  0  0  0  0  0
   57.5652  -18.3924    8.0115 N   0  0  0  0  0  0  0  0  0  0  0  0
   57.5623  -16.1030    8.7011 C   0  0  0  0  0  0  0  0  0  0  0  0
   58.9095  -16.1155    9.2757 C   0  0  0  0  0  0  0  0  0  0  0  0
   59.7022  -17.2020    9.3964 N   0  0  0  0  0  0  0  0  0  0  0  0
   57.1636  -14.8261    8.8148 N   0  0  0  0  0  0  0  0  0  0  0  0
   58.1735  -14.1072    9.3788 C   0  0  0  0  0  0  0  0  0  0  0  0
   59.2448  -14.8881    9.6571 N   0  0  0  0  0  0  0  0  0  0  0  0
   60.5188  -14.4310   10.2762 C   0  0  1  0  0  0  0  0  0  0  0  0
   61.2886  -13.5941    9.2775 C   0  0  1  0  0  0  0  0  0  0  0  0
   61.8871  -12.4942   10.1156 C   0  0  2  0  0  0  0  0  0  0  0  0
   63.1842  -12.8887   10.5802 O   0  0  0  0  0  0  0  0  0  0  0  0
   62.2899  -14.3776    8.6097 O   0  0  0  0  0  0  0  0  0  0  0  0
   60.2506  -13.5743   11.3833 O   0  0  0  0  0  0  0  0  0  0  0  0
   60.9694  -12.3670   11.3037 C   0  0  2  0  0  0  0  0  0  0  0  0
   59.9311  -11.2667   11.2280 C   0  0  0  0  0  0  0  0  0  0  0  0
   60.5280   -9.9867   11.1904 O   0  0  0  0  0  0  0  0  0  0  0  0
   59.5796   -8.7011   11.2095 P   0  0  0  0  0  0  0  0  0  0  0  0
   60.5246   -7.5166   11.2403 O   0  0  0  0  0  0  0  0  0  0  0  0
   58.7827   -8.9131   12.4707 O   0  0  0  0  0  0  0  0  0  0  0  0
   58.7447   -8.8668    9.9701 O   0  0  0  0  0  0  0  0  0  0  0  0
  2  1  2  0  0  0  0
  2  4  1  0  0  0  0
  3  2  1  0  0  0  0
  4  7  1  0  0  0  0
  4  5  2  0  0  0  0
  5  6  1  0  0  0  0
  5  9  1  0  0  0  0
  7  8  2  0  0  0  0
  8  9  1  0  0  0  0
 10  9  1  6  0  0  0
 10 15  1  0  0  0  0
 11 14  1  1  0  0  0
 11 12  1  0  0  0  0
 11 10  1  0  0  0  0
 12 13  1  1  0  0  0
 12 16  1  0  0  0  0
 16 17  1  6  0  0  0
 16 15  1  0  0  0  0
 18 19  1  0  0  0  0
 18 17  1  0  0  0  0
 19 21  1  0  0  0  0
 20 19  1  0  0  0  0
 22 19  2  0  0  0  0
M  END
>  <CHROM.1>
169.93626456,109.31597626,-64.11480253,176.86628785,-175.91128187,59.55926774
-13.03115546,10.02379849,1.83877001,0.13797752,-2.84145209

>  <Name>
lig.pdb

>  <RI>
0

>  <Rbt.Current_Directory>
/home/itssahil/PROJECTS/Mol_Feturizer/New_Systems/rnas/4znp

>  <Rbt.Executable>
rbdock ($Id: //depot/dev/client3/rdock/2013.1/src/exe/rbdock.cxx#4 $)

>  <Rbt.Library>
libRbt.so (2013.1, Build901 2013/11/27)

>  <Rbt.Parameter_File>
/export/apps/rDock/src/rDock_2013.1_src/data/scripts/dock_solv.prm

>  <Rbt.Receptor>
prm/pocket_docking_3.prm

>  <SCORE>
-24.505

>  <SCORE.INTER>
-18.8278

>  <SCORE.INTER.CONST>
1

>  <SCORE.INTER.POLAR>
0

>  <SCORE.INTER.ROT>
5

>  <SCORE.INTER.SOLV>
20.4163

>  <SCORE.INTER.VDW>
-26.2906

>  <SCORE.INTER.norm>
-0.855808

>  <SCORE.INTRA>
-5.67721

>  <SCORE.INTRA.DIHEDRAL>
-9.0912

>  <SCORE.INTRA.DIHEDRAL.0>
11.9251

>  <SCORE.INTRA.POLAR>
0

>  <SCORE.INTRA.POLAR.0>
0

>  <SCORE.INTRA.REPUL>
0

>  <SCORE.INTRA.REPUL.0>
0

>  <SCORE.INTRA.SOLV>
0.157876

>  <SCORE.INTRA.SOLV.lig_0>
-40.9823

>  <SCORE.INTRA.VDW>
-1.21054

>  <SCORE.INTRA.VDW.0>
-0.53506

>  <SCORE.INTRA.norm>
-0.258055

>  <SCORE.RESTR>
0

>  <SCORE.RESTR.CAVITY>
0

>  <SCORE.RESTR.norm>
0

>  <SCORE.SYSTEM>
0

>  <SCORE.SYSTEM.CONST>
0

>  <SCORE.SYSTEM.DIHEDRAL>
0

>  <SCORE.SYSTEM.SOLV>
0

>  <SCORE.SYSTEM.norm>
0

>  <SCORE.heavy>
22

>  <SCORE.norm>
-1.11386

>  <RMSD>
0.753

$$$$
lig.pdb
 OpenBabel11021811523D
libRbt.so/2013.1/901 2013/11/27
 22 23  0  0  0  0  0  0  0  0999 V2000
   55.6695  -17.0901    7.9098 O   0  0  0  0  0  0  0  0  0  0  0  0
   56.8419  -17.1707    8.1920 C   0  0  0  0  0  0  0  0  0  0  0  0
   57.5149  -18.3018    8.0766 N   0  0  0  0  0  0  0  0  0  0  0  0
   57.5547  -16.0003    8.7232 C   0  0  0  0  0  0  0  0  0  0  0  0
   58.9064  -16.0244    9.2866 C   0  0  0  0  0  0  0  0  0  0  0  0
   59.6834  -17.1209    9.4180 N   0  0  0  0  0  0  0  0  0  0  0  0
   57.1766  -14.7157    8.8199 N   0  0  0  0  0  0  0  0  0  0  0  0
   58.2021  -14.0036    9.3639 C   0  0  0  0  0  0  0  0  0  0  0  0
   59.2637  -14.7965    9.6456 N   0  0  0  0  0  0  0  0  0  0  0  0
   60.5498  -14.3493   10.2467 C   0  0  1  0  0  0  0  0  0  0  0  0
   61.2985  -13.4939    9.2477 C   0  0  1  0  0  0  0  0  0  0  0  0
   61.9134  -12.4086   10.0930 C   0  0  2  0  0  0  0  0  0  0  0  0
   63.2199  -12.8101   10.5239 O   0  0  0  0  0  0  0  0  0  0  0  0
   62.2865  -14.2644    8.5457 O   0  0  0  0  0  0  0  0  0  0  0  0
   60.3037  -13.5128   11.3743 O   0  0  0  0  0  0  0  0  0  0  0  0
   61.0200  -12.3035   11.3017 C   0  0  2  0  0  0  0  0  0  0  0  0
   59.9797  -11.2031   11.2668 C   0  0  0  0  0  0  0  0  0  0  0  0
   60.5748   -9.9217   11.2565 O   0  0  0  0  0  0  0  0  0  0  0  0
   59.6239   -8.6380   11.2761 P   0  0  0  0  0  0  0  0  0  0  0  0
   60.5665   -7.4515   11.2954 O   0  0  0  0  0  0  0  0  0  0  0  0
   58.8357   -8.8461   12.5435 O   0  0  0  0  0  0  0  0  0  0  0  0
   58.7812   -8.8110   10.0430 O   0  0  0  0  0  0  0  0  0  0  0  0
  2  1  2  0  0  0  0
  2  4  1  0  0  0  0
  3  2  1  0  0  0  0
  4  7  1  0  0  0  0
  4  5  2  0  0  0  0
  5  6  1  0  0  0  0
  5  9  1  0  0  0  0
  7  8  2  0  0  0  0
  8  9  1  0  0  0  0
 10  9  1  6  0  0  0
 10 15  1  0  0  0  0
 11 14  1  1  0  0  0
 11 12  1  0  0  0  0
 11 10  1  0  0  0  0
 12 13  1  1  0  0  0
 12 16  1  0  0  0  0
 16 17  1  6  0  0  0
 16 15  1  0  0  0  0
 18 19  1  0  0  0  0
 18 17  1  0  0  0  0
 19 21  1  0  0  0  0
 20 19  1  0  0  0  0
 22 19  2  0  0  0  0
M  END
>  <CHROM.1>
170.27821828,111.56541253,-64.83878476,178.57301768,-177.72050423,59.57951369
-12.94832129,10.04319238,1.84696276,0.11867684,-2.83249736

>  <Name>
lig.pdb

>  <RI>
0

>  <Rbt.Current_Directory>
/home/itssahil/PROJECTS/Mol_Feturizer/New_Systems/rnas/4znp

>  <Rbt.Executable>
rbdock ($Id: //depot/dev/client3/rdock/2013.1/src/exe/rbdock.cxx#4 $)

>  <Rbt.Library>
libRbt.so (2013.1, Build901 2013/11/27)

>  <Rbt.Parameter_File>
/export/apps/rDock/src/rDock_2013.1_src/data/scripts/dock_solv.prm

>  <Rbt.Receptor>
prm/pocket_docking_5.prm

>  <SCORE>
-24.4678

>  <SCORE.INTER>
-18.7578

>  <SCORE.INTER.CONST>
1

>  <SCORE.INTER.POLAR>
0

>  <SCORE.INTER.ROT>
5

>  <SCORE.INTER.SOLV>
19.9844

>  <SCORE.INTER.VDW>
-26.1

>  <SCORE.INTER.norm>
-0.852628

>  <SCORE.INTRA>
-5.70994

>  <SCORE.INTRA.DIHEDRAL>
-9.14937

>  <SCORE.INTRA.DIHEDRAL.0>
11.9251

>  <SCORE.INTRA.POLAR>
0

>  <SCORE.INTRA.POLAR.0>
0

>  <SCORE.INTRA.REPUL>
0

>  <SCORE.INTRA.REPUL.0>
0

>  <SCORE.INTRA.SOLV>
0.149829

>  <SCORE.INTRA.SOLV.lig_0>
-40.9823

>  <SCORE.INTRA.VDW>
-1.21017

>  <SCORE.INTRA.VDW.0>
-0.53506

>  <SCORE.INTRA.norm>
-0.259543

>  <SCORE.RESTR>
0

>  <SCORE.RESTR.CAVITY>
0

>  <SCORE.RESTR.norm>
0

>  <SCORE.SYSTEM>
0

>  <SCORE.SYSTEM.CONST>
0

>  <SCORE.SYSTEM.DIHEDRAL>
0

>  <SCORE.SYSTEM.SOLV>
0

>  <SCORE.SYSTEM.norm>
0

>  <SCORE.heavy>
22

>  <SCORE.norm>
-1.11217

>  <RMSD>
0.756

$$$$
lig.pdb
 OpenBabel11021811523D
libRbt.so/2013.1/901 2013/11/27
 22 23  0  0  0  0  0  0  0  0999 V2000
   55.6110  -17.1056    8.0106 O   0  0  0  0  0  0  0  0  0  0  0  0
   56.7964  -17.1778    8.2342 C   0  0  0  0  0  0  0  0  0  0  0  0
   57.4730  -18.3015    8.0753 N   0  0  0  0  0  0  0  0  0  0  0  0
   57.5240  -16.0057    8.7412 C   0  0  0  0  0  0  0  0  0  0  0  0
   58.8729  -16.0361    9.3111 C   0  0  0  0  0  0  0  0  0  0  0  0
   59.6333  -17.1403    9.4716 N   0  0  0  0  0  0  0  0  0  0  0  0
   57.1642  -14.7139    8.8061 N   0  0  0  0  0  0  0  0  0  0  0  0
   58.1977  -14.0041    9.3379 C   0  0  0  0  0  0  0  0  0  0  0  0
   59.2465  -14.8054    9.6429 N   0  0  0  0  0  0  0  0  0  0  0  0
   60.5364  -14.3628   10.2391 C   0  0  1  0  0  0  0  0  0  0  0  0
   61.2672  -13.4791    9.2516 C   0  0  1  0  0  0  0  0  0  0  0  0
   61.8844  -12.4092   10.1146 C   0  0  2  0  0  0  0  0  0  0  0  0
   63.1988  -12.8110   10.5208 O   0  0  0  0  0  0  0  0  0  0  0  0
   62.2522  -14.2259    8.5204 O   0  0  0  0  0  0  0  0  0  0  0  0
   60.2978  -13.5545   11.3886 O   0  0  0  0  0  0  0  0  0  0  0  0
   61.0047  -12.3386   11.3357 C   0  0  2  0  0  0  0  0  0  0  0  0
   59.9564  -11.2453   11.3386 C   0  0  0  0  0  0  0  0  0  0  0  0
   60.5421   -9.9600   11.3676 O   0  0  0  0  0  0  0  0  0  0  0  0
   59.5820   -8.6847   11.4358 P   0  0  0  0  0  0  0  0  0  0  0  0
   60.5162   -7.4923   11.4848 O   0  0  0  0  0  0  0  0  0  0  0  0
   58.8063   -8.9387   12.7025 O   0  0  0  0  0  0  0  0  0  0  0  0
   58.7301   -8.8250   10.2049 O   0  0  0  0  0  0  0  0  0  0  0  0
  2  1  2  0  0  0  0
  2  4  1  0  0  0  0
  3  2  1  0  0  0  0
  4  7  1  0  0  0  0
  4  5  2  0  0  0  0
  5  6  1  0  0  0  0
  5  9  1  0  0  0  0
  7  8  2  0  0  0  0
  8  9  1  0  0  0  0
 10  9  1  6  0  0  0
 10 15  1  0  0  0  0
 11 14  1  1  0  0  0
 11 12  1  0  0  0  0
 11 10  1  0  0  0  0
 12 13  1  1  0  0  0
 12 16  1  0  0  0  0
 16 17  1  6  0  0  0
 16 15  1  0  0  0  0
 18 19  1  0  0  0  0
 18 17  1  0  0  0  0
 19 21  1  0  0  0  0
 20 19  1  0  0  0  0
 22 19  2  0  0  0  0
M  END
>  <CHROM.1>
166.44398000,114.65190030,-65.56108851,178.74650233,-177.50621188,59.54802534
-12.96782445,10.10115815,1.84654966,0.09646770,-2.81168922

>  <Name>
lig.pdb

>  <RI>
0

>  <Rbt.Current_Directory>
/home/itssahil/PROJECTS/Mol_Feturizer/New_Systems/rnas/4znp

>  <Rbt.Executable>
rbdock ($Id: //depot/dev/client3/rdock/2013.1/src/exe/rbdock.cxx#4 $)

>  <Rbt.Library>
libRbt.so (2013.1, Build901 2013/11/27)

>  <Rbt.Parameter_File>
/export/apps/rDock/src/rDock_2013.1_src/data/scripts/dock_solv.prm

>  <Rbt.Receptor>
prm/pocket_docking_2.prm

>  <SCORE>
-24.3789

>  <SCORE.INTER>
-18.8105

>  <SCORE.INTER.CONST>
1

>  <SCORE.INTER.POLAR>
0

>  <SCORE.INTER.ROT>
5

>  <SCORE.INTER.SOLV>
19.9541

>  <SCORE.INTER.VDW>
-26.125

>  <SCORE.INTER.norm>
-0.855023

>  <SCORE.INTRA>
-5.56844

>  <SCORE.INTRA.DIHEDRAL>
-8.83586

>  <SCORE.INTRA.DIHEDRAL.0>
11.9251

>  <SCORE.INTRA.POLAR>
0

>  <SCORE.INTRA.POLAR.0>
0

>  <SCORE.INTRA.REPUL>
0

>  <SCORE.INTRA.REPUL.0>
0

>  <SCORE.INTRA.SOLV>
0.111631

>  <SCORE.INTRA.SOLV.lig_0>
-40.9823

>  <SCORE.INTRA.VDW>
-1.20632

>  <SCORE.INTRA.VDW.0>
-0.53506

>  <SCORE.INTRA.norm>
-0.253111

>  <SCORE.RESTR>
0

>  <SCORE.RESTR.CAVITY>
0

>  <SCORE.RESTR.norm>
0

>  <SCORE.SYSTEM>
0

>  <SCORE.SYSTEM.CONST>
0

>  <SCORE.SYSTEM.DIHEDRAL>
0

>  <SCORE.SYSTEM.SOLV>
0

>  <SCORE.SYSTEM.norm>
0

>  <SCORE.heavy>
22

>  <SCORE.norm>
-1.10813

>  <RMSD>
0.782

$$$$
lig.pdb
 OpenBabel11021811523D
libRbt.so/2013.1/901 2013/11/27
 22 23  0  0  0  0  0  0  0  0999 V2000
   55.8534  -17.0559    7.9968 O   0  0  0  0  0  0  0  0  0  0  0  0
   57.0266  -17.1089    8.2822 C   0  0  0  0  0  0  0  0  0  0  0  0
   57.7233  -18.2269    8.1806 N   0  0  0  0  0  0  0  0  0  0  0  0
   57.7135  -15.9181    8.8022 C   0  0  0  0  0  0  0  0  0  0  0  0
   59.0748  -15.9025    9.3426 C   0  0  0  0  0  0  0  0  0  0  0  0
   59.8858  -16.9758    9.4601 N   0  0  0  0  0  0  0  0  0  0  0  0
   57.2995  -14.6452    8.9062 N   0  0  0  0  0  0  0  0  0  0  0  0
   58.3127  -13.9034    9.4333 C   0  0  0  0  0  0  0  0  0  0  0  0
   59.4018  -14.6647    9.6964 N   0  0  0  0  0  0  0  0  0  0  0  0
   60.6842  -14.1800   10.2760 C   0  0  1  0  0  0  0  0  0  0  0  0
   61.3904  -13.3028    9.2651 C   0  0  1  0  0  0  0  0  0  0  0  0
   61.9873  -12.2001   10.1006 C   0  0  2  0  0  0  0  0  0  0  0  0
   63.3122  -12.5630   10.5091 O   0  0  0  0  0  0  0  0  0  0  0  0
   62.3886  -14.0437    8.5459 O   0  0  0  0  0  0  0  0  0  0  0  0
   60.4327  -13.3514   11.4081 O   0  0  0  0  0  0  0  0  0  0  0  0
   61.1118  -12.1216   11.3243 C   0  0  2  0  0  0  0  0  0  0  0  0
   60.0392  -11.0522   11.3078 C   0  0  0  0  0  0  0  0  0  0  0  0
   60.5958   -9.7545   11.2618 O   0  0  0  0  0  0  0  0  0  0  0  0
   59.6088   -8.4986   11.2947 P   0  0  0  0  0  0  0  0  0  0  0  0
   60.5173   -7.2857   11.3140 O   0  0  0  0  0  0  0  0  0  0  0  0
   58.8357   -8.7357   12.5663 O   0  0  0  0  0  0  0  0  0  0  0  0
   58.7628   -8.6892   10.0664 O   0  0  0  0  0  0  0  0  0  0  0  0
  2  1  2  0  0  0  0
  2  4  1  0  0  0  0
  3  2  1  0  0  0  0
  4  7  1  0  0  0  0
  4  5  2  0  0  0  0
  5  6  1  0  0  0  0
  5  9  1  0  0  0  0
  7  8  2  0  0  0  0
  8  9  1  0  0  0  0
 10  9  1  6  0  0  0
 10 15  1  0  0  0  0
 11 14  1  1  0  0  0
 11 12  1  0  0  0  0
 11 10  1  0  0  0  0
 12 13  1  1  0  0  0
 12 16  1  0  0  0  0
 16 17  1  6  0  0  0
 16 15  1  0  0  0  0
 18 19  1  0  0  0  0
 18 17  1  0  0  0  0
 19 21  1  0  0  0  0
 20 19  1  0  0  0  0
 22 19  2  0  0  0  0
M  END
>  <CHROM.1>
171.63872097,111.56533107,-63.67939772,176.79257381,-177.71125990,59.66989280
-12.80815329,10.08118913,1.82477156,0.09794760,-2.83391845

>  <Name>
lig.pdb

>  <RI>
0

>  <Rbt.Current_Directory>
/home/itssahil/PROJECTS/Mol_Feturizer/New_Systems/rnas/4znp

>  <Rbt.Executable>
rbdock ($Id: //depot/dev/client3/rdock/2013.1/src/exe/rbdock.cxx#4 $)

>  <Rbt.Library>
libRbt.so (2013.1, Build901 2013/11/27)

>  <Rbt.Parameter_File>
/export/apps/rDock/src/rDock_2013.1_src/data/scripts/dock_solv.prm

>  <Rbt.Receptor>
prm/pocket_docking_4.prm

>  <SCORE>
-24.1309

>  <SCORE.INTER>
-18.384

>  <SCORE.INTER.CONST>
1

>  <SCORE.INTER.POLAR>
0

>  <SCORE.INTER.ROT>
5

>  <SCORE.INTER.SOLV>
19.1398

>  <SCORE.INTER.VDW>
-25.5693

>  <SCORE.INTER.norm>
-0.835636

>  <SCORE.INTRA>
-5.74693

>  <SCORE.INTRA.DIHEDRAL>
-9.25124

>  <SCORE.INTRA.DIHEDRAL.0>
11.9251

>  <SCORE.INTRA.POLAR>
0

>  <SCORE.INTRA.POLAR.0>
0

>  <SCORE.INTRA.REPUL>
0

>  <SCORE.INTRA.REPUL.0>
0

>  <SCORE.INTRA.SOLV>
0.15037

>  <SCORE.INTRA.SOLV.lig_0>
-40.9823

>  <SCORE.INTRA.VDW>
-1.1965

>  <SCORE.INTRA.VDW.0>
-0.53506

>  <SCORE.INTRA.norm>
-0.261224

>  <SCORE.RESTR>
0

>  <SCORE.RESTR.CAVITY>
0

>  <SCORE.RESTR.norm>
0

>  <SCORE.SYSTEM>
0

>  <SCORE.SYSTEM.CONST>
0

>  <SCORE.SYSTEM.DIHEDRAL>
0

>  <SCORE.SYSTEM.SOLV>
0

>  <SCORE.SYSTEM.norm>
0

>  <SCORE.heavy>
22

>  <SCORE.norm>
-1.09686

>  <RMSD>
0.797

$$$$
lig.pdb
 OpenBabel11021811523D
libRbt.so/2013.1/901 2013/11/27
 22 23  0  0  0  0  0  0  0  0999 V2000
   57.6692  -18.2375    8.1477 O   0  0  0  0  0  0  0  0  0  0  0  0
   57.0350  -17.2134    8.2445 C   0  0  0  0  0  0  0  0  0  0  0  0
   55.7824  -17.1227    7.8340 N   0  0  0  0  0  0  0  0  0  0  0  0
   57.6659  -16.0041    8.7920 C   0  0  0  0  0  0  0  0  0  0  0  0
   58.9944  -15.9547    9.4069 C   0  0  0  0  0  0  0  0  0  0  0  0
   59.8208  -17.0089    9.5777 N   0  0  0  0  0  0  0  0  0  0  0  0
   57.2192  -14.7401    8.8626 N   0  0  0  0  0  0  0  0  0  0  0  0
   58.1852  -13.9724    9.4390 C   0  0  0  0  0  0  0  0  0  0  0  0
   59.2743  -14.7075    9.7682 N   0  0  0  0  0  0  0  0  0  0  0  0
   60.5117  -14.1905   10.4139 C   0  0  1  0  0  0  0  0  0  0  0  0
   61.4992  -13.7772    9.3443 C   0  0  1  0  0  0  0  0  0  0  0  0
   62.1283  -12.5258    9.8999 C   0  0  2  0  0  0  0  0  0  0  0  0
   63.2971  -12.8647   10.6570 O   0  0  0  0  0  0  0  0  0  0  0  0
   62.4646  -14.8130    9.1043 O   0  0  0  0  0  0  0  0  0  0  0  0
   60.2235  -13.0109   11.1603 O   0  0  0  0  0  0  0  0  0  0  0  0
   61.0968  -11.9552   10.8382 C   0  0  2  0  0  0  0  0  0  0  0  0
   60.2267  -10.8492   10.2779 C   0  0  0  0  0  0  0  0  0  0  0  0
   59.4922  -10.1971   11.2935 O   0  0  0  0  0  0  0  0  0  0  0  0
   58.5854   -8.9435   10.8950 P   0  0  0  0  0  0  0  0  0  0  0  0
   59.5182   -8.0020   10.1600 O   0  0  0  0  0  0  0  0  0  0  0  0
   58.1141   -8.4525   12.2394 O   0  0  0  0  0  0  0  0  0  0  0  0
   57.4754   -9.5597   10.0893 O   0  0  0  0  0  0  0  0  0  0  0  0
  2  1  2  0  0  0  0
  2  4  1  0  0  0  0
  3  2  1  0  0  0  0
  4  7  1  0  0  0  0
  4  5  2  0  0  0  0
  5  6  1  0  0  0  0
  5  9  1  0  0  0  0
  7  8  2  0  0  0  0
  8  9  1  0  0  0  0
 10  9  1  6  0  0  0
 10 15  1  0  0  0  0
 11 14  1  1  0  0  0
 11 12  1  0  0  0  0
 11 10  1  0  0  0  0
 12 13  1  1  0  0  0
 12 16  1  0  0  0  0
 16 17  1  6  0  0  0
 16 15  1  0  0  0  0
 18 19  1  0  0  0  0
 18 17  1  0  0  0  0
 19 21  1  0  0  0  0
 20 19  1  0  0  0  0
 22 19  2  0  0  0  0
M  END
>  <CHROM.1>
-8.07936636,89.75908414,-167.84651478,-53.41559154,176.37870497,59.36256148
-13.01591354,9.93412218,1.70699486,0.14342492,-2.86624032

>  <Name>
lig.pdb

>  <RI>
0

>  <Rbt.Current_Directory>
/home/itssahil/PROJECTS/Mol_Feturizer/New_Systems/rnas/4znp

>  <Rbt.Executable>
rbdock ($Id: //depot/dev/client3/rdock/2013.1/src/exe/rbdock.cxx#4 $)

>  <Rbt.Library>
libRbt.so (2013.1, Build901 2013/11/27)

>  <Rbt.Parameter_File>
/export/apps/rDock/src/rDock_2013.1_src/data/scripts/dock_solv.prm

>  <Rbt.Receptor>
prm/pocket_docking_2.prm

>  <SCORE>
-25.0874

>  <SCORE.INTER>
-19.2463

>  <SCORE.INTER.CONST>
1

>  <SCORE.INTER.POLAR>
0

>  <SCORE.INTER.ROT>
5

>  <SCORE.INTER.SOLV>
21.2058

>  <SCORE.INTER.VDW>
-26.8328

>  <SCORE.INTER.norm>
-0.874831

>  <SCORE.INTRA>
-5.84108

>  <SCORE.INTRA.DIHEDRAL>
-8.71191

>  <SCORE.INTRA.DIHEDRAL.0>
11.9251

>  <SCORE.INTRA.POLAR>
0

>  <SCORE.INTRA.POLAR.0>
0

>  <SCORE.INTRA.REPUL>
0

>  <SCORE.INTRA.REPUL.0>
0

>  <SCORE.INTRA.SOLV>
0.0546408

>  <SCORE.INTRA.SOLV.lig_0>
-40.9823

>  <SCORE.INTRA.VDW>
-1.51245

>  <SCORE.INTRA.VDW.0>
-0.53506

>  <SCORE.INTRA.norm>
-0.265504

>  <SCORE.RESTR>
0

>  <SCORE.RESTR.CAVITY>
0

>  <SCORE.RESTR.norm>
0

>  <SCORE.SYSTEM>
0

>  <SCORE.SYSTEM.CONST>
0

>  <SCORE.SYSTEM.DIHEDRAL>
0

>  <SCORE.SYSTEM.SOLV>
0

>  <SCORE.SYSTEM.norm>
0

>  <SCORE.heavy>
22

>  <SCORE.norm>
-1.14033

>  <RMSD>
0.799

$$$$
lig.pdb
 OpenBabel11021811523D
libRbt.so/2013.1/901 2013/11/27
 22 23  0  0  0  0  0  0  0  0999 V2000
   57.6140  -18.2548    8.1478 O   0  0  0  0  0  0  0  0  0  0  0  0
   57.0034  -17.2151    8.2292 C   0  0  0  0  0  0  0  0  0  0  0  0
   55.7580  -17.0980    7.8037 N   0  0  0  0  0  0  0  0  0  0  0  0
   57.6568  -16.0167    8.7743 C   0  0  0  0  0  0  0  0  0  0  0  0
   58.9815  -15.9929    9.3988 C   0  0  0  0  0  0  0  0  0  0  0  0
   59.7831  -17.0640    9.5821 N   0  0  0  0  0  0  0  0  0  0  0  0
   57.2377  -14.7427    8.8341 N   0  0  0  0  0  0  0  0  0  0  0  0
   58.2161  -13.9930    9.4131 C   0  0  0  0  0  0  0  0  0  0  0  0
   59.2862  -14.7501    9.7548 N   0  0  0  0  0  0  0  0  0  0  0  0
   60.5299  -14.2566   10.4068 C   0  0  1  0  0  0  0  0  0  0  0  0
   61.5000  -13.7877    9.3440 C   0  0  1  0  0  0  0  0  0  0  0  0
   62.1303  -12.5601    9.9489 C   0  0  2  0  0  0  0  0  0  0  0  0
   63.3115  -12.9271   10.6729 O   0  0  0  0  0  0  0  0  0  0  0  0
   62.4673  -14.8054    9.0422 O   0  0  0  0  0  0  0  0  0  0  0  0
   60.2463  -13.1149   11.2116 O   0  0  0  0  0  0  0  0  0  0  0  0
   61.1094  -12.0402   10.9273 C   0  0  2  0  0  0  0  0  0  0  0  0
   60.2255  -10.9143   10.4317 C   0  0  0  0  0  0  0  0  0  0  0  0
   59.4550  -10.3565   11.4763 O   0  0  0  0  0  0  0  0  0  0  0  0
   58.5529   -9.0763   11.1601 P   0  0  0  0  0  0  0  0  0  0  0  0
   59.5216   -8.0313   10.6440 O   0  0  0  0  0  0  0  0  0  0  0  0
   57.9476   -8.7741   12.5066 O   0  0  0  0  0  0  0  0  0  0  0  0
   57.5387   -9.5992   10.1809 O   0  0  0  0  0  0  0  0  0  0  0  0
  2  1  2  0  0  0  0
  2  4  1  0  0  0  0
  3  2  1  0  0  0  0
  4  7  1  0  0  0  0
  4  5  2  0  0  0  0
  5  6  1  0  0  0  0
  5  9  1  0  0  0  0
  7  8  2  0  0  0  0
  8  9  1  0  0  0  0
 10  9  1  6  0  0  0
 10 15  1  0  0  0  0
 11 14  1  1  0  0  0
 11 12  1  0  0  0  0
 11 10  1  0  0  0  0
 12 13  1  1  0  0  0
 12 16  1  0  0  0  0
 16 17  1  6  0  0  0
 16 15  1  0  0  0  0
 18 19  1  0  0  0  0
 18 17  1  0  0  0  0
 19 21  1  0  0  0  0
 20 19  1  0  0  0  0
 22 19  2  0  0  0  0
M  END
>  <CHROM.1>
-7.80560011,93.39625625,-170.63244422,-57.80938628,175.02204330,59.35133321
-13.07996892,10.01525421,1.70810685,0.12303300,-2.82699793

>  <Name>
lig.pdb

>  <RI>
0

>  <Rbt.Current_Directory>
/home/itssahil/PROJECTS/Mol_Feturizer/New_Systems/rnas/4znp

>  <Rbt.Executable>
rbdock ($Id: //depot/dev/client3/rdock/2013.1/src/exe/rbdock.cxx#4 $)

>  <Rbt.Library>
libRbt.so (2013.1, Build901 2013/11/27)

>  <Rbt.Parameter_File>
/export/apps/rDock/src/rDock_2013.1_src/data/scripts/dock_solv.prm

>  <Rbt.Receptor>
prm/pocket_docking_2.prm

>  <SCORE>
-25.1556

>  <SCORE.INTER>
-19.1631

>  <SCORE.INTER.CONST>
1

>  <SCORE.INTER.POLAR>
0

>  <SCORE.INTER.ROT>
5

>  <SCORE.INTER.SOLV>
21.2073

>  <SCORE.INTER.VDW>
-26.7778

>  <SCORE.INTER.norm>
-0.871049

>  <SCORE.INTRA>
-5.99256

>  <SCORE.INTRA.DIHEDRAL>
-8.94431

>  <SCORE.INTRA.DIHEDRAL.0>
11.9251

>  <SCORE.INTRA.POLAR>
0

>  <SCORE.INTRA.POLAR.0>
0

>  <SCORE.INTRA.REPUL>
0

>  <SCORE.INTRA.REPUL.0>
0

>  <SCORE.INTRA.SOLV>
0.032257

>  <SCORE.INTRA.SOLV.lig_0>
-40.9823

>  <SCORE.INTRA.VDW>
-1.53653

>  <SCORE.INTRA.VDW.0>
-0.53506

>  <SCORE.INTRA.norm>
-0.272389

>  <SCORE.RESTR>
0

>  <SCORE.RESTR.CAVITY>
0

>  <SCORE.RESTR.norm>
0

>  <SCORE.SYSTEM>
0

>  <SCORE.SYSTEM.CONST>
0

>  <SCORE.SYSTEM.DIHEDRAL>
0

>  <SCORE.SYSTEM.SOLV>
0

>  <SCORE.SYSTEM.norm>
0

>  <SCORE.heavy>
22

>  <SCORE.norm>
-1.14344

>  <RMSD>
0.806

$$$$
lig.pdb
 OpenBabel11021811523D
libRbt.so/2013.1/901 2013/11/27
 22 23  0  0  0  0  0  0  0  0999 V2000
   57.5458  -18.3525    8.0238 O   0  0  0  0  0  0  0  0  0  0  0  0
   56.9365  -17.3194    8.1718 C   0  0  0  0  0  0  0  0  0  0  0  0
   55.6681  -17.1969    7.8226 N   0  0  0  0  0  0  0  0  0  0  0  0
   57.6153  -16.1342    8.7148 C   0  0  0  0  0  0  0  0  0  0  0  0
   58.9563  -16.1303    9.3037 C   0  0  0  0  0  0  0  0  0  0  0  0
   59.7527  -17.2108    9.4514 N   0  0  0  0  0  0  0  0  0  0  0  0
   57.2096  -14.8574    8.8023 N   0  0  0  0  0  0  0  0  0  0  0  0
   58.2100  -14.1241    9.3646 C   0  0  0  0  0  0  0  0  0  0  0  0
   59.2819  -14.8950    9.6675 N   0  0  0  0  0  0  0  0  0  0  0  0
   60.5471  -14.4212   10.2922 C   0  0  1  0  0  0  0  0  0  0  0  0
   61.3240  -13.5987    9.2872 C   0  0  1  0  0  0  0  0  0  0  0  0
   61.9086  -12.4814   10.1121 C   0  0  2  0  0  0  0  0  0  0  0  0
   63.2022  -12.8617   10.5977 O   0  0  0  0  0  0  0  0  0  0  0  0
   62.3360  -14.3893    8.6443 O   0  0  0  0  0  0  0  0  0  0  0  0
   60.2630  -13.5463   11.3810 O   0  0  0  0  0  0  0  0  0  0  0  0
   60.9774  -12.3373   11.2877 C   0  0  2  0  0  0  0  0  0  0  0  0
   59.9352  -11.2433   11.1812 C   0  0  0  0  0  0  0  0  0  0  0  0
   60.5262   -9.9606   11.1439 O   0  0  0  0  0  0  0  0  0  0  0  0
   59.5722   -8.6792   11.1693 P   0  0  0  0  0  0  0  0  0  0  0  0
   58.7773   -8.8070   12.4533 O   0  0  0  0  0  0  0  0  0  0  0  0
   58.7719   -8.8542    9.9045 O   0  0  0  0  0  0  0  0  0  0  0  0
   60.5349   -7.5275   11.0829 O   0  0  0  0  0  0  0  0  0  0  0  0
  2  1  2  0  0  0  0
  2  4  1  0  0  0  0
  3  2  1  0  0  0  0
  4  7  1  0  0  0  0
  4  5  2  0  0  0  0
  5  6  1  0  0  0  0
  5  9  1  0  0  0  0
  7  8  2  0  0  0  0
  8  9  1  0  0  0  0
 10  9  1  6  0  0  0
 10 15  1  0  0  0  0
 11 14  1  1  0  0  0
 11 12  1  0  0  0  0
 11 10  1  0  0  0  0
 12 13  1  1  0  0  0
 12 16  1  0  0  0  0
 16 17  1  6  0  0  0
 16 15  1  0  0  0  0
 18 19  1  0  0  0  0
 18 17  1  0  0  0  0
 19 21  1  0  0  0  0
 20 19  1  0  0  0  0
 22 19  2  0  0  0  0
M  END
>  <CHROM.1>
-9.98873425,109.27555014,-64.84086587,58.58931173,-174.40170785,59.58966950
-13.02822164,10.01086492,1.82908843,0.14415807,-2.85241862

>  <Name>
lig.pdb

>  <RI>
0

>  <Rbt.Current_Directory>
/home/itssahil/PROJECTS/Mol_Feturizer/New_Systems/rnas/4znp

>  <Rbt.Executable>
rbdock ($Id: //depot/dev/client3/rdock/2013.1/src/exe/rbdock.cxx#4 $)

>  <Rbt.Library>
libRbt.so (2013.1, Build901 2013/11/27)

>  <Rbt.Parameter_File>
/export/apps/rDock/src/rDock_2013.1_src/data/scripts/dock_solv.prm

>  <Rbt.Receptor>
prm/pocket_docking_2.prm

>  <SCORE>
-25.194

>  <SCORE.INTER>
-19.1653

>  <SCORE.INTER.CONST>
1

>  <SCORE.INTER.POLAR>
0

>  <SCORE.INTER.ROT>
5

>  <SCORE.INTER.SOLV>
20.259

>  <SCORE.INTER.VDW>
-26.4632

>  <SCORE.INTER.norm>
-0.87115

>  <SCORE.INTRA>
-6.02872

>  <SCORE.INTRA.DIHEDRAL>
-9.00907

>  <SCORE.INTRA.DIHEDRAL.0>
11.9251

>  <SCORE.INTRA.POLAR>
0

>  <SCORE.INTRA.POLAR.0>
0

>  <SCORE.INTRA.REPUL>
0

>  <SCORE.INTRA.REPUL.0>
0

>  <SCORE.INTRA.SOLV>
-0.317873

>  <SCORE.INTRA.SOLV.lig_0>
-40.9823

>  <SCORE.INTRA.VDW>
-1.36525

>  <SCORE.INTRA.VDW.0>
-0.53506

>  <SCORE.INTRA.norm>
-0.274033

>  <SCORE.RESTR>
0

>  <SCORE.RESTR.CAVITY>
0

>  <SCORE.RESTR.norm>
0

>  <SCORE.SYSTEM>
0

>  <SCORE.SYSTEM.CONST>
0

>  <SCORE.SYSTEM.DIHEDRAL>
0

>  <SCORE.SYSTEM.SOLV>
0

>  <SCORE.SYSTEM.norm>
0

>  <SCORE.heavy>
22

>  <SCORE.norm>
-1.14518

>  <RMSD>
0.808

$$$$
lig.pdb
 OpenBabel11021811523D
libRbt.so/2013.1/901 2013/11/27
 22 23  0  0  0  0  0  0  0  0999 V2000
   57.4719  -18.4280    8.0144 O   0  0  0  0  0  0  0  0  0  0  0  0
   56.8602  -17.3951    8.1536 C   0  0  0  0  0  0  0  0  0  0  0  0
   55.5930  -17.2770    7.7984 N   0  0  0  0  0  0  0  0  0  0  0  0
   57.5347  -16.2054    8.6921 C   0  0  0  0  0  0  0  0  0  0  0  0
   58.8759  -16.1944    9.2806 C   0  0  0  0  0  0  0  0  0  0  0  0
   59.6764  -17.2713    9.4319 N   0  0  0  0  0  0  0  0  0  0  0  0
   57.1241  -14.9299    8.7752 N   0  0  0  0  0  0  0  0  0  0  0  0
   58.1220  -14.1908    9.3346 C   0  0  0  0  0  0  0  0  0  0  0  0
   59.1969  -14.9566    9.6399 N   0  0  0  0  0  0  0  0  0  0  0  0
   60.4604  -14.4758   10.2624 C   0  0  1  0  0  0  0  0  0  0  0  0
   61.2206  -13.6307    9.2634 C   0  0  1  0  0  0  0  0  0  0  0  0
   61.7973  -12.5174   10.0991 C   0  0  2  0  0  0  0  0  0  0  0  0
   63.0987  -12.8883   10.5711 O   0  0  0  0  0  0  0  0  0  0  0  0
   62.2377  -14.4004    8.6034 O   0  0  0  0  0  0  0  0  0  0  0  0
   60.1733  -13.6188   11.3646 O   0  0  0  0  0  0  0  0  0  0  0  0
   60.8724  -12.4001   11.2827 C   0  0  2  0  0  0  0  0  0  0  0  0
   59.8164  -11.3175   11.1977 C   0  0  0  0  0  0  0  0  0  0  0  0
   60.3894  -10.0448   10.9785 O   0  0  0  0  0  0  0  0  0  0  0  0
   59.4312   -8.7664   10.9744 P   0  0  0  0  0  0  0  0  0  0  0  0
   58.3165   -9.1144   10.0085 O   0  0  0  0  0  0  0  0  0  0  0  0
   60.3600   -7.6750   10.5088 O   0  0  0  0  0  0  0  0  0  0  0  0
   59.0487   -8.6143   12.4206 O   0  0  0  0  0  0  0  0  0  0  0  0
  2  1  2  0  0  0  0
  2  4  1  0  0  0  0
  3  2  1  0  0  0  0
  4  7  1  0  0  0  0
  4  5  2  0  0  0  0
  5  6  1  0  0  0  0
  5  9  1  0  0  0  0
  7  8  2  0  0  0  0
  8  9  1  0  0  0  0
 10  9  1  6  0  0  0
 10 15  1  0  0  0  0
 11 14  1  1  0  0  0
 11 12  1  0  0  0  0
 11 10  1  0  0  0  0
 12 13  1  1  0  0  0
 12 16  1  0  0  0  0
 16 17  1  6  0  0  0
 16 15  1  0  0  0  0
 18 19  1  0  0  0  0
 18 17  1  0  0  0  0
 19 21  1  0  0  0  0
 20 19  1  0  0  0  0
 22 19  2  0  0  0  0
M  END
>  <CHROM.1>
-9.67479725,110.40933351,-56.28719820,-51.33242893,-175.34399165,59.48787653
-13.09230592,9.94588068,1.82845797,0.16196550,-2.87176635

>  <Name>
lig.pdb

>  <RI>
0

>  <Rbt.Current_Directory>
/home/itssahil/PROJECTS/Mol_Feturizer/New_Systems/rnas/4znp

>  <Rbt.Executable>
rbdock ($Id: //depot/dev/client3/rdock/2013.1/src/exe/rbdock.cxx#4 $)

>  <Rbt.Library>
libRbt.so (2013.1, Build901 2013/11/27)

>  <Rbt.Parameter_File>
/export/apps/rDock/src/rDock_2013.1_src/data/scripts/dock_solv.prm

>  <Rbt.Receptor>
prm/pocket_docking_2.prm

>  <SCORE>
-25.2742

>  <SCORE.INTER>
-19.3929

>  <SCORE.INTER.CONST>
1

>  <SCORE.INTER.POLAR>
0

>  <SCORE.INTER.ROT>
5

>  <SCORE.INTER.SOLV>
20.6321

>  <SCORE.INTER.VDW>
-26.7393

>  <SCORE.INTER.norm>
-0.881495

>  <SCORE.INTRA>
-5.88131

>  <SCORE.INTRA.DIHEDRAL>
-8.96975

>  <SCORE.INTRA.DIHEDRAL.0>
11.9251

>  <SCORE.INTRA.POLAR>
0

>  <SCORE.INTRA.POLAR.0>
0

>  <SCORE.INTRA.REPUL>
0

>  <SCORE.INTRA.REPUL.0>
0

>  <SCORE.INTRA.SOLV>
-0.0718133

>  <SCORE.INTRA.SOLV.lig_0>
-40.9823

>  <SCORE.INTRA.VDW>
-1.36053

>  <SCORE.INTRA.VDW.0>
-0.53506

>  <SCORE.INTRA.norm>
-0.267332

>  <SCORE.RESTR>
0

>  <SCORE.RESTR.CAVITY>
0

>  <SCORE.RESTR.norm>
0

>  <SCORE.SYSTEM>
0

>  <SCORE.SYSTEM.CONST>
0

>  <SCORE.SYSTEM.DIHEDRAL>
0

>  <SCORE.SYSTEM.SOLV>
0

>  <SCORE.SYSTEM.norm>
0

>  <SCORE.heavy>
22

>  <SCORE.norm>
-1.14883

>  <RMSD>
0.812

$$$$
lig.pdb
 OpenBabel11021811523D
libRbt.so/2013.1/901 2013/11/27
 22 23  0  0  0  0  0  0  0  0999 V2000
   57.4490  -18.4216    8.0269 O   0  0  0  0  0  0  0  0  0  0  0  0
   56.8454  -17.3823    8.1536 C   0  0  0  0  0  0  0  0  0  0  0  0
   55.5830  -17.2550    7.7850 N   0  0  0  0  0  0  0  0  0  0  0  0
   57.5254  -16.1954    8.6913 C   0  0  0  0  0  0  0  0  0  0  0  0
   58.8678  -16.1897    9.2772 C   0  0  0  0  0  0  0  0  0  0  0  0
   59.6645  -17.2697    9.4265 N   0  0  0  0  0  0  0  0  0  0  0  0
   57.1198  -14.9184    8.7757 N   0  0  0  0  0  0  0  0  0  0  0  0
   58.1215  -14.1834    9.3335 C   0  0  0  0  0  0  0  0  0  0  0  0
   59.1941  -14.9533    9.6364 N   0  0  0  0  0  0  0  0  0  0  0  0
   60.4607  -14.4775   10.2567 C   0  0  1  0  0  0  0  0  0  0  0  0
   61.2144  -13.6214    9.2621 C   0  0  1  0  0  0  0  0  0  0  0  0
   61.7946  -12.5161   10.1060 C   0  0  2  0  0  0  0  0  0  0  0  0
   63.0990  -12.8905   10.5668 O   0  0  0  0  0  0  0  0  0  0  0  0
   62.2285  -14.3833    8.5886 O   0  0  0  0  0  0  0  0  0  0  0  0
   60.1788  -13.6321   11.3692 O   0  0  0  0  0  0  0  0  0  0  0  0
   60.8763  -12.4119   11.2959 C   0  0  2  0  0  0  0  0  0  0  0  0
   59.8187  -11.3296   11.2278 C   0  0  0  0  0  0  0  0  0  0  0  0
   60.3885  -10.0554   11.0094 O   0  0  0  0  0  0  0  0  0  0  0  0
   59.4257   -8.7805   10.9956 P   0  0  0  0  0  0  0  0  0  0  0  0
   58.3489   -9.1128    9.9823 O   0  0  0  0  0  0  0  0  0  0  0  0
   60.3664   -7.6766   10.5868 O   0  0  0  0  0  0  0  0  0  0  0  0
   58.9894   -8.6592   12.4294 O   0  0  0  0  0  0  0  0  0  0  0  0
  2  1  2  0  0  0  0
  2  4  1  0  0  0  0
  3  2  1  0  0  0  0
  4  7  1  0  0  0  0
  4  5  2  0  0  0  0
  5  6  1  0  0  0  0
  5  9  1  0  0  0  0
  7  8  2  0  0  0  0
  8  9  1  0  0  0  0
 10  9  1  6  0  0  0
 10 15  1  0  0  0  0
 11 14  1  1  0  0  0
 11 12  1  0  0  0  0
 11 10  1  0  0  0  0
 12 13  1  1  0  0  0
 12 16  1  0  0  0  0
 16 17  1  6  0  0  0
 16 15  1  0  0  0  0
 18 19  1  0  0  0  0
 18 17  1  0  0  0  0
 19 21  1  0  0  0  0
 20 19  1  0  0  0  0
 22 19  2  0  0  0  0
M  END
>  <CHROM.1>
-8.83512682,111.06788822,-55.88960263,-53.49277631,-176.44903984,59.48254282
-13.09364833,9.95287939,1.83021556,0.16010303,-2.86791816

>  <Name>
lig.pdb

>  <RI>
0

>  <Rbt.Current_Directory>
/home/itssahil/PROJECTS/Mol_Feturizer/New_Systems/rnas/4znp

>  <Rbt.Executable>
rbdock ($Id: //depot/dev/client3/rdock/2013.1/src/exe/rbdock.cxx#4 $)

>  <Rbt.Library>
libRbt.so (2013.1, Build901 2013/11/27)

>  <Rbt.Parameter_File>
/export/apps/rDock/src/rDock_2013.1_src/data/scripts/dock_solv.prm

>  <Rbt.Receptor>
prm/pocket_docking_2.prm

>  <SCORE>
-25.2907

>  <SCORE.INTER>
-19.3342

>  <SCORE.INTER.CONST>
1

>  <SCORE.INTER.POLAR>
0

>  <SCORE.INTER.ROT>
5

>  <SCORE.INTER.SOLV>
20.6618

>  <SCORE.INTER.VDW>
-26.7101

>  <SCORE.INTER.norm>
-0.878826

>  <SCORE.INTRA>
-5.95656

>  <SCORE.INTRA.DIHEDRAL>
-9.10713

>  <SCORE.INTRA.DIHEDRAL.0>
11.9251

>  <SCORE.INTRA.POLAR>
0

>  <SCORE.INTRA.POLAR.0>
0

>  <SCORE.INTRA.REPUL>
0

>  <SCORE.INTRA.REPUL.0>
0

>  <SCORE.INTRA.SOLV>
-0.0656833

>  <SCORE.INTRA.SOLV.lig_0>
-40.9823

>  <SCORE.INTRA.VDW>
-1.37015

>  <SCORE.INTRA.VDW.0>
-0.53506

>  <SCORE.INTRA.norm>
-0.270753

>  <SCORE.RESTR>
0

>  <SCORE.RESTR.CAVITY>
0

>  <SCORE.RESTR.norm>
0

>  <SCORE.SYSTEM>
0

>  <SCORE.SYSTEM.CONST>
0

>  <SCORE.SYSTEM.DIHEDRAL>
0

>  <SCORE.SYSTEM.SOLV>
0

>  <SCORE.SYSTEM.norm>
0

>  <SCORE.heavy>
22

>  <SCORE.norm>
-1.14958

>  <RMSD>
0.814

$$$$
lig.pdb
 OpenBabel11021811523D
libRbt.so/2013.1/901 2013/11/27
 22 23  0  0  0  0  0  0  0  0999 V2000
   57.6219  -18.2584    8.1310 O   0  0  0  0  0  0  0  0  0  0  0  0
   56.9972  -17.2297    8.2401 C   0  0  0  0  0  0  0  0  0  0  0  0
   55.7388  -17.1286    7.8503 N   0  0  0  0  0  0  0  0  0  0  0  0
   57.6462  -16.0264    8.7798 C   0  0  0  0  0  0  0  0  0  0  0  0
   58.9739  -15.9934    9.3973 C   0  0  0  0  0  0  0  0  0  0  0  0
   59.7830  -17.0593    9.5782 N   0  0  0  0  0  0  0  0  0  0  0  0
   57.2195  -14.7549    8.8396 N   0  0  0  0  0  0  0  0  0  0  0  0
   58.1964  -13.9983    9.4123 C   0  0  0  0  0  0  0  0  0  0  0  0
   59.2729  -14.7481    9.7496 N   0  0  0  0  0  0  0  0  0  0  0  0
   60.5170  -14.2460   10.3942 C   0  0  1  0  0  0  0  0  0  0  0  0
   61.4706  -13.7547    9.3267 C   0  0  1  0  0  0  0  0  0  0  0  0
   62.0920  -12.5255    9.9377 C   0  0  2  0  0  0  0  0  0  0  0  0
   63.2847  -12.8853   10.6462 O   0  0  0  0  0  0  0  0  0  0  0  0
   62.4471  -14.7574    9.0051 O   0  0  0  0  0  0  0  0  0  0  0  0
   60.2275  -13.1159   11.2132 O   0  0  0  0  0  0  0  0  0  0  0  0
   61.0746  -12.0279   10.9312 C   0  0  2  0  0  0  0  0  0  0  0  0
   60.1722  -10.9081   10.4558 C   0  0  0  0  0  0  0  0  0  0  0  0
   59.4018  -10.3735   11.5125 O   0  0  0  0  0  0  0  0  0  0  0  0
   58.5093   -9.0793   11.2280 P   0  0  0  0  0  0  0  0  0  0  0  0
   59.4854   -8.0298   10.7353 O   0  0  0  0  0  0  0  0  0  0  0  0
   57.9081   -8.8043   12.5822 O   0  0  0  0  0  0  0  0  0  0  0  0
   57.4898   -9.5710   10.2383 O   0  0  0  0  0  0  0  0  0  0  0  0
  2  1  2  0  0  0  0
  2  4  1  0  0  0  0
  3  2  1  0  0  0  0
  4  7  1  0  0  0  0
  4  5  2  0  0  0  0
  5  6  1  0  0  0  0
  5  9  1  0  0  0  0
  7  8  2  0  0  0  0
  8  9  1  0  0  0  0
 10  9  1  6  0  0  0
 10 15  1  0  0  0  0
 11 14  1  1  0  0  0
 11 12  1  0  0  0  0
 11 10  1  0  0  0  0
 12 13  1  1  0  0  0
 12 16  1  0  0  0  0
 16 17  1  6  0  0  0
 16 15  1  0  0  0  0
 18 19  1  0  0  0  0
 18 17  1  0  0  0  0
 19 21  1  0  0  0  0
 20 19  1  0  0  0  0
 22 19  2  0  0  0  0
M  END
>  <CHROM.1>
-9.36926533,94.19754213,-170.85211515,-57.47146250,173.47651378,59.32517049
-13.07577590,10.03231013,1.70283528,0.10799448,-2.81782451

>  <Name>
lig.pdb

>  <RI>
0

>  <Rbt.Current_Directory>
/home/itssahil/PROJECTS/Mol_Feturizer/New_Systems/rnas/4znp

>  <Rbt.Executable>
rbdock ($Id: //depot/dev/client3/rdock/2013.1/src/exe/rbdock.cxx#4 $)

>  <Rbt.Library>
libRbt.so (2013.1, Build901 2013/11/27)

>  <Rbt.Parameter_File>
/export/apps/rDock/src/rDock_2013.1_src/data/scripts/dock_solv.prm

>  <Rbt.Receptor>
prm/pocket_docking_2.prm

>  <SCORE>
-25.1786

>  <SCORE.INTER>
-19.2739

>  <SCORE.INTER.CONST>
1

>  <SCORE.INTER.POLAR>
0

>  <SCORE.INTER.ROT>
5

>  <SCORE.INTER.SOLV>
21.004

>  <SCORE.INTER.VDW>
-26.7839

>  <SCORE.INTER.norm>
-0.876085

>  <SCORE.INTRA>
-5.90476

>  <SCORE.INTRA.DIHEDRAL>
-8.78688

>  <SCORE.INTRA.DIHEDRAL.0>
11.9251

>  <SCORE.INTRA.POLAR>
0

>  <SCORE.INTRA.POLAR.0>
0

>  <SCORE.INTRA.REPUL>
0

>  <SCORE.INTRA.REPUL.0>
0

>  <SCORE.INTRA.SOLV>
0.012962

>  <SCORE.INTRA.SOLV.lig_0>
-40.9823

>  <SCORE.INTRA.VDW>
-1.51781

>  <SCORE.INTRA.VDW.0>
-0.53506

>  <SCORE.INTRA.norm>
-0.268398

>  <SCORE.RESTR>
0

>  <SCORE.RESTR.CAVITY>
0

>  <SCORE.RESTR.norm>
0

>  <SCORE.SYSTEM>
0

>  <SCORE.SYSTEM.CONST>
0

>  <SCORE.SYSTEM.DIHEDRAL>
0

>  <SCORE.SYSTEM.SOLV>
0

>  <SCORE.SYSTEM.norm>
0

>  <SCORE.heavy>
22

>  <SCORE.norm>
-1.14448

>  <RMSD>
0.816

$$$$
lig.pdb
 OpenBabel11021811523D
libRbt.so/2013.1/901 2013/11/27
 22 23  0  0  0  0  0  0  0  0999 V2000
   57.4656  -18.4234    8.0242 O   0  0  0  0  0  0  0  0  0  0  0  0
   56.8561  -17.3882    8.1561 C   0  0  0  0  0  0  0  0  0  0  0  0
   55.5910  -17.2682    7.7942 N   0  0  0  0  0  0  0  0  0  0  0  0
   57.5312  -16.1981    8.6928 C   0  0  0  0  0  0  0  0  0  0  0  0
   58.8761  -16.1851    9.2728 C   0  0  0  0  0  0  0  0  0  0  0  0
   59.6800  -17.2604    9.4169 N   0  0  0  0  0  0  0  0  0  0  0  0
   57.1182  -14.9237    8.7812 N   0  0  0  0  0  0  0  0  0  0  0  0
   58.1178  -14.1835    9.3358 C   0  0  0  0  0  0  0  0  0  0  0  0
   59.1964  -14.9473    9.6327 N   0  0  0  0  0  0  0  0  0  0  0  0
   60.4627  -14.4649   10.2483 C   0  0  1  0  0  0  0  0  0  0  0  0
   61.1978  -13.5873    9.2585 C   0  0  1  0  0  0  0  0  0  0  0  0
   61.7725  -12.4863   10.1116 C   0  0  2  0  0  0  0  0  0  0  0  0
   63.0852  -12.8513   10.5563 O   0  0  0  0  0  0  0  0  0  0  0  0
   62.2147  -14.3286    8.5664 O   0  0  0  0  0  0  0  0  0  0  0  0
   60.1809  -13.6373   11.3740 O   0  0  0  0  0  0  0  0  0  0  0  0
   60.8635  -12.4082   11.3106 C   0  0  2  0  0  0  0  0  0  0  0  0
   59.7930  -11.3375   11.2657 C   0  0  0  0  0  0  0  0  0  0  0  0
   60.3383  -10.0649   10.9843 O   0  0  0  0  0  0  0  0  0  0  0  0
   59.3535   -8.8082   10.9250 P   0  0  0  0  0  0  0  0  0  0  0  0
   58.2321   -9.2317    9.9977 O   0  0  0  0  0  0  0  0  0  0  0  0
   60.2522   -7.7258   10.3851 O   0  0  0  0  0  0  0  0  0  0  0  0
   58.9894   -8.5839   12.3665 O   0  0  0  0  0  0  0  0  0  0  0  0
  2  1  2  0  0  0  0
  2  4  1  0  0  0  0
  3  2  1  0  0  0  0
  4  7  1  0  0  0  0
  4  5  2  0  0  0  0
  5  6  1  0  0  0  0
  5  9  1  0  0  0  0
  7  8  2  0  0  0  0
  8  9  1  0  0  0  0
 10  9  1  6  0  0  0
 10 15  1  0  0  0  0
 11 14  1  1  0  0  0
 11 12  1  0  0  0  0
 11 10  1  0  0  0  0
 12 13  1  1  0  0  0
 12 16  1  0  0  0  0
 16 17  1  6  0  0  0
 16 15  1  0  0  0  0
 18 19  1  0  0  0  0
 18 17  1  0  0  0  0
 19 21  1  0  0  0  0
 20 19  1  0  0  0  0
 22 19  2  0  0  0  0
M  END
>  <CHROM.1>
-8.88256460,111.82849165,-52.57588373,-50.53760811,-178.89967019,59.46045687
-13.09443908,9.93354666,1.82464069,0.16308585,-2.87353755

>  <Name>
lig.pdb

>  <RI>
0

>  <Rbt.Current_Directory>
/home/itssahil/PROJECTS/Mol_Feturizer/New_Systems/rnas/4znp

>  <Rbt.Executable>
rbdock ($Id: //depot/dev/client3/rdock/2013.1/src/exe/rbdock.cxx#4 $)

>  <Rbt.Library>
libRbt.so (2013.1, Build901 2013/11/27)

>  <Rbt.Parameter_File>
/export/apps/rDock/src/rDock_2013.1_src/data/scripts/dock_solv.prm

>  <Rbt.Receptor>
prm/pocket_docking_2.prm

>  <SCORE>
-25.2032

>  <SCORE.INTER>
-19.3196

>  <SCORE.INTER.CONST>
1

>  <SCORE.INTER.POLAR>
0

>  <SCORE.INTER.ROT>
5

>  <SCORE.INTER.SOLV>
20.6619

>  <SCORE.INTER.VDW>
-26.7003

>  <SCORE.INTER.norm>
-0.878163

>  <SCORE.INTRA>
-5.88358

>  <SCORE.INTRA.DIHEDRAL>
-8.94378

>  <SCORE.INTRA.DIHEDRAL.0>
11.9251

>  <SCORE.INTRA.POLAR>
0

>  <SCORE.INTRA.POLAR.0>
0

>  <SCORE.INTRA.REPUL>
0

>  <SCORE.INTRA.REPUL.0>
0

>  <SCORE.INTRA.SOLV>
-0.065968

>  <SCORE.INTRA.SOLV.lig_0>
-40.9823

>  <SCORE.INTRA.VDW>
-1.3787

>  <SCORE.INTRA.VDW.0>
-0.53506

>  <SCORE.INTRA.norm>
-0.267435

>  <SCORE.RESTR>
0

>  <SCORE.RESTR.CAVITY>
0

>  <SCORE.RESTR.norm>
0

>  <SCORE.SYSTEM>
0

>  <SCORE.SYSTEM.CONST>
0

>  <SCORE.SYSTEM.DIHEDRAL>
0

>  <SCORE.SYSTEM.SOLV>
0

>  <SCORE.SYSTEM.norm>
0

>  <SCORE.heavy>
22

>  <SCORE.norm>
-1.1456

>  <RMSD>
0.818

$$$$
lig.pdb
 OpenBabel11021811523D
libRbt.so/2013.1/901 2013/11/27
 22 23  0  0  0  0  0  0  0  0999 V2000
   57.4827  -18.4770    7.9873 O   0  0  0  0  0  0  0  0  0  0  0  0
   56.8646  -17.4504    8.1436 C   0  0  0  0  0  0  0  0  0  0  0  0
   55.5899  -17.3421    7.8133 N   0  0  0  0  0  0  0  0  0  0  0  0
   57.5386  -16.2573    8.6751 C   0  0  0  0  0  0  0  0  0  0  0  0
   58.8771  -16.2435    9.2696 C   0  0  0  0  0  0  0  0  0  0  0  0
   59.6752  -17.3204    9.4335 N   0  0  0  0  0  0  0  0  0  0  0  0
   57.1297  -14.9805    8.7458 N   0  0  0  0  0  0  0  0  0  0  0  0
   58.1262  -14.2384    9.3034 C   0  0  0  0  0  0  0  0  0  0  0  0
   59.1985  -15.0033    9.6200 N   0  0  0  0  0  0  0  0  0  0  0  0
   60.4600  -14.5193   10.2442 C   0  0  1  0  0  0  0  0  0  0  0  0
   61.2244  -13.6809    9.2427 C   0  0  1  0  0  0  0  0  0  0  0  0
   61.7986  -12.5627   10.0736 C   0  0  2  0  0  0  0  0  0  0  0  0
   63.0980  -12.9315   10.5528 O   0  0  0  0  0  0  0  0  0  0  0  0
   62.2435  -14.4554    8.5914 O   0  0  0  0  0  0  0  0  0  0  0  0
   60.1692  -13.6552   11.3399 O   0  0  0  0  0  0  0  0  0  0  0  0
   60.8694  -12.4375   11.2530 C   0  0  2  0  0  0  0  0  0  0  0  0
   59.8144  -11.3548   11.1572 C   0  0  0  0  0  0  0  0  0  0  0  0
   60.3884  -10.0851   10.9237 O   0  0  0  0  0  0  0  0  0  0  0  0
   59.4329   -8.8047   10.9167 P   0  0  0  0  0  0  0  0  0  0  0  0
   58.2763   -9.1830   10.0133 O   0  0  0  0  0  0  0  0  0  0  0  0
   60.3421   -7.7331   10.3727 O   0  0  0  0  0  0  0  0  0  0  0  0
   59.1145   -8.6009   12.3719 O   0  0  0  0  0  0  0  0  0  0  0  0
  2  1  2  0  0  0  0
  2  4  1  0  0  0  0
  3  2  1  0  0  0  0
  4  7  1  0  0  0  0
  4  5  2  0  0  0  0
  5  6  1  0  0  0  0
  5  9  1  0  0  0  0
  7  8  2  0  0  0  0
  8  9  1  0  0  0  0
 10  9  1  6  0  0  0
 10 15  1  0  0  0  0
 11 14  1  1  0  0  0
 11 12  1  0  0  0  0
 11 10  1  0  0  0  0
 12 13  1  1  0  0  0
 12 16  1  0  0  0  0
 16 17  1  6  0  0  0
 16 15  1  0  0  0  0
 18 19  1  0  0  0  0
 18 17  1  0  0  0  0
 19 21  1  0  0  0  0
 20 19  1  0  0  0  0
 22 19  2  0  0  0  0
M  END
>  <CHROM.1>
-11.34625835,110.54776854,-55.91389461,-48.72579238,-174.92705446,59.48955277
-13.13732578,9.91567015,1.82834994,0.16433436,-2.87805605

>  <Name>
lig.pdb

>  <RI>
0

>  <Rbt.Current_Directory>
/home/itssahil/PROJECTS/Mol_Feturizer/New_Systems/rnas/4znp

>  <Rbt.Executable>
rbdock ($Id: //depot/dev/client3/rdock/2013.1/src/exe/rbdock.cxx#4 $)

>  <Rbt.Library>
libRbt.so (2013.1, Build901 2013/11/27)

>  <Rbt.Parameter_File>
/export/apps/rDock/src/rDock_2013.1_src/data/scripts/dock_solv.prm

>  <Rbt.Receptor>
prm/pocket_docking_3.prm

>  <SCORE>
-25.17

>  <SCORE.INTER>
-19.4195

>  <SCORE.INTER.CONST>
1

>  <SCORE.INTER.POLAR>
0

>  <SCORE.INTER.ROT>
5

>  <SCORE.INTER.SOLV>
20.7537

>  <SCORE.INTER.VDW>
-26.7976

>  <SCORE.INTER.norm>
-0.882706

>  <SCORE.INTRA>
-5.75041

>  <SCORE.INTRA.DIHEDRAL>
-8.7441

>  <SCORE.INTRA.DIHEDRAL.0>
11.9251

>  <SCORE.INTRA.POLAR>
0

>  <SCORE.INTRA.POLAR.0>
0

>  <SCORE.INTRA.REPUL>
0

>  <SCORE.INTRA.REPUL.0>
0

>  <SCORE.INTRA.SOLV>
-0.0838381

>  <SCORE.INTRA.SOLV.lig_0>
-40.9823

>  <SCORE.INTRA.VDW>
-1.33645

>  <SCORE.INTRA.VDW.0>
-0.53506

>  <SCORE.INTRA.norm>
-0.261382

>  <SCORE.RESTR>
0

>  <SCORE.RESTR.CAVITY>
0

>  <SCORE.RESTR.norm>
0

>  <SCORE.SYSTEM>
0

>  <SCORE.SYSTEM.CONST>
0

>  <SCORE.SYSTEM.DIHEDRAL>
0

>  <SCORE.SYSTEM.SOLV>
0

>  <SCORE.SYSTEM.norm>
0

>  <SCORE.heavy>
22

>  <SCORE.norm>
-1.14409

>  <RMSD>
0.820

$$$$
lig.pdb
 OpenBabel11021811523D
libRbt.so/2013.1/901 2013/11/27
 22 23  0  0  0  0  0  0  0  0999 V2000
   57.4698  -18.4501    8.0179 O   0  0  0  0  0  0  0  0  0  0  0  0
   56.8617  -17.4137    8.1469 C   0  0  0  0  0  0  0  0  0  0  0  0
   55.5966  -17.2932    7.7853 N   0  0  0  0  0  0  0  0  0  0  0  0
   57.5387  -16.2229    8.6796 C   0  0  0  0  0  0  0  0  0  0  0  0
   58.8829  -16.2103    9.2612 C   0  0  0  0  0  0  0  0  0  0  0  0
   59.6844  -17.2868    9.4106 N   0  0  0  0  0  0  0  0  0  0  0  0
   57.1283  -14.9473    8.7623 N   0  0  0  0  0  0  0  0  0  0  0  0
   58.1287  -14.2069    9.3151 C   0  0  0  0  0  0  0  0  0  0  0  0
   59.2054  -14.9718    9.6165 N   0  0  0  0  0  0  0  0  0  0  0  0
   60.4720  -14.4895   10.2316 C   0  0  1  0  0  0  0  0  0  0  0  0
   61.2152  -13.6262    9.2354 C   0  0  1  0  0  0  0  0  0  0  0  0
   61.7926  -12.5193   10.0790 C   0  0  2  0  0  0  0  0  0  0  0  0
   63.1017  -12.8865   10.5324 O   0  0  0  0  0  0  0  0  0  0  0  0
   62.2308  -14.3800    8.5549 O   0  0  0  0  0  0  0  0  0  0  0  0
   60.1903  -13.6486   11.3476 O   0  0  0  0  0  0  0  0  0  0  0  0
   60.8797  -12.4238   11.2737 C   0  0  2  0  0  0  0  0  0  0  0  0
   59.8150  -11.3481   11.2136 C   0  0  0  0  0  0  0  0  0  0  0  0
   60.3781  -10.0653   11.0309 O   0  0  0  0  0  0  0  0  0  0  0  0
   59.4030   -8.8000   11.0049 P   0  0  0  0  0  0  0  0  0  0  0  0
   58.3415   -9.1434    9.9790 O   0  0  0  0  0  0  0  0  0  0  0  0
   60.3376   -7.6871   10.6064 O   0  0  0  0  0  0  0  0  0  0  0  0
   58.9486   -8.6820   12.4333 O   0  0  0  0  0  0  0  0  0  0  0  0
  2  1  2  0  0  0  0
  2  4  1  0  0  0  0
  3  2  1  0  0  0  0
  4  7  1  0  0  0  0
  4  5  2  0  0  0  0
  5  6  1  0  0  0  0
  5  9  1  0  0  0  0
  7  8  2  0  0  0  0
  8  9  1  0  0  0  0
 10  9  1  6  0  0  0
 10 15  1  0  0  0  0
 11 14  1  1  0  0  0
 11 12  1  0  0  0  0
 11 10  1  0  0  0  0
 12 13  1  1  0  0  0
 12 16  1  0  0  0  0
 16 17  1  6  0  0  0
 16 15  1  0  0  0  0
 18 19  1  0  0  0  0
 18 17  1  0  0  0  0
 19 21  1  0  0  0  0
 20 19  1  0  0  0  0
 22 19  2  0  0  0  0
M  END
>  <CHROM.1>
-9.00237012,111.39228098,-57.45172945,-52.09849870,-177.51106778,59.48252509
-13.11108832,9.94234206,1.82512828,0.15126910,-2.86323492

>  <Name>
lig.pdb

>  <RI>
0

>  <Rbt.Current_Directory>
/home/itssahil/PROJECTS/Mol_Feturizer/New_Systems/rnas/4znp

>  <Rbt.Executable>
rbdock ($Id: //depot/dev/client3/rdock/2013.1/src/exe/rbdock.cxx#4 $)

>  <Rbt.Library>
libRbt.so (2013.1, Build901 2013/11/27)

>  <Rbt.Parameter_File>
/export/apps/rDock/src/rDock_2013.1_src/data/scripts/dock_solv.prm

>  <Rbt.Receptor>
prm/pocket_docking_2.prm

>  <SCORE>
-25.2496

>  <SCORE.INTER>
-19.2777

>  <SCORE.INTER.CONST>
1

>  <SCORE.INTER.POLAR>
0

>  <SCORE.INTER.ROT>
5

>  <SCORE.INTER.SOLV>
20.6113

>  <SCORE.INTER.VDW>
-26.6556

>  <SCORE.INTER.norm>
-0.876261

>  <SCORE.INTRA>
-5.97182

>  <SCORE.INTRA.DIHEDRAL>
-9.1297

>  <SCORE.INTRA.DIHEDRAL.0>
11.9251

>  <SCORE.INTRA.POLAR>
0

>  <SCORE.INTRA.POLAR.0>
0

>  <SCORE.INTRA.REPUL>
0

>  <SCORE.INTRA.REPUL.0>
0

>  <SCORE.INTRA.SOLV>
-0.0783271

>  <SCORE.INTRA.SOLV.lig_0>
-40.9823

>  <SCORE.INTRA.VDW>
-1.36781

>  <SCORE.INTRA.VDW.0>
-0.53506

>  <SCORE.INTRA.norm>
-0.271446

>  <SCORE.RESTR>
0

>  <SCORE.RESTR.CAVITY>
0

>  <SCORE.RESTR.norm>
0

>  <SCORE.SYSTEM>
0

>  <SCORE.SYSTEM.CONST>
0

>  <SCORE.SYSTEM.DIHEDRAL>
0

>  <SCORE.SYSTEM.SOLV>
0

>  <SCORE.SYSTEM.norm>
0

>  <SCORE.heavy>
22

>  <SCORE.norm>
-1.14771

>  <RMSD>
0.821

$$$$
lig.pdb
 OpenBabel11021811523D
libRbt.so/2013.1/901 2013/11/27
 22 23  0  0  0  0  0  0  0  0999 V2000
   57.5054  -18.4416    8.0235 O   0  0  0  0  0  0  0  0  0  0  0  0
   56.8889  -17.4100    8.1511 C   0  0  0  0  0  0  0  0  0  0  0  0
   55.6248  -17.2982    7.7835 N   0  0  0  0  0  0  0  0  0  0  0  0
   57.5544  -16.2149    8.6890 C   0  0  0  0  0  0  0  0  0  0  0  0
   58.8971  -16.1927    9.2739 C   0  0  0  0  0  0  0  0  0  0  0  0
   59.7074  -17.2627    9.4220 N   0  0  0  0  0  0  0  0  0  0  0  0
   57.1329  -14.9431    8.7745 N   0  0  0  0  0  0  0  0  0  0  0  0
   58.1257  -14.1959    9.3319 C   0  0  0  0  0  0  0  0  0  0  0  0
   59.2081  -14.9525    9.6336 N   0  0  0  0  0  0  0  0  0  0  0  0
   60.4691  -14.4612   10.2532 C   0  0  1  0  0  0  0  0  0  0  0  0
   61.2081  -13.5900    9.2607 C   0  0  1  0  0  0  0  0  0  0  0  0
   61.7742  -12.4802   10.1082 C   0  0  2  0  0  0  0  0  0  0  0  0
   63.0850  -12.8377   10.5645 O   0  0  0  0  0  0  0  0  0  0  0  0
   62.2316  -14.3343    8.5817 O   0  0  0  0  0  0  0  0  0  0  0  0
   60.1776  -13.6248   11.3700 O   0  0  0  0  0  0  0  0  0  0  0  0
   60.8572  -12.3944   11.3005 C   0  0  2  0  0  0  0  0  0  0  0  0
   59.7840  -11.3271   11.2395 C   0  0  0  0  0  0  0  0  0  0  0  0
   60.3362  -10.0415   11.0439 O   0  0  0  0  0  0  0  0  0  0  0  0
   59.3554   -8.7804   11.0481 P   0  0  0  0  0  0  0  0  0  0  0  0
   58.8319   -8.6949   12.4678 O   0  0  0  0  0  0  0  0  0  0  0  0
   58.3313   -9.1713   10.0141 O   0  0  0  0  0  0  0  0  0  0  0  0
   60.2362   -7.6536   10.5841 O   0  0  0  0  0  0  0  0  0  0  0  0
  2  1  2  0  0  0  0
  2  4  1  0  0  0  0
  3  2  1  0  0  0  0
  4  7  1  0  0  0  0
  4  5  2  0  0  0  0
  5  6  1  0  0  0  0
  5  9  1  0  0  0  0
  7  8  2  0  0  0  0
  8  9  1  0  0  0  0
 10  9  1  6  0  0  0
 10 15  1  0  0  0  0
 11 14  1  1  0  0  0
 11 12  1  0  0  0  0
 11 10  1  0  0  0  0
 12 13  1  1  0  0  0
 12 16  1  0  0  0  0
 16 17  1  6  0  0  0
 16 15  1  0  0  0  0
 18 19  1  0  0  0  0
 18 17  1  0  0  0  0
 19 21  1  0  0  0  0
 20 19  1  0  0  0  0
 22 19  2  0  0  0  0
M  END
>  <CHROM.1>
-8.82730887,111.32597246,-56.70285967,66.58450267,-176.14366605,59.46642872
-13.09287522,9.96196205,1.81529982,0.14931629,-2.85953234

>  <Name>
lig.pdb

>  <RI>
0

>  <Rbt.Current_Directory>
/home/itssahil/PROJECTS/Mol_Feturizer/New_Systems/rnas/4znp

>  <Rbt.Executable>
rbdock ($Id: //depot/dev/client3/rdock/2013.1/src/exe/rbdock.cxx#4 $)

>  <Rbt.Library>
libRbt.so (2013.1, Build901 2013/11/27)

>  <Rbt.Parameter_File>
/export/apps/rDock/src/rDock_2013.1_src/data/scripts/dock_solv.prm

>  <Rbt.Receptor>
prm/pocket_docking_2.prm

>  <SCORE>
-25.2816

>  <SCORE.INTER>
-19.3193

>  <SCORE.INTER.CONST>
1

>  <SCORE.INTER.POLAR>
0

>  <SCORE.INTER.ROT>
5

>  <SCORE.INTER.SOLV>
20.51

>  <SCORE.INTER.VDW>
-26.6495

>  <SCORE.INTER.norm>
-0.878149

>  <SCORE.INTRA>
-5.9623

>  <SCORE.INTRA.DIHEDRAL>
-9.11523

>  <SCORE.INTRA.DIHEDRAL.0>
11.9251

>  <SCORE.INTRA.POLAR>
0

>  <SCORE.INTRA.POLAR.0>
0

>  <SCORE.INTRA.REPUL>
0

>  <SCORE.INTRA.REPUL.0>
0

>  <SCORE.INTRA.SOLV>
-0.293355

>  <SCORE.INTRA.SOLV.lig_0>
-40.9823

>  <SCORE.INTRA.VDW>
-1.258

>  <SCORE.INTRA.VDW.0>
-0.53506

>  <SCORE.INTRA.norm>
-0.271014

>  <SCORE.RESTR>
0

>  <SCORE.RESTR.CAVITY>
0

>  <SCORE.RESTR.norm>
0

>  <SCORE.SYSTEM>
0

>  <SCORE.SYSTEM.CONST>
0

>  <SCORE.SYSTEM.DIHEDRAL>
0

>  <SCORE.SYSTEM.SOLV>
0

>  <SCORE.SYSTEM.norm>
0

>  <SCORE.heavy>
22

>  <SCORE.norm>
-1.14916

>  <RMSD>
0.822

$$$$
lig.pdb
 OpenBabel11021811523D
libRbt.so/2013.1/901 2013/11/27
 22 23  0  0  0  0  0  0  0  0999 V2000
   57.4366  -18.4134    8.0322 O   0  0  0  0  0  0  0  0  0  0  0  0
   56.8212  -17.3802    8.1515 C   0  0  0  0  0  0  0  0  0  0  0  0
   55.5587  -17.2687    7.7784 N   0  0  0  0  0  0  0  0  0  0  0  0
   57.4865  -16.1830    8.6849 C   0  0  0  0  0  0  0  0  0  0  0  0
   58.8062  -16.1681    9.3201 C   0  0  0  0  0  0  0  0  0  0  0  0
   59.5915  -17.2472    9.5255 N   0  0  0  0  0  0  0  0  0  0  0  0
   57.0843  -14.9027    8.7228 N   0  0  0  0  0  0  0  0  0  0  0  0
   58.0681  -14.1581    9.2993 C   0  0  0  0  0  0  0  0  0  0  0  0
   59.1249  -14.9245    9.6608 N   0  0  0  0  0  0  0  0  0  0  0  0
   60.3698  -14.4385   10.3161 C   0  0  1  0  0  0  0  0  0  0  0  0
   61.1598  -13.6029    9.3324 C   0  0  1  0  0  0  0  0  0  0  0  0
   61.7122  -12.4823   10.1746 C   0  0  2  0  0  0  0  0  0  0  0  0
   62.9988  -12.8494   10.6883 O   0  0  0  0  0  0  0  0  0  0  0  0
   62.1955  -14.3791    8.7099 O   0  0  0  0  0  0  0  0  0  0  0  0
   60.0506  -13.5713   11.4014 O   0  0  0  0  0  0  0  0  0  0  0  0
   60.7528  -12.3537   11.3291 C   0  0  2  0  0  0  0  0  0  0  0  0
   59.7005  -11.2715   11.2029 C   0  0  0  0  0  0  0  0  0  0  0  0
   60.2817   -9.9901   11.0755 O   0  0  0  0  0  0  0  0  0  0  0  0
   59.3205   -8.7140   11.0580 P   0  0  0  0  0  0  0  0  0  0  0  0
   58.6596   -8.7016   12.4218 O   0  0  0  0  0  0  0  0  0  0  0  0
   58.3997   -9.0258    9.9067 O   0  0  0  0  0  0  0  0  0  0  0  0
   60.2566   -7.5781   10.7509 O   0  0  0  0  0  0  0  0  0  0  0  0
  2  1  2  0  0  0  0
  2  4  1  0  0  0  0
  3  2  1  0  0  0  0
  4  7  1  0  0  0  0
  4  5  2  0  0  0  0
  5  6  1  0  0  0  0
  5  9  1  0  0  0  0
  7  8  2  0  0  0  0
  8  9  1  0  0  0  0
 10  9  1  6  0  0  0
 10 15  1  0  0  0  0
 11 14  1  1  0  0  0
 11 12  1  0  0  0  0
 11 10  1  0  0  0  0
 12 13  1  1  0  0  0
 12 16  1  0  0  0  0
 16 17  1  6  0  0  0
 16 15  1  0  0  0  0
 18 19  1  0  0  0  0
 18 17  1  0  0  0  0
 19 21  1  0  0  0  0
 20 19  1  0  0  0  0
 22 19  2  0  0  0  0
M  END
>  <CHROM.1>
-11.24906546,111.42489299,-60.08707029,63.62033764,-174.79459263,59.40128559
-13.05883285,9.99012869,1.81785318,0.17472868,-2.86810251

>  <Name>
lig.pdb

>  <RI>
0

>  <Rbt.Current_Directory>
/home/itssahil/PROJECTS/Mol_Feturizer/New_Systems/rnas/4znp

>  <Rbt.Executable>
rbdock ($Id: //depot/dev/client3/rdock/2013.1/src/exe/rbdock.cxx#4 $)

>  <Rbt.Library>
libRbt.so (2013.1, Build901 2013/11/27)

>  <Rbt.Parameter_File>
/export/apps/rDock/src/rDock_2013.1_src/data/scripts/dock_solv.prm

>  <Rbt.Receptor>
prm/pocket_docking_2.prm

>  <SCORE>
-25.213

>  <SCORE.INTER>
-19.2442

>  <SCORE.INTER.CONST>
1

>  <SCORE.INTER.POLAR>
0

>  <SCORE.INTER.ROT>
5

>  <SCORE.INTER.SOLV>
20.6659

>  <SCORE.INTER.VDW>
-26.6514

>  <SCORE.INTER.norm>
-0.874735

>  <SCORE.INTRA>
-5.96886

>  <SCORE.INTRA.DIHEDRAL>
-8.99946

>  <SCORE.INTRA.DIHEDRAL.0>
11.9251

>  <SCORE.INTRA.POLAR>
0

>  <SCORE.INTRA.POLAR.0>
0

>  <SCORE.INTRA.REPUL>
0

>  <SCORE.INTRA.REPUL.0>
0

>  <SCORE.INTRA.SOLV>
-0.316337

>  <SCORE.INTRA.SOLV.lig_0>
-40.9823

>  <SCORE.INTRA.VDW>
-1.31096

>  <SCORE.INTRA.VDW.0>
-0.53506

>  <SCORE.INTRA.norm>
-0.271312

>  <SCORE.RESTR>
0

>  <SCORE.RESTR.CAVITY>
0

>  <SCORE.RESTR.norm>
0

>  <SCORE.SYSTEM>
0

>  <SCORE.SYSTEM.CONST>
0

>  <SCORE.SYSTEM.DIHEDRAL>
0

>  <SCORE.SYSTEM.SOLV>
0

>  <SCORE.SYSTEM.norm>
0

>  <SCORE.heavy>
22

>  <SCORE.norm>
-1.14605

>  <RMSD>
0.822

$$$$
lig.pdb
 OpenBabel11021811523D
libRbt.so/2013.1/901 2013/11/27
 22 23  0  0  0  0  0  0  0  0999 V2000
   57.6299  -18.2607    8.1678 O   0  0  0  0  0  0  0  0  0  0  0  0
   57.0093  -17.2284    8.2662 C   0  0  0  0  0  0  0  0  0  0  0  0
   55.7509  -17.1268    7.8768 N   0  0  0  0  0  0  0  0  0  0  0  0
   57.6637  -16.0218    8.7917 C   0  0  0  0  0  0  0  0  0  0  0  0
   58.9883  -15.9887    9.4159 C   0  0  0  0  0  0  0  0  0  0  0  0
   59.7890  -17.0573    9.6168 N   0  0  0  0  0  0  0  0  0  0  0  0
   57.2454  -14.7466    8.8305 N   0  0  0  0  0  0  0  0  0  0  0  0
   58.2244  -13.9883    9.3973 C   0  0  0  0  0  0  0  0  0  0  0  0
   59.2939  -14.7404    9.7515 N   0  0  0  0  0  0  0  0  0  0  0  0
   60.5379  -14.2373   10.3954 C   0  0  1  0  0  0  0  0  0  0  0  0
   61.4875  -13.7383    9.3279 C   0  0  1  0  0  0  0  0  0  0  0  0
   62.1065  -12.5099    9.9430 C   0  0  2  0  0  0  0  0  0  0  0  0
   63.3020  -12.8691   10.6471 O   0  0  0  0  0  0  0  0  0  0  0  0
   62.4664  -14.7365    8.9996 O   0  0  0  0  0  0  0  0  0  0  0  0
   60.2469  -13.1118   11.2202 O   0  0  0  0  0  0  0  0  0  0  0  0
   61.0899  -12.0199   10.9412 C   0  0  2  0  0  0  0  0  0  0  0  0
   60.1829  -10.9008   10.4729 C   0  0  0  0  0  0  0  0  0  0  0  0
   59.4091  -10.3773   11.5327 O   0  0  0  0  0  0  0  0  0  0  0  0
   58.5088   -9.0868   11.2558 P   0  0  0  0  0  0  0  0  0  0  0  0
   59.4761   -8.0336   10.7539 O   0  0  0  0  0  0  0  0  0  0  0  0
   57.9187   -8.8138   12.6152 O   0  0  0  0  0  0  0  0  0  0  0  0
   57.4824   -9.5831   10.2755 O   0  0  0  0  0  0  0  0  0  0  0  0
  2  1  2  0  0  0  0
  2  4  1  0  0  0  0
  3  2  1  0  0  0  0
  4  7  1  0  0  0  0
  4  5  2  0  0  0  0
  5  6  1  0  0  0  0
  5  9  1  0  0  0  0
  7  8  2  0  0  0  0
  8  9  1  0  0  0  0
 10  9  1  6  0  0  0
 10 15  1  0  0  0  0
 11 14  1  1  0  0  0
 11 12  1  0  0  0  0
 11 10  1  0  0  0  0
 12 13  1  1  0  0  0
 12 16  1  0  0  0  0
 16 17  1  6  0  0  0
 16 15  1  0  0  0  0
 18 19  1  0  0  0  0
 18 17  1  0  0  0  0
 19 21  1  0  0  0  0
 20 19  1  0  0  0  0
 22 19  2  0  0  0  0
M  END
>  <CHROM.1>
-9.83328421,95.51406721,-171.10488066,-56.82403091,173.59977915,59.33688941
-13.07215797,10.04744062,1.70188123,0.10270853,-2.81612849

>  <Name>
lig.pdb

>  <RI>
0

>  <Rbt.Current_Directory>
/home/itssahil/PROJECTS/Mol_Feturizer/New_Systems/rnas/4znp

>  <Rbt.Executable>
rbdock ($Id: //depot/dev/client3/rdock/2013.1/src/exe/rbdock.cxx#4 $)

>  <Rbt.Library>
libRbt.so (2013.1, Build901 2013/11/27)

>  <Rbt.Parameter_File>
/export/apps/rDock/src/rDock_2013.1_src/data/scripts/dock_solv.prm

>  <Rbt.Receptor>
prm/pocket_docking_2.prm

>  <SCORE>
-25.177

>  <SCORE.INTER>
-19.2677

>  <SCORE.INTER.CONST>
1

>  <SCORE.INTER.POLAR>
0

>  <SCORE.INTER.ROT>
5

>  <SCORE.INTER.SOLV>
20.9339

>  <SCORE.INTER.VDW>
-26.7564

>  <SCORE.INTER.norm>
-0.875806

>  <SCORE.INTRA>
-5.90925

>  <SCORE.INTRA.DIHEDRAL>
-8.77471

>  <SCORE.INTRA.DIHEDRAL.0>
11.9251

>  <SCORE.INTRA.POLAR>
0

>  <SCORE.INTRA.POLAR.0>
0

>  <SCORE.INTRA.REPUL>
0

>  <SCORE.INTRA.REPUL.0>
0

>  <SCORE.INTRA.SOLV>
-0.00416398

>  <SCORE.INTRA.SOLV.lig_0>
-40.9823

>  <SCORE.INTRA.VDW>
-1.51981

>  <SCORE.INTRA.VDW.0>
-0.53506

>  <SCORE.INTRA.norm>
-0.268602

>  <SCORE.RESTR>
0

>  <SCORE.RESTR.CAVITY>
0

>  <SCORE.RESTR.norm>
0

>  <SCORE.SYSTEM>
0

>  <SCORE.SYSTEM.CONST>
0

>  <SCORE.SYSTEM.DIHEDRAL>
0

>  <SCORE.SYSTEM.SOLV>
0

>  <SCORE.SYSTEM.norm>
0

>  <SCORE.heavy>
22

>  <SCORE.norm>
-1.14441

>  <RMSD>
0.823

$$$$
lig.pdb
 OpenBabel11021811523D
libRbt.so/2013.1/901 2013/11/27
 22 23  0  0  0  0  0  0  0  0999 V2000
   57.5531  -18.3554    8.0364 O   0  0  0  0  0  0  0  0  0  0  0  0
   56.9435  -17.3221    8.1821 C   0  0  0  0  0  0  0  0  0  0  0  0
   55.6704  -17.2059    7.8482 N   0  0  0  0  0  0  0  0  0  0  0  0
   57.6266  -16.1301    8.7041 C   0  0  0  0  0  0  0  0  0  0  0  0
   58.9689  -16.1202    9.2902 C   0  0  0  0  0  0  0  0  0  0  0  0
   59.7626  -17.2003    9.4540 N   0  0  0  0  0  0  0  0  0  0  0  0
   57.2245  -14.8509    8.7715 N   0  0  0  0  0  0  0  0  0  0  0  0
   58.2281  -14.1113    9.3197 C   0  0  0  0  0  0  0  0  0  0  0  0
   59.2985  -14.8800    9.6330 N   0  0  0  0  0  0  0  0  0  0  0  0
   60.5663  -14.3995   10.2472 C   0  0  1  0  0  0  0  0  0  0  0  0
   61.3144  -13.5448    9.2473 C   0  0  1  0  0  0  0  0  0  0  0  0
   61.8952  -12.4356   10.0856 C   0  0  2  0  0  0  0  0  0  0  0  0
   63.2021  -12.8056   10.5428 O   0  0  0  0  0  0  0  0  0  0  0  0
   62.3277  -14.3064    8.5723 O   0  0  0  0  0  0  0  0  0  0  0  0
   60.2866  -13.5514   11.3582 O   0  0  0  0  0  0  0  0  0  0  0  0
   60.9810  -12.3299   11.2786 C   0  0  2  0  0  0  0  0  0  0  0  0
   59.9208  -11.2501   11.2111 C   0  0  0  0  0  0  0  0  0  0  0  0
   60.4923   -9.9591   11.1615 O   0  0  0  0  0  0  0  0  0  0  0  0
   59.5193   -8.6920   11.1806 P   0  0  0  0  0  0  0  0  0  0  0  0
   58.5836   -8.8979   10.0063 O   0  0  0  0  0  0  0  0  0  0  0  0
   60.4868   -7.5465   11.0309 O   0  0  0  0  0  0  0  0  0  0  0  0
   58.9045   -8.7467   12.5516 O   0  0  0  0  0  0  0  0  0  0  0  0
  2  1  2  0  0  0  0
  2  4  1  0  0  0  0
  3  2  1  0  0  0  0
  4  7  1  0  0  0  0
  4  5  2  0  0  0  0
  5  6  1  0  0  0  0
  5  9  1  0  0  0  0
  7  8  2  0  0  0  0
  8  9  1  0  0  0  0
 10  9  1  6  0  0  0
 10 15  1  0  0  0  0
 11 14  1  1  0  0  0
 11 12  1  0  0  0  0
 11 10  1  0  0  0  0
 12 13  1  1  0  0  0
 12 16  1  0  0  0  0
 16 17  1  6  0  0  0
 16 15  1  0  0  0  0
 18 19  1  0  0  0  0
 18 17  1  0  0  0  0
 19 21  1  0  0  0  0
 20 19  1  0  0  0  0
 22 19  2  0  0  0  0
M  END
>  <CHROM.1>
-10.76868656,111.75700804,-63.55530965,-56.31980710,-176.17684567,59.58194091
-13.01641504,10.00598724,1.82421938,0.13128461,-2.84437947

>  <Name>
lig.pdb

>  <RI>
0

>  <Rbt.Current_Directory>
/home/itssahil/PROJECTS/Mol_Feturizer/New_Systems/rnas/4znp

>  <Rbt.Executable>
rbdock ($Id: //depot/dev/client3/rdock/2013.1/src/exe/rbdock.cxx#4 $)

>  <Rbt.Library>
libRbt.so (2013.1, Build901 2013/11/27)

>  <Rbt.Parameter_File>
/export/apps/rDock/src/rDock_2013.1_src/data/scripts/dock_solv.prm

>  <Rbt.Receptor>
prm/pocket_docking_3.prm

>  <SCORE>
-25.0971

>  <SCORE.INTER>
-19.1139

>  <SCORE.INTER.CONST>
1

>  <SCORE.INTER.POLAR>
0

>  <SCORE.INTER.ROT>
5

>  <SCORE.INTER.SOLV>
20.1024

>  <SCORE.INTER.VDW>
-26.3767

>  <SCORE.INTER.norm>
-0.868812

>  <SCORE.INTRA>
-5.98324

>  <SCORE.INTRA.DIHEDRAL>
-9.04393

>  <SCORE.INTRA.DIHEDRAL.0>
11.9251

>  <SCORE.INTRA.POLAR>
0

>  <SCORE.INTRA.POLAR.0>
0

>  <SCORE.INTRA.REPUL>
0

>  <SCORE.INTRA.REPUL.0>
0

>  <SCORE.INTRA.SOLV>
-0.0972055

>  <SCORE.INTRA.SOLV.lig_0>
-40.9823

>  <SCORE.INTRA.VDW>
-1.41267

>  <SCORE.INTRA.VDW.0>
-0.53506

>  <SCORE.INTRA.norm>
-0.271965

>  <SCORE.RESTR>
0

>  <SCORE.RESTR.CAVITY>
0

>  <SCORE.RESTR.norm>
0

>  <SCORE.SYSTEM>
0

>  <SCORE.SYSTEM.CONST>
0

>  <SCORE.SYSTEM.DIHEDRAL>
0

>  <SCORE.SYSTEM.SOLV>
0

>  <SCORE.SYSTEM.norm>
0

>  <SCORE.heavy>
22

>  <SCORE.norm>
-1.14078

>  <RMSD>
0.824

$$$$
lig.pdb
 OpenBabel11021811523D
libRbt.so/2013.1/901 2013/11/27
 22 23  0  0  0  0  0  0  0  0999 V2000
   57.4895  -18.4316    8.0096 O   0  0  0  0  0  0  0  0  0  0  0  0
   56.8712  -17.4034    8.1550 C   0  0  0  0  0  0  0  0  0  0  0  0
   55.6004  -17.2944    7.8101 N   0  0  0  0  0  0  0  0  0  0  0  0
   57.5411  -16.2093    8.6895 C   0  0  0  0  0  0  0  0  0  0  0  0
   58.8845  -16.1901    9.2728 C   0  0  0  0  0  0  0  0  0  0  0  0
   59.6916  -17.2624    9.4223 N   0  0  0  0  0  0  0  0  0  0  0  0
   57.1238  -14.9360    8.7727 N   0  0  0  0  0  0  0  0  0  0  0  0
   58.1197  -14.1907    9.3273 C   0  0  0  0  0  0  0  0  0  0  0  0
   59.2000  -14.9501    9.6294 N   0  0  0  0  0  0  0  0  0  0  0  0
   60.4632  -14.4615   10.2465 C   0  0  1  0  0  0  0  0  0  0  0  0
   61.1985  -13.5858    9.2552 C   0  0  1  0  0  0  0  0  0  0  0  0
   61.7677  -12.4798   10.1054 C   0  0  2  0  0  0  0  0  0  0  0  0
   63.0801  -12.8392   10.5553 O   0  0  0  0  0  0  0  0  0  0  0  0
   62.2194  -14.3269    8.5689 O   0  0  0  0  0  0  0  0  0  0  0  0
   60.1759  -13.6302   11.3681 O   0  0  0  0  0  0  0  0  0  0  0  0
   60.8552  -12.3994   11.3016 C   0  0  2  0  0  0  0  0  0  0  0  0
   59.7817  -11.3320   11.2494 C   0  0  0  0  0  0  0  0  0  0  0  0
   60.3336  -10.0446   11.0650 O   0  0  0  0  0  0  0  0  0  0  0  0
   59.3482   -8.7872   11.0443 P   0  0  0  0  0  0  0  0  0  0  0  0
   58.7811   -8.7096   12.4476 O   0  0  0  0  0  0  0  0  0  0  0  0
   58.3579   -9.1775    9.9777 O   0  0  0  0  0  0  0  0  0  0  0  0
   60.2385   -7.6552   10.6121 O   0  0  0  0  0  0  0  0  0  0  0  0
  2  1  2  0  0  0  0
  2  4  1  0  0  0  0
  3  2  1  0  0  0  0
  4  7  1  0  0  0  0
  4  5  2  0  0  0  0
  5  6  1  0  0  0  0
  5  9  1  0  0  0  0
  7  8  2  0  0  0  0
  8  9  1  0  0  0  0
 10  9  1  6  0  0  0
 10 15  1  0  0  0  0
 11 14  1  1  0  0  0
 11 12  1  0  0  0  0
 11 10  1  0  0  0  0
 12 13  1  1  0  0  0
 12 16  1  0  0  0  0
 16 17  1  6  0  0  0
 16 15  1  0  0  0  0
 18 19  1  0  0  0  0
 18 17  1  0  0  0  0
 19 21  1  0  0  0  0
 20 19  1  0  0  0  0
 22 19  2  0  0  0  0
M  END
>  <CHROM.1>
-9.96755500,111.77734848,-57.03283921,66.06712449,-177.60864728,59.45758059
-13.09316864,9.96009827,1.81705821,0.14693513,-2.85910560

>  <Name>
lig.pdb

>  <RI>
0

>  <Rbt.Current_Directory>
/home/itssahil/PROJECTS/Mol_Feturizer/New_Systems/rnas/4znp

>  <Rbt.Executable>
rbdock ($Id: //depot/dev/client3/rdock/2013.1/src/exe/rbdock.cxx#4 $)

>  <Rbt.Library>
libRbt.so (2013.1, Build901 2013/11/27)

>  <Rbt.Parameter_File>
/export/apps/rDock/src/rDock_2013.1_src/data/scripts/dock_solv.prm

>  <Rbt.Receptor>
prm/pocket_docking_6.prm

>  <SCORE>
-25.3262

>  <SCORE.INTER>
-19.3543

>  <SCORE.INTER.CONST>
1

>  <SCORE.INTER.POLAR>
0

>  <SCORE.INTER.ROT>
5

>  <SCORE.INTER.SOLV>
20.5293

>  <SCORE.INTER.VDW>
-26.6793

>  <SCORE.INTER.norm>
-0.879743

>  <SCORE.INTRA>
-5.97189

>  <SCORE.INTRA.DIHEDRAL>
-9.11304

>  <SCORE.INTRA.DIHEDRAL.0>
11.9251

>  <SCORE.INTRA.POLAR>
0

>  <SCORE.INTRA.POLAR.0>
0

>  <SCORE.INTRA.REPUL>
0

>  <SCORE.INTRA.REPUL.0>
0

>  <SCORE.INTRA.SOLV>
-0.294868

>  <SCORE.INTRA.SOLV.lig_0>
-40.9823

>  <SCORE.INTRA.VDW>
-1.26793

>  <SCORE.INTRA.VDW.0>
-0.53506

>  <SCORE.INTRA.norm>
-0.271449

>  <SCORE.RESTR>
0

>  <SCORE.RESTR.CAVITY>
0

>  <SCORE.RESTR.norm>
0

>  <SCORE.SYSTEM>
0

>  <SCORE.SYSTEM.CONST>
0

>  <SCORE.SYSTEM.DIHEDRAL>
0

>  <SCORE.SYSTEM.SOLV>
0

>  <SCORE.SYSTEM.norm>
0

>  <SCORE.heavy>
22

>  <SCORE.norm>
-1.15119

>  <RMSD>
0.824

$$$$
lig.pdb
 OpenBabel11021811523D
libRbt.so/2013.1/901 2013/11/27
 22 23  0  0  0  0  0  0  0  0999 V2000
   57.5016  -18.4509    7.9951 O   0  0  0  0  0  0  0  0  0  0  0  0
   56.8819  -17.4229    8.1352 C   0  0  0  0  0  0  0  0  0  0  0  0
   55.6126  -17.3156    7.7841 N   0  0  0  0  0  0  0  0  0  0  0  0
   57.5483  -16.2271    8.6701 C   0  0  0  0  0  0  0  0  0  0  0  0
   58.8897  -16.2051    9.2579 C   0  0  0  0  0  0  0  0  0  0  0  0
   59.6977  -17.2760    9.4118 N   0  0  0  0  0  0  0  0  0  0  0  0
   57.1290  -14.9542    8.7500 N   0  0  0  0  0  0  0  0  0  0  0  0
   58.1220  -14.2067    9.3068 C   0  0  0  0  0  0  0  0  0  0  0  0
   59.2023  -14.9642    9.6137 N   0  0  0  0  0  0  0  0  0  0  0  0
   60.4628  -14.4729   10.2343 C   0  0  1  0  0  0  0  0  0  0  0  0
   61.1977  -13.5935    9.2460 C   0  0  1  0  0  0  0  0  0  0  0  0
   61.7618  -12.4872   10.0993 C   0  0  2  0  0  0  0  0  0  0  0  0
   63.0743  -12.8435   10.5513 O   0  0  0  0  0  0  0  0  0  0  0  0
   62.2222  -14.3305    8.5607 O   0  0  0  0  0  0  0  0  0  0  0  0
   60.1706  -13.6443   11.3567 O   0  0  0  0  0  0  0  0  0  0  0  0
   60.8465  -12.4114   11.2936 C   0  0  2  0  0  0  0  0  0  0  0  0
   59.7700  -11.3470   11.2408 C   0  0  0  0  0  0  0  0  0  0  0  0
   60.3202  -10.0546   11.0892 O   0  0  0  0  0  0  0  0  0  0  0  0
   59.3323   -8.7990   11.0923 P   0  0  0  0  0  0  0  0  0  0  0  0
   58.7177   -8.7864   12.4775 O   0  0  0  0  0  0  0  0  0  0  0  0
   58.3800   -9.1416    9.9759 O   0  0  0  0  0  0  0  0  0  0  0  0
   60.2334   -7.6472   10.7428 O   0  0  0  0  0  0  0  0  0  0  0  0
  2  1  2  0  0  0  0
  2  4  1  0  0  0  0
  3  2  1  0  0  0  0
  4  7  1  0  0  0  0
  4  5  2  0  0  0  0
  5  6  1  0  0  0  0
  5  9  1  0  0  0  0
  7  8  2  0  0  0  0
  8  9  1  0  0  0  0
 10  9  1  6  0  0  0
 10 15  1  0  0  0  0
 11 14  1  1  0  0  0
 11 12  1  0  0  0  0
 11 10  1  0  0  0  0
 12 13  1  1  0  0  0
 12 16  1  0  0  0  0
 16 17  1  6  0  0  0
 16 15  1  0  0  0  0
 18 19  1  0  0  0  0
 18 17  1  0  0  0  0
 19 21  1  0  0  0  0
 20 19  1  0  0  0  0
 22 19  2  0  0  0  0
M  END
>  <CHROM.1>
-9.87577942,111.98996932,-58.33062302,63.97773217,-176.80922841,59.45429199
-13.10588001,9.96391363,1.81287338,0.14226034,-2.85088149

>  <Name>
lig.pdb

>  <RI>
0

>  <Rbt.Current_Directory>
/home/itssahil/PROJECTS/Mol_Feturizer/New_Systems/rnas/4znp

>  <Rbt.Executable>
rbdock ($Id: //depot/dev/client3/rdock/2013.1/src/exe/rbdock.cxx#4 $)

>  <Rbt.Library>
libRbt.so (2013.1, Build901 2013/11/27)

>  <Rbt.Parameter_File>
/export/apps/rDock/src/rDock_2013.1_src/data/scripts/dock_solv.prm

>  <Rbt.Receptor>
prm/pocket_docking_3.prm

>  <SCORE>
-25.2482

>  <SCORE.INTER>
-19.2211

>  <SCORE.INTER.CONST>
1

>  <SCORE.INTER.POLAR>
0

>  <SCORE.INTER.ROT>
5

>  <SCORE.INTER.SOLV>
20.5041

>  <SCORE.INTER.VDW>
-26.5821

>  <SCORE.INTER.norm>
-0.873686

>  <SCORE.INTRA>
-6.02709

>  <SCORE.INTRA.DIHEDRAL>
-9.1564

>  <SCORE.INTRA.DIHEDRAL.0>
11.9251

>  <SCORE.INTRA.POLAR>
0

>  <SCORE.INTRA.POLAR.0>
0

>  <SCORE.INTRA.REPUL>
0

>  <SCORE.INTRA.REPUL.0>
0

>  <SCORE.INTRA.SOLV>
-0.305424

>  <SCORE.INTRA.SOLV.lig_0>
-40.9823

>  <SCORE.INTRA.VDW>
-1.29618

>  <SCORE.INTRA.VDW.0>
-0.53506

>  <SCORE.INTRA.norm>
-0.273959

>  <SCORE.RESTR>
0

>  <SCORE.RESTR.CAVITY>
0

>  <SCORE.RESTR.norm>
0

>  <SCORE.SYSTEM>
0

>  <SCORE.SYSTEM.CONST>
0

>  <SCORE.SYSTEM.DIHEDRAL>
0

>  <SCORE.SYSTEM.SOLV>
0

>  <SCORE.SYSTEM.norm>
0

>  <SCORE.heavy>
22

>  <SCORE.norm>
-1.14764

>  <RMSD>
0.829

$$$$
lig.pdb
 OpenBabel11021811523D
libRbt.so/2013.1/901 2013/11/27
 22 23  0  0  0  0  0  0  0  0999 V2000
   57.5147  -18.4358    7.9938 O   0  0  0  0  0  0  0  0  0  0  0  0
   56.8928  -17.4095    8.1366 C   0  0  0  0  0  0  0  0  0  0  0  0
   55.6250  -17.3023    7.7801 N   0  0  0  0  0  0  0  0  0  0  0  0
   57.5549  -16.2156    8.6811 C   0  0  0  0  0  0  0  0  0  0  0  0
   58.9007  -16.1911    9.2585 C   0  0  0  0  0  0  0  0  0  0  0  0
   59.7176  -17.2580    9.3927 N   0  0  0  0  0  0  0  0  0  0  0  0
   57.1270  -14.9469    8.7801 N   0  0  0  0  0  0  0  0  0  0  0  0
   58.1190  -14.1991    9.3383 C   0  0  0  0  0  0  0  0  0  0  0  0
   59.2071  -14.9524    9.6272 N   0  0  0  0  0  0  0  0  0  0  0  0
   60.4690  -14.4597   10.2440 C   0  0  1  0  0  0  0  0  0  0  0  0
   61.1919  -13.5666    9.2592 C   0  0  1  0  0  0  0  0  0  0  0  0
   61.7555  -12.4652   10.1192 C   0  0  2  0  0  0  0  0  0  0  0  0
   63.0731  -12.8181   10.5589 O   0  0  0  0  0  0  0  0  0  0  0  0
   62.2161  -14.2910    8.5600 O   0  0  0  0  0  0  0  0  0  0  0  0
   60.1796  -13.6436   11.3762 O   0  0  0  0  0  0  0  0  0  0  0  0
   60.8479  -12.4062   11.3203 C   0  0  2  0  0  0  0  0  0  0  0  0
   59.7649  -11.3477   11.2850 C   0  0  0  0  0  0  0  0  0  0  0  0
   60.3026  -10.0567   11.0846 O   0  0  0  0  0  0  0  0  0  0  0  0
   59.3070   -8.8071   11.0802 P   0  0  0  0  0  0  0  0  0  0  0  0
   58.7528   -8.7417   12.4892 O   0  0  0  0  0  0  0  0  0  0  0  0
   58.3096   -9.1996   10.0209 O   0  0  0  0  0  0  0  0  0  0  0  0
   60.1840   -7.6657   10.6458 O   0  0  0  0  0  0  0  0  0  0  0  0
  2  1  2  0  0  0  0
  2  4  1  0  0  0  0
  3  2  1  0  0  0  0
  4  7  1  0  0  0  0
  4  5  2  0  0  0  0
  5  6  1  0  0  0  0
  5  9  1  0  0  0  0
  7  8  2  0  0  0  0
  8  9  1  0  0  0  0
 10  9  1  6  0  0  0
 10 15  1  0  0  0  0
 11 14  1  1  0  0  0
 11 12  1  0  0  0  0
 11 10  1  0  0  0  0
 12 13  1  1  0  0  0
 12 16  1  0  0  0  0
 16 17  1  6  0  0  0
 16 15  1  0  0  0  0
 18 19  1  0  0  0  0
 18 17  1  0  0  0  0
 19 21  1  0  0  0  0
 20 19  1  0  0  0  0
 22 19  2  0  0  0  0
M  END
>  <CHROM.1>
-8.98576034,111.79616822,-55.80024531,65.23202882,-177.52805551,59.44967798
-13.09789390,9.96902822,1.81061060,0.14413710,-2.85105074

>  <Name>
lig.pdb

>  <RI>
0

>  <Rbt.Current_Directory>
/home/itssahil/PROJECTS/Mol_Feturizer/New_Systems/rnas/4znp

>  <Rbt.Executable>
rbdock ($Id: //depot/dev/client3/rdock/2013.1/src/exe/rbdock.cxx#4 $)

>  <Rbt.Library>
libRbt.so (2013.1, Build901 2013/11/27)

>  <Rbt.Parameter_File>
/export/apps/rDock/src/rDock_2013.1_src/data/scripts/dock_solv.prm

>  <Rbt.Receptor>
prm/pocket_docking_3.prm

>  <SCORE>
-25.2167

>  <SCORE.INTER>
-19.2243

>  <SCORE.INTER.CONST>
1

>  <SCORE.INTER.POLAR>
0

>  <SCORE.INTER.ROT>
5

>  <SCORE.INTER.SOLV>
20.4874

>  <SCORE.INTER.VDW>
-26.5787

>  <SCORE.INTER.norm>
-0.873832

>  <SCORE.INTRA>
-5.99238

>  <SCORE.INTRA.DIHEDRAL>
-9.15444

>  <SCORE.INTRA.DIHEDRAL.0>
11.9251

>  <SCORE.INTRA.POLAR>
0

>  <SCORE.INTRA.POLAR.0>
0

>  <SCORE.INTRA.REPUL>
0

>  <SCORE.INTRA.REPUL.0>
0

>  <SCORE.INTRA.SOLV>
-0.289524

>  <SCORE.INTRA.SOLV.lig_0>
-40.9823

>  <SCORE.INTRA.VDW>
-1.2704

>  <SCORE.INTRA.VDW.0>
-0.53506

>  <SCORE.INTRA.norm>
-0.272381

>  <SCORE.RESTR>
0

>  <SCORE.RESTR.CAVITY>
0

>  <SCORE.RESTR.norm>
0

>  <SCORE.SYSTEM>
0

>  <SCORE.SYSTEM.CONST>
0

>  <SCORE.SYSTEM.DIHEDRAL>
0

>  <SCORE.SYSTEM.SOLV>
0

>  <SCORE.SYSTEM.norm>
0

>  <SCORE.heavy>
22

>  <SCORE.norm>
-1.14621

>  <RMSD>
0.831

$$$$
lig.pdb
 OpenBabel11021811523D
libRbt.so/2013.1/901 2013/11/27
 22 23  0  0  0  0  0  0  0  0999 V2000
   57.4467  -18.4049    8.0410 O   0  0  0  0  0  0  0  0  0  0  0  0
   56.8281  -17.3732    8.1569 C   0  0  0  0  0  0  0  0  0  0  0  0
   55.5690  -17.2633    7.7719 N   0  0  0  0  0  0  0  0  0  0  0  0
   57.4858  -16.1760    8.6997 C   0  0  0  0  0  0  0  0  0  0  0  0
   58.8088  -16.1563    9.3277 C   0  0  0  0  0  0  0  0  0  0  0  0
   59.6048  -17.2305    9.5170 N   0  0  0  0  0  0  0  0  0  0  0  0
   57.0725  -14.8998    8.7538 N   0  0  0  0  0  0  0  0  0  0  0  0
   58.0529  -14.1528    9.3329 C   0  0  0  0  0  0  0  0  0  0  0  0
   59.1185  -14.9137    9.6802 N   0  0  0  0  0  0  0  0  0  0  0  0
   60.3627  -14.4238   10.3339 C   0  0  1  0  0  0  0  0  0  0  0  0
   61.1419  -13.5740    9.3536 C   0  0  1  0  0  0  0  0  0  0  0  0
   61.6897  -12.4563   10.2027 C   0  0  2  0  0  0  0  0  0  0  0  0
   62.9814  -12.8180   10.7075 O   0  0  0  0  0  0  0  0  0  0  0  0
   62.1804  -14.3371    8.7199 O   0  0  0  0  0  0  0  0  0  0  0  0
   60.0421  -13.5682   11.4279 O   0  0  0  0  0  0  0  0  0  0  0  0
   60.7347  -12.3448   11.3627 C   0  0  2  0  0  0  0  0  0  0  0  0
   59.6737  -11.2695   11.2504 C   0  0  0  0  0  0  0  0  0  0  0  0
   60.2437   -9.9790   11.1750 O   0  0  0  0  0  0  0  0  0  0  0  0
   59.2690   -8.7131   11.1639 P   0  0  0  0  0  0  0  0  0  0  0  0
   58.5454   -8.7632   12.4945 O   0  0  0  0  0  0  0  0  0  0  0  0
   58.4065   -8.9872    9.9590 O   0  0  0  0  0  0  0  0  0  0  0  0
   60.2045   -7.5562   10.9470 O   0  0  0  0  0  0  0  0  0  0  0  0
  2  1  2  0  0  0  0
  2  4  1  0  0  0  0
  3  2  1  0  0  0  0
  4  7  1  0  0  0  0
  4  5  2  0  0  0  0
  5  6  1  0  0  0  0
  5  9  1  0  0  0  0
  7  8  2  0  0  0  0
  8  9  1  0  0  0  0
 10  9  1  6  0  0  0
 10 15  1  0  0  0  0
 11 14  1  1  0  0  0
 11 12  1  0  0  0  0
 11 10  1  0  0  0  0
 12 13  1  1  0  0  0
 12 16  1  0  0  0  0
 16 17  1  6  0  0  0
 16 15  1  0  0  0  0
 18 19  1  0  0  0  0
 18 17  1  0  0  0  0
 19 21  1  0  0  0  0
 20 19  1  0  0  0  0
 22 19  2  0  0  0  0
M  END
>  <CHROM.1>
-10.17871029,111.25455731,-62.01213877,62.37285040,-175.42847601,59.38161947
-13.04829845,10.03339422,1.81031322,0.16506688,-2.85378282

>  <Name>
lig.pdb

>  <RI>
0

>  <Rbt.Current_Directory>
/home/itssahil/PROJECTS/Mol_Feturizer/New_Systems/rnas/4znp

>  <Rbt.Executable>
rbdock ($Id: //depot/dev/client3/rdock/2013.1/src/exe/rbdock.cxx#4 $)

>  <Rbt.Library>
libRbt.so (2013.1, Build901 2013/11/27)

>  <Rbt.Parameter_File>
/export/apps/rDock/src/rDock_2013.1_src/data/scripts/dock_solv.prm

>  <Rbt.Receptor>
prm/pocket_docking_2.prm

>  <SCORE>
-25.1449

>  <SCORE.INTER>
-19.1069

>  <SCORE.INTER.CONST>
1

>  <SCORE.INTER.POLAR>
0

>  <SCORE.INTER.ROT>
5

>  <SCORE.INTER.SOLV>
20.5786

>  <SCORE.INTER.VDW>
-26.5308

>  <SCORE.INTER.norm>
-0.868493

>  <SCORE.INTRA>
-6.03806

>  <SCORE.INTRA.DIHEDRAL>
-9.1003

>  <SCORE.INTRA.DIHEDRAL.0>
11.9251

>  <SCORE.INTRA.POLAR>
0

>  <SCORE.INTRA.POLAR.0>
0

>  <SCORE.INTRA.REPUL>
0

>  <SCORE.INTRA.REPUL.0>
0

>  <SCORE.INTRA.SOLV>
-0.319979

>  <SCORE.INTRA.SOLV.lig_0>
-40.9823

>  <SCORE.INTRA.VDW>
-1.32792

>  <SCORE.INTRA.VDW.0>
-0.53506

>  <SCORE.INTRA.norm>
-0.274457

>  <SCORE.RESTR>
0

>  <SCORE.RESTR.CAVITY>
0

>  <SCORE.RESTR.norm>
0

>  <SCORE.SYSTEM>
0

>  <SCORE.SYSTEM.CONST>
0

>  <SCORE.SYSTEM.DIHEDRAL>
0

>  <SCORE.SYSTEM.SOLV>
0

>  <SCORE.SYSTEM.norm>
0

>  <SCORE.heavy>
22

>  <SCORE.norm>
-1.14295

>  <RMSD>
0.834

$$$$
lig.pdb
 OpenBabel11021811523D
libRbt.so/2013.1/901 2013/11/27
 22 23  0  0  0  0  0  0  0  0999 V2000
   57.7725  -18.3216    8.1215 O   0  0  0  0  0  0  0  0  0  0  0  0
   57.0779  -17.3373    8.2164 C   0  0  0  0  0  0  0  0  0  0  0  0
   55.8161  -17.3289    7.8244 N   0  0  0  0  0  0  0  0  0  0  0  0
   57.6412  -16.0849    8.7402 C   0  0  0  0  0  0  0  0  0  0  0  0
   58.9601  -15.9529    9.3633 C   0  0  0  0  0  0  0  0  0  0  0  0
   59.8382  -16.9588    9.5646 N   0  0  0  0  0  0  0  0  0  0  0  0
   57.1294  -14.8443    8.7781 N   0  0  0  0  0  0  0  0  0  0  0  0
   58.0498  -14.0148    9.3434 C   0  0  0  0  0  0  0  0  0  0  0  0
   59.1724  -14.6850    9.6975 N   0  0  0  0  0  0  0  0  0  0  0  0
   60.3761  -14.0902   10.3399 C   0  0  1  0  0  0  0  0  0  0  0  0
   61.5044  -14.0334    9.3330 C   0  0  1  0  0  0  0  0  0  0  0  0
   62.1814  -12.7194    9.6252 C   0  0  2  0  0  0  0  0  0  0  0  0
   63.2282  -12.9150   10.5843 O   0  0  0  0  0  0  0  0  0  0  0  0
   62.3926  -15.1512    9.4886 O   0  0  0  0  0  0  0  0  0  0  0  0
   60.1181  -12.7403   10.7181 O   0  0  0  0  0  0  0  0  0  0  0  0
   61.1121  -11.8610   10.2495 C   0  0  2  0  0  0  0  0  0  0  0  0
   60.4092  -10.8926    9.3207 C   0  0  0  0  0  0  0  0  0  0  0  0
   59.3781  -10.1891    9.9825 O   0  0  0  0  0  0  0  0  0  0  0  0
   59.7784   -9.1229   11.1030 P   0  0  0  0  0  0  0  0  0  0  0  0
   60.8401   -8.2550   10.4577 O   0  0  0  0  0  0  0  0  0  0  0  0
   60.2703  -10.0062   12.2204 O   0  0  0  0  0  0  0  0  0  0  0  0
   58.4709   -8.4577   11.4325 O   0  0  0  0  0  0  0  0  0  0  0  0
  2  1  2  0  0  0  0
  2  4  1  0  0  0  0
  3  2  1  0  0  0  0
  4  7  1  0  0  0  0
  4  5  2  0  0  0  0
  5  6  1  0  0  0  0
  5  9  1  0  0  0  0
  7  8  2  0  0  0  0
  8  9  1  0  0  0  0
 10  9  1  6  0  0  0
 10 15  1  0  0  0  0
 11 14  1  1  0  0  0
 11 12  1  0  0  0  0
 11 10  1  0  0  0  0
 12 13  1  1  0  0  0
 12 16  1  0  0  0  0
 16 17  1  6  0  0  0
 16 15  1  0  0  0  0
 18 19  1  0  0  0  0
 18 17  1  0  0  0  0
 19 21  1  0  0  0  0
 20 19  1  0  0  0  0
 22 19  2  0  0  0  0
M  END
>  <CHROM.1>
-9.65377631,72.95154943,176.76219274,49.64567934,68.70148394,59.67224947
-13.10734212,9.86722436,1.86213785,0.13301824,-2.87600433

>  <Name>
lig.pdb

>  <RI>
0

>  <Rbt.Current_Directory>
/home/itssahil/PROJECTS/Mol_Feturizer/New_Systems/rnas/4znp

>  <Rbt.Executable>
rbdock ($Id: //depot/dev/client3/rdock/2013.1/src/exe/rbdock.cxx#4 $)

>  <Rbt.Library>
libRbt.so (2013.1, Build901 2013/11/27)

>  <Rbt.Parameter_File>
/export/apps/rDock/src/rDock_2013.1_src/data/scripts/dock_solv.prm

>  <Rbt.Receptor>
prm/pocket_docking_3.prm

>  <SCORE>
-24.7237

>  <SCORE.INTER>
-19.4779

>  <SCORE.INTER.CONST>
1

>  <SCORE.INTER.POLAR>
0

>  <SCORE.INTER.ROT>
5

>  <SCORE.INTER.SOLV>
19.6344

>  <SCORE.INTER.VDW>
-26.4634

>  <SCORE.INTER.norm>
-0.885358

>  <SCORE.INTRA>
-5.24585

>  <SCORE.INTRA.DIHEDRAL>
-8.71969

>  <SCORE.INTRA.DIHEDRAL.0>
11.9251

>  <SCORE.INTRA.POLAR>
0

>  <SCORE.INTRA.POLAR.0>
0

>  <SCORE.INTRA.REPUL>
0

>  <SCORE.INTRA.REPUL.0>
0

>  <SCORE.INTRA.SOLV>
0.942372

>  <SCORE.INTRA.SOLV.lig_0>
-40.9823

>  <SCORE.INTRA.VDW>
-1.35719

>  <SCORE.INTRA.VDW.0>
-0.53506

>  <SCORE.INTRA.norm>
-0.238448

>  <SCORE.RESTR>
0

>  <SCORE.RESTR.CAVITY>
0

>  <SCORE.RESTR.norm>
0

>  <SCORE.SYSTEM>
0

>  <SCORE.SYSTEM.CONST>
0

>  <SCORE.SYSTEM.DIHEDRAL>
0

>  <SCORE.SYSTEM.SOLV>
0

>  <SCORE.SYSTEM.norm>
0

>  <SCORE.heavy>
22

>  <SCORE.norm>
-1.12381

>  <RMSD>
0.841

$$$$
lig.pdb
 OpenBabel11021811523D
libRbt.so/2013.1/901 2013/11/27
 22 23  0  0  0  0  0  0  0  0999 V2000
   57.5191  -18.4349    8.0058 O   0  0  0  0  0  0  0  0  0  0  0  0
   56.8969  -17.4086    8.1477 C   0  0  0  0  0  0  0  0  0  0  0  0
   55.6294  -17.3016    7.7904 N   0  0  0  0  0  0  0  0  0  0  0  0
   57.5587  -16.2143    8.6917 C   0  0  0  0  0  0  0  0  0  0  0  0
   58.9074  -16.1877    9.2623 C   0  0  0  0  0  0  0  0  0  0  0  0
   59.7277  -17.2527    9.3896 N   0  0  0  0  0  0  0  0  0  0  0  0
   57.1280  -14.9470    8.7961 N   0  0  0  0  0  0  0  0  0  0  0  0
   58.1208  -14.1980    9.3512 C   0  0  0  0  0  0  0  0  0  0  0  0
   59.2124  -14.9491    9.6326 N   0  0  0  0  0  0  0  0  0  0  0  0
   60.4761  -14.4546   10.2441 C   0  0  1  0  0  0  0  0  0  0  0  0
   61.1952  -13.5628    9.2553 C   0  0  1  0  0  0  0  0  0  0  0  0
   61.7610  -12.4595   10.1114 C   0  0  2  0  0  0  0  0  0  0  0  0
   63.0804  -12.8110   10.5472 O   0  0  0  0  0  0  0  0  0  0  0  0
   62.2173  -14.2879    8.5538 O   0  0  0  0  0  0  0  0  0  0  0  0
   60.1902  -13.6366   11.3759 O   0  0  0  0  0  0  0  0  0  0  0  0
   60.8576  -12.3990   11.3156 C   0  0  2  0  0  0  0  0  0  0  0  0
   59.7739  -11.3412   11.2822 C   0  0  0  0  0  0  0  0  0  0  0  0
   60.3153  -10.0424   11.1548 O   0  0  0  0  0  0  0  0  0  0  0  0
   59.3186   -8.7940   11.1785 P   0  0  0  0  0  0  0  0  0  0  0  0
   58.2954   -9.0879   10.0998 O   0  0  0  0  0  0  0  0  0  0  0  0
   60.2446   -7.6429   10.8815 O   0  0  0  0  0  0  0  0  0  0  0  0
   58.8187   -8.7754   12.5964 O   0  0  0  0  0  0  0  0  0  0  0  0
  2  1  2  0  0  0  0
  2  4  1  0  0  0  0
  3  2  1  0  0  0  0
  4  7  1  0  0  0  0
  4  5  2  0  0  0  0
  5  6  1  0  0  0  0
  5  9  1  0  0  0  0
  7  8  2  0  0  0  0
  8  9  1  0  0  0  0
 10  9  1  6  0  0  0
 10 15  1  0  0  0  0
 11 14  1  1  0  0  0
 11 12  1  0  0  0  0
 11 10  1  0  0  0  0
 12 13  1  1  0  0  0
 12 16  1  0  0  0  0
 16 17  1  6  0  0  0
 16 15  1  0  0  0  0
 18 19  1  0  0  0  0
 18 17  1  0  0  0  0
 19 21  1  0  0  0  0
 20 19  1  0  0  0  0
 22 19  2  0  0  0  0
M  END
>  <CHROM.1>
-8.58726708,111.50899492,-59.19241250,-54.17312621,-176.90210128,59.46084929
-13.08842897,10.00368458,1.80977455,0.13133460,-2.83788139

>  <Name>
lig.pdb

>  <RI>
0

>  <Rbt.Current_Directory>
/home/itssahil/PROJECTS/Mol_Feturizer/New_Systems/rnas/4znp

>  <Rbt.Executable>
rbdock ($Id: //depot/dev/client3/rdock/2013.1/src/exe/rbdock.cxx#4 $)

>  <Rbt.Library>
libRbt.so (2013.1, Build901 2013/11/27)

>  <Rbt.Parameter_File>
/export/apps/rDock/src/rDock_2013.1_src/data/scripts/dock_solv.prm

>  <Rbt.Receptor>
prm/pocket_docking_2.prm

>  <SCORE>
-25.1441

>  <SCORE.INTER>
-19.1149

>  <SCORE.INTER.CONST>
1

>  <SCORE.INTER.POLAR>
0

>  <SCORE.INTER.ROT>
5

>  <SCORE.INTER.SOLV>
20.3677

>  <SCORE.INTER.VDW>
-26.4658

>  <SCORE.INTER.norm>
-0.868861

>  <SCORE.INTRA>
-6.02913

>  <SCORE.INTRA.DIHEDRAL>
-9.20557

>  <SCORE.INTRA.DIHEDRAL.0>
11.9251

>  <SCORE.INTRA.POLAR>
0

>  <SCORE.INTRA.POLAR.0>
0

>  <SCORE.INTRA.REPUL>
0

>  <SCORE.INTRA.REPUL.0>
0

>  <SCORE.INTRA.SOLV>
-0.0797437

>  <SCORE.INTRA.SOLV.lig_0>
-40.9823

>  <SCORE.INTRA.VDW>
-1.38647

>  <SCORE.INTRA.VDW.0>
-0.53506

>  <SCORE.INTRA.norm>
-0.274051

>  <SCORE.RESTR>
0

>  <SCORE.RESTR.CAVITY>
0

>  <SCORE.RESTR.norm>
0

>  <SCORE.SYSTEM>
0

>  <SCORE.SYSTEM.CONST>
0

>  <SCORE.SYSTEM.DIHEDRAL>
0

>  <SCORE.SYSTEM.SOLV>
0

>  <SCORE.SYSTEM.norm>
0

>  <SCORE.heavy>
22

>  <SCORE.norm>
-1.14291

>  <RMSD>
0.843

$$$$
lig.pdb
 OpenBabel11021811523D
libRbt.so/2013.1/901 2013/11/27
 22 23  0  0  0  0  0  0  0  0999 V2000
   57.4385  -18.4373    8.0076 O   0  0  0  0  0  0  0  0  0  0  0  0
   56.8191  -17.4050    8.1133 C   0  0  0  0  0  0  0  0  0  0  0  0
   55.5637  -17.2965    7.7159 N   0  0  0  0  0  0  0  0  0  0  0  0
   57.4718  -16.2057    8.6573 C   0  0  0  0  0  0  0  0  0  0  0  0
   58.7844  -16.1853    9.3070 C   0  0  0  0  0  0  0  0  0  0  0  0
   59.5735  -17.2606    9.5179 N   0  0  0  0  0  0  0  0  0  0  0  0
   57.0620  -14.9278    8.6945 N   0  0  0  0  0  0  0  0  0  0  0  0
   58.0353  -14.1794    9.2839 C   0  0  0  0  0  0  0  0  0  0  0  0
   59.0924  -14.9409    9.6547 N   0  0  0  0  0  0  0  0  0  0  0  0
   60.3274  -14.4500   10.3249 C   0  0  1  0  0  0  0  0  0  0  0  0
   61.1085  -13.5827    9.3617 C   0  0  1  0  0  0  0  0  0  0  0  0
   61.6408  -12.4714   10.2290 C   0  0  2  0  0  0  0  0  0  0  0  0
   62.9308  -12.8298   10.7404 O   0  0  0  0  0  0  0  0  0  0  0  0
   62.1581  -14.3304    8.7278 O   0  0  0  0  0  0  0  0  0  0  0  0
   59.9911  -13.6101   11.4264 O   0  0  0  0  0  0  0  0  0  0  0  0
   60.6751  -12.3809   11.3819 C   0  0  2  0  0  0  0  0  0  0  0  0
   59.6072  -11.3121   11.2735 C   0  0  0  0  0  0  0  0  0  0  0  0
   60.1699  -10.0232   11.1391 O   0  0  0  0  0  0  0  0  0  0  0  0
   59.1914   -8.7602   11.1289 P   0  0  0  0  0  0  0  0  0  0  0  0
   58.5380   -8.7587   12.4963 O   0  0  0  0  0  0  0  0  0  0  0  0
   58.2685   -9.0829    9.9822 O   0  0  0  0  0  0  0  0  0  0  0  0
   60.1103   -7.6113   10.8182 O   0  0  0  0  0  0  0  0  0  0  0  0
  2  1  2  0  0  0  0
  2  4  1  0  0  0  0
  3  2  1  0  0  0  0
  4  7  1  0  0  0  0
  4  5  2  0  0  0  0
  5  6  1  0  0  0  0
  5  9  1  0  0  0  0
  7  8  2  0  0  0  0
  8  9  1  0  0  0  0
 10  9  1  6  0  0  0
 10 15  1  0  0  0  0
 11 14  1  1  0  0  0
 11 12  1  0  0  0  0
 11 10  1  0  0  0  0
 12 13  1  1  0  0  0
 12 16  1  0  0  0  0
 16 17  1  6  0  0  0
 16 15  1  0  0  0  0
 18 19  1  0  0  0  0
 18 17  1  0  0  0  0
 19 21  1  0  0  0  0
 20 19  1  0  0  0  0
 22 19  2  0  0  0  0
M  END
>  <CHROM.1>
-10.66856277,112.63415986,-58.52893305,63.36258525,-175.18377573,59.33741757
-13.08037316,10.01461830,1.80503905,0.17924677,-2.85435746

>  <Name>
lig.pdb

>  <RI>
0

>  <Rbt.Current_Directory>
/home/itssahil/PROJECTS/Mol_Feturizer/New_Systems/rnas/4znp

>  <Rbt.Executable>
rbdock ($Id: //depot/dev/client3/rdock/2013.1/src/exe/rbdock.cxx#4 $)

>  <Rbt.Library>
libRbt.so (2013.1, Build901 2013/11/27)

>  <Rbt.Parameter_File>
/export/apps/rDock/src/rDock_2013.1_src/data/scripts/dock_solv.prm

>  <Rbt.Receptor>
prm/pocket_docking_5.prm

>  <SCORE>
-25.2087

>  <SCORE.INTER>
-19.223

>  <SCORE.INTER.CONST>
1

>  <SCORE.INTER.POLAR>
0

>  <SCORE.INTER.ROT>
5

>  <SCORE.INTER.SOLV>
20.7624

>  <SCORE.INTER.VDW>
-26.6695

>  <SCORE.INTER.norm>
-0.873773

>  <SCORE.INTRA>
-5.98571

>  <SCORE.INTRA.DIHEDRAL>
-9.05255

>  <SCORE.INTRA.DIHEDRAL.0>
11.9251

>  <SCORE.INTRA.POLAR>
0

>  <SCORE.INTRA.POLAR.0>
0

>  <SCORE.INTRA.REPUL>
0

>  <SCORE.INTRA.REPUL.0>
0

>  <SCORE.INTRA.SOLV>
-0.318775

>  <SCORE.INTRA.SOLV.lig_0>
-40.9823

>  <SCORE.INTRA.VDW>
-1.30005

>  <SCORE.INTRA.VDW.0>
-0.53506

>  <SCORE.INTRA.norm>
-0.272078

>  <SCORE.RESTR>
0

>  <SCORE.RESTR.CAVITY>
0

>  <SCORE.RESTR.norm>
0

>  <SCORE.SYSTEM>
0

>  <SCORE.SYSTEM.CONST>
0

>  <SCORE.SYSTEM.DIHEDRAL>
0

>  <SCORE.SYSTEM.SOLV>
0

>  <SCORE.SYSTEM.norm>
0

>  <SCORE.heavy>
22

>  <SCORE.norm>
-1.14585

>  <RMSD>
0.851

$$$$
lig.pdb
 OpenBabel11021811523D
libRbt.so/2013.1/901 2013/11/27
 22 23  0  0  0  0  0  0  0  0999 V2000
   57.5173  -18.4706    7.9773 O   0  0  0  0  0  0  0  0  0  0  0  0
   56.8917  -17.4497    8.1409 C   0  0  0  0  0  0  0  0  0  0  0  0
   55.6140  -17.3508    7.8192 N   0  0  0  0  0  0  0  0  0  0  0  0
   57.5593  -16.2528    8.6720 C   0  0  0  0  0  0  0  0  0  0  0  0
   58.9026  -16.2293    9.2554 C   0  0  0  0  0  0  0  0  0  0  0  0
   59.7116  -17.2996    9.4082 N   0  0  0  0  0  0  0  0  0  0  0  0
   57.1396  -14.9800    8.7513 N   0  0  0  0  0  0  0  0  0  0  0  0
   58.1339  -14.2312    9.3039 C   0  0  0  0  0  0  0  0  0  0  0  0
   59.2156  -14.9877    9.6084 N   0  0  0  0  0  0  0  0  0  0  0  0
   60.4778  -14.4949   10.2243 C   0  0  1  0  0  0  0  0  0  0  0  0
   61.1867  -13.5802    9.2491 C   0  0  1  0  0  0  0  0  0  0  0  0
   61.7476  -12.4883   10.1230 C   0  0  2  0  0  0  0  0  0  0  0  0
   63.0710  -12.8377   10.5478 O   0  0  0  0  0  0  0  0  0  0  0  0
   62.2116  -14.2850    8.5312 O   0  0  0  0  0  0  0  0  0  0  0  0
   60.1901  -13.6995   11.3716 O   0  0  0  0  0  0  0  0  0  0  0  0
   60.8481  -12.4561   11.3312 C   0  0  2  0  0  0  0  0  0  0  0  0
   59.7566  -11.4059   11.3206 C   0  0  0  0  0  0  0  0  0  0  0  0
   60.2898  -10.0987   11.2663 O   0  0  0  0  0  0  0  0  0  0  0  0
   59.2859   -8.8597   11.3659 P   0  0  0  0  0  0  0  0  0  0  0  0
   58.5955   -9.0206   12.7054 O   0  0  0  0  0  0  0  0  0  0  0  0
   58.4016   -9.0702   10.1641 O   0  0  0  0  0  0  0  0  0  0  0  0
   60.1889   -7.6676   11.2105 O   0  0  0  0  0  0  0  0  0  0  0  0
  2  1  2  0  0  0  0
  2  4  1  0  0  0  0
  3  2  1  0  0  0  0
  4  7  1  0  0  0  0
  4  5  2  0  0  0  0
  5  6  1  0  0  0  0
  5  9  1  0  0  0  0
  7  8  2  0  0  0  0
  8  9  1  0  0  0  0
 10  9  1  6  0  0  0
 10 15  1  0  0  0  0
 11 14  1  1  0  0  0
 11 12  1  0  0  0  0
 11 10  1  0  0  0  0
 12 13  1  1  0  0  0
 12 16  1  0  0  0  0
 16 17  1  6  0  0  0
 16 15  1  0  0  0  0
 18 19  1  0  0  0  0
 18 17  1  0  0  0  0
 19 21  1  0  0  0  0
 20 19  1  0  0  0  0
 22 19  2  0  0  0  0
M  END
>  <CHROM.1>
-11.22573184,113.82694674,-61.44924742,59.70699403,-175.16957035,59.44491102
-13.13672632,10.04602855,1.80353507,0.10873457,-2.81268310

>  <Name>
lig.pdb

>  <RI>
0

>  <Rbt.Current_Directory>
/home/itssahil/PROJECTS/Mol_Feturizer/New_Systems/rnas/4znp

>  <Rbt.Executable>
rbdock ($Id: //depot/dev/client3/rdock/2013.1/src/exe/rbdock.cxx#4 $)

>  <Rbt.Library>
libRbt.so (2013.1, Build901 2013/11/27)

>  <Rbt.Parameter_File>
/export/apps/rDock/src/rDock_2013.1_src/data/scripts/dock_solv.prm

>  <Rbt.Receptor>
prm/pocket_docking_2.prm

>  <SCORE>
-25.1989

>  <SCORE.INTER>
-19.1766

>  <SCORE.INTER.CONST>
1

>  <SCORE.INTER.POLAR>
0

>  <SCORE.INTER.ROT>
5

>  <SCORE.INTER.SOLV>
20.411

>  <SCORE.INTER.VDW>
-26.5214

>  <SCORE.INTER.norm>
-0.871666

>  <SCORE.INTRA>
-6.02228

>  <SCORE.INTRA.DIHEDRAL>
-9.03835

>  <SCORE.INTRA.DIHEDRAL.0>
11.9251

>  <SCORE.INTRA.POLAR>
0

>  <SCORE.INTRA.POLAR.0>
0

>  <SCORE.INTRA.REPUL>
0

>  <SCORE.INTRA.REPUL.0>
0

>  <SCORE.INTRA.SOLV>
-0.343003

>  <SCORE.INTRA.SOLV.lig_0>
-40.9823

>  <SCORE.INTRA.VDW>
-1.3316

>  <SCORE.INTRA.VDW.0>
-0.53506

>  <SCORE.INTRA.norm>
-0.27374

>  <SCORE.RESTR>
0

>  <SCORE.RESTR.CAVITY>
0

>  <SCORE.RESTR.norm>
0

>  <SCORE.SYSTEM>
0

>  <SCORE.SYSTEM.CONST>
0

>  <SCORE.SYSTEM.DIHEDRAL>
0

>  <SCORE.SYSTEM.SOLV>
0

>  <SCORE.SYSTEM.norm>
0

>  <SCORE.heavy>
22

>  <SCORE.norm>
-1.14541

>  <RMSD>
0.867

$$$$
lig.pdb
 OpenBabel11021811523D
libRbt.so/2013.1/901 2013/11/27
 22 23  0  0  0  0  0  0  0  0999 V2000
   57.4262  -18.4488    8.0194 O   0  0  0  0  0  0  0  0  0  0  0  0
   56.7885  -17.4281    8.1290 C   0  0  0  0  0  0  0  0  0  0  0  0
   55.5311  -17.3406    7.7327 N   0  0  0  0  0  0  0  0  0  0  0  0
   57.4201  -16.2192    8.6768 C   0  0  0  0  0  0  0  0  0  0  0  0
   58.7323  -16.1777    9.3261 C   0  0  0  0  0  0  0  0  0  0  0  0
   59.5404  -17.2395    9.5332 N   0  0  0  0  0  0  0  0  0  0  0  0
   56.9877  -14.9489    8.7184 N   0  0  0  0  0  0  0  0  0  0  0  0
   57.9478  -14.1853    9.3099 C   0  0  0  0  0  0  0  0  0  0  0  0
   59.0184  -14.9292    9.6778 N   0  0  0  0  0  0  0  0  0  0  0  0
   60.2447  -14.4186   10.3493 C   0  0  1  0  0  0  0  0  0  0  0  0
   60.9977  -13.5155    9.3966 C   0  0  1  0  0  0  0  0  0  0  0  0
   61.5072  -12.4061   10.2798 C   0  0  2  0  0  0  0  0  0  0  0  0
   62.8089  -12.7403   10.7775 O   0  0  0  0  0  0  0  0  0  0  0  0
   62.0618  -14.2255    8.7438 O   0  0  0  0  0  0  0  0  0  0  0  0
   59.8942  -13.6065   11.4670 O   0  0  0  0  0  0  0  0  0  0  0  0
   60.5467  -12.3598   11.4397 C   0  0  2  0  0  0  0  0  0  0  0  0
   59.4515  -11.3167   11.3559 C   0  0  0  0  0  0  0  0  0  0  0  0
   59.9744  -10.0296   11.0988 O   0  0  0  0  0  0  0  0  0  0  0  0
   58.9611   -8.7978   11.0085 P   0  0  0  0  0  0  0  0  0  0  0  0
   57.8533   -9.2675   10.0870 O   0  0  0  0  0  0  0  0  0  0  0  0
   59.8365   -7.7070   10.4477 O   0  0  0  0  0  0  0  0  0  0  0  0
   58.5864   -8.5502   12.4434 O   0  0  0  0  0  0  0  0  0  0  0  0
  2  1  2  0  0  0  0
  2  4  1  0  0  0  0
  3  2  1  0  0  0  0
  4  7  1  0  0  0  0
  4  5  2  0  0  0  0
  5  6  1  0  0  0  0
  5  9  1  0  0  0  0
  7  8  2  0  0  0  0
  8  9  1  0  0  0  0
 10  9  1  6  0  0  0
 10 15  1  0  0  0  0
 11 14  1  1  0  0  0
 11 12  1  0  0  0  0
 11 10  1  0  0  0  0
 12 13  1  1  0  0  0
 12 16  1  0  0  0  0
 16 17  1  6  0  0  0
 16 15  1  0  0  0  0
 18 19  1  0  0  0  0
 18 17  1  0  0  0  0
 19 21  1  0  0  0  0
 20 19  1  0  0  0  0
 22 19  2  0  0  0  0
M  END
>  <CHROM.1>
-10.68518507,113.59507395,-52.28640835,-48.14895265,-178.73185563,59.21743364
-13.07420533,10.00752715,1.78990922,0.19424377,-2.86495123

>  <Name>
lig.pdb

>  <RI>
0

>  <Rbt.Current_Directory>
/home/itssahil/PROJECTS/Mol_Feturizer/New_Systems/rnas/4znp

>  <Rbt.Executable>
rbdock ($Id: //depot/dev/client3/rdock/2013.1/src/exe/rbdock.cxx#4 $)

>  <Rbt.Library>
libRbt.so (2013.1, Build901 2013/11/27)

>  <Rbt.Parameter_File>
/export/apps/rDock/src/rDock_2013.1_src/data/scripts/dock_solv.prm

>  <Rbt.Receptor>
prm/pocket_docking_2.prm

>  <SCORE>
-25.1658

>  <SCORE.INTER>
-19.3892

>  <SCORE.INTER.CONST>
1

>  <SCORE.INTER.POLAR>
0

>  <SCORE.INTER.ROT>
5

>  <SCORE.INTER.SOLV>
20.8268

>  <SCORE.INTER.VDW>
-26.8018

>  <SCORE.INTER.norm>
-0.881328

>  <SCORE.INTRA>
-5.77654

>  <SCORE.INTRA.DIHEDRAL>
-8.73101

>  <SCORE.INTRA.DIHEDRAL.0>
11.9251

>  <SCORE.INTRA.POLAR>
0

>  <SCORE.INTRA.POLAR.0>
0

>  <SCORE.INTRA.REPUL>
0

>  <SCORE.INTRA.REPUL.0>
0

>  <SCORE.INTRA.SOLV>
-0.0921911

>  <SCORE.INTRA.SOLV.lig_0>
-40.9823

>  <SCORE.INTRA.VDW>
-1.36494

>  <SCORE.INTRA.VDW.0>
-0.53506

>  <SCORE.INTRA.norm>
-0.26257

>  <SCORE.RESTR>
0

>  <SCORE.RESTR.CAVITY>
0

>  <SCORE.RESTR.norm>
0

>  <SCORE.SYSTEM>
0

>  <SCORE.SYSTEM.CONST>
0

>  <SCORE.SYSTEM.DIHEDRAL>
0

>  <SCORE.SYSTEM.SOLV>
0

>  <SCORE.SYSTEM.norm>
0

>  <SCORE.heavy>
22

>  <SCORE.norm>
-1.1439

>  <RMSD>
0.898

$$$$
lig.pdb
 OpenBabel11021811523D
libRbt.so/2013.1/901 2013/11/27
 22 23  0  0  0  0  0  0  0  0999 V2000
   57.6967  -18.2684    8.1291 O   0  0  0  0  0  0  0  0  0  0  0  0
   57.0150  -17.2732    8.2018 C   0  0  0  0  0  0  0  0  0  0  0  0
   55.7610  -17.2501    7.7863 N   0  0  0  0  0  0  0  0  0  0  0  0
   57.5868  -16.0242    8.7246 C   0  0  0  0  0  0  0  0  0  0  0  0
   58.9057  -15.9010    9.3495 C   0  0  0  0  0  0  0  0  0  0  0  0
   59.7760  -16.9131    9.5537 N   0  0  0  0  0  0  0  0  0  0  0  0
   57.0842  -14.7797    8.7598 N   0  0  0  0  0  0  0  0  0  0  0  0
   58.0099  -13.9562    9.3252 C   0  0  0  0  0  0  0  0  0  0  0  0
   59.1270  -14.6342    9.6820 N   0  0  0  0  0  0  0  0  0  0  0  0
   60.3341  -14.0474   10.3253 C   0  0  1  0  0  0  0  0  0  0  0  0
   61.4699  -14.0184    9.3257 C   0  0  1  0  0  0  0  0  0  0  0  0
   62.1624  -12.7099    9.6061 C   0  0  2  0  0  0  0  0  0  0  0  0
   63.2000  -12.9072   10.5749 O   0  0  0  0  0  0  0  0  0  0  0  0
   62.3419  -15.1459    9.5015 O   0  0  0  0  0  0  0  0  0  0  0  0
   60.0916  -12.6895   10.6846 O   0  0  0  0  0  0  0  0  0  0  0  0
   61.1004  -11.8295   10.2120 C   0  0  2  0  0  0  0  0  0  0  0  0
   60.4170  -10.8637    9.2662 C   0  0  0  0  0  0  0  0  0  0  0  0
   60.4027   -9.5488    9.7826 O   0  0  0  0  0  0  0  0  0  0  0  0
   59.4347   -9.2211   11.0107 P   0  0  0  0  0  0  0  0  0  0  0  0
   59.6620   -7.7527   11.3088 O   0  0  0  0  0  0  0  0  0  0  0  0
   59.9327  -10.1706   12.0696 O   0  0  0  0  0  0  0  0  0  0  0  0
   58.0755   -9.6027   10.4932 O   0  0  0  0  0  0  0  0  0  0  0  0
  2  1  2  0  0  0  0
  2  4  1  0  0  0  0
  3  2  1  0  0  0  0
  4  7  1  0  0  0  0
  4  5  2  0  0  0  0
  5  6  1  0  0  0  0
  5  9  1  0  0  0  0
  7  8  2  0  0  0  0
  8  9  1  0  0  0  0
 10  9  1  6  0  0  0
 10 15  1  0  0  0  0
 11 14  1  1  0  0  0
 11 12  1  0  0  0  0
 11 10  1  0  0  0  0
 12 13  1  1  0  0  0
 12 16  1  0  0  0  0
 16 17  1  6  0  0  0
 16 15  1  0  0  0  0
 18 19  1  0  0  0  0
 18 17  1  0  0  0  0
 19 21  1  0  0  0  0
 20 19  1  0  0  0  0
 22 19  2  0  0  0  0
M  END
>  <CHROM.1>
-8.49622610,72.16765381,-129.91314832,-179.96986517,-71.97044646,59.56771105
-13.09492910,9.82495652,1.84694471,0.14109615,-2.88201222

>  <Name>
lig.pdb

>  <RI>
0

>  <Rbt.Current_Directory>
/home/itssahil/PROJECTS/Mol_Feturizer/New_Systems/rnas/4znp

>  <Rbt.Executable>
rbdock ($Id: //depot/dev/client3/rdock/2013.1/src/exe/rbdock.cxx#4 $)

>  <Rbt.Library>
libRbt.so (2013.1, Build901 2013/11/27)

>  <Rbt.Parameter_File>
/export/apps/rDock/src/rDock_2013.1_src/data/scripts/dock_solv.prm

>  <Rbt.Receptor>
prm/pocket_docking_2.prm

>  <SCORE>
-22.0245

>  <SCORE.INTER>
-19.6567

>  <SCORE.INTER.CONST>
1

>  <SCORE.INTER.POLAR>
0

>  <SCORE.INTER.ROT>
5

>  <SCORE.INTER.SOLV>
20.1805

>  <SCORE.INTER.VDW>
-26.7646

>  <SCORE.INTER.norm>
-0.893487

>  <SCORE.INTRA>
-2.36781

>  <SCORE.INTRA.DIHEDRAL>
-3.74426

>  <SCORE.INTRA.DIHEDRAL.0>
11.9251

>  <SCORE.INTRA.POLAR>
0

>  <SCORE.INTRA.POLAR.0>
0

>  <SCORE.INTRA.REPUL>
0

>  <SCORE.INTRA.REPUL.0>
0

>  <SCORE.INTRA.SOLV>
1.39118

>  <SCORE.INTRA.SOLV.lig_0>
-40.9823

>  <SCORE.INTRA.VDW>
-1.19127

>  <SCORE.INTRA.VDW.0>
-0.53506

>  <SCORE.INTRA.norm>
-0.107628

>  <SCORE.RESTR>
0

>  <SCORE.RESTR.CAVITY>
0

>  <SCORE.RESTR.norm>
0

>  <SCORE.SYSTEM>
0

>  <SCORE.SYSTEM.CONST>
0

>  <SCORE.SYSTEM.DIHEDRAL>
0

>  <SCORE.SYSTEM.SOLV>
0

>  <SCORE.SYSTEM.norm>
0

>  <SCORE.heavy>
22

>  <SCORE.norm>
-1.00112

>  <RMSD>
0.899

$$$$
lig.pdb
 OpenBabel11021811523D
libRbt.so/2013.1/901 2013/11/27
 22 23  0  0  0  0  0  0  0  0999 V2000
   57.6471  -18.4150    8.0134 O   0  0  0  0  0  0  0  0  0  0  0  0
   56.9455  -17.4371    8.1232 C   0  0  0  0  0  0  0  0  0  0  0  0
   55.6932  -17.4216    7.7022 N   0  0  0  0  0  0  0  0  0  0  0  0
   57.4901  -16.1997    8.6996 C   0  0  0  0  0  0  0  0  0  0  0  0
   58.7679  -16.0942    9.4078 C   0  0  0  0  0  0  0  0  0  0  0  0
   59.6180  -17.1147    9.6508 N   0  0  0  0  0  0  0  0  0  0  0  0
   56.9931  -14.9527    8.7220 N   0  0  0  0  0  0  0  0  0  0  0  0
   57.8859  -14.1435    9.3568 C   0  0  0  0  0  0  0  0  0  0  0  0
   58.9747  -14.8339    9.7726 N   0  0  0  0  0  0  0  0  0  0  0  0
   60.1421  -14.2643   10.4993 C   0  0  1  0  0  0  0  0  0  0  0  0
   60.8487  -13.2666    9.6073 C   0  0  1  0  0  0  0  0  0  0  0  0
   61.2513  -12.1628   10.5506 C   0  0  2  0  0  0  0  0  0  0  0  0
   62.5617  -12.4216   11.0700 O   0  0  0  0  0  0  0  0  0  0  0  0
   61.9789  -13.8664    8.9551 O   0  0  0  0  0  0  0  0  0  0  0  0
   59.7040  -13.5306   11.6401 O   0  0  0  0  0  0  0  0  0  0  0  0
   60.2615  -12.2391   11.6840 C   0  0  2  0  0  0  0  0  0  0  0  0
   59.0936  -11.2772   11.6137 C   0  0  0  0  0  0  0  0  0  0  0  0
   59.0867  -10.5514   10.4016 O   0  0  0  0  0  0  0  0  0  0  0  0
   59.6985   -9.0756   10.3917 P   0  0  0  0  0  0  0  0  0  0  0  0
   59.8295   -8.7147    8.9256 O   0  0  0  0  0  0  0  0  0  0  0  0
   61.0039   -9.2682   11.1194 O   0  0  0  0  0  0  0  0  0  0  0  0
   58.7062   -8.2827   11.1963 O   0  0  0  0  0  0  0  0  0  0  0  0
  2  1  2  0  0  0  0
  2  4  1  0  0  0  0
  3  2  1  0  0  0  0
  4  7  1  0  0  0  0
  4  5  2  0  0  0  0
  5  6  1  0  0  0  0
  5  9  1  0  0  0  0
  7  8  2  0  0  0  0
  8  9  1  0  0  0  0
 10  9  1  6  0  0  0
 10 15  1  0  0  0  0
 11 14  1  1  0  0  0
 11 12  1  0  0  0  0
 11 10  1  0  0  0  0
 12 13  1  1  0  0  0
 12 16  1  0  0  0  0
 16 17  1  6  0  0  0
 16 15  1  0  0  0  0
 18 19  1  0  0  0  0
 18 17  1  0  0  0  0
 19 21  1  0  0  0  0
 20 19  1  0  0  0  0
 22 19  2  0  0  0  0
M  END
>  <CHROM.1>
-12.41987425,116.57312302,5.50879081,167.42883341,-98.09176973,59.35641862
-13.08056765,9.92300590,1.89599820,0.32871072,-2.97333472

>  <Name>
lig.pdb

>  <RI>
0

>  <Rbt.Current_Directory>
/home/itssahil/PROJECTS/Mol_Feturizer/New_Systems/rnas/4znp

>  <Rbt.Executable>
rbdock ($Id: //depot/dev/client3/rdock/2013.1/src/exe/rbdock.cxx#4 $)

>  <Rbt.Library>
libRbt.so (2013.1, Build901 2013/11/27)

>  <Rbt.Parameter_File>
/export/apps/rDock/src/rDock_2013.1_src/data/scripts/dock_solv.prm

>  <Rbt.Receptor>
prm/pocket_docking_2.prm

>  <SCORE>
-19.0688

>  <SCORE.INTER>
-18.8974

>  <SCORE.INTER.CONST>
1

>  <SCORE.INTER.POLAR>
0

>  <SCORE.INTER.ROT>
5

>  <SCORE.INTER.SOLV>
20.6578

>  <SCORE.INTER.VDW>
-26.4175

>  <SCORE.INTER.norm>
-0.858973

>  <SCORE.INTRA>
-0.171378

>  <SCORE.INTRA.DIHEDRAL>
1.38459

>  <SCORE.INTRA.DIHEDRAL.0>
11.9251

>  <SCORE.INTRA.POLAR>
0

>  <SCORE.INTRA.POLAR.0>
0

>  <SCORE.INTRA.REPUL>
0

>  <SCORE.INTRA.REPUL.0>
0

>  <SCORE.INTRA.SOLV>
0.867103

>  <SCORE.INTRA.SOLV.lig_0>
-40.9823

>  <SCORE.INTRA.VDW>
-1.29723

>  <SCORE.INTRA.VDW.0>
-0.53506

>  <SCORE.INTRA.norm>
-0.00778993

>  <SCORE.RESTR>
0

>  <SCORE.RESTR.CAVITY>
0

>  <SCORE.RESTR.norm>
0

>  <SCORE.SYSTEM>
0

>  <SCORE.SYSTEM.CONST>
0

>  <SCORE.SYSTEM.DIHEDRAL>
0

>  <SCORE.SYSTEM.SOLV>
0

>  <SCORE.SYSTEM.norm>
0

>  <SCORE.heavy>
22

>  <SCORE.norm>
-0.866763

>  <RMSD>
0.899

$$$$
lig.pdb
 OpenBabel11021811523D
libRbt.so/2013.1/901 2013/11/27
 22 23  0  0  0  0  0  0  0  0999 V2000
   57.4477  -18.4311    8.0234 O   0  0  0  0  0  0  0  0  0  0  0  0
   56.8171  -17.4043    8.1162 C   0  0  0  0  0  0  0  0  0  0  0  0
   55.5633  -17.3122    7.7099 N   0  0  0  0  0  0  0  0  0  0  0  0
   57.4540  -16.1938    8.6541 C   0  0  0  0  0  0  0  0  0  0  0  0
   58.7729  -16.1501    9.2896 C   0  0  0  0  0  0  0  0  0  0  0  0
   59.5834  -17.2111    9.4912 N   0  0  0  0  0  0  0  0  0  0  0  0
   57.0217  -14.9235    8.6966 N   0  0  0  0  0  0  0  0  0  0  0  0
   57.9876  -14.1580    9.2760 C   0  0  0  0  0  0  0  0  0  0  0  0
   59.0622  -14.9006    9.6349 N   0  0  0  0  0  0  0  0  0  0  0  0
   60.2953  -14.3878   10.2921 C   0  0  1  0  0  0  0  0  0  0  0  0
   61.0261  -13.4688    9.3374 C   0  0  1  0  0  0  0  0  0  0  0  0
   61.5413  -12.3650   10.2243 C   0  0  2  0  0  0  0  0  0  0  0  0
   62.8534  -12.6946   10.6975 O   0  0  0  0  0  0  0  0  0  0  0  0
   62.0849  -14.1636    8.6601 O   0  0  0  0  0  0  0  0  0  0  0  0
   59.9567  -13.5903   11.4240 O   0  0  0  0  0  0  0  0  0  0  0  0
   60.5993  -12.3385   11.3998 C   0  0  2  0  0  0  0  0  0  0  0  0
   59.4951  -11.3030   11.3447 C   0  0  0  0  0  0  0  0  0  0  0  0
   60.0124   -9.9933   11.2300 O   0  0  0  0  0  0  0  0  0  0  0  0
   58.9895   -8.7660   11.2260 P   0  0  0  0  0  0  0  0  0  0  0  0
   58.0004   -9.0829   10.1223 O   0  0  0  0  0  0  0  0  0  0  0  0
   59.8984   -7.5961   10.9503 O   0  0  0  0  0  0  0  0  0  0  0  0
   58.4535   -8.7558   12.6308 O   0  0  0  0  0  0  0  0  0  0  0  0
  2  1  2  0  0  0  0
  2  4  1  0  0  0  0
  3  2  1  0  0  0  0
  4  7  1  0  0  0  0
  4  5  2  0  0  0  0
  5  6  1  0  0  0  0
  5  9  1  0  0  0  0
  7  8  2  0  0  0  0
  8  9  1  0  0  0  0
 10  9  1  6  0  0  0
 10 15  1  0  0  0  0
 11 14  1  1  0  0  0
 11 12  1  0  0  0  0
 11 10  1  0  0  0  0
 12 13  1  1  0  0  0
 12 16  1  0  0  0  0
 16 17  1  6  0  0  0
 16 15  1  0  0  0  0
 18 19  1  0  0  0  0
 18 17  1  0  0  0  0
 19 21  1  0  0  0  0
 20 19  1  0  0  0  0
 22 19  2  0  0  0  0
M  END
>  <CHROM.1>
-9.46296316,114.53094232,-58.31037273,-54.10194963,-177.23271235,59.25316967
-13.04357932,10.04132596,1.78411898,0.15520281,-2.83215139

>  <Name>
lig.pdb

>  <RI>
0

>  <Rbt.Current_Directory>
/home/itssahil/PROJECTS/Mol_Feturizer/New_Systems/rnas/4znp

>  <Rbt.Executable>
rbdock ($Id: //depot/dev/client3/rdock/2013.1/src/exe/rbdock.cxx#4 $)

>  <Rbt.Library>
libRbt.so (2013.1, Build901 2013/11/27)

>  <Rbt.Parameter_File>
/export/apps/rDock/src/rDock_2013.1_src/data/scripts/dock_solv.prm

>  <Rbt.Receptor>
prm/pocket_docking_5.prm

>  <SCORE>
-25.1098

>  <SCORE.INTER>
-19.1141

>  <SCORE.INTER.CONST>
1

>  <SCORE.INTER.POLAR>
0

>  <SCORE.INTER.ROT>
5

>  <SCORE.INTER.SOLV>
20.4309

>  <SCORE.INTER.VDW>
-26.4864

>  <SCORE.INTER.norm>
-0.868824

>  <SCORE.INTRA>
-5.99562

>  <SCORE.INTRA.DIHEDRAL>
-9.15282

>  <SCORE.INTRA.DIHEDRAL.0>
11.9251

>  <SCORE.INTRA.POLAR>
0

>  <SCORE.INTRA.POLAR.0>
0

>  <SCORE.INTRA.REPUL>
0

>  <SCORE.INTRA.REPUL.0>
0

>  <SCORE.INTRA.SOLV>
-0.103944

>  <SCORE.INTRA.SOLV.lig_0>
-40.9823

>  <SCORE.INTRA.VDW>
-1.36724

>  <SCORE.INTRA.VDW.0>
-0.53506

>  <SCORE.INTRA.norm>
-0.272528

>  <SCORE.RESTR>
0

>  <SCORE.RESTR.CAVITY>
0

>  <SCORE.RESTR.norm>
0

>  <SCORE.SYSTEM>
0

>  <SCORE.SYSTEM.CONST>
0

>  <SCORE.SYSTEM.DIHEDRAL>
0

>  <SCORE.SYSTEM.SOLV>
0

>  <SCORE.SYSTEM.norm>
0

>  <SCORE.heavy>
22

>  <SCORE.norm>
-1.14135

>  <RMSD>
0.902

$$$$
lig.pdb
 OpenBabel11021811523D
libRbt.so/2013.1/901 2013/11/27
 22 23  0  0  0  0  0  0  0  0999 V2000
   57.4450  -18.4490    7.9617 O   0  0  0  0  0  0  0  0  0  0  0  0
   56.7912  -17.4446    8.1178 C   0  0  0  0  0  0  0  0  0  0  0  0
   55.5171  -17.3767    7.7747 N   0  0  0  0  0  0  0  0  0  0  0  0
   57.4194  -16.2333    8.6639 C   0  0  0  0  0  0  0  0  0  0  0  0
   58.7305  -16.1875    9.3151 C   0  0  0  0  0  0  0  0  0  0  0  0
   59.5406  -17.2472    9.5257 N   0  0  0  0  0  0  0  0  0  0  0  0
   56.9843  -14.9638    8.7021 N   0  0  0  0  0  0  0  0  0  0  0  0
   57.9418  -14.1968    9.2934 C   0  0  0  0  0  0  0  0  0  0  0  0
   59.0134  -14.9377    9.6646 N   0  0  0  0  0  0  0  0  0  0  0  0
   60.2376  -14.4230   10.3368 C   0  0  1  0  0  0  0  0  0  0  0  0
   60.9884  -13.5177    9.3846 C   0  0  1  0  0  0  0  0  0  0  0  0
   61.4937  -12.4065   10.2679 C   0  0  2  0  0  0  0  0  0  0  0  0
   62.7961  -12.7365   10.7666 O   0  0  0  0  0  0  0  0  0  0  0  0
   62.0553  -14.2244    8.7327 O   0  0  0  0  0  0  0  0  0  0  0  0
   59.8837  -13.6118   11.4541 O   0  0  0  0  0  0  0  0  0  0  0  0
   60.5322  -12.3630   11.4271 C   0  0  2  0  0  0  0  0  0  0  0  0
   59.4338  -11.3235   11.3422 C   0  0  0  0  0  0  0  0  0  0  0  0
   59.9545  -10.0309   11.1096 O   0  0  0  0  0  0  0  0  0  0  0  0
   58.9360   -8.8042   11.0081 P   0  0  0  0  0  0  0  0  0  0  0  0
   57.8335   -9.2846   10.0860 O   0  0  0  0  0  0  0  0  0  0  0  0
   59.8085   -7.7130   10.4434 O   0  0  0  0  0  0  0  0  0  0  0  0
   58.5554   -8.5492   12.4402 O   0  0  0  0  0  0  0  0  0  0  0  0
  2  1  2  0  0  0  0
  2  4  1  0  0  0  0
  3  2  1  0  0  0  0
  4  7  1  0  0  0  0
  4  5  2  0  0  0  0
  5  6  1  0  0  0  0
  5  9  1  0  0  0  0
  7  8  2  0  0  0  0
  8  9  1  0  0  0  0
 10  9  1  6  0  0  0
 10 15  1  0  0  0  0
 11 14  1  1  0  0  0
 11 12  1  0  0  0  0
 11 10  1  0  0  0  0
 12 13  1  1  0  0  0
 12 16  1  0  0  0  0
 16 17  1  6  0  0  0
 16 15  1  0  0  0  0
 18 19  1  0  0  0  0
 18 17  1  0  0  0  0
 19 21  1  0  0  0  0
 20 19  1  0  0  0  0
 22 19  2  0  0  0  0
M  END
>  <CHROM.1>
-13.63320064,113.73081044,-53.36288314,-46.70520641,-179.30144017,59.20608728
-13.08143884,9.99887138,1.78630114,0.18989140,-2.86231852

>  <Name>
lig.pdb

>  <RI>
0

>  <Rbt.Current_Directory>
/home/itssahil/PROJECTS/Mol_Feturizer/New_Systems/rnas/4znp

>  <Rbt.Executable>
rbdock ($Id: //depot/dev/client3/rdock/2013.1/src/exe/rbdock.cxx#4 $)

>  <Rbt.Library>
libRbt.so (2013.1, Build901 2013/11/27)

>  <Rbt.Parameter_File>
/export/apps/rDock/src/rDock_2013.1_src/data/scripts/dock_solv.prm

>  <Rbt.Receptor>
prm/pocket_docking_6.prm

>  <SCORE>
-25.2076

>  <SCORE.INTER>
-19.5399

>  <SCORE.INTER.CONST>
1

>  <SCORE.INTER.POLAR>
0

>  <SCORE.INTER.ROT>
5

>  <SCORE.INTER.SOLV>
20.7919

>  <SCORE.INTER.VDW>
-26.8906

>  <SCORE.INTER.norm>
-0.888179

>  <SCORE.INTRA>
-5.6677

>  <SCORE.INTRA.DIHEDRAL>
-8.50947

>  <SCORE.INTRA.DIHEDRAL.0>
11.9251

>  <SCORE.INTRA.POLAR>
0

>  <SCORE.INTRA.POLAR.0>
0

>  <SCORE.INTRA.REPUL>
0

>  <SCORE.INTRA.REPUL.0>
0

>  <SCORE.INTRA.SOLV>
-0.105557

>  <SCORE.INTRA.SOLV.lig_0>
-40.9823

>  <SCORE.INTRA.VDW>
-1.36019

>  <SCORE.INTRA.VDW.0>
-0.53506

>  <SCORE.INTRA.norm>
-0.257623

>  <SCORE.RESTR>
0

>  <SCORE.RESTR.CAVITY>
0

>  <SCORE.RESTR.norm>
0

>  <SCORE.SYSTEM>
0

>  <SCORE.SYSTEM.CONST>
0

>  <SCORE.SYSTEM.DIHEDRAL>
0

>  <SCORE.SYSTEM.SOLV>
0

>  <SCORE.SYSTEM.norm>
0

>  <SCORE.heavy>
22

>  <SCORE.norm>
-1.1458

>  <RMSD>
0.906

$$$$
lig.pdb
 OpenBabel11021811523D
libRbt.so/2013.1/901 2013/11/27
 22 23  0  0  0  0  0  0  0  0999 V2000
   57.6198  -18.4494    7.9864 O   0  0  0  0  0  0  0  0  0  0  0  0
   56.9111  -17.4847    8.1522 C   0  0  0  0  0  0  0  0  0  0  0  0
   55.6290  -17.4931    7.8329 N   0  0  0  0  0  0  0  0  0  0  0  0
   57.4769  -16.2364    8.6833 C   0  0  0  0  0  0  0  0  0  0  0  0
   58.7957  -16.1109    9.3079 C   0  0  0  0  0  0  0  0  0  0  0  0
   59.6713  -17.1199    9.5043 N   0  0  0  0  0  0  0  0  0  0  0  0
   56.9679  -14.9949    8.7276 N   0  0  0  0  0  0  0  0  0  0  0  0
   57.8898  -14.1706    9.2981 C   0  0  0  0  0  0  0  0  0  0  0  0
   59.0107  -14.8454    9.6492 N   0  0  0  0  0  0  0  0  0  0  0  0
   60.2153  -14.2569   10.2957 C   0  0  1  0  0  0  0  0  0  0  0  0
   61.3171  -14.1171    9.2678 C   0  0  1  0  0  0  0  0  0  0  0  0
   61.9699  -12.8046    9.6165 C   0  0  2  0  0  0  0  0  0  0  0  0
   63.0441  -13.0263   10.5390 O   0  0  0  0  0  0  0  0  0  0  0  0
   62.2349  -15.2193    9.3409 O   0  0  0  0  0  0  0  0  0  0  0  0
   59.9349  -12.9365   10.7537 O   0  0  0  0  0  0  0  0  0  0  0  0
   60.8962  -12.0085   10.3118 C   0  0  2  0  0  0  0  0  0  0  0  0
   60.1483  -11.0085    9.4543 C   0  0  0  0  0  0  0  0  0  0  0  0
   59.0737  -10.4186   10.1566 O   0  0  0  0  0  0  0  0  0  0  0  0
   59.4030   -9.4638   11.3945 P   0  0  0  0  0  0  0  0  0  0  0  0
   60.4776   -8.5222   10.8891 O   0  0  0  0  0  0  0  0  0  0  0  0
   59.8587  -10.4471   12.4415 O   0  0  0  0  0  0  0  0  0  0  0  0
   58.0701   -8.8518   11.7255 O   0  0  0  0  0  0  0  0  0  0  0  0
  2  1  2  0  0  0  0
  2  4  1  0  0  0  0
  3  2  1  0  0  0  0
  4  7  1  0  0  0  0
  4  5  2  0  0  0  0
  5  6  1  0  0  0  0
  5  9  1  0  0  0  0
  7  8  2  0  0  0  0
  8  9  1  0  0  0  0
 10  9  1  6  0  0  0
 10 15  1  0  0  0  0
 11 14  1  1  0  0  0
 11 12  1  0  0  0  0
 11 10  1  0  0  0  0
 12 13  1  1  0  0  0
 12 16  1  0  0  0  0
 16 17  1  6  0  0  0
 16 15  1  0  0  0  0
 18 19  1  0  0  0  0
 18 17  1  0  0  0  0
 19 21  1  0  0  0  0
 20 19  1  0  0  0  0
 22 19  2  0  0  0  0
M  END
>  <CHROM.1>
-13.54279331,76.45710995,173.70893083,47.83929089,66.71698492,59.43775530
-13.30199110,9.92353123,1.84244612,0.08860213,-2.81490286

>  <Name>
lig.pdb

>  <RI>
0

>  <Rbt.Current_Directory>
/home/itssahil/PROJECTS/Mol_Feturizer/New_Systems/rnas/4znp

>  <Rbt.Executable>
rbdock ($Id: //depot/dev/client3/rdock/2013.1/src/exe/rbdock.cxx#4 $)

>  <Rbt.Library>
libRbt.so (2013.1, Build901 2013/11/27)

>  <Rbt.Parameter_File>
/export/apps/rDock/src/rDock_2013.1_src/data/scripts/dock_solv.prm

>  <Rbt.Receptor>
prm/pocket_docking_2.prm

>  <SCORE>
-24.8959

>  <SCORE.INTER>
-19.7687

>  <SCORE.INTER.CONST>
1

>  <SCORE.INTER.POLAR>
0

>  <SCORE.INTER.ROT>
5

>  <SCORE.INTER.SOLV>
20.071

>  <SCORE.INTER.VDW>
-26.8028

>  <SCORE.INTER.norm>
-0.898576

>  <SCORE.INTRA>
-5.12722

>  <SCORE.INTRA.DIHEDRAL>
-8.4279

>  <SCORE.INTRA.DIHEDRAL.0>
11.9251

>  <SCORE.INTRA.POLAR>
0

>  <SCORE.INTRA.POLAR.0>
0

>  <SCORE.INTRA.REPUL>
0

>  <SCORE.INTRA.REPUL.0>
0

>  <SCORE.INTRA.SOLV>
0.943359

>  <SCORE.INTRA.SOLV.lig_0>
-40.9823

>  <SCORE.INTRA.VDW>
-1.38495

>  <SCORE.INTRA.VDW.0>
-0.53506

>  <SCORE.INTRA.norm>
-0.233056

>  <SCORE.RESTR>
0

>  <SCORE.RESTR.CAVITY>
0

>  <SCORE.RESTR.norm>
0

>  <SCORE.SYSTEM>
0

>  <SCORE.SYSTEM.CONST>
0

>  <SCORE.SYSTEM.DIHEDRAL>
0

>  <SCORE.SYSTEM.SOLV>
0

>  <SCORE.SYSTEM.norm>
0

>  <SCORE.heavy>
22

>  <SCORE.norm>
-1.13163

>  <RMSD>
0.916

$$$$
lig.pdb
 OpenBabel11021811523D
libRbt.so/2013.1/901 2013/11/27
 22 23  0  0  0  0  0  0  0  0999 V2000
   57.4706  -18.4482    7.9632 O   0  0  0  0  0  0  0  0  0  0  0  0
   56.8162  -17.4417    8.1013 C   0  0  0  0  0  0  0  0  0  0  0  0
   55.5488  -17.3733    7.7343 N   0  0  0  0  0  0  0  0  0  0  0  0
   57.4367  -16.2284    8.6519 C   0  0  0  0  0  0  0  0  0  0  0  0
   58.7443  -16.1781    9.3099 C   0  0  0  0  0  0  0  0  0  0  0  0
   59.5575  -17.2347    9.5235 N   0  0  0  0  0  0  0  0  0  0  0  0
   56.9963  -14.9607    8.6891 N   0  0  0  0  0  0  0  0  0  0  0  0
   57.9477  -14.1905    9.2860 C   0  0  0  0  0  0  0  0  0  0  0  0
   59.0203  -14.9275    9.6620 N   0  0  0  0  0  0  0  0  0  0  0  0
   60.2390  -14.4086   10.3410 C   0  0  1  0  0  0  0  0  0  0  0  0
   60.9839  -13.4887    9.3982 C   0  0  1  0  0  0  0  0  0  0  0  0
   61.4783  -12.3811   10.2922 C   0  0  2  0  0  0  0  0  0  0  0  0
   62.7826  -12.7047   10.7904 O   0  0  0  0  0  0  0  0  0  0  0  0
   62.0578  -14.1806    8.7420 O   0  0  0  0  0  0  0  0  0  0  0  0
   59.8764  -13.6103   11.4648 O   0  0  0  0  0  0  0  0  0  0  0  0
   60.5145  -12.3560   11.4500 C   0  0  2  0  0  0  0  0  0  0  0  0
   59.4076  -11.3249   11.3724 C   0  0  0  0  0  0  0  0  0  0  0  0
   59.9169  -10.0283   11.1373 O   0  0  0  0  0  0  0  0  0  0  0  0
   58.8913   -8.8049   11.0738 P   0  0  0  0  0  0  0  0  0  0  0  0
   57.8136   -9.2461   10.1039 O   0  0  0  0  0  0  0  0  0  0  0  0
   59.7677   -7.6810   10.5842 O   0  0  0  0  0  0  0  0  0  0  0  0
   58.4766   -8.6244   12.5077 O   0  0  0  0  0  0  0  0  0  0  0  0
  2  1  2  0  0  0  0
  2  4  1  0  0  0  0
  3  2  1  0  0  0  0
  4  7  1  0  0  0  0
  4  5  2  0  0  0  0
  5  6  1  0  0  0  0
  5  9  1  0  0  0  0
  7  8  2  0  0  0  0
  8  9  1  0  0  0  0
 10  9  1  6  0  0  0
 10 15  1  0  0  0  0
 11 14  1  1  0  0  0
 11 12  1  0  0  0  0
 11 10  1  0  0  0  0
 12 13  1  1  0  0  0
 12 16  1  0  0  0  0
 16 17  1  6  0  0  0
 16 15  1  0  0  0  0
 18 19  1  0  0  0  0
 18 17  1  0  0  0  0
 19 21  1  0  0  0  0
 20 19  1  0  0  0  0
 22 19  2  0  0  0  0
M  END
>  <CHROM.1>
-12.70336782,114.27938882,-52.70560750,-50.39505894,-178.01080966,59.19625733
-13.07277939,10.01940723,1.77818341,0.18824219,-2.85182906

>  <Name>
lig.pdb

>  <RI>
0

>  <Rbt.Current_Directory>
/home/itssahil/PROJECTS/Mol_Feturizer/New_Systems/rnas/4znp

>  <Rbt.Executable>
rbdock ($Id: //depot/dev/client3/rdock/2013.1/src/exe/rbdock.cxx#4 $)

>  <Rbt.Library>
libRbt.so (2013.1, Build901 2013/11/27)

>  <Rbt.Parameter_File>
/export/apps/rDock/src/rDock_2013.1_src/data/scripts/dock_solv.prm

>  <Rbt.Receptor>
prm/pocket_docking_3.prm

>  <SCORE>
-25.1937

>  <SCORE.INTER>
-19.4374

>  <SCORE.INTER.CONST>
1

>  <SCORE.INTER.POLAR>
0

>  <SCORE.INTER.ROT>
5

>  <SCORE.INTER.SOLV>
20.6937

>  <SCORE.INTER.VDW>
-26.7895

>  <SCORE.INTER.norm>
-0.883519

>  <SCORE.INTRA>
-5.75624

>  <SCORE.INTRA.DIHEDRAL>
-8.67381

>  <SCORE.INTRA.DIHEDRAL.0>
11.9251

>  <SCORE.INTRA.POLAR>
0

>  <SCORE.INTRA.POLAR.0>
0

>  <SCORE.INTRA.REPUL>
0

>  <SCORE.INTRA.REPUL.0>
0

>  <SCORE.INTRA.SOLV>
-0.0957303

>  <SCORE.INTRA.SOLV.lig_0>
-40.9823

>  <SCORE.INTRA.VDW>
-1.37147

>  <SCORE.INTRA.VDW.0>
-0.53506

>  <SCORE.INTRA.norm>
-0.261647

>  <SCORE.RESTR>
0

>  <SCORE.RESTR.CAVITY>
0

>  <SCORE.RESTR.norm>
0

>  <SCORE.SYSTEM>
0

>  <SCORE.SYSTEM.CONST>
0

>  <SCORE.SYSTEM.DIHEDRAL>
0

>  <SCORE.SYSTEM.SOLV>
0

>  <SCORE.SYSTEM.norm>
0

>  <SCORE.heavy>
22

>  <SCORE.norm>
-1.14517

>  <RMSD>
0.922

$$$$
lig.pdb
 OpenBabel11021811523D
libRbt.so/2013.1/901 2013/11/27
 22 23  0  0  0  0  0  0  0  0999 V2000
   57.5057  -18.4257    7.9624 O   0  0  0  0  0  0  0  0  0  0  0  0
   56.8484  -17.4190    8.0850 C   0  0  0  0  0  0  0  0  0  0  0  0
   55.5903  -17.3502    7.6872 N   0  0  0  0  0  0  0  0  0  0  0  0
   57.4555  -16.2062    8.6512 C   0  0  0  0  0  0  0  0  0  0  0  0
   58.7681  -16.1474    9.2985 C   0  0  0  0  0  0  0  0  0  0  0  0
   59.5989  -17.1951    9.4866 N   0  0  0  0  0  0  0  0  0  0  0  0
   56.9965  -14.9461    8.7143 N   0  0  0  0  0  0  0  0  0  0  0  0
   57.9415  -14.1720    9.3163 C   0  0  0  0  0  0  0  0  0  0  0  0
   59.0285  -14.8990    9.6699 N   0  0  0  0  0  0  0  0  0  0  0  0
   60.2453  -14.3736   10.3472 C   0  0  1  0  0  0  0  0  0  0  0  0
   60.9861  -13.4530    9.4018 C   0  0  1  0  0  0  0  0  0  0  0  0
   61.4764  -12.3412   10.2929 C   0  0  2  0  0  0  0  0  0  0  0  0
   62.7822  -12.6582   10.7914 O   0  0  0  0  0  0  0  0  0  0  0  0
   62.0625  -14.1422    8.7470 O   0  0  0  0  0  0  0  0  0  0  0  0
   59.8798  -13.5739   11.4691 O   0  0  0  0  0  0  0  0  0  0  0  0
   60.5129  -12.3171   11.4510 C   0  0  2  0  0  0  0  0  0  0  0  0
   59.4018  -11.2907   11.3711 C   0  0  0  0  0  0  0  0  0  0  0  0
   59.9069   -9.9900   11.1498 O   0  0  0  0  0  0  0  0  0  0  0  0
   58.8779   -8.7687   11.1037 P   0  0  0  0  0  0  0  0  0  0  0  0
   57.8034   -9.1975   10.1247 O   0  0  0  0  0  0  0  0  0  0  0  0
   59.7519   -7.6346   10.6339 O   0  0  0  0  0  0  0  0  0  0  0  0
   58.4598   -8.6124   12.5395 O   0  0  0  0  0  0  0  0  0  0  0  0
  2  1  2  0  0  0  0
  2  4  1  0  0  0  0
  3  2  1  0  0  0  0
  4  7  1  0  0  0  0
  4  5  2  0  0  0  0
  5  6  1  0  0  0  0
  5  9  1  0  0  0  0
  7  8  2  0  0  0  0
  8  9  1  0  0  0  0
 10  9  1  6  0  0  0
 10 15  1  0  0  0  0
 11 14  1  1  0  0  0
 11 12  1  0  0  0  0
 11 10  1  0  0  0  0
 12 13  1  1  0  0  0
 12 16  1  0  0  0  0
 16 17  1  6  0  0  0
 16 15  1  0  0  0  0
 18 19  1  0  0  0  0
 18 17  1  0  0  0  0
 19 21  1  0  0  0  0
 20 19  1  0  0  0  0
 22 19  2  0  0  0  0
M  END
>  <CHROM.1>
-10.39213627,112.88821932,-53.46399870,-50.77166330,-177.28464906,59.20081372
-13.04006918,10.02662668,1.77201855,0.18561434,-2.84630618

>  <Name>
lig.pdb

>  <RI>
0

>  <Rbt.Current_Directory>
/home/itssahil/PROJECTS/Mol_Feturizer/New_Systems/rnas/4znp

>  <Rbt.Executable>
rbdock ($Id: //depot/dev/client3/rdock/2013.1/src/exe/rbdock.cxx#4 $)

>  <Rbt.Library>
libRbt.so (2013.1, Build901 2013/11/27)

>  <Rbt.Parameter_File>
/export/apps/rDock/src/rDock_2013.1_src/data/scripts/dock_solv.prm

>  <Rbt.Receptor>
prm/pocket_docking_4.prm

>  <SCORE>
-25.1984

>  <SCORE.INTER>
-19.3698

>  <SCORE.INTER.CONST>
1

>  <SCORE.INTER.POLAR>
0

>  <SCORE.INTER.ROT>
5

>  <SCORE.INTER.SOLV>
20.4943

>  <SCORE.INTER.VDW>
-26.678

>  <SCORE.INTER.norm>
-0.880447

>  <SCORE.INTRA>
-5.82858

>  <SCORE.INTRA.DIHEDRAL>
-8.87316

>  <SCORE.INTRA.DIHEDRAL.0>
11.9251

>  <SCORE.INTRA.POLAR>
0

>  <SCORE.INTRA.POLAR.0>
0

>  <SCORE.INTRA.REPUL>
0

>  <SCORE.INTRA.REPUL.0>
0

>  <SCORE.INTRA.SOLV>
-0.0830655

>  <SCORE.INTRA.SOLV.lig_0>
-40.9823

>  <SCORE.INTRA.VDW>
-1.35047

>  <SCORE.INTRA.VDW.0>
-0.53506

>  <SCORE.INTRA.norm>
-0.264936

>  <SCORE.RESTR>
0

>  <SCORE.RESTR.CAVITY>
0

>  <SCORE.RESTR.norm>
0

>  <SCORE.SYSTEM>
0

>  <SCORE.SYSTEM.CONST>
0

>  <SCORE.SYSTEM.DIHEDRAL>
0

>  <SCORE.SYSTEM.SOLV>
0

>  <SCORE.SYSTEM.norm>
0

>  <SCORE.heavy>
22

>  <SCORE.norm>
-1.14538

>  <RMSD>
0.922

$$$$
lig.pdb
 OpenBabel11021811523D
libRbt.so/2013.1/901 2013/11/27
 22 23  0  0  0  0  0  0  0  0999 V2000
   57.5564  -18.4263    8.0241 O   0  0  0  0  0  0  0  0  0  0  0  0
   56.9027  -17.4156    8.1323 C   0  0  0  0  0  0  0  0  0  0  0  0
   55.6444  -17.3483    7.7349 N   0  0  0  0  0  0  0  0  0  0  0  0
   57.5148  -16.1965    8.6794 C   0  0  0  0  0  0  0  0  0  0  0  0
   58.8264  -16.1335    9.3283 C   0  0  0  0  0  0  0  0  0  0  0  0
   59.6516  -17.1820    9.5355 N   0  0  0  0  0  0  0  0  0  0  0  0
   57.0620  -14.9333    8.7206 N   0  0  0  0  0  0  0  0  0  0  0  0
   58.0097  -14.1540    9.3115 C   0  0  0  0  0  0  0  0  0  0  0  0
   59.0923  -14.8804    9.6794 N   0  0  0  0  0  0  0  0  0  0  0  0
   60.3104  -14.3498   10.3503 C   0  0  1  0  0  0  0  0  0  0  0  0
   61.0456  -13.4308    9.3990 C   0  0  1  0  0  0  0  0  0  0  0  0
   61.5365  -12.3148   10.2844 C   0  0  2  0  0  0  0  0  0  0  0  0
   62.8449  -12.6270   10.7791 O   0  0  0  0  0  0  0  0  0  0  0  0
   62.1212  -14.1198    8.7425 O   0  0  0  0  0  0  0  0  0  0  0  0
   59.9473  -13.5470   11.4708 O   0  0  0  0  0  0  0  0  0  0  0  0
   60.5773  -12.2888   11.4459 C   0  0  2  0  0  0  0  0  0  0  0  0
   59.4635  -11.2653   11.3666 C   0  0  0  0  0  0  0  0  0  0  0  0
   59.9685   -9.9472   11.3073 O   0  0  0  0  0  0  0  0  0  0  0  0
   58.9309   -8.7329   11.2696 P   0  0  0  0  0  0  0  0  0  0  0  0
   58.0301   -9.0229   10.0859 O   0  0  0  0  0  0  0  0  0  0  0  0
   59.8405   -7.5432   11.1015 O   0  0  0  0  0  0  0  0  0  0  0  0
   58.2934   -8.7783   12.6305 O   0  0  0  0  0  0  0  0  0  0  0  0
  2  1  2  0  0  0  0
  2  4  1  0  0  0  0
  3  2  1  0  0  0  0
  4  7  1  0  0  0  0
  4  5  2  0  0  0  0
  5  6  1  0  0  0  0
  5  9  1  0  0  0  0
  7  8  2  0  0  0  0
  8  9  1  0  0  0  0
 10  9  1  6  0  0  0
 10 15  1  0  0  0  0
 11 14  1  1  0  0  0
 11 12  1  0  0  0  0
 11 10  1  0  0  0  0
 12 13  1  1  0  0  0
 12 16  1  0  0  0  0
 16 17  1  6  0  0  0
 16 15  1  0  0  0  0
 18 19  1  0  0  0  0
 18 17  1  0  0  0  0
 19 21  1  0  0  0  0
 20 19  1  0  0  0  0
 22 19  2  0  0  0  0
M  END
>  <CHROM.1>
-10.61068120,113.81162537,-60.85919401,-55.37980553,-177.95907706,59.25901021
-13.01720427,10.08495621,1.76729670,0.15969562,-2.82936813

>  <Name>
lig.pdb

>  <RI>
0

>  <Rbt.Current_Directory>
/home/itssahil/PROJECTS/Mol_Feturizer/New_Systems/rnas/4znp

>  <Rbt.Executable>
rbdock ($Id: //depot/dev/client3/rdock/2013.1/src/exe/rbdock.cxx#4 $)

>  <Rbt.Library>
libRbt.so (2013.1, Build901 2013/11/27)

>  <Rbt.Parameter_File>
/export/apps/rDock/src/rDock_2013.1_src/data/scripts/dock_solv.prm

>  <Rbt.Receptor>
prm/pocket_docking_4.prm

>  <SCORE>
-25.0718

>  <SCORE.INTER>
-19.0638

>  <SCORE.INTER.CONST>
1

>  <SCORE.INTER.POLAR>
0

>  <SCORE.INTER.ROT>
5

>  <SCORE.INTER.SOLV>
20.2359

>  <SCORE.INTER.VDW>
-26.3878

>  <SCORE.INTER.norm>
-0.866537

>  <SCORE.INTRA>
-6.00797

>  <SCORE.INTRA.DIHEDRAL>
-9.13153

>  <SCORE.INTRA.DIHEDRAL.0>
11.9251

>  <SCORE.INTRA.POLAR>
0

>  <SCORE.INTRA.POLAR.0>
0

>  <SCORE.INTRA.REPUL>
0

>  <SCORE.INTRA.REPUL.0>
0

>  <SCORE.INTRA.SOLV>
-0.103199

>  <SCORE.INTRA.SOLV.lig_0>
-40.9823

>  <SCORE.INTRA.VDW>
-1.39061

>  <SCORE.INTRA.VDW.0>
-0.53506

>  <SCORE.INTRA.norm>
-0.27309

>  <SCORE.RESTR>
0

>  <SCORE.RESTR.CAVITY>
0

>  <SCORE.RESTR.norm>
0

>  <SCORE.SYSTEM>
0

>  <SCORE.SYSTEM.CONST>
0

>  <SCORE.SYSTEM.DIHEDRAL>
0

>  <SCORE.SYSTEM.SOLV>
0

>  <SCORE.SYSTEM.norm>
0

>  <SCORE.heavy>
22

>  <SCORE.norm>
-1.13963

>  <RMSD>
0.924

$$$$
lig.pdb
 OpenBabel11021811523D
libRbt.so/2013.1/901 2013/11/27
 22 23  0  0  0  0  0  0  0  0999 V2000
   57.5012  -18.4509    7.9904 O   0  0  0  0  0  0  0  0  0  0  0  0
   56.8477  -17.4391    8.0896 C   0  0  0  0  0  0  0  0  0  0  0  0
   55.5956  -17.3693    7.6735 N   0  0  0  0  0  0  0  0  0  0  0  0
   57.4537  -16.2214    8.6466 C   0  0  0  0  0  0  0  0  0  0  0  0
   58.7590  -16.1597    9.3083 C   0  0  0  0  0  0  0  0  0  0  0  0
   59.5829  -17.2084    9.5199 N   0  0  0  0  0  0  0  0  0  0  0  0
   56.9996  -14.9587    8.6877 N   0  0  0  0  0  0  0  0  0  0  0  0
   57.9412  -14.1808    9.2903 C   0  0  0  0  0  0  0  0  0  0  0  0
   59.0207  -14.9077    9.6662 N   0  0  0  0  0  0  0  0  0  0  0  0
   60.2319  -14.3785   10.3505 C   0  0  1  0  0  0  0  0  0  0  0  0
   60.9744  -13.4541    9.4101 C   0  0  1  0  0  0  0  0  0  0  0  0
   61.4558  -12.3416   10.3050 C   0  0  2  0  0  0  0  0  0  0  0  0
   62.7601  -12.6544   10.8101 O   0  0  0  0  0  0  0  0  0  0  0  0
   62.0568  -14.1387    8.7602 O   0  0  0  0  0  0  0  0  0  0  0  0
   59.8576  -13.5815   11.4713 O   0  0  0  0  0  0  0  0  0  0  0  0
   60.4861  -12.3224   11.4580 C   0  0  2  0  0  0  0  0  0  0  0  0
   59.3716  -11.3000   11.3734 C   0  0  0  0  0  0  0  0  0  0  0  0
   59.8728   -9.9981   11.1496 O   0  0  0  0  0  0  0  0  0  0  0  0
   58.8370   -8.7843   11.0702 P   0  0  0  0  0  0  0  0  0  0  0  0
   57.7663   -9.2446   10.1015 O   0  0  0  0  0  0  0  0  0  0  0  0
   59.7053   -7.6580   10.5720 O   0  0  0  0  0  0  0  0  0  0  0  0
   58.4160   -8.5928   12.5009 O   0  0  0  0  0  0  0  0  0  0  0  0
  2  1  2  0  0  0  0
  2  4  1  0  0  0  0
  3  2  1  0  0  0  0
  4  7  1  0  0  0  0
  4  5  2  0  0  0  0
  5  6  1  0  0  0  0
  5  9  1  0  0  0  0
  7  8  2  0  0  0  0
  8  9  1  0  0  0  0
 10  9  1  6  0  0  0
 10 15  1  0  0  0  0
 11 14  1  1  0  0  0
 11 12  1  0  0  0  0
 11 10  1  0  0  0  0
 12 13  1  1  0  0  0
 12 16  1  0  0  0  0
 16 17  1  6  0  0  0
 16 15  1  0  0  0  0
 18 19  1  0  0  0  0
 18 17  1  0  0  0  0
 19 21  1  0  0  0  0
 20 19  1  0  0  0  0
 22 19  2  0  0  0  0
M  END
>  <CHROM.1>
-10.24259088,113.90110662,-53.17033731,-49.32265370,-178.45119734,59.18126912
-13.05084138,10.02067397,1.76869948,0.19278816,-2.85085795

>  <Name>
lig.pdb

>  <RI>
0

>  <Rbt.Current_Directory>
/home/itssahil/PROJECTS/Mol_Feturizer/New_Systems/rnas/4znp

>  <Rbt.Executable>
rbdock ($Id: //depot/dev/client3/rdock/2013.1/src/exe/rbdock.cxx#4 $)

>  <Rbt.Library>
libRbt.so (2013.1, Build901 2013/11/27)

>  <Rbt.Parameter_File>
/export/apps/rDock/src/rDock_2013.1_src/data/scripts/dock_solv.prm

>  <Rbt.Receptor>
prm/pocket_docking_4.prm

>  <SCORE>
-25.1786

>  <SCORE.INTER>
-19.3495

>  <SCORE.INTER.CONST>
1

>  <SCORE.INTER.POLAR>
0

>  <SCORE.INTER.ROT>
5

>  <SCORE.INTER.SOLV>
20.5764

>  <SCORE.INTER.VDW>
-26.6918

>  <SCORE.INTER.norm>
-0.879522

>  <SCORE.INTRA>
-5.82914

>  <SCORE.INTRA.DIHEDRAL>
-8.84317

>  <SCORE.INTRA.DIHEDRAL.0>
11.9251

>  <SCORE.INTRA.POLAR>
0

>  <SCORE.INTRA.POLAR.0>
0

>  <SCORE.INTRA.REPUL>
0

>  <SCORE.INTRA.REPUL.0>
0

>  <SCORE.INTRA.SOLV>
-0.0939735

>  <SCORE.INTRA.SOLV.lig_0>
-40.9823

>  <SCORE.INTRA.VDW>
-1.36057

>  <SCORE.INTRA.VDW.0>
-0.53506

>  <SCORE.INTRA.norm>
-0.264961

>  <SCORE.RESTR>
0

>  <SCORE.RESTR.CAVITY>
0

>  <SCORE.RESTR.norm>
0

>  <SCORE.SYSTEM>
0

>  <SCORE.SYSTEM.CONST>
0

>  <SCORE.SYSTEM.DIHEDRAL>
0

>  <SCORE.SYSTEM.SOLV>
0

>  <SCORE.SYSTEM.norm>
0

>  <SCORE.heavy>
22

>  <SCORE.norm>
-1.14448

>  <RMSD>
0.933

$$$$
lig.pdb
 OpenBabel11021811523D
libRbt.so/2013.1/901 2013/11/27
 22 23  0  0  0  0  0  0  0  0999 V2000
   57.4344  -18.4151    8.0263 O   0  0  0  0  0  0  0  0  0  0  0  0
   56.8285  -17.3736    8.1189 C   0  0  0  0  0  0  0  0  0  0  0  0
   55.5816  -17.2480    7.7003 N   0  0  0  0  0  0  0  0  0  0  0  0
   57.4894  -16.1824    8.6707 C   0  0  0  0  0  0  0  0  0  0  0  0
   58.8133  -16.1707    9.2972 C   0  0  0  0  0  0  0  0  0  0  0  0
   59.6072  -17.2482    9.4765 N   0  0  0  0  0  0  0  0  0  0  0  0
   57.0790  -14.9058    8.7359 N   0  0  0  0  0  0  0  0  0  0  0  0
   58.0617  -14.1657    9.3199 C   0  0  0  0  0  0  0  0  0  0  0  0
   59.1261  -14.9317    9.6595 N   0  0  0  0  0  0  0  0  0  0  0  0
   60.3723  -14.4499   10.3156 C   0  0  1  0  0  0  0  0  0  0  0  0
   61.3178  -13.9149    9.2621 C   0  0  1  0  0  0  0  0  0  0  0  0
   61.9387  -12.7076    9.9159 C   0  0  2  0  0  0  0  0  0  0  0  0
   63.1368  -13.0898   10.6033 O   0  0  0  0  0  0  0  0  0  0  0  0
   62.2959  -14.9011    8.8969 O   0  0  0  0  0  0  0  0  0  0  0  0
   60.0838  -13.3530   11.1788 O   0  0  0  0  0  0  0  0  0  0  0  0
   60.9255  -12.2520   10.9336 C   0  0  2  0  0  0  0  0  0  0  0  0
   60.0165  -11.1181   10.5064 C   0  0  0  0  0  0  0  0  0  0  0  0
   60.6961   -9.8795   10.4951 O   0  0  0  0  0  0  0  0  0  0  0  0
   59.9358   -8.5965    9.9221 P   0  0  0  0  0  0  0  0  0  0  0  0
   58.5124   -8.7261   10.4260 O   0  0  0  0  0  0  0  0  0  0  0  0
   60.1028   -8.7668    8.4341 O   0  0  0  0  0  0  0  0  0  0  0  0
   60.7408   -7.4464   10.4606 O   0  0  0  0  0  0  0  0  0  0  0  0
  2  1  2  0  0  0  0
  2  4  1  0  0  0  0
  3  2  1  0  0  0  0
  4  7  1  0  0  0  0
  4  5  2  0  0  0  0
  5  6  1  0  0  0  0
  5  9  1  0  0  0  0
  7  8  2  0  0  0  0
  8  9  1  0  0  0  0
 10  9  1  6  0  0  0
 10 15  1  0  0  0  0
 11 14  1  1  0  0  0
 11 12  1  0  0  0  0
 11 10  1  0  0  0  0
 12 13  1  1  0  0  0
 12 16  1  0  0  0  0
 16 17  1  6  0  0  0
 16 15  1  0  0  0  0
 18 19  1  0  0  0  0
 18 17  1  0  0  0  0
 19 21  1  0  0  0  0
 20 19  1  0  0  0  0
 22 19  2  0  0  0  0
M  END
>  <CHROM.1>
-8.23857979,96.36818251,-74.26766547,39.64882484,173.65340096,59.62838163
-13.06198887,9.60234427,1.89328489,0.27563453,-3.04027723

>  <Name>
lig.pdb

>  <RI>
0

>  <Rbt.Current_Directory>
/home/itssahil/PROJECTS/Mol_Feturizer/New_Systems/rnas/4znp

>  <Rbt.Executable>
rbdock ($Id: //depot/dev/client3/rdock/2013.1/src/exe/rbdock.cxx#4 $)

>  <Rbt.Library>
libRbt.so (2013.1, Build901 2013/11/27)

>  <Rbt.Parameter_File>
/export/apps/rDock/src/rDock_2013.1_src/data/scripts/dock_solv.prm

>  <Rbt.Receptor>
prm/pocket_docking_3.prm

>  <SCORE>
-24.8954

>  <SCORE.INTER>
-19.6152

>  <SCORE.INTER.CONST>
1

>  <SCORE.INTER.POLAR>
0

>  <SCORE.INTER.ROT>
5

>  <SCORE.INTER.SOLV>
21.3238

>  <SCORE.INTER.VDW>
-27.1181

>  <SCORE.INTER.norm>
-0.891601

>  <SCORE.INTRA>
-5.28016

>  <SCORE.INTRA.DIHEDRAL>
-7.88262

>  <SCORE.INTRA.DIHEDRAL.0>
11.9251

>  <SCORE.INTRA.POLAR>
0

>  <SCORE.INTRA.POLAR.0>
0

>  <SCORE.INTRA.REPUL>
0

>  <SCORE.INTRA.REPUL.0>
0

>  <SCORE.INTRA.SOLV>
-0.166857

>  <SCORE.INTRA.SOLV.lig_0>
-40.9823

>  <SCORE.INTRA.VDW>
-1.25543

>  <SCORE.INTRA.VDW.0>
-0.53506

>  <SCORE.INTRA.norm>
-0.240007

>  <SCORE.RESTR>
0

>  <SCORE.RESTR.CAVITY>
0

>  <SCORE.RESTR.norm>
0

>  <SCORE.SYSTEM>
0

>  <SCORE.SYSTEM.CONST>
0

>  <SCORE.SYSTEM.DIHEDRAL>
0

>  <SCORE.SYSTEM.SOLV>
0

>  <SCORE.SYSTEM.norm>
0

>  <SCORE.heavy>
22

>  <SCORE.norm>
-1.13161

>  <RMSD>
0.944

$$$$
lig.pdb
 OpenBabel11021811523D
libRbt.so/2013.1/901 2013/11/27
 22 23  0  0  0  0  0  0  0  0999 V2000
   55.6203  -17.0581    7.9437 O   0  0  0  0  0  0  0  0  0  0  0  0
   56.7930  -17.1451    8.2222 C   0  0  0  0  0  0  0  0  0  0  0  0
   57.4579  -18.2815    8.1110 N   0  0  0  0  0  0  0  0  0  0  0  0
   57.5157  -15.9766    8.7444 C   0  0  0  0  0  0  0  0  0  0  0  0
   58.8667  -16.0079    9.3091 C   0  0  0  0  0  0  0  0  0  0  0  0
   59.6340  -17.1101    9.4502 N   0  0  0  0  0  0  0  0  0  0  0  0
   57.1488  -14.6880    8.8301 N   0  0  0  0  0  0  0  0  0  0  0  0
   58.1801  -13.9805    9.3691 C   0  0  0  0  0  0  0  0  0  0  0  0
   59.2345  -14.7803    9.6582 N   0  0  0  0  0  0  0  0  0  0  0  0
   60.5240  -14.3394   10.2567 C   0  0  1  0  0  0  0  0  0  0  0  0
   61.2832  -13.5030    9.2495 C   0  0  1  0  0  0  0  0  0  0  0  0
   61.9075  -12.4146   10.0837 C   0  0  2  0  0  0  0  0  0  0  0  0
   63.2092  -12.8244   10.5216 O   0  0  0  0  0  0  0  0  0  0  0  0
   62.2645  -14.2913    8.5581 O   0  0  0  0  0  0  0  0  0  0  0  0
   60.2844  -13.4878   11.3743 O   0  0  0  0  0  0  0  0  0  0  0  0
   61.0132  -12.2868   11.2894 C   0  0  2  0  0  0  0  0  0  0  0  0
   59.9842  -11.1763   11.2402 C   0  0  0  0  0  0  0  0  0  0  0  0
   60.5925   -9.9016   11.2036 O   0  0  0  0  0  0  0  0  0  0  0  0
   59.6553   -8.6077   11.2131 P   0  0  0  0  0  0  0  0  0  0  0  0
   58.8524   -8.7139   12.4941 O   0  0  0  0  0  0  0  0  0  0  0  0
   58.8590   -8.7832    9.9459 O   0  0  0  0  0  0  0  0  0  0  0  0
   60.6335   -7.4695   11.1216 O   0  0  0  0  0  0  0  0  0  0  0  0
  2  1  2  0  0  0  0
  2  4  1  0  0  0  0
  3  2  1  0  0  0  0
  4  7  1  0  0  0  0
  4  5  2  0  0  0  0
  5  6  1  0  0  0  0
  5  9  1  0  0  0  0
  7  8  2  0  0  0  0
  8  9  1  0  0  0  0
 10  9  1  6  0  0  0
 10 15  1  0  0  0  0
 11 14  1  1  0  0  0
 11 12  1  0  0  0  0
 11 10  1  0  0  0  0
 12 13  1  1  0  0  0
 12 16  1  0  0  0  0
 16 17  1  6  0  0  0
 16 15  1  0  0  0  0
 18 19  1  0  0  0  0
 18 17  1  0  0  0  0
 19 21  1  0  0  0  0
 20 19  1  0  0  0  0
 22 19  2  0  0  0  0
M  END
>  <CHROM.1>
169.96935021,111.36849064,-64.27106750,58.99702952,-177.39333081,59.57186847
-12.92878521,10.02648365,1.85686082,0.12430491,-2.84783789

>  <Name>
lig.pdb

>  <RI>
0

>  <Rbt.Current_Directory>
/home/itssahil/PROJECTS/Mol_Feturizer/New_Systems/rnas/4znp

>  <Rbt.Executable>
rbdock ($Id: //depot/dev/client3/rdock/2013.1/src/exe/rbdock.cxx#4 $)

>  <Rbt.Library>
libRbt.so (2013.1, Build901 2013/11/27)

>  <Rbt.Parameter_File>
/export/apps/rDock/src/rDock_2013.1_src/data/scripts/dock_solv.prm

>  <Rbt.Receptor>
prm/pocket_docking_7.prm

>  <SCORE>
-24.9082

>  <SCORE.INTER>
-18.968

>  <SCORE.INTER.CONST>
1

>  <SCORE.INTER.POLAR>
0

>  <SCORE.INTER.ROT>
5

>  <SCORE.INTER.SOLV>
19.6603

>  <SCORE.INTER.VDW>
-26.1321

>  <SCORE.INTER.norm>
-0.862183

>  <SCORE.INTRA>
-5.94016

>  <SCORE.INTRA.DIHEDRAL>
-9.14255

>  <SCORE.INTRA.DIHEDRAL.0>
11.9251

>  <SCORE.INTRA.POLAR>
0

>  <SCORE.INTRA.POLAR.0>
0

>  <SCORE.INTRA.REPUL>
0

>  <SCORE.INTRA.REPUL.0>
0

>  <SCORE.INTRA.SOLV>
-0.0818071

>  <SCORE.INTRA.SOLV.lig_0>
-40.9823

>  <SCORE.INTRA.VDW>
-1.32799

>  <SCORE.INTRA.VDW.0>
-0.53506

>  <SCORE.INTRA.norm>
-0.270007

>  <SCORE.RESTR>
0

>  <SCORE.RESTR.CAVITY>
0

>  <SCORE.RESTR.norm>
0

>  <SCORE.SYSTEM>
0

>  <SCORE.SYSTEM.CONST>
0

>  <SCORE.SYSTEM.DIHEDRAL>
0

>  <SCORE.SYSTEM.SOLV>
0

>  <SCORE.SYSTEM.norm>
0

>  <SCORE.heavy>
22

>  <SCORE.norm>
-1.13219

>  <RMSD>
1.040

$$$$
lig.pdb
 OpenBabel11021811523D
libRbt.so/2013.1/901 2013/11/27
 22 23  0  0  0  0  0  0  0  0999 V2000
   57.6660  -18.3446    8.0686 O   0  0  0  0  0  0  0  0  0  0  0  0
   56.9827  -17.3506    8.1438 C   0  0  0  0  0  0  0  0  0  0  0  0
   55.7285  -17.3287    7.7288 N   0  0  0  0  0  0  0  0  0  0  0  0
   57.5528  -16.1018    8.6689 C   0  0  0  0  0  0  0  0  0  0  0  0
   58.8627  -15.9821    9.3133 C   0  0  0  0  0  0  0  0  0  0  0  0
   59.7245  -16.9975    9.5359 N   0  0  0  0  0  0  0  0  0  0  0  0
   57.0561  -14.8547    8.6901 N   0  0  0  0  0  0  0  0  0  0  0  0
   57.9772  -14.0330    9.2654 C   0  0  0  0  0  0  0  0  0  0  0  0
   59.0852  -14.7148    9.6427 N   0  0  0  0  0  0  0  0  0  0  0  0
   60.2853  -14.1307   10.3015 C   0  0  1  0  0  0  0  0  0  0  0  0
   61.4192  -14.0577    9.3020 C   0  0  1  0  0  0  0  0  0  0  0  0
   62.0947  -12.7487    9.6194 C   0  0  2  0  0  0  0  0  0  0  0  0
   63.1361  -12.9600   10.5810 O   0  0  0  0  0  0  0  0  0  0  0  0
   62.3065  -15.1780    9.4444 O   0  0  0  0  0  0  0  0  0  0  0  0
   60.0253  -12.7871   10.7002 O   0  0  0  0  0  0  0  0  0  0  0  0
   61.0219  -11.9004   10.2516 C   0  0  2  0  0  0  0  0  0  0  0  0
   60.3243  -10.9169    9.3347 C   0  0  0  0  0  0  0  0  0  0  0  0
   59.2728  -10.2427    9.9949 O   0  0  0  0  0  0  0  0  0  0  0  0
   59.6380   -9.2231   11.1694 P   0  0  0  0  0  0  0  0  0  0  0  0
   60.2705  -10.0781   12.2490 O   0  0  0  0  0  0  0  0  0  0  0  0
   58.2903   -8.6475   11.5206 O   0  0  0  0  0  0  0  0  0  0  0  0
   60.5305   -8.2195   10.4933 O   0  0  0  0  0  0  0  0  0  0  0  0
  2  1  2  0  0  0  0
  2  4  1  0  0  0  0
  3  2  1  0  0  0  0
  4  7  1  0  0  0  0
  4  5  2  0  0  0  0
  5  6  1  0  0  0  0
  5  9  1  0  0  0  0
  7  8  2  0  0  0  0
  8  9  1  0  0  0  0
 10  9  1  6  0  0  0
 10 15  1  0  0  0  0
 11 14  1  1  0  0  0
 11 12  1  0  0  0  0
 11 10  1  0  0  0  0
 12 13  1  1  0  0  0
 12 16  1  0  0  0  0
 16 17  1  6  0  0  0
 16 15  1  0  0  0  0
 18 19  1  0  0  0  0
 18 17  1  0  0  0  0
 19 21  1  0  0  0  0
 20 19  1  0  0  0  0
 22 19  2  0  0  0  0
M  END
>  <CHROM.1>
-9.56015594,74.57474287,175.62376442,-64.08101369,67.47866759,59.56597673
-13.14967842,9.85194055,1.85792345,0.13830772,-2.86097483

>  <Name>
lig.pdb

>  <RI>
0

>  <Rbt.Current_Directory>
/home/itssahil/PROJECTS/Mol_Feturizer/New_Systems/rnas/4znp

>  <Rbt.Executable>
rbdock ($Id: //depot/dev/client3/rdock/2013.1/src/exe/rbdock.cxx#4 $)

>  <Rbt.Library>
libRbt.so (2013.1, Build901 2013/11/27)

>  <Rbt.Parameter_File>
/export/apps/rDock/src/rDock_2013.1_src/data/scripts/dock_solv.prm

>  <Rbt.Receptor>
prm/pocket_docking_3.prm

>  <SCORE>
-24.8392

>  <SCORE.INTER>
-19.7114

>  <SCORE.INTER.CONST>
1

>  <SCORE.INTER.POLAR>
0

>  <SCORE.INTER.ROT>
5

>  <SCORE.INTER.SOLV>
19.8768

>  <SCORE.INTER.VDW>
-26.6999

>  <SCORE.INTER.norm>
-0.895972

>  <SCORE.INTRA>
-5.1278

>  <SCORE.INTRA.DIHEDRAL>
-8.91936

>  <SCORE.INTRA.DIHEDRAL.0>
11.9251

>  <SCORE.INTRA.POLAR>
0

>  <SCORE.INTRA.POLAR.0>
0

>  <SCORE.INTRA.REPUL>
0

>  <SCORE.INTRA.REPUL.0>
0

>  <SCORE.INTRA.SOLV>
1.32567

>  <SCORE.INTRA.SOLV.lig_0>
-40.9823

>  <SCORE.INTRA.VDW>
-1.33095

>  <SCORE.INTRA.VDW.0>
-0.53506

>  <SCORE.INTRA.norm>
-0.233082

>  <SCORE.RESTR>
0

>  <SCORE.RESTR.CAVITY>
0

>  <SCORE.RESTR.norm>
0

>  <SCORE.SYSTEM>
0

>  <SCORE.SYSTEM.CONST>
0

>  <SCORE.SYSTEM.DIHEDRAL>
0

>  <SCORE.SYSTEM.SOLV>
0

>  <SCORE.SYSTEM.norm>
0

>  <SCORE.heavy>
22

>  <SCORE.norm>
-1.12905

>  <RMSD>
1.041

$$$$
lig.pdb
 OpenBabel11021811523D
libRbt.so/2013.1/901 2013/11/27
 22 23  0  0  0  0  0  0  0  0999 V2000
   55.6933  -17.2140    7.8661 O   0  0  0  0  0  0  0  0  0  0  0  0
   56.8673  -17.2794    8.1449 C   0  0  0  0  0  0  0  0  0  0  0  0
   57.5606  -18.3953    8.0036 N   0  0  0  0  0  0  0  0  0  0  0  0
   57.5596  -16.1083    8.7013 C   0  0  0  0  0  0  0  0  0  0  0  0
   58.9099  -16.1217    9.2686 C   0  0  0  0  0  0  0  0  0  0  0  0
   59.7040  -17.2080    9.3811 N   0  0  0  0  0  0  0  0  0  0  0  0
   57.1606  -14.8321    8.8217 N   0  0  0  0  0  0  0  0  0  0  0  0
   58.1728  -14.1144    9.3829 C   0  0  0  0  0  0  0  0  0  0  0  0
   59.2463  -14.8955    9.6526 N   0  0  0  0  0  0  0  0  0  0  0  0
   60.5232  -14.4395   10.2665 C   0  0  1  0  0  0  0  0  0  0  0  0
   61.2868  -13.5983    9.2668 C   0  0  1  0  0  0  0  0  0  0  0  0
   61.8889  -12.5010   10.1057 C   0  0  2  0  0  0  0  0  0  0  0  0
   63.1889  -12.8961   10.5619 O   0  0  0  0  0  0  0  0  0  0  0  0
   62.2852  -14.3785    8.5908 O   0  0  0  0  0  0  0  0  0  0  0  0
   60.2602  -13.5872   11.3783 O   0  0  0  0  0  0  0  0  0  0  0  0
   60.9775  -12.3789   11.2992 C   0  0  2  0  0  0  0  0  0  0  0  0
   59.9379  -11.2793   11.2331 C   0  0  0  0  0  0  0  0  0  0  0  0
   60.5339  -10.0012   11.1476 O   0  0  0  0  0  0  0  0  0  0  0  0
   59.5876   -8.7142   11.1706 P   0  0  0  0  0  0  0  0  0  0  0  0
   58.8612   -8.7847   12.4988 O   0  0  0  0  0  0  0  0  0  0  0  0
   58.7208   -8.9358    9.9580 O   0  0  0  0  0  0  0  0  0  0  0  0
   60.5488   -7.5728   10.9863 O   0  0  0  0  0  0  0  0  0  0  0  0
  2  1  2  0  0  0  0
  2  4  1  0  0  0  0
  3  2  1  0  0  0  0
  4  7  1  0  0  0  0
  4  5  2  0  0  0  0
  5  6  1  0  0  0  0
  5  9  1  0  0  0  0
  7  8  2  0  0  0  0
  8  9  1  0  0  0  0
 10  9  1  6  0  0  0
 10 15  1  0  0  0  0
 11 14  1  1  0  0  0
 11 12  1  0  0  0  0
 11 10  1  0  0  0  0
 12 13  1  1  0  0  0
 12 16  1  0  0  0  0
 16 17  1  6  0  0  0
 16 15  1  0  0  0  0
 18 19  1  0  0  0  0
 18 17  1  0  0  0  0
 19 21  1  0  0  0  0
 20 19  1  0  0  0  0
 22 19  2  0  0  0  0
M  END
>  <CHROM.1>
169.94858914,109.32026473,-61.95842681,60.23934032,-175.85671460,59.56460393
-13.03770998,10.00263415,1.84177950,0.13872369,-2.84777590

>  <Name>
lig.pdb

>  <RI>
0

>  <Rbt.Current_Directory>
/home/itssahil/PROJECTS/Mol_Feturizer/New_Systems/rnas/4znp

>  <Rbt.Executable>
rbdock ($Id: //depot/dev/client3/rdock/2013.1/src/exe/rbdock.cxx#4 $)

>  <Rbt.Library>
libRbt.so (2013.1, Build901 2013/11/27)

>  <Rbt.Parameter_File>
/export/apps/rDock/src/rDock_2013.1_src/data/scripts/dock_solv.prm

>  <Rbt.Receptor>
prm/pocket_docking_2.prm

>  <SCORE>
-24.9243

>  <SCORE.INTER>
-18.9998

>  <SCORE.INTER.CONST>
1

>  <SCORE.INTER.POLAR>
0

>  <SCORE.INTER.ROT>
5

>  <SCORE.INTER.SOLV>
20.0443

>  <SCORE.INTER.VDW>
-26.2813

>  <SCORE.INTER.norm>
-0.863626

>  <SCORE.INTRA>
-5.92449

>  <SCORE.INTRA.DIHEDRAL>
-9.14523

>  <SCORE.INTRA.DIHEDRAL.0>
11.9251

>  <SCORE.INTRA.POLAR>
0

>  <SCORE.INTRA.POLAR.0>
0

>  <SCORE.INTRA.REPUL>
0

>  <SCORE.INTRA.REPUL.0>
0

>  <SCORE.INTRA.SOLV>
-0.0581204

>  <SCORE.INTRA.SOLV.lig_0>
-40.9823

>  <SCORE.INTRA.VDW>
-1.32281

>  <SCORE.INTRA.VDW.0>
-0.53506

>  <SCORE.INTRA.norm>
-0.269295

>  <SCORE.RESTR>
0

>  <SCORE.RESTR.CAVITY>
0

>  <SCORE.RESTR.norm>
0

>  <SCORE.SYSTEM>
0

>  <SCORE.SYSTEM.CONST>
0

>  <SCORE.SYSTEM.DIHEDRAL>
0

>  <SCORE.SYSTEM.SOLV>
0

>  <SCORE.SYSTEM.norm>
0

>  <SCORE.heavy>
22

>  <SCORE.norm>
-1.13292

>  <RMSD>
1.042

$$$$
lig.pdb
 OpenBabel11021811523D
libRbt.so/2013.1/901 2013/11/27
 22 23  0  0  0  0  0  0  0  0999 V2000
   55.7225  -17.1824    7.8007 O   0  0  0  0  0  0  0  0  0  0  0  0
   56.8838  -17.2508    8.1280 C   0  0  0  0  0  0  0  0  0  0  0  0
   57.5749  -18.3728    8.0309 N   0  0  0  0  0  0  0  0  0  0  0  0
   57.5606  -16.0759    8.6952 C   0  0  0  0  0  0  0  0  0  0  0  0
   58.9065  -16.0794    9.2731 C   0  0  0  0  0  0  0  0  0  0  0  0
   59.7099  -17.1587    9.3869 N   0  0  0  0  0  0  0  0  0  0  0  0
   57.1487  -14.8041    8.8185 N   0  0  0  0  0  0  0  0  0  0  0  0
   58.1497  -14.0797    9.3910 C   0  0  0  0  0  0  0  0  0  0  0  0
   59.2283  -14.8519    9.6655 N   0  0  0  0  0  0  0  0  0  0  0  0
   60.4960  -14.3869   10.2917 C   0  0  1  0  0  0  0  0  0  0  0  0
   61.2717  -13.5552    9.2933 C   0  0  1  0  0  0  0  0  0  0  0  0
   61.8604  -12.4477   10.1283 C   0  0  2  0  0  0  0  0  0  0  0  0
   63.1548  -12.8354   10.6063 O   0  0  0  0  0  0  0  0  0  0  0  0
   62.2805  -14.3408    8.6393 O   0  0  0  0  0  0  0  0  0  0  0  0
   60.2165  -13.5231   11.3905 O   0  0  0  0  0  0  0  0  0  0  0  0
   60.9328  -12.3144   11.3080 C   0  0  2  0  0  0  0  0  0  0  0  0
   59.8922  -11.2175   11.2159 C   0  0  0  0  0  0  0  0  0  0  0  0
   60.4850   -9.9352   11.1988 O   0  0  0  0  0  0  0  0  0  0  0  0
   59.5322   -8.6530   11.2295 P   0  0  0  0  0  0  0  0  0  0  0  0
   58.7105   -8.8048   12.4938 O   0  0  0  0  0  0  0  0  0  0  0  0
   58.7583   -8.8018    9.9451 O   0  0  0  0  0  0  0  0  0  0  0  0
   60.4980   -7.5014   11.1859 O   0  0  0  0  0  0  0  0  0  0  0  0
  2  1  2  0  0  0  0
  2  4  1  0  0  0  0
  3  2  1  0  0  0  0
  4  7  1  0  0  0  0
  4  5  2  0  0  0  0
  5  6  1  0  0  0  0
  5  9  1  0  0  0  0
  7  8  2  0  0  0  0
  8  9  1  0  0  0  0
 10  9  1  6  0  0  0
 10 15  1  0  0  0  0
 11 14  1  1  0  0  0
 11 12  1  0  0  0  0
 11 10  1  0  0  0  0
 12 13  1  1  0  0  0
 12 16  1  0  0  0  0
 16 17  1  6  0  0  0
 16 15  1  0  0  0  0
 18 19  1  0  0  0  0
 18 17  1  0  0  0  0
 19 21  1  0  0  0  0
 20 19  1  0  0  0  0
 22 19  2  0  0  0  0
M  END
>  <CHROM.1>
172.29986109,108.27777316,-65.20267990,57.78428759,-174.89442422,59.53919754
-12.98813104,10.02539332,1.83203898,0.14253481,-2.84170518

>  <Name>
lig.pdb

>  <RI>
0

>  <Rbt.Current_Directory>
/home/itssahil/PROJECTS/Mol_Feturizer/New_Systems/rnas/4znp

>  <Rbt.Executable>
rbdock ($Id: //depot/dev/client3/rdock/2013.1/src/exe/rbdock.cxx#4 $)

>  <Rbt.Library>
libRbt.so (2013.1, Build901 2013/11/27)

>  <Rbt.Parameter_File>
/export/apps/rDock/src/rDock_2013.1_src/data/scripts/dock_solv.prm

>  <Rbt.Receptor>
prm/pocket_docking_3.prm

>  <SCORE>
-24.7778

>  <SCORE.INTER>
-18.8353

>  <SCORE.INTER.CONST>
1

>  <SCORE.INTER.POLAR>
0

>  <SCORE.INTER.ROT>
5

>  <SCORE.INTER.SOLV>
19.8695

>  <SCORE.INTER.VDW>
-26.1134

>  <SCORE.INTER.norm>
-0.856151

>  <SCORE.INTRA>
-5.94245

>  <SCORE.INTRA.DIHEDRAL>
-9.1433

>  <SCORE.INTRA.DIHEDRAL.0>
11.9251

>  <SCORE.INTRA.POLAR>
0

>  <SCORE.INTRA.POLAR.0>
0

>  <SCORE.INTRA.REPUL>
0

>  <SCORE.INTRA.REPUL.0>
0

>  <SCORE.INTRA.SOLV>
-0.063641

>  <SCORE.INTRA.SOLV.lig_0>
-40.9823

>  <SCORE.INTRA.VDW>
-1.33898

>  <SCORE.INTRA.VDW.0>
-0.53506

>  <SCORE.INTRA.norm>
-0.270111

>  <SCORE.RESTR>
0

>  <SCORE.RESTR.CAVITY>
0

>  <SCORE.RESTR.norm>
0

>  <SCORE.SYSTEM>
0

>  <SCORE.SYSTEM.CONST>
0

>  <SCORE.SYSTEM.DIHEDRAL>
0

>  <SCORE.SYSTEM.SOLV>
0

>  <SCORE.SYSTEM.norm>
0

>  <SCORE.heavy>
22

>  <SCORE.norm>
-1.12626

>  <RMSD>
1.042

$$$$
lig.pdb
 OpenBabel11021811523D
libRbt.so/2013.1/901 2013/11/27
 22 23  0  0  0  0  0  0  0  0999 V2000
   55.7216  -17.1748    7.7737 O   0  0  0  0  0  0  0  0  0  0  0  0
   56.8788  -17.2573    8.1122 C   0  0  0  0  0  0  0  0  0  0  0  0
   57.5540  -18.3902    8.0316 N   0  0  0  0  0  0  0  0  0  0  0  0
   57.5678  -16.0873    8.6748 C   0  0  0  0  0  0  0  0  0  0  0  0
   58.8927  -16.1124    9.2990 C   0  0  0  0  0  0  0  0  0  0  0  0
   59.6619  -17.2096    9.4658 N   0  0  0  0  0  0  0  0  0  0  0  0
   57.1869  -14.8024    8.7539 N   0  0  0  0  0  0  0  0  0  0  0  0
   58.1874  -14.0910    9.3436 C   0  0  0  0  0  0  0  0  0  0  0  0
   59.2344  -14.8847    9.6734 N   0  0  0  0  0  0  0  0  0  0  0  0
   60.4923  -14.4384   10.3320 C   0  0  1  0  0  0  0  0  0  0  0  0
   61.3551  -13.7119    9.3230 C   0  0  1  0  0  0  0  0  0  0  0  0
   61.9576  -12.5799   10.1140 C   0  0  2  0  0  0  0  0  0  0  0  0
   63.2069  -12.9945   10.6811 O   0  0  0  0  0  0  0  0  0  0  0  0
   62.3537  -14.5853    8.7730 O   0  0  0  0  0  0  0  0  0  0  0  0
   60.2040  -13.4912   11.3574 O   0  0  0  0  0  0  0  0  0  0  0  0
   60.9825  -12.3253   11.2339 C   0  0  2  0  0  0  0  0  0  0  0  0
   60.0033  -11.1898   11.0188 C   0  0  0  0  0  0  0  0  0  0  0  0
   60.6504   -9.9339   11.0239 O   0  0  0  0  0  0  0  0  0  0  0  0
   59.7777   -8.6242   10.7489 P   0  0  0  0  0  0  0  0  0  0  0  0
   59.3820   -8.7157    9.2887 O   0  0  0  0  0  0  0  0  0  0  0  0
   60.7494   -7.5204   11.0776 O   0  0  0  0  0  0  0  0  0  0  0  0
   58.6673   -8.7285   11.7573 O   0  0  0  0  0  0  0  0  0  0  0  0
  2  1  2  0  0  0  0
  2  4  1  0  0  0  0
  3  2  1  0  0  0  0
  4  7  1  0  0  0  0
  4  5  2  0  0  0  0
  5  6  1  0  0  0  0
  5  9  1  0  0  0  0
  7  8  2  0  0  0  0
  8  9  1  0  0  0  0
 10  9  1  6  0  0  0
 10 15  1  0  0  0  0
 11 14  1  1  0  0  0
 11 12  1  0  0  0  0
 11 10  1  0  0  0  0
 12 13  1  1  0  0  0
 12 16  1  0  0  0  0
 16 17  1  6  0  0  0
 16 15  1  0  0  0  0
 18 19  1  0  0  0  0
 18 17  1  0  0  0  0
 19 21  1  0  0  0  0
 20 19  1  0  0  0  0
 22 19  2  0  0  0  0
M  END
>  <CHROM.1>
170.48232783,105.46996509,-68.48657549,-69.25736440,177.45769779,59.62965051
-13.01526454,9.89588025,1.86573696,0.21378918,-2.91607883

>  <Name>
lig.pdb

>  <RI>
0

>  <Rbt.Current_Directory>
/home/itssahil/PROJECTS/Mol_Feturizer/New_Systems/rnas/4znp

>  <Rbt.Executable>
rbdock ($Id: //depot/dev/client3/rdock/2013.1/src/exe/rbdock.cxx#4 $)

>  <Rbt.Library>
libRbt.so (2013.1, Build901 2013/11/27)

>  <Rbt.Parameter_File>
/export/apps/rDock/src/rDock_2013.1_src/data/scripts/dock_solv.prm

>  <Rbt.Receptor>
prm/pocket_docking_2.prm

>  <SCORE>
-24.5697

>  <SCORE.INTER>
-18.892

>  <SCORE.INTER.CONST>
1

>  <SCORE.INTER.POLAR>
0

>  <SCORE.INTER.ROT>
5

>  <SCORE.INTER.SOLV>
20.4482

>  <SCORE.INTER.VDW>
-26.3441

>  <SCORE.INTER.norm>
-0.858728

>  <SCORE.INTRA>
-5.67771

>  <SCORE.INTRA.DIHEDRAL>
-8.87631

>  <SCORE.INTRA.DIHEDRAL.0>
11.9251

>  <SCORE.INTRA.POLAR>
0

>  <SCORE.INTRA.POLAR.0>
0

>  <SCORE.INTRA.REPUL>
0

>  <SCORE.INTRA.REPUL.0>
0

>  <SCORE.INTRA.SOLV>
0.247007

>  <SCORE.INTRA.SOLV.lig_0>
-40.9823

>  <SCORE.INTRA.VDW>
-1.36306

>  <SCORE.INTRA.VDW.0>
-0.53506

>  <SCORE.INTRA.norm>
-0.258078

>  <SCORE.RESTR>
0

>  <SCORE.RESTR.CAVITY>
0

>  <SCORE.RESTR.norm>
0

>  <SCORE.SYSTEM>
0

>  <SCORE.SYSTEM.CONST>
0

>  <SCORE.SYSTEM.DIHEDRAL>
0

>  <SCORE.SYSTEM.SOLV>
0

>  <SCORE.SYSTEM.norm>
0

>  <SCORE.heavy>
22

>  <SCORE.norm>
-1.11681

>  <RMSD>
1.043

$$$$
lig.pdb
 OpenBabel11021811523D
libRbt.so/2013.1/901 2013/11/27
 22 23  0  0  0  0  0  0  0  0999 V2000
   55.7076  -17.2438    7.8626 O   0  0  0  0  0  0  0  0  0  0  0  0
   56.8818  -17.2953    8.1435 C   0  0  0  0  0  0  0  0  0  0  0  0
   57.5878  -18.4037    8.0065 N   0  0  0  0  0  0  0  0  0  0  0  0
   57.5600  -16.1149    8.6975 C   0  0  0  0  0  0  0  0  0  0  0  0
   58.8950  -16.1187    9.3001 C   0  0  0  0  0  0  0  0  0  0  0  0
   59.6853  -17.2031    9.4521 N   0  0  0  0  0  0  0  0  0  0  0  0
   57.1588  -14.8367    8.7853 N   0  0  0  0  0  0  0  0  0  0  0  0
   58.1565  -14.1096    9.3603 C   0  0  0  0  0  0  0  0  0  0  0  0
   59.2220  -14.8861    9.6715 N   0  0  0  0  0  0  0  0  0  0  0  0
   60.4827  -14.4199   10.3107 C   0  0  1  0  0  0  0  0  0  0  0  0
   61.2732  -13.5968    9.3168 C   0  0  1  0  0  0  0  0  0  0  0  0
   61.8539  -12.4850   10.1517 C   0  0  2  0  0  0  0  0  0  0  0  0
   63.1410  -12.8724   10.6489 O   0  0  0  0  0  0  0  0  0  0  0  0
   62.2883  -14.3891    8.6811 O   0  0  0  0  0  0  0  0  0  0  0  0
   60.1913  -13.5479   11.3999 O   0  0  0  0  0  0  0  0  0  0  0  0
   60.9115  -12.3415   11.3184 C   0  0  2  0  0  0  0  0  0  0  0  0
   59.8749  -11.2428   11.2056 C   0  0  0  0  0  0  0  0  0  0  0  0
   60.4740   -9.9666   11.1139 O   0  0  0  0  0  0  0  0  0  0  0  0
   59.5284   -8.6790   11.0898 P   0  0  0  0  0  0  0  0  0  0  0  0
   58.5956   -8.8990    9.9158 O   0  0  0  0  0  0  0  0  0  0  0  0
   60.5213   -7.5593   10.9134 O   0  0  0  0  0  0  0  0  0  0  0  0
   58.9044   -8.6806   12.4577 O   0  0  0  0  0  0  0  0  0  0  0  0
  2  1  2  0  0  0  0
  2  4  1  0  0  0  0
  3  2  1  0  0  0  0
  4  7  1  0  0  0  0
  4  5  2  0  0  0  0
  5  6  1  0  0  0  0
  5  9  1  0  0  0  0
  7  8  2  0  0  0  0
  8  9  1  0  0  0  0
 10  9  1  6  0  0  0
 10 15  1  0  0  0  0
 11 14  1  1  0  0  0
 11 12  1  0  0  0  0
 11 10  1  0  0  0  0
 12 13  1  1  0  0  0
 12 16  1  0  0  0  0
 16 17  1  6  0  0  0
 16 15  1  0  0  0  0
 18 19  1  0  0  0  0
 18 17  1  0  0  0  0
 19 21  1  0  0  0  0
 20 19  1  0  0  0  0
 22 19  2  0  0  0  0
M  END
>  <CHROM.1>
168.18436042,109.29434170,-61.98827026,-56.70821586,-175.83649361,59.53584658
-13.02012731,10.00290828,1.83550912,0.16440551,-2.86225903

>  <Name>
lig.pdb

>  <RI>
0

>  <Rbt.Current_Directory>
/home/itssahil/PROJECTS/Mol_Feturizer/New_Systems/rnas/4znp

>  <Rbt.Executable>
rbdock ($Id: //depot/dev/client3/rdock/2013.1/src/exe/rbdock.cxx#4 $)

>  <Rbt.Library>
libRbt.so (2013.1, Build901 2013/11/27)

>  <Rbt.Parameter_File>
/export/apps/rDock/src/rDock_2013.1_src/data/scripts/dock_solv.prm

>  <Rbt.Receptor>
prm/pocket_docking_2.prm

>  <SCORE>
-24.8094

>  <SCORE.INTER>
-19.0014

>  <SCORE.INTER.CONST>
1

>  <SCORE.INTER.POLAR>
0

>  <SCORE.INTER.ROT>
5

>  <SCORE.INTER.SOLV>
20.1363

>  <SCORE.INTER.VDW>
-26.3131

>  <SCORE.INTER.norm>
-0.863701

>  <SCORE.INTRA>
-5.80796

>  <SCORE.INTRA.DIHEDRAL>
-8.99931

>  <SCORE.INTRA.DIHEDRAL.0>
11.9251

>  <SCORE.INTRA.POLAR>
0

>  <SCORE.INTRA.POLAR.0>
0

>  <SCORE.INTRA.REPUL>
0

>  <SCORE.INTRA.REPUL.0>
0

>  <SCORE.INTRA.SOLV>
0.173705

>  <SCORE.INTRA.SOLV.lig_0>
-40.9823

>  <SCORE.INTRA.VDW>
-1.39515

>  <SCORE.INTRA.VDW.0>
-0.53506

>  <SCORE.INTRA.norm>
-0.263998

>  <SCORE.RESTR>
0

>  <SCORE.RESTR.CAVITY>
0

>  <SCORE.RESTR.norm>
0

>  <SCORE.SYSTEM>
0

>  <SCORE.SYSTEM.CONST>
0

>  <SCORE.SYSTEM.DIHEDRAL>
0

>  <SCORE.SYSTEM.SOLV>
0

>  <SCORE.SYSTEM.norm>
0

>  <SCORE.heavy>
22

>  <SCORE.norm>
-1.1277

>  <RMSD>
1.043

$$$$
lig.pdb
 OpenBabel11021811523D
libRbt.so/2013.1/901 2013/11/27
 22 23  0  0  0  0  0  0  0  0999 V2000
   55.7062  -17.2093    7.8183 O   0  0  0  0  0  0  0  0  0  0  0  0
   56.8726  -17.2828    8.1259 C   0  0  0  0  0  0  0  0  0  0  0  0
   57.5588  -18.4061    8.0107 N   0  0  0  0  0  0  0  0  0  0  0  0
   57.5620  -16.1132    8.6888 C   0  0  0  0  0  0  0  0  0  0  0  0
   58.9041  -16.1310    9.2753 C   0  0  0  0  0  0  0  0  0  0  0  0
   59.6918  -17.2204    9.4020 N   0  0  0  0  0  0  0  0  0  0  0  0
   57.1669  -14.8350    8.8002 N   0  0  0  0  0  0  0  0  0  0  0  0
   58.1743  -14.1202    9.3737 C   0  0  0  0  0  0  0  0  0  0  0  0
   59.2403  -14.9052    9.6607 N   0  0  0  0  0  0  0  0  0  0  0  0
   60.5104  -14.4531   10.2914 C   0  0  1  0  0  0  0  0  0  0  0  0
   61.3080  -13.6473    9.2890 C   0  0  1  0  0  0  0  0  0  0  0  0
   61.9082  -12.5389   10.1146 C   0  0  2  0  0  0  0  0  0  0  0  0
   63.1920  -12.9416   10.6085 O   0  0  0  0  0  0  0  0  0  0  0  0
   62.3089  -14.4578    8.6537 O   0  0  0  0  0  0  0  0  0  0  0  0
   60.2363  -13.5705   11.3766 O   0  0  0  0  0  0  0  0  0  0  0  0
   60.9732  -12.3750   11.2846 C   0  0  2  0  0  0  0  0  0  0  0  0
   59.9518  -11.2623   11.1697 C   0  0  0  0  0  0  0  0  0  0  0  0
   60.5672   -9.9917   11.1160 O   0  0  0  0  0  0  0  0  0  0  0  0
   59.6366   -8.6944   11.0578 P   0  0  0  0  0  0  0  0  0  0  0  0
   58.8023   -8.8656    9.8042 O   0  0  0  0  0  0  0  0  0  0  0  0
   60.6490   -7.5797   11.0020 O   0  0  0  0  0  0  0  0  0  0  0  0
   58.9015   -8.7350   12.3688 O   0  0  0  0  0  0  0  0  0  0  0  0
  2  1  2  0  0  0  0
  2  4  1  0  0  0  0
  3  2  1  0  0  0  0
  4  7  1  0  0  0  0
  4  5  2  0  0  0  0
  5  6  1  0  0  0  0
  5  9  1  0  0  0  0
  7  8  2  0  0  0  0
  8  9  1  0  0  0  0
 10  9  1  6  0  0  0
 10 15  1  0  0  0  0
 11 14  1  1  0  0  0
 11 12  1  0  0  0  0
 11 10  1  0  0  0  0
 12 13  1  1  0  0  0
 12 16  1  0  0  0  0
 16 17  1  6  0  0  0
 16 15  1  0  0  0  0
 18 19  1  0  0  0  0
 18 17  1  0  0  0  0
 19 21  1  0  0  0  0
 20 19  1  0  0  0  0
 22 19  2  0  0  0  0
M  END
>  <CHROM.1>
170.65645880,107.90317800,-64.10420893,-59.25724541,-177.37423895,59.58339727
-13.04039597,9.97873682,1.84804286,0.16493343,-2.86519284

>  <Name>
lig.pdb

>  <RI>
0

>  <Rbt.Current_Directory>
/home/itssahil/PROJECTS/Mol_Feturizer/New_Systems/rnas/4znp

>  <Rbt.Executable>
rbdock ($Id: //depot/dev/client3/rdock/2013.1/src/exe/rbdock.cxx#4 $)

>  <Rbt.Library>
libRbt.so (2013.1, Build901 2013/11/27)

>  <Rbt.Parameter_File>
/export/apps/rDock/src/rDock_2013.1_src/data/scripts/dock_solv.prm

>  <Rbt.Receptor>
prm/pocket_docking_2.prm

>  <SCORE>
-24.8599

>  <SCORE.INTER>
-18.9587

>  <SCORE.INTER.CONST>
1

>  <SCORE.INTER.POLAR>
0

>  <SCORE.INTER.ROT>
5

>  <SCORE.INTER.SOLV>
20.201

>  <SCORE.INTER.VDW>
-26.3061

>  <SCORE.INTER.norm>
-0.86176

>  <SCORE.INTRA>
-5.90119

>  <SCORE.INTRA.DIHEDRAL>
-9.18963

>  <SCORE.INTRA.DIHEDRAL.0>
11.9251

>  <SCORE.INTRA.POLAR>
0

>  <SCORE.INTRA.POLAR.0>
0

>  <SCORE.INTRA.REPUL>
0

>  <SCORE.INTRA.REPUL.0>
0

>  <SCORE.INTRA.SOLV>
0.193229

>  <SCORE.INTRA.SOLV.lig_0>
-40.9823

>  <SCORE.INTRA.VDW>
-1.40299

>  <SCORE.INTRA.VDW.0>
-0.53506

>  <SCORE.INTRA.norm>
-0.268236

>  <SCORE.RESTR>
0

>  <SCORE.RESTR.CAVITY>
0

>  <SCORE.RESTR.norm>
0

>  <SCORE.SYSTEM>
0

>  <SCORE.SYSTEM.CONST>
0

>  <SCORE.SYSTEM.DIHEDRAL>
0

>  <SCORE.SYSTEM.SOLV>
0

>  <SCORE.SYSTEM.norm>
0

>  <SCORE.heavy>
22

>  <SCORE.norm>
-1.13

>  <RMSD>
1.043

$$$$
lig.pdb
 OpenBabel11021811523D
libRbt.so/2013.1/901 2013/11/27
 22 23  0  0  0  0  0  0  0  0999 V2000
   55.6937  -17.2329    7.7797 O   0  0  0  0  0  0  0  0  0  0  0  0
   56.8568  -17.3007    8.1006 C   0  0  0  0  0  0  0  0  0  0  0  0
   57.5469  -18.4233    8.0035 N   0  0  0  0  0  0  0  0  0  0  0  0
   57.5374  -16.1241    8.6599 C   0  0  0  0  0  0  0  0  0  0  0  0
   58.8802  -16.1295    9.2449 C   0  0  0  0  0  0  0  0  0  0  0  0
   59.6768  -17.2122    9.3734 N   0  0  0  0  0  0  0  0  0  0  0  0
   57.1320  -14.8489    8.7685 N   0  0  0  0  0  0  0  0  0  0  0  0
   58.1342  -14.1245    9.3391 C   0  0  0  0  0  0  0  0  0  0  0  0
   59.2069  -14.9001    9.6269 N   0  0  0  0  0  0  0  0  0  0  0  0
   60.4739  -14.4361   10.2551 C   0  0  1  0  0  0  0  0  0  0  0  0
   61.2303  -13.5672    9.2738 C   0  0  1  0  0  0  0  0  0  0  0  0
   61.8121  -12.4756   10.1341 C   0  0  2  0  0  0  0  0  0  0  0  0
   63.1154  -12.8595   10.5905 O   0  0  0  0  0  0  0  0  0  0  0  0
   62.2434  -14.3214    8.5900 O   0  0  0  0  0  0  0  0  0  0  0  0
   60.1929  -13.6065   11.3796 O   0  0  0  0  0  0  0  0  0  0  0  0
   60.8931  -12.3868   11.3247 C   0  0  2  0  0  0  0  0  0  0  0  0
   59.8379  -11.3014   11.2715 C   0  0  0  0  0  0  0  0  0  0  0  0
   60.4073  -10.0305   11.0335 O   0  0  0  0  0  0  0  0  0  0  0  0
   59.4494   -8.7518   11.0370 P   0  0  0  0  0  0  0  0  0  0  0  0
   58.9482   -8.6406   12.4629 O   0  0  0  0  0  0  0  0  0  0  0  0
   58.4036   -9.1358   10.0223 O   0  0  0  0  0  0  0  0  0  0  0  0
   60.3435   -7.6466   10.5473 O   0  0  0  0  0  0  0  0  0  0  0  0
  2  1  2  0  0  0  0
  2  4  1  0  0  0  0
  3  2  1  0  0  0  0
  4  7  1  0  0  0  0
  4  5  2  0  0  0  0
  5  6  1  0  0  0  0
  5  9  1  0  0  0  0
  7  8  2  0  0  0  0
  8  9  1  0  0  0  0
 10  9  1  6  0  0  0
 10 15  1  0  0  0  0
 11 14  1  1  0  0  0
 11 12  1  0  0  0  0
 11 10  1  0  0  0  0
 12 13  1  1  0  0  0
 12 16  1  0  0  0  0
 16 17  1  6  0  0  0
 16 15  1  0  0  0  0
 18 19  1  0  0  0  0
 18 17  1  0  0  0  0
 19 21  1  0  0  0  0
 20 19  1  0  0  0  0
 22 19  2  0  0  0  0
M  END
>  <CHROM.1>
171.51604310,110.79350968,-54.17740556,65.66493536,-176.22381558,59.49237079
-13.04944500,9.95609524,1.83309862,0.16251913,-2.86028344

>  <Name>
lig.pdb

>  <RI>
0

>  <Rbt.Current_Directory>
/home/itssahil/PROJECTS/Mol_Feturizer/New_Systems/rnas/4znp

>  <Rbt.Executable>
rbdock ($Id: //depot/dev/client3/rdock/2013.1/src/exe/rbdock.cxx#4 $)

>  <Rbt.Library>
libRbt.so (2013.1, Build901 2013/11/27)

>  <Rbt.Parameter_File>
/export/apps/rDock/src/rDock_2013.1_src/data/scripts/dock_solv.prm

>  <Rbt.Receptor>
prm/pocket_docking_3.prm

>  <SCORE>
-24.8809

>  <SCORE.INTER>
-19.0754

>  <SCORE.INTER.CONST>
1

>  <SCORE.INTER.POLAR>
0

>  <SCORE.INTER.ROT>
5

>  <SCORE.INTER.SOLV>
20.2164

>  <SCORE.INTER.VDW>
-26.3891

>  <SCORE.INTER.norm>
-0.867064

>  <SCORE.INTRA>
-5.8055

>  <SCORE.INTRA.DIHEDRAL>
-9.07708

>  <SCORE.INTRA.DIHEDRAL.0>
11.9251

>  <SCORE.INTRA.POLAR>
0

>  <SCORE.INTRA.POLAR.0>
0

>  <SCORE.INTRA.REPUL>
0

>  <SCORE.INTRA.REPUL.0>
0

>  <SCORE.INTRA.SOLV>
-0.0354323

>  <SCORE.INTRA.SOLV.lig_0>
-40.9823

>  <SCORE.INTRA.VDW>
-1.24925

>  <SCORE.INTRA.VDW.0>
-0.53506

>  <SCORE.INTRA.norm>
-0.263887

>  <SCORE.RESTR>
0

>  <SCORE.RESTR.CAVITY>
0

>  <SCORE.RESTR.norm>
0

>  <SCORE.SYSTEM>
0

>  <SCORE.SYSTEM.CONST>
0

>  <SCORE.SYSTEM.DIHEDRAL>
0

>  <SCORE.SYSTEM.SOLV>
0

>  <SCORE.SYSTEM.norm>
0

>  <SCORE.heavy>
22

>  <SCORE.norm>
-1.13095

>  <RMSD>
1.044

$$$$
lig.pdb
 OpenBabel11021811523D
libRbt.so/2013.1/901 2013/11/27
 22 23  0  0  0  0  0  0  0  0999 V2000
   55.7190  -17.2193    7.8373 O   0  0  0  0  0  0  0  0  0  0  0  0
   56.8889  -17.2851    8.1332 C   0  0  0  0  0  0  0  0  0  0  0  0
   57.5817  -18.4033    8.0096 N   0  0  0  0  0  0  0  0  0  0  0  0
   57.5756  -16.1114    8.6910 C   0  0  0  0  0  0  0  0  0  0  0  0
   58.9169  -16.1239    9.2793 C   0  0  0  0  0  0  0  0  0  0  0  0
   59.7062  -17.2113    9.4127 N   0  0  0  0  0  0  0  0  0  0  0  0
   57.1783  -14.8332    8.7951 N   0  0  0  0  0  0  0  0  0  0  0  0
   58.1837  -14.1138    9.3663 C   0  0  0  0  0  0  0  0  0  0  0  0
   59.2506  -14.8955    9.6588 N   0  0  0  0  0  0  0  0  0  0  0  0
   60.5191  -14.4381   10.2889 C   0  0  1  0  0  0  0  0  0  0  0  0
   61.3085  -13.6212    9.2890 C   0  0  1  0  0  0  0  0  0  0  0  0
   61.9031  -12.5133   10.1192 C   0  0  2  0  0  0  0  0  0  0  0  0
   63.1908  -12.9097   10.6076 O   0  0  0  0  0  0  0  0  0  0  0  0
   62.3135  -14.4212    8.6467 O   0  0  0  0  0  0  0  0  0  0  0  0
   60.2416  -13.5634   11.3796 O   0  0  0  0  0  0  0  0  0  0  0  0
   60.9699  -12.3623   11.2924 C   0  0  2  0  0  0  0  0  0  0  0  0
   59.9405  -11.2562   11.1862 C   0  0  0  0  0  0  0  0  0  0  0  0
   60.5466   -9.9807   11.1446 O   0  0  0  0  0  0  0  0  0  0  0  0
   59.6065   -8.6892   11.1159 P   0  0  0  0  0  0  0  0  0  0  0  0
   58.7118   -8.8816    9.9079 O   0  0  0  0  0  0  0  0  0  0  0  0
   60.6083   -7.5700   10.9949 O   0  0  0  0  0  0  0  0  0  0  0  0
   58.9381   -8.7160   12.4625 O   0  0  0  0  0  0  0  0  0  0  0  0
  2  1  2  0  0  0  0
  2  4  1  0  0  0  0
  3  2  1  0  0  0  0
  4  7  1  0  0  0  0
  4  5  2  0  0  0  0
  5  6  1  0  0  0  0
  5  9  1  0  0  0  0
  7  8  2  0  0  0  0
  8  9  1  0  0  0  0
 10  9  1  6  0  0  0
 10 15  1  0  0  0  0
 11 14  1  1  0  0  0
 11 12  1  0  0  0  0
 11 10  1  0  0  0  0
 12 13  1  1  0  0  0
 12 16  1  0  0  0  0
 16 17  1  6  0  0  0
 16 15  1  0  0  0  0
 18 19  1  0  0  0  0
 18 17  1  0  0  0  0
 19 21  1  0  0  0  0
 20 19  1  0  0  0  0
 22 19  2  0  0  0  0
M  END
>  <CHROM.1>
169.84796081,108.62471203,-64.39264220,-56.50679245,-176.59531798,59.58001357
-13.03070878,9.99687072,1.84208057,0.15674171,-2.85684879

>  <Name>
lig.pdb

>  <RI>
0

>  <Rbt.Current_Directory>
/home/itssahil/PROJECTS/Mol_Feturizer/New_Systems/rnas/4znp

>  <Rbt.Executable>
rbdock ($Id: //depot/dev/client3/rdock/2013.1/src/exe/rbdock.cxx#4 $)

>  <Rbt.Library>
libRbt.so (2013.1, Build901 2013/11/27)

>  <Rbt.Parameter_File>
/export/apps/rDock/src/rDock_2013.1_src/data/scripts/dock_solv.prm

>  <Rbt.Receptor>
prm/pocket_docking_7.prm

>  <SCORE>
-24.895

>  <SCORE.INTER>
-19.0404

>  <SCORE.INTER.CONST>
1

>  <SCORE.INTER.POLAR>
0

>  <SCORE.INTER.ROT>
5

>  <SCORE.INTER.SOLV>
20.104

>  <SCORE.INTER.VDW>
-26.3282

>  <SCORE.INTER.norm>
-0.86547

>  <SCORE.INTRA>
-5.85462

>  <SCORE.INTRA.DIHEDRAL>
-9.08194

>  <SCORE.INTRA.DIHEDRAL.0>
11.9251

>  <SCORE.INTRA.POLAR>
0

>  <SCORE.INTRA.POLAR.0>
0

>  <SCORE.INTRA.REPUL>
0

>  <SCORE.INTRA.REPUL.0>
0

>  <SCORE.INTRA.SOLV>
0.172323

>  <SCORE.INTRA.SOLV.lig_0>
-40.9823

>  <SCORE.INTRA.VDW>
-1.39981

>  <SCORE.INTRA.VDW.0>
-0.53506

>  <SCORE.INTRA.norm>
-0.266119

>  <SCORE.RESTR>
0

>  <SCORE.RESTR.CAVITY>
0

>  <SCORE.RESTR.norm>
0

>  <SCORE.SYSTEM>
0

>  <SCORE.SYSTEM.CONST>
0

>  <SCORE.SYSTEM.DIHEDRAL>
0

>  <SCORE.SYSTEM.SOLV>
0

>  <SCORE.SYSTEM.norm>
0

>  <SCORE.heavy>
22

>  <SCORE.norm>
-1.13159

>  <RMSD>
1.046

$$$$
lig.pdb
 OpenBabel11021811523D
libRbt.so/2013.1/901 2013/11/27
 22 23  0  0  0  0  0  0  0  0999 V2000
   55.8297  -17.1763    7.8866 O   0  0  0  0  0  0  0  0  0  0  0  0
   56.9940  -17.2110    8.2086 C   0  0  0  0  0  0  0  0  0  0  0  0
   57.7110  -18.3180    8.1290 N   0  0  0  0  0  0  0  0  0  0  0  0
   57.6457  -16.0098    8.7497 C   0  0  0  0  0  0  0  0  0  0  0  0
   58.9868  -15.9743    9.3374 C   0  0  0  0  0  0  0  0  0  0  0  0
   59.8080  -17.0359    9.4857 N   0  0  0  0  0  0  0  0  0  0  0  0
   57.2106  -14.7427    8.8362 N   0  0  0  0  0  0  0  0  0  0  0  0
   58.1943  -13.9858    9.3968 C   0  0  0  0  0  0  0  0  0  0  0  0
   59.2839  -14.7314    9.6996 N   0  0  0  0  0  0  0  0  0  0  0  0
   60.5384  -14.2278   10.3227 C   0  0  1  0  0  0  0  0  0  0  0  0
   61.2874  -13.3754    9.3214 C   0  0  1  0  0  0  0  0  0  0  0  0
   61.8444  -12.2493   10.1532 C   0  0  2  0  0  0  0  0  0  0  0  0
   63.1505  -12.5974   10.6297 O   0  0  0  0  0  0  0  0  0  0  0  0
   62.3179  -14.1320    8.6672 O   0  0  0  0  0  0  0  0  0  0  0  0
   60.2352  -13.3703   11.4202 O   0  0  0  0  0  0  0  0  0  0  0  0
   60.9151  -12.1411   11.3342 C   0  0  2  0  0  0  0  0  0  0  0  0
   59.8424  -11.0757   11.2417 C   0  0  0  0  0  0  0  0  0  0  0  0
   60.3988   -9.7796   11.1615 O   0  0  0  0  0  0  0  0  0  0  0  0
   59.4120   -8.5231   11.1696 P   0  0  0  0  0  0  0  0  0  0  0  0
   58.6432   -8.6361   12.4708 O   0  0  0  0  0  0  0  0  0  0  0  0
   58.5946   -8.7534    9.9247 O   0  0  0  0  0  0  0  0  0  0  0  0
   60.3424   -7.3498   11.0346 O   0  0  0  0  0  0  0  0  0  0  0  0
  2  1  2  0  0  0  0
  2  4  1  0  0  0  0
  3  2  1  0  0  0  0
  4  7  1  0  0  0  0
  4  5  2  0  0  0  0
  5  6  1  0  0  0  0
  5  9  1  0  0  0  0
  7  8  2  0  0  0  0
  8  9  1  0  0  0  0
 10  9  1  6  0  0  0
 10 15  1  0  0  0  0
 11 14  1  1  0  0  0
 11 12  1  0  0  0  0
 11 10  1  0  0  0  0
 12 13  1  1  0  0  0
 12 16  1  0  0  0  0
 16 17  1  6  0  0  0
 16 15  1  0  0  0  0
 18 19  1  0  0  0  0
 18 17  1  0  0  0  0
 19 21  1  0  0  0  0
 20 19  1  0  0  0  0
 22 19  2  0  0  0  0
M  END
>  <CHROM.1>
171.37486755,109.92501866,-62.59935179,58.70286843,-175.42098906,59.53827061
-12.86050632,10.04008929,1.80795881,0.13888881,-2.85399662

>  <Name>
lig.pdb

>  <RI>
0

>  <Rbt.Current_Directory>
/home/itssahil/PROJECTS/Mol_Feturizer/New_Systems/rnas/4znp

>  <Rbt.Executable>
rbdock ($Id: //depot/dev/client3/rdock/2013.1/src/exe/rbdock.cxx#4 $)

>  <Rbt.Library>
libRbt.so (2013.1, Build901 2013/11/27)

>  <Rbt.Parameter_File>
/export/apps/rDock/src/rDock_2013.1_src/data/scripts/dock_solv.prm

>  <Rbt.Receptor>
prm/pocket_docking_4.prm

>  <SCORE>
-24.5739

>  <SCORE.INTER>
-18.6167

>  <SCORE.INTER.CONST>
1

>  <SCORE.INTER.POLAR>
0

>  <SCORE.INTER.ROT>
5

>  <SCORE.INTER.SOLV>
19.2501

>  <SCORE.INTER.VDW>
-25.7611

>  <SCORE.INTER.norm>
-0.846212

>  <SCORE.INTRA>
-5.95728

>  <SCORE.INTRA.DIHEDRAL>
-9.19738

>  <SCORE.INTRA.DIHEDRAL.0>
11.9251

>  <SCORE.INTRA.POLAR>
0

>  <SCORE.INTRA.POLAR.0>
0

>  <SCORE.INTRA.REPUL>
0

>  <SCORE.INTRA.REPUL.0>
0

>  <SCORE.INTRA.SOLV>
-0.0662765

>  <SCORE.INTRA.SOLV.lig_0>
-40.9823

>  <SCORE.INTRA.VDW>
-1.32546

>  <SCORE.INTRA.VDW.0>
-0.53506

>  <SCORE.INTRA.norm>
-0.270786

>  <SCORE.RESTR>
0

>  <SCORE.RESTR.CAVITY>
0

>  <SCORE.RESTR.norm>
0

>  <SCORE.SYSTEM>
0

>  <SCORE.SYSTEM.CONST>
0

>  <SCORE.SYSTEM.DIHEDRAL>
0

>  <SCORE.SYSTEM.SOLV>
0

>  <SCORE.SYSTEM.norm>
0

>  <SCORE.heavy>
22

>  <SCORE.norm>
-1.117

>  <RMSD>
1.052

$$$$
lig.pdb
 OpenBabel11021811523D
libRbt.so/2013.1/901 2013/11/27
 22 23  0  0  0  0  0  0  0  0999 V2000
   57.7116  -18.3082    8.1193 O   0  0  0  0  0  0  0  0  0  0  0  0
   57.0168  -17.3240    8.2158 C   0  0  0  0  0  0  0  0  0  0  0  0
   55.7502  -17.3200    7.8397 N   0  0  0  0  0  0  0  0  0  0  0  0
   57.5849  -16.0672    8.7235 C   0  0  0  0  0  0  0  0  0  0  0  0
   58.8985  -15.9348    9.3578 C   0  0  0  0  0  0  0  0  0  0  0  0
   59.7663  -16.9440    9.5856 N   0  0  0  0  0  0  0  0  0  0  0  0
   57.0830  -14.8221    8.7345 N   0  0  0  0  0  0  0  0  0  0  0  0
   58.0042  -13.9901    9.2947 C   0  0  0  0  0  0  0  0  0  0  0  0
   59.1177  -14.6630    9.6720 N   0  0  0  0  0  0  0  0  0  0  0  0
   60.3196  -14.0666   10.3163 C   0  0  1  0  0  0  0  0  0  0  0  0
   61.4594  -14.0392    9.3211 C   0  0  1  0  0  0  0  0  0  0  0  0
   62.1450  -12.7258    9.5957 C   0  0  2  0  0  0  0  0  0  0  0  0
   63.1794  -12.9122   10.5700 O   0  0  0  0  0  0  0  0  0  0  0  0
   62.3356  -15.1616    9.5079 O   0  0  0  0  0  0  0  0  0  0  0  0
   60.0697  -12.7075   10.6657 O   0  0  0  0  0  0  0  0  0  0  0  0
   61.0767  -11.8462   10.1915 C   0  0  2  0  0  0  0  0  0  0  0  0
   60.3929  -10.8897    9.2366 C   0  0  0  0  0  0  0  0  0  0  0  0
   59.2713  -10.2701    9.8317 O   0  0  0  0  0  0  0  0  0  0  0  0
   59.5179   -9.1671   10.9609 P   0  0  0  0  0  0  0  0  0  0  0  0
   58.1491   -8.5802   11.2419 O   0  0  0  0  0  0  0  0  0  0  0  0
   60.4858   -8.2310   10.2845 O   0  0  0  0  0  0  0  0  0  0  0  0
   60.1595   -9.9474   12.0745 O   0  0  0  0  0  0  0  0  0  0  0  0
  2  1  2  0  0  0  0
  2  4  1  0  0  0  0
  3  2  1  0  0  0  0
  4  7  1  0  0  0  0
  4  5  2  0  0  0  0
  5  6  1  0  0  0  0
  5  9  1  0  0  0  0
  7  8  2  0  0  0  0
  8  9  1  0  0  0  0
 10  9  1  6  0  0  0
 10 15  1  0  0  0  0
 11 14  1  1  0  0  0
 11 12  1  0  0  0  0
 11 10  1  0  0  0  0
 12 13  1  1  0  0  0
 12 16  1  0  0  0  0
 16 17  1  6  0  0  0
 16 15  1  0  0  0  0
 18 19  1  0  0  0  0
 18 17  1  0  0  0  0
 19 21  1  0  0  0  0
 20 19  1  0  0  0  0
 22 19  2  0  0  0  0
M  END
>  <CHROM.1>
-11.18210948,72.82987312,170.44193335,172.48027229,71.71505866,59.56811112
-13.10868093,9.80691068,1.84689641,0.14260809,-2.89254817

>  <Name>
lig.pdb

>  <RI>
0

>  <Rbt.Current_Directory>
/home/itssahil/PROJECTS/Mol_Feturizer/New_Systems/rnas/4znp

>  <Rbt.Executable>
rbdock ($Id: //depot/dev/client3/rdock/2013.1/src/exe/rbdock.cxx#4 $)

>  <Rbt.Library>
libRbt.so (2013.1, Build901 2013/11/27)

>  <Rbt.Parameter_File>
/export/apps/rDock/src/rDock_2013.1_src/data/scripts/dock_solv.prm

>  <Rbt.Receptor>
prm/pocket_docking_3.prm

>  <SCORE>
-24.2789

>  <SCORE.INTER>
-19.841

>  <SCORE.INTER.CONST>
1

>  <SCORE.INTER.POLAR>
0

>  <SCORE.INTER.ROT>
5

>  <SCORE.INTER.SOLV>
19.8877

>  <SCORE.INTER.VDW>
-26.7899

>  <SCORE.INTER.norm>
-0.901862

>  <SCORE.INTRA>
-4.43791

>  <SCORE.INTRA.DIHEDRAL>
-8.11694

>  <SCORE.INTRA.DIHEDRAL.0>
11.9251

>  <SCORE.INTRA.POLAR>
0

>  <SCORE.INTRA.POLAR.0>
0

>  <SCORE.INTRA.REPUL>
0

>  <SCORE.INTRA.REPUL.0>
0

>  <SCORE.INTRA.SOLV>
1.74082

>  <SCORE.INTRA.SOLV.lig_0>
-40.9823

>  <SCORE.INTRA.VDW>
-1.24986

>  <SCORE.INTRA.VDW.0>
-0.53506

>  <SCORE.INTRA.norm>
-0.201723

>  <SCORE.RESTR>
0

>  <SCORE.RESTR.CAVITY>
0

>  <SCORE.RESTR.norm>
0

>  <SCORE.SYSTEM>
0

>  <SCORE.SYSTEM.CONST>
0

>  <SCORE.SYSTEM.DIHEDRAL>
0

>  <SCORE.SYSTEM.SOLV>
0

>  <SCORE.SYSTEM.norm>
0

>  <SCORE.heavy>
22

>  <SCORE.norm>
-1.10359

>  <RMSD>
1.053

$$$$
lig.pdb
 OpenBabel11021811523D
libRbt.so/2013.1/901 2013/11/27
 22 23  0  0  0  0  0  0  0  0999 V2000
   55.8390  -17.2943    7.8364 O   0  0  0  0  0  0  0  0  0  0  0  0
   56.9993  -17.2602    8.1725 C   0  0  0  0  0  0  0  0  0  0  0  0
   57.7791  -18.3250    8.1101 N   0  0  0  0  0  0  0  0  0  0  0  0
   57.5746  -16.0200    8.7121 C   0  0  0  0  0  0  0  0  0  0  0  0
   58.9006  -15.9057    9.3236 C   0  0  0  0  0  0  0  0  0  0  0  0
   59.7753  -16.9195    9.4984 N   0  0  0  0  0  0  0  0  0  0  0  0
   57.0700  -14.7776    8.7767 N   0  0  0  0  0  0  0  0  0  0  0  0
   58.0006  -13.9628    9.3467 C   0  0  0  0  0  0  0  0  0  0  0  0
   59.1232  -14.6449    9.6774 N   0  0  0  0  0  0  0  0  0  0  0  0
   60.3366  -14.0676   10.3175 C   0  0  1  0  0  0  0  0  0  0  0  0
   61.4545  -13.9987    9.2999 C   0  0  1  0  0  0  0  0  0  0  0  0
   62.1413  -12.6934    9.6081 C   0  0  2  0  0  0  0  0  0  0  0  0
   63.1972  -12.9112   10.5525 O   0  0  0  0  0  0  0  0  0  0  0  0
   62.3385  -15.1235    9.4263 O   0  0  0  0  0  0  0  0  0  0  0  0
   60.0895  -12.7234   10.7222 O   0  0  0  0  0  0  0  0  0  0  0  0
   61.0831  -11.8409   10.2587 C   0  0  2  0  0  0  0  0  0  0  0  0
   60.3756  -10.8527    9.3547 C   0  0  0  0  0  0  0  0  0  0  0  0
   59.4333  -10.0762   10.0654 O   0  0  0  0  0  0  0  0  0  0  0  0
   59.9695   -8.9859   11.1029 P   0  0  0  0  0  0  0  0  0  0  0  0
   60.9818   -8.1688   10.3255 O   0  0  0  0  0  0  0  0  0  0  0  0
   60.5494   -9.8459   12.1959 O   0  0  0  0  0  0  0  0  0  0  0  0
   58.7180   -8.2747   11.5373 O   0  0  0  0  0  0  0  0  0  0  0  0
  2  1  2  0  0  0  0
  2  4  1  0  0  0  0
  3  2  1  0  0  0  0
  4  7  1  0  0  0  0
  4  5  2  0  0  0  0
  5  6  1  0  0  0  0
  5  9  1  0  0  0  0
  7  8  2  0  0  0  0
  8  9  1  0  0  0  0
 10  9  1  6  0  0  0
 10 15  1  0  0  0  0
 11 14  1  1  0  0  0
 11 12  1  0  0  0  0
 11 10  1  0  0  0  0
 12 13  1  1  0  0  0
 12 16  1  0  0  0  0
 16 17  1  6  0  0  0
 16 15  1  0  0  0  0
 18 19  1  0  0  0  0
 18 17  1  0  0  0  0
 19 21  1  0  0  0  0
 20 19  1  0  0  0  0
 22 19  2  0  0  0  0
M  END
>  <CHROM.1>
170.94518588,72.97736204,-178.23531802,51.25165383,70.24351993,59.68494782
-13.03743653,9.85394524,1.88711653,0.13571656,-2.87799931

>  <Name>
lig.pdb

>  <RI>
0

>  <Rbt.Current_Directory>
/home/itssahil/PROJECTS/Mol_Feturizer/New_Systems/rnas/4znp

>  <Rbt.Executable>
rbdock ($Id: //depot/dev/client3/rdock/2013.1/src/exe/rbdock.cxx#4 $)

>  <Rbt.Library>
libRbt.so (2013.1, Build901 2013/11/27)

>  <Rbt.Parameter_File>
/export/apps/rDock/src/rDock_2013.1_src/data/scripts/dock_solv.prm

>  <Rbt.Receptor>
prm/pocket_docking_5.prm

>  <SCORE>
-24.342

>  <SCORE.INTER>
-19.2418

>  <SCORE.INTER.CONST>
1

>  <SCORE.INTER.POLAR>
0

>  <SCORE.INTER.ROT>
5

>  <SCORE.INTER.SOLV>
19.2093

>  <SCORE.INTER.VDW>
-26.1643

>  <SCORE.INTER.norm>
-0.874628

>  <SCORE.INTRA>
-5.10023

>  <SCORE.INTRA.DIHEDRAL>
-8.68994

>  <SCORE.INTRA.DIHEDRAL.0>
11.9251

>  <SCORE.INTRA.POLAR>
0

>  <SCORE.INTRA.POLAR.0>
0

>  <SCORE.INTRA.REPUL>
0

>  <SCORE.INTRA.REPUL.0>
0

>  <SCORE.INTRA.SOLV>
1.13319

>  <SCORE.INTRA.SOLV.lig_0>
-40.9823

>  <SCORE.INTRA.VDW>
-1.32186

>  <SCORE.INTRA.VDW.0>
-0.53506

>  <SCORE.INTRA.norm>
-0.231829

>  <SCORE.RESTR>
0

>  <SCORE.RESTR.CAVITY>
0

>  <SCORE.RESTR.norm>
0

>  <SCORE.SYSTEM>
0

>  <SCORE.SYSTEM.CONST>
0

>  <SCORE.SYSTEM.DIHEDRAL>
0

>  <SCORE.SYSTEM.SOLV>
0

>  <SCORE.SYSTEM.norm>
0

>  <SCORE.heavy>
22

>  <SCORE.norm>
-1.10646

>  <RMSD>
1.061

$$$$
lig.pdb
 OpenBabel11021811523D
libRbt.so/2013.1/901 2013/11/27
 22 23  0  0  0  0  0  0  0  0999 V2000
   55.8250  -17.2390    7.7984 O   0  0  0  0  0  0  0  0  0  0  0  0
   56.9784  -17.2243    8.1588 C   0  0  0  0  0  0  0  0  0  0  0  0
   57.7407  -18.3025    8.1151 N   0  0  0  0  0  0  0  0  0  0  0  0
   57.5638  -15.9929    8.7076 C   0  0  0  0  0  0  0  0  0  0  0  0
   58.8884  -15.8950    9.3249 C   0  0  0  0  0  0  0  0  0  0  0  0
   59.7524  -16.9184    9.4973 N   0  0  0  0  0  0  0  0  0  0  0  0
   57.0711  -14.7459    8.7774 N   0  0  0  0  0  0  0  0  0  0  0  0
   58.0074  -13.9436    9.3556 C   0  0  0  0  0  0  0  0  0  0  0  0
   59.1219  -14.6386    9.6867 N   0  0  0  0  0  0  0  0  0  0  0  0
   60.3384  -14.0768   10.3348 C   0  0  1  0  0  0  0  0  0  0  0  0
   61.4645  -14.0244    9.3251 C   0  0  1  0  0  0  0  0  0  0  0  0
   62.1667  -12.7281    9.6366 C   0  0  2  0  0  0  0  0  0  0  0  0
   63.2127  -12.9589   10.5888 O   0  0  0  0  0  0  0  0  0  0  0  0
   62.3322  -15.1609    9.4593 O   0  0  0  0  0  0  0  0  0  0  0  0
   60.1068  -12.7288   10.7359 O   0  0  0  0  0  0  0  0  0  0  0  0
   61.1155  -11.8605   10.2785 C   0  0  2  0  0  0  0  0  0  0  0  0
   60.4279  -10.8641    9.3681 C   0  0  0  0  0  0  0  0  0  0  0  0
   59.5069  -10.0592   10.0753 O   0  0  0  0  0  0  0  0  0  0  0  0
   60.0710   -9.0019   11.1320 P   0  0  0  0  0  0  0  0  0  0  0  0
   61.1364   -8.2276   10.3821 O   0  0  0  0  0  0  0  0  0  0  0  0
   60.5871   -9.8952   12.2303 O   0  0  0  0  0  0  0  0  0  0  0  0
   58.8449   -8.2361   11.5455 O   0  0  0  0  0  0  0  0  0  0  0  0
  2  1  2  0  0  0  0
  2  4  1  0  0  0  0
  3  2  1  0  0  0  0
  4  7  1  0  0  0  0
  4  5  2  0  0  0  0
  5  6  1  0  0  0  0
  5  9  1  0  0  0  0
  7  8  2  0  0  0  0
  8  9  1  0  0  0  0
 10  9  1  6  0  0  0
 10 15  1  0  0  0  0
 11 14  1  1  0  0  0
 11 12  1  0  0  0  0
 11 10  1  0  0  0  0
 12 13  1  1  0  0  0
 12 16  1  0  0  0  0
 16 17  1  6  0  0  0
 16 15  1  0  0  0  0
 18 19  1  0  0  0  0
 18 17  1  0  0  0  0
 19 21  1  0  0  0  0
 20 19  1  0  0  0  0
 22 19  2  0  0  0  0
M  END
>  <CHROM.1>
172.11275152,72.48638207,-177.27645735,50.58802711,68.49513278,59.71512161
-13.04114222,9.86862425,1.90232607,0.14607898,-2.87765988

>  <Name>
lig.pdb

>  <RI>
0

>  <Rbt.Current_Directory>
/home/itssahil/PROJECTS/Mol_Feturizer/New_Systems/rnas/4znp

>  <Rbt.Executable>
rbdock ($Id: //depot/dev/client3/rdock/2013.1/src/exe/rbdock.cxx#4 $)

>  <Rbt.Library>
libRbt.so (2013.1, Build901 2013/11/27)

>  <Rbt.Parameter_File>
/export/apps/rDock/src/rDock_2013.1_src/data/scripts/dock_solv.prm

>  <Rbt.Receptor>
prm/pocket_docking_3.prm

>  <SCORE>
-24.3077

>  <SCORE.INTER>
-19.199

>  <SCORE.INTER.CONST>
1

>  <SCORE.INTER.POLAR>
0

>  <SCORE.INTER.ROT>
5

>  <SCORE.INTER.SOLV>
19.2754

>  <SCORE.INTER.VDW>
-26.1578

>  <SCORE.INTER.norm>
-0.872683

>  <SCORE.INTRA>
-5.1087

>  <SCORE.INTRA.DIHEDRAL>
-8.87188

>  <SCORE.INTRA.DIHEDRAL.0>
11.9251

>  <SCORE.INTRA.POLAR>
0

>  <SCORE.INTRA.POLAR.0>
0

>  <SCORE.INTRA.REPUL>
0

>  <SCORE.INTRA.REPUL.0>
0

>  <SCORE.INTRA.SOLV>
1.16767

>  <SCORE.INTRA.SOLV.lig_0>
-40.9823

>  <SCORE.INTRA.VDW>
-1.2566

>  <SCORE.INTRA.VDW.0>
-0.53506

>  <SCORE.INTRA.norm>
-0.232214

>  <SCORE.RESTR>
0

>  <SCORE.RESTR.CAVITY>
0

>  <SCORE.RESTR.norm>
0

>  <SCORE.SYSTEM>
0

>  <SCORE.SYSTEM.CONST>
0

>  <SCORE.SYSTEM.DIHEDRAL>
0

>  <SCORE.SYSTEM.SOLV>
0

>  <SCORE.SYSTEM.norm>
0

>  <SCORE.heavy>
22

>  <SCORE.norm>
-1.1049

>  <RMSD>
1.068

$$$$
lig.pdb
 OpenBabel11021811523D
libRbt.so/2013.1/901 2013/11/27
 22 23  0  0  0  0  0  0  0  0999 V2000
   57.5818  -18.2763    8.1172 O   0  0  0  0  0  0  0  0  0  0  0  0
   56.9623  -17.2431    8.2132 C   0  0  0  0  0  0  0  0  0  0  0  0
   55.7084  -17.1372    7.8105 N   0  0  0  0  0  0  0  0  0  0  0  0
   57.6134  -16.0401    8.7508 C   0  0  0  0  0  0  0  0  0  0  0  0
   58.9355  -16.0107    9.3805 C   0  0  0  0  0  0  0  0  0  0  0  0
   59.7364  -17.0801    9.5763 N   0  0  0  0  0  0  0  0  0  0  0  0
   57.1938  -14.7656    8.7979 N   0  0  0  0  0  0  0  0  0  0  0  0
   58.1698  -14.0109    9.3747 C   0  0  0  0  0  0  0  0  0  0  0  0
   59.2385  -14.7648    9.7272 N   0  0  0  0  0  0  0  0  0  0  0  0
   60.4795  -14.2656   10.3801 C   0  0  1  0  0  0  0  0  0  0  0  0
   61.4480  -13.7921    9.3181 C   0  0  1  0  0  0  0  0  0  0  0  0
   62.0723  -12.5616    9.9236 C   0  0  2  0  0  0  0  0  0  0  0  0
   63.2547  -12.9233   10.6483 O   0  0  0  0  0  0  0  0  0  0  0  0
   62.4204  -14.8052    9.0168 O   0  0  0  0  0  0  0  0  0  0  0  0
   60.1899  -13.1254   11.1849 O   0  0  0  0  0  0  0  0  0  0  0  0
   61.0482  -12.0466   10.9013 C   0  0  2  0  0  0  0  0  0  0  0  0
   60.1594  -10.9248   10.4053 C   0  0  0  0  0  0  0  0  0  0  0  0
   59.3918  -10.3651   11.4510 O   0  0  0  0  0  0  0  0  0  0  0  0
   58.4727   -9.0983   11.1300 P   0  0  0  0  0  0  0  0  0  0  0  0
   57.4926   -9.5806   10.0794 O   0  0  0  0  0  0  0  0  0  0  0  0
   59.4811   -8.0891   10.6449 O   0  0  0  0  0  0  0  0  0  0  0  0
   57.8999   -8.7357   12.4720 O   0  0  0  0  0  0  0  0  0  0  0  0
  2  1  2  0  0  0  0
  2  4  1  0  0  0  0
  3  2  1  0  0  0  0
  4  7  1  0  0  0  0
  4  5  2  0  0  0  0
  5  6  1  0  0  0  0
  5  9  1  0  0  0  0
  7  8  2  0  0  0  0
  8  9  1  0  0  0  0
 10  9  1  6  0  0  0
 10 15  1  0  0  0  0
 11 14  1  1  0  0  0
 11 12  1  0  0  0  0
 11 10  1  0  0  0  0
 12 13  1  1  0  0  0
 12 16  1  0  0  0  0
 16 17  1  6  0  0  0
 16 15  1  0  0  0  0
 18 19  1  0  0  0  0
 18 17  1  0  0  0  0
 19 21  1  0  0  0  0
 20 19  1  0  0  0  0
 22 19  2  0  0  0  0
M  END
>  <CHROM.1>
-9.35410432,93.98973985,-170.25607819,60.97543448,175.69621102,59.29882339
-13.09230522,9.98793645,1.70592333,0.12380294,-2.82871432

>  <Name>
lig.pdb

>  <RI>
0

>  <Rbt.Current_Directory>
/home/itssahil/PROJECTS/Mol_Feturizer/New_Systems/rnas/4znp

>  <Rbt.Executable>
rbdock ($Id: //depot/dev/client3/rdock/2013.1/src/exe/rbdock.cxx#4 $)

>  <Rbt.Library>
libRbt.so (2013.1, Build901 2013/11/27)

>  <Rbt.Parameter_File>
/export/apps/rDock/src/rDock_2013.1_src/data/scripts/dock_solv.prm

>  <Rbt.Receptor>
prm/pocket_docking_2.prm

>  <SCORE>
-25.6282

>  <SCORE.INTER>
-19.6432

>  <SCORE.INTER.CONST>
1

>  <SCORE.INTER.POLAR>
0

>  <SCORE.INTER.ROT>
5

>  <SCORE.INTER.SOLV>
20.468

>  <SCORE.INTER.VDW>
-26.8515

>  <SCORE.INTER.norm>
-0.892874

>  <SCORE.INTRA>
-5.98497

>  <SCORE.INTRA.DIHEDRAL>
-8.87919

>  <SCORE.INTRA.DIHEDRAL.0>
11.9251

>  <SCORE.INTRA.POLAR>
0

>  <SCORE.INTRA.POLAR.0>
0

>  <SCORE.INTRA.REPUL>
0

>  <SCORE.INTRA.REPUL.0>
0

>  <SCORE.INTRA.SOLV>
-0.199841

>  <SCORE.INTRA.SOLV.lig_0>
-40.9823

>  <SCORE.INTRA.VDW>
-1.44545

>  <SCORE.INTRA.VDW.0>
-0.53506

>  <SCORE.INTRA.norm>
-0.272044

>  <SCORE.RESTR>
0

>  <SCORE.RESTR.CAVITY>
0

>  <SCORE.RESTR.norm>
0

>  <SCORE.SYSTEM>
0

>  <SCORE.SYSTEM.CONST>
0

>  <SCORE.SYSTEM.DIHEDRAL>
0

>  <SCORE.SYSTEM.SOLV>
0

>  <SCORE.SYSTEM.norm>
0

>  <SCORE.heavy>
22

>  <SCORE.norm>
-1.16492

>  <RMSD>
1.070

$$$$
lig.pdb
 OpenBabel11021811523D
libRbt.so/2013.1/901 2013/11/27
 22 23  0  0  0  0  0  0  0  0999 V2000
   57.6453  -18.2384    8.1234 O   0  0  0  0  0  0  0  0  0  0  0  0
   57.0087  -17.2205    8.2613 C   0  0  0  0  0  0  0  0  0  0  0  0
   55.7391  -17.1338    7.9058 N   0  0  0  0  0  0  0  0  0  0  0  0
   57.6539  -16.0141    8.7983 C   0  0  0  0  0  0  0  0  0  0  0  0
   58.9846  -15.9742    9.4091 C   0  0  0  0  0  0  0  0  0  0  0  0
   59.8002  -17.0358    9.5855 N   0  0  0  0  0  0  0  0  0  0  0  0
   57.2208  -14.7448    8.8608 N   0  0  0  0  0  0  0  0  0  0  0  0
   58.1965  -13.9833    9.4289 C   0  0  0  0  0  0  0  0  0  0  0  0
   59.2786  -14.7275    9.7605 N   0  0  0  0  0  0  0  0  0  0  0  0
   60.5232  -14.2190   10.3991 C   0  0  1  0  0  0  0  0  0  0  0  0
   61.4735  -13.7327    9.3264 C   0  0  1  0  0  0  0  0  0  0  0  0
   62.0940  -12.4986    9.9282 C   0  0  2  0  0  0  0  0  0  0  0  0
   63.2890  -12.8516   10.6362 O   0  0  0  0  0  0  0  0  0  0  0  0
   62.4512  -14.7356    9.0089 O   0  0  0  0  0  0  0  0  0  0  0  0
   60.2335  -13.0843   11.2117 O   0  0  0  0  0  0  0  0  0  0  0  0
   61.0779  -11.9966   10.9209 C   0  0  2  0  0  0  0  0  0  0  0  0
   60.1724  -10.8814   10.4404 C   0  0  0  0  0  0  0  0  0  0  0  0
   59.4147  -10.3312   11.4984 O   0  0  0  0  0  0  0  0  0  0  0  0
   58.4815   -9.0706   11.1942 P   0  0  0  0  0  0  0  0  0  0  0  0
   57.4845   -9.5599   10.1629 O   0  0  0  0  0  0  0  0  0  0  0  0
   59.4740   -8.0554   10.6891 O   0  0  0  0  0  0  0  0  0  0  0  0
   57.9323   -8.7105   12.5467 O   0  0  0  0  0  0  0  0  0  0  0  0
  2  1  2  0  0  0  0
  2  4  1  0  0  0  0
  3  2  1  0  0  0  0
  4  7  1  0  0  0  0
  4  5  2  0  0  0  0
  5  6  1  0  0  0  0
  5  9  1  0  0  0  0
  7  8  2  0  0  0  0
  8  9  1  0  0  0  0
 10  9  1  6  0  0  0
 10 15  1  0  0  0  0
 11 14  1  1  0  0  0
 11 12  1  0  0  0  0
 11 10  1  0  0  0  0
 12 13  1  1  0  0  0
 12 16  1  0  0  0  0
 16 17  1  6  0  0  0
 16 15  1  0  0  0  0
 18 19  1  0  0  0  0
 18 17  1  0  0  0  0
 19 21  1  0  0  0  0
 20 19  1  0  0  0  0
 22 19  2  0  0  0  0
M  END
>  <CHROM.1>
-10.85826628,93.73531157,-170.16923677,61.38965405,175.61078671,59.32811547
-13.05437424,10.02539972,1.70092143,0.10818819,-2.82383197

>  <Name>
lig.pdb

>  <RI>
0

>  <Rbt.Current_Directory>
/home/itssahil/PROJECTS/Mol_Feturizer/New_Systems/rnas/4znp

>  <Rbt.Executable>
rbdock ($Id: //depot/dev/client3/rdock/2013.1/src/exe/rbdock.cxx#4 $)

>  <Rbt.Library>
libRbt.so (2013.1, Build901 2013/11/27)

>  <Rbt.Parameter_File>
/export/apps/rDock/src/rDock_2013.1_src/data/scripts/dock_solv.prm

>  <Rbt.Receptor>
prm/pocket_docking_2.prm

>  <SCORE>
-25.6512

>  <SCORE.INTER>
-19.7195

>  <SCORE.INTER.CONST>
1

>  <SCORE.INTER.POLAR>
0

>  <SCORE.INTER.ROT>
5

>  <SCORE.INTER.SOLV>
20.1124

>  <SCORE.INTER.VDW>
-26.7838

>  <SCORE.INTER.norm>
-0.896343

>  <SCORE.INTRA>
-5.93169

>  <SCORE.INTRA.DIHEDRAL>
-8.77381

>  <SCORE.INTRA.DIHEDRAL.0>
11.9251

>  <SCORE.INTRA.POLAR>
0

>  <SCORE.INTRA.POLAR.0>
0

>  <SCORE.INTRA.REPUL>
0

>  <SCORE.INTRA.REPUL.0>
0

>  <SCORE.INTRA.SOLV>
-0.199152

>  <SCORE.INTRA.SOLV.lig_0>
-40.9823

>  <SCORE.INTRA.VDW>
-1.44521

>  <SCORE.INTRA.VDW.0>
-0.53506

>  <SCORE.INTRA.norm>
-0.269622

>  <SCORE.RESTR>
0

>  <SCORE.RESTR.CAVITY>
0

>  <SCORE.RESTR.norm>
0

>  <SCORE.SYSTEM>
0

>  <SCORE.SYSTEM.CONST>
0

>  <SCORE.SYSTEM.DIHEDRAL>
0

>  <SCORE.SYSTEM.SOLV>
0

>  <SCORE.SYSTEM.norm>
0

>  <SCORE.heavy>
22

>  <SCORE.norm>
-1.16596

>  <RMSD>
1.073

$$$$
lig.pdb
 OpenBabel11021811523D
libRbt.so/2013.1/901 2013/11/27
 22 23  0  0  0  0  0  0  0  0999 V2000
   57.6861  -18.3509    8.0648 O   0  0  0  0  0  0  0  0  0  0  0  0
   57.0010  -17.3575    8.1302 C   0  0  0  0  0  0  0  0  0  0  0  0
   55.7548  -17.3349    7.6917 N   0  0  0  0  0  0  0  0  0  0  0  0
   57.5604  -16.1101    8.6697 C   0  0  0  0  0  0  0  0  0  0  0  0
   58.8745  -15.9841    9.3044 C   0  0  0  0  0  0  0  0  0  0  0  0
   59.7507  -16.9921    9.5035 N   0  0  0  0  0  0  0  0  0  0  0  0
   57.0487  -14.8697    8.7149 N   0  0  0  0  0  0  0  0  0  0  0  0
   57.9647  -14.0456    9.2949 C   0  0  0  0  0  0  0  0  0  0  0  0
   59.0844  -14.7194    9.6517 N   0  0  0  0  0  0  0  0  0  0  0  0
   60.2831  -14.1308   10.3090 C   0  0  1  0  0  0  0  0  0  0  0  0
   61.4164  -14.0562    9.3088 C   0  0  1  0  0  0  0  0  0  0  0  0
   62.0882  -12.7448    9.6236 C   0  0  2  0  0  0  0  0  0  0  0  0
   63.1307  -12.9516   10.5852 O   0  0  0  0  0  0  0  0  0  0  0  0
   62.3069  -15.1738    9.4526 O   0  0  0  0  0  0  0  0  0  0  0  0
   60.0195  -12.7873   10.7054 O   0  0  0  0  0  0  0  0  0  0  0  0
   61.0134  -11.8985   10.2549 C   0  0  2  0  0  0  0  0  0  0  0  0
   60.3126  -10.9186    9.3367 C   0  0  0  0  0  0  0  0  0  0  0  0
   59.1842  -10.3370    9.9568 O   0  0  0  0  0  0  0  0  0  0  0  0
   59.4161   -9.3382   11.1820 P   0  0  0  0  0  0  0  0  0  0  0  0
   59.9591  -10.2066   12.2990 O   0  0  0  0  0  0  0  0  0  0  0  0
   58.0303   -8.7939   11.4145 O   0  0  0  0  0  0  0  0  0  0  0  0
   60.3496   -8.3045   10.6156 O   0  0  0  0  0  0  0  0  0  0  0  0
  2  1  2  0  0  0  0
  2  4  1  0  0  0  0
  3  2  1  0  0  0  0
  4  7  1  0  0  0  0
  4  5  2  0  0  0  0
  5  6  1  0  0  0  0
  5  9  1  0  0  0  0
  7  8  2  0  0  0  0
  8  9  1  0  0  0  0
 10  9  1  6  0  0  0
 10 15  1  0  0  0  0
 11 14  1  1  0  0  0
 11 12  1  0  0  0  0
 11 10  1  0  0  0  0
 12 13  1  1  0  0  0
 12 16  1  0  0  0  0
 16 17  1  6  0  0  0
 16 15  1  0  0  0  0
 18 19  1  0  0  0  0
 18 17  1  0  0  0  0
 19 21  1  0  0  0  0
 20 19  1  0  0  0  0
 22 19  2  0  0  0  0
M  END
>  <CHROM.1>
-7.68900363,73.34397277,170.19357083,-67.66914539,68.10753787,59.50632798
-13.18397142,9.85496269,1.83693606,0.13015043,-2.84999614

>  <Name>
lig.pdb

>  <RI>
0

>  <Rbt.Current_Directory>
/home/itssahil/PROJECTS/Mol_Feturizer/New_Systems/rnas/4znp

>  <Rbt.Executable>
rbdock ($Id: //depot/dev/client3/rdock/2013.1/src/exe/rbdock.cxx#4 $)

>  <Rbt.Library>
libRbt.so (2013.1, Build901 2013/11/27)

>  <Rbt.Parameter_File>
/export/apps/rDock/src/rDock_2013.1_src/data/scripts/dock_solv.prm

>  <Rbt.Receptor>
prm/pocket_docking_7.prm

>  <SCORE>
-24.8982

>  <SCORE.INTER>
-19.8081

>  <SCORE.INTER.CONST>
1

>  <SCORE.INTER.POLAR>
0

>  <SCORE.INTER.ROT>
5

>  <SCORE.INTER.SOLV>
19.9278

>  <SCORE.INTER.VDW>
-26.7814

>  <SCORE.INTER.norm>
-0.900369

>  <SCORE.INTRA>
-5.09013

>  <SCORE.INTRA.DIHEDRAL>
-8.63559

>  <SCORE.INTRA.DIHEDRAL.0>
11.9251

>  <SCORE.INTRA.POLAR>
0

>  <SCORE.INTRA.POLAR.0>
0

>  <SCORE.INTRA.REPUL>
0

>  <SCORE.INTRA.REPUL.0>
0

>  <SCORE.INTRA.SOLV>
1.37783

>  <SCORE.INTRA.SOLV.lig_0>
-40.9823

>  <SCORE.INTRA.VDW>
-1.46125

>  <SCORE.INTRA.VDW.0>
-0.53506

>  <SCORE.INTRA.norm>
-0.23137

>  <SCORE.RESTR>
0

>  <SCORE.RESTR.CAVITY>
0

>  <SCORE.RESTR.norm>
0

>  <SCORE.SYSTEM>
0

>  <SCORE.SYSTEM.CONST>
0

>  <SCORE.SYSTEM.DIHEDRAL>
0

>  <SCORE.SYSTEM.SOLV>
0

>  <SCORE.SYSTEM.norm>
0

>  <SCORE.heavy>
22

>  <SCORE.norm>
-1.13174

>  <RMSD>
1.086

$$$$
lig.pdb
 OpenBabel11021811523D
libRbt.so/2013.1/901 2013/11/27
 22 23  0  0  0  0  0  0  0  0999 V2000
   57.6532  -18.3538    8.0556 O   0  0  0  0  0  0  0  0  0  0  0  0
   56.9635  -17.3691    8.1783 C   0  0  0  0  0  0  0  0  0  0  0  0
   55.6898  -17.3568    7.8275 N   0  0  0  0  0  0  0  0  0  0  0  0
   57.5454  -16.1203    8.6904 C   0  0  0  0  0  0  0  0  0  0  0  0
   58.8610  -16.0043    9.3237 C   0  0  0  0  0  0  0  0  0  0  0  0
   59.7184  -17.0235    9.5463 N   0  0  0  0  0  0  0  0  0  0  0  0
   57.0565  -14.8701    8.7071 N   0  0  0  0  0  0  0  0  0  0  0  0
   57.9871  -14.0501    9.2697 C   0  0  0  0  0  0  0  0  0  0  0  0
   59.0940  -14.7362    9.6428 N   0  0  0  0  0  0  0  0  0  0  0  0
   60.3028  -14.1551   10.2881 C   0  0  1  0  0  0  0  0  0  0  0  0
   61.4197  -14.0668    9.2708 C   0  0  1  0  0  0  0  0  0  0  0  0
   62.0957  -12.7590    9.5916 C   0  0  2  0  0  0  0  0  0  0  0  0
   63.1537  -12.9772   10.5334 O   0  0  0  0  0  0  0  0  0  0  0  0
   62.3130  -15.1854    9.3859 O   0  0  0  0  0  0  0  0  0  0  0  0
   60.0447  -12.8170   10.7060 O   0  0  0  0  0  0  0  0  0  0  0  0
   61.0307  -11.9218   10.2510 C   0  0  2  0  0  0  0  0  0  0  0  0
   60.3146  -10.9307    9.3569 C   0  0  0  0  0  0  0  0  0  0  0  0
   59.2397  -10.3046   10.0267 O   0  0  0  0  0  0  0  0  0  0  0  0
   59.5641   -9.3531   11.2684 P   0  0  0  0  0  0  0  0  0  0  0  0
   60.0558  -10.2841   12.3585 O   0  0  0  0  0  0  0  0  0  0  0  0
   58.2269   -8.7111   11.5342 O   0  0  0  0  0  0  0  0  0  0  0  0
   60.5649   -8.3805   10.7088 O   0  0  0  0  0  0  0  0  0  0  0  0
  2  1  2  0  0  0  0
  2  4  1  0  0  0  0
  3  2  1  0  0  0  0
  4  7  1  0  0  0  0
  4  5  2  0  0  0  0
  5  6  1  0  0  0  0
  5  9  1  0  0  0  0
  7  8  2  0  0  0  0
  8  9  1  0  0  0  0
 10  9  1  6  0  0  0
 10 15  1  0  0  0  0
 11 14  1  1  0  0  0
 11 12  1  0  0  0  0
 11 10  1  0  0  0  0
 12 13  1  1  0  0  0
 12 16  1  0  0  0  0
 16 17  1  6  0  0  0
 16 15  1  0  0  0  0
 18 19  1  0  0  0  0
 18 17  1  0  0  0  0
 19 21  1  0  0  0  0
 20 19  1  0  0  0  0
 22 19  2  0  0  0  0
M  END
>  <CHROM.1>
-12.43575731,75.84326090,173.38790163,-69.15872441,65.24155906,59.54565370
-13.19866445,9.87970864,1.85589814,0.10967519,-2.84160812

>  <Name>
lig.pdb

>  <RI>
0

>  <Rbt.Current_Directory>
/home/itssahil/PROJECTS/Mol_Feturizer/New_Systems/rnas/4znp

>  <Rbt.Executable>
rbdock ($Id: //depot/dev/client3/rdock/2013.1/src/exe/rbdock.cxx#4 $)

>  <Rbt.Library>
libRbt.so (2013.1, Build901 2013/11/27)

>  <Rbt.Parameter_File>
/export/apps/rDock/src/rDock_2013.1_src/data/scripts/dock_solv.prm

>  <Rbt.Receptor>
prm/pocket_docking_5.prm

>  <SCORE>
-24.8479

>  <SCORE.INTER>
-19.8079

>  <SCORE.INTER.CONST>
1

>  <SCORE.INTER.POLAR>
0

>  <SCORE.INTER.ROT>
5

>  <SCORE.INTER.SOLV>
19.8068

>  <SCORE.INTER.VDW>
-26.7409

>  <SCORE.INTER.norm>
-0.90036

>  <SCORE.INTRA>
-5.03995

>  <SCORE.INTRA.DIHEDRAL>
-8.6799

>  <SCORE.INTRA.DIHEDRAL.0>
11.9251

>  <SCORE.INTRA.POLAR>
0

>  <SCORE.INTRA.POLAR.0>
0

>  <SCORE.INTRA.REPUL>
0

>  <SCORE.INTRA.REPUL.0>
0

>  <SCORE.INTRA.SOLV>
1.3949

>  <SCORE.INTRA.SOLV.lig_0>
-40.9823

>  <SCORE.INTRA.VDW>
-1.39745

>  <SCORE.INTRA.VDW.0>
-0.53506

>  <SCORE.INTRA.norm>
-0.229089

>  <SCORE.RESTR>
0

>  <SCORE.RESTR.CAVITY>
0

>  <SCORE.RESTR.norm>
0

>  <SCORE.SYSTEM>
0

>  <SCORE.SYSTEM.CONST>
0

>  <SCORE.SYSTEM.DIHEDRAL>
0

>  <SCORE.SYSTEM.SOLV>
0

>  <SCORE.SYSTEM.norm>
0

>  <SCORE.heavy>
22

>  <SCORE.norm>
-1.12945

>  <RMSD>
1.094

$$$$
lig.pdb
 OpenBabel11021811523D
libRbt.so/2013.1/901 2013/11/27
 22 23  0  0  0  0  0  0  0  0999 V2000
   57.5637  -18.4604    7.9532 O   0  0  0  0  0  0  0  0  0  0  0  0
   56.8710  -17.4831    8.1138 C   0  0  0  0  0  0  0  0  0  0  0  0
   55.5915  -17.4686    7.7848 N   0  0  0  0  0  0  0  0  0  0  0  0
   57.4550  -16.2453    8.6495 C   0  0  0  0  0  0  0  0  0  0  0  0
   58.7647  -16.1463    9.2979 C   0  0  0  0  0  0  0  0  0  0  0  0
   59.6136  -17.1737    9.5149 N   0  0  0  0  0  0  0  0  0  0  0  0
   56.9735  -14.9924    8.6789 N   0  0  0  0  0  0  0  0  0  0  0  0
   57.9031  -14.1862    9.2625 C   0  0  0  0  0  0  0  0  0  0  0  0
   59.0018  -14.8843    9.6373 N   0  0  0  0  0  0  0  0  0  0  0  0
   60.2073  -14.3197   10.3032 C   0  0  1  0  0  0  0  0  0  0  0  0
   61.3128  -14.1570    9.2827 C   0  0  1  0  0  0  0  0  0  0  0  0
   61.9709  -12.8578    9.6694 C   0  0  2  0  0  0  0  0  0  0  0  0
   63.0412  -13.1102   10.5884 O   0  0  0  0  0  0  0  0  0  0  0  0
   62.2251  -15.2652    9.3278 O   0  0  0  0  0  0  0  0  0  0  0  0
   59.9319  -13.0112   10.7968 O   0  0  0  0  0  0  0  0  0  0  0  0
   60.8989  -12.0760   10.3834 C   0  0  2  0  0  0  0  0  0  0  0  0
   60.1584  -11.0491    9.5518 C   0  0  0  0  0  0  0  0  0  0  0  0
   60.9485   -9.9025    9.3124 O   0  0  0  0  0  0  0  0  0  0  0  0
   60.9678   -8.7450   10.4135 P   0  0  0  0  0  0  0  0  0  0  0  0
   61.5868   -9.3817   11.6416 O   0  0  0  0  0  0  0  0  0  0  0  0
   59.5056   -8.4039   10.5412 O   0  0  0  0  0  0  0  0  0  0  0  0
   61.7556   -7.6488    9.7514 O   0  0  0  0  0  0  0  0  0  0  0  0
  2  1  2  0  0  0  0
  2  4  1  0  0  0  0
  3  2  1  0  0  0  0
  4  7  1  0  0  0  0
  4  5  2  0  0  0  0
  5  6  1  0  0  0  0
  5  9  1  0  0  0  0
  7  8  2  0  0  0  0
  8  9  1  0  0  0  0
 10  9  1  6  0  0  0
 10 15  1  0  0  0  0
 11 14  1  1  0  0  0
 11 12  1  0  0  0  0
 11 10  1  0  0  0  0
 12 13  1  1  0  0  0
 12 16  1  0  0  0  0
 16 17  1  6  0  0  0
 16 15  1  0  0  0  0
 18 19  1  0  0  0  0
 18 17  1  0  0  0  0
 19 21  1  0  0  0  0
 20 19  1  0  0  0  0
 22 19  2  0  0  0  0
M  END
>  <CHROM.1>
-14.27247110,78.75157916,-74.74819045,63.87103262,-85.09338095,59.88023662
-13.11982581,9.64291012,1.99551946,0.23915338,-3.01991319

>  <Name>
lig.pdb

>  <RI>
0

>  <Rbt.Current_Directory>
/home/itssahil/PROJECTS/Mol_Feturizer/New_Systems/rnas/4znp

>  <Rbt.Executable>
rbdock ($Id: //depot/dev/client3/rdock/2013.1/src/exe/rbdock.cxx#4 $)

>  <Rbt.Library>
libRbt.so (2013.1, Build901 2013/11/27)

>  <Rbt.Parameter_File>
/export/apps/rDock/src/rDock_2013.1_src/data/scripts/dock_solv.prm

>  <Rbt.Receptor>
prm/pocket_docking_3.prm

>  <SCORE>
-23.3754

>  <SCORE.INTER>
-19.3418

>  <SCORE.INTER.CONST>
1

>  <SCORE.INTER.POLAR>
0

>  <SCORE.INTER.ROT>
5

>  <SCORE.INTER.SOLV>
20.2203

>  <SCORE.INTER.VDW>
-26.568

>  <SCORE.INTER.norm>
-0.879174

>  <SCORE.INTRA>
-4.03362

>  <SCORE.INTRA.DIHEDRAL>
-5.46282

>  <SCORE.INTRA.DIHEDRAL.0>
11.9251

>  <SCORE.INTRA.POLAR>
0

>  <SCORE.INTRA.POLAR.0>
0

>  <SCORE.INTRA.REPUL>
0

>  <SCORE.INTRA.REPUL.0>
0

>  <SCORE.INTRA.SOLV>
0.519466

>  <SCORE.INTRA.SOLV.lig_0>
-40.9823

>  <SCORE.INTRA.VDW>
-1.56194

>  <SCORE.INTRA.VDW.0>
-0.53506

>  <SCORE.INTRA.norm>
-0.183346

>  <SCORE.RESTR>
0

>  <SCORE.RESTR.CAVITY>
0

>  <SCORE.RESTR.norm>
0

>  <SCORE.SYSTEM>
0

>  <SCORE.SYSTEM.CONST>
0

>  <SCORE.SYSTEM.DIHEDRAL>
0

>  <SCORE.SYSTEM.SOLV>
0

>  <SCORE.SYSTEM.norm>
0

>  <SCORE.heavy>
22

>  <SCORE.norm>
-1.06252

>  <RMSD>
1.113

$$$$
lig.pdb
 OpenBabel11021811523D
libRbt.so/2013.1/901 2013/11/27
 22 23  0  0  0  0  0  0  0  0999 V2000
   57.6924  -18.3644    8.0627 O   0  0  0  0  0  0  0  0  0  0  0  0
   57.0008  -17.3786    8.1647 C   0  0  0  0  0  0  0  0  0  0  0  0
   55.7347  -17.3680    7.7870 N   0  0  0  0  0  0  0  0  0  0  0  0
   57.5724  -16.1269    8.6811 C   0  0  0  0  0  0  0  0  0  0  0  0
   58.8835  -16.0039    9.3225 C   0  0  0  0  0  0  0  0  0  0  0  0
   59.7452  -17.0183    9.5498 N   0  0  0  0  0  0  0  0  0  0  0  0
   57.0764  -14.8795    8.6956 N   0  0  0  0  0  0  0  0  0  0  0  0
   57.9988  -14.0546    9.2643 C   0  0  0  0  0  0  0  0  0  0  0  0
   59.1072  -14.7346    9.6438 N   0  0  0  0  0  0  0  0  0  0  0  0
   60.3087  -14.1471   10.2969 C   0  0  1  0  0  0  0  0  0  0  0  0
   61.4250  -14.0332    9.2815 C   0  0  1  0  0  0  0  0  0  0  0  0
   62.0853  -12.7214    9.6186 C   0  0  2  0  0  0  0  0  0  0  0  0
   63.1454  -12.9385   10.5583 O   0  0  0  0  0  0  0  0  0  0  0  0
   62.3315  -15.1424    9.3835 O   0  0  0  0  0  0  0  0  0  0  0  0
   60.0346  -12.8174   10.7309 O   0  0  0  0  0  0  0  0  0  0  0  0
   61.0101  -11.9050   10.2874 C   0  0  2  0  0  0  0  0  0  0  0  0
   60.2826  -10.9117    9.4050 C   0  0  0  0  0  0  0  0  0  0  0  0
   59.1660  -10.3487   10.0624 O   0  0  0  0  0  0  0  0  0  0  0  0
   59.4170   -9.4440   11.3551 P   0  0  0  0  0  0  0  0  0  0  0  0
   59.9151  -10.4048   12.4161 O   0  0  0  0  0  0  0  0  0  0  0  0
   58.0483   -8.8675   11.6098 O   0  0  0  0  0  0  0  0  0  0  0  0
   60.3932   -8.4084   10.8701 O   0  0  0  0  0  0  0  0  0  0  0  0
  2  1  2  0  0  0  0
  2  4  1  0  0  0  0
  3  2  1  0  0  0  0
  4  7  1  0  0  0  0
  4  5  2  0  0  0  0
  5  6  1  0  0  0  0
  5  9  1  0  0  0  0
  7  8  2  0  0  0  0
  8  9  1  0  0  0  0
 10  9  1  6  0  0  0
 10 15  1  0  0  0  0
 11 14  1  1  0  0  0
 11 12  1  0  0  0  0
 11 10  1  0  0  0  0
 12 13  1  1  0  0  0
 12 16  1  0  0  0  0
 16 17  1  6  0  0  0
 16 15  1  0  0  0  0
 18 19  1  0  0  0  0
 18 17  1  0  0  0  0
 19 21  1  0  0  0  0
 20 19  1  0  0  0  0
 22 19  2  0  0  0  0
M  END
>  <CHROM.1>
-11.42884662,76.65911946,170.87802574,-68.53863462,64.43468048,59.51231796
-13.21743554,9.90868933,1.83901753,0.10049347,-2.82350427

>  <Name>
lig.pdb

>  <RI>
0

>  <Rbt.Current_Directory>
/home/itssahil/PROJECTS/Mol_Feturizer/New_Systems/rnas/4znp

>  <Rbt.Executable>
rbdock ($Id: //depot/dev/client3/rdock/2013.1/src/exe/rbdock.cxx#4 $)

>  <Rbt.Library>
libRbt.so (2013.1, Build901 2013/11/27)

>  <Rbt.Parameter_File>
/export/apps/rDock/src/rDock_2013.1_src/data/scripts/dock_solv.prm

>  <Rbt.Receptor>
prm/pocket_docking_3.prm

>  <SCORE>
-24.773

>  <SCORE.INTER>
-19.7669

>  <SCORE.INTER.CONST>
1

>  <SCORE.INTER.POLAR>
0

>  <SCORE.INTER.ROT>
5

>  <SCORE.INTER.SOLV>
19.7542

>  <SCORE.INTER.VDW>
-26.696

>  <SCORE.INTER.norm>
-0.898497

>  <SCORE.INTRA>
-5.00606

>  <SCORE.INTRA.DIHEDRAL>
-8.66959

>  <SCORE.INTRA.DIHEDRAL.0>
11.9251

>  <SCORE.INTRA.POLAR>
0

>  <SCORE.INTRA.POLAR.0>
0

>  <SCORE.INTRA.REPUL>
0

>  <SCORE.INTRA.REPUL.0>
0

>  <SCORE.INTRA.SOLV>
1.40844

>  <SCORE.INTRA.SOLV.lig_0>
-40.9823

>  <SCORE.INTRA.VDW>
-1.37549

>  <SCORE.INTRA.VDW.0>
-0.53506

>  <SCORE.INTRA.norm>
-0.227548

>  <SCORE.RESTR>
0

>  <SCORE.RESTR.CAVITY>
0

>  <SCORE.RESTR.norm>
0

>  <SCORE.SYSTEM>
0

>  <SCORE.SYSTEM.CONST>
0

>  <SCORE.SYSTEM.DIHEDRAL>
0

>  <SCORE.SYSTEM.SOLV>
0

>  <SCORE.SYSTEM.norm>
0

>  <SCORE.heavy>
22

>  <SCORE.norm>
-1.12605

>  <RMSD>
1.117

$$$$
lig.pdb
 OpenBabel11021811523D
libRbt.so/2013.1/901 2013/11/27
 22 23  0  0  0  0  0  0  0  0999 V2000
   57.5484  -18.4468    7.9832 O   0  0  0  0  0  0  0  0  0  0  0  0
   56.8746  -17.4512    8.1066 C   0  0  0  0  0  0  0  0  0  0  0  0
   55.6059  -17.4129    7.7395 N   0  0  0  0  0  0  0  0  0  0  0  0
   57.4716  -16.2179    8.6385 C   0  0  0  0  0  0  0  0  0  0  0  0
   58.7817  -16.1309    9.2877 C   0  0  0  0  0  0  0  0  0  0  0  0
   59.6191  -17.1668    9.5092 N   0  0  0  0  0  0  0  0  0  0  0  0
   57.0037  -14.9597    8.6630 N   0  0  0  0  0  0  0  0  0  0  0  0
   57.9416  -14.1617    9.2446 C   0  0  0  0  0  0  0  0  0  0  0  0
   59.0323  -14.8703    9.6228 N   0  0  0  0  0  0  0  0  0  0  0  0
   60.2433  -14.3167   10.2879 C   0  0  1  0  0  0  0  0  0  0  0  0
   61.3428  -14.1443    9.2624 C   0  0  1  0  0  0  0  0  0  0  0  0
   62.0064  -12.8514    9.6605 C   0  0  2  0  0  0  0  0  0  0  0  0
   63.0819  -13.1173   10.5697 O   0  0  0  0  0  0  0  0  0  0  0  0
   62.2526  -15.2552    9.2886 O   0  0  0  0  0  0  0  0  0  0  0  0
   59.9742  -13.0135   10.7987 O   0  0  0  0  0  0  0  0  0  0  0  0
   60.9409  -12.0757   10.3904 C   0  0  2  0  0  0  0  0  0  0  0  0
   60.1977  -11.0371    9.5759 C   0  0  0  0  0  0  0  0  0  0  0  0
   59.0969  -10.5067   10.2850 O   0  0  0  0  0  0  0  0  0  0  0  0
   59.3811   -9.6006   11.5698 P   0  0  0  0  0  0  0  0  0  0  0  0
   59.9812  -10.5455   12.5916 O   0  0  0  0  0  0  0  0  0  0  0  0
   58.0050   -9.0878   11.9074 O   0  0  0  0  0  0  0  0  0  0  0  0
   60.2811   -8.5189   11.0399 O   0  0  0  0  0  0  0  0  0  0  0  0
  2  1  2  0  0  0  0
  2  4  1  0  0  0  0
  3  2  1  0  0  0  0
  4  7  1  0  0  0  0
  4  5  2  0  0  0  0
  5  6  1  0  0  0  0
  5  9  1  0  0  0  0
  7  8  2  0  0  0  0
  8  9  1  0  0  0  0
 10  9  1  6  0  0  0
 10 15  1  0  0  0  0
 11 14  1  1  0  0  0
 11 12  1  0  0  0  0
 11 10  1  0  0  0  0
 12 13  1  1  0  0  0
 12 16  1  0  0  0  0
 16 17  1  6  0  0  0
 16 15  1  0  0  0  0
 18 19  1  0  0  0  0
 18 17  1  0  0  0  0
 19 21  1  0  0  0  0
 20 19  1  0  0  0  0
 22 19  2  0  0  0  0
M  END
>  <CHROM.1>
-12.32142997,79.84574797,171.31984615,-67.25690393,67.85336515,59.43789731
-13.35067112,9.96629229,1.84514624,0.08893629,-2.78620836

>  <Name>
lig.pdb

>  <RI>
0

>  <Rbt.Current_Directory>
/home/itssahil/PROJECTS/Mol_Feturizer/New_Systems/rnas/4znp

>  <Rbt.Executable>
rbdock ($Id: //depot/dev/client3/rdock/2013.1/src/exe/rbdock.cxx#4 $)

>  <Rbt.Library>
libRbt.so (2013.1, Build901 2013/11/27)

>  <Rbt.Parameter_File>
/export/apps/rDock/src/rDock_2013.1_src/data/scripts/dock_solv.prm

>  <Rbt.Receptor>
prm/pocket_docking_2.prm

>  <SCORE>
-24.8964

>  <SCORE.INTER>
-19.8207

>  <SCORE.INTER.CONST>
1

>  <SCORE.INTER.POLAR>
0

>  <SCORE.INTER.ROT>
5

>  <SCORE.INTER.SOLV>
20.2182

>  <SCORE.INTER.VDW>
-26.8866

>  <SCORE.INTER.norm>
-0.900942

>  <SCORE.INTRA>
-5.07566

>  <SCORE.INTRA.DIHEDRAL>
-8.46076

>  <SCORE.INTRA.DIHEDRAL.0>
11.9251

>  <SCORE.INTRA.POLAR>
0

>  <SCORE.INTRA.POLAR.0>
0

>  <SCORE.INTRA.REPUL>
0

>  <SCORE.INTRA.REPUL.0>
0

>  <SCORE.INTRA.SOLV>
1.29542

>  <SCORE.INTRA.SOLV.lig_0>
-40.9823

>  <SCORE.INTRA.VDW>
-1.49299

>  <SCORE.INTRA.VDW.0>
-0.53506

>  <SCORE.INTRA.norm>
-0.230712

>  <SCORE.RESTR>
0

>  <SCORE.RESTR.CAVITY>
0

>  <SCORE.RESTR.norm>
0

>  <SCORE.SYSTEM>
0

>  <SCORE.SYSTEM.CONST>
0

>  <SCORE.SYSTEM.DIHEDRAL>
0

>  <SCORE.SYSTEM.SOLV>
0

>  <SCORE.SYSTEM.norm>
0

>  <SCORE.heavy>
22

>  <SCORE.norm>
-1.13165

>  <RMSD>
1.138

$$$$
lig.pdb
 OpenBabel11021811523D
libRbt.so/2013.1/901 2013/11/27
 22 23  0  0  0  0  0  0  0  0999 V2000
   57.5344  -18.4299    8.0436 O   0  0  0  0  0  0  0  0  0  0  0  0
   56.8809  -17.4183    8.1438 C   0  0  0  0  0  0  0  0  0  0  0  0
   55.6236  -17.3529    7.7429 N   0  0  0  0  0  0  0  0  0  0  0  0
   57.4922  -16.1960    8.6847 C   0  0  0  0  0  0  0  0  0  0  0  0
   58.8108  -16.1258    9.3185 C   0  0  0  0  0  0  0  0  0  0  0  0
   59.6445  -17.1696    9.5153 N   0  0  0  0  0  0  0  0  0  0  0  0
   57.0325  -14.9355    8.7321 N   0  0  0  0  0  0  0  0  0  0  0  0
   57.9825  -14.1511    9.3126 C   0  0  0  0  0  0  0  0  0  0  0  0
   59.0735  -14.8714    9.6675 N   0  0  0  0  0  0  0  0  0  0  0  0
   60.2962  -14.3342   10.3246 C   0  0  1  0  0  0  0  0  0  0  0  0
   61.0522  -13.4664    9.3421 C   0  0  1  0  0  0  0  0  0  0  0  0
   61.5563  -12.3239   10.1852 C   0  0  2  0  0  0  0  0  0  0  0  0
   62.8563  -12.6373   10.7008 O   0  0  0  0  0  0  0  0  0  0  0  0
   62.1201  -14.1989    8.7211 O   0  0  0  0  0  0  0  0  0  0  0  0
   59.9397  -13.4811   11.4095 O   0  0  0  0  0  0  0  0  0  0  0  0
   60.5907  -12.2354   11.3383 C   0  0  2  0  0  0  0  0  0  0  0  0
   59.4945  -11.1978   11.2105 C   0  0  0  0  0  0  0  0  0  0  0  0
   60.0174   -9.8855   11.1886 O   0  0  0  0  0  0  0  0  0  0  0  0
   60.6995   -9.3130   12.5151 P   0  0  0  0  0  0  0  0  0  0  0  0
   61.9307  -10.1715   12.7252 O   0  0  0  0  0  0  0  0  0  0  0  0
   59.6098   -9.5006   13.5388 O   0  0  0  0  0  0  0  0  0  0  0  0
   60.9342   -7.8644   12.1877 O   0  0  0  0  0  0  0  0  0  0  0  0
  2  1  2  0  0  0  0
  2  4  1  0  0  0  0
  3  2  1  0  0  0  0
  4  7  1  0  0  0  0
  4  5  2  0  0  0  0
  5  6  1  0  0  0  0
  5  9  1  0  0  0  0
  7  8  2  0  0  0  0
  8  9  1  0  0  0  0
 10  9  1  6  0  0  0
 10 15  1  0  0  0  0
 11 14  1  1  0  0  0
 11 12  1  0  0  0  0
 11 10  1  0  0  0  0
 12 13  1  1  0  0  0
 12 16  1  0  0  0  0
 16 17  1  6  0  0  0
 16 15  1  0  0  0  0
 18 19  1  0  0  0  0
 18 17  1  0  0  0  0
 19 21  1  0  0  0  0
 20 19  1  0  0  0  0
 22 19  2  0  0  0  0
M  END
>  <CHROM.1>
-9.64044127,110.94706822,-64.67092155,65.52674727,-67.65289089,59.72803671
-13.17141815,10.39548413,-1.94797620,0.00609059,0.48294698

>  <Name>
lig.pdb

>  <RI>
0

>  <Rbt.Current_Directory>
/home/itssahil/PROJECTS/Mol_Feturizer/New_Systems/rnas/4znp

>  <Rbt.Executable>
rbdock ($Id: //depot/dev/client3/rdock/2013.1/src/exe/rbdock.cxx#4 $)

>  <Rbt.Library>
libRbt.so (2013.1, Build901 2013/11/27)

>  <Rbt.Parameter_File>
/export/apps/rDock/src/rDock_2013.1_src/data/scripts/dock_solv.prm

>  <Rbt.Receptor>
prm/pocket_docking_4.prm

>  <SCORE>
-24.5565

>  <SCORE.INTER>
-19.028

>  <SCORE.INTER.CONST>
1

>  <SCORE.INTER.POLAR>
0

>  <SCORE.INTER.ROT>
5

>  <SCORE.INTER.SOLV>
19.8718

>  <SCORE.INTER.VDW>
-26.2426

>  <SCORE.INTER.norm>
-0.864907

>  <SCORE.INTRA>
-5.52849

>  <SCORE.INTRA.DIHEDRAL>
-8.83687

>  <SCORE.INTRA.DIHEDRAL.0>
11.9251

>  <SCORE.INTRA.POLAR>
0

>  <SCORE.INTRA.POLAR.0>
0

>  <SCORE.INTRA.REPUL>
0

>  <SCORE.INTRA.REPUL.0>
0

>  <SCORE.INTRA.SOLV>
0.615786

>  <SCORE.INTRA.SOLV.lig_0>
-40.9823

>  <SCORE.INTRA.VDW>
-1.41795

>  <SCORE.INTRA.VDW.0>
-0.53506

>  <SCORE.INTRA.norm>
-0.251295

>  <SCORE.RESTR>
0

>  <SCORE.RESTR.CAVITY>
0

>  <SCORE.RESTR.norm>
0

>  <SCORE.SYSTEM>
0

>  <SCORE.SYSTEM.CONST>
0

>  <SCORE.SYSTEM.DIHEDRAL>
0

>  <SCORE.SYSTEM.SOLV>
0

>  <SCORE.SYSTEM.norm>
0

>  <SCORE.heavy>
22

>  <SCORE.norm>
-1.1162

>  <RMSD>
1.142

$$$$
lig.pdb
 OpenBabel11021811523D
libRbt.so/2013.1/901 2013/11/27
 22 23  0  0  0  0  0  0  0  0999 V2000
   57.3609  -18.5305    7.9881 O   0  0  0  0  0  0  0  0  0  0  0  0
   56.7441  -17.4971    8.0981 C   0  0  0  0  0  0  0  0  0  0  0  0
   55.4860  -17.3865    7.7101 N   0  0  0  0  0  0  0  0  0  0  0  0
   57.4030  -16.2988    8.6369 C   0  0  0  0  0  0  0  0  0  0  0  0
   58.7129  -16.2832    9.2920 C   0  0  0  0  0  0  0  0  0  0  0  0
   59.4934  -17.3626    9.5135 N   0  0  0  0  0  0  0  0  0  0  0  0
   57.0021  -15.0178    8.6637 N   0  0  0  0  0  0  0  0  0  0  0  0
   57.9781  -14.2722    9.2522 C   0  0  0  0  0  0  0  0  0  0  0  0
   59.0282  -15.0387    9.6327 N   0  0  0  0  0  0  0  0  0  0  0  0
   60.2637  -14.5519   10.3049 C   0  0  1  0  0  0  0  0  0  0  0  0
   61.1292  -13.8268    9.2973 C   0  0  1  0  0  0  0  0  0  0  0  0
   61.6923  -12.6663   10.0760 C   0  0  2  0  0  0  0  0  0  0  0  0
   62.9394  -13.0420   10.6740 O   0  0  0  0  0  0  0  0  0  0  0  0
   62.1565  -14.6888    8.7833 O   0  0  0  0  0  0  0  0  0  0  0  0
   59.9359  -13.5911   11.3055 O   0  0  0  0  0  0  0  0  0  0  0  0
   60.6913  -12.4110   11.1726 C   0  0  2  0  0  0  0  0  0  0  0  0
   59.6919  -11.3018   10.9168 C   0  0  0  0  0  0  0  0  0  0  0  0
   60.2942  -10.0265   11.0001 O   0  0  0  0  0  0  0  0  0  0  0  0
   60.6311   -9.4342   12.4452 P   0  0  0  0  0  0  0  0  0  0  0  0
   61.2876   -8.0948   12.1771 O   0  0  0  0  0  0  0  0  0  0  0  0
   61.5445  -10.4885   13.0154 O   0  0  0  0  0  0  0  0  0  0  0  0
   59.2927   -9.4053   13.1296 O   0  0  0  0  0  0  0  0  0  0  0  0
  2  1  2  0  0  0  0
  2  4  1  0  0  0  0
  3  2  1  0  0  0  0
  4  7  1  0  0  0  0
  4  5  2  0  0  0  0
  5  6  1  0  0  0  0
  5  9  1  0  0  0  0
  7  8  2  0  0  0  0
  8  9  1  0  0  0  0
 10  9  1  6  0  0  0
 10 15  1  0  0  0  0
 11 14  1  1  0  0  0
 11 12  1  0  0  0  0
 11 10  1  0  0  0  0
 12 13  1  1  0  0  0
 12 16  1  0  0  0  0
 16 17  1  6  0  0  0
 16 15  1  0  0  0  0
 18 19  1  0  0  0  0
 18 17  1  0  0  0  0
 19 21  1  0  0  0  0
 20 19  1  0  0  0  0
 22 19  2  0  0  0  0
M  END
>  <CHROM.1>
-11.49587533,106.39067368,-72.57907513,178.64114559,-76.01911122,59.70731188
-13.35004915,10.32902772,1.95783399,0.03325614,-2.67771660

>  <Name>
lig.pdb

>  <RI>
0

>  <Rbt.Current_Directory>
/home/itssahil/PROJECTS/Mol_Feturizer/New_Systems/rnas/4znp

>  <Rbt.Executable>
rbdock ($Id: //depot/dev/client3/rdock/2013.1/src/exe/rbdock.cxx#4 $)

>  <Rbt.Library>
libRbt.so (2013.1, Build901 2013/11/27)

>  <Rbt.Parameter_File>
/export/apps/rDock/src/rDock_2013.1_src/data/scripts/dock_solv.prm

>  <Rbt.Receptor>
prm/pocket_docking_3.prm

>  <SCORE>
-23.9323

>  <SCORE.INTER>
-19.3661

>  <SCORE.INTER.CONST>
1

>  <SCORE.INTER.POLAR>
0

>  <SCORE.INTER.ROT>
5

>  <SCORE.INTER.SOLV>
20.9216

>  <SCORE.INTER.VDW>
-26.8179

>  <SCORE.INTER.norm>
-0.880276

>  <SCORE.INTRA>
-4.56627

>  <SCORE.INTRA.DIHEDRAL>
-7.40281

>  <SCORE.INTRA.DIHEDRAL.0>
11.9251

>  <SCORE.INTRA.POLAR>
0

>  <SCORE.INTRA.POLAR.0>
0

>  <SCORE.INTRA.REPUL>
0

>  <SCORE.INTRA.REPUL.0>
0

>  <SCORE.INTRA.SOLV>
0.696265

>  <SCORE.INTRA.SOLV.lig_0>
-40.9823

>  <SCORE.INTRA.VDW>
-1.213

>  <SCORE.INTRA.VDW.0>
-0.53506

>  <SCORE.INTRA.norm>
-0.207558

>  <SCORE.RESTR>
0

>  <SCORE.RESTR.CAVITY>
0

>  <SCORE.RESTR.norm>
0

>  <SCORE.SYSTEM>
0

>  <SCORE.SYSTEM.CONST>
0

>  <SCORE.SYSTEM.DIHEDRAL>
0

>  <SCORE.SYSTEM.SOLV>
0

>  <SCORE.SYSTEM.norm>
0

>  <SCORE.heavy>
22

>  <SCORE.norm>
-1.08783

>  <RMSD>
1.144

$$$$
lig.pdb
 OpenBabel11021811523D
libRbt.so/2013.1/901 2013/11/27
 22 23  0  0  0  0  0  0  0  0999 V2000
   55.7534  -17.1515    7.8132 O   0  0  0  0  0  0  0  0  0  0  0  0
   56.9139  -17.2167    8.1443 C   0  0  0  0  0  0  0  0  0  0  0  0
   57.6058  -18.3390    8.0584 N   0  0  0  0  0  0  0  0  0  0  0  0
   57.5885  -16.0368    8.7038 C   0  0  0  0  0  0  0  0  0  0  0  0
   58.9086  -16.0461    9.3384 C   0  0  0  0  0  0  0  0  0  0  0  0
   59.6857  -17.1354    9.5192 N   0  0  0  0  0  0  0  0  0  0  0  0
   57.1961  -14.7546    8.7704 N   0  0  0  0  0  0  0  0  0  0  0  0
   58.1858  -14.0305    9.3627 C   0  0  0  0  0  0  0  0  0  0  0  0
   59.2369  -14.8128    9.7065 N   0  0  0  0  0  0  0  0  0  0  0  0
   60.4858  -14.3510   10.3716 C   0  0  1  0  0  0  0  0  0  0  0  0
   61.4312  -13.7937    9.3296 C   0  0  1  0  0  0  0  0  0  0  0  0
   62.0571  -12.6046   10.0113 C   0  0  2  0  0  0  0  0  0  0  0  0
   63.2552  -13.0071   10.6870 O   0  0  0  0  0  0  0  0  0  0  0  0
   62.4054  -14.7738    8.9388 O   0  0  0  0  0  0  0  0  0  0  0  0
   60.2024  -13.2744   11.2617 O   0  0  0  0  0  0  0  0  0  0  0  0
   61.0472  -12.1705   11.0417 C   0  0  2  0  0  0  0  0  0  0  0  0
   60.1411  -11.0237   10.6438 C   0  0  0  0  0  0  0  0  0  0  0  0
   60.8468   -9.8020   10.5689 O   0  0  0  0  0  0  0  0  0  0  0  0
   60.0945   -8.5204    9.9824 P   0  0  0  0  0  0  0  0  0  0  0  0
   58.7242   -8.5391   10.6295 O   0  0  0  0  0  0  0  0  0  0  0  0
   60.1034   -8.7973    8.5012 O   0  0  0  0  0  0  0  0  0  0  0  0
   61.0030   -7.3824   10.3574 O   0  0  0  0  0  0  0  0  0  0  0  0
  2  1  2  0  0  0  0
  2  4  1  0  0  0  0
  3  2  1  0  0  0  0
  4  7  1  0  0  0  0
  4  5  2  0  0  0  0
  5  6  1  0  0  0  0
  5  9  1  0  0  0  0
  7  8  2  0  0  0  0
  8  9  1  0  0  0  0
 10  9  1  6  0  0  0
 10 15  1  0  0  0  0
 11 14  1  1  0  0  0
 11 12  1  0  0  0  0
 11 10  1  0  0  0  0
 12 13  1  1  0  0  0
 12 16  1  0  0  0  0
 16 17  1  6  0  0  0
 16 15  1  0  0  0  0
 18 19  1  0  0  0  0
 18 17  1  0  0  0  0
 19 21  1  0  0  0  0
 20 19  1  0  0  0  0
 22 19  2  0  0  0  0
M  END
>  <CHROM.1>
169.46948412,97.81575431,-70.07987182,44.15321526,172.25369759,59.74654678
-12.95439157,9.66397842,1.90726004,0.28167375,-3.04099908

>  <Name>
lig.pdb

>  <RI>
0

>  <Rbt.Current_Directory>
/home/itssahil/PROJECTS/Mol_Feturizer/New_Systems/rnas/4znp

>  <Rbt.Executable>
rbdock ($Id: //depot/dev/client3/rdock/2013.1/src/exe/rbdock.cxx#4 $)

>  <Rbt.Library>
libRbt.so (2013.1, Build901 2013/11/27)

>  <Rbt.Parameter_File>
/export/apps/rDock/src/rDock_2013.1_src/data/scripts/dock_solv.prm

>  <Rbt.Receptor>
prm/pocket_docking_3.prm

>  <SCORE>
-24.7311

>  <SCORE.INTER>
-19.3573

>  <SCORE.INTER.CONST>
1

>  <SCORE.INTER.POLAR>
0

>  <SCORE.INTER.ROT>
5

>  <SCORE.INTER.SOLV>
20.6169

>  <SCORE.INTER.VDW>
-26.7105

>  <SCORE.INTER.norm>
-0.879876

>  <SCORE.INTRA>
-5.37386

>  <SCORE.INTRA.DIHEDRAL>
-8.22152

>  <SCORE.INTRA.DIHEDRAL.0>
11.9251

>  <SCORE.INTRA.POLAR>
0

>  <SCORE.INTRA.POLAR.0>
0

>  <SCORE.INTRA.REPUL>
0

>  <SCORE.INTRA.REPUL.0>
0

>  <SCORE.INTRA.SOLV>
0.0800899

>  <SCORE.INTRA.SOLV.lig_0>
-40.9823

>  <SCORE.INTRA.VDW>
-1.30314

>  <SCORE.INTRA.VDW.0>
-0.53506

>  <SCORE.INTRA.norm>
-0.244266

>  <SCORE.RESTR>
0

>  <SCORE.RESTR.CAVITY>
0

>  <SCORE.RESTR.norm>
0

>  <SCORE.SYSTEM>
0

>  <SCORE.SYSTEM.CONST>
0

>  <SCORE.SYSTEM.DIHEDRAL>
0

>  <SCORE.SYSTEM.SOLV>
0

>  <SCORE.SYSTEM.norm>
0

>  <SCORE.heavy>
22

>  <SCORE.norm>
-1.12414

>  <RMSD>
1.152

$$$$
lig.pdb
 OpenBabel11021811523D
libRbt.so/2013.1/901 2013/11/27
 22 23  0  0  0  0  0  0  0  0999 V2000
   55.8038  -17.1415    7.7752 O   0  0  0  0  0  0  0  0  0  0  0  0
   56.9534  -17.2014    8.1432 C   0  0  0  0  0  0  0  0  0  0  0  0
   57.6484  -18.3239    8.0926 N   0  0  0  0  0  0  0  0  0  0  0  0
   57.6093  -16.0142    8.7093 C   0  0  0  0  0  0  0  0  0  0  0  0
   58.9274  -16.0070    9.3479 C   0  0  0  0  0  0  0  0  0  0  0  0
   59.7196  -17.0858    9.5270 N   0  0  0  0  0  0  0  0  0  0  0  0
   57.1983  -14.7380    8.7797 N   0  0  0  0  0  0  0  0  0  0  0  0
   58.1758  -14.0021    9.3778 C   0  0  0  0  0  0  0  0  0  0  0  0
   59.2369  -14.7706    9.7218 N   0  0  0  0  0  0  0  0  0  0  0  0
   60.4771  -14.2935   10.3925 C   0  0  1  0  0  0  0  0  0  0  0  0
   61.4316  -13.7497    9.3517 C   0  0  1  0  0  0  0  0  0  0  0  0
   62.0461  -12.5475   10.0205 C   0  0  2  0  0  0  0  0  0  0  0  0
   63.2383  -12.9346   10.7153 O   0  0  0  0  0  0  0  0  0  0  0  0
   62.4133  -14.7325    8.9872 O   0  0  0  0  0  0  0  0  0  0  0  0
   60.1805  -13.2036   11.2619 O   0  0  0  0  0  0  0  0  0  0  0  0
   61.0238  -12.1003   11.0329 C   0  0  2  0  0  0  0  0  0  0  0  0
   60.1180  -10.9635   10.6068 C   0  0  0  0  0  0  0  0  0  0  0  0
   60.8202   -9.7407   10.5193 O   0  0  0  0  0  0  0  0  0  0  0  0
   60.0532   -8.4584    9.9536 P   0  0  0  0  0  0  0  0  0  0  0  0
   58.6865   -8.4985   10.6072 O   0  0  0  0  0  0  0  0  0  0  0  0
   60.0571   -8.7156    8.4688 O   0  0  0  0  0  0  0  0  0  0  0  0
   60.9530   -7.3172   10.3392 O   0  0  0  0  0  0  0  0  0  0  0  0
  2  1  2  0  0  0  0
  2  4  1  0  0  0  0
  3  2  1  0  0  0  0
  4  7  1  0  0  0  0
  4  5  2  0  0  0  0
  5  6  1  0  0  0  0
  5  9  1  0  0  0  0
  7  8  2  0  0  0  0
  8  9  1  0  0  0  0
 10  9  1  6  0  0  0
 10 15  1  0  0  0  0
 11 14  1  1  0  0  0
 11 12  1  0  0  0  0
 11 10  1  0  0  0  0
 12 13  1  1  0  0  0
 12 16  1  0  0  0  0
 16 17  1  6  0  0  0
 16 15  1  0  0  0  0
 18 19  1  0  0  0  0
 18 17  1  0  0  0  0
 19 21  1  0  0  0  0
 20 19  1  0  0  0  0
 22 19  2  0  0  0  0
M  END
>  <CHROM.1>
171.47941817,96.43728060,-70.06772461,42.88521944,174.45628076,59.73897878
-12.90634931,9.66129873,1.89772497,0.29011804,-3.04600227

>  <Name>
lig.pdb

>  <RI>
0

>  <Rbt.Current_Directory>
/home/itssahil/PROJECTS/Mol_Feturizer/New_Systems/rnas/4znp

>  <Rbt.Executable>
rbdock ($Id: //depot/dev/client3/rdock/2013.1/src/exe/rbdock.cxx#4 $)

>  <Rbt.Library>
libRbt.so (2013.1, Build901 2013/11/27)

>  <Rbt.Parameter_File>
/export/apps/rDock/src/rDock_2013.1_src/data/scripts/dock_solv.prm

>  <Rbt.Receptor>
prm/pocket_docking_3.prm

>  <SCORE>
-24.6887

>  <SCORE.INTER>
-19.2457

>  <SCORE.INTER.CONST>
1

>  <SCORE.INTER.POLAR>
0

>  <SCORE.INTER.ROT>
5

>  <SCORE.INTER.SOLV>
20.4535

>  <SCORE.INTER.VDW>
-26.5816

>  <SCORE.INTER.norm>
-0.874804

>  <SCORE.INTRA>
-5.44297

>  <SCORE.INTRA.DIHEDRAL>
-8.42363

>  <SCORE.INTRA.DIHEDRAL.0>
11.9251

>  <SCORE.INTRA.POLAR>
0

>  <SCORE.INTRA.POLAR.0>
0

>  <SCORE.INTRA.REPUL>
0

>  <SCORE.INTRA.REPUL.0>
0

>  <SCORE.INTRA.SOLV>
0.0866353

>  <SCORE.INTRA.SOLV.lig_0>
-40.9823

>  <SCORE.INTRA.VDW>
-1.27447

>  <SCORE.INTRA.VDW.0>
-0.53506

>  <SCORE.INTRA.norm>
-0.247408

>  <SCORE.RESTR>
0

>  <SCORE.RESTR.CAVITY>
0

>  <SCORE.RESTR.norm>
0

>  <SCORE.SYSTEM>
0

>  <SCORE.SYSTEM.CONST>
0

>  <SCORE.SYSTEM.DIHEDRAL>
0

>  <SCORE.SYSTEM.SOLV>
0

>  <SCORE.SYSTEM.norm>
0

>  <SCORE.heavy>
22

>  <SCORE.norm>
-1.12221

>  <RMSD>
1.155

$$$$
lig.pdb
 OpenBabel11021811523D
libRbt.so/2013.1/901 2013/11/27
 22 23  0  0  0  0  0  0  0  0999 V2000
   57.4322  -18.4204    8.0259 O   0  0  0  0  0  0  0  0  0  0  0  0
   56.8183  -17.3869    8.1498 C   0  0  0  0  0  0  0  0  0  0  0  0
   55.5566  -17.2713    7.7751 N   0  0  0  0  0  0  0  0  0  0  0  0
   57.4845  -16.1938    8.6910 C   0  0  0  0  0  0  0  0  0  0  0  0
   58.8030  -16.1845    9.3287 C   0  0  0  0  0  0  0  0  0  0  0  0
   59.5863  -17.2659    9.5295 N   0  0  0  0  0  0  0  0  0  0  0  0
   57.0842  -14.9131    8.7353 N   0  0  0  0  0  0  0  0  0  0  0  0
   58.0681  -14.1732    9.3177 C   0  0  0  0  0  0  0  0  0  0  0  0
   59.1231  -14.9433    9.6769 N   0  0  0  0  0  0  0  0  0  0  0  0
   60.3676  -14.4629   10.3371 C   0  0  1  0  0  0  0  0  0  0  0  0
   61.3210  -13.9374    9.2859 C   0  0  1  0  0  0  0  0  0  0  0  0
   61.9432  -12.7291    9.9364 C   0  0  2  0  0  0  0  0  0  0  0  0
   63.1360  -13.1123   10.6325 O   0  0  0  0  0  0  0  0  0  0  0  0
   62.2971  -14.9295    8.9314 O   0  0  0  0  0  0  0  0  0  0  0  0
   60.0788  -13.3600   11.1927 O   0  0  0  0  0  0  0  0  0  0  0  0
   60.9263  -12.2638   10.9461 C   0  0  2  0  0  0  0  0  0  0  0  0
   60.0242  -11.1286   10.5077 C   0  0  0  0  0  0  0  0  0  0  0  0
   59.1720  -10.7054   11.5521 O   0  0  0  0  0  0  0  0  0  0  0  0
   58.2730   -9.4045   11.3243 P   0  0  0  0  0  0  0  0  0  0  0  0
   57.4391   -9.7135   10.0971 O   0  0  0  0  0  0  0  0  0  0  0  0
   59.3121   -8.3298   11.1342 O   0  0  0  0  0  0  0  0  0  0  0  0
   57.5329   -9.2615   12.6252 O   0  0  0  0  0  0  0  0  0  0  0  0
  2  1  2  0  0  0  0
  2  4  1  0  0  0  0
  3  2  1  0  0  0  0
  4  7  1  0  0  0  0
  4  5  2  0  0  0  0
  5  6  1  0  0  0  0
  5  9  1  0  0  0  0
  7  8  2  0  0  0  0
  8  9  1  0  0  0  0
 10  9  1  6  0  0  0
 10 15  1  0  0  0  0
 11 14  1  1  0  0  0
 11 12  1  0  0  0  0
 11 10  1  0  0  0  0
 12 13  1  1  0  0  0
 12 16  1  0  0  0  0
 16 17  1  6  0  0  0
 16 15  1  0  0  0  0
 18 19  1  0  0  0  0
 18 17  1  0  0  0  0
 19 21  1  0  0  0  0
 20 19  1  0  0  0  0
 22 19  2  0  0  0  0
M  END
>  <CHROM.1>
-11.25020350,96.92663288,-175.93635249,57.84665313,172.88470053,59.15033864
-13.30291595,10.02087854,1.70142772,0.10389137,-2.78966814

>  <Name>
lig.pdb

>  <RI>
0

>  <Rbt.Current_Directory>
/home/itssahil/PROJECTS/Mol_Feturizer/New_Systems/rnas/4znp

>  <Rbt.Executable>
rbdock ($Id: //depot/dev/client3/rdock/2013.1/src/exe/rbdock.cxx#4 $)

>  <Rbt.Library>
libRbt.so (2013.1, Build901 2013/11/27)

>  <Rbt.Parameter_File>
/export/apps/rDock/src/rDock_2013.1_src/data/scripts/dock_solv.prm

>  <Rbt.Receptor>
prm/pocket_docking_3.prm

>  <SCORE>
-26.074

>  <SCORE.INTER>
-20.0615

>  <SCORE.INTER.CONST>
1

>  <SCORE.INTER.POLAR>
0

>  <SCORE.INTER.ROT>
5

>  <SCORE.INTER.SOLV>
21.1935

>  <SCORE.INTER.VDW>
-27.3722

>  <SCORE.INTER.norm>
-0.911886

>  <SCORE.INTRA>
-6.0125

>  <SCORE.INTRA.DIHEDRAL>
-8.8759

>  <SCORE.INTRA.DIHEDRAL.0>
11.9251

>  <SCORE.INTRA.POLAR>
0

>  <SCORE.INTRA.POLAR.0>
0

>  <SCORE.INTRA.REPUL>
0

>  <SCORE.INTRA.REPUL.0>
0

>  <SCORE.INTRA.SOLV>
-0.223485

>  <SCORE.INTRA.SOLV.lig_0>
-40.9823

>  <SCORE.INTRA.VDW>
-1.46281

>  <SCORE.INTRA.VDW.0>
-0.53506

>  <SCORE.INTRA.norm>
-0.273296

>  <SCORE.RESTR>
0

>  <SCORE.RESTR.CAVITY>
0

>  <SCORE.RESTR.norm>
0

>  <SCORE.SYSTEM>
0

>  <SCORE.SYSTEM.CONST>
0

>  <SCORE.SYSTEM.DIHEDRAL>
0

>  <SCORE.SYSTEM.SOLV>
0

>  <SCORE.SYSTEM.norm>
0

>  <SCORE.heavy>
22

>  <SCORE.norm>
-1.18518

>  <RMSD>
1.181

$$$$
lig.pdb
 OpenBabel11021811523D
libRbt.so/2013.1/901 2013/11/27
 22 23  0  0  0  0  0  0  0  0999 V2000
   55.7021  -17.5075    7.8571 O   0  0  0  0  0  0  0  0  0  0  0  0
   56.8819  -17.4609    8.1146 C   0  0  0  0  0  0  0  0  0  0  0  0
   57.6739  -18.5081    7.9671 N   0  0  0  0  0  0  0  0  0  0  0  0
   57.4713  -16.2260    8.6513 C   0  0  0  0  0  0  0  0  0  0  0  0
   58.7838  -16.1322    9.2946 C   0  0  0  0  0  0  0  0  0  0  0  0
   59.6308  -17.1625    9.5056 N   0  0  0  0  0  0  0  0  0  0  0  0
   56.9932  -14.9719    8.6858 N   0  0  0  0  0  0  0  0  0  0  0  0
   57.9273  -14.1698    9.2679 C   0  0  0  0  0  0  0  0  0  0  0  0
   59.0257  -14.8717    9.6364 N   0  0  0  0  0  0  0  0  0  0  0  0
   60.2353  -14.3121   10.2990 C   0  0  1  0  0  0  0  0  0  0  0  0
   61.3169  -14.0929    9.2635 C   0  0  1  0  0  0  0  0  0  0  0  0
   61.9618  -12.7982    9.6857 C   0  0  2  0  0  0  0  0  0  0  0  0
   63.0547  -13.0665   10.5731 O   0  0  0  0  0  0  0  0  0  0  0  0
   62.2476  -15.1866    9.2489 O   0  0  0  0  0  0  0  0  0  0  0  0
   59.9490  -13.0277   10.8468 O   0  0  0  0  0  0  0  0  0  0  0  0
   60.8923  -12.0616   10.4496 C   0  0  2  0  0  0  0  0  0  0  0  0
   60.1185  -11.0171    9.6721 C   0  0  0  0  0  0  0  0  0  0  0  0
   59.0342  -10.5060   10.4199 O   0  0  0  0  0  0  0  0  0  0  0  0
   59.3478   -9.6326   11.7205 P   0  0  0  0  0  0  0  0  0  0  0  0
   60.3464   -8.5893   11.2612 O   0  0  0  0  0  0  0  0  0  0  0  0
   59.8967  -10.6648   12.6713 O   0  0  0  0  0  0  0  0  0  0  0  0
   57.9927   -9.1327   12.1383 O   0  0  0  0  0  0  0  0  0  0  0  0
  2  1  2  0  0  0  0
  2  4  1  0  0  0  0
  3  2  1  0  0  0  0
  4  7  1  0  0  0  0
  4  5  2  0  0  0  0
  5  6  1  0  0  0  0
  5  9  1  0  0  0  0
  7  8  2  0  0  0  0
  8  9  1  0  0  0  0
 10  9  1  6  0  0  0
 10 15  1  0  0  0  0
 11 14  1  1  0  0  0
 11 12  1  0  0  0  0
 11 10  1  0  0  0  0
 12 13  1  1  0  0  0
 12 16  1  0  0  0  0
 16 17  1  6  0  0  0
 16 15  1  0  0  0  0
 18 19  1  0  0  0  0
 18 17  1  0  0  0  0
 19 21  1  0  0  0  0
 20 19  1  0  0  0  0
 22 19  2  0  0  0  0
M  END
>  <CHROM.1>
164.58833112,81.20905353,172.52734955,50.39045147,67.07793500,59.41684162
-13.35655590,10.02808612,1.84273954,0.05966480,-2.76053659

>  <Name>
lig.pdb

>  <RI>
0

>  <Rbt.Current_Directory>
/home/itssahil/PROJECTS/Mol_Feturizer/New_Systems/rnas/4znp

>  <Rbt.Executable>
rbdock ($Id: //depot/dev/client3/rdock/2013.1/src/exe/rbdock.cxx#4 $)

>  <Rbt.Library>
libRbt.so (2013.1, Build901 2013/11/27)

>  <Rbt.Parameter_File>
/export/apps/rDock/src/rDock_2013.1_src/data/scripts/dock_solv.prm

>  <Rbt.Receptor>
prm/pocket_docking_8.prm

>  <SCORE>
-24.4204

>  <SCORE.INTER>
-19.484

>  <SCORE.INTER.CONST>
1

>  <SCORE.INTER.POLAR>
0

>  <SCORE.INTER.ROT>
5

>  <SCORE.INTER.SOLV>
19.8679

>  <SCORE.INTER.VDW>
-26.5453

>  <SCORE.INTER.norm>
-0.885638

>  <SCORE.INTRA>
-4.9364

>  <SCORE.INTRA.DIHEDRAL>
-8.26309

>  <SCORE.INTRA.DIHEDRAL.0>
11.9251

>  <SCORE.INTRA.POLAR>
0

>  <SCORE.INTRA.POLAR.0>
0

>  <SCORE.INTRA.REPUL>
0

>  <SCORE.INTRA.REPUL.0>
0

>  <SCORE.INTRA.SOLV>
1.12149

>  <SCORE.INTRA.SOLV.lig_0>
-40.9823

>  <SCORE.INTRA.VDW>
-1.3656

>  <SCORE.INTRA.VDW.0>
-0.53506

>  <SCORE.INTRA.norm>
-0.224382

>  <SCORE.RESTR>
0

>  <SCORE.RESTR.CAVITY>
0

>  <SCORE.RESTR.norm>
0

>  <SCORE.SYSTEM>
0

>  <SCORE.SYSTEM.CONST>
0

>  <SCORE.SYSTEM.DIHEDRAL>
0

>  <SCORE.SYSTEM.SOLV>
0

>  <SCORE.SYSTEM.norm>
0

>  <SCORE.heavy>
22

>  <SCORE.norm>
-1.11002

>  <RMSD>
1.189

$$$$
lig.pdb
 OpenBabel11021811523D
libRbt.so/2013.1/901 2013/11/27
 22 23  0  0  0  0  0  0  0  0999 V2000
   57.4306  -17.9660    8.3623 O   0  0  0  0  0  0  0  0  0  0  0  0
   56.8917  -16.8950    8.5145 C   0  0  0  0  0  0  0  0  0  0  0  0
   55.6030  -16.7190    8.2824 N   0  0  0  0  0  0  0  0  0  0  0  0
   57.6796  -15.7252    8.9280 C   0  0  0  0  0  0  0  0  0  0  0  0
   59.1031  -15.7501    9.2720 C   0  0  0  0  0  0  0  0  0  0  0  0
   59.8906  -16.8470    9.2789 N   0  0  0  0  0  0  0  0  0  0  0  0
   57.3219  -14.4406    9.0838 N   0  0  0  0  0  0  0  0  0  0  0  0
   58.4205  -13.7292    9.4605 C   0  0  0  0  0  0  0  0  0  0  0  0
   59.5128  -14.5226    9.5713 N   0  0  0  0  0  0  0  0  0  0  0  0
   60.8776  -14.0762    9.9632 C   0  0  1  0  0  0  0  0  0  0  0  0
   61.2996  -12.9222    9.0798 C   0  0  1  0  0  0  0  0  0  0  0  0
   62.0365  -12.0019   10.0181 C   0  0  2  0  0  0  0  0  0  0  0  0
   63.4316  -12.3301   10.0245 O   0  0  0  0  0  0  0  0  0  0  0  0
   62.1280  -13.3757    7.9979 O   0  0  0  0  0  0  0  0  0  0  0  0
   60.8680  -13.5689   11.2952 O   0  0  0  0  0  0  0  0  0  0  0  0
   61.4670  -12.2983   11.3811 C   0  0  2  0  0  0  0  0  0  0  0  0
   60.3843  -11.3580   11.8691 C   0  0  0  0  0  0  0  0  0  0  0  0
   59.5539  -10.9239   10.8117 O   0  0  0  0  0  0  0  0  0  0  0  0
   58.5885   -9.6758   11.0620 P   0  0  0  0  0  0  0  0  0  0  0  0
   57.7018   -9.6129    9.8345 O   0  0  0  0  0  0  0  0  0  0  0  0
   59.5682   -8.5391   11.1992 O   0  0  0  0  0  0  0  0  0  0  0  0
   57.9162  -10.0123   12.3642 O   0  0  0  0  0  0  0  0  0  0  0  0
  2  1  2  0  0  0  0
  2  4  1  0  0  0  0
  3  2  1  0  0  0  0
  4  7  1  0  0  0  0
  4  5  2  0  0  0  0
  5  6  1  0  0  0  0
  5  9  1  0  0  0  0
  7  8  2  0  0  0  0
  8  9  1  0  0  0  0
 10  9  1  6  0  0  0
 10 15  1  0  0  0  0
 11 14  1  6  0  0  0
 11 12  1  0  0  0  0
 11 10  1  0  0  0  0
 12 13  1  1  0  0  0
 12 16  1  0  0  0  0
 16 17  1  6  0  0  0
 16 15  1  0  0  0  0
 18 19  1  0  0  0  0
 18 17  1  0  0  0  0
 19 21  1  0  0  0  0
 20 19  1  0  0  0  0
 22 19  2  0  0  0  0
M  END
>  <CHROM.1>
-4.31353631,127.82878350,35.68622976,-171.45002571,-165.63395068,59.42209348
-13.03530018,9.98673744,1.83651236,0.00409478,-2.78904142

>  <Name>
lig.pdb

>  <RI>
0

>  <Rbt.Current_Directory>
/home/itssahil/PROJECTS/Mol_Feturizer/New_Systems/rnas/4znp

>  <Rbt.Executable>
rbdock ($Id: //depot/dev/client3/rdock/2013.1/src/exe/rbdock.cxx#4 $)

>  <Rbt.Library>
libRbt.so (2013.1, Build901 2013/11/27)

>  <Rbt.Parameter_File>
/export/apps/rDock/src/rDock_2013.1_src/data/scripts/dock_solv.prm

>  <Rbt.Receptor>
prm/pocket_docking_2.prm

>  <SCORE>
-21.5492

>  <SCORE.INTER>
-16.9665

>  <SCORE.INTER.CONST>
1

>  <SCORE.INTER.POLAR>
0

>  <SCORE.INTER.ROT>
5

>  <SCORE.INTER.SOLV>
20.3965

>  <SCORE.INTER.VDW>
-25.0432

>  <SCORE.INTER.norm>
-0.771204

>  <SCORE.INTRA>
-4.62172

>  <SCORE.INTRA.DIHEDRAL>
-6.47341

>  <SCORE.INTRA.DIHEDRAL.0>
11.9251

>  <SCORE.INTRA.POLAR>
0

>  <SCORE.INTRA.POLAR.0>
0

>  <SCORE.INTRA.REPUL>
0

>  <SCORE.INTRA.REPUL.0>
0

>  <SCORE.INTRA.SOLV>
0.260558

>  <SCORE.INTRA.SOLV.lig_0>
-40.9823

>  <SCORE.INTRA.VDW>
-1.51529

>  <SCORE.INTRA.VDW.0>
-0.53506

>  <SCORE.INTRA.norm>
-0.210078

>  <SCORE.RESTR>
0.038999

>  <SCORE.RESTR.CAVITY>
0.038999

>  <SCORE.RESTR.norm>
0.00177268

>  <SCORE.SYSTEM>
0

>  <SCORE.SYSTEM.CONST>
0

>  <SCORE.SYSTEM.DIHEDRAL>
0

>  <SCORE.SYSTEM.SOLV>
0

>  <SCORE.SYSTEM.norm>
0

>  <SCORE.heavy>
22

>  <SCORE.norm>
-0.979509

>  <RMSD>
1.230

$$$$
lig.pdb
 OpenBabel11021811523D
libRbt.so/2013.1/901 2013/11/27
 22 23  0  0  0  0  0  0  0  0999 V2000
   55.8163  -17.1234    7.7980 O   0  0  0  0  0  0  0  0  0  0  0  0
   56.9683  -17.1670    8.1607 C   0  0  0  0  0  0  0  0  0  0  0  0
   57.6816  -18.2774    8.0986 N   0  0  0  0  0  0  0  0  0  0  0  0
   57.6069  -15.9733    8.7330 C   0  0  0  0  0  0  0  0  0  0  0  0
   58.9350  -15.9454    9.3502 C   0  0  0  0  0  0  0  0  0  0  0  0
   59.7538  -17.0085    9.5008 N   0  0  0  0  0  0  0  0  0  0  0  0
   57.1689  -14.7078    8.8284 N   0  0  0  0  0  0  0  0  0  0  0  0
   58.1395  -13.9586    9.4210 C   0  0  0  0  0  0  0  0  0  0  0  0
   59.2230  -14.7077    9.7366 N   0  0  0  0  0  0  0  0  0  0  0  0
   60.4632  -14.2124   10.3939 C   0  0  1  0  0  0  0  0  0  0  0  0
   61.4527  -13.7793    9.3340 C   0  0  1  0  0  0  0  0  0  0  0  0
   62.0883  -12.5445    9.9185 C   0  0  2  0  0  0  0  0  0  0  0  0
   63.2554  -12.9070   10.6671 O   0  0  0  0  0  0  0  0  0  0  0  0
   62.4127  -14.8141    9.0696 O   0  0  0  0  0  0  0  0  0  0  0  0
   60.1813  -13.0489   11.1677 O   0  0  0  0  0  0  0  0  0  0  0  0
   61.0600  -11.9906   10.8701 C   0  0  2  0  0  0  0  0  0  0  0  0
   60.1954  -10.8673   10.3361 C   0  0  0  0  0  0  0  0  0  0  0  0
   59.4717  -10.2291   11.3680 O   0  0  0  0  0  0  0  0  0  0  0  0
   58.5274   -8.9973   10.9894 P   0  0  0  0  0  0  0  0  0  0  0  0
   57.5028   -9.5686   10.0298 O   0  0  0  0  0  0  0  0  0  0  0  0
   59.5029   -8.0263   10.3759 O   0  0  0  0  0  0  0  0  0  0  0  0
   58.0157   -8.5289   12.3234 O   0  0  0  0  0  0  0  0  0  0  0  0
  2  1  2  0  0  0  0
  2  4  1  0  0  0  0
  3  2  1  0  0  0  0
  4  7  1  0  0  0  0
  4  5  2  0  0  0  0
  5  6  1  0  0  0  0
  5  9  1  0  0  0  0
  7  8  2  0  0  0  0
  8  9  1  0  0  0  0
 10  9  1  6  0  0  0
 10 15  1  0  0  0  0
 11 14  1  1  0  0  0
 11 12  1  0  0  0  0
 11 10  1  0  0  0  0
 12 13  1  1  0  0  0
 12 16  1  0  0  0  0
 16 17  1  6  0  0  0
 16 15  1  0  0  0  0
 18 19  1  0  0  0  0
 18 17  1  0  0  0  0
 19 21  1  0  0  0  0
 20 19  1  0  0  0  0
 22 19  2  0  0  0  0
M  END
>  <CHROM.1>
172.33730432,89.99121304,-167.42668254,61.08013401,178.77570446,59.31234785
-13.02554598,9.94092799,1.71331756,0.14533989,-2.84629401

>  <Name>
lig.pdb

>  <RI>
0

>  <Rbt.Current_Directory>
/home/itssahil/PROJECTS/Mol_Feturizer/New_Systems/rnas/4znp

>  <Rbt.Executable>
rbdock ($Id: //depot/dev/client3/rdock/2013.1/src/exe/rbdock.cxx#4 $)

>  <Rbt.Library>
libRbt.so (2013.1, Build901 2013/11/27)

>  <Rbt.Parameter_File>
/export/apps/rDock/src/rDock_2013.1_src/data/scripts/dock_solv.prm

>  <Rbt.Receptor>
prm/pocket_docking_2.prm

>  <SCORE>
-25.2349

>  <SCORE.INTER>
-19.434

>  <SCORE.INTER.CONST>
1

>  <SCORE.INTER.POLAR>
0

>  <SCORE.INTER.ROT>
5

>  <SCORE.INTER.SOLV>
20.0654

>  <SCORE.INTER.VDW>
-26.5778

>  <SCORE.INTER.norm>
-0.883365

>  <SCORE.INTRA>
-5.80091

>  <SCORE.INTRA.DIHEDRAL>
-8.83676

>  <SCORE.INTRA.DIHEDRAL.0>
11.9251

>  <SCORE.INTRA.POLAR>
0

>  <SCORE.INTRA.POLAR.0>
0

>  <SCORE.INTRA.REPUL>
0

>  <SCORE.INTRA.REPUL.0>
0

>  <SCORE.INTRA.SOLV>
0.0891082

>  <SCORE.INTRA.SOLV.lig_0>
-40.9823

>  <SCORE.INTRA.VDW>
-1.42709

>  <SCORE.INTRA.VDW.0>
-0.53506

>  <SCORE.INTRA.norm>
-0.263678

>  <SCORE.RESTR>
0

>  <SCORE.RESTR.CAVITY>
0

>  <SCORE.RESTR.norm>
0

>  <SCORE.SYSTEM>
0

>  <SCORE.SYSTEM.CONST>
0

>  <SCORE.SYSTEM.DIHEDRAL>
0

>  <SCORE.SYSTEM.SOLV>
0

>  <SCORE.SYSTEM.norm>
0

>  <SCORE.heavy>
22

>  <SCORE.norm>
-1.14704

>  <RMSD>
1.236

$$$$
lig.pdb
 OpenBabel11021811523D
libRbt.so/2013.1/901 2013/11/27
 22 23  0  0  0  0  0  0  0  0999 V2000
   55.8516  -17.2600    7.7683 O   0  0  0  0  0  0  0  0  0  0  0  0
   56.9993  -17.2429    8.1462 C   0  0  0  0  0  0  0  0  0  0  0  0
   57.7613  -18.3222    8.1237 N   0  0  0  0  0  0  0  0  0  0  0  0
   57.5774  -16.0072    8.6929 C   0  0  0  0  0  0  0  0  0  0  0  0
   58.8983  -15.9021    9.3171 C   0  0  0  0  0  0  0  0  0  0  0  0
   59.7648  -16.9217    9.4987 N   0  0  0  0  0  0  0  0  0  0  0  0
   57.0801  -14.7617    8.7546 N   0  0  0  0  0  0  0  0  0  0  0  0
   58.0103  -13.9536    9.3345 C   0  0  0  0  0  0  0  0  0  0  0  0
   59.1254  -14.6433    9.6749 N   0  0  0  0  0  0  0  0  0  0  0  0
   60.3364  -14.0746   10.3273 C   0  0  1  0  0  0  0  0  0  0  0  0
   61.4679  -14.0227    9.3237 C   0  0  1  0  0  0  0  0  0  0  0  0
   62.1639  -12.7226    9.6334 C   0  0  2  0  0  0  0  0  0  0  0  0
   63.2053  -12.9457   10.5924 O   0  0  0  0  0  0  0  0  0  0  0  0
   62.3387  -15.1556    9.4677 O   0  0  0  0  0  0  0  0  0  0  0  0
   60.0978  -12.7256   10.7212 O   0  0  0  0  0  0  0  0  0  0  0  0
   61.1061  -11.8558   10.2657 C   0  0  2  0  0  0  0  0  0  0  0  0
   60.4202  -10.8658    9.3471 C   0  0  0  0  0  0  0  0  0  0  0  0
   59.3421  -10.2171    9.9897 O   0  0  0  0  0  0  0  0  0  0  0  0
   59.6630   -9.1943   11.1744 P   0  0  0  0  0  0  0  0  0  0  0  0
   60.2491  -10.0472   12.2815 O   0  0  0  0  0  0  0  0  0  0  0  0
   58.3041   -8.6135   11.4691 O   0  0  0  0  0  0  0  0  0  0  0  0
   60.5849   -8.1958   10.5311 O   0  0  0  0  0  0  0  0  0  0  0  0
  2  1  2  0  0  0  0
  2  4  1  0  0  0  0
  3  2  1  0  0  0  0
  4  7  1  0  0  0  0
  4  5  2  0  0  0  0
  5  6  1  0  0  0  0
  5  9  1  0  0  0  0
  7  8  2  0  0  0  0
  8  9  1  0  0  0  0
 10  9  1  6  0  0  0
 10 15  1  0  0  0  0
 11 14  1  1  0  0  0
 11 12  1  0  0  0  0
 11 10  1  0  0  0  0
 12 13  1  1  0  0  0
 12 16  1  0  0  0  0
 16 17  1  6  0  0  0
 16 15  1  0  0  0  0
 18 19  1  0  0  0  0
 18 17  1  0  0  0  0
 19 21  1  0  0  0  0
 20 19  1  0  0  0  0
 22 19  2  0  0  0  0
M  END
>  <CHROM.1>
172.77663619,72.48147230,172.93710790,-66.00436771,68.51923099,59.60326544
-13.09412373,9.86782510,1.86362009,0.13714456,-2.86052800

>  <Name>
lig.pdb

>  <RI>
0

>  <Rbt.Current_Directory>
/home/itssahil/PROJECTS/Mol_Feturizer/New_Systems/rnas/4znp

>  <Rbt.Executable>
rbdock ($Id: //depot/dev/client3/rdock/2013.1/src/exe/rbdock.cxx#4 $)

>  <Rbt.Library>
libRbt.so (2013.1, Build901 2013/11/27)

>  <Rbt.Parameter_File>
/export/apps/rDock/src/rDock_2013.1_src/data/scripts/dock_solv.prm

>  <Rbt.Receptor>
prm/pocket_docking_2.prm

>  <SCORE>
-24.3727

>  <SCORE.INTER>
-19.3419

>  <SCORE.INTER.CONST>
1

>  <SCORE.INTER.POLAR>
0

>  <SCORE.INTER.ROT>
5

>  <SCORE.INTER.SOLV>
19.43

>  <SCORE.INTER.VDW>
-26.3046

>  <SCORE.INTER.norm>
-0.879175

>  <SCORE.INTRA>
-5.03087

>  <SCORE.INTRA.DIHEDRAL>
-8.81758

>  <SCORE.INTRA.DIHEDRAL.0>
11.9251

>  <SCORE.INTRA.POLAR>
0

>  <SCORE.INTRA.POLAR.0>
0

>  <SCORE.INTRA.REPUL>
0

>  <SCORE.INTRA.REPUL.0>
0

>  <SCORE.INTRA.SOLV>
1.59751

>  <SCORE.INTRA.SOLV.lig_0>
-40.9823

>  <SCORE.INTRA.VDW>
-1.42084

>  <SCORE.INTRA.VDW.0>
-0.53506

>  <SCORE.INTRA.norm>
-0.228676

>  <SCORE.RESTR>
0

>  <SCORE.RESTR.CAVITY>
0

>  <SCORE.RESTR.norm>
0

>  <SCORE.SYSTEM>
0

>  <SCORE.SYSTEM.CONST>
0

>  <SCORE.SYSTEM.DIHEDRAL>
0

>  <SCORE.SYSTEM.SOLV>
0

>  <SCORE.SYSTEM.norm>
0

>  <SCORE.heavy>
22

>  <SCORE.norm>
-1.10785

>  <RMSD>
1.242

$$$$
lig.pdb
 OpenBabel11021811523D
libRbt.so/2013.1/901 2013/11/27
 22 23  0  0  0  0  0  0  0  0999 V2000
   55.7992  -17.1286    7.8228 O   0  0  0  0  0  0  0  0  0  0  0  0
   56.9560  -17.1754    8.1696 C   0  0  0  0  0  0  0  0  0  0  0  0
   57.6655  -18.2876    8.0967 N   0  0  0  0  0  0  0  0  0  0  0  0
   57.6054  -15.9839    8.7341 C   0  0  0  0  0  0  0  0  0  0  0  0
   58.9334  -15.9642    9.3517 C   0  0  0  0  0  0  0  0  0  0  0  0
   59.7423  -17.0338    9.5100 N   0  0  0  0  0  0  0  0  0  0  0  0
   57.1791  -14.7138    8.8206 N   0  0  0  0  0  0  0  0  0  0  0  0
   58.1564  -13.9696    9.4087 C   0  0  0  0  0  0  0  0  0  0  0  0
   59.2328  -14.7266    9.7299 N   0  0  0  0  0  0  0  0  0  0  0  0
   60.4772  -14.2384   10.3844 C   0  0  1  0  0  0  0  0  0  0  0  0
   61.4505  -13.7715    9.3238 C   0  0  1  0  0  0  0  0  0  0  0  0
   62.0843  -12.5469    9.9313 C   0  0  2  0  0  0  0  0  0  0  0  0
   63.2630  -12.9190   10.6567 O   0  0  0  0  0  0  0  0  0  0  0  0
   62.4148  -14.7922    9.0222 O   0  0  0  0  0  0  0  0  0  0  0  0
   60.1963  -13.0967   11.1904 O   0  0  0  0  0  0  0  0  0  0  0  0
   61.0636  -12.0247   10.9088 C   0  0  2  0  0  0  0  0  0  0  0  0
   60.1844  -10.8951   10.4133 C   0  0  0  0  0  0  0  0  0  0  0  0
   59.4203  -10.3306   11.4590 O   0  0  0  0  0  0  0  0  0  0  0  0
   58.4828   -9.0793   11.1302 P   0  0  0  0  0  0  0  0  0  0  0  0
   57.4987   -9.5873   10.0957 O   0  0  0  0  0  0  0  0  0  0  0  0
   59.4743   -8.0647   10.6220 O   0  0  0  0  0  0  0  0  0  0  0  0
   57.9186   -8.7056   12.4728 O   0  0  0  0  0  0  0  0  0  0  0  0
  2  1  2  0  0  0  0
  2  4  1  0  0  0  0
  3  2  1  0  0  0  0
  4  7  1  0  0  0  0
  4  5  2  0  0  0  0
  5  6  1  0  0  0  0
  5  9  1  0  0  0  0
  7  8  2  0  0  0  0
  8  9  1  0  0  0  0
 10  9  1  6  0  0  0
 10 15  1  0  0  0  0
 11 14  1  1  0  0  0
 11 12  1  0  0  0  0
 11 10  1  0  0  0  0
 12 13  1  1  0  0  0
 12 16  1  0  0  0  0
 16 17  1  6  0  0  0
 16 15  1  0  0  0  0
 18 19  1  0  0  0  0
 18 17  1  0  0  0  0
 19 21  1  0  0  0  0
 20 19  1  0  0  0  0
 22 19  2  0  0  0  0
M  END
>  <CHROM.1>
171.33643425,92.16766136,-170.27354484,60.97262805,177.24980924,59.29952306
-13.05927960,9.98457290,1.71022525,0.12754875,-2.82502671

>  <Name>
lig.pdb

>  <RI>
0

>  <Rbt.Current_Directory>
/home/itssahil/PROJECTS/Mol_Feturizer/New_Systems/rnas/4znp

>  <Rbt.Executable>
rbdock ($Id: //depot/dev/client3/rdock/2013.1/src/exe/rbdock.cxx#4 $)

>  <Rbt.Library>
libRbt.so (2013.1, Build901 2013/11/27)

>  <Rbt.Parameter_File>
/export/apps/rDock/src/rDock_2013.1_src/data/scripts/dock_solv.prm

>  <Rbt.Receptor>
prm/pocket_docking_2.prm

>  <SCORE>
-25.4223

>  <SCORE.INTER>
-19.5352

>  <SCORE.INTER.CONST>
1

>  <SCORE.INTER.POLAR>
0

>  <SCORE.INTER.ROT>
5

>  <SCORE.INTER.SOLV>
20.0375

>  <SCORE.INTER.VDW>
-26.6359

>  <SCORE.INTER.norm>
-0.887963

>  <SCORE.INTRA>
-5.8871

>  <SCORE.INTRA.DIHEDRAL>
-8.97245

>  <SCORE.INTRA.DIHEDRAL.0>
11.9251

>  <SCORE.INTRA.POLAR>
0

>  <SCORE.INTRA.POLAR.0>
0

>  <SCORE.INTRA.REPUL>
0

>  <SCORE.INTRA.REPUL.0>
0

>  <SCORE.INTRA.SOLV>
0.0682997

>  <SCORE.INTRA.SOLV.lig_0>
-40.9823

>  <SCORE.INTRA.VDW>
-1.43502

>  <SCORE.INTRA.VDW.0>
-0.53506

>  <SCORE.INTRA.norm>
-0.267595

>  <SCORE.RESTR>
0

>  <SCORE.RESTR.CAVITY>
0

>  <SCORE.RESTR.norm>
0

>  <SCORE.SYSTEM>
0

>  <SCORE.SYSTEM.CONST>
0

>  <SCORE.SYSTEM.DIHEDRAL>
0

>  <SCORE.SYSTEM.SOLV>
0

>  <SCORE.SYSTEM.norm>
0

>  <SCORE.heavy>
22

>  <SCORE.norm>
-1.15556

>  <RMSD>
1.255

$$$$
lig.pdb
 OpenBabel11021811523D
libRbt.so/2013.1/901 2013/11/27
 22 23  0  0  0  0  0  0  0  0999 V2000
   55.7464  -17.0623    7.8239 O   0  0  0  0  0  0  0  0  0  0  0  0
   56.8914  -17.1337    8.2037 C   0  0  0  0  0  0  0  0  0  0  0  0
   57.5677  -18.2686    8.1831 N   0  0  0  0  0  0  0  0  0  0  0  0
   57.5624  -15.9460    8.7509 C   0  0  0  0  0  0  0  0  0  0  0  0
   58.8891  -15.9418    9.3715 C   0  0  0  0  0  0  0  0  0  0  0  0
   59.6769  -17.0241    9.5488 N   0  0  0  0  0  0  0  0  0  0  0  0
   57.1603  -14.6667    8.8161 N   0  0  0  0  0  0  0  0  0  0  0  0
   58.1504  -13.9321    9.3947 C   0  0  0  0  0  0  0  0  0  0  0  0
   59.2113  -14.7044    9.7307 N   0  0  0  0  0  0  0  0  0  0  0  0
   60.4634  -14.2296   10.3805 C   0  0  1  0  0  0  0  0  0  0  0  0
   61.4317  -13.7587    9.3171 C   0  0  1  0  0  0  0  0  0  0  0  0
   62.0773  -12.5436    9.9313 C   0  0  2  0  0  0  0  0  0  0  0  0
   63.2590  -12.9295   10.6444 O   0  0  0  0  0  0  0  0  0  0  0  0
   62.3876  -14.7823    8.9989 O   0  0  0  0  0  0  0  0  0  0  0  0
   60.1953  -13.0939   11.1990 O   0  0  0  0  0  0  0  0  0  0  0  0
   61.0669  -12.0245   10.9210 C   0  0  2  0  0  0  0  0  0  0  0  0
   60.1910  -10.8851   10.4426 C   0  0  0  0  0  0  0  0  0  0  0  0
   59.4154  -10.3456   11.4930 O   0  0  0  0  0  0  0  0  0  0  0  0
   58.4884   -9.0811   11.1862 P   0  0  0  0  0  0  0  0  0  0  0  0
   57.5007   -9.5625   10.1423 O   0  0  0  0  0  0  0  0  0  0  0  0
   59.4884   -8.0656   10.6967 O   0  0  0  0  0  0  0  0  0  0  0  0
   57.9263   -8.7269   12.5350 O   0  0  0  0  0  0  0  0  0  0  0  0
  2  1  2  0  0  0  0
  2  4  1  0  0  0  0
  3  2  1  0  0  0  0
  4  7  1  0  0  0  0
  4  5  2  0  0  0  0
  5  6  1  0  0  0  0
  5  9  1  0  0  0  0
  7  8  2  0  0  0  0
  8  9  1  0  0  0  0
 10  9  1  6  0  0  0
 10 15  1  0  0  0  0
 11 14  1  1  0  0  0
 11 12  1  0  0  0  0
 11 10  1  0  0  0  0
 12 13  1  1  0  0  0
 12 16  1  0  0  0  0
 16 17  1  6  0  0  0
 16 15  1  0  0  0  0
 18 19  1  0  0  0  0
 18 17  1  0  0  0  0
 19 21  1  0  0  0  0
 20 19  1  0  0  0  0
 22 19  2  0  0  0  0
M  END
>  <CHROM.1>
173.08863495,93.89217781,-171.60818697,61.91068880,176.75955977,59.28129219
-13.04597035,10.00759815,1.71939695,0.12076379,-2.82069131

>  <Name>
lig.pdb

>  <RI>
0

>  <Rbt.Current_Directory>
/home/itssahil/PROJECTS/Mol_Feturizer/New_Systems/rnas/4znp

>  <Rbt.Executable>
rbdock ($Id: //depot/dev/client3/rdock/2013.1/src/exe/rbdock.cxx#4 $)

>  <Rbt.Library>
libRbt.so (2013.1, Build901 2013/11/27)

>  <Rbt.Parameter_File>
/export/apps/rDock/src/rDock_2013.1_src/data/scripts/dock_solv.prm

>  <Rbt.Receptor>
prm/pocket_docking_2.prm

>  <SCORE>
-25.3556

>  <SCORE.INTER>
-19.4154

>  <SCORE.INTER.CONST>
1

>  <SCORE.INTER.POLAR>
0

>  <SCORE.INTER.ROT>
5

>  <SCORE.INTER.SOLV>
19.9831

>  <SCORE.INTER.VDW>
-26.538

>  <SCORE.INTER.norm>
-0.882518

>  <SCORE.INTRA>
-5.94022

>  <SCORE.INTRA.DIHEDRAL>
-9.11536

>  <SCORE.INTRA.DIHEDRAL.0>
11.9251

>  <SCORE.INTRA.POLAR>
0

>  <SCORE.INTRA.POLAR.0>
0

>  <SCORE.INTRA.REPUL>
0

>  <SCORE.INTRA.REPUL.0>
0

>  <SCORE.INTRA.SOLV>
0.0529024

>  <SCORE.INTRA.SOLV.lig_0>
-40.9823

>  <SCORE.INTRA.VDW>
-1.40899

>  <SCORE.INTRA.VDW.0>
-0.53506

>  <SCORE.INTRA.norm>
-0.27001

>  <SCORE.RESTR>
0

>  <SCORE.RESTR.CAVITY>
0

>  <SCORE.RESTR.norm>
0

>  <SCORE.SYSTEM>
0

>  <SCORE.SYSTEM.CONST>
0

>  <SCORE.SYSTEM.DIHEDRAL>
0

>  <SCORE.SYSTEM.SOLV>
0

>  <SCORE.SYSTEM.norm>
0

>  <SCORE.heavy>
22

>  <SCORE.norm>
-1.15253

>  <RMSD>
1.256

$$$$
lig.pdb
 OpenBabel11021811523D
libRbt.so/2013.1/901 2013/11/27
 22 23  0  0  0  0  0  0  0  0999 V2000
   55.7849  -17.1250    7.8375 O   0  0  0  0  0  0  0  0  0  0  0  0
   56.9446  -17.1768    8.1736 C   0  0  0  0  0  0  0  0  0  0  0  0
   57.6486  -18.2921    8.0945 N   0  0  0  0  0  0  0  0  0  0  0  0
   57.6044  -15.9880    8.7319 C   0  0  0  0  0  0  0  0  0  0  0  0
   58.9307  -15.9774    9.3532 C   0  0  0  0  0  0  0  0  0  0  0  0
   59.7283  -17.0540    9.5213 N   0  0  0  0  0  0  0  0  0  0  0  0
   57.1907  -14.7131    8.8084 N   0  0  0  0  0  0  0  0  0  0  0  0
   58.1737  -13.9747    9.3942 C   0  0  0  0  0  0  0  0  0  0  0  0
   59.2415  -14.7403    9.7238 N   0  0  0  0  0  0  0  0  0  0  0  0
   60.4889  -14.2601   10.3786 C   0  0  1  0  0  0  0  0  0  0  0  0
   61.4540  -13.7722    9.3200 C   0  0  1  0  0  0  0  0  0  0  0  0
   62.0885  -12.5566    9.9446 C   0  0  2  0  0  0  0  0  0  0  0  0
   63.2730  -12.9380   10.6556 O   0  0  0  0  0  0  0  0  0  0  0  0
   62.4190  -14.7848    8.9944 O   0  0  0  0  0  0  0  0  0  0  0  0
   60.2103  -13.1334   11.2061 O   0  0  0  0  0  0  0  0  0  0  0  0
   61.0729  -12.0542   10.9376 C   0  0  2  0  0  0  0  0  0  0  0  0
   60.1875  -10.9186   10.4675 C   0  0  0  0  0  0  0  0  0  0  0  0
   59.4218  -10.3806   11.5260 O   0  0  0  0  0  0  0  0  0  0  0  0
   58.4967   -9.1118   11.2311 P   0  0  0  0  0  0  0  0  0  0  0  0
   57.5029   -9.5843   10.1890 O   0  0  0  0  0  0  0  0  0  0  0  0
   59.4971   -8.0961   10.7429 O   0  0  0  0  0  0  0  0  0  0  0  0
   57.9420   -8.7642   12.5847 O   0  0  0  0  0  0  0  0  0  0  0  0
  2  1  2  0  0  0  0
  2  4  1  0  0  0  0
  3  2  1  0  0  0  0
  4  7  1  0  0  0  0
  4  5  2  0  0  0  0
  5  6  1  0  0  0  0
  5  9  1  0  0  0  0
  7  8  2  0  0  0  0
  8  9  1  0  0  0  0
 10  9  1  6  0  0  0
 10 15  1  0  0  0  0
 11 14  1  1  0  0  0
 11 12  1  0  0  0  0
 11 10  1  0  0  0  0
 12 13  1  1  0  0  0
 12 16  1  0  0  0  0
 16 17  1  6  0  0  0
 16 15  1  0  0  0  0
 18 19  1  0  0  0  0
 18 17  1  0  0  0  0
 19 21  1  0  0  0  0
 20 19  1  0  0  0  0
 22 19  2  0  0  0  0
M  END
>  <CHROM.1>
170.47451227,93.83037791,-170.68652555,61.70299940,176.22489805,59.30497272
-13.07704523,10.01589740,1.71304329,0.11799383,-2.81164552

>  <Name>
lig.pdb

>  <RI>
0

>  <Rbt.Current_Directory>
/home/itssahil/PROJECTS/Mol_Feturizer/New_Systems/rnas/4znp

>  <Rbt.Executable>
rbdock ($Id: //depot/dev/client3/rdock/2013.1/src/exe/rbdock.cxx#4 $)

>  <Rbt.Library>
libRbt.so (2013.1, Build901 2013/11/27)

>  <Rbt.Parameter_File>
/export/apps/rDock/src/rDock_2013.1_src/data/scripts/dock_solv.prm

>  <Rbt.Receptor>
prm/pocket_docking_2.prm

>  <SCORE>
-25.4325

>  <SCORE.INTER>
-19.5854

>  <SCORE.INTER.CONST>
1

>  <SCORE.INTER.POLAR>
0

>  <SCORE.INTER.ROT>
5

>  <SCORE.INTER.SOLV>
20.0142

>  <SCORE.INTER.VDW>
-26.6617

>  <SCORE.INTER.norm>
-0.890246

>  <SCORE.INTRA>
-5.8471

>  <SCORE.INTRA.DIHEDRAL>
-8.91327

>  <SCORE.INTRA.DIHEDRAL.0>
11.9251

>  <SCORE.INTRA.POLAR>
0

>  <SCORE.INTRA.POLAR.0>
0

>  <SCORE.INTRA.REPUL>
0

>  <SCORE.INTRA.REPUL.0>
0

>  <SCORE.INTRA.SOLV>
0.0470063

>  <SCORE.INTRA.SOLV.lig_0>
-40.9823

>  <SCORE.INTRA.VDW>
-1.41397

>  <SCORE.INTRA.VDW.0>
-0.53506

>  <SCORE.INTRA.norm>
-0.265777

>  <SCORE.RESTR>
0

>  <SCORE.RESTR.CAVITY>
0

>  <SCORE.RESTR.norm>
0

>  <SCORE.SYSTEM>
0

>  <SCORE.SYSTEM.CONST>
0

>  <SCORE.SYSTEM.DIHEDRAL>
0

>  <SCORE.SYSTEM.SOLV>
0

>  <SCORE.SYSTEM.norm>
0

>  <SCORE.heavy>
22

>  <SCORE.norm>
-1.15602

>  <RMSD>
1.259

$$$$
lig.pdb
 OpenBabel11021811523D
libRbt.so/2013.1/901 2013/11/27
 22 23  0  0  0  0  0  0  0  0999 V2000
   55.8700  -17.0992    7.8243 O   0  0  0  0  0  0  0  0  0  0  0  0
   57.0200  -17.1549    8.1915 C   0  0  0  0  0  0  0  0  0  0  0  0
   57.7165  -18.2768    8.1485 N   0  0  0  0  0  0  0  0  0  0  0  0
   57.6751  -15.9625    8.7478 C   0  0  0  0  0  0  0  0  0  0  0  0
   58.9977  -15.9472    9.3769 C   0  0  0  0  0  0  0  0  0  0  0  0
   59.7957  -17.0219    9.5547 N   0  0  0  0  0  0  0  0  0  0  0  0
   57.2593  -14.6878    8.8159 N   0  0  0  0  0  0  0  0  0  0  0  0
   58.2379  -13.9453    9.4038 C   0  0  0  0  0  0  0  0  0  0  0  0
   59.3047  -14.7079    9.7433 N   0  0  0  0  0  0  0  0  0  0  0  0
   60.5477  -14.2229   10.4030 C   0  0  1  0  0  0  0  0  0  0  0  0
   61.5166  -13.7349    9.3480 C   0  0  1  0  0  0  0  0  0  0  0  0
   62.1448  -12.5162    9.9729 C   0  0  2  0  0  0  0  0  0  0  0  0
   63.3268  -12.8929   10.6905 O   0  0  0  0  0  0  0  0  0  0  0  0
   62.4858  -14.7456    9.0293 O   0  0  0  0  0  0  0  0  0  0  0  0
   60.2620  -13.0952   11.2266 O   0  0  0  0  0  0  0  0  0  0  0  0
   61.1230  -12.0143   10.9599 C   0  0  2  0  0  0  0  0  0  0  0  0
   60.2370  -10.8821   10.4830 C   0  0  0  0  0  0  0  0  0  0  0  0
   59.4480  -10.3589   11.5318 O   0  0  0  0  0  0  0  0  0  0  0  0
   58.5461   -9.0727   11.2403 P   0  0  0  0  0  0  0  0  0  0  0  0
   57.9068   -8.7318   12.5714 O   0  0  0  0  0  0  0  0  0  0  0  0
   57.5949   -9.5836   10.1891 O   0  0  0  0  0  0  0  0  0  0  0  0
   59.5285   -8.0773   10.6883 O   0  0  0  0  0  0  0  0  0  0  0  0
  2  1  2  0  0  0  0
  2  4  1  0  0  0  0
  3  2  1  0  0  0  0
  4  7  1  0  0  0  0
  4  5  2  0  0  0  0
  5  6  1  0  0  0  0
  5  9  1  0  0  0  0
  7  8  2  0  0  0  0
  8  9  1  0  0  0  0
 10  9  1  6  0  0  0
 10 15  1  0  0  0  0
 11 14  1  1  0  0  0
 11 12  1  0  0  0  0
 11 10  1  0  0  0  0
 12 13  1  1  0  0  0
 12 16  1  0  0  0  0
 16 17  1  6  0  0  0
 16 15  1  0  0  0  0
 18 19  1  0  0  0  0
 18 17  1  0  0  0  0
 19 21  1  0  0  0  0
 20 19  1  0  0  0  0
 22 19  2  0  0  0  0
M  END
>  <CHROM.1>
171.91256670,94.00455793,-171.69331590,-176.76181787,174.69726658,59.36031358
-13.04652588,10.02955184,1.70851667,0.12066196,-2.81476315

>  <Name>
lig.pdb

>  <RI>
0

>  <Rbt.Current_Directory>
/home/itssahil/PROJECTS/Mol_Feturizer/New_Systems/rnas/4znp

>  <Rbt.Executable>
rbdock ($Id: //depot/dev/client3/rdock/2013.1/src/exe/rbdock.cxx#4 $)

>  <Rbt.Library>
libRbt.so (2013.1, Build901 2013/11/27)

>  <Rbt.Parameter_File>
/export/apps/rDock/src/rDock_2013.1_src/data/scripts/dock_solv.prm

>  <Rbt.Receptor>
prm/pocket_docking_2.prm

>  <SCORE>
-25.1195

>  <SCORE.INTER>
-19.4625

>  <SCORE.INTER.CONST>
1

>  <SCORE.INTER.POLAR>
0

>  <SCORE.INTER.ROT>
5

>  <SCORE.INTER.SOLV>
19.8901

>  <SCORE.INTER.VDW>
-26.5384

>  <SCORE.INTER.norm>
-0.88466

>  <SCORE.INTRA>
-5.65697

>  <SCORE.INTRA.DIHEDRAL>
-8.9669

>  <SCORE.INTRA.DIHEDRAL.0>
11.9251

>  <SCORE.INTRA.POLAR>
0

>  <SCORE.INTRA.POLAR.0>
0

>  <SCORE.INTRA.REPUL>
0

>  <SCORE.INTRA.REPUL.0>
0

>  <SCORE.INTRA.SOLV>
0.305031

>  <SCORE.INTRA.SOLV.lig_0>
-40.9823

>  <SCORE.INTRA.VDW>
-1.32604

>  <SCORE.INTRA.VDW.0>
-0.53506

>  <SCORE.INTRA.norm>
-0.257135

>  <SCORE.RESTR>
0

>  <SCORE.RESTR.CAVITY>
0

>  <SCORE.RESTR.norm>
0

>  <SCORE.SYSTEM>
0

>  <SCORE.SYSTEM.CONST>
0

>  <SCORE.SYSTEM.DIHEDRAL>
0

>  <SCORE.SYSTEM.SOLV>
0

>  <SCORE.SYSTEM.norm>
0

>  <SCORE.heavy>
22

>  <SCORE.norm>
-1.14179

>  <RMSD>
1.273

$$$$
lig.pdb
 OpenBabel11021811523D
libRbt.so/2013.1/901 2013/11/27
 22 23  0  0  0  0  0  0  0  0999 V2000
   55.6816  -17.3589    7.5949 O   0  0  0  0  0  0  0  0  0  0  0  0
   56.8216  -17.4054    7.9933 C   0  0  0  0  0  0  0  0  0  0  0  0
   57.5315  -18.5192    7.9595 N   0  0  0  0  0  0  0  0  0  0  0  0
   57.4476  -16.2112    8.5784 C   0  0  0  0  0  0  0  0  0  0  0  0
   58.7445  -16.1906    9.2589 C   0  0  0  0  0  0  0  0  0  0  0  0
   59.5409  -17.2615    9.4647 N   0  0  0  0  0  0  0  0  0  0  0  0
   57.0223  -14.9391    8.6338 N   0  0  0  0  0  0  0  0  0  0  0  0
   57.9730  -14.1930    9.2619 C   0  0  0  0  0  0  0  0  0  0  0  0
   59.0300  -14.9509    9.6407 N   0  0  0  0  0  0  0  0  0  0  0  0
   60.2433  -14.4611   10.3501 C   0  0  1  0  0  0  0  0  0  0  0  0
   61.1554  -13.7677    9.3615 C   0  0  1  0  0  0  0  0  0  0  0  0
   61.7000  -12.5954   10.1357 C   0  0  2  0  0  0  0  0  0  0  0  0
   62.9186  -12.9697   10.7907 O   0  0  0  0  0  0  0  0  0  0  0  0
   62.1928  -14.6513    8.9078 O   0  0  0  0  0  0  0  0  0  0  0  0
   59.8869  -13.4746   11.3152 O   0  0  0  0  0  0  0  0  0  0  0  0
   60.6595  -12.3054   11.1860 C   0  0  2  0  0  0  0  0  0  0  0  0
   59.6830  -11.1925   10.8662 C   0  0  0  0  0  0  0  0  0  0  0  0
   60.3393   -9.9519   10.7046 O   0  0  0  0  0  0  0  0  0  0  0  0
   60.8853   -9.2018   12.0053 P   0  0  0  0  0  0  0  0  0  0  0  0
   59.7003   -9.1373   12.9478 O   0  0  0  0  0  0  0  0  0  0  0  0
   61.3262   -7.8743   11.4446 O   0  0  0  0  0  0  0  0  0  0  0  0
   62.0458  -10.0548   12.4369 O   0  0  0  0  0  0  0  0  0  0  0  0
  2  1  2  0  0  0  0
  2  4  1  0  0  0  0
  3  2  1  0  0  0  0
  4  7  1  0  0  0  0
  4  5  2  0  0  0  0
  5  6  1  0  0  0  0
  5  9  1  0  0  0  0
  7  8  2  0  0  0  0
  8  9  1  0  0  0  0
 10  9  1  6  0  0  0
 10 15  1  0  0  0  0
 11 14  1  1  0  0  0
 11 12  1  0  0  0  0
 11 10  1  0  0  0  0
 12 13  1  1  0  0  0
 12 16  1  0  0  0  0
 16 17  1  6  0  0  0
 16 15  1  0  0  0  0
 18 19  1  0  0  0  0
 18 17  1  0  0  0  0
 19 21  1  0  0  0  0
 20 19  1  0  0  0  0
 22 19  2  0  0  0  0
M  END
>  <CHROM.1>
171.09985782,102.83380960,-61.82431536,-52.12418150,-74.06957833,59.79029569
-13.21835436,10.20009274,1.98130465,0.11593278,-2.75699620

>  <Name>
lig.pdb

>  <RI>
0

>  <Rbt.Current_Directory>
/home/itssahil/PROJECTS/Mol_Feturizer/New_Systems/rnas/4znp

>  <Rbt.Executable>
rbdock ($Id: //depot/dev/client3/rdock/2013.1/src/exe/rbdock.cxx#4 $)

>  <Rbt.Library>
libRbt.so (2013.1, Build901 2013/11/27)

>  <Rbt.Parameter_File>
/export/apps/rDock/src/rDock_2013.1_src/data/scripts/dock_solv.prm

>  <Rbt.Receptor>
prm/pocket_docking_3.prm

>  <SCORE>
-23.8137

>  <SCORE.INTER>
-18.845

>  <SCORE.INTER.CONST>
1

>  <SCORE.INTER.POLAR>
0

>  <SCORE.INTER.ROT>
5

>  <SCORE.INTER.SOLV>
20.4502

>  <SCORE.INTER.VDW>
-26.3134

>  <SCORE.INTER.norm>
-0.856591

>  <SCORE.INTRA>
-4.96868

>  <SCORE.INTRA.DIHEDRAL>
-8.25397

>  <SCORE.INTRA.DIHEDRAL.0>
11.9251

>  <SCORE.INTRA.POLAR>
0

>  <SCORE.INTRA.POLAR.0>
0

>  <SCORE.INTRA.REPUL>
0

>  <SCORE.INTRA.REPUL.0>
0

>  <SCORE.INTRA.SOLV>
1.65832

>  <SCORE.INTRA.SOLV.lig_0>
-40.9823

>  <SCORE.INTRA.VDW>
-1.67086

>  <SCORE.INTRA.VDW.0>
-0.53506

>  <SCORE.INTRA.norm>
-0.225849

>  <SCORE.RESTR>
0

>  <SCORE.RESTR.CAVITY>
0

>  <SCORE.RESTR.norm>
0

>  <SCORE.SYSTEM>
0

>  <SCORE.SYSTEM.CONST>
0

>  <SCORE.SYSTEM.DIHEDRAL>
0

>  <SCORE.SYSTEM.SOLV>
0

>  <SCORE.SYSTEM.norm>
0

>  <SCORE.heavy>
22

>  <SCORE.norm>
-1.08244

>  <RMSD>
1.288

$$$$
lig.pdb
 OpenBabel11021811523D
libRbt.so/2013.1/901 2013/11/27
 22 23  0  0  0  0  0  0  0  0999 V2000
   55.7392  -17.3373    7.6170 O   0  0  0  0  0  0  0  0  0  0  0  0
   56.8862  -17.3647    7.9967 C   0  0  0  0  0  0  0  0  0  0  0  0
   57.6191  -18.4624    7.9359 N   0  0  0  0  0  0  0  0  0  0  0  0
   57.4959  -16.1656    8.5887 C   0  0  0  0  0  0  0  0  0  0  0  0
   58.7892  -16.1326    9.2755 C   0  0  0  0  0  0  0  0  0  0  0  0
   59.5966  -17.1951    9.4817 N   0  0  0  0  0  0  0  0  0  0  0  0
   57.0561  -14.8984    8.6461 N   0  0  0  0  0  0  0  0  0  0  0  0
   57.9952  -14.1438    9.2812 C   0  0  0  0  0  0  0  0  0  0  0  0
   59.0588  -14.8909    9.6627 N   0  0  0  0  0  0  0  0  0  0  0  0
   60.2632  -14.3899   10.3795 C   0  0  1  0  0  0  0  0  0  0  0  0
   61.1531  -13.6485    9.4056 C   0  0  1  0  0  0  0  0  0  0  0  0
   61.6723  -12.4837   10.2079 C   0  0  2  0  0  0  0  0  0  0  0  0
   62.9029  -12.8446   10.8478 O   0  0  0  0  0  0  0  0  0  0  0  0
   62.2097  -14.4939    8.9245 O   0  0  0  0  0  0  0  0  0  0  0  0
   59.8872  -13.4381   11.3717 O   0  0  0  0  0  0  0  0  0  0  0  0
   60.6301  -12.2471   11.2699 C   0  0  2  0  0  0  0  0  0  0  0  0
   59.6248  -11.1508   10.9835 C   0  0  0  0  0  0  0  0  0  0  0  0
   60.2494   -9.8903   10.8528 O   0  0  0  0  0  0  0  0  0  0  0  0
   60.8469   -9.1948   12.1611 P   0  0  0  0  0  0  0  0  0  0  0  0
   59.7027   -9.1792   13.1548 O   0  0  0  0  0  0  0  0  0  0  0  0
   61.2580   -7.8413   11.6416 O   0  0  0  0  0  0  0  0  0  0  0  0
   62.0283  -10.0589   12.5052 O   0  0  0  0  0  0  0  0  0  0  0  0
  2  1  2  0  0  0  0
  2  4  1  0  0  0  0
  3  2  1  0  0  0  0
  4  7  1  0  0  0  0
  4  5  2  0  0  0  0
  5  6  1  0  0  0  0
  5  9  1  0  0  0  0
  7  8  2  0  0  0  0
  8  9  1  0  0  0  0
 10  9  1  6  0  0  0
 10 15  1  0  0  0  0
 11 14  1  1  0  0  0
 11 12  1  0  0  0  0
 11 10  1  0  0  0  0
 12 13  1  1  0  0  0
 12 16  1  0  0  0  0
 16 17  1  6  0  0  0
 16 15  1  0  0  0  0
 18 19  1  0  0  0  0
 18 17  1  0  0  0  0
 19 21  1  0  0  0  0
 20 19  1  0  0  0  0
 22 19  2  0  0  0  0
M  END
>  <CHROM.1>
169.63746309,104.45004961,-61.87019119,-53.12600846,-71.07426722,59.79247459
-13.16618180,10.26922998,1.96975580,0.10031191,-2.73163089

>  <Name>
lig.pdb

>  <RI>
0

>  <Rbt.Current_Directory>
/home/itssahil/PROJECTS/Mol_Feturizer/New_Systems/rnas/4znp

>  <Rbt.Executable>
rbdock ($Id: //depot/dev/client3/rdock/2013.1/src/exe/rbdock.cxx#4 $)

>  <Rbt.Library>
libRbt.so (2013.1, Build901 2013/11/27)

>  <Rbt.Parameter_File>
/export/apps/rDock/src/rDock_2013.1_src/data/scripts/dock_solv.prm

>  <Rbt.Receptor>
prm/pocket_docking_3.prm

>  <SCORE>
-23.8067

>  <SCORE.INTER>
-18.8229

>  <SCORE.INTER.CONST>
1

>  <SCORE.INTER.POLAR>
0

>  <SCORE.INTER.ROT>
5

>  <SCORE.INTER.SOLV>
20.1952

>  <SCORE.INTER.VDW>
-26.2137

>  <SCORE.INTER.norm>
-0.855589

>  <SCORE.INTRA>
-4.98374

>  <SCORE.INTRA.DIHEDRAL>
-8.53631

>  <SCORE.INTRA.DIHEDRAL.0>
11.9251

>  <SCORE.INTRA.POLAR>
0

>  <SCORE.INTRA.POLAR.0>
0

>  <SCORE.INTRA.REPUL>
0

>  <SCORE.INTRA.REPUL.0>
0

>  <SCORE.INTRA.SOLV>
1.78913

>  <SCORE.INTRA.SOLV.lig_0>
-40.9823

>  <SCORE.INTRA.VDW>
-1.61015

>  <SCORE.INTRA.VDW.0>
-0.53506

>  <SCORE.INTRA.norm>
-0.226534

>  <SCORE.RESTR>
0

>  <SCORE.RESTR.CAVITY>
0

>  <SCORE.RESTR.norm>
0

>  <SCORE.SYSTEM>
0

>  <SCORE.SYSTEM.CONST>
0

>  <SCORE.SYSTEM.DIHEDRAL>
0

>  <SCORE.SYSTEM.SOLV>
0

>  <SCORE.SYSTEM.norm>
0

>  <SCORE.heavy>
22

>  <SCORE.norm>
-1.08212

>  <RMSD>
1.304

$$$$
lig.pdb
 OpenBabel11021811523D
libRbt.so/2013.1/901 2013/11/27
 22 23  0  0  0  0  0  0  0  0999 V2000
   55.8636  -17.2501    7.7868 O   0  0  0  0  0  0  0  0  0  0  0  0
   57.0088  -17.2258    8.1720 C   0  0  0  0  0  0  0  0  0  0  0  0
   57.7762  -18.3013    8.1587 N   0  0  0  0  0  0  0  0  0  0  0  0
   57.5771  -15.9851    8.7176 C   0  0  0  0  0  0  0  0  0  0  0  0
   58.8964  -15.8694    9.3433 C   0  0  0  0  0  0  0  0  0  0  0  0
   59.7701  -16.8824    9.5275 N   0  0  0  0  0  0  0  0  0  0  0  0
   57.0706  -14.7431    8.7768 N   0  0  0  0  0  0  0  0  0  0  0  0
   57.9942  -13.9274    9.3567 C   0  0  0  0  0  0  0  0  0  0  0  0
   59.1139  -14.6084    9.6995 N   0  0  0  0  0  0  0  0  0  0  0  0
   60.3198  -14.0299   10.3525 C   0  0  1  0  0  0  0  0  0  0  0  0
   61.4734  -14.0412    9.3731 C   0  0  1  0  0  0  0  0  0  0  0  0
   62.1842  -12.7396    9.6396 C   0  0  2  0  0  0  0  0  0  0  0  0
   63.2008  -12.9354   10.6307 O   0  0  0  0  0  0  0  0  0  0  0  0
   62.3218  -15.1800    9.5871 O   0  0  0  0  0  0  0  0  0  0  0  0
   60.0954  -12.6610   10.6802 O   0  0  0  0  0  0  0  0  0  0  0  0
   61.1276  -11.8286   10.2087 C   0  0  2  0  0  0  0  0  0  0  0  0
   60.4783  -10.8704    9.2316 C   0  0  0  0  0  0  0  0  0  0  0  0
   60.4390   -9.5528    9.7399 O   0  0  0  0  0  0  0  0  0  0  0  0
   59.4737   -9.2388   10.9737 P   0  0  0  0  0  0  0  0  0  0  0  0
   58.0867   -9.6150   10.4926 O   0  0  0  0  0  0  0  0  0  0  0  0
   59.6967   -7.7633   11.1837 O   0  0  0  0  0  0  0  0  0  0  0  0
   60.0509  -10.0691   12.0865 O   0  0  0  0  0  0  0  0  0  0  0  0
  2  1  2  0  0  0  0
  2  4  1  0  0  0  0
  3  2  1  0  0  0  0
  4  7  1  0  0  0  0
  4  5  2  0  0  0  0
  5  6  1  0  0  0  0
  5  9  1  0  0  0  0
  7  8  2  0  0  0  0
  8  9  1  0  0  0  0
 10  9  1  6  0  0  0
 10 15  1  0  0  0  0
 11 14  1  1  0  0  0
 11 12  1  0  0  0  0
 11 10  1  0  0  0  0
 12 13  1  1  0  0  0
 12 16  1  0  0  0  0
 16 17  1  6  0  0  0
 16 15  1  0  0  0  0
 18 19  1  0  0  0  0
 18 17  1  0  0  0  0
 19 21  1  0  0  0  0
 20 19  1  0  0  0  0
 22 19  2  0  0  0  0
M  END
>  <CHROM.1>
173.12903958,69.40864098,-131.84812869,-58.43626844,-69.06993152,59.57820334
-13.08210726,9.82268785,1.85905656,0.15901293,-2.89073201

>  <Name>
lig.pdb

>  <RI>
0

>  <Rbt.Current_Directory>
/home/itssahil/PROJECTS/Mol_Feturizer/New_Systems/rnas/4znp

>  <Rbt.Executable>
rbdock ($Id: //depot/dev/client3/rdock/2013.1/src/exe/rbdock.cxx#4 $)

>  <Rbt.Library>
libRbt.so (2013.1, Build901 2013/11/27)

>  <Rbt.Parameter_File>
/export/apps/rDock/src/rDock_2013.1_src/data/scripts/dock_solv.prm

>  <Rbt.Receptor>
prm/pocket_docking_2.prm

>  <SCORE>
-22.0066

>  <SCORE.INTER>
-19.5726

>  <SCORE.INTER.CONST>
1

>  <SCORE.INTER.POLAR>
0

>  <SCORE.INTER.ROT>
5

>  <SCORE.INTER.SOLV>
19.6123

>  <SCORE.INTER.VDW>
-26.5192

>  <SCORE.INTER.norm>
-0.889663

>  <SCORE.INTRA>
-2.43405

>  <SCORE.INTRA.DIHEDRAL>
-4.23688

>  <SCORE.INTRA.DIHEDRAL.0>
11.9251

>  <SCORE.INTRA.POLAR>
0

>  <SCORE.INTRA.POLAR.0>
0

>  <SCORE.INTRA.REPUL>
0

>  <SCORE.INTRA.REPUL.0>
0

>  <SCORE.INTRA.SOLV>
2.17079

>  <SCORE.INTRA.SOLV.lig_0>
-40.9823

>  <SCORE.INTRA.VDW>
-1.401

>  <SCORE.INTRA.VDW.0>
-0.53506

>  <SCORE.INTRA.norm>
-0.110639

>  <SCORE.RESTR>
0

>  <SCORE.RESTR.CAVITY>
0

>  <SCORE.RESTR.norm>
0

>  <SCORE.SYSTEM>
0

>  <SCORE.SYSTEM.CONST>
0

>  <SCORE.SYSTEM.DIHEDRAL>
0

>  <SCORE.SYSTEM.SOLV>
0

>  <SCORE.SYSTEM.norm>
0

>  <SCORE.heavy>
22

>  <SCORE.norm>
-1.0003

>  <RMSD>
1.321

$$$$
lig.pdb
 OpenBabel11021811523D
libRbt.so/2013.1/901 2013/11/27
 22 23  0  0  0  0  0  0  0  0999 V2000
   57.5562  -18.3597    8.0413 O   0  0  0  0  0  0  0  0  0  0  0  0
   56.9453  -17.3225    8.1477 C   0  0  0  0  0  0  0  0  0  0  0  0
   55.6914  -17.2030    7.7487 N   0  0  0  0  0  0  0  0  0  0  0  0
   57.6071  -16.1294    8.6943 C   0  0  0  0  0  0  0  0  0  0  0  0
   58.9368  -16.1136    9.3085 C   0  0  0  0  0  0  0  0  0  0  0  0
   59.7361  -17.1884    9.4795 N   0  0  0  0  0  0  0  0  0  0  0  0
   57.1928  -14.8543    8.7644 N   0  0  0  0  0  0  0  0  0  0  0  0
   58.1784  -14.1112    9.3400 C   0  0  0  0  0  0  0  0  0  0  0  0
   59.2485  -14.8738    9.6690 N   0  0  0  0  0  0  0  0  0  0  0  0
   60.4990  -14.3882   10.3139 C   0  0  1  0  0  0  0  0  0  0  0  0
   61.3621  -13.7010    9.2780 C   0  0  1  0  0  0  0  0  0  0  0  0
   61.9511  -12.5297   10.0205 C   0  0  2  0  0  0  0  0  0  0  0  0
   63.2001  -12.9083   10.6127 O   0  0  0  0  0  0  0  0  0  0  0  0
   62.3707  -14.5903    8.7736 O   0  0  0  0  0  0  0  0  0  0  0  0
   60.1972  -13.3981   11.2938 O   0  0  0  0  0  0  0  0  0  0  0  0
   60.9674  -12.2327   11.1223 C   0  0  2  0  0  0  0  0  0  0  0  0
   59.9807  -11.1160   10.8507 C   0  0  0  0  0  0  0  0  0  0  0  0
   59.1128  -10.9078   11.9458 O   0  0  0  0  0  0  0  0  0  0  0  0
   58.0644   -9.7045   11.8713 P   0  0  0  0  0  0  0  0  0  0  0  0
   57.2109   -9.8498   13.1152 O   0  0  0  0  0  0  0  0  0  0  0  0
   57.3516   -9.9843   10.5734 O   0  0  0  0  0  0  0  0  0  0  0  0
   58.9403   -8.4850   11.7919 O   0  0  0  0  0  0  0  0  0  0  0  0
  2  1  2  0  0  0  0
  2  4  1  0  0  0  0
  3  2  1  0  0  0  0
  4  7  1  0  0  0  0
  4  5  2  0  0  0  0
  5  6  1  0  0  0  0
  5  9  1  0  0  0  0
  7  8  2  0  0  0  0
  8  9  1  0  0  0  0
 10  9  1  6  0  0  0
 10 15  1  0  0  0  0
 11 14  1  1  0  0  0
 11 12  1  0  0  0  0
 11 10  1  0  0  0  0
 12 13  1  1  0  0  0
 12 16  1  0  0  0  0
 16 17  1  6  0  0  0
 16 15  1  0  0  0  0
 18 19  1  0  0  0  0
 18 17  1  0  0  0  0
 19 21  1  0  0  0  0
 20 19  1  0  0  0  0
 22 19  2  0  0  0  0
M  END
>  <CHROM.1>
-8.66275997,103.03280602,-179.44259120,174.33618515,176.18507758,59.15564719
-13.31936966,10.18847111,1.66711917,0.02435057,-2.70114438

>  <Name>
lig.pdb

>  <RI>
0

>  <Rbt.Current_Directory>
/home/itssahil/PROJECTS/Mol_Feturizer/New_Systems/rnas/4znp

>  <Rbt.Executable>
rbdock ($Id: //depot/dev/client3/rdock/2013.1/src/exe/rbdock.cxx#4 $)

>  <Rbt.Library>
libRbt.so (2013.1, Build901 2013/11/27)

>  <Rbt.Parameter_File>
/export/apps/rDock/src/rDock_2013.1_src/data/scripts/dock_solv.prm

>  <Rbt.Receptor>
prm/pocket_docking_3.prm

>  <SCORE>
-25.8391

>  <SCORE.INTER>
-19.8533

>  <SCORE.INTER.CONST>
1

>  <SCORE.INTER.POLAR>
0

>  <SCORE.INTER.ROT>
5

>  <SCORE.INTER.SOLV>
20.5198

>  <SCORE.INTER.VDW>
-27.0088

>  <SCORE.INTER.norm>
-0.902422

>  <SCORE.INTRA>
-5.98576

>  <SCORE.INTRA.DIHEDRAL>
-9.22389

>  <SCORE.INTRA.DIHEDRAL.0>
11.9251

>  <SCORE.INTRA.POLAR>
0

>  <SCORE.INTRA.POLAR.0>
0

>  <SCORE.INTRA.REPUL>
0

>  <SCORE.INTRA.REPUL.0>
0

>  <SCORE.INTRA.SOLV>
-0.0384767

>  <SCORE.INTRA.SOLV.lig_0>
-40.9823

>  <SCORE.INTRA.VDW>
-1.35458

>  <SCORE.INTRA.VDW.0>
-0.53506

>  <SCORE.INTRA.norm>
-0.27208

>  <SCORE.RESTR>
0

>  <SCORE.RESTR.CAVITY>
0

>  <SCORE.RESTR.norm>
0

>  <SCORE.SYSTEM>
0

>  <SCORE.SYSTEM.CONST>
0

>  <SCORE.SYSTEM.DIHEDRAL>
0

>  <SCORE.SYSTEM.SOLV>
0

>  <SCORE.SYSTEM.norm>
0

>  <SCORE.heavy>
22

>  <SCORE.norm>
-1.1745

>  <RMSD>
1.339

$$$$
lig.pdb
 OpenBabel11021811523D
libRbt.so/2013.1/901 2013/11/27
 22 23  0  0  0  0  0  0  0  0999 V2000
   55.6911  -16.6529    8.3157 O   0  0  0  0  0  0  0  0  0  0  0  0
   56.8695  -16.7860    8.5484 C   0  0  0  0  0  0  0  0  0  0  0  0
   57.4540  -17.9709    8.5533 N   0  0  0  0  0  0  0  0  0  0  0  0
   57.6922  -15.6147    8.8822 C   0  0  0  0  0  0  0  0  0  0  0  0
   59.1186  -15.6565    9.2121 C   0  0  0  0  0  0  0  0  0  0  0  0
   59.8776  -16.7714    9.2772 N   0  0  0  0  0  0  0  0  0  0  0  0
   57.3697  -14.3140    8.9636 N   0  0  0  0  0  0  0  0  0  0  0  0
   58.4906  -13.6106    9.2851 C   0  0  0  0  0  0  0  0  0  0  0  0
   59.5634  -14.4244    9.4323 N   0  0  0  0  0  0  0  0  0  0  0  0
   60.9439  -13.9915    9.7821 C   0  0  1  0  0  0  0  0  0  0  0  0
   61.3001  -12.7586    8.9802 C   0  0  1  0  0  0  0  0  0  0  0  0
   62.0807  -11.9112    9.9513 C   0  0  2  0  0  0  0  0  0  0  0  0
   63.4774  -12.2160    9.8482 O   0  0  0  0  0  0  0  0  0  0  0  0
   62.0682  -13.1030    7.8167 O   0  0  0  0  0  0  0  0  0  0  0  0
   61.0072  -13.6019   11.1517 O   0  0  0  0  0  0  0  0  0  0  0  0
   61.5960  -12.3339   11.3138 C   0  0  2  0  0  0  0  0  0  0  0  0
   60.5336  -11.4572   11.9439 C   0  0  0  0  0  0  0  0  0  0  0  0
   59.4007  -11.3279   11.1096 O   0  0  0  0  0  0  0  0  0  0  0  0
   59.1854   -9.9547   10.3217 P   0  0  0  0  0  0  0  0  0  0  0  0
   60.0790  -10.0578    9.1020 O   0  0  0  0  0  0  0  0  0  0  0  0
   59.6155   -8.9325   11.3419 O   0  0  0  0  0  0  0  0  0  0  0  0
   57.7030   -9.9260   10.0723 O   0  0  0  0  0  0  0  0  0  0  0  0
  2  1  2  0  0  0  0
  2  4  1  0  0  0  0
  3  2  1  0  0  0  0
  4  7  1  0  0  0  0
  4  5  2  0  0  0  0
  5  6  1  0  0  0  0
  5  9  1  0  0  0  0
  7  8  2  0  0  0  0
  8  9  1  0  0  0  0
 10  9  1  6  0  0  0
 10 15  1  0  0  0  0
 11 14  1  6  0  0  0
 11 12  1  0  0  0  0
 11 10  1  0  0  0  0
 12 13  1  1  0  0  0
 12 16  1  0  0  0  0
 16 17  1  6  0  0  0
 16 15  1  0  0  0  0
 18 19  1  0  0  0  0
 18 17  1  0  0  0  0
 19 21  1  0  0  0  0
 20 19  1  0  0  0  0
 22 19  2  0  0  0  0
M  END
>  <CHROM.1>
178.51107021,137.00296125,56.20320055,81.35276187,-104.91395860,59.60055105
-13.05326911,9.74324504,1.99486482,0.05324421,-2.87705329

>  <Name>
lig.pdb

>  <RI>
0

>  <Rbt.Current_Directory>
/home/itssahil/PROJECTS/Mol_Feturizer/New_Systems/rnas/4znp

>  <Rbt.Executable>
rbdock ($Id: //depot/dev/client3/rdock/2013.1/src/exe/rbdock.cxx#4 $)

>  <Rbt.Library>
libRbt.so (2013.1, Build901 2013/11/27)

>  <Rbt.Parameter_File>
/export/apps/rDock/src/rDock_2013.1_src/data/scripts/dock_solv.prm

>  <Rbt.Receptor>
prm/pocket_docking_3.prm

>  <SCORE>
-20.306

>  <SCORE.INTER>
-18.0119

>  <SCORE.INTER.CONST>
1

>  <SCORE.INTER.POLAR>
0

>  <SCORE.INTER.ROT>
5

>  <SCORE.INTER.SOLV>
21.3555

>  <SCORE.INTER.VDW>
-26.0598

>  <SCORE.INTER.norm>
-0.818723

>  <SCORE.INTRA>
-2.29412

>  <SCORE.INTRA.DIHEDRAL>
-2.57146

>  <SCORE.INTRA.DIHEDRAL.0>
11.9251

>  <SCORE.INTRA.POLAR>
0

>  <SCORE.INTRA.POLAR.0>
0

>  <SCORE.INTRA.REPUL>
0

>  <SCORE.INTRA.REPUL.0>
0

>  <SCORE.INTRA.SOLV>
1.97517

>  <SCORE.INTRA.SOLV.lig_0>
-40.9823

>  <SCORE.INTRA.VDW>
-1.99598

>  <SCORE.INTRA.VDW.0>
-0.53506

>  <SCORE.INTRA.norm>
-0.104278

>  <SCORE.RESTR>
0

>  <SCORE.RESTR.CAVITY>
0

>  <SCORE.RESTR.norm>
0

>  <SCORE.SYSTEM>
0

>  <SCORE.SYSTEM.CONST>
0

>  <SCORE.SYSTEM.DIHEDRAL>
0

>  <SCORE.SYSTEM.SOLV>
0

>  <SCORE.SYSTEM.norm>
0

>  <SCORE.heavy>
22

>  <SCORE.norm>
-0.923002

>  <RMSD>
1.342

$$$$
lig.pdb
 OpenBabel11021811523D
libRbt.so/2013.1/901 2013/11/27
 22 23  0  0  0  0  0  0  0  0999 V2000
   55.9162  -17.1069    7.8969 O   0  0  0  0  0  0  0  0  0  0  0  0
   57.0720  -17.1124    8.2497 C   0  0  0  0  0  0  0  0  0  0  0  0
   57.8122  -18.2062    8.2100 N   0  0  0  0  0  0  0  0  0  0  0  0
   57.6857  -15.8886    8.7845 C   0  0  0  0  0  0  0  0  0  0  0  0
   59.0214  -15.8099    9.3804 C   0  0  0  0  0  0  0  0  0  0  0  0
   59.8715  -16.8464    9.5429 N   0  0  0  0  0  0  0  0  0  0  0  0
   57.2142  -14.6337    8.8574 N   0  0  0  0  0  0  0  0  0  0  0  0
   58.1723  -13.8445    9.4176 C   0  0  0  0  0  0  0  0  0  0  0  0
   59.2807  -14.5561    9.7337 N   0  0  0  0  0  0  0  0  0  0  0  0
   60.5162  -14.0117   10.3602 C   0  0  1  0  0  0  0  0  0  0  0  0
   61.6075  -13.9181    9.3160 C   0  0  1  0  0  0  0  0  0  0  0  0
   62.3150  -12.6302    9.6496 C   0  0  2  0  0  0  0  0  0  0  0  0
   63.3932  -12.8894   10.5575 O   0  0  0  0  0  0  0  0  0  0  0  0
   62.4834  -15.0543    9.3806 O   0  0  0  0  0  0  0  0  0  0  0  0
   60.2932  -12.6799   10.8165 O   0  0  0  0  0  0  0  0  0  0  0  0
   61.2827  -11.7910   10.3567 C   0  0  2  0  0  0  0  0  0  0  0  0
   60.5612  -10.7664    9.5058 C   0  0  0  0  0  0  0  0  0  0  0  0
   60.3142   -9.5736   10.2215 O   0  0  0  0  0  0  0  0  0  0  0  0
   59.4880   -9.6592   11.5863 P   0  0  0  0  0  0  0  0  0  0  0  0
   60.4547  -10.2481   12.5941 O   0  0  0  0  0  0  0  0  0  0  0  0
   58.3389  -10.5567   11.2061 O   0  0  0  0  0  0  0  0  0  0  0  0
   59.0526   -8.2389   11.8185 O   0  0  0  0  0  0  0  0  0  0  0  0
  2  1  2  0  0  0  0
  2  4  1  0  0  0  0
  3  2  1  0  0  0  0
  4  7  1  0  0  0  0
  4  5  2  0  0  0  0
  5  6  1  0  0  0  0
  5  9  1  0  0  0  0
  7  8  2  0  0  0  0
  8  9  1  0  0  0  0
 10  9  1  6  0  0  0
 10 15  1  0  0  0  0
 11 14  1  1  0  0  0
 11 12  1  0  0  0  0
 11 10  1  0  0  0  0
 12 13  1  1  0  0  0
 12 16  1  0  0  0  0
 16 17  1  6  0  0  0
 16 15  1  0  0  0  0
 18 19  1  0  0  0  0
 18 17  1  0  0  0  0
 19 21  1  0  0  0  0
 20 19  1  0  0  0  0
 22 19  2  0  0  0  0
M  END
>  <CHROM.1>
172.75186819,75.20530377,-142.86600169,74.51030694,-56.82580242,59.66800561
-13.14428334,10.02447905,1.86893168,0.06527760,-2.78460751

>  <Name>
lig.pdb

>  <RI>
0

>  <Rbt.Current_Directory>
/home/itssahil/PROJECTS/Mol_Feturizer/New_Systems/rnas/4znp

>  <Rbt.Executable>
rbdock ($Id: //depot/dev/client3/rdock/2013.1/src/exe/rbdock.cxx#4 $)

>  <Rbt.Library>
libRbt.so (2013.1, Build901 2013/11/27)

>  <Rbt.Parameter_File>
/export/apps/rDock/src/rDock_2013.1_src/data/scripts/dock_solv.prm

>  <Rbt.Receptor>
prm/pocket_docking_2.prm

>  <SCORE>
-22.5094

>  <SCORE.INTER>
-19.2612

>  <SCORE.INTER.CONST>
1

>  <SCORE.INTER.POLAR>
0

>  <SCORE.INTER.ROT>
5

>  <SCORE.INTER.SOLV>
18.7768

>  <SCORE.INTER.VDW>
-26.0331

>  <SCORE.INTER.norm>
-0.87551

>  <SCORE.INTRA>
-3.25046

>  <SCORE.INTRA.DIHEDRAL>
-5.40786

>  <SCORE.INTRA.DIHEDRAL.0>
11.9251

>  <SCORE.INTRA.POLAR>
0

>  <SCORE.INTRA.POLAR.0>
0

>  <SCORE.INTRA.REPUL>
0

>  <SCORE.INTRA.REPUL.0>
0

>  <SCORE.INTRA.SOLV>
1.48439

>  <SCORE.INTRA.SOLV.lig_0>
-40.9823

>  <SCORE.INTRA.VDW>
-1.28872

>  <SCORE.INTRA.VDW.0>
-0.53506

>  <SCORE.INTRA.norm>
-0.147748

>  <SCORE.RESTR>
0.00225955

>  <SCORE.RESTR.CAVITY>
0.00225955

>  <SCORE.RESTR.norm>
0.000102707

>  <SCORE.SYSTEM>
0

>  <SCORE.SYSTEM.CONST>
0

>  <SCORE.SYSTEM.DIHEDRAL>
0

>  <SCORE.SYSTEM.SOLV>
0

>  <SCORE.SYSTEM.norm>
0

>  <SCORE.heavy>
22

>  <SCORE.norm>
-1.02316

>  <RMSD>
1.344

$$$$
lig.pdb
 OpenBabel11021811523D
libRbt.so/2013.1/901 2013/11/27
 22 23  0  0  0  0  0  0  0  0999 V2000
   55.8116  -17.2664    7.8655 O   0  0  0  0  0  0  0  0  0  0  0  0
   56.9719  -17.2344    8.2019 C   0  0  0  0  0  0  0  0  0  0  0  0
   57.7488  -18.3015    8.1432 N   0  0  0  0  0  0  0  0  0  0  0  0
   57.5505  -15.9940    8.7375 C   0  0  0  0  0  0  0  0  0  0  0  0
   58.8730  -15.8831    9.3571 C   0  0  0  0  0  0  0  0  0  0  0  0
   59.7409  -16.9006    9.5440 N   0  0  0  0  0  0  0  0  0  0  0  0
   57.0523  -14.7485    8.7910 N   0  0  0  0  0  0  0  0  0  0  0  0
   57.9836  -13.9352    9.3621 C   0  0  0  0  0  0  0  0  0  0  0  0
   59.1002  -14.6214    9.7045 N   0  0  0  0  0  0  0  0  0  0  0  0
   60.3125  -14.0467   10.3491 C   0  0  1  0  0  0  0  0  0  0  0  0
   61.4564  -14.0525    9.3584 C   0  0  1  0  0  0  0  0  0  0  0  0
   62.1700  -12.7525    9.6254 C   0  0  2  0  0  0  0  0  0  0  0  0
   63.1962  -12.9541   10.6054 O   0  0  0  0  0  0  0  0  0  0  0  0
   62.3068  -15.1926    9.5576 O   0  0  0  0  0  0  0  0  0  0  0  0
   60.0915  -12.6797   10.6868 O   0  0  0  0  0  0  0  0  0  0  0  0
   61.1192  -11.8447   10.2100 C   0  0  2  0  0  0  0  0  0  0  0  0
   60.4605  -10.8809    9.2448 C   0  0  0  0  0  0  0  0  0  0  0  0
   60.3334   -9.5888    9.8019 O   0  0  0  0  0  0  0  0  0  0  0  0
   59.2139   -9.3439   10.9152 P   0  0  0  0  0  0  0  0  0  0  0  0
   57.8972   -9.6064   10.2121 O   0  0  0  0  0  0  0  0  0  0  0  0
   59.4561   -7.9068   11.2983 O   0  0  0  0  0  0  0  0  0  0  0  0
   59.5974  -10.3007   12.0098 O   0  0  0  0  0  0  0  0  0  0  0  0
  2  1  2  0  0  0  0
  2  4  1  0  0  0  0
  3  2  1  0  0  0  0
  4  7  1  0  0  0  0
  4  5  2  0  0  0  0
  5  6  1  0  0  0  0
  5  9  1  0  0  0  0
  7  8  2  0  0  0  0
  8  9  1  0  0  0  0
 10  9  1  6  0  0  0
 10 15  1  0  0  0  0
 11 14  1  1  0  0  0
 11 12  1  0  0  0  0
 11 10  1  0  0  0  0
 12 13  1  1  0  0  0
 12 16  1  0  0  0  0
 16 17  1  6  0  0  0
 16 15  1  0  0  0  0
 18 19  1  0  0  0  0
 18 17  1  0  0  0  0
 19 21  1  0  0  0  0
 20 19  1  0  0  0  0
 22 19  2  0  0  0  0
M  END
>  <CHROM.1>
170.51511368,70.24967165,-136.38932786,-62.86538314,-74.46980786,59.49227320
-13.12038553,9.81265152,1.83835395,0.14731692,-2.88977804

>  <Name>
lig.pdb

>  <RI>
0

>  <Rbt.Current_Directory>
/home/itssahil/PROJECTS/Mol_Feturizer/New_Systems/rnas/4znp

>  <Rbt.Executable>
rbdock ($Id: //depot/dev/client3/rdock/2013.1/src/exe/rbdock.cxx#4 $)

>  <Rbt.Library>
libRbt.so (2013.1, Build901 2013/11/27)

>  <Rbt.Parameter_File>
/export/apps/rDock/src/rDock_2013.1_src/data/scripts/dock_solv.prm

>  <Rbt.Receptor>
prm/pocket_docking_2.prm

>  <SCORE>
-22.2797

>  <SCORE.INTER>
-19.8705

>  <SCORE.INTER.CONST>
1

>  <SCORE.INTER.POLAR>
0

>  <SCORE.INTER.ROT>
5

>  <SCORE.INTER.SOLV>
19.763

>  <SCORE.INTER.VDW>
-26.768

>  <SCORE.INTER.norm>
-0.903204

>  <SCORE.INTRA>
-2.41558

>  <SCORE.INTRA.DIHEDRAL>
-3.94816

>  <SCORE.INTRA.DIHEDRAL.0>
11.9251

>  <SCORE.INTRA.POLAR>
0

>  <SCORE.INTRA.POLAR.0>
0

>  <SCORE.INTRA.REPUL>
0

>  <SCORE.INTRA.REPUL.0>
0

>  <SCORE.INTRA.SOLV>
2.15845

>  <SCORE.INTRA.SOLV.lig_0>
-40.9823

>  <SCORE.INTRA.VDW>
-1.52072

>  <SCORE.INTRA.VDW.0>
-0.53506

>  <SCORE.INTRA.norm>
-0.109799

>  <SCORE.RESTR>
0.00638095

>  <SCORE.RESTR.CAVITY>
0.00638095

>  <SCORE.RESTR.norm>
0.000290043

>  <SCORE.SYSTEM>
0

>  <SCORE.SYSTEM.CONST>
0

>  <SCORE.SYSTEM.DIHEDRAL>
0

>  <SCORE.SYSTEM.SOLV>
0

>  <SCORE.SYSTEM.norm>
0

>  <SCORE.heavy>
22

>  <SCORE.norm>
-1.01271

>  <RMSD>
1.354

$$$$
lig.pdb
 OpenBabel11021811523D
libRbt.so/2013.1/901 2013/11/27
 22 23  0  0  0  0  0  0  0  0999 V2000
   57.6304  -18.2599    8.1022 O   0  0  0  0  0  0  0  0  0  0  0  0
   57.0038  -17.2319    8.2077 C   0  0  0  0  0  0  0  0  0  0  0  0
   55.7460  -17.1338    7.8153 N   0  0  0  0  0  0  0  0  0  0  0  0
   57.6499  -16.0263    8.7456 C   0  0  0  0  0  0  0  0  0  0  0  0
   58.9948  -15.9811    9.3241 C   0  0  0  0  0  0  0  0  0  0  0  0
   59.8252  -17.0364    9.4653 N   0  0  0  0  0  0  0  0  0  0  0  0
   57.2056  -14.7627    8.8367 N   0  0  0  0  0  0  0  0  0  0  0  0
   58.1873  -13.9989    9.3913 C   0  0  0  0  0  0  0  0  0  0  0  0
   59.2848  -14.7363    9.6857 N   0  0  0  0  0  0  0  0  0  0  0  0
   60.5396  -14.2237   10.3006 C   0  0  1  0  0  0  0  0  0  0  0  0
   61.2952  -13.3982    9.2819 C   0  0  1  0  0  0  0  0  0  0  0  0
   61.8548  -12.2554   10.0888 C   0  0  2  0  0  0  0  0  0  0  0  0
   63.1579  -12.5979   10.5773 O   0  0  0  0  0  0  0  0  0  0  0  0
   62.3244  -14.1744    8.6487 O   0  0  0  0  0  0  0  0  0  0  0  0
   60.2369  -13.3395   11.3768 O   0  0  0  0  0  0  0  0  0  0  0  0
   60.9226  -12.1156   11.2641 C   0  0  2  0  0  0  0  0  0  0  0  0
   59.8548  -11.0480   11.1435 C   0  0  0  0  0  0  0  0  0  0  0  0
   59.0407  -10.9907   12.2968 O   0  0  0  0  0  0  0  0  0  0  0  0
   57.8598   -9.9158   12.3452 P   0  0  0  0  0  0  0  0  0  0  0  0
   58.5437   -8.5734   12.1803 O   0  0  0  0  0  0  0  0  0  0  0  0
   57.2612  -10.1628   13.7059 O   0  0  0  0  0  0  0  0  0  0  0  0
   56.9483  -10.3506   11.2313 O   0  0  0  0  0  0  0  0  0  0  0  0
  2  1  2  0  0  0  0
  2  4  1  0  0  0  0
  3  2  1  0  0  0  0
  4  7  1  0  0  0  0
  4  5  2  0  0  0  0
  5  6  1  0  0  0  0
  5  9  1  0  0  0  0
  7  8  2  0  0  0  0
  8  9  1  0  0  0  0
 10  9  1  6  0  0  0
 10 15  1  0  0  0  0
 11 14  1  1  0  0  0
 11 12  1  0  0  0  0
 11 10  1  0  0  0  0
 12 13  1  1  0  0  0
 12 16  1  0  0  0  0
 16 17  1  6  0  0  0
 16 15  1  0  0  0  0
 18 19  1  0  0  0  0
 18 17  1  0  0  0  0
 19 21  1  0  0  0  0
 20 19  1  0  0  0  0
 22 19  2  0  0  0  0
M  END
>  <CHROM.1>
-7.17211385,108.25594187,-179.59693295,-59.01855082,179.87232976,59.10022260
-13.26540492,10.36146403,1.64031642,-0.06387883,-2.62889074

>  <Name>
lig.pdb

>  <RI>
0

>  <Rbt.Current_Directory>
/home/itssahil/PROJECTS/Mol_Feturizer/New_Systems/rnas/4znp

>  <Rbt.Executable>
rbdock ($Id: //depot/dev/client3/rdock/2013.1/src/exe/rbdock.cxx#4 $)

>  <Rbt.Library>
libRbt.so (2013.1, Build901 2013/11/27)

>  <Rbt.Parameter_File>
/export/apps/rDock/src/rDock_2013.1_src/data/scripts/dock_solv.prm

>  <Rbt.Receptor>
prm/pocket_docking_4.prm

>  <SCORE>
-25.5885

>  <SCORE.INTER>
-19.3238

>  <SCORE.INTER.CONST>
1

>  <SCORE.INTER.POLAR>
0

>  <SCORE.INTER.ROT>
5

>  <SCORE.INTER.SOLV>
20.3726

>  <SCORE.INTER.VDW>
-26.6067

>  <SCORE.INTER.norm>
-0.878353

>  <SCORE.INTRA>
-6.26472

>  <SCORE.INTRA.DIHEDRAL>
-9.3926

>  <SCORE.INTRA.DIHEDRAL.0>
11.9251

>  <SCORE.INTRA.POLAR>
0

>  <SCORE.INTRA.POLAR.0>
0

>  <SCORE.INTRA.REPUL>
0

>  <SCORE.INTRA.REPUL.0>
0

>  <SCORE.INTRA.SOLV>
-0.0217658

>  <SCORE.INTRA.SOLV.lig_0>
-40.9823

>  <SCORE.INTRA.VDW>
-1.55754

>  <SCORE.INTRA.VDW.0>
-0.53506

>  <SCORE.INTRA.norm>
-0.28476

>  <SCORE.RESTR>
0

>  <SCORE.RESTR.CAVITY>
0

>  <SCORE.RESTR.norm>
0

>  <SCORE.SYSTEM>
0

>  <SCORE.SYSTEM.CONST>
0

>  <SCORE.SYSTEM.DIHEDRAL>
0

>  <SCORE.SYSTEM.SOLV>
0

>  <SCORE.SYSTEM.norm>
0

>  <SCORE.heavy>
22

>  <SCORE.norm>
-1.16311

>  <RMSD>
1.365

$$$$
lig.pdb
 OpenBabel11021811523D
libRbt.so/2013.1/901 2013/11/27
 22 23  0  0  0  0  0  0  0  0999 V2000
   57.4821  -18.2448    8.2185 O   0  0  0  0  0  0  0  0  0  0  0  0
   56.8835  -17.2053    8.3651 C   0  0  0  0  0  0  0  0  0  0  0  0
   55.5863  -17.1045    8.1352 N   0  0  0  0  0  0  0  0  0  0  0  0
   57.6043  -15.9897    8.7689 C   0  0  0  0  0  0  0  0  0  0  0  0
   59.0099  -15.9435    9.1782 C   0  0  0  0  0  0  0  0  0  0  0  0
   59.8388  -17.0060    9.2631 N   0  0  0  0  0  0  0  0  0  0  0  0
   57.1893  -14.7161    8.8588 N   0  0  0  0  0  0  0  0  0  0  0  0
   58.2400  -13.9468    9.2576 C   0  0  0  0  0  0  0  0  0  0  0  0
   59.3563  -14.6900    9.4485 N   0  0  0  0  0  0  0  0  0  0  0  0
   60.6824  -14.1738    9.8848 C   0  0  1  0  0  0  0  0  0  0  0  0
   61.0448  -12.9608    9.0557 C   0  0  1  0  0  0  0  0  0  0  0  0
   61.7044  -12.0339   10.0438 C   0  0  2  0  0  0  0  0  0  0  0  0
   63.1174  -12.2728   10.0654 O   0  0  0  0  0  0  0  0  0  0  0  0
   61.9196  -13.3170    7.9738 O   0  0  0  0  0  0  0  0  0  0  0  0
   60.6168  -13.7220   11.2351 O   0  0  0  0  0  0  0  0  0  0  0  0
   61.1313  -12.4204   11.3825 C   0  0  2  0  0  0  0  0  0  0  0  0
   59.9819  -11.5712   11.8847 C   0  0  0  0  0  0  0  0  0  0  0  0
   60.4085  -10.2719   12.2398 O   0  0  0  0  0  0  0  0  0  0  0  0
   59.3487   -9.2734   12.8974 P   0  0  0  0  0  0  0  0  0  0  0  0
   58.8456   -9.9928   14.1328 O   0  0  0  0  0  0  0  0  0  0  0  0
   58.3341   -9.1158   11.7945 O   0  0  0  0  0  0  0  0  0  0  0  0
   60.1471   -8.0196   13.1242 O   0  0  0  0  0  0  0  0  0  0  0  0
  2  1  2  0  0  0  0
  2  4  1  0  0  0  0
  3  2  1  0  0  0  0
  4  7  1  0  0  0  0
  4  5  2  0  0  0  0
  5  6  1  0  0  0  0
  5  9  1  0  0  0  0
  7  8  2  0  0  0  0
  8  9  1  0  0  0  0
 10  9  1  6  0  0  0
 10 15  1  0  0  0  0
 11 14  1  6  0  0  0
 11 12  1  0  0  0  0
 11 10  1  0  0  0  0
 12 13  1  1  0  0  0
 12 16  1  0  0  0  0
 16 17  1  6  0  0  0
 16 15  1  0  0  0  0
 18 19  1  0  0  0  0
 18 17  1  0  0  0  0
 19 21  1  0  0  0  0
 20 19  1  0  0  0  0
 22 19  2  0  0  0  0
M  END
>  <CHROM.1>
-7.75765774,132.70824672,-69.67492154,57.51440410,-175.33788225,59.51368266
-13.02998762,10.44644031,1.81741419,-0.20759571,-2.56597304

>  <Name>
lig.pdb

>  <RI>
0

>  <Rbt.Current_Directory>
/home/itssahil/PROJECTS/Mol_Feturizer/New_Systems/rnas/4znp

>  <Rbt.Executable>
rbdock ($Id: //depot/dev/client3/rdock/2013.1/src/exe/rbdock.cxx#4 $)

>  <Rbt.Library>
libRbt.so (2013.1, Build901 2013/11/27)

>  <Rbt.Parameter_File>
/export/apps/rDock/src/rDock_2013.1_src/data/scripts/dock_solv.prm

>  <Rbt.Receptor>
prm/pocket_docking_6.prm

>  <SCORE>
-23.1566

>  <SCORE.INTER>
-17.3657

>  <SCORE.INTER.CONST>
1

>  <SCORE.INTER.POLAR>
0

>  <SCORE.INTER.ROT>
5

>  <SCORE.INTER.SOLV>
19.4974

>  <SCORE.INTER.VDW>
-25.0096

>  <SCORE.INTER.norm>
-0.789352

>  <SCORE.INTRA>
-5.79082

>  <SCORE.INTRA.DIHEDRAL>
-8.88074

>  <SCORE.INTRA.DIHEDRAL.0>
11.9251

>  <SCORE.INTRA.POLAR>
0

>  <SCORE.INTRA.POLAR.0>
0

>  <SCORE.INTRA.REPUL>
0

>  <SCORE.INTRA.REPUL.0>
0

>  <SCORE.INTRA.SOLV>
-0.470084

>  <SCORE.INTRA.SOLV.lig_0>
-40.9823

>  <SCORE.INTRA.VDW>
-1.11541

>  <SCORE.INTRA.VDW.0>
-0.53506

>  <SCORE.INTRA.norm>
-0.263219

>  <SCORE.RESTR>
0

>  <SCORE.RESTR.CAVITY>
0

>  <SCORE.RESTR.norm>
0

>  <SCORE.SYSTEM>
0

>  <SCORE.SYSTEM.CONST>
0

>  <SCORE.SYSTEM.DIHEDRAL>
0

>  <SCORE.SYSTEM.SOLV>
0

>  <SCORE.SYSTEM.norm>
0

>  <SCORE.heavy>
22

>  <SCORE.norm>
-1.05257

>  <RMSD>
1.365

$$$$
lig.pdb
 OpenBabel11021811523D
libRbt.so/2013.1/901 2013/11/27
 22 23  0  0  0  0  0  0  0  0999 V2000
   55.6930  -17.5117    7.8396 O   0  0  0  0  0  0  0  0  0  0  0  0
   56.8715  -17.4629    8.1026 C   0  0  0  0  0  0  0  0  0  0  0  0
   57.6714  -18.5009    7.9341 N   0  0  0  0  0  0  0  0  0  0  0  0
   57.4504  -16.2367    8.6698 C   0  0  0  0  0  0  0  0  0  0  0  0
   58.7793  -16.1384    9.2778 C   0  0  0  0  0  0  0  0  0  0  0  0
   59.6539  -17.1567    9.4235 N   0  0  0  0  0  0  0  0  0  0  0  0
   56.9470  -14.9959    8.7674 N   0  0  0  0  0  0  0  0  0  0  0  0
   57.8808  -14.1960    9.3529 C   0  0  0  0  0  0  0  0  0  0  0  0
   59.0044  -14.8868    9.6615 N   0  0  0  0  0  0  0  0  0  0  0  0
   60.2212  -14.3262   10.3100 C   0  0  1  0  0  0  0  0  0  0  0  0
   61.3095  -14.1588    9.2718 C   0  0  1  0  0  0  0  0  0  0  0  0
   61.9746  -12.8619    9.6541 C   0  0  2  0  0  0  0  0  0  0  0  0
   63.0602  -13.1194   10.5537 O   0  0  0  0  0  0  0  0  0  0  0  0
   62.2218  -15.2677    9.2961 O   0  0  0  0  0  0  0  0  0  0  0  0
   59.9548  -13.0201   10.8147 O   0  0  0  0  0  0  0  0  0  0  0  0
   60.9153  -12.0832   10.3899 C   0  0  2  0  0  0  0  0  0  0  0  0
   60.1614  -11.0518    9.5761 C   0  0  0  0  0  0  0  0  0  0  0  0
   59.0607  -10.5264   10.2891 O   0  0  0  0  0  0  0  0  0  0  0  0
   59.3397   -9.7285   11.6448 P   0  0  0  0  0  0  0  0  0  0  0  0
   59.8560  -10.7718   12.6153 O   0  0  0  0  0  0  0  0  0  0  0  0
   57.9778   -9.1727   11.9721 O   0  0  0  0  0  0  0  0  0  0  0  0
   60.3089   -8.6584   11.2250 O   0  0  0  0  0  0  0  0  0  0  0  0
  2  1  2  0  0  0  0
  2  4  1  0  0  0  0
  3  2  1  0  0  0  0
  4  7  1  0  0  0  0
  4  5  2  0  0  0  0
  5  6  1  0  0  0  0
  5  9  1  0  0  0  0
  7  8  2  0  0  0  0
  8  9  1  0  0  0  0
 10  9  1  6  0  0  0
 10 15  1  0  0  0  0
 11 14  1  1  0  0  0
 11 12  1  0  0  0  0
 11 10  1  0  0  0  0
 12 13  1  1  0  0  0
 12 16  1  0  0  0  0
 16 17  1  6  0  0  0
 16 15  1  0  0  0  0
 18 19  1  0  0  0  0
 18 17  1  0  0  0  0
 19 21  1  0  0  0  0
 20 19  1  0  0  0  0
 22 19  2  0  0  0  0
M  END
>  <CHROM.1>
166.86686702,76.19537114,170.84855469,-67.69090483,62.29382088,59.40897695
-13.39416349,9.99676389,1.84760402,0.06706157,-2.76990109

>  <Name>
lig.pdb

>  <RI>
0

>  <Rbt.Current_Directory>
/home/itssahil/PROJECTS/Mol_Feturizer/New_Systems/rnas/4znp

>  <Rbt.Executable>
rbdock ($Id: //depot/dev/client3/rdock/2013.1/src/exe/rbdock.cxx#4 $)

>  <Rbt.Library>
libRbt.so (2013.1, Build901 2013/11/27)

>  <Rbt.Parameter_File>
/export/apps/rDock/src/rDock_2013.1_src/data/scripts/dock_solv.prm

>  <Rbt.Receptor>
prm/pocket_docking_2.prm

>  <SCORE>
-24.1682

>  <SCORE.INTER>
-19.4042

>  <SCORE.INTER.CONST>
1

>  <SCORE.INTER.POLAR>
0

>  <SCORE.INTER.ROT>
5

>  <SCORE.INTER.SOLV>
19.9307

>  <SCORE.INTER.VDW>
-26.5131

>  <SCORE.INTER.norm>
-0.882011

>  <SCORE.INTRA>
-4.76408

>  <SCORE.INTRA.DIHEDRAL>
-8.6278

>  <SCORE.INTRA.DIHEDRAL.0>
11.9251

>  <SCORE.INTRA.POLAR>
0

>  <SCORE.INTRA.POLAR.0>
0

>  <SCORE.INTRA.REPUL>
0

>  <SCORE.INTRA.REPUL.0>
0

>  <SCORE.INTRA.SOLV>
1.68527

>  <SCORE.INTRA.SOLV.lig_0>
-40.9823

>  <SCORE.INTRA.VDW>
-1.29282

>  <SCORE.INTRA.VDW.0>
-0.53506

>  <SCORE.INTRA.norm>
-0.216549

>  <SCORE.RESTR>
0.000117497

>  <SCORE.RESTR.CAVITY>
0.000117497

>  <SCORE.RESTR.norm>
5.34078e-06

>  <SCORE.SYSTEM>
0

>  <SCORE.SYSTEM.CONST>
0

>  <SCORE.SYSTEM.DIHEDRAL>
0

>  <SCORE.SYSTEM.SOLV>
0

>  <SCORE.SYSTEM.norm>
0

>  <SCORE.heavy>
22

>  <SCORE.norm>
-1.09855

>  <RMSD>
1.366

$$$$
lig.pdb
 OpenBabel11021811523D
libRbt.so/2013.1/901 2013/11/27
 22 23  0  0  0  0  0  0  0  0999 V2000
   55.8067  -17.1329    7.7669 O   0  0  0  0  0  0  0  0  0  0  0  0
   56.9539  -17.1925    8.1424 C   0  0  0  0  0  0  0  0  0  0  0  0
   57.6485  -18.3156    8.0993 N   0  0  0  0  0  0  0  0  0  0  0  0
   57.6070  -16.0041    8.7092 C   0  0  0  0  0  0  0  0  0  0  0  0
   58.9264  -15.9936    9.3452 C   0  0  0  0  0  0  0  0  0  0  0  0
   59.7225  -17.0701    9.5209 N   0  0  0  0  0  0  0  0  0  0  0  0
   57.1920  -14.7294    8.7826 N   0  0  0  0  0  0  0  0  0  0  0  0
   58.1682  -13.9913    9.3801 C   0  0  0  0  0  0  0  0  0  0  0  0
   59.2326  -14.7569    9.7206 N   0  0  0  0  0  0  0  0  0  0  0  0
   60.4724  -14.2769   10.3897 C   0  0  1  0  0  0  0  0  0  0  0  0
   61.4254  -13.7333    9.3474 C   0  0  1  0  0  0  0  0  0  0  0  0
   62.0386  -12.5291   10.0138 C   0  0  2  0  0  0  0  0  0  0  0  0
   63.2319  -12.9133   10.7084 O   0  0  0  0  0  0  0  0  0  0  0  0
   62.4083  -14.7152    8.9837 O   0  0  0  0  0  0  0  0  0  0  0  0
   60.1749  -13.1860   11.2576 O   0  0  0  0  0  0  0  0  0  0  0  0
   61.0163  -12.0819   11.0262 C   0  0  2  0  0  0  0  0  0  0  0  0
   60.1085  -10.9470   10.5990 C   0  0  0  0  0  0  0  0  0  0  0  0
   59.2135  -10.5782   11.6280 O   0  0  0  0  0  0  0  0  0  0  0  0
   58.2002   -9.3719   11.3626 P   0  0  0  0  0  0  0  0  0  0  0  0
   57.4405   -9.7653   10.1116 O   0  0  0  0  0  0  0  0  0  0  0  0
   59.1355   -8.2018   11.1984 O   0  0  0  0  0  0  0  0  0  0  0  0
   57.4078   -9.2967   12.6382 O   0  0  0  0  0  0  0  0  0  0  0  0
  2  1  2  0  0  0  0
  2  4  1  0  0  0  0
  3  2  1  0  0  0  0
  4  7  1  0  0  0  0
  4  5  2  0  0  0  0
  5  6  1  0  0  0  0
  5  9  1  0  0  0  0
  7  8  2  0  0  0  0
  8  9  1  0  0  0  0
 10  9  1  6  0  0  0
 10 15  1  0  0  0  0
 11 14  1  1  0  0  0
 11 12  1  0  0  0  0
 11 10  1  0  0  0  0
 12 13  1  1  0  0  0
 12 16  1  0  0  0  0
 16 17  1  6  0  0  0
 16 15  1  0  0  0  0
 18 19  1  0  0  0  0
 18 17  1  0  0  0  0
 19 21  1  0  0  0  0
 20 19  1  0  0  0  0
 22 19  2  0  0  0  0
M  END
>  <CHROM.1>
172.06943691,96.20940653,-178.36437762,55.93152794,178.67729703,59.20758991
-13.15489873,10.06469225,1.68399734,0.10498656,-2.77749738

>  <Name>
lig.pdb

>  <RI>
0

>  <Rbt.Current_Directory>
/home/itssahil/PROJECTS/Mol_Feturizer/New_Systems/rnas/4znp

>  <Rbt.Executable>
rbdock ($Id: //depot/dev/client3/rdock/2013.1/src/exe/rbdock.cxx#4 $)

>  <Rbt.Library>
libRbt.so (2013.1, Build901 2013/11/27)

>  <Rbt.Parameter_File>
/export/apps/rDock/src/rDock_2013.1_src/data/scripts/dock_solv.prm

>  <Rbt.Receptor>
prm/pocket_docking_3.prm

>  <SCORE>
-25.7366

>  <SCORE.INTER>
-19.6097

>  <SCORE.INTER.CONST>
1

>  <SCORE.INTER.POLAR>
0

>  <SCORE.INTER.ROT>
5

>  <SCORE.INTER.SOLV>
20.2098

>  <SCORE.INTER.VDW>
-26.7431

>  <SCORE.INTER.norm>
-0.891349

>  <SCORE.INTRA>
-6.12691

>  <SCORE.INTRA.DIHEDRAL>
-9.34284

>  <SCORE.INTRA.DIHEDRAL.0>
11.9251

>  <SCORE.INTRA.POLAR>
0

>  <SCORE.INTRA.POLAR.0>
0

>  <SCORE.INTRA.REPUL>
0

>  <SCORE.INTRA.REPUL.0>
0

>  <SCORE.INTRA.SOLV>
0.0493547

>  <SCORE.INTRA.SOLV.lig_0>
-40.9823

>  <SCORE.INTRA.VDW>
-1.48017

>  <SCORE.INTRA.VDW.0>
-0.53506

>  <SCORE.INTRA.norm>
-0.278496

>  <SCORE.RESTR>
0

>  <SCORE.RESTR.CAVITY>
0

>  <SCORE.RESTR.norm>
0

>  <SCORE.SYSTEM>
0

>  <SCORE.SYSTEM.CONST>
0

>  <SCORE.SYSTEM.DIHEDRAL>
0

>  <SCORE.SYSTEM.SOLV>
0

>  <SCORE.SYSTEM.norm>
0

>  <SCORE.heavy>
22

>  <SCORE.norm>
-1.16984

>  <RMSD>
1.367

$$$$
lig.pdb
 OpenBabel11021811523D
libRbt.so/2013.1/901 2013/11/27
 22 23  0  0  0  0  0  0  0  0999 V2000
   57.4729  -18.4446    7.9976 O   0  0  0  0  0  0  0  0  0  0  0  0
   56.8668  -17.4092    8.1425 C   0  0  0  0  0  0  0  0  0  0  0  0
   55.6006  -17.2821    7.7872 N   0  0  0  0  0  0  0  0  0  0  0  0
   57.5475  -16.2264    8.6882 C   0  0  0  0  0  0  0  0  0  0  0  0
   58.8929  -16.2239    9.2671 C   0  0  0  0  0  0  0  0  0  0  0  0
   59.6923  -17.3038    9.4017 N   0  0  0  0  0  0  0  0  0  0  0  0
   57.1401  -14.9510    8.7873 N   0  0  0  0  0  0  0  0  0  0  0  0
   58.1434  -14.2196    9.3470 C   0  0  0  0  0  0  0  0  0  0  0  0
   59.2189  -14.9905    9.6367 N   0  0  0  0  0  0  0  0  0  0  0  0
   60.4879  -14.5185   10.2551 C   0  0  1  0  0  0  0  0  0  0  0  0
   61.2555  -13.6874    9.2500 C   0  0  1  0  0  0  0  0  0  0  0  0
   61.8441  -12.5747   10.0782 C   0  0  2  0  0  0  0  0  0  0  0  0
   63.1422  -12.9557   10.5513 O   0  0  0  0  0  0  0  0  0  0  0  0
   62.2641  -14.4715    8.5940 O   0  0  0  0  0  0  0  0  0  0  0  0
   60.2104  -13.6517   11.3521 O   0  0  0  0  0  0  0  0  0  0  0  0
   60.9217  -12.4407   11.2619 C   0  0  2  0  0  0  0  0  0  0  0  0
   59.8765  -11.3480   11.1709 C   0  0  0  0  0  0  0  0  0  0  0  0
   59.0857  -11.2828   12.3399 O   0  0  0  0  0  0  0  0  0  0  0  0
   57.9770  -10.1377   12.4489 P   0  0  0  0  0  0  0  0  0  0  0  0
   58.7293   -8.8406   12.2284 O   0  0  0  0  0  0  0  0  0  0  0  0
   57.4495  -10.3385   13.8461 O   0  0  0  0  0  0  0  0  0  0  0  0
   56.9741  -10.5239   11.3973 O   0  0  0  0  0  0  0  0  0  0  0  0
  2  1  2  0  0  0  0
  2  4  1  0  0  0  0
  3  2  1  0  0  0  0
  4  7  1  0  0  0  0
  4  5  2  0  0  0  0
  5  6  1  0  0  0  0
  5  9  1  0  0  0  0
  7  8  2  0  0  0  0
  8  9  1  0  0  0  0
 10  9  1  6  0  0  0
 10 15  1  0  0  0  0
 11 14  1  1  0  0  0
 11 12  1  0  0  0  0
 11 10  1  0  0  0  0
 12 13  1  1  0  0  0
 12 16  1  0  0  0  0
 16 17  1  6  0  0  0
 16 15  1  0  0  0  0
 18 19  1  0  0  0  0
 18 17  1  0  0  0  0
 19 21  1  0  0  0  0
 20 19  1  0  0  0  0
 22 19  2  0  0  0  0
M  END
>  <CHROM.1>
-9.12136906,109.29503099,-178.54728772,-55.33630615,177.01193677,59.08550787
-13.51490614,10.36155023,1.66801410,-0.06101893,-2.60705263

>  <Name>
lig.pdb

>  <RI>
0

>  <Rbt.Current_Directory>
/home/itssahil/PROJECTS/Mol_Feturizer/New_Systems/rnas/4znp

>  <Rbt.Executable>
rbdock ($Id: //depot/dev/client3/rdock/2013.1/src/exe/rbdock.cxx#4 $)

>  <Rbt.Library>
libRbt.so (2013.1, Build901 2013/11/27)

>  <Rbt.Parameter_File>
/export/apps/rDock/src/rDock_2013.1_src/data/scripts/dock_solv.prm

>  <Rbt.Receptor>
prm/pocket_docking_7.prm

>  <SCORE>
-25.8792

>  <SCORE.INTER>
-19.6974

>  <SCORE.INTER.CONST>
1

>  <SCORE.INTER.POLAR>
0

>  <SCORE.INTER.ROT>
5

>  <SCORE.INTER.SOLV>
21.6136

>  <SCORE.INTER.VDW>
-27.2695

>  <SCORE.INTER.norm>
-0.895336

>  <SCORE.INTRA>
-6.18185

>  <SCORE.INTRA.DIHEDRAL>
-9.20173

>  <SCORE.INTRA.DIHEDRAL.0>
11.9251

>  <SCORE.INTRA.POLAR>
0

>  <SCORE.INTRA.POLAR.0>
0

>  <SCORE.INTRA.REPUL>
0

>  <SCORE.INTRA.REPUL.0>
0

>  <SCORE.INTRA.SOLV>
-0.0824792

>  <SCORE.INTRA.SOLV.lig_0>
-40.9823

>  <SCORE.INTRA.VDW>
-1.53975

>  <SCORE.INTRA.VDW.0>
-0.53506

>  <SCORE.INTRA.norm>
-0.280993

>  <SCORE.RESTR>
0

>  <SCORE.RESTR.CAVITY>
0

>  <SCORE.RESTR.norm>
0

>  <SCORE.SYSTEM>
0

>  <SCORE.SYSTEM.CONST>
0

>  <SCORE.SYSTEM.DIHEDRAL>
0

>  <SCORE.SYSTEM.SOLV>
0

>  <SCORE.SYSTEM.norm>
0

>  <SCORE.heavy>
22

>  <SCORE.norm>
-1.17633

>  <RMSD>
1.408

$$$$
lig.pdb
 OpenBabel11021811523D
libRbt.so/2013.1/901 2013/11/27
 22 23  0  0  0  0  0  0  0  0999 V2000
   55.8284  -17.1542    7.8770 O   0  0  0  0  0  0  0  0  0  0  0  0
   56.9920  -17.1910    8.2012 C   0  0  0  0  0  0  0  0  0  0  0  0
   57.7079  -18.2986    8.1205 N   0  0  0  0  0  0  0  0  0  0  0  0
   57.6440  -15.9918    8.7461 C   0  0  0  0  0  0  0  0  0  0  0  0
   58.9907  -15.9556    9.3210 C   0  0  0  0  0  0  0  0  0  0  0  0
   59.8177  -17.0150    9.4521 N   0  0  0  0  0  0  0  0  0  0  0  0
   57.2047  -14.7272    8.8477 N   0  0  0  0  0  0  0  0  0  0  0  0
   58.1907  -13.9711    9.4052 C   0  0  0  0  0  0  0  0  0  0  0  0
   59.2863  -14.7147    9.6909 N   0  0  0  0  0  0  0  0  0  0  0  0
   60.5447  -14.2111   10.3060 C   0  0  1  0  0  0  0  0  0  0  0  0
   61.3018  -13.3832    9.2904 C   0  0  1  0  0  0  0  0  0  0  0  0
   61.8682  -12.2475   10.1026 C   0  0  2  0  0  0  0  0  0  0  0  0
   63.1708  -12.5986   10.5863 O   0  0  0  0  0  0  0  0  0  0  0  0
   62.3261  -14.1603    8.6505 O   0  0  0  0  0  0  0  0  0  0  0  0
   60.2484  -13.3318   11.3880 O   0  0  0  0  0  0  0  0  0  0  0  0
   60.9392  -12.1103   11.2807 C   0  0  2  0  0  0  0  0  0  0  0  0
   59.8759  -11.0374   11.1686 C   0  0  0  0  0  0  0  0  0  0  0  0
   60.4440   -9.7514   11.0291 O   0  0  0  0  0  0  0  0  0  0  0  0
   61.2064   -9.1136   12.2798 P   0  0  0  0  0  0  0  0  0  0  0  0
   61.4890   -7.6799   11.8780 O   0  0  0  0  0  0  0  0  0  0  0  0
   62.4234   -9.9950   12.3930 O   0  0  0  0  0  0  0  0  0  0  0  0
   60.2430   -9.3192   13.4157 O   0  0  0  0  0  0  0  0  0  0  0  0
  2  1  2  0  0  0  0
  2  4  1  0  0  0  0
  3  2  1  0  0  0  0
  4  7  1  0  0  0  0
  4  5  2  0  0  0  0
  5  6  1  0  0  0  0
  5  9  1  0  0  0  0
  7  8  2  0  0  0  0
  8  9  1  0  0  0  0
 10  9  1  6  0  0  0
 10 15  1  0  0  0  0
 11 14  1  1  0  0  0
 11 12  1  0  0  0  0
 11 10  1  0  0  0  0
 12 13  1  1  0  0  0
 12 16  1  0  0  0  0
 16 17  1  6  0  0  0
 16 15  1  0  0  0  0
 18 19  1  0  0  0  0
 18 17  1  0  0  0  0
 19 21  1  0  0  0  0
 20 19  1  0  0  0  0
 22 19  2  0  0  0  0
M  END
>  <CHROM.1>
172.19472356,108.14537010,-60.98100647,-171.21267927,-69.41891417,60.03353028
-13.01331955,10.32774599,1.99487135,-0.00410878,-2.68733732

>  <Name>
lig.pdb

>  <RI>
0

>  <Rbt.Current_Directory>
/home/itssahil/PROJECTS/Mol_Feturizer/New_Systems/rnas/4znp

>  <Rbt.Executable>
rbdock ($Id: //depot/dev/client3/rdock/2013.1/src/exe/rbdock.cxx#4 $)

>  <Rbt.Library>
libRbt.so (2013.1, Build901 2013/11/27)

>  <Rbt.Parameter_File>
/export/apps/rDock/src/rDock_2013.1_src/data/scripts/dock_solv.prm

>  <Rbt.Receptor>
prm/pocket_docking_4.prm

>  <SCORE>
-23.9211

>  <SCORE.INTER>
-18.8785

>  <SCORE.INTER.CONST>
1

>  <SCORE.INTER.POLAR>
0

>  <SCORE.INTER.ROT>
5

>  <SCORE.INTER.SOLV>
18.9167

>  <SCORE.INTER.VDW>
-25.8246

>  <SCORE.INTER.norm>
-0.858113

>  <SCORE.INTRA>
-5.04262

>  <SCORE.INTRA.DIHEDRAL>
-8.78917

>  <SCORE.INTRA.DIHEDRAL.0>
11.9251

>  <SCORE.INTRA.POLAR>
0

>  <SCORE.INTRA.POLAR.0>
0

>  <SCORE.INTRA.REPUL>
0

>  <SCORE.INTRA.REPUL.0>
0

>  <SCORE.INTRA.SOLV>
1.29061

>  <SCORE.INTRA.SOLV.lig_0>
-40.9823

>  <SCORE.INTRA.VDW>
-1.29334

>  <SCORE.INTRA.VDW.0>
-0.53506

>  <SCORE.INTRA.norm>
-0.22921

>  <SCORE.RESTR>
0

>  <SCORE.RESTR.CAVITY>
0

>  <SCORE.RESTR.norm>
0

>  <SCORE.SYSTEM>
0

>  <SCORE.SYSTEM.CONST>
0

>  <SCORE.SYSTEM.DIHEDRAL>
0

>  <SCORE.SYSTEM.SOLV>
0

>  <SCORE.SYSTEM.norm>
0

>  <SCORE.heavy>
22

>  <SCORE.norm>
-1.08732

>  <RMSD>
1.410

$$$$
lig.pdb
 OpenBabel11021811523D
libRbt.so/2013.1/901 2013/11/27
 22 23  0  0  0  0  0  0  0  0999 V2000
   57.5370  -17.9226    8.4948 O   0  0  0  0  0  0  0  0  0  0  0  0
   57.0015  -16.8410    8.5566 C   0  0  0  0  0  0  0  0  0  0  0  0
   55.7270  -16.6709    8.2522 N   0  0  0  0  0  0  0  0  0  0  0  0
   57.7795  -15.6535    8.9373 C   0  0  0  0  0  0  0  0  0  0  0  0
   59.2074  -15.6539    9.2632 C   0  0  0  0  0  0  0  0  0  0  0  0
   60.0090  -16.7404    9.2810 N   0  0  0  0  0  0  0  0  0  0  0  0
   57.4073  -14.3708    9.0730 N   0  0  0  0  0  0  0  0  0  0  0  0
   58.5013  -13.6385    9.4216 C   0  0  0  0  0  0  0  0  0  0  0  0
   59.6051  -14.4157    9.5334 N   0  0  0  0  0  0  0  0  0  0  0  0
   60.9689  -13.9447    9.8989 C   0  0  1  0  0  0  0  0  0  0  0  0
   61.3364  -12.7573    9.0356 C   0  0  1  0  0  0  0  0  0  0  0  0
   62.0766  -11.8433    9.9774 C   0  0  2  0  0  0  0  0  0  0  0  0
   63.4791  -12.1354    9.9359 O   0  0  0  0  0  0  0  0  0  0  0  0
   62.1446  -13.1607    7.9191 O   0  0  0  0  0  0  0  0  0  0  0  0
   60.9847  -13.4729   11.2439 O   0  0  0  0  0  0  0  0  0  0  0  0
   61.5540  -12.1900   11.3473 C   0  0  2  0  0  0  0  0  0  0  0  0
   60.4624  -11.2911   11.8905 C   0  0  0  0  0  0  0  0  0  0  0  0
   59.4546  -11.0537   10.9293 O   0  0  0  0  0  0  0  0  0  0  0  0
   58.2548  -10.0690   11.3081 P   0  0  0  0  0  0  0  0  0  0  0  0
   57.4575  -10.8094   12.3631 O   0  0  0  0  0  0  0  0  0  0  0  0
   57.5551   -9.8974    9.9846 O   0  0  0  0  0  0  0  0  0  0  0  0
   58.9596   -8.8164   11.7497 O   0  0  0  0  0  0  0  0  0  0  0  0
  2  1  2  0  0  0  0
  2  4  1  0  0  0  0
  3  2  1  0  0  0  0
  4  7  1  0  0  0  0
  4  5  2  0  0  0  0
  5  6  1  0  0  0  0
  5  9  1  0  0  0  0
  7  8  2  0  0  0  0
  8  9  1  0  0  0  0
 10  9  1  6  0  0  0
 10 15  1  0  0  0  0
 11 14  1  6  0  0  0
 11 12  1  0  0  0  0
 11 10  1  0  0  0  0
 12 13  1  1  0  0  0
 12 16  1  0  0  0  0
 16 17  1  6  0  0  0
 16 15  1  0  0  0  0
 18 19  1  0  0  0  0
 18 17  1  0  0  0  0
 19 21  1  0  0  0  0
 20 19  1  0  0  0  0
 22 19  2  0  0  0  0
M  END
>  <CHROM.1>
0.05388038,130.70076073,46.70263449,-68.98859712,-177.20761082,59.38687854
-13.06696537,10.03567381,1.82754018,-0.06622582,-2.73433336

>  <Name>
lig.pdb

>  <RI>
0

>  <Rbt.Current_Directory>
/home/itssahil/PROJECTS/Mol_Feturizer/New_Systems/rnas/4znp

>  <Rbt.Executable>
rbdock ($Id: //depot/dev/client3/rdock/2013.1/src/exe/rbdock.cxx#4 $)

>  <Rbt.Library>
libRbt.so (2013.1, Build901 2013/11/27)

>  <Rbt.Parameter_File>
/export/apps/rDock/src/rDock_2013.1_src/data/scripts/dock_solv.prm

>  <Rbt.Receptor>
prm/pocket_docking_5.prm

>  <SCORE>
-23.8789

>  <SCORE.INTER>
-17.8083

>  <SCORE.INTER.CONST>
1

>  <SCORE.INTER.POLAR>
0

>  <SCORE.INTER.ROT>
5

>  <SCORE.INTER.SOLV>
20.2245

>  <SCORE.INTER.VDW>
-25.547

>  <SCORE.INTER.norm>
-0.809466

>  <SCORE.INTRA>
-6.07064

>  <SCORE.INTRA.DIHEDRAL>
-8.7183

>  <SCORE.INTRA.DIHEDRAL.0>
11.9251

>  <SCORE.INTRA.POLAR>
0

>  <SCORE.INTRA.POLAR.0>
0

>  <SCORE.INTRA.REPUL>
0

>  <SCORE.INTRA.REPUL.0>
0

>  <SCORE.INTRA.SOLV>
0.448229

>  <SCORE.INTRA.SOLV.lig_0>
-40.9823

>  <SCORE.INTRA.VDW>
-1.9356

>  <SCORE.INTRA.VDW.0>
-0.53506

>  <SCORE.INTRA.norm>
-0.275938

>  <SCORE.RESTR>
0

>  <SCORE.RESTR.CAVITY>
0

>  <SCORE.RESTR.norm>
0

>  <SCORE.SYSTEM>
0

>  <SCORE.SYSTEM.CONST>
0

>  <SCORE.SYSTEM.DIHEDRAL>
0

>  <SCORE.SYSTEM.SOLV>
0

>  <SCORE.SYSTEM.norm>
0

>  <SCORE.heavy>
22

>  <SCORE.norm>
-1.0854

>  <RMSD>
1.438

$$$$
lig.pdb
 OpenBabel11021811523D
libRbt.so/2013.1/901 2013/11/27
 22 23  0  0  0  0  0  0  0  0999 V2000
   55.8661  -17.1276    7.8114 O   0  0  0  0  0  0  0  0  0  0  0  0
   57.0130  -17.1635    8.1907 C   0  0  0  0  0  0  0  0  0  0  0  0
   57.7245  -18.2767    8.1689 N   0  0  0  0  0  0  0  0  0  0  0  0
   57.6467  -15.9558    8.7384 C   0  0  0  0  0  0  0  0  0  0  0  0
   58.9538  -15.9186    9.3985 C   0  0  0  0  0  0  0  0  0  0  0  0
   59.7542  -16.9840    9.6169 N   0  0  0  0  0  0  0  0  0  0  0  0
   57.2212  -14.6829    8.7708 N   0  0  0  0  0  0  0  0  0  0  0  0
   58.1805  -13.9220    9.3669 C   0  0  0  0  0  0  0  0  0  0  0  0
   59.2438  -14.6702    9.7471 N   0  0  0  0  0  0  0  0  0  0  0  0
   60.4674  -14.1635   10.4265 C   0  0  1  0  0  0  0  0  0  0  0  0
   61.5623  -13.9628    9.4014 C   0  0  1  0  0  0  0  0  0  0  0  0
   62.2476  -12.6981    9.8501 C   0  0  2  0  0  0  0  0  0  0  0  0
   63.3252  -13.0187   10.7390 O   0  0  0  0  0  0  0  0  0  0  0  0
   62.4558  -15.0868    9.3728 O   0  0  0  0  0  0  0  0  0  0  0  0
   60.2209  -12.8799   10.9952 O   0  0  0  0  0  0  0  0  0  0  0  0
   61.1986  -11.9394   10.6208 C   0  0  2  0  0  0  0  0  0  0  0  0
   60.4654  -10.8559    9.8574 C   0  0  0  0  0  0  0  0  0  0  0  0
   61.2957   -9.7409    9.6057 O   0  0  0  0  0  0  0  0  0  0  0  0
   60.7078   -8.5296    8.7456 P   0  0  0  0  0  0  0  0  0  0  0  0
   61.7784   -7.4580    8.7938 O   0  0  0  0  0  0  0  0  0  0  0  0
   59.4402   -8.1977    9.4897 O   0  0  0  0  0  0  0  0  0  0  0  0
   60.4377   -9.1545    7.4049 O   0  0  0  0  0  0  0  0  0  0  0  0
  2  1  2  0  0  0  0
  2  4  1  0  0  0  0
  3  2  1  0  0  0  0
  4  7  1  0  0  0  0
  4  5  2  0  0  0  0
  5  6  1  0  0  0  0
  5  9  1  0  0  0  0
  7  8  2  0  0  0  0
  8  9  1  0  0  0  0
 10  9  1  6  0  0  0
 10 15  1  0  0  0  0
 11 14  1  1  0  0  0
 11 12  1  0  0  0  0
 11 10  1  0  0  0  0
 12 13  1  1  0  0  0
 12 16  1  0  0  0  0
 16 17  1  6  0  0  0
 16 15  1  0  0  0  0
 18 19  1  0  0  0  0
 18 17  1  0  0  0  0
 19 21  1  0  0  0  0
 20 19  1  0  0  0  0
 22 19  2  0  0  0  0
M  END
>  <CHROM.1>
170.93411693,82.24819142,-71.45754234,173.99412602,177.00746590,59.97467304
-12.90694188,9.29217711,1.98562897,0.39315183,3.02164490

>  <Name>
lig.pdb

>  <RI>
0

>  <Rbt.Current_Directory>
/home/itssahil/PROJECTS/Mol_Feturizer/New_Systems/rnas/4znp

>  <Rbt.Executable>
rbdock ($Id: //depot/dev/client3/rdock/2013.1/src/exe/rbdock.cxx#4 $)

>  <Rbt.Library>
libRbt.so (2013.1, Build901 2013/11/27)

>  <Rbt.Parameter_File>
/export/apps/rDock/src/rDock_2013.1_src/data/scripts/dock_solv.prm

>  <Rbt.Receptor>
prm/pocket_docking_6.prm

>  <SCORE>
-25.5188

>  <SCORE.INTER>
-20.1679

>  <SCORE.INTER.CONST>
1

>  <SCORE.INTER.POLAR>
0

>  <SCORE.INTER.ROT>
5

>  <SCORE.INTER.SOLV>
22.1405

>  <SCORE.INTER.VDW>
-27.7587

>  <SCORE.INTER.norm>
-0.916721

>  <SCORE.INTRA>
-5.35098

>  <SCORE.INTRA.DIHEDRAL>
-8.76302

>  <SCORE.INTRA.DIHEDRAL.0>
11.9251

>  <SCORE.INTRA.POLAR>
0

>  <SCORE.INTRA.POLAR.0>
0

>  <SCORE.INTRA.REPUL>
0

>  <SCORE.INTRA.REPUL.0>
0

>  <SCORE.INTRA.SOLV>
0.457282

>  <SCORE.INTRA.SOLV.lig_0>
-40.9823

>  <SCORE.INTRA.VDW>
-1.19811

>  <SCORE.INTRA.VDW.0>
-0.53506

>  <SCORE.INTRA.norm>
-0.243226

>  <SCORE.RESTR>
0

>  <SCORE.RESTR.CAVITY>
0

>  <SCORE.RESTR.norm>
0

>  <SCORE.SYSTEM>
0

>  <SCORE.SYSTEM.CONST>
0

>  <SCORE.SYSTEM.DIHEDRAL>
0

>  <SCORE.SYSTEM.SOLV>
0

>  <SCORE.SYSTEM.norm>
0

>  <SCORE.heavy>
22

>  <SCORE.norm>
-1.15995

>  <RMSD>
1.445

$$$$
lig.pdb
 OpenBabel11021811523D
libRbt.so/2013.1/901 2013/11/27
 22 23  0  0  0  0  0  0  0  0999 V2000
   55.8491  -17.1908    7.8131 O   0  0  0  0  0  0  0  0  0  0  0  0
   57.0018  -17.1932    8.1759 C   0  0  0  0  0  0  0  0  0  0  0  0
   57.7481  -18.2827    8.1337 N   0  0  0  0  0  0  0  0  0  0  0  0
   57.6043  -15.9707    8.7260 C   0  0  0  0  0  0  0  0  0  0  0  0
   58.9156  -15.8989    9.3747 C   0  0  0  0  0  0  0  0  0  0  0  0
   59.7492  -16.9413    9.5790 N   0  0  0  0  0  0  0  0  0  0  0  0
   57.1414  -14.7112    8.7707 N   0  0  0  0  0  0  0  0  0  0  0  0
   58.0831  -13.9260    9.3633 C   0  0  0  0  0  0  0  0  0  0  0  0
   59.1716  -14.6446    9.7291 N   0  0  0  0  0  0  0  0  0  0  0  0
   60.3856  -14.1060   10.4010 C   0  0  1  0  0  0  0  0  0  0  0  0
   61.3003  -13.4912    9.3640 C   0  0  1  0  0  0  0  0  0  0  0  0
   61.8473  -12.2654   10.0485 C   0  0  2  0  0  0  0  0  0  0  0  0
   63.0643  -12.5925   10.7311 O   0  0  0  0  0  0  0  0  0  0  0  0
   62.3358  -14.4089    8.9791 O   0  0  0  0  0  0  0  0  0  0  0  0
   60.0309  -13.0489   11.2889 O   0  0  0  0  0  0  0  0  0  0  0  0
   60.8067  -11.8947   11.0730 C   0  0  2  0  0  0  0  0  0  0  0  0
   59.8333  -10.8065   10.6695 C   0  0  0  0  0  0  0  0  0  0  0  0
   58.9195  -10.5123   11.7060 O   0  0  0  0  0  0  0  0  0  0  0  0
   57.8987   -9.3002   11.5027 P   0  0  0  0  0  0  0  0  0  0  0  0
   57.1757   -9.6088   10.2070 O   0  0  0  0  0  0  0  0  0  0  0  0
   58.8236   -8.1118   11.4487 O   0  0  0  0  0  0  0  0  0  0  0  0
   57.0734   -9.3265   12.7593 O   0  0  0  0  0  0  0  0  0  0  0  0
  2  1  2  0  0  0  0
  2  4  1  0  0  0  0
  3  2  1  0  0  0  0
  4  7  1  0  0  0  0
  4  5  2  0  0  0  0
  5  6  1  0  0  0  0
  5  9  1  0  0  0  0
  7  8  2  0  0  0  0
  8  9  1  0  0  0  0
 10  9  1  6  0  0  0
 10 15  1  0  0  0  0
 11 14  1  1  0  0  0
 11 12  1  0  0  0  0
 11 10  1  0  0  0  0
 12 13  1  1  0  0  0
 12 16  1  0  0  0  0
 16 17  1  6  0  0  0
 16 15  1  0  0  0  0
 18 19  1  0  0  0  0
 18 17  1  0  0  0  0
 19 21  1  0  0  0  0
 20 19  1  0  0  0  0
 22 19  2  0  0  0  0
M  END
>  <CHROM.1>
170.57523808,98.73625303,-178.69698561,55.14253584,174.78912134,59.06700862
-13.04061045,10.12219507,1.64087735,0.07511922,-2.76108734

>  <Name>
lig.pdb

>  <RI>
0

>  <Rbt.Current_Directory>
/home/itssahil/PROJECTS/Mol_Feturizer/New_Systems/rnas/4znp

>  <Rbt.Executable>
rbdock ($Id: //depot/dev/client3/rdock/2013.1/src/exe/rbdock.cxx#4 $)

>  <Rbt.Library>
libRbt.so (2013.1, Build901 2013/11/27)

>  <Rbt.Parameter_File>
/export/apps/rDock/src/rDock_2013.1_src/data/scripts/dock_solv.prm

>  <Rbt.Receptor>
prm/pocket_docking_4.prm

>  <SCORE>
-25.4284

>  <SCORE.INTER>
-19.4179

>  <SCORE.INTER.CONST>
1

>  <SCORE.INTER.POLAR>
0

>  <SCORE.INTER.ROT>
5

>  <SCORE.INTER.SOLV>
19.3855

>  <SCORE.INTER.VDW>
-26.3404

>  <SCORE.INTER.norm>
-0.882631

>  <SCORE.INTRA>
-6.0105

>  <SCORE.INTRA.DIHEDRAL>
-9.13189

>  <SCORE.INTRA.DIHEDRAL.0>
11.9251

>  <SCORE.INTRA.POLAR>
0

>  <SCORE.INTRA.POLAR.0>
0

>  <SCORE.INTRA.REPUL>
0

>  <SCORE.INTRA.REPUL.0>
0

>  <SCORE.INTRA.SOLV>
0.0166869

>  <SCORE.INTRA.SOLV.lig_0>
-40.9823

>  <SCORE.INTRA.VDW>
-1.4529

>  <SCORE.INTRA.VDW.0>
-0.53506

>  <SCORE.INTRA.norm>
-0.273205

>  <SCORE.RESTR>
0

>  <SCORE.RESTR.CAVITY>
0

>  <SCORE.RESTR.norm>
0

>  <SCORE.SYSTEM>
0

>  <SCORE.SYSTEM.CONST>
0

>  <SCORE.SYSTEM.DIHEDRAL>
0

>  <SCORE.SYSTEM.SOLV>
0

>  <SCORE.SYSTEM.norm>
0

>  <SCORE.heavy>
22

>  <SCORE.norm>
-1.15584

>  <RMSD>
1.451

$$$$
lig.pdb
 OpenBabel11021811523D
libRbt.so/2013.1/901 2013/11/27
 22 23  0  0  0  0  0  0  0  0999 V2000
   57.4346  -18.4298    8.0394 O   0  0  0  0  0  0  0  0  0  0  0  0
   56.8465  -17.3806    8.1574 C   0  0  0  0  0  0  0  0  0  0  0  0
   55.5866  -17.2372    7.7864 N   0  0  0  0  0  0  0  0  0  0  0  0
   57.5437  -16.2000    8.6869 C   0  0  0  0  0  0  0  0  0  0  0  0
   58.8925  -16.2066    9.2577 C   0  0  0  0  0  0  0  0  0  0  0  0
   59.6807  -17.2940    9.3986 N   0  0  0  0  0  0  0  0  0  0  0  0
   57.1511  -14.9191    8.7753 N   0  0  0  0  0  0  0  0  0  0  0  0
   58.1658  -14.1933    9.3213 C   0  0  0  0  0  0  0  0  0  0  0  0
   59.2345  -14.9732    9.6126 N   0  0  0  0  0  0  0  0  0  0  0  0
   60.5124  -14.5091   10.2184 C   0  0  1  0  0  0  0  0  0  0  0  0
   61.2497  -13.6375    9.2251 C   0  0  1  0  0  0  0  0  0  0  0  0
   61.8461  -12.5470   10.0768 C   0  0  2  0  0  0  0  0  0  0  0  0
   63.1579  -12.9303   10.5085 O   0  0  0  0  0  0  0  0  0  0  0  0
   62.2508  -14.3892    8.5214 O   0  0  0  0  0  0  0  0  0  0  0  0
   60.2512  -13.6820   11.3495 O   0  0  0  0  0  0  0  0  0  0  0  0
   60.9489  -12.4615   11.2841 C   0  0  2  0  0  0  0  0  0  0  0  0
   59.8918  -11.3770   11.2525 C   0  0  0  0  0  0  0  0  0  0  0  0
   59.1608  -11.3246   12.4603 O   0  0  0  0  0  0  0  0  0  0  0  0
   58.0238  -10.2132   12.6172 P   0  0  0  0  0  0  0  0  0  0  0  0
   58.7492   -8.8887   12.4889 O   0  0  0  0  0  0  0  0  0  0  0  0
   57.4772  -10.5097   13.9898 O   0  0  0  0  0  0  0  0  0  0  0  0
   57.0485  -10.5575   11.5259 O   0  0  0  0  0  0  0  0  0  0  0  0
  2  1  2  0  0  0  0
  2  4  1  0  0  0  0
  3  2  1  0  0  0  0
  4  7  1  0  0  0  0
  4  5  2  0  0  0  0
  5  6  1  0  0  0  0
  5  9  1  0  0  0  0
  7  8  2  0  0  0  0
  8  9  1  0  0  0  0
 10  9  1  6  0  0  0
 10 15  1  0  0  0  0
 11 14  1  1  0  0  0
 11 12  1  0  0  0  0
 11 10  1  0  0  0  0
 12 13  1  1  0  0  0
 12 16  1  0  0  0  0
 16 17  1  6  0  0  0
 16 15  1  0  0  0  0
 18 19  1  0  0  0  0
 18 17  1  0  0  0  0
 19 21  1  0  0  0  0
 20 19  1  0  0  0  0
 22 19  2  0  0  0  0
M  END
>  <CHROM.1>
-7.95619820,112.20730936,-176.26332266,-60.99306896,178.57563688,59.10226113
-13.52235582,10.40458423,1.67730553,-0.08898526,-2.58040979

>  <Name>
lig.pdb

>  <RI>
0

>  <Rbt.Current_Directory>
/home/itssahil/PROJECTS/Mol_Feturizer/New_Systems/rnas/4znp

>  <Rbt.Executable>
rbdock ($Id: //depot/dev/client3/rdock/2013.1/src/exe/rbdock.cxx#4 $)

>  <Rbt.Library>
libRbt.so (2013.1, Build901 2013/11/27)

>  <Rbt.Parameter_File>
/export/apps/rDock/src/rDock_2013.1_src/data/scripts/dock_solv.prm

>  <Rbt.Receptor>
prm/pocket_docking_5.prm

>  <SCORE>
-25.9487

>  <SCORE.INTER>
-19.7418

>  <SCORE.INTER.CONST>
1

>  <SCORE.INTER.POLAR>
0

>  <SCORE.INTER.ROT>
5

>  <SCORE.INTER.SOLV>
21.5813

>  <SCORE.INTER.VDW>
-27.2883

>  <SCORE.INTER.norm>
-0.897353

>  <SCORE.INTRA>
-6.20688

>  <SCORE.INTRA.DIHEDRAL>
-9.29867

>  <SCORE.INTRA.DIHEDRAL.0>
11.9251

>  <SCORE.INTRA.POLAR>
0

>  <SCORE.INTRA.POLAR.0>
0

>  <SCORE.INTRA.REPUL>
0

>  <SCORE.INTRA.REPUL.0>
0

>  <SCORE.INTRA.SOLV>
-0.088761

>  <SCORE.INTRA.SOLV.lig_0>
-40.9823

>  <SCORE.INTRA.VDW>
-1.51317

>  <SCORE.INTRA.VDW.0>
-0.53506

>  <SCORE.INTRA.norm>
-0.282131

>  <SCORE.RESTR>
0

>  <SCORE.RESTR.CAVITY>
0

>  <SCORE.RESTR.norm>
0

>  <SCORE.SYSTEM>
0

>  <SCORE.SYSTEM.CONST>
0

>  <SCORE.SYSTEM.DIHEDRAL>
0

>  <SCORE.SYSTEM.SOLV>
0

>  <SCORE.SYSTEM.norm>
0

>  <SCORE.heavy>
22

>  <SCORE.norm>
-1.17948

>  <RMSD>
1.457

$$$$
lig.pdb
 OpenBabel11021811523D
libRbt.so/2013.1/901 2013/11/27
 22 23  0  0  0  0  0  0  0  0999 V2000
   55.6908  -17.2120    7.8217 O   0  0  0  0  0  0  0  0  0  0  0  0
   56.8581  -17.2828    8.1265 C   0  0  0  0  0  0  0  0  0  0  0  0
   57.5477  -18.4033    8.0058 N   0  0  0  0  0  0  0  0  0  0  0  0
   57.5449  -16.1129    8.6921 C   0  0  0  0  0  0  0  0  0  0  0  0
   58.8906  -16.1271    9.2702 C   0  0  0  0  0  0  0  0  0  0  0  0
   59.6847  -17.2131    9.3857 N   0  0  0  0  0  0  0  0  0  0  0  0
   57.1439  -14.8374    8.8133 N   0  0  0  0  0  0  0  0  0  0  0  0
   58.1511  -14.1207    9.3849 C   0  0  0  0  0  0  0  0  0  0  0  0
   59.2229  -14.9018    9.6607 N   0  0  0  0  0  0  0  0  0  0  0  0
   60.4945  -14.4468   10.2864 C   0  0  1  0  0  0  0  0  0  0  0  0
   61.3018  -13.6686    9.2701 C   0  0  1  0  0  0  0  0  0  0  0  0
   61.9082  -12.5480   10.0745 C   0  0  2  0  0  0  0  0  0  0  0  0
   63.1870  -12.9505   10.5811 O   0  0  0  0  0  0  0  0  0  0  0  0
   62.2983  -14.5002    8.6554 O   0  0  0  0  0  0  0  0  0  0  0  0
   60.2238  -13.5395   11.3519 O   0  0  0  0  0  0  0  0  0  0  0  0
   60.9707  -12.3521   11.2375 C   0  0  2  0  0  0  0  0  0  0  0  0
   59.9587  -11.2340   11.0958 C   0  0  0  0  0  0  0  0  0  0  0  0
   59.1490  -11.1131   12.2472 O   0  0  0  0  0  0  0  0  0  0  0  0
   58.0191   -9.9838   12.2710 P   0  0  0  0  0  0  0  0  0  0  0  0
   58.7606   -8.6817   12.0439 O   0  0  0  0  0  0  0  0  0  0  0  0
   57.4323  -10.1508   13.6488 O   0  0  0  0  0  0  0  0  0  0  0  0
   57.0706  -10.4184   11.1883 O   0  0  0  0  0  0  0  0  0  0  0  0
  2  1  2  0  0  0  0
  2  4  1  0  0  0  0
  3  2  1  0  0  0  0
  4  7  1  0  0  0  0
  4  5  2  0  0  0  0
  5  6  1  0  0  0  0
  5  9  1  0  0  0  0
  7  8  2  0  0  0  0
  8  9  1  0  0  0  0
 10  9  1  6  0  0  0
 10 15  1  0  0  0  0
 11 14  1  1  0  0  0
 11 12  1  0  0  0  0
 11 10  1  0  0  0  0
 12 13  1  1  0  0  0
 12 16  1  0  0  0  0
 16 17  1  6  0  0  0
 16 15  1  0  0  0  0
 18 19  1  0  0  0  0
 18 17  1  0  0  0  0
 19 21  1  0  0  0  0
 20 19  1  0  0  0  0
 22 19  2  0  0  0  0
M  END
>  <CHROM.1>
170.94106859,106.10607507,-178.68546190,-57.74649851,-179.79497798,59.10846383
-13.41234175,10.31723261,1.67687822,-0.02853761,-2.63125758

>  <Name>
lig.pdb

>  <RI>
0

>  <Rbt.Current_Directory>
/home/itssahil/PROJECTS/Mol_Feturizer/New_Systems/rnas/4znp

>  <Rbt.Executable>
rbdock ($Id: //depot/dev/client3/rdock/2013.1/src/exe/rbdock.cxx#4 $)

>  <Rbt.Library>
libRbt.so (2013.1, Build901 2013/11/27)

>  <Rbt.Parameter_File>
/export/apps/rDock/src/rDock_2013.1_src/data/scripts/dock_solv.prm

>  <Rbt.Receptor>
prm/pocket_docking_8.prm

>  <SCORE>
-25.6858

>  <SCORE.INTER>
-19.6169

>  <SCORE.INTER.CONST>
1

>  <SCORE.INTER.POLAR>
0

>  <SCORE.INTER.ROT>
5

>  <SCORE.INTER.SOLV>
21.0909

>  <SCORE.INTER.VDW>
-27.0415

>  <SCORE.INTER.norm>
-0.891676

>  <SCORE.INTRA>
-6.06892

>  <SCORE.INTRA.DIHEDRAL>
-9.28849

>  <SCORE.INTRA.DIHEDRAL.0>
11.9251

>  <SCORE.INTRA.POLAR>
0

>  <SCORE.INTRA.POLAR.0>
0

>  <SCORE.INTRA.REPUL>
0

>  <SCORE.INTRA.REPUL.0>
0

>  <SCORE.INTRA.SOLV>
0.23423

>  <SCORE.INTRA.SOLV.lig_0>
-40.9823

>  <SCORE.INTRA.VDW>
-1.54179

>  <SCORE.INTRA.VDW.0>
-0.53506

>  <SCORE.INTRA.norm>
-0.27586

>  <SCORE.RESTR>
0

>  <SCORE.RESTR.CAVITY>
0

>  <SCORE.RESTR.norm>
0

>  <SCORE.SYSTEM>
0

>  <SCORE.SYSTEM.CONST>
0

>  <SCORE.SYSTEM.DIHEDRAL>
0

>  <SCORE.SYSTEM.SOLV>
0

>  <SCORE.SYSTEM.norm>
0

>  <SCORE.heavy>
22

>  <SCORE.norm>
-1.16754

>  <RMSD>
1.469

$$$$
lig.pdb
 OpenBabel11021811523D
libRbt.so/2013.1/901 2013/11/27
 22 23  0  0  0  0  0  0  0  0999 V2000
   57.4376  -18.4233    8.0430 O   0  0  0  0  0  0  0  0  0  0  0  0
   56.8405  -17.3783    8.1519 C   0  0  0  0  0  0  0  0  0  0  0  0
   55.5810  -17.2475    7.7748 N   0  0  0  0  0  0  0  0  0  0  0  0
   57.5259  -16.1886    8.6767 C   0  0  0  0  0  0  0  0  0  0  0  0
   58.8656  -16.1837    9.2685 C   0  0  0  0  0  0  0  0  0  0  0  0
   59.6546  -17.2667    9.4359 N   0  0  0  0  0  0  0  0  0  0  0  0
   57.1283  -14.9080    8.7421 N   0  0  0  0  0  0  0  0  0  0  0  0
   58.1322  -14.1720    9.2944 C   0  0  0  0  0  0  0  0  0  0  0  0
   59.1984  -14.9447    9.6125 N   0  0  0  0  0  0  0  0  0  0  0  0
   60.4653  -14.4688   10.2321 C   0  0  1  0  0  0  0  0  0  0  0  0
   61.2103  -13.5989    9.2430 C   0  0  1  0  0  0  0  0  0  0  0  0
   61.7886  -12.4992   10.0955 C   0  0  2  0  0  0  0  0  0  0  0  0
   63.0969  -12.8716   10.5468 O   0  0  0  0  0  0  0  0  0  0  0  0
   62.2252  -14.3488    8.5574 O   0  0  0  0  0  0  0  0  0  0  0  0
   60.1841  -13.6361   11.3544 O   0  0  0  0  0  0  0  0  0  0  0  0
   60.8751  -12.4117   11.2903 C   0  0  2  0  0  0  0  0  0  0  0  0
   59.8118  -11.3341   11.2378 C   0  0  0  0  0  0  0  0  0  0  0  0
   59.0249  -11.3190   12.4111 O   0  0  0  0  0  0  0  0  0  0  0  0
   57.8621  -10.2306   12.5367 P   0  0  0  0  0  0  0  0  0  0  0  0
   58.5602   -8.8926   12.3982 O   0  0  0  0  0  0  0  0  0  0  0  0
   57.3038  -10.5191   13.9063 O   0  0  0  0  0  0  0  0  0  0  0  0
   56.9091  -10.6120   11.4380 O   0  0  0  0  0  0  0  0  0  0  0  0
  2  1  2  0  0  0  0
  2  4  1  0  0  0  0
  3  2  1  0  0  0  0
  4  7  1  0  0  0  0
  4  5  2  0  0  0  0
  5  6  1  0  0  0  0
  5  9  1  0  0  0  0
  7  8  2  0  0  0  0
  8  9  1  0  0  0  0
 10  9  1  6  0  0  0
 10 15  1  0  0  0  0
 11 14  1  1  0  0  0
 11 12  1  0  0  0  0
 11 10  1  0  0  0  0
 12 13  1  1  0  0  0
 12 16  1  0  0  0  0
 16 17  1  6  0  0  0
 16 15  1  0  0  0  0
 18 19  1  0  0  0  0
 18 17  1  0  0  0  0
 19 21  1  0  0  0  0
 20 19  1  0  0  0  0
 22 19  2  0  0  0  0
M  END
>  <CHROM.1>
-8.77343343,112.65600096,-178.95786643,-58.22274813,179.25635259,59.02988441
-13.50629652,10.38601339,1.66171789,-0.08203263,-2.58926294

>  <Name>
lig.pdb

>  <RI>
0

>  <Rbt.Current_Directory>
/home/itssahil/PROJECTS/Mol_Feturizer/New_Systems/rnas/4znp

>  <Rbt.Executable>
rbdock ($Id: //depot/dev/client3/rdock/2013.1/src/exe/rbdock.cxx#4 $)

>  <Rbt.Library>
libRbt.so (2013.1, Build901 2013/11/27)

>  <Rbt.Parameter_File>
/export/apps/rDock/src/rDock_2013.1_src/data/scripts/dock_solv.prm

>  <Rbt.Receptor>
prm/pocket_docking_6.prm

>  <SCORE>
-25.9752

>  <SCORE.INTER>
-19.7529

>  <SCORE.INTER.CONST>
1

>  <SCORE.INTER.POLAR>
0

>  <SCORE.INTER.ROT>
5

>  <SCORE.INTER.SOLV>
21.6909

>  <SCORE.INTER.VDW>
-27.3322

>  <SCORE.INTER.norm>
-0.897858

>  <SCORE.INTRA>
-6.22235

>  <SCORE.INTRA.DIHEDRAL>
-9.29746

>  <SCORE.INTRA.DIHEDRAL.0>
11.9251

>  <SCORE.INTRA.POLAR>
0

>  <SCORE.INTRA.POLAR.0>
0

>  <SCORE.INTRA.REPUL>
0

>  <SCORE.INTRA.REPUL.0>
0

>  <SCORE.INTRA.SOLV>
-0.0801545

>  <SCORE.INTRA.SOLV.lig_0>
-40.9823

>  <SCORE.INTRA.VDW>
-1.53354

>  <SCORE.INTRA.VDW.0>
-0.53506

>  <SCORE.INTRA.norm>
-0.282834

>  <SCORE.RESTR>
0

>  <SCORE.RESTR.CAVITY>
0

>  <SCORE.RESTR.norm>
0

>  <SCORE.SYSTEM>
0

>  <SCORE.SYSTEM.CONST>
0

>  <SCORE.SYSTEM.DIHEDRAL>
0

>  <SCORE.SYSTEM.SOLV>
0

>  <SCORE.SYSTEM.norm>
0

>  <SCORE.heavy>
22

>  <SCORE.norm>
-1.18069

>  <RMSD>
1.483

$$$$
lig.pdb
 OpenBabel11021811523D
libRbt.so/2013.1/901 2013/11/27
 22 23  0  0  0  0  0  0  0  0999 V2000
   55.7056  -17.2032    7.7963 O   0  0  0  0  0  0  0  0  0  0  0  0
   56.8664  -17.2803    8.1237 C   0  0  0  0  0  0  0  0  0  0  0  0
   57.5480  -18.4083    8.0303 N   0  0  0  0  0  0  0  0  0  0  0  0
   57.5531  -16.1092    8.6869 C   0  0  0  0  0  0  0  0  0  0  0  0
   58.8965  -16.1232    9.2702 C   0  0  0  0  0  0  0  0  0  0  0  0
   59.6883  -17.2101    9.3934 N   0  0  0  0  0  0  0  0  0  0  0  0
   57.1539  -14.8325    8.8012 N   0  0  0  0  0  0  0  0  0  0  0  0
   58.1601  -14.1151    9.3735 C   0  0  0  0  0  0  0  0  0  0  0  0
   59.2295  -14.8969    9.6568 N   0  0  0  0  0  0  0  0  0  0  0  0
   60.4995  -14.4414   10.2854 C   0  0  1  0  0  0  0  0  0  0  0  0
   61.3106  -13.6661    9.2699 C   0  0  1  0  0  0  0  0  0  0  0  0
   61.9153  -12.5442   10.0737 C   0  0  2  0  0  0  0  0  0  0  0  0
   63.1922  -12.9466   10.5852 O   0  0  0  0  0  0  0  0  0  0  0  0
   62.3083  -14.4999    8.6602 O   0  0  0  0  0  0  0  0  0  0  0  0
   60.2262  -13.5316   11.3480 O   0  0  0  0  0  0  0  0  0  0  0  0
   60.9743  -12.3450   11.2333 C   0  0  2  0  0  0  0  0  0  0  0  0
   59.9636  -11.2264   11.0859 C   0  0  0  0  0  0  0  0  0  0  0  0
   60.5907   -9.9630   11.0046 O   0  0  0  0  0  0  0  0  0  0  0  0
   61.3808   -9.4190   12.2823 P   0  0  0  0  0  0  0  0  0  0  0  0
   61.6996   -7.9728   11.9602 O   0  0  0  0  0  0  0  0  0  0  0  0
   62.5737  -10.3383   12.3330 O   0  0  0  0  0  0  0  0  0  0  0  0
   60.4213   -9.6632   13.4139 O   0  0  0  0  0  0  0  0  0  0  0  0
  2  1  2  0  0  0  0
  2  4  1  0  0  0  0
  3  2  1  0  0  0  0
  4  7  1  0  0  0  0
  4  5  2  0  0  0  0
  5  6  1  0  0  0  0
  5  9  1  0  0  0  0
  7  8  2  0  0  0  0
  8  9  1  0  0  0  0
 10  9  1  6  0  0  0
 10 15  1  0  0  0  0
 11 14  1  1  0  0  0
 11 12  1  0  0  0  0
 11 10  1  0  0  0  0
 12 13  1  1  0  0  0
 12 16  1  0  0  0  0
 16 17  1  6  0  0  0
 16 15  1  0  0  0  0
 18 19  1  0  0  0  0
 18 17  1  0  0  0  0
 19 21  1  0  0  0  0
 20 19  1  0  0  0  0
 22 19  2  0  0  0  0
M  END
>  <CHROM.1>
172.00117254,106.24179226,-64.00282358,-169.85301343,-65.91458741,60.05245717
-13.23875662,10.29640592,2.02963084,0.02105995,-2.68239682

>  <Name>
lig.pdb

>  <RI>
0

>  <Rbt.Current_Directory>
/home/itssahil/PROJECTS/Mol_Feturizer/New_Systems/rnas/4znp

>  <Rbt.Executable>
rbdock ($Id: //depot/dev/client3/rdock/2013.1/src/exe/rbdock.cxx#4 $)

>  <Rbt.Library>
libRbt.so (2013.1, Build901 2013/11/27)

>  <Rbt.Parameter_File>
/export/apps/rDock/src/rDock_2013.1_src/data/scripts/dock_solv.prm

>  <Rbt.Receptor>
prm/pocket_docking_8.prm

>  <SCORE>
-24.3573

>  <SCORE.INTER>
-19.3865

>  <SCORE.INTER.CONST>
1

>  <SCORE.INTER.POLAR>
0

>  <SCORE.INTER.ROT>
5

>  <SCORE.INTER.SOLV>
20.1848

>  <SCORE.INTER.VDW>
-26.5859

>  <SCORE.INTER.norm>
-0.881204

>  <SCORE.INTRA>
-4.97081

>  <SCORE.INTRA.DIHEDRAL>
-8.9408

>  <SCORE.INTRA.DIHEDRAL.0>
11.9251

>  <SCORE.INTRA.POLAR>
0

>  <SCORE.INTRA.POLAR.0>
0

>  <SCORE.INTRA.REPUL>
0

>  <SCORE.INTRA.REPUL.0>
0

>  <SCORE.INTRA.SOLV>
1.39791

>  <SCORE.INTRA.SOLV.lig_0>
-40.9823

>  <SCORE.INTRA.VDW>
-1.19936

>  <SCORE.INTRA.VDW.0>
-0.53506

>  <SCORE.INTRA.norm>
-0.225946

>  <SCORE.RESTR>
0

>  <SCORE.RESTR.CAVITY>
0

>  <SCORE.RESTR.norm>
0

>  <SCORE.SYSTEM>
0

>  <SCORE.SYSTEM.CONST>
0

>  <SCORE.SYSTEM.DIHEDRAL>
0

>  <SCORE.SYSTEM.SOLV>
0

>  <SCORE.SYSTEM.norm>
0

>  <SCORE.heavy>
22

>  <SCORE.norm>
-1.10715

>  <RMSD>
1.484

$$$$
lig.pdb
 OpenBabel11021811523D
libRbt.so/2013.1/901 2013/11/27
 22 23  0  0  0  0  0  0  0  0999 V2000
   57.3939  -18.5351    7.9818 O   0  0  0  0  0  0  0  0  0  0  0  0
   56.7631  -17.5122    8.1097 C   0  0  0  0  0  0  0  0  0  0  0  0
   55.4971  -17.4185    7.7436 N   0  0  0  0  0  0  0  0  0  0  0  0
   57.4124  -16.3076    8.6460 C   0  0  0  0  0  0  0  0  0  0  0  0
   58.7239  -16.2796    9.2976 C   0  0  0  0  0  0  0  0  0  0  0  0
   59.5149  -17.3516    9.5176 N   0  0  0  0  0  0  0  0  0  0  0  0
   56.9999  -15.0303    8.6731 N   0  0  0  0  0  0  0  0  0  0  0  0
   57.9706  -14.2755    9.2585 C   0  0  0  0  0  0  0  0  0  0  0  0
   59.0287  -15.0321    9.6367 N   0  0  0  0  0  0  0  0  0  0  0  0
   60.2615  -14.5336   10.3053 C   0  0  1  0  0  0  0  0  0  0  0  0
   61.2247  -14.0172    9.2585 C   0  0  1  0  0  0  0  0  0  0  0  0
   61.8305  -12.7952    9.8988 C   0  0  2  0  0  0  0  0  0  0  0  0
   63.0169  -13.1599   10.6154 O   0  0  0  0  0  0  0  0  0  0  0  0
   62.2117  -15.0077    8.9311 O   0  0  0  0  0  0  0  0  0  0  0  0
   59.9546  -13.4202   11.1407 O   0  0  0  0  0  0  0  0  0  0  0  0
   60.7979  -12.3220   10.8886 C   0  0  2  0  0  0  0  0  0  0  0  0
   59.8939  -11.1996   10.4221 C   0  0  0  0  0  0  0  0  0  0  0  0
   58.8221  -10.9856   11.3173 O   0  0  0  0  0  0  0  0  0  0  0  0
   59.1547  -10.5248   12.8105 P   0  0  0  0  0  0  0  0  0  0  0  0
   60.1630   -9.4034   12.6598 O   0  0  0  0  0  0  0  0  0  0  0  0
   59.6972  -11.7915   13.4203 O   0  0  0  0  0  0  0  0  0  0  0  0
   57.8086  -10.1523   13.3671 O   0  0  0  0  0  0  0  0  0  0  0  0
  2  1  2  0  0  0  0
  2  4  1  0  0  0  0
  3  2  1  0  0  0  0
  4  7  1  0  0  0  0
  4  5  2  0  0  0  0
  5  6  1  0  0  0  0
  5  9  1  0  0  0  0
  7  8  2  0  0  0  0
  8  9  1  0  0  0  0
 10  9  1  6  0  0  0
 10 15  1  0  0  0  0
 11 14  1  1  0  0  0
 11 12  1  0  0  0  0
 11 10  1  0  0  0  0
 12 13  1  1  0  0  0
 12 16  1  0  0  0  0
 16 17  1  6  0  0  0
 16 15  1  0  0  0  0
 18 19  1  0  0  0  0
 18 17  1  0  0  0  0
 19 21  1  0  0  0  0
 20 19  1  0  0  0  0
 22 19  2  0  0  0  0
M  END
>  <CHROM.1>
-12.48620615,96.59544227,169.76402149,46.92028646,62.64138087,59.31482530
-13.68073282,10.39189797,1.84605118,-0.08051143,-2.55974112

>  <Name>
lig.pdb

>  <RI>
0

>  <Rbt.Current_Directory>
/home/itssahil/PROJECTS/Mol_Feturizer/New_Systems/rnas/4znp

>  <Rbt.Executable>
rbdock ($Id: //depot/dev/client3/rdock/2013.1/src/exe/rbdock.cxx#4 $)

>  <Rbt.Library>
libRbt.so (2013.1, Build901 2013/11/27)

>  <Rbt.Parameter_File>
/export/apps/rDock/src/rDock_2013.1_src/data/scripts/dock_solv.prm

>  <Rbt.Receptor>
prm/pocket_docking_3.prm

>  <SCORE>
-25.7587

>  <SCORE.INTER>
-20.5987

>  <SCORE.INTER.CONST>
1

>  <SCORE.INTER.POLAR>
0

>  <SCORE.INTER.ROT>
5

>  <SCORE.INTER.SOLV>
21.3691

>  <SCORE.INTER.VDW>
-27.7888

>  <SCORE.INTER.norm>
-0.936302

>  <SCORE.INTRA>
-5.16

>  <SCORE.INTRA.DIHEDRAL>
-8.44339

>  <SCORE.INTRA.DIHEDRAL.0>
11.9251

>  <SCORE.INTRA.POLAR>
0

>  <SCORE.INTRA.POLAR.0>
0

>  <SCORE.INTRA.REPUL>
0

>  <SCORE.INTRA.REPUL.0>
0

>  <SCORE.INTRA.SOLV>
0.791605

>  <SCORE.INTRA.SOLV.lig_0>
-40.9823

>  <SCORE.INTRA.VDW>
-1.33411

>  <SCORE.INTRA.VDW.0>
-0.53506

>  <SCORE.INTRA.norm>
-0.234545

>  <SCORE.RESTR>
0

>  <SCORE.RESTR.CAVITY>
0

>  <SCORE.RESTR.norm>
0

>  <SCORE.SYSTEM>
0

>  <SCORE.SYSTEM.CONST>
0

>  <SCORE.SYSTEM.DIHEDRAL>
0

>  <SCORE.SYSTEM.SOLV>
0

>  <SCORE.SYSTEM.norm>
0

>  <SCORE.heavy>
22

>  <SCORE.norm>
-1.17085

>  <RMSD>
1.492

$$$$
lig.pdb
 OpenBabel11021811523D
libRbt.so/2013.1/901 2013/11/27
 22 23  0  0  0  0  0  0  0  0999 V2000
   57.6197  -18.2842    8.1868 O   0  0  0  0  0  0  0  0  0  0  0  0
   57.0070  -17.2443    8.2467 C   0  0  0  0  0  0  0  0  0  0  0  0
   55.7604  -17.1392    7.8217 N   0  0  0  0  0  0  0  0  0  0  0  0
   57.6591  -16.0329    8.7639 C   0  0  0  0  0  0  0  0  0  0  0  0
   59.0010  -15.9859    9.3490 C   0  0  0  0  0  0  0  0  0  0  0  0
   59.8227  -17.0443    9.5164 N   0  0  0  0  0  0  0  0  0  0  0  0
   57.2239  -14.7644    8.8267 N   0  0  0  0  0  0  0  0  0  0  0  0
   58.2082  -13.9968    9.3715 C   0  0  0  0  0  0  0  0  0  0  0  0
   59.2984  -14.7362    9.6870 N   0  0  0  0  0  0  0  0  0  0  0  0
   60.5536  -14.2206   10.2987 C   0  0  1  0  0  0  0  0  0  0  0  0
   61.3133  -13.4081    9.2726 C   0  0  1  0  0  0  0  0  0  0  0  0
   61.8747  -12.2583   10.0683 C   0  0  2  0  0  0  0  0  0  0  0  0
   63.1759  -12.5992   10.5627 O   0  0  0  0  0  0  0  0  0  0  0  0
   62.3414  -14.1939    8.6496 O   0  0  0  0  0  0  0  0  0  0  0  0
   60.2515  -13.3241   11.3649 O   0  0  0  0  0  0  0  0  0  0  0  0
   60.9408  -12.1034   11.2404 C   0  0  2  0  0  0  0  0  0  0  0  0
   59.8762  -11.0342   11.1065 C   0  0  0  0  0  0  0  0  0  0  0  0
   59.0787  -10.9425   12.2691 O   0  0  0  0  0  0  0  0  0  0  0  0
   57.8842   -9.8819   12.2940 P   0  0  0  0  0  0  0  0  0  0  0  0
   57.3028   -9.9781   13.6903 O   0  0  0  0  0  0  0  0  0  0  0  0
   56.9870  -10.3882   11.1942 O   0  0  0  0  0  0  0  0  0  0  0  0
   58.5602   -8.5887   11.9316 O   0  0  0  0  0  0  0  0  0  0  0  0
  2  1  2  0  0  0  0
  2  4  1  0  0  0  0
  3  2  1  0  0  0  0
  4  7  1  0  0  0  0
  4  5  2  0  0  0  0
  5  6  1  0  0  0  0
  5  9  1  0  0  0  0
  7  8  2  0  0  0  0
  8  9  1  0  0  0  0
 10  9  1  6  0  0  0
 10 15  1  0  0  0  0
 11 14  1  1  0  0  0
 11 12  1  0  0  0  0
 11 10  1  0  0  0  0
 12 13  1  1  0  0  0
 12 16  1  0  0  0  0
 16 17  1  6  0  0  0
 16 15  1  0  0  0  0
 18 19  1  0  0  0  0
 18 17  1  0  0  0  0
 19 21  1  0  0  0  0
 20 19  1  0  0  0  0
 22 19  2  0  0  0  0
M  END
>  <CHROM.1>
-5.92186827,108.90884776,-178.31523018,-176.42612997,-178.87696322,59.11796965
-13.25566545,10.34410713,1.64378349,-0.06013961,-2.64316524

>  <Name>
lig.pdb

>  <RI>
0

>  <Rbt.Current_Directory>
/home/itssahil/PROJECTS/Mol_Feturizer/New_Systems/rnas/4znp

>  <Rbt.Executable>
rbdock ($Id: //depot/dev/client3/rdock/2013.1/src/exe/rbdock.cxx#4 $)

>  <Rbt.Library>
libRbt.so (2013.1, Build901 2013/11/27)

>  <Rbt.Parameter_File>
/export/apps/rDock/src/rDock_2013.1_src/data/scripts/dock_solv.prm

>  <Rbt.Receptor>
prm/pocket_docking_4.prm

>  <SCORE>
-25.6092

>  <SCORE.INTER>
-19.5056

>  <SCORE.INTER.CONST>
1

>  <SCORE.INTER.POLAR>
0

>  <SCORE.INTER.ROT>
5

>  <SCORE.INTER.SOLV>
19.7787

>  <SCORE.INTER.VDW>
-26.53

>  <SCORE.INTER.norm>
-0.886617

>  <SCORE.INTRA>
-6.10363

>  <SCORE.INTRA.DIHEDRAL>
-9.39828

>  <SCORE.INTRA.DIHEDRAL.0>
11.9251

>  <SCORE.INTRA.POLAR>
0

>  <SCORE.INTRA.POLAR.0>
0

>  <SCORE.INTRA.REPUL>
0

>  <SCORE.INTRA.REPUL.0>
0

>  <SCORE.INTRA.SOLV>
-0.0626457

>  <SCORE.INTRA.SOLV.lig_0>
-40.9823

>  <SCORE.INTRA.VDW>
-1.37317

>  <SCORE.INTRA.VDW.0>
-0.53506

>  <SCORE.INTRA.norm>
-0.277438

>  <SCORE.RESTR>
0

>  <SCORE.RESTR.CAVITY>
0

>  <SCORE.RESTR.norm>
0

>  <SCORE.SYSTEM>
0

>  <SCORE.SYSTEM.CONST>
0

>  <SCORE.SYSTEM.DIHEDRAL>
0

>  <SCORE.SYSTEM.SOLV>
0

>  <SCORE.SYSTEM.norm>
0

>  <SCORE.heavy>
22

>  <SCORE.norm>
-1.16406

>  <RMSD>
1.498

$$$$
lig.pdb
 OpenBabel11021811523D
libRbt.so/2013.1/901 2013/11/27
 22 23  0  0  0  0  0  0  0  0999 V2000
   57.6587  -18.2957    8.1378 O   0  0  0  0  0  0  0  0  0  0  0  0
   57.0222  -17.2738    8.2433 C   0  0  0  0  0  0  0  0  0  0  0  0
   55.7590  -17.1920    7.8644 N   0  0  0  0  0  0  0  0  0  0  0  0
   57.6611  -16.0576    8.7656 C   0  0  0  0  0  0  0  0  0  0  0  0
   59.0027  -15.9983    9.3503 C   0  0  0  0  0  0  0  0  0  0  0  0
   59.8362  -17.0483    9.5124 N   0  0  0  0  0  0  0  0  0  0  0  0
   57.2118  -14.7943    8.8344 N   0  0  0  0  0  0  0  0  0  0  0  0
   58.1878  -14.0183    9.3821 C   0  0  0  0  0  0  0  0  0  0  0  0
   59.2864  -14.7470    9.6938 N   0  0  0  0  0  0  0  0  0  0  0  0
   60.5360  -14.2202   10.3071 C   0  0  1  0  0  0  0  0  0  0  0  0
   61.2991  -13.4165    9.2766 C   0  0  1  0  0  0  0  0  0  0  0  0
   61.8517  -12.2560   10.0629 C   0  0  2  0  0  0  0  0  0  0  0  0
   63.1512  -12.5868   10.5688 O   0  0  0  0  0  0  0  0  0  0  0  0
   62.3336  -14.2054    8.6685 O   0  0  0  0  0  0  0  0  0  0  0  0
   60.2245  -13.3131   11.3616 O   0  0  0  0  0  0  0  0  0  0  0  0
   60.9103  -12.0914   11.2277 C   0  0  2  0  0  0  0  0  0  0  0  0
   59.8428  -11.0276   11.0757 C   0  0  0  0  0  0  0  0  0  0  0  0
   59.0655  -10.8962   12.2481 O   0  0  0  0  0  0  0  0  0  0  0  0
   57.8674   -9.8393   12.2554 P   0  0  0  0  0  0  0  0  0  0  0  0
   56.9037  -10.3310   11.1941 O   0  0  0  0  0  0  0  0  0  0  0  0
   58.5774   -8.5521   11.9240 O   0  0  0  0  0  0  0  0  0  0  0  0
   57.3812   -9.8751   13.6778 O   0  0  0  0  0  0  0  0  0  0  0  0
  2  1  2  0  0  0  0
  2  4  1  0  0  0  0
  3  2  1  0  0  0  0
  4  7  1  0  0  0  0
  4  5  2  0  0  0  0
  5  6  1  0  0  0  0
  5  9  1  0  0  0  0
  7  8  2  0  0  0  0
  8  9  1  0  0  0  0
 10  9  1  6  0  0  0
 10 15  1  0  0  0  0
 11 14  1  1  0  0  0
 11 12  1  0  0  0  0
 11 10  1  0  0  0  0
 12 13  1  1  0  0  0
 12 16  1  0  0  0  0
 16 17  1  6  0  0  0
 16 15  1  0  0  0  0
 18 19  1  0  0  0  0
 18 17  1  0  0  0  0
 19 21  1  0  0  0  0
 20 19  1  0  0  0  0
 22 19  2  0  0  0  0
M  END
>  <CHROM.1>
-8.31951573,107.84825136,-176.42459238,62.99602410,-178.64911813,59.10995051
-13.24674627,10.33828291,1.63907562,-0.05483514,-2.64996963

>  <Name>
lig.pdb

>  <RI>
0

>  <Rbt.Current_Directory>
/home/itssahil/PROJECTS/Mol_Feturizer/New_Systems/rnas/4znp

>  <Rbt.Executable>
rbdock ($Id: //depot/dev/client3/rdock/2013.1/src/exe/rbdock.cxx#4 $)

>  <Rbt.Library>
libRbt.so (2013.1, Build901 2013/11/27)

>  <Rbt.Parameter_File>
/export/apps/rDock/src/rDock_2013.1_src/data/scripts/dock_solv.prm

>  <Rbt.Receptor>
prm/pocket_docking_4.prm

>  <SCORE>
-25.7643

>  <SCORE.INTER>
-19.5204

>  <SCORE.INTER.CONST>
1

>  <SCORE.INTER.POLAR>
0

>  <SCORE.INTER.ROT>
5

>  <SCORE.INTER.SOLV>
19.7667

>  <SCORE.INTER.VDW>
-26.5358

>  <SCORE.INTER.norm>
-0.887291

>  <SCORE.INTRA>
-6.24389

>  <SCORE.INTRA.DIHEDRAL>
-9.26954

>  <SCORE.INTRA.DIHEDRAL.0>
11.9251

>  <SCORE.INTRA.POLAR>
0

>  <SCORE.INTRA.POLAR.0>
0

>  <SCORE.INTRA.REPUL>
0

>  <SCORE.INTRA.REPUL.0>
0

>  <SCORE.INTRA.SOLV>
-0.308062

>  <SCORE.INTRA.SOLV.lig_0>
-40.9823

>  <SCORE.INTRA.VDW>
-1.45508

>  <SCORE.INTRA.VDW.0>
-0.53506

>  <SCORE.INTRA.norm>
-0.283813

>  <SCORE.RESTR>
0

>  <SCORE.RESTR.CAVITY>
0

>  <SCORE.RESTR.norm>
0

>  <SCORE.SYSTEM>
0

>  <SCORE.SYSTEM.CONST>
0

>  <SCORE.SYSTEM.DIHEDRAL>
0

>  <SCORE.SYSTEM.SOLV>
0

>  <SCORE.SYSTEM.norm>
0

>  <SCORE.heavy>
22

>  <SCORE.norm>
-1.1711

>  <RMSD>
1.503

$$$$
lig.pdb
 OpenBabel11021811523D
libRbt.so/2013.1/901 2013/11/27
 22 23  0  0  0  0  0  0  0  0999 V2000
   57.4499  -18.4143    8.0238 O   0  0  0  0  0  0  0  0  0  0  0  0
   56.8564  -17.3690    8.1489 C   0  0  0  0  0  0  0  0  0  0  0  0
   55.5928  -17.2325    7.7880 N   0  0  0  0  0  0  0  0  0  0  0  0
   57.5505  -16.1854    8.6758 C   0  0  0  0  0  0  0  0  0  0  0  0
   58.8964  -16.1886    9.2535 C   0  0  0  0  0  0  0  0  0  0  0  0
   59.6841  -17.2750    9.4041 N   0  0  0  0  0  0  0  0  0  0  0  0
   57.1570  -14.9043    8.7555 N   0  0  0  0  0  0  0  0  0  0  0  0
   58.1687  -14.1753    9.3030 C   0  0  0  0  0  0  0  0  0  0  0  0
   59.2361  -14.9533    9.6038 N   0  0  0  0  0  0  0  0  0  0  0  0
   60.5107  -14.4856   10.2137 C   0  0  1  0  0  0  0  0  0  0  0  0
   61.2405  -13.5977    9.2293 C   0  0  1  0  0  0  0  0  0  0  0  0
   61.8288  -12.5116   10.0922 C   0  0  2  0  0  0  0  0  0  0  0  0
   63.1439  -12.8892   10.5190 O   0  0  0  0  0  0  0  0  0  0  0  0
   62.2470  -14.3339    8.5170 O   0  0  0  0  0  0  0  0  0  0  0  0
   60.2438  -13.6727   11.3538 O   0  0  0  0  0  0  0  0  0  0  0  0
   60.9318  -12.4461   11.3010 C   0  0  2  0  0  0  0  0  0  0  0  0
   59.8662  -11.3698   11.2816 C   0  0  0  0  0  0  0  0  0  0  0  0
   59.0990  -11.3727   12.4679 O   0  0  0  0  0  0  0  0  0  0  0  0
   57.9309  -10.2940   12.6246 P   0  0  0  0  0  0  0  0  0  0  0  0
   58.6241   -8.9492   12.5367 O   0  0  0  0  0  0  0  0  0  0  0  0
   57.3662  -10.6322   13.9801 O   0  0  0  0  0  0  0  0  0  0  0  0
   56.9857  -10.6408   11.5079 O   0  0  0  0  0  0  0  0  0  0  0  0
  2  1  2  0  0  0  0
  2  4  1  0  0  0  0
  3  2  1  0  0  0  0
  4  7  1  0  0  0  0
  4  5  2  0  0  0  0
  5  6  1  0  0  0  0
  5  9  1  0  0  0  0
  7  8  2  0  0  0  0
  8  9  1  0  0  0  0
 10  9  1  6  0  0  0
 10 15  1  0  0  0  0
 11 14  1  1  0  0  0
 11 12  1  0  0  0  0
 11 10  1  0  0  0  0
 12 13  1  1  0  0  0
 12 16  1  0  0  0  0
 16 17  1  6  0  0  0
 16 15  1  0  0  0  0
 18 19  1  0  0  0  0
 18 17  1  0  0  0  0
 19 21  1  0  0  0  0
 20 19  1  0  0  0  0
 22 19  2  0  0  0  0
M  END
>  <CHROM.1>
-8.87317850,113.26721579,-178.73165589,-60.11360056,179.62787634,59.07430257
-13.52970068,10.40636525,1.66861437,-0.09572766,-2.57310614

>  <Name>
lig.pdb

>  <RI>
0

>  <Rbt.Current_Directory>
/home/itssahil/PROJECTS/Mol_Feturizer/New_Systems/rnas/4znp

>  <Rbt.Executable>
rbdock ($Id: //depot/dev/client3/rdock/2013.1/src/exe/rbdock.cxx#4 $)

>  <Rbt.Library>
libRbt.so (2013.1, Build901 2013/11/27)

>  <Rbt.Parameter_File>
/export/apps/rDock/src/rDock_2013.1_src/data/scripts/dock_solv.prm

>  <Rbt.Receptor>
prm/pocket_docking_5.prm

>  <SCORE>
-25.9608

>  <SCORE.INTER>
-19.7414

>  <SCORE.INTER.CONST>
1

>  <SCORE.INTER.POLAR>
0

>  <SCORE.INTER.ROT>
5

>  <SCORE.INTER.SOLV>
21.7163

>  <SCORE.INTER.VDW>
-27.333

>  <SCORE.INTER.norm>
-0.897336

>  <SCORE.INTRA>
-6.21941

>  <SCORE.INTRA.DIHEDRAL>
-9.30152

>  <SCORE.INTRA.DIHEDRAL.0>
11.9251

>  <SCORE.INTRA.POLAR>
0

>  <SCORE.INTRA.POLAR.0>
0

>  <SCORE.INTRA.REPUL>
0

>  <SCORE.INTRA.REPUL.0>
0

>  <SCORE.INTRA.SOLV>
-0.0772538

>  <SCORE.INTRA.SOLV.lig_0>
-40.9823

>  <SCORE.INTRA.VDW>
-1.53002

>  <SCORE.INTRA.VDW.0>
-0.53506

>  <SCORE.INTRA.norm>
-0.2827

>  <SCORE.RESTR>
0

>  <SCORE.RESTR.CAVITY>
0

>  <SCORE.RESTR.norm>
0

>  <SCORE.SYSTEM>
0

>  <SCORE.SYSTEM.CONST>
0

>  <SCORE.SYSTEM.DIHEDRAL>
0

>  <SCORE.SYSTEM.SOLV>
0

>  <SCORE.SYSTEM.norm>
0

>  <SCORE.heavy>
22

>  <SCORE.norm>
-1.18004

>  <RMSD>
1.505

$$$$
lig.pdb
 OpenBabel11021811523D
libRbt.so/2013.1/901 2013/11/27
 22 23  0  0  0  0  0  0  0  0999 V2000
   57.5628  -18.3864    8.0432 O   0  0  0  0  0  0  0  0  0  0  0  0
   56.9540  -17.3466    8.1361 C   0  0  0  0  0  0  0  0  0  0  0  0
   55.7085  -17.2229    7.7129 N   0  0  0  0  0  0  0  0  0  0  0  0
   57.6100  -16.1552    8.6934 C   0  0  0  0  0  0  0  0  0  0  0  0
   58.9416  -16.1372    9.3030 C   0  0  0  0  0  0  0  0  0  0  0  0
   59.7486  -17.2085    9.4595 N   0  0  0  0  0  0  0  0  0  0  0  0
   57.1875  -14.8837    8.7789 N   0  0  0  0  0  0  0  0  0  0  0  0
   58.1702  -14.1404    9.3590 C   0  0  0  0  0  0  0  0  0  0  0  0
   59.2465  -14.8994    9.6760 N   0  0  0  0  0  0  0  0  0  0  0  0
   60.4960  -14.4125   10.3217 C   0  0  1  0  0  0  0  0  0  0  0  0
   61.3077  -13.6283    9.3136 C   0  0  1  0  0  0  0  0  0  0  0  0
   61.8754  -12.4878   10.1180 C   0  0  2  0  0  0  0  0  0  0  0  0
   63.1517  -12.8593   10.6539 O   0  0  0  0  0  0  0  0  0  0  0  0
   62.3326  -14.4457    8.7272 O   0  0  0  0  0  0  0  0  0  0  0  0
   60.1862  -13.5004   11.3723 O   0  0  0  0  0  0  0  0  0  0  0  0
   60.9113  -12.2993   11.2603 C   0  0  2  0  0  0  0  0  0  0  0  0
   59.8801  -11.2033   11.0871 C   0  0  0  0  0  0  0  0  0  0  0  0
   58.9878  -11.1479   12.1811 O   0  0  0  0  0  0  0  0  0  0  0  0
   57.8706  -10.0060   12.1981 P   0  0  0  0  0  0  0  0  0  0  0  0
   57.1490  -10.1429   10.8724 O   0  0  0  0  0  0  0  0  0  0  0  0
   58.6974   -8.7550   12.3471 O   0  0  0  0  0  0  0  0  0  0  0  0
   57.0748  -10.3169   13.4354 O   0  0  0  0  0  0  0  0  0  0  0  0
  2  1  2  0  0  0  0
  2  4  1  0  0  0  0
  3  2  1  0  0  0  0
  4  7  1  0  0  0  0
  4  5  2  0  0  0  0
  5  6  1  0  0  0  0
  5  9  1  0  0  0  0
  7  8  2  0  0  0  0
  8  9  1  0  0  0  0
 10  9  1  6  0  0  0
 10 15  1  0  0  0  0
 11 14  1  1  0  0  0
 11 12  1  0  0  0  0
 11 10  1  0  0  0  0
 12 13  1  1  0  0  0
 12 16  1  0  0  0  0
 16 17  1  6  0  0  0
 16 15  1  0  0  0  0
 18 19  1  0  0  0  0
 18 17  1  0  0  0  0
 19 21  1  0  0  0  0
 20 19  1  0  0  0  0
 22 19  2  0  0  0  0
M  END
>  <CHROM.1>
-7.05559946,106.80101690,177.26971459,53.55439935,177.33025033,59.08830034
-13.41021182,10.31077918,1.64861262,-0.01754086,-2.64282365

>  <Name>
lig.pdb

>  <RI>
0

>  <Rbt.Current_Directory>
/home/itssahil/PROJECTS/Mol_Feturizer/New_Systems/rnas/4znp

>  <Rbt.Executable>
rbdock ($Id: //depot/dev/client3/rdock/2013.1/src/exe/rbdock.cxx#4 $)

>  <Rbt.Library>
libRbt.so (2013.1, Build901 2013/11/27)

>  <Rbt.Parameter_File>
/export/apps/rDock/src/rDock_2013.1_src/data/scripts/dock_solv.prm

>  <Rbt.Receptor>
prm/pocket_docking_5.prm

>  <SCORE>
-26.1888

>  <SCORE.INTER>
-19.9213

>  <SCORE.INTER.CONST>
1

>  <SCORE.INTER.POLAR>
0

>  <SCORE.INTER.ROT>
5

>  <SCORE.INTER.SOLV>
21.0111

>  <SCORE.INTER.VDW>
-27.2179

>  <SCORE.INTER.norm>
-0.905514

>  <SCORE.INTRA>
-6.26751

>  <SCORE.INTRA.DIHEDRAL>
-9.28979

>  <SCORE.INTRA.DIHEDRAL.0>
11.9251

>  <SCORE.INTRA.POLAR>
0

>  <SCORE.INTRA.POLAR.0>
0

>  <SCORE.INTRA.REPUL>
0

>  <SCORE.INTRA.REPUL.0>
0

>  <SCORE.INTRA.SOLV>
-0.282955

>  <SCORE.INTRA.SOLV.lig_0>
-40.9823

>  <SCORE.INTRA.VDW>
-1.48114

>  <SCORE.INTRA.VDW.0>
-0.53506

>  <SCORE.INTRA.norm>
-0.284887

>  <SCORE.RESTR>
0

>  <SCORE.RESTR.CAVITY>
0

>  <SCORE.RESTR.norm>
0

>  <SCORE.SYSTEM>
0

>  <SCORE.SYSTEM.CONST>
0

>  <SCORE.SYSTEM.DIHEDRAL>
0

>  <SCORE.SYSTEM.SOLV>
0

>  <SCORE.SYSTEM.norm>
0

>  <SCORE.heavy>
22

>  <SCORE.norm>
-1.1904

>  <RMSD>
1.525

$$$$
lig.pdb
 OpenBabel11021811523D
libRbt.so/2013.1/901 2013/11/27
 22 23  0  0  0  0  0  0  0  0999 V2000
   57.5088  -18.3732    8.0625 O   0  0  0  0  0  0  0  0  0  0  0  0
   56.8936  -17.3416    8.1960 C   0  0  0  0  0  0  0  0  0  0  0  0
   55.6252  -17.2307    7.8429 N   0  0  0  0  0  0  0  0  0  0  0  0
   57.5649  -16.1457    8.7246 C   0  0  0  0  0  0  0  0  0  0  0  0
   58.9014  -16.1283    9.3235 C   0  0  0  0  0  0  0  0  0  0  0  0
   59.6997  -17.2039    9.4949 N   0  0  0  0  0  0  0  0  0  0  0  0
   57.1549  -14.8689    8.7882 N   0  0  0  0  0  0  0  0  0  0  0  0
   58.1490  -14.1236    9.3460 C   0  0  0  0  0  0  0  0  0  0  0  0
   59.2207  -14.8863    9.6696 N   0  0  0  0  0  0  0  0  0  0  0  0
   60.4797  -14.3987   10.2959 C   0  0  1  0  0  0  0  0  0  0  0  0
   61.2735  -13.6108    9.2764 C   0  0  1  0  0  0  0  0  0  0  0  0
   61.8523  -12.4710   10.0741 C   0  0  2  0  0  0  0  0  0  0  0  0
   63.1378  -12.8414   10.5882 O   0  0  0  0  0  0  0  0  0  0  0  0
   62.2901  -14.4251    8.6716 O   0  0  0  0  0  0  0  0  0  0  0  0
   60.1855  -13.4893   11.3534 O   0  0  0  0  0  0  0  0  0  0  0  0
   60.9065  -12.2868   11.2323 C   0  0  2  0  0  0  0  0  0  0  0  0
   59.8708  -11.1922   11.0784 C   0  0  0  0  0  0  0  0  0  0  0  0
   59.0209  -11.1151   12.2044 O   0  0  0  0  0  0  0  0  0  0  0  0
   57.8774   -9.9995   12.2229 P   0  0  0  0  0  0  0  0  0  0  0  0
   57.0700  -10.2439   10.9638 O   0  0  0  0  0  0  0  0  0  0  0  0
   58.6788   -8.7234   12.2281 O   0  0  0  0  0  0  0  0  0  0  0  0
   57.1774  -10.2412   13.5315 O   0  0  0  0  0  0  0  0  0  0  0  0
  2  1  2  0  0  0  0
  2  4  1  0  0  0  0
  3  2  1  0  0  0  0
  4  7  1  0  0  0  0
  4  5  2  0  0  0  0
  5  6  1  0  0  0  0
  5  9  1  0  0  0  0
  7  8  2  0  0  0  0
  8  9  1  0  0  0  0
 10  9  1  6  0  0  0
 10 15  1  0  0  0  0
 11 14  1  1  0  0  0
 11 12  1  0  0  0  0
 11 10  1  0  0  0  0
 12 13  1  1  0  0  0
 12 16  1  0  0  0  0
 16 17  1  6  0  0  0
 16 15  1  0  0  0  0
 18 19  1  0  0  0  0
 18 17  1  0  0  0  0
 19 21  1  0  0  0  0
 20 19  1  0  0  0  0
 22 19  2  0  0  0  0
M  END
>  <CHROM.1>
-10.39427315,108.28979961,178.99684723,56.01193972,179.18263925,59.06767386
-13.39924362,10.31668428,1.65734746,-0.03585402,-2.64405694

>  <Name>
lig.pdb

>  <RI>
0

>  <Rbt.Current_Directory>
/home/itssahil/PROJECTS/Mol_Feturizer/New_Systems/rnas/4znp

>  <Rbt.Executable>
rbdock ($Id: //depot/dev/client3/rdock/2013.1/src/exe/rbdock.cxx#4 $)

>  <Rbt.Library>
libRbt.so (2013.1, Build901 2013/11/27)

>  <Rbt.Parameter_File>
/export/apps/rDock/src/rDock_2013.1_src/data/scripts/dock_solv.prm

>  <Rbt.Receptor>
prm/pocket_docking_6.prm

>  <SCORE>
-26.2144

>  <SCORE.INTER>
-19.9662

>  <SCORE.INTER.CONST>
1

>  <SCORE.INTER.POLAR>
0

>  <SCORE.INTER.ROT>
5

>  <SCORE.INTER.SOLV>
20.8816

>  <SCORE.INTER.VDW>
-27.2047

>  <SCORE.INTER.norm>
-0.907556

>  <SCORE.INTRA>
-6.24814

>  <SCORE.INTRA.DIHEDRAL>
-9.2025

>  <SCORE.INTRA.DIHEDRAL.0>
11.9251

>  <SCORE.INTRA.POLAR>
0

>  <SCORE.INTRA.POLAR.0>
0

>  <SCORE.INTRA.REPUL>
0

>  <SCORE.INTRA.REPUL.0>
0

>  <SCORE.INTRA.SOLV>
-0.303804

>  <SCORE.INTRA.SOLV.lig_0>
-40.9823

>  <SCORE.INTRA.VDW>
-1.49499

>  <SCORE.INTRA.VDW.0>
-0.53506

>  <SCORE.INTRA.norm>
-0.284006

>  <SCORE.RESTR>
0

>  <SCORE.RESTR.CAVITY>
0

>  <SCORE.RESTR.norm>
0

>  <SCORE.SYSTEM>
0

>  <SCORE.SYSTEM.CONST>
0

>  <SCORE.SYSTEM.DIHEDRAL>
0

>  <SCORE.SYSTEM.SOLV>
0

>  <SCORE.SYSTEM.norm>
0

>  <SCORE.heavy>
22

>  <SCORE.norm>
-1.19156

>  <RMSD>
1.525

$$$$
lig.pdb
 OpenBabel11021811523D
libRbt.so/2013.1/901 2013/11/27
 22 23  0  0  0  0  0  0  0  0999 V2000
   55.8559  -17.1287    7.8635 O   0  0  0  0  0  0  0  0  0  0  0  0
   57.0157  -17.1699    8.2006 C   0  0  0  0  0  0  0  0  0  0  0  0
   57.7260  -18.2821    8.1353 N   0  0  0  0  0  0  0  0  0  0  0  0
   57.6686  -15.9708    8.7446 C   0  0  0  0  0  0  0  0  0  0  0  0
   59.0040  -15.9408    9.3456 C   0  0  0  0  0  0  0  0  0  0  0  0
   59.8178  -17.0065    9.5051 N   0  0  0  0  0  0  0  0  0  0  0  0
   57.2397  -14.7010    8.8231 N   0  0  0  0  0  0  0  0  0  0  0  0
   58.2219  -13.9479    9.3912 C   0  0  0  0  0  0  0  0  0  0  0  0
   59.3044  -14.6985    9.7071 N   0  0  0  0  0  0  0  0  0  0  0  0
   60.5553  -14.2000   10.3411 C   0  0  1  0  0  0  0  0  0  0  0  0
   61.3326  -13.3779    9.3360 C   0  0  1  0  0  0  0  0  0  0  0  0
   61.8917  -12.2433   10.1548 C   0  0  2  0  0  0  0  0  0  0  0  0
   63.1847  -12.5998   10.6599 O   0  0  0  0  0  0  0  0  0  0  0  0
   62.3631  -14.1614    8.7141 O   0  0  0  0  0  0  0  0  0  0  0  0
   60.2462  -13.3169   11.4164 O   0  0  0  0  0  0  0  0  0  0  0  0
   60.9447  -12.0991   11.3178 C   0  0  2  0  0  0  0  0  0  0  0  0
   59.8887  -11.0211   11.1866 C   0  0  0  0  0  0  0  0  0  0  0  0
   59.0405  -10.9805   12.3157 O   0  0  0  0  0  0  0  0  0  0  0  0
   57.8432   -9.9228   12.3337 P   0  0  0  0  0  0  0  0  0  0  0  0
   58.5111   -8.5711   12.1802 O   0  0  0  0  0  0  0  0  0  0  0  0
   57.2172  -10.1748   13.6811 O   0  0  0  0  0  0  0  0  0  0  0  0
   56.9639  -10.3741   11.2006 O   0  0  0  0  0  0  0  0  0  0  0  0
  2  1  2  0  0  0  0
  2  4  1  0  0  0  0
  3  2  1  0  0  0  0
  4  7  1  0  0  0  0
  4  5  2  0  0  0  0
  5  6  1  0  0  0  0
  5  9  1  0  0  0  0
  7  8  2  0  0  0  0
  8  9  1  0  0  0  0
 10  9  1  6  0  0  0
 10 15  1  0  0  0  0
 11 14  1  1  0  0  0
 11 12  1  0  0  0  0
 11 10  1  0  0  0  0
 12 13  1  1  0  0  0
 12 16  1  0  0  0  0
 16 17  1  6  0  0  0
 16 15  1  0  0  0  0
 18 19  1  0  0  0  0
 18 17  1  0  0  0  0
 19 21  1  0  0  0  0
 20 19  1  0  0  0  0
 22 19  2  0  0  0  0
M  END
>  <CHROM.1>
171.58345586,108.78865674,179.06811703,-58.46881301,-178.57983645,59.10796572
-13.24219824,10.38249520,1.64160230,-0.04955357,-2.62825630

>  <Name>
lig.pdb

>  <RI>
0

>  <Rbt.Current_Directory>
/home/itssahil/PROJECTS/Mol_Feturizer/New_Systems/rnas/4znp

>  <Rbt.Executable>
rbdock ($Id: //depot/dev/client3/rdock/2013.1/src/exe/rbdock.cxx#4 $)

>  <Rbt.Library>
libRbt.so (2013.1, Build901 2013/11/27)

>  <Rbt.Parameter_File>
/export/apps/rDock/src/rDock_2013.1_src/data/scripts/dock_solv.prm

>  <Rbt.Receptor>
prm/pocket_docking_4.prm

>  <SCORE>
-25.2859

>  <SCORE.INTER>
-19.2118

>  <SCORE.INTER.CONST>
1

>  <SCORE.INTER.POLAR>
0

>  <SCORE.INTER.ROT>
5

>  <SCORE.INTER.SOLV>
20.1554

>  <SCORE.INTER.VDW>
-26.4597

>  <SCORE.INTER.norm>
-0.873265

>  <SCORE.INTRA>
-6.07406

>  <SCORE.INTRA.DIHEDRAL>
-9.31671

>  <SCORE.INTRA.DIHEDRAL.0>
11.9251

>  <SCORE.INTRA.POLAR>
0

>  <SCORE.INTRA.POLAR.0>
0

>  <SCORE.INTRA.REPUL>
0

>  <SCORE.INTRA.REPUL.0>
0

>  <SCORE.INTRA.SOLV>
0.236921

>  <SCORE.INTRA.SOLV.lig_0>
-40.9823

>  <SCORE.INTRA.VDW>
-1.53416

>  <SCORE.INTRA.VDW.0>
-0.53506

>  <SCORE.INTRA.norm>
-0.276094

>  <SCORE.RESTR>
0

>  <SCORE.RESTR.CAVITY>
0

>  <SCORE.RESTR.norm>
0

>  <SCORE.SYSTEM>
0

>  <SCORE.SYSTEM.CONST>
0

>  <SCORE.SYSTEM.DIHEDRAL>
0

>  <SCORE.SYSTEM.SOLV>
0

>  <SCORE.SYSTEM.norm>
0

>  <SCORE.heavy>
22

>  <SCORE.norm>
-1.14936

>  <RMSD>
1.527

$$$$
lig.pdb
 OpenBabel11021811523D
libRbt.so/2013.1/901 2013/11/27
 22 23  0  0  0  0  0  0  0  0999 V2000
   57.4582  -18.4064    8.0293 O   0  0  0  0  0  0  0  0  0  0  0  0
   56.8365  -17.3780    8.1577 C   0  0  0  0  0  0  0  0  0  0  0  0
   55.5725  -17.2717    7.7877 N   0  0  0  0  0  0  0  0  0  0  0  0
   57.4950  -16.1808    8.6992 C   0  0  0  0  0  0  0  0  0  0  0  0
   58.8270  -16.1576    9.3080 C   0  0  0  0  0  0  0  0  0  0  0  0
   59.6319  -17.2284    9.4781 N   0  0  0  0  0  0  0  0  0  0  0  0
   57.0752  -14.9075    8.7683 N   0  0  0  0  0  0  0  0  0  0  0  0
   58.0596  -14.1587    9.3384 C   0  0  0  0  0  0  0  0  0  0  0  0
   59.1345  -14.9157    9.6647 N   0  0  0  0  0  0  0  0  0  0  0  0
   60.3853  -14.4230   10.3036 C   0  0  1  0  0  0  0  0  0  0  0  0
   61.1841  -13.6287    9.2932 C   0  0  1  0  0  0  0  0  0  0  0  0
   61.7498  -12.4878   10.0987 C   0  0  2  0  0  0  0  0  0  0  0  0
   63.0325  -12.8528   10.6236 O   0  0  0  0  0  0  0  0  0  0  0  0
   62.2105  -14.4363    8.6958 O   0  0  0  0  0  0  0  0  0  0  0  0
   60.0768  -13.5177   11.3605 O   0  0  0  0  0  0  0  0  0  0  0  0
   60.7927  -12.3112   11.2487 C   0  0  2  0  0  0  0  0  0  0  0  0
   59.7527  -11.2216   11.0879 C   0  0  0  0  0  0  0  0  0  0  0  0
   58.9747  -11.0654   12.2568 O   0  0  0  0  0  0  0  0  0  0  0  0
   57.8115   -9.9702   12.2591 P   0  0  0  0  0  0  0  0  0  0  0  0
   56.8550  -10.4111   11.1693 O   0  0  0  0  0  0  0  0  0  0  0  0
   58.5696   -8.7013   11.9663 O   0  0  0  0  0  0  0  0  0  0  0  0
   57.2944  -10.0155   13.6703 O   0  0  0  0  0  0  0  0  0  0  0  0
  2  1  2  0  0  0  0
  2  4  1  0  0  0  0
  3  2  1  0  0  0  0
  4  7  1  0  0  0  0
  4  5  2  0  0  0  0
  5  6  1  0  0  0  0
  5  9  1  0  0  0  0
  7  8  2  0  0  0  0
  8  9  1  0  0  0  0
 10  9  1  6  0  0  0
 10 15  1  0  0  0  0
 11 14  1  1  0  0  0
 11 12  1  0  0  0  0
 11 10  1  0  0  0  0
 12 13  1  1  0  0  0
 12 16  1  0  0  0  0
 16 17  1  6  0  0  0
 16 15  1  0  0  0  0
 18 19  1  0  0  0  0
 18 17  1  0  0  0  0
 19 21  1  0  0  0  0
 20 19  1  0  0  0  0
 22 19  2  0  0  0  0
M  END
>  <CHROM.1>
-9.95460007,107.99222118,-175.35124672,61.61166844,-179.16467186,58.98873485
-13.40951942,10.32394438,1.65335219,-0.02970620,-2.64106438

>  <Name>
lig.pdb

>  <RI>
0

>  <Rbt.Current_Directory>
/home/itssahil/PROJECTS/Mol_Feturizer/New_Systems/rnas/4znp

>  <Rbt.Executable>
rbdock ($Id: //depot/dev/client3/rdock/2013.1/src/exe/rbdock.cxx#4 $)

>  <Rbt.Library>
libRbt.so (2013.1, Build901 2013/11/27)

>  <Rbt.Parameter_File>
/export/apps/rDock/src/rDock_2013.1_src/data/scripts/dock_solv.prm

>  <Rbt.Receptor>
prm/pocket_docking_5.prm

>  <SCORE>
-26.203

>  <SCORE.INTER>
-19.9952

>  <SCORE.INTER.CONST>
1

>  <SCORE.INTER.POLAR>
0

>  <SCORE.INTER.ROT>
5

>  <SCORE.INTER.SOLV>
20.9199

>  <SCORE.INTER.VDW>
-27.2368

>  <SCORE.INTER.norm>
-0.908874

>  <SCORE.INTRA>
-6.20775

>  <SCORE.INTRA.DIHEDRAL>
-9.16715

>  <SCORE.INTRA.DIHEDRAL.0>
11.9251

>  <SCORE.INTRA.POLAR>
0

>  <SCORE.INTRA.POLAR.0>
0

>  <SCORE.INTRA.REPUL>
0

>  <SCORE.INTRA.REPUL.0>
0

>  <SCORE.INTRA.SOLV>
-0.314991

>  <SCORE.INTRA.SOLV.lig_0>
-40.9823

>  <SCORE.INTRA.VDW>
-1.46668

>  <SCORE.INTRA.VDW.0>
-0.53506

>  <SCORE.INTRA.norm>
-0.28217

>  <SCORE.RESTR>
0

>  <SCORE.RESTR.CAVITY>
0

>  <SCORE.RESTR.norm>
0

>  <SCORE.SYSTEM>
0

>  <SCORE.SYSTEM.CONST>
0

>  <SCORE.SYSTEM.DIHEDRAL>
0

>  <SCORE.SYSTEM.SOLV>
0

>  <SCORE.SYSTEM.norm>
0

>  <SCORE.heavy>
22

>  <SCORE.norm>
-1.19104

>  <RMSD>
1.541

$$$$
lig.pdb
 OpenBabel11021811523D
libRbt.so/2013.1/901 2013/11/27
 22 23  0  0  0  0  0  0  0  0999 V2000
   55.7078  -17.0977    7.8032 O   0  0  0  0  0  0  0  0  0  0  0  0
   56.8647  -17.1830    8.1420 C   0  0  0  0  0  0  0  0  0  0  0  0
   57.5363  -18.3182    8.0648 N   0  0  0  0  0  0  0  0  0  0  0  0
   57.5574  -16.0136    8.7013 C   0  0  0  0  0  0  0  0  0  0  0  0
   58.9024  -16.0318    9.2810 C   0  0  0  0  0  0  0  0  0  0  0  0
   59.6902  -17.1215    9.4040 N   0  0  0  0  0  0  0  0  0  0  0  0
   57.1635  -14.7351    8.8143 N   0  0  0  0  0  0  0  0  0  0  0  0
   58.1740  -14.0207    9.3827 C   0  0  0  0  0  0  0  0  0  0  0  0
   59.2411  -14.8061    9.6645 N   0  0  0  0  0  0  0  0  0  0  0  0
   60.5145  -14.3544   10.2889 C   0  0  1  0  0  0  0  0  0  0  0  0
   61.3369  -13.6054    9.2628 C   0  0  1  0  0  0  0  0  0  0  0  0
   61.9522  -12.4770   10.0494 C   0  0  2  0  0  0  0  0  0  0  0  0
   63.2232  -12.8850   10.5710 O   0  0  0  0  0  0  0  0  0  0  0  0
   62.3268  -14.4604    8.6699 O   0  0  0  0  0  0  0  0  0  0  0  0
   60.2488  -13.4239   11.3354 O   0  0  0  0  0  0  0  0  0  0  0  0
   61.0106  -12.2479   11.2029 C   0  0  2  0  0  0  0  0  0  0  0  0
   60.0129  -11.1206   11.0341 C   0  0  0  0  0  0  0  0  0  0  0  0
   59.1710  -10.9948   12.1616 O   0  0  0  0  0  0  0  0  0  0  0  0
   58.1012   -9.8085   12.1872 P   0  0  0  0  0  0  0  0  0  0  0  0
   57.4153   -9.9274   13.5334 O   0  0  0  0  0  0  0  0  0  0  0  0
   57.2342  -10.1371   10.9993 O   0  0  0  0  0  0  0  0  0  0  0  0
   58.9389   -8.5803   11.9623 O   0  0  0  0  0  0  0  0  0  0  0  0
  2  1  2  0  0  0  0
  2  4  1  0  0  0  0
  3  2  1  0  0  0  0
  4  7  1  0  0  0  0
  4  5  2  0  0  0  0
  5  6  1  0  0  0  0
  5  9  1  0  0  0  0
  7  8  2  0  0  0  0
  8  9  1  0  0  0  0
 10  9  1  6  0  0  0
 10 15  1  0  0  0  0
 11 14  1  1  0  0  0
 11 12  1  0  0  0  0
 11 10  1  0  0  0  0
 12 13  1  1  0  0  0
 12 16  1  0  0  0  0
 16 17  1  6  0  0  0
 16 15  1  0  0  0  0
 18 19  1  0  0  0  0
 18 17  1  0  0  0  0
 19 21  1  0  0  0  0
 20 19  1  0  0  0  0
 22 19  2  0  0  0  0
M  END
>  <CHROM.1>
172.86055804,105.23847173,179.49960744,-177.88250369,177.08641107,59.14930817
-13.29612602,10.28455866,1.68521922,-0.01448824,-2.65003092

>  <Name>
lig.pdb

>  <RI>
0

>  <Rbt.Current_Directory>
/home/itssahil/PROJECTS/Mol_Feturizer/New_Systems/rnas/4znp

>  <Rbt.Executable>
rbdock ($Id: //depot/dev/client3/rdock/2013.1/src/exe/rbdock.cxx#4 $)

>  <Rbt.Library>
libRbt.so (2013.1, Build901 2013/11/27)

>  <Rbt.Parameter_File>
/export/apps/rDock/src/rDock_2013.1_src/data/scripts/dock_solv.prm

>  <Rbt.Receptor>
prm/pocket_docking_3.prm

>  <SCORE>
-25.6032

>  <SCORE.INTER>
-19.6875

>  <SCORE.INTER.CONST>
1

>  <SCORE.INTER.POLAR>
0

>  <SCORE.INTER.ROT>
5

>  <SCORE.INTER.SOLV>
20.0366

>  <SCORE.INTER.VDW>
-26.7372

>  <SCORE.INTER.norm>
-0.894888

>  <SCORE.INTRA>
-5.91571

>  <SCORE.INTRA.DIHEDRAL>
-9.34693

>  <SCORE.INTRA.DIHEDRAL.0>
11.9251

>  <SCORE.INTRA.POLAR>
0

>  <SCORE.INTRA.POLAR.0>
0

>  <SCORE.INTRA.REPUL>
0

>  <SCORE.INTRA.REPUL.0>
0

>  <SCORE.INTRA.SOLV>
0.211907

>  <SCORE.INTRA.SOLV.lig_0>
-40.9823

>  <SCORE.INTRA.VDW>
-1.3482

>  <SCORE.INTRA.VDW.0>
-0.53506

>  <SCORE.INTRA.norm>
-0.268896

>  <SCORE.RESTR>
0

>  <SCORE.RESTR.CAVITY>
0

>  <SCORE.RESTR.norm>
0

>  <SCORE.SYSTEM>
0

>  <SCORE.SYSTEM.CONST>
0

>  <SCORE.SYSTEM.DIHEDRAL>
0

>  <SCORE.SYSTEM.SOLV>
0

>  <SCORE.SYSTEM.norm>
0

>  <SCORE.heavy>
22

>  <SCORE.norm>
-1.16378

>  <RMSD>
1.552

$$$$
lig.pdb
 OpenBabel11021811523D
libRbt.so/2013.1/901 2013/11/27
 22 23  0  0  0  0  0  0  0  0999 V2000
   55.8487  -17.1182    7.7920 O   0  0  0  0  0  0  0  0  0  0  0  0
   56.9954  -17.1563    8.1713 C   0  0  0  0  0  0  0  0  0  0  0  0
   57.7065  -18.2695    8.1442 N   0  0  0  0  0  0  0  0  0  0  0  0
   57.6295  -15.9514    8.7250 C   0  0  0  0  0  0  0  0  0  0  0  0
   58.9339  -15.9189    9.3905 C   0  0  0  0  0  0  0  0  0  0  0  0
   59.7311  -16.9866    9.6092 N   0  0  0  0  0  0  0  0  0  0  0  0
   57.2065  -14.6777    8.7592 N   0  0  0  0  0  0  0  0  0  0  0  0
   58.1650  -13.9205    9.3614 C   0  0  0  0  0  0  0  0  0  0  0  0
   59.2251  -14.6721    9.7438 N   0  0  0  0  0  0  0  0  0  0  0  0
   60.4469  -14.1699   10.4296 C   0  0  1  0  0  0  0  0  0  0  0  0
   61.5472  -13.9707    9.4098 C   0  0  1  0  0  0  0  0  0  0  0  0
   62.2340  -12.7087    9.8636 C   0  0  2  0  0  0  0  0  0  0  0  0
   63.3065  -13.0336   10.7570 O   0  0  0  0  0  0  0  0  0  0  0  0
   62.4376  -15.0973    9.3837 O   0  0  0  0  0  0  0  0  0  0  0  0
   60.2015  -12.8864   10.9991 O   0  0  0  0  0  0  0  0  0  0  0  0
   61.1836  -11.9482   10.6306 C   0  0  2  0  0  0  0  0  0  0  0  0
   60.4570  -10.8614    9.8654 C   0  0  0  0  0  0  0  0  0  0  0  0
   61.2849   -9.7392    9.6388 O   0  0  0  0  0  0  0  0  0  0  0  0
   60.7141   -8.5347    8.7579 P   0  0  0  0  0  0  0  0  0  0  0  0
   60.4310   -9.1422    7.3986 O   0  0  0  0  0  0  0  0  0  0  0  0
   61.8540   -7.5496    8.7906 O   0  0  0  0  0  0  0  0  0  0  0  0
   59.5250   -8.0606    9.5466 O   0  0  0  0  0  0  0  0  0  0  0  0
  2  1  2  0  0  0  0
  2  4  1  0  0  0  0
  3  2  1  0  0  0  0
  4  7  1  0  0  0  0
  4  5  2  0  0  0  0
  5  6  1  0  0  0  0
  5  9  1  0  0  0  0
  7  8  2  0  0  0  0
  8  9  1  0  0  0  0
 10  9  1  6  0  0  0
 10 15  1  0  0  0  0
 11 14  1  1  0  0  0
 11 12  1  0  0  0  0
 11 10  1  0  0  0  0
 12 13  1  1  0  0  0
 12 16  1  0  0  0  0
 16 17  1  6  0  0  0
 16 15  1  0  0  0  0
 18 19  1  0  0  0  0
 18 17  1  0  0  0  0
 19 21  1  0  0  0  0
 20 19  1  0  0  0  0
 22 19  2  0  0  0  0
M  END
>  <CHROM.1>
170.66154355,82.15723206,-72.44254014,-61.27613311,175.89342628,59.96996325
-12.90639516,9.29589867,1.99055480,0.39774514,3.02183297

>  <Name>
lig.pdb

>  <RI>
0

>  <Rbt.Current_Directory>
/home/itssahil/PROJECTS/Mol_Feturizer/New_Systems/rnas/4znp

>  <Rbt.Executable>
rbdock ($Id: //depot/dev/client3/rdock/2013.1/src/exe/rbdock.cxx#4 $)

>  <Rbt.Library>
libRbt.so (2013.1, Build901 2013/11/27)

>  <Rbt.Parameter_File>
/export/apps/rDock/src/rDock_2013.1_src/data/scripts/dock_solv.prm

>  <Rbt.Receptor>
prm/pocket_docking_6.prm

>  <SCORE>
-26.0559

>  <SCORE.INTER>
-20.5493

>  <SCORE.INTER.CONST>
1

>  <SCORE.INTER.POLAR>
0

>  <SCORE.INTER.ROT>
5

>  <SCORE.INTER.SOLV>
21.2754

>  <SCORE.INTER.VDW>
-27.7247

>  <SCORE.INTER.norm>
-0.93406

>  <SCORE.INTRA>
-5.50796

>  <SCORE.INTRA.DIHEDRAL>
-8.67259

>  <SCORE.INTRA.DIHEDRAL.0>
11.9251

>  <SCORE.INTRA.POLAR>
0

>  <SCORE.INTRA.POLAR.0>
0

>  <SCORE.INTRA.REPUL>
0

>  <SCORE.INTRA.REPUL.0>
0

>  <SCORE.INTRA.SOLV>
0.471661

>  <SCORE.INTRA.SOLV.lig_0>
-40.9823

>  <SCORE.INTRA.VDW>
-1.4075

>  <SCORE.INTRA.VDW.0>
-0.53506

>  <SCORE.INTRA.norm>
-0.250362

>  <SCORE.RESTR>
0.00136339

>  <SCORE.RESTR.CAVITY>
0.00136339

>  <SCORE.RESTR.norm>
6.19723e-05

>  <SCORE.SYSTEM>
0

>  <SCORE.SYSTEM.CONST>
0

>  <SCORE.SYSTEM.DIHEDRAL>
0

>  <SCORE.SYSTEM.SOLV>
0

>  <SCORE.SYSTEM.norm>
0

>  <SCORE.heavy>
22

>  <SCORE.norm>
-1.18436

>  <RMSD>
1.556

$$$$
lig.pdb
 OpenBabel11021811523D
libRbt.so/2013.1/901 2013/11/27
 22 23  0  0  0  0  0  0  0  0999 V2000
   57.5136  -18.4706    7.9744 O   0  0  0  0  0  0  0  0  0  0  0  0
   56.8860  -17.4510    8.1388 C   0  0  0  0  0  0  0  0  0  0  0  0
   55.6077  -17.3550    7.8188 N   0  0  0  0  0  0  0  0  0  0  0  0
   57.5516  -16.2527    8.6691 C   0  0  0  0  0  0  0  0  0  0  0  0
   58.8942  -16.2269    9.2539 C   0  0  0  0  0  0  0  0  0  0  0  0
   59.7043  -17.2960    9.4089 N   0  0  0  0  0  0  0  0  0  0  0  0
   57.1303  -14.9803    8.7464 N   0  0  0  0  0  0  0  0  0  0  0  0
   58.1232  -14.2296    9.2991 C   0  0  0  0  0  0  0  0  0  0  0  0
   59.2054  -14.9845    9.6057 N   0  0  0  0  0  0  0  0  0  0  0  0
   60.4665  -14.4894   10.2222 C   0  0  1  0  0  0  0  0  0  0  0  0
   61.1929  -13.6036    9.2335 C   0  0  1  0  0  0  0  0  0  0  0  0
   61.7558  -12.4973   10.0877 C   0  0  2  0  0  0  0  0  0  0  0  0
   63.0719  -12.8492   10.5329 O   0  0  0  0  0  0  0  0  0  0  0  0
   62.2178  -14.3338    8.5414 O   0  0  0  0  0  0  0  0  0  0  0  0
   60.1755  -13.6656   11.3485 O   0  0  0  0  0  0  0  0  0  0  0  0
   60.8455  -12.4295   11.2863 C   0  0  2  0  0  0  0  0  0  0  0  0
   59.7640  -11.3699   11.2417 C   0  0  0  0  0  0  0  0  0  0  0  0
   58.9515  -11.4036   12.3970 O   0  0  0  0  0  0  0  0  0  0  0  0
   57.7334  -10.3753   12.5042 P   0  0  0  0  0  0  0  0  0  0  0  0
   58.3734   -9.0023   12.4566 O   0  0  0  0  0  0  0  0  0  0  0  0
   57.1202  -10.7466   13.8296 O   0  0  0  0  0  0  0  0  0  0  0  0
   56.8570  -10.7525   11.3421 O   0  0  0  0  0  0  0  0  0  0  0  0
  2  1  2  0  0  0  0
  2  4  1  0  0  0  0
  3  2  1  0  0  0  0
  4  7  1  0  0  0  0
  4  5  2  0  0  0  0
  5  6  1  0  0  0  0
  5  9  1  0  0  0  0
  7  8  2  0  0  0  0
  8  9  1  0  0  0  0
 10  9  1  6  0  0  0
 10 15  1  0  0  0  0
 11 14  1  1  0  0  0
 11 12  1  0  0  0  0
 11 10  1  0  0  0  0
 12 13  1  1  0  0  0
 12 16  1  0  0  0  0
 16 17  1  6  0  0  0
 16 15  1  0  0  0  0
 18 19  1  0  0  0  0
 18 17  1  0  0  0  0
 19 21  1  0  0  0  0
 20 19  1  0  0  0  0
 22 19  2  0  0  0  0
M  END
>  <CHROM.1>
-11.38809356,112.38433472,178.94180929,-60.79487894,-178.54280679,58.99724656
-13.57155567,10.37013356,1.64418058,-0.09365033,-2.58726872

>  <Name>
lig.pdb

>  <RI>
0

>  <Rbt.Current_Directory>
/home/itssahil/PROJECTS/Mol_Feturizer/New_Systems/rnas/4znp

>  <Rbt.Executable>
rbdock ($Id: //depot/dev/client3/rdock/2013.1/src/exe/rbdock.cxx#4 $)

>  <Rbt.Library>
libRbt.so (2013.1, Build901 2013/11/27)

>  <Rbt.Parameter_File>
/export/apps/rDock/src/rDock_2013.1_src/data/scripts/dock_solv.prm

>  <Rbt.Receptor>
prm/pocket_docking_6.prm

>  <SCORE>
-25.9928

>  <SCORE.INTER>
-19.86

>  <SCORE.INTER.CONST>
1

>  <SCORE.INTER.POLAR>
0

>  <SCORE.INTER.ROT>
5

>  <SCORE.INTER.SOLV>
21.9546

>  <SCORE.INTER.VDW>
-27.4915

>  <SCORE.INTER.norm>
-0.902728

>  <SCORE.INTRA>
-6.13279

>  <SCORE.INTRA.DIHEDRAL>
-9.13786

>  <SCORE.INTRA.DIHEDRAL.0>
11.9251

>  <SCORE.INTRA.POLAR>
0

>  <SCORE.INTRA.POLAR.0>
0

>  <SCORE.INTRA.REPUL>
0

>  <SCORE.INTRA.REPUL.0>
0

>  <SCORE.INTRA.SOLV>
-0.0358788

>  <SCORE.INTRA.SOLV.lig_0>
-40.9823

>  <SCORE.INTRA.VDW>
-1.54592

>  <SCORE.INTRA.VDW.0>
-0.53506

>  <SCORE.INTRA.norm>
-0.278763

>  <SCORE.RESTR>
0

>  <SCORE.RESTR.CAVITY>
0

>  <SCORE.RESTR.norm>
0

>  <SCORE.SYSTEM>
0

>  <SCORE.SYSTEM.CONST>
0

>  <SCORE.SYSTEM.DIHEDRAL>
0

>  <SCORE.SYSTEM.SOLV>
0

>  <SCORE.SYSTEM.norm>
0

>  <SCORE.heavy>
22

>  <SCORE.norm>
-1.18149

>  <RMSD>
1.557

$$$$
lig.pdb
 OpenBabel11021811523D
libRbt.so/2013.1/901 2013/11/27
 22 23  0  0  0  0  0  0  0  0999 V2000
   57.3832  -18.5295    7.9524 O   0  0  0  0  0  0  0  0  0  0  0  0
   56.7541  -17.5058    8.0814 C   0  0  0  0  0  0  0  0  0  0  0  0
   55.4922  -17.4056    7.7028 N   0  0  0  0  0  0  0  0  0  0  0  0
   57.4012  -16.3072    8.6336 C   0  0  0  0  0  0  0  0  0  0  0  0
   58.7128  -16.2853    9.2850 C   0  0  0  0  0  0  0  0  0  0  0  0
   59.5061  -17.3585    9.4902 N   0  0  0  0  0  0  0  0  0  0  0  0
   56.9860  -15.0312    8.6781 N   0  0  0  0  0  0  0  0  0  0  0  0
   57.9554  -14.2824    9.2732 C   0  0  0  0  0  0  0  0  0  0  0  0
   59.0152  -15.0418    9.6407 N   0  0  0  0  0  0  0  0  0  0  0  0
   60.2473  -14.5498   10.3154 C   0  0  1  0  0  0  0  0  0  0  0  0
   61.2168  -14.0348    9.2737 C   0  0  1  0  0  0  0  0  0  0  0  0
   61.8249  -12.8167    9.9194 C   0  0  2  0  0  0  0  0  0  0  0  0
   63.0069  -13.1879   10.6399 O   0  0  0  0  0  0  0  0  0  0  0  0
   62.2012  -15.0284    8.9479 O   0  0  0  0  0  0  0  0  0  0  0  0
   59.9415  -13.4372   11.1523 O   0  0  0  0  0  0  0  0  0  0  0  0
   60.7901  -12.3418   10.9062 C   0  0  2  0  0  0  0  0  0  0  0  0
   59.8925  -11.2147   10.4388 C   0  0  0  0  0  0  0  0  0  0  0  0
   58.8186  -10.9979   11.3308 O   0  0  0  0  0  0  0  0  0  0  0  0
   59.1444  -10.4813   12.8071 P   0  0  0  0  0  0  0  0  0  0  0  0
   59.8547  -11.6385   13.4801 O   0  0  0  0  0  0  0  0  0  0  0  0
   57.7710  -10.1760   13.3469 O   0  0  0  0  0  0  0  0  0  0  0  0
   59.9553   -9.2377   12.5688 O   0  0  0  0  0  0  0  0  0  0  0  0
  2  1  2  0  0  0  0
  2  4  1  0  0  0  0
  3  2  1  0  0  0  0
  4  7  1  0  0  0  0
  4  5  2  0  0  0  0
  5  6  1  0  0  0  0
  5  9  1  0  0  0  0
  7  8  2  0  0  0  0
  8  9  1  0  0  0  0
 10  9  1  6  0  0  0
 10 15  1  0  0  0  0
 11 14  1  1  0  0  0
 11 12  1  0  0  0  0
 11 10  1  0  0  0  0
 12 13  1  1  0  0  0
 12 16  1  0  0  0  0
 16 17  1  6  0  0  0
 16 15  1  0  0  0  0
 18 19  1  0  0  0  0
 18 17  1  0  0  0  0
 19 21  1  0  0  0  0
 20 19  1  0  0  0  0
 22 19  2  0  0  0  0
M  END
>  <CHROM.1>
-11.72197581,95.83099623,169.80830945,-68.07264878,65.21881241,59.30236021
-13.66990548,10.39022472,1.83914116,-0.06306427,-2.56572200

>  <Name>
lig.pdb

>  <RI>
0

>  <Rbt.Current_Directory>
/home/itssahil/PROJECTS/Mol_Feturizer/New_Systems/rnas/4znp

>  <Rbt.Executable>
rbdock ($Id: //depot/dev/client3/rdock/2013.1/src/exe/rbdock.cxx#4 $)

>  <Rbt.Library>
libRbt.so (2013.1, Build901 2013/11/27)

>  <Rbt.Parameter_File>
/export/apps/rDock/src/rDock_2013.1_src/data/scripts/dock_solv.prm

>  <Rbt.Receptor>
prm/pocket_docking_3.prm

>  <SCORE>
-25.6925

>  <SCORE.INTER>
-20.5611

>  <SCORE.INTER.CONST>
1

>  <SCORE.INTER.POLAR>
0

>  <SCORE.INTER.ROT>
5

>  <SCORE.INTER.SOLV>
21.3072

>  <SCORE.INTER.VDW>
-27.7431

>  <SCORE.INTER.norm>
-0.934596

>  <SCORE.INTRA>
-5.13134

>  <SCORE.INTRA.DIHEDRAL>
-8.55824

>  <SCORE.INTRA.DIHEDRAL.0>
11.9251

>  <SCORE.INTRA.POLAR>
0

>  <SCORE.INTRA.POLAR.0>
0

>  <SCORE.INTRA.REPUL>
0

>  <SCORE.INTRA.REPUL.0>
0

>  <SCORE.INTRA.SOLV>
1.16736

>  <SCORE.INTRA.SOLV.lig_0>
-40.9823

>  <SCORE.INTRA.VDW>
-1.4359

>  <SCORE.INTRA.VDW.0>
-0.53506

>  <SCORE.INTRA.norm>
-0.233243

>  <SCORE.RESTR>
0

>  <SCORE.RESTR.CAVITY>
0

>  <SCORE.RESTR.norm>
0

>  <SCORE.SYSTEM>
0

>  <SCORE.SYSTEM.CONST>
0

>  <SCORE.SYSTEM.DIHEDRAL>
0

>  <SCORE.SYSTEM.SOLV>
0

>  <SCORE.SYSTEM.norm>
0

>  <SCORE.heavy>
22

>  <SCORE.norm>
-1.16784

>  <RMSD>
1.569

$$$$
lig.pdb
 OpenBabel11021811523D
libRbt.so/2013.1/901 2013/11/27
 22 23  0  0  0  0  0  0  0  0999 V2000
   55.5837  -17.3266    7.7570 O   0  0  0  0  0  0  0  0  0  0  0  0
   56.7464  -17.3860    8.0815 C   0  0  0  0  0  0  0  0  0  0  0  0
   57.4416  -18.5064    7.9973 N   0  0  0  0  0  0  0  0  0  0  0  0
   57.4202  -16.2009    8.6308 C   0  0  0  0  0  0  0  0  0  0  0  0
   58.7359  -16.2055    9.2744 C   0  0  0  0  0  0  0  0  0  0  0  0
   59.5090  -17.2944    9.4741 N   0  0  0  0  0  0  0  0  0  0  0  0
   57.0306  -14.9170    8.6788 N   0  0  0  0  0  0  0  0  0  0  0  0
   58.0181  -14.1880    9.2687 C   0  0  0  0  0  0  0  0  0  0  0  0
   59.0649  -14.9686    9.6293 N   0  0  0  0  0  0  0  0  0  0  0  0
   60.3104  -14.5016   10.2971 C   0  0  1  0  0  0  0  0  0  0  0  0
   61.2813  -13.9993    9.2506 C   0  0  1  0  0  0  0  0  0  0  0  0
   61.9157  -12.7951    9.8971 C   0  0  2  0  0  0  0  0  0  0  0  0
   63.0961  -13.1905   10.6073 O   0  0  0  0  0  0  0  0  0  0  0  0
   62.2454  -15.0088    8.9133 O   0  0  0  0  0  0  0  0  0  0  0  0
   60.0306  -13.3875   11.1411 O   0  0  0  0  0  0  0  0  0  0  0  0
   60.8968  -12.3062   10.8935 C   0  0  2  0  0  0  0  0  0  0  0  0
   60.0161  -11.1613   10.4376 C   0  0  0  0  0  0  0  0  0  0  0  0
   58.9853  -10.8933   11.3659 O   0  0  0  0  0  0  0  0  0  0  0  0
   59.3858  -10.3738   12.8227 P   0  0  0  0  0  0  0  0  0  0  0  0
   60.4400   -9.3113   12.5846 O   0  0  0  0  0  0  0  0  0  0  0  0
   59.8876  -11.6326   13.4818 O   0  0  0  0  0  0  0  0  0  0  0  0
   58.0767   -9.9092   13.3980 O   0  0  0  0  0  0  0  0  0  0  0  0
  2  1  2  0  0  0  0
  2  4  1  0  0  0  0
  3  2  1  0  0  0  0
  4  7  1  0  0  0  0
  4  5  2  0  0  0  0
  5  6  1  0  0  0  0
  5  9  1  0  0  0  0
  7  8  2  0  0  0  0
  8  9  1  0  0  0  0
 10  9  1  6  0  0  0
 10 15  1  0  0  0  0
 11 14  1  1  0  0  0
 11 12  1  0  0  0  0
 11 10  1  0  0  0  0
 12 13  1  1  0  0  0
 12 16  1  0  0  0  0
 16 17  1  6  0  0  0
 16 15  1  0  0  0  0
 18 19  1  0  0  0  0
 18 17  1  0  0  0  0
 19 21  1  0  0  0  0
 20 19  1  0  0  0  0
 22 19  2  0  0  0  0
M  END
>  <CHROM.1>
168.55976941,96.07471468,172.25488584,44.84635194,64.51417201,59.40517060
-13.59692935,10.39107266,1.86983279,-0.06277732,-2.56037668

>  <Name>
lig.pdb

>  <RI>
0

>  <Rbt.Current_Directory>
/home/itssahil/PROJECTS/Mol_Feturizer/New_Systems/rnas/4znp

>  <Rbt.Executable>
rbdock ($Id: //depot/dev/client3/rdock/2013.1/src/exe/rbdock.cxx#4 $)

>  <Rbt.Library>
libRbt.so (2013.1, Build901 2013/11/27)

>  <Rbt.Parameter_File>
/export/apps/rDock/src/rDock_2013.1_src/data/scripts/dock_solv.prm

>  <Rbt.Receptor>
prm/pocket_docking_3.prm

>  <SCORE>
-25.1842

>  <SCORE.INTER>
-20.0722

>  <SCORE.INTER.CONST>
1

>  <SCORE.INTER.POLAR>
0

>  <SCORE.INTER.ROT>
5

>  <SCORE.INTER.SOLV>
20.8244

>  <SCORE.INTER.VDW>
-27.2563

>  <SCORE.INTER.norm>
-0.912371

>  <SCORE.INTRA>
-5.11201

>  <SCORE.INTRA.DIHEDRAL>
-8.52911

>  <SCORE.INTRA.DIHEDRAL.0>
11.9251

>  <SCORE.INTRA.POLAR>
0

>  <SCORE.INTRA.POLAR.0>
0

>  <SCORE.INTRA.REPUL>
0

>  <SCORE.INTRA.REPUL.0>
0

>  <SCORE.INTRA.SOLV>
1.00032

>  <SCORE.INTRA.SOLV.lig_0>
-40.9823

>  <SCORE.INTRA.VDW>
-1.34762

>  <SCORE.INTRA.VDW.0>
-0.53506

>  <SCORE.INTRA.norm>
-0.232364

>  <SCORE.RESTR>
0

>  <SCORE.RESTR.CAVITY>
0

>  <SCORE.RESTR.norm>
0

>  <SCORE.SYSTEM>
0

>  <SCORE.SYSTEM.CONST>
0

>  <SCORE.SYSTEM.DIHEDRAL>
0

>  <SCORE.SYSTEM.SOLV>
0

>  <SCORE.SYSTEM.norm>
0

>  <SCORE.heavy>
22

>  <SCORE.norm>
-1.14474

>  <RMSD>
1.571

$$$$
lig.pdb
 OpenBabel11021811523D
libRbt.so/2013.1/901 2013/11/27
 22 23  0  0  0  0  0  0  0  0999 V2000
   55.7519  -16.6532    8.3267 O   0  0  0  0  0  0  0  0  0  0  0  0
   56.9364  -16.7725    8.5347 C   0  0  0  0  0  0  0  0  0  0  0  0
   57.5461  -17.9426    8.4662 N   0  0  0  0  0  0  0  0  0  0  0  0
   57.7389  -15.6030    8.9200 C   0  0  0  0  0  0  0  0  0  0  0  0
   59.1672  -15.6339    9.2433 C   0  0  0  0  0  0  0  0  0  0  0  0
   59.9466  -16.7365    9.2541 N   0  0  0  0  0  0  0  0  0  0  0  0
   57.3931  -14.3137    9.0629 N   0  0  0  0  0  0  0  0  0  0  0  0
   58.5023  -13.6055    9.4133 C   0  0  0  0  0  0  0  0  0  0  0  0
   59.5903  -14.4055    9.5192 N   0  0  0  0  0  0  0  0  0  0  0  0
   60.9640  -13.9640    9.8846 C   0  0  1  0  0  0  0  0  0  0  0  0
   61.3530  -12.7784    9.0284 C   0  0  1  0  0  0  0  0  0  0  0  0
   62.1133  -11.8856    9.9746 C   0  0  2  0  0  0  0  0  0  0  0  0
   63.5096  -12.2052    9.9278 O   0  0  0  0  0  0  0  0  0  0  0  0
   62.1506  -13.1902    7.9073 O   0  0  0  0  0  0  0  0  0  0  0  0
   60.9921  -13.5018   11.2327 O   0  0  0  0  0  0  0  0  0  0  0  0
   61.5869  -12.2311   11.3434 C   0  0  2  0  0  0  0  0  0  0  0  0
   60.5146  -11.3145   11.8951 C   0  0  0  0  0  0  0  0  0  0  0  0
   59.4923  -11.0777   10.9492 O   0  0  0  0  0  0  0  0  0  0  0  0
   58.3122  -10.0724   11.3357 P   0  0  0  0  0  0  0  0  0  0  0  0
   57.5457  -10.7727   12.4397 O   0  0  0  0  0  0  0  0  0  0  0  0
   57.5700   -9.9376   10.0312 O   0  0  0  0  0  0  0  0  0  0  0  0
   59.0395   -8.8118   11.7134 O   0  0  0  0  0  0  0  0  0  0  0  0
  2  1  2  0  0  0  0
  2  4  1  0  0  0  0
  3  2  1  0  0  0  0
  4  7  1  0  0  0  0
  4  5  2  0  0  0  0
  5  6  1  0  0  0  0
  5  9  1  0  0  0  0
  7  8  2  0  0  0  0
  8  9  1  0  0  0  0
 10  9  1  6  0  0  0
 10 15  1  0  0  0  0
 11 14  1  6  0  0  0
 11 12  1  0  0  0  0
 11 10  1  0  0  0  0
 12 13  1  1  0  0  0
 12 16  1  0  0  0  0
 16 17  1  6  0  0  0
 16 15  1  0  0  0  0
 18 19  1  0  0  0  0
 18 17  1  0  0  0  0
 19 21  1  0  0  0  0
 20 19  1  0  0  0  0
 22 19  2  0  0  0  0
M  END
>  <CHROM.1>
177.67493026,130.79965201,48.18740780,-67.62584252,-177.01323884,59.39203884
-13.06354405,10.03731502,1.85071432,-0.06567629,-2.72460841

>  <Name>
lig.pdb

>  <RI>
0

>  <Rbt.Current_Directory>
/home/itssahil/PROJECTS/Mol_Feturizer/New_Systems/rnas/4znp

>  <Rbt.Executable>
rbdock ($Id: //depot/dev/client3/rdock/2013.1/src/exe/rbdock.cxx#4 $)

>  <Rbt.Library>
libRbt.so (2013.1, Build901 2013/11/27)

>  <Rbt.Parameter_File>
/export/apps/rDock/src/rDock_2013.1_src/data/scripts/dock_solv.prm

>  <Rbt.Receptor>
prm/pocket_docking_5.prm

>  <SCORE>
-24.0155

>  <SCORE.INTER>
-18.0101

>  <SCORE.INTER.CONST>
1

>  <SCORE.INTER.POLAR>
0

>  <SCORE.INTER.ROT>
5

>  <SCORE.INTER.SOLV>
19.902

>  <SCORE.INTER.VDW>
-25.5741

>  <SCORE.INTER.norm>
-0.818643

>  <SCORE.INTRA>
-6.00537

>  <SCORE.INTRA.DIHEDRAL>
-8.86886

>  <SCORE.INTRA.DIHEDRAL.0>
11.9251

>  <SCORE.INTRA.POLAR>
0

>  <SCORE.INTRA.POLAR.0>
0

>  <SCORE.INTRA.REPUL>
0

>  <SCORE.INTRA.REPUL.0>
0

>  <SCORE.INTRA.SOLV>
0.697978

>  <SCORE.INTRA.SOLV.lig_0>
-40.9823

>  <SCORE.INTRA.VDW>
-1.91993

>  <SCORE.INTRA.VDW.0>
-0.53506

>  <SCORE.INTRA.norm>
-0.272971

>  <SCORE.RESTR>
0

>  <SCORE.RESTR.CAVITY>
0

>  <SCORE.RESTR.norm>
0

>  <SCORE.SYSTEM>
0

>  <SCORE.SYSTEM.CONST>
0

>  <SCORE.SYSTEM.DIHEDRAL>
0

>  <SCORE.SYSTEM.SOLV>
0

>  <SCORE.SYSTEM.norm>
0

>  <SCORE.heavy>
22

>  <SCORE.norm>
-1.09161

>  <RMSD>
1.575

$$$$
lig.pdb
 OpenBabel11021811523D
libRbt.so/2013.1/901 2013/11/27
 22 23  0  0  0  0  0  0  0  0999 V2000
   55.6963  -17.2034    7.8164 O   0  0  0  0  0  0  0  0  0  0  0  0
   56.8618  -17.2789    8.1270 C   0  0  0  0  0  0  0  0  0  0  0  0
   57.5466  -18.4031    8.0132 N   0  0  0  0  0  0  0  0  0  0  0  0
   57.5516  -16.1106    8.6922 C   0  0  0  0  0  0  0  0  0  0  0  0
   58.8881  -16.1325    9.2910 C   0  0  0  0  0  0  0  0  0  0  0  0
   59.6694  -17.2252    9.4288 N   0  0  0  0  0  0  0  0  0  0  0  0
   57.1615  -14.8301    8.7954 N   0  0  0  0  0  0  0  0  0  0  0  0
   58.1670  -14.1180    9.3757 C   0  0  0  0  0  0  0  0  0  0  0  0
   59.2266  -14.9070    9.6752 N   0  0  0  0  0  0  0  0  0  0  0  0
   60.4930  -14.4586   10.3160 C   0  0  1  0  0  0  0  0  0  0  0  0
   61.3373  -13.7249    9.2967 C   0  0  1  0  0  0  0  0  0  0  0  0
   61.9479  -12.5937   10.0828 C   0  0  2  0  0  0  0  0  0  0  0  0
   63.2073  -13.0059   10.6288 O   0  0  0  0  0  0  0  0  0  0  0  0
   62.3304  -14.5923    8.7277 O   0  0  0  0  0  0  0  0  0  0  0  0
   60.2171  -13.5166   11.3496 O   0  0  0  0  0  0  0  0  0  0  0  0
   60.9894  -12.3473   11.2189 C   0  0  2  0  0  0  0  0  0  0  0  0
   60.0028  -11.2147   11.0236 C   0  0  0  0  0  0  0  0  0  0  0  0
   59.1123  -11.1035   12.1148 O   0  0  0  0  0  0  0  0  0  0  0  0
   58.0126   -9.9449   12.0880 P   0  0  0  0  0  0  0  0  0  0  0  0
   57.2999  -10.1107   10.7608 O   0  0  0  0  0  0  0  0  0  0  0  0
   58.8572   -8.7026   12.2066 O   0  0  0  0  0  0  0  0  0  0  0  0
   57.2020  -10.2064   13.3271 O   0  0  0  0  0  0  0  0  0  0  0  0
  2  1  2  0  0  0  0
  2  4  1  0  0  0  0
  3  2  1  0  0  0  0
  4  7  1  0  0  0  0
  4  5  2  0  0  0  0
  5  6  1  0  0  0  0
  5  9  1  0  0  0  0
  7  8  2  0  0  0  0
  8  9  1  0  0  0  0
 10  9  1  6  0  0  0
 10 15  1  0  0  0  0
 11 14  1  1  0  0  0
 11 12  1  0  0  0  0
 11 10  1  0  0  0  0
 12 13  1  1  0  0  0
 12 16  1  0  0  0  0
 16 17  1  6  0  0  0
 16 15  1  0  0  0  0
 18 19  1  0  0  0  0
 18 17  1  0  0  0  0
 19 21  1  0  0  0  0
 20 19  1  0  0  0  0
 22 19  2  0  0  0  0
M  END
>  <CHROM.1>
170.18425232,104.85020458,177.36605407,52.84336765,179.14744503,59.11982101
-13.40639555,10.27181846,1.67883740,0.00409003,-2.65710910

>  <Name>
lig.pdb

>  <RI>
0

>  <Rbt.Current_Directory>
/home/itssahil/PROJECTS/Mol_Feturizer/New_Systems/rnas/4znp

>  <Rbt.Executable>
rbdock ($Id: //depot/dev/client3/rdock/2013.1/src/exe/rbdock.cxx#4 $)

>  <Rbt.Library>
libRbt.so (2013.1, Build901 2013/11/27)

>  <Rbt.Parameter_File>
/export/apps/rDock/src/rDock_2013.1_src/data/scripts/dock_solv.prm

>  <Rbt.Receptor>
prm/pocket_docking_8.prm

>  <SCORE>
-25.9819

>  <SCORE.INTER>
-19.9161

>  <SCORE.INTER.CONST>
1

>  <SCORE.INTER.POLAR>
0

>  <SCORE.INTER.ROT>
5

>  <SCORE.INTER.SOLV>
20.8872

>  <SCORE.INTER.VDW>
-27.1731

>  <SCORE.INTER.norm>
-0.905277

>  <SCORE.INTRA>
-6.06576

>  <SCORE.INTRA.DIHEDRAL>
-9.17165

>  <SCORE.INTRA.DIHEDRAL.0>
11.9251

>  <SCORE.INTRA.POLAR>
0

>  <SCORE.INTRA.POLAR.0>
0

>  <SCORE.INTRA.REPUL>
0

>  <SCORE.INTRA.REPUL.0>
0

>  <SCORE.INTRA.SOLV>
-0.0233375

>  <SCORE.INTRA.SOLV.lig_0>
-40.9823

>  <SCORE.INTRA.VDW>
-1.46826

>  <SCORE.INTRA.VDW.0>
-0.53506

>  <SCORE.INTRA.norm>
-0.275716

>  <SCORE.RESTR>
0

>  <SCORE.RESTR.CAVITY>
0

>  <SCORE.RESTR.norm>
0

>  <SCORE.SYSTEM>
0

>  <SCORE.SYSTEM.CONST>
0

>  <SCORE.SYSTEM.DIHEDRAL>
0

>  <SCORE.SYSTEM.SOLV>
0

>  <SCORE.SYSTEM.norm>
0

>  <SCORE.heavy>
22

>  <SCORE.norm>
-1.18099

>  <RMSD>
1.599

$$$$
lig.pdb
 OpenBabel11021811523D
libRbt.so/2013.1/901 2013/11/27
 22 23  0  0  0  0  0  0  0  0999 V2000
   56.6966  -18.2882    8.2065 O   0  0  0  0  0  0  0  0  0  0  0  0
   57.0035  -17.1450    8.4501 C   0  0  0  0  0  0  0  0  0  0  0  0
   56.1555  -16.1434    8.2971 N   0  0  0  0  0  0  0  0  0  0  0  0
   58.3690  -16.8257    8.8903 C   0  0  0  0  0  0  0  0  0  0  0  0
   58.8378  -15.4920    9.2732 C   0  0  0  0  0  0  0  0  0  0  0  0
   58.0954  -14.3642    9.2595 N   0  0  0  0  0  0  0  0  0  0  0  0
   59.4462  -17.6128    9.0394 N   0  0  0  0  0  0  0  0  0  0  0  0
   60.4778  -16.8506    9.4974 C   0  0  0  0  0  0  0  0  0  0  0  0
   60.1106  -15.5554    9.6478 N   0  0  0  0  0  0  0  0  0  0  0  0
   60.9865  -14.4516   10.1272 C   0  0  1  0  0  0  0  0  0  0  0  0
   61.3506  -13.5590    8.9607 C   0  0  1  0  0  0  0  0  0  0  0  0
   61.3181  -12.1710    9.5461 C   0  0  2  0  0  0  0  0  0  0  0  0
   62.6166  -11.8227   10.0428 O   0  0  0  0  0  0  0  0  0  0  0  0
   62.6426  -13.8987    8.4336 O   0  0  0  0  0  0  0  0  0  0  0  0
   60.2802  -13.6254   11.0493 O   0  0  0  0  0  0  0  0  0  0  0  0
   60.3668  -12.2621   10.7109 C   0  0  2  0  0  0  0  0  0  0  0  0
   58.9465  -11.8059   10.4477 C   0  0  0  0  0  0  0  0  0  0  0  0
   58.8989  -10.4536   10.0415 O   0  0  0  0  0  0  0  0  0  0  0  0
   59.2163   -9.3201   11.1218 P   0  0  0  0  0  0  0  0  0  0  0  0
   60.6712   -9.5272   11.4923 O   0  0  0  0  0  0  0  0  0  0  0  0
   58.2291   -9.6382   12.2150 O   0  0  0  0  0  0  0  0  0  0  0  0
   58.8784   -8.0461   10.3983 O   0  0  0  0  0  0  0  0  0  0  0  0
  2  1  2  0  0  0  0
  2  4  1  0  0  0  0
  3  2  1  0  0  0  0
  4  7  1  0  0  0  0
  4  5  2  0  0  0  0
  5  6  1  0  0  0  0
  5  9  1  0  0  0  0
  7  8  2  0  0  0  0
  8  9  1  0  0  0  0
 10  9  1  6  0  0  0
 10 15  1  0  0  0  0
 11 14  1  1  0  0  0
 11 12  1  0  0  0  0
 11 10  1  0  0  0  0
 12 13  1  1  0  0  0
 12 16  1  0  0  0  0
 16 17  1  6  0  0  0
 16 15  1  0  0  0  0
 18 19  1  0  0  0  0
 18 17  1  0  0  0  0
 19 21  1  0  0  0  0
 20 19  1  0  0  0  0
 22 19  2  0  0  0  0
M  END
>  <CHROM.1>
-176.97407685,-72.73672620,-59.67629406,65.09967922,-70.91543127,59.53315990
-13.22773914,9.88713743,1.74585643,-0.01857917,-2.84610042

>  <Name>
lig.pdb

>  <RI>
0

>  <Rbt.Current_Directory>
/home/itssahil/PROJECTS/Mol_Feturizer/New_Systems/rnas/4znp

>  <Rbt.Executable>
rbdock ($Id: //depot/dev/client3/rdock/2013.1/src/exe/rbdock.cxx#4 $)

>  <Rbt.Library>
libRbt.so (2013.1, Build901 2013/11/27)

>  <Rbt.Parameter_File>
/export/apps/rDock/src/rDock_2013.1_src/data/scripts/dock_solv.prm

>  <Rbt.Receptor>
prm/pocket_docking_5.prm

>  <SCORE>
-22.9458

>  <SCORE.INTER>
-17.8525

>  <SCORE.INTER.CONST>
1

>  <SCORE.INTER.POLAR>
0

>  <SCORE.INTER.ROT>
5

>  <SCORE.INTER.SOLV>
18.8984

>  <SCORE.INTER.VDW>
-25.1345

>  <SCORE.INTER.norm>
-0.811478

>  <SCORE.INTRA>
-5.09331

>  <SCORE.INTRA.DIHEDRAL>
-8.79947

>  <SCORE.INTRA.DIHEDRAL.0>
11.9251

>  <SCORE.INTRA.POLAR>
0

>  <SCORE.INTRA.POLAR.0>
0

>  <SCORE.INTRA.REPUL>
0

>  <SCORE.INTRA.REPUL.0>
0

>  <SCORE.INTRA.SOLV>
2.07434

>  <SCORE.INTRA.SOLV.lig_0>
-40.9823

>  <SCORE.INTRA.VDW>
-1.73075

>  <SCORE.INTRA.VDW.0>
-0.53506

>  <SCORE.INTRA.norm>
-0.231514

>  <SCORE.RESTR>
0

>  <SCORE.RESTR.CAVITY>
0

>  <SCORE.RESTR.norm>
0

>  <SCORE.SYSTEM>
0

>  <SCORE.SYSTEM.CONST>
0

>  <SCORE.SYSTEM.DIHEDRAL>
0

>  <SCORE.SYSTEM.SOLV>
0

>  <SCORE.SYSTEM.norm>
0

>  <SCORE.heavy>
22

>  <SCORE.norm>
-1.04299

>  <RMSD>
1.607

$$$$
lig.pdb
 OpenBabel11021811523D
libRbt.so/2013.1/901 2013/11/27
 22 23  0  0  0  0  0  0  0  0999 V2000
   55.7009  -17.2306    7.8724 O   0  0  0  0  0  0  0  0  0  0  0  0
   56.8765  -17.2883    8.1467 C   0  0  0  0  0  0  0  0  0  0  0  0
   57.5749  -18.4015    8.0094 N   0  0  0  0  0  0  0  0  0  0  0  0
   57.5650  -16.1102    8.6927 C   0  0  0  0  0  0  0  0  0  0  0  0
   58.9009  -16.1213    9.2933 C   0  0  0  0  0  0  0  0  0  0  0  0
   59.6826  -17.2111    9.4506 N   0  0  0  0  0  0  0  0  0  0  0  0
   57.1743  -14.8283    8.7737 N   0  0  0  0  0  0  0  0  0  0  0  0
   58.1787  -14.1060    9.3430 C   0  0  0  0  0  0  0  0  0  0  0  0
   59.2384  -14.8893    9.6571 N   0  0  0  0  0  0  0  0  0  0  0  0
   60.5038  -14.4295   10.2917 C   0  0  1  0  0  0  0  0  0  0  0  0
   61.3182  -13.6536    9.2793 C   0  0  1  0  0  0  0  0  0  0  0  0
   61.9158  -12.5289   10.0845 C   0  0  2  0  0  0  0  0  0  0  0  0
   63.1910  -12.9271   10.6034 O   0  0  0  0  0  0  0  0  0  0  0  0
   62.3214  -14.4857    8.6762 O   0  0  0  0  0  0  0  0  0  0  0  0
   60.2225  -13.5187   11.3514 O   0  0  0  0  0  0  0  0  0  0  0  0
   60.9681  -12.3304   11.2388 C   0  0  2  0  0  0  0  0  0  0  0  0
   59.9553  -11.2147   11.0843 C   0  0  0  0  0  0  0  0  0  0  0  0
   59.1374  -11.0892   12.2295 O   0  0  0  0  0  0  0  0  0  0  0  0
   58.0139   -9.9534   12.2447 P   0  0  0  0  0  0  0  0  0  0  0  0
   57.1471  -10.2424   11.0356 O   0  0  0  0  0  0  0  0  0  0  0  0
   58.8352   -8.6933   12.1532 O   0  0  0  0  0  0  0  0  0  0  0  0
   57.3696  -10.1201   13.5930 O   0  0  0  0  0  0  0  0  0  0  0  0
  2  1  2  0  0  0  0
  2  4  1  0  0  0  0
  3  2  1  0  0  0  0
  4  7  1  0  0  0  0
  4  5  2  0  0  0  0
  5  6  1  0  0  0  0
  5  9  1  0  0  0  0
  7  8  2  0  0  0  0
  8  9  1  0  0  0  0
 10  9  1  6  0  0  0
 10 15  1  0  0  0  0
 11 14  1  1  0  0  0
 11 12  1  0  0  0  0
 11 10  1  0  0  0  0
 12 13  1  1  0  0  0
 12 16  1  0  0  0  0
 16 17  1  6  0  0  0
 16 15  1  0  0  0  0
 18 19  1  0  0  0  0
 18 17  1  0  0  0  0
 19 21  1  0  0  0  0
 20 19  1  0  0  0  0
 22 19  2  0  0  0  0
M  END
>  <CHROM.1>
167.88219749,107.62149544,-178.56947192,57.46482326,179.67880735,59.12037772
-13.39145792,10.31516391,1.67562400,-0.02331404,-2.63878838

>  <Name>
lig.pdb

>  <RI>
0

>  <Rbt.Current_Directory>
/home/itssahil/PROJECTS/Mol_Feturizer/New_Systems/rnas/4znp

>  <Rbt.Executable>
rbdock ($Id: //depot/dev/client3/rdock/2013.1/src/exe/rbdock.cxx#4 $)

>  <Rbt.Library>
libRbt.so (2013.1, Build901 2013/11/27)

>  <Rbt.Parameter_File>
/export/apps/rDock/src/rDock_2013.1_src/data/scripts/dock_solv.prm

>  <Rbt.Receptor>
prm/pocket_docking_5.prm

>  <SCORE>
-25.9638

>  <SCORE.INTER>
-19.9052

>  <SCORE.INTER.CONST>
1

>  <SCORE.INTER.POLAR>
0

>  <SCORE.INTER.ROT>
5

>  <SCORE.INTER.SOLV>
20.5963

>  <SCORE.INTER.VDW>
-27.0689

>  <SCORE.INTER.norm>
-0.904783

>  <SCORE.INTRA>
-6.05862

>  <SCORE.INTRA.DIHEDRAL>
-9.09597

>  <SCORE.INTRA.DIHEDRAL.0>
11.9251

>  <SCORE.INTRA.POLAR>
0

>  <SCORE.INTRA.POLAR.0>
0

>  <SCORE.INTRA.REPUL>
0

>  <SCORE.INTRA.REPUL.0>
0

>  <SCORE.INTRA.SOLV>
-0.0656301

>  <SCORE.INTRA.SOLV.lig_0>
-40.9823

>  <SCORE.INTRA.VDW>
-1.47782

>  <SCORE.INTRA.VDW.0>
-0.53506

>  <SCORE.INTRA.norm>
-0.275392

>  <SCORE.RESTR>
0

>  <SCORE.RESTR.CAVITY>
0

>  <SCORE.RESTR.norm>
0

>  <SCORE.SYSTEM>
0

>  <SCORE.SYSTEM.CONST>
0

>  <SCORE.SYSTEM.DIHEDRAL>
0

>  <SCORE.SYSTEM.SOLV>
0

>  <SCORE.SYSTEM.norm>
0

>  <SCORE.heavy>
22

>  <SCORE.norm>
-1.18017

>  <RMSD>
1.623

$$$$
lig.pdb
 OpenBabel11021811523D
libRbt.so/2013.1/901 2013/11/27
 22 23  0  0  0  0  0  0  0  0999 V2000
   55.7138  -17.2158    7.8281 O   0  0  0  0  0  0  0  0  0  0  0  0
   56.8836  -17.2813    8.1245 C   0  0  0  0  0  0  0  0  0  0  0  0
   57.5762  -18.4000    8.0034 N   0  0  0  0  0  0  0  0  0  0  0  0
   57.5705  -16.1067    8.6800 C   0  0  0  0  0  0  0  0  0  0  0  0
   58.9090  -16.1195    9.2746 C   0  0  0  0  0  0  0  0  0  0  0  0
   59.6951  -17.2082    9.4169 N   0  0  0  0  0  0  0  0  0  0  0  0
   57.1757  -14.8271    8.7762 N   0  0  0  0  0  0  0  0  0  0  0  0
   58.1802  -14.1073    9.3487 C   0  0  0  0  0  0  0  0  0  0  0  0
   59.2439  -14.8902    9.6499 N   0  0  0  0  0  0  0  0  0  0  0  0
   60.5105  -14.4328   10.2838 C   0  0  1  0  0  0  0  0  0  0  0  0
   61.3254  -13.6576    9.2714 C   0  0  1  0  0  0  0  0  0  0  0  0
   61.9253  -12.5342   10.0767 C   0  0  2  0  0  0  0  0  0  0  0  0
   63.2002  -12.9347   10.5945 O   0  0  0  0  0  0  0  0  0  0  0  0
   62.3268  -14.4909    8.6670 O   0  0  0  0  0  0  0  0  0  0  0  0
   60.2314  -13.5221   11.3443 O   0  0  0  0  0  0  0  0  0  0  0  0
   60.9788  -12.3349   11.2319 C   0  0  2  0  0  0  0  0  0  0  0  0
   59.9676  -11.2175   11.0787 C   0  0  0  0  0  0  0  0  0  0  0  0
   59.1214  -11.1205   12.2059 O   0  0  0  0  0  0  0  0  0  0  0  0
   58.0200   -9.9636   12.2366 P   0  0  0  0  0  0  0  0  0  0  0  0
   57.2349  -10.1348   10.9516 O   0  0  0  0  0  0  0  0  0  0  0  0
   58.8679   -8.7197   12.3042 O   0  0  0  0  0  0  0  0  0  0  0  0
   57.2799  -10.2224   13.5196 O   0  0  0  0  0  0  0  0  0  0  0  0
  2  1  2  0  0  0  0
  2  4  1  0  0  0  0
  3  2  1  0  0  0  0
  4  7  1  0  0  0  0
  4  5  2  0  0  0  0
  5  6  1  0  0  0  0
  5  9  1  0  0  0  0
  7  8  2  0  0  0  0
  8  9  1  0  0  0  0
 10  9  1  6  0  0  0
 10 15  1  0  0  0  0
 11 14  1  1  0  0  0
 11 12  1  0  0  0  0
 11 10  1  0  0  0  0
 12 13  1  1  0  0  0
 12 16  1  0  0  0  0
 16 17  1  6  0  0  0
 16 15  1  0  0  0  0
 18 19  1  0  0  0  0
 18 17  1  0  0  0  0
 19 21  1  0  0  0  0
 20 19  1  0  0  0  0
 22 19  2  0  0  0  0
M  END
>  <CHROM.1>
169.53021668,106.94731889,179.45086628,54.07336503,178.13101210,59.12698629
-13.39522942,10.30454298,1.67550955,-0.02167103,-2.63655432

>  <Name>
lig.pdb

>  <RI>
0

>  <Rbt.Current_Directory>
/home/itssahil/PROJECTS/Mol_Feturizer/New_Systems/rnas/4znp

>  <Rbt.Executable>
rbdock ($Id: //depot/dev/client3/rdock/2013.1/src/exe/rbdock.cxx#4 $)

>  <Rbt.Library>
libRbt.so (2013.1, Build901 2013/11/27)

>  <Rbt.Parameter_File>
/export/apps/rDock/src/rDock_2013.1_src/data/scripts/dock_solv.prm

>  <Rbt.Receptor>
prm/pocket_docking_5.prm

>  <SCORE>
-25.9707

>  <SCORE.INTER>
-19.8969

>  <SCORE.INTER.CONST>
1

>  <SCORE.INTER.POLAR>
0

>  <SCORE.INTER.ROT>
5

>  <SCORE.INTER.SOLV>
20.6397

>  <SCORE.INTER.VDW>
-27.0778

>  <SCORE.INTER.norm>
-0.904405

>  <SCORE.INTRA>
-6.0738

>  <SCORE.INTRA.DIHEDRAL>
-9.16242

>  <SCORE.INTRA.DIHEDRAL.0>
11.9251

>  <SCORE.INTRA.POLAR>
0

>  <SCORE.INTRA.POLAR.0>
0

>  <SCORE.INTRA.REPUL>
0

>  <SCORE.INTRA.REPUL.0>
0

>  <SCORE.INTRA.SOLV>
-0.0516943

>  <SCORE.INTRA.SOLV.lig_0>
-40.9823

>  <SCORE.INTRA.VDW>
-1.46674

>  <SCORE.INTRA.VDW.0>
-0.53506

>  <SCORE.INTRA.norm>
-0.276082

>  <SCORE.RESTR>
0

>  <SCORE.RESTR.CAVITY>
0

>  <SCORE.RESTR.norm>
0

>  <SCORE.SYSTEM>
0

>  <SCORE.SYSTEM.CONST>
0

>  <SCORE.SYSTEM.DIHEDRAL>
0

>  <SCORE.SYSTEM.SOLV>
0

>  <SCORE.SYSTEM.norm>
0

>  <SCORE.heavy>
22

>  <SCORE.norm>
-1.18049

>  <RMSD>
1.624

$$$$
lig.pdb
 OpenBabel11021811523D
libRbt.so/2013.1/901 2013/11/27
 22 23  0  0  0  0  0  0  0  0999 V2000
   55.7305  -16.8325    8.2357 O   0  0  0  0  0  0  0  0  0  0  0  0
   56.9192  -16.8853    8.4472 C   0  0  0  0  0  0  0  0  0  0  0  0
   57.6002  -18.0130    8.3460 N   0  0  0  0  0  0  0  0  0  0  0  0
   57.6465  -15.6815    8.8739 C   0  0  0  0  0  0  0  0  0  0  0  0
   59.0526  -15.6503    9.2830 C   0  0  0  0  0  0  0  0  0  0  0  0
   59.8761  -16.7185    9.3467 N   0  0  0  0  0  0  0  0  0  0  0  0
   57.2381  -14.4077    8.9887 N   0  0  0  0  0  0  0  0  0  0  0  0
   58.2930  -13.6517    9.4015 C   0  0  0  0  0  0  0  0  0  0  0  0
   59.4056  -14.4041    9.5772 N   0  0  0  0  0  0  0  0  0  0  0  0
   60.7346  -13.9032   10.0224 C   0  0  1  0  0  0  0  0  0  0  0  0
   61.1214  -12.7010    9.1886 C   0  0  1  0  0  0  0  0  0  0  0  0
   61.7845  -11.7765   10.1765 C   0  0  2  0  0  0  0  0  0  0  0  0
   63.1938  -12.0347   10.2130 O   0  0  0  0  0  0  0  0  0  0  0  0
   62.0011  -13.0765    8.1173 O   0  0  0  0  0  0  0  0  0  0  0  0
   60.6628  -13.4414   11.3690 O   0  0  0  0  0  0  0  0  0  0  0  0
   61.1938  -12.1459   11.5124 C   0  0  2  0  0  0  0  0  0  0  0  0
   60.0517  -11.2776   11.9982 C   0  0  0  0  0  0  0  0  0  0  0  0
   59.1419  -10.9812   10.9587 O   0  0  0  0  0  0  0  0  0  0  0  0
   57.9036  -10.0235   11.2777 P   0  0  0  0  0  0  0  0  0  0  0  0
   57.3079   -9.6883    9.9250 O   0  0  0  0  0  0  0  0  0  0  0  0
   58.5679   -8.8703   11.9845 O   0  0  0  0  0  0  0  0  0  0  0  0
   57.0546  -10.8499   12.2034 O   0  0  0  0  0  0  0  0  0  0  0  0
  2  1  2  0  0  0  0
  2  4  1  0  0  0  0
  3  2  1  0  0  0  0
  4  7  1  0  0  0  0
  4  5  2  0  0  0  0
  5  6  1  0  0  0  0
  5  9  1  0  0  0  0
  7  8  2  0  0  0  0
  8  9  1  0  0  0  0
 10  9  1  6  0  0  0
 10 15  1  0  0  0  0
 11 14  1  6  0  0  0
 11 12  1  0  0  0  0
 11 10  1  0  0  0  0
 12 13  1  1  0  0  0
 12 16  1  0  0  0  0
 16 17  1  6  0  0  0
 16 15  1  0  0  0  0
 18 19  1  0  0  0  0
 18 17  1  0  0  0  0
 19 21  1  0  0  0  0
 20 19  1  0  0  0  0
 22 19  2  0  0  0  0
M  END
>  <CHROM.1>
173.76117917,131.03199318,42.65043794,168.84625060,-177.52937843,59.13999409
-13.04161504,10.08007520,1.78294426,-0.02253694,-2.73545101

>  <Name>
lig.pdb

>  <RI>
0

>  <Rbt.Current_Directory>
/home/itssahil/PROJECTS/Mol_Feturizer/New_Systems/rnas/4znp

>  <Rbt.Executable>
rbdock ($Id: //depot/dev/client3/rdock/2013.1/src/exe/rbdock.cxx#4 $)

>  <Rbt.Library>
libRbt.so (2013.1, Build901 2013/11/27)

>  <Rbt.Parameter_File>
/export/apps/rDock/src/rDock_2013.1_src/data/scripts/dock_solv.prm

>  <Rbt.Receptor>
prm/pocket_docking_4.prm

>  <SCORE>
-23.3286

>  <SCORE.INTER>
-17.9789

>  <SCORE.INTER.CONST>
1

>  <SCORE.INTER.POLAR>
0

>  <SCORE.INTER.ROT>
5

>  <SCORE.INTER.SOLV>
20.3155

>  <SCORE.INTER.VDW>
-25.6911

>  <SCORE.INTER.norm>
-0.817221

>  <SCORE.INTRA>
-5.36103

>  <SCORE.INTRA.DIHEDRAL>
-8.1699

>  <SCORE.INTRA.DIHEDRAL.0>
11.9251

>  <SCORE.INTRA.POLAR>
0

>  <SCORE.INTRA.POLAR.0>
0

>  <SCORE.INTRA.REPUL>
0

>  <SCORE.INTRA.REPUL.0>
0

>  <SCORE.INTRA.SOLV>
0.658165

>  <SCORE.INTRA.SOLV.lig_0>
-40.9823

>  <SCORE.INTRA.VDW>
-1.60517

>  <SCORE.INTRA.VDW.0>
-0.53506

>  <SCORE.INTRA.norm>
-0.243683

>  <SCORE.RESTR>
0.011276

>  <SCORE.RESTR.CAVITY>
0.011276

>  <SCORE.RESTR.norm>
0.000512544

>  <SCORE.SYSTEM>
0

>  <SCORE.SYSTEM.CONST>
0

>  <SCORE.SYSTEM.DIHEDRAL>
0

>  <SCORE.SYSTEM.SOLV>
0

>  <SCORE.SYSTEM.norm>
0

>  <SCORE.heavy>
22

>  <SCORE.norm>
-1.06039

>  <RMSD>
1.638

$$$$
lig.pdb
 OpenBabel11021811523D
libRbt.so/2013.1/901 2013/11/27
 22 23  0  0  0  0  0  0  0  0999 V2000
   55.6951  -17.2363    7.8368 O   0  0  0  0  0  0  0  0  0  0  0  0
   56.8669  -17.2986    8.1257 C   0  0  0  0  0  0  0  0  0  0  0  0
   57.5642  -18.4127    7.9911 N   0  0  0  0  0  0  0  0  0  0  0  0
   57.5514  -16.1254    8.6872 C   0  0  0  0  0  0  0  0  0  0  0  0
   58.8929  -16.1370    9.2751 C   0  0  0  0  0  0  0  0  0  0  0  0
   59.6845  -17.2232    9.4047 N   0  0  0  0  0  0  0  0  0  0  0  0
   57.1514  -14.8484    8.7957 N   0  0  0  0  0  0  0  0  0  0  0  0
   58.1555  -14.1288    9.3690 C   0  0  0  0  0  0  0  0  0  0  0  0
   59.2242  -14.9092    9.6586 N   0  0  0  0  0  0  0  0  0  0  0  0
   60.4919  -14.4512   10.2898 C   0  0  1  0  0  0  0  0  0  0  0  0
   61.2999  -13.6673    9.2784 C   0  0  1  0  0  0  0  0  0  0  0  0
   61.8994  -12.5467   10.0879 C   0  0  2  0  0  0  0  0  0  0  0  0
   63.1779  -12.9459   10.5979 O   0  0  0  0  0  0  0  0  0  0  0  0
   62.3016  -14.4937    8.6650 O   0  0  0  0  0  0  0  0  0  0  0  0
   60.2143  -13.5478   11.3568 O   0  0  0  0  0  0  0  0  0  0  0  0
   60.9572  -12.3574   11.2481 C   0  0  2  0  0  0  0  0  0  0  0  0
   59.9416  -11.2426   11.1059 C   0  0  0  0  0  0  0  0  0  0  0  0
   59.1257  -11.1295   12.2537 O   0  0  0  0  0  0  0  0  0  0  0  0
   58.0043   -9.9919   12.2844 P   0  0  0  0  0  0  0  0  0  0  0  0
   57.1025  -10.2978   11.1053 O   0  0  0  0  0  0  0  0  0  0  0  0
   58.8238   -8.7345   12.1502 O   0  0  0  0  0  0  0  0  0  0  0  0
   57.3991  -10.1375   13.6531 O   0  0  0  0  0  0  0  0  0  0  0  0
  2  1  2  0  0  0  0
  2  4  1  0  0  0  0
  3  2  1  0  0  0  0
  4  7  1  0  0  0  0
  4  5  2  0  0  0  0
  5  6  1  0  0  0  0
  5  9  1  0  0  0  0
  7  8  2  0  0  0  0
  8  9  1  0  0  0  0
 10  9  1  6  0  0  0
 10 15  1  0  0  0  0
 11 14  1  1  0  0  0
 11 12  1  0  0  0  0
 11 10  1  0  0  0  0
 12 13  1  1  0  0  0
 12 16  1  0  0  0  0
 16 17  1  6  0  0  0
 16 15  1  0  0  0  0
 18 19  1  0  0  0  0
 18 17  1  0  0  0  0
 19 21  1  0  0  0  0
 20 19  1  0  0  0  0
 22 19  2  0  0  0  0
M  END
>  <CHROM.1>
169.46853646,106.80283343,-178.80512687,59.67268838,179.39607840,59.10849973
-13.41496518,10.32290488,1.67527599,-0.02654676,-2.63060859

>  <Name>
lig.pdb

>  <RI>
0

>  <Rbt.Current_Directory>
/home/itssahil/PROJECTS/Mol_Feturizer/New_Systems/rnas/4znp

>  <Rbt.Executable>
rbdock ($Id: //depot/dev/client3/rdock/2013.1/src/exe/rbdock.cxx#4 $)

>  <Rbt.Library>
libRbt.so (2013.1, Build901 2013/11/27)

>  <Rbt.Parameter_File>
/export/apps/rDock/src/rDock_2013.1_src/data/scripts/dock_solv.prm

>  <Rbt.Receptor>
prm/pocket_docking_5.prm

>  <SCORE>
-25.9289

>  <SCORE.INTER>
-19.8255

>  <SCORE.INTER.CONST>
1

>  <SCORE.INTER.POLAR>
0

>  <SCORE.INTER.ROT>
5

>  <SCORE.INTER.SOLV>
20.6764

>  <SCORE.INTER.VDW>
-27.0425

>  <SCORE.INTER.norm>
-0.90116

>  <SCORE.INTRA>
-6.10333

>  <SCORE.INTRA.DIHEDRAL>
-9.21353

>  <SCORE.INTRA.DIHEDRAL.0>
11.9251

>  <SCORE.INTRA.POLAR>
0

>  <SCORE.INTRA.POLAR.0>
0

>  <SCORE.INTRA.REPUL>
0

>  <SCORE.INTRA.REPUL.0>
0

>  <SCORE.INTRA.SOLV>
-0.0564949

>  <SCORE.INTRA.SOLV.lig_0>
-40.9823

>  <SCORE.INTRA.VDW>
-1.46832

>  <SCORE.INTRA.VDW.0>
-0.53506

>  <SCORE.INTRA.norm>
-0.277424

>  <SCORE.RESTR>
0

>  <SCORE.RESTR.CAVITY>
0

>  <SCORE.RESTR.norm>
0

>  <SCORE.SYSTEM>
0

>  <SCORE.SYSTEM.CONST>
0

>  <SCORE.SYSTEM.DIHEDRAL>
0

>  <SCORE.SYSTEM.SOLV>
0

>  <SCORE.SYSTEM.norm>
0

>  <SCORE.heavy>
22

>  <SCORE.norm>
-1.17858

>  <RMSD>
1.640

$$$$
lig.pdb
 OpenBabel11021811523D
libRbt.so/2013.1/901 2013/11/27
 22 23  0  0  0  0  0  0  0  0999 V2000
   55.7660  -16.8419    8.2164 O   0  0  0  0  0  0  0  0  0  0  0  0
   56.9524  -16.8885    8.4418 C   0  0  0  0  0  0  0  0  0  0  0  0
   57.6405  -18.0125    8.3478 N   0  0  0  0  0  0  0  0  0  0  0  0
   57.6681  -15.6812    8.8780 C   0  0  0  0  0  0  0  0  0  0  0  0
   59.0756  -15.6385    9.2810 C   0  0  0  0  0  0  0  0  0  0  0  0
   59.9113  -16.6980    9.3297 N   0  0  0  0  0  0  0  0  0  0  0  0
   57.2460  -14.4133    9.0081 N   0  0  0  0  0  0  0  0  0  0  0  0
   58.2943  -13.6499    9.4241 C   0  0  0  0  0  0  0  0  0  0  0  0
   59.4161  -14.3916    9.5868 N   0  0  0  0  0  0  0  0  0  0  0  0
   60.7415  -13.8805   10.0312 C   0  0  1  0  0  0  0  0  0  0  0  0
   61.1173  -12.6738    9.1990 C   0  0  1  0  0  0  0  0  0  0  0  0
   61.7740  -11.7455   10.1876 C   0  0  2  0  0  0  0  0  0  0  0  0
   63.1854  -11.9921   10.2220 O   0  0  0  0  0  0  0  0  0  0  0  0
   61.9988  -13.0403    8.1261 O   0  0  0  0  0  0  0  0  0  0  0  0
   60.6674  -13.4215   11.3786 O   0  0  0  0  0  0  0  0  0  0  0  0
   61.1879  -12.1219   11.5236 C   0  0  2  0  0  0  0  0  0  0  0  0
   60.0392  -11.2638   12.0121 C   0  0  0  0  0  0  0  0  0  0  0  0
   59.1333  -10.9615   10.9710 O   0  0  0  0  0  0  0  0  0  0  0  0
   57.8899  -10.0112   11.2926 P   0  0  0  0  0  0  0  0  0  0  0  0
   57.3013   -9.6636    9.9400 O   0  0  0  0  0  0  0  0  0  0  0  0
   58.5462   -8.8636   12.0158 O   0  0  0  0  0  0  0  0  0  0  0  0
   57.0381  -10.8502   12.2043 O   0  0  0  0  0  0  0  0  0  0  0  0
  2  1  2  0  0  0  0
  2  4  1  0  0  0  0
  3  2  1  0  0  0  0
  4  7  1  0  0  0  0
  4  5  2  0  0  0  0
  5  6  1  0  0  0  0
  5  9  1  0  0  0  0
  7  8  2  0  0  0  0
  8  9  1  0  0  0  0
 10  9  1  6  0  0  0
 10 15  1  0  0  0  0
 11 14  1  6  0  0  0
 11 12  1  0  0  0  0
 11 10  1  0  0  0  0
 12 13  1  1  0  0  0
 12 16  1  0  0  0  0
 16 17  1  6  0  0  0
 16 15  1  0  0  0  0
 18 19  1  0  0  0  0
 18 17  1  0  0  0  0
 19 21  1  0  0  0  0
 20 19  1  0  0  0  0
 22 19  2  0  0  0  0
M  END
>  <CHROM.1>
174.89917909,130.46025673,42.02915822,168.71695518,-177.44864824,59.14334946
-13.02737909,10.08835052,1.77461181,-0.02449332,-2.73367565

>  <Name>
lig.pdb

>  <RI>
0

>  <Rbt.Current_Directory>
/home/itssahil/PROJECTS/Mol_Feturizer/New_Systems/rnas/4znp

>  <Rbt.Executable>
rbdock ($Id: //depot/dev/client3/rdock/2013.1/src/exe/rbdock.cxx#4 $)

>  <Rbt.Library>
libRbt.so (2013.1, Build901 2013/11/27)

>  <Rbt.Parameter_File>
/export/apps/rDock/src/rDock_2013.1_src/data/scripts/dock_solv.prm

>  <Rbt.Receptor>
prm/pocket_docking_4.prm

>  <SCORE>
-23.3026

>  <SCORE.INTER>
-17.9642

>  <SCORE.INTER.CONST>
1

>  <SCORE.INTER.POLAR>
0

>  <SCORE.INTER.ROT>
5

>  <SCORE.INTER.SOLV>
20.2057

>  <SCORE.INTER.VDW>
-25.6447

>  <SCORE.INTER.norm>
-0.816553

>  <SCORE.INTRA>
-5.33988

>  <SCORE.INTRA.DIHEDRAL>
-8.13272

>  <SCORE.INTRA.DIHEDRAL.0>
11.9251

>  <SCORE.INTRA.POLAR>
0

>  <SCORE.INTRA.POLAR.0>
0

>  <SCORE.INTRA.REPUL>
0

>  <SCORE.INTRA.REPUL.0>
0

>  <SCORE.INTRA.SOLV>
0.655436

>  <SCORE.INTRA.SOLV.lig_0>
-40.9823

>  <SCORE.INTRA.VDW>
-1.60124

>  <SCORE.INTRA.VDW.0>
-0.53506

>  <SCORE.INTRA.norm>
-0.242722

>  <SCORE.RESTR>
0.00147289

>  <SCORE.RESTR.CAVITY>
0.00147289

>  <SCORE.RESTR.norm>
6.69496e-05

>  <SCORE.SYSTEM>
0

>  <SCORE.SYSTEM.CONST>
0

>  <SCORE.SYSTEM.DIHEDRAL>
0

>  <SCORE.SYSTEM.SOLV>
0

>  <SCORE.SYSTEM.norm>
0

>  <SCORE.heavy>
22

>  <SCORE.norm>
-1.05921

>  <RMSD>
1.644

$$$$
lig.pdb
 OpenBabel11021811523D
libRbt.so/2013.1/901 2013/11/27
 22 23  0  0  0  0  0  0  0  0999 V2000
   56.0633  -16.1711    8.2695 O   0  0  0  0  0  0  0  0  0  0  0  0
   56.8447  -17.0704    8.4729 C   0  0  0  0  0  0  0  0  0  0  0  0
   56.5090  -18.3391    8.3204 N   0  0  0  0  0  0  0  0  0  0  0  0
   58.2037  -16.7733    8.9473 C   0  0  0  0  0  0  0  0  0  0  0  0
   58.7010  -15.4388    9.2896 C   0  0  0  0  0  0  0  0  0  0  0  0
   57.9954  -14.2909    9.2015 N   0  0  0  0  0  0  0  0  0  0  0  0
   59.2499  -17.5852    9.1679 N   0  0  0  0  0  0  0  0  0  0  0  0
   60.2887  -16.8350    9.6293 C   0  0  0  0  0  0  0  0  0  0  0  0
   59.9576  -15.5240    9.7115 N   0  0  0  0  0  0  0  0  0  0  0  0
   60.8510  -14.4272   10.1743 C   0  0  1  0  0  0  0  0  0  0  0  0
   61.3141  -13.6214    8.9800 C   0  0  1  0  0  0  0  0  0  0  0  0
   61.3071  -12.2002    9.4806 C   0  0  2  0  0  0  0  0  0  0  0  0
   62.5901  -11.8718   10.0286 O   0  0  0  0  0  0  0  0  0  0  0  0
   62.6177  -14.0411    8.5475 O   0  0  0  0  0  0  0  0  0  0  0  0
   60.1304  -13.5205   11.0051 O   0  0  0  0  0  0  0  0  0  0  0  0
   60.2912  -12.1844   10.5931 C   0  0  2  0  0  0  0  0  0  0  0  0
   58.9073  -11.6916   10.2239 C   0  0  0  0  0  0  0  0  0  0  0  0
   58.9433  -10.3833    9.6918 O   0  0  0  0  0  0  0  0  0  0  0  0
   59.2677   -9.1673   10.6761 P   0  0  0  0  0  0  0  0  0  0  0  0
   60.7012   -9.3894   11.1152 O   0  0  0  0  0  0  0  0  0  0  0  0
   58.2346   -9.3501   11.7577 O   0  0  0  0  0  0  0  0  0  0  0  0
   59.0012   -7.9540    9.8290 O   0  0  0  0  0  0  0  0  0  0  0  0
  2  1  2  0  0  0  0
  2  4  1  0  0  0  0
  3  2  1  0  0  0  0
  4  7  1  0  0  0  0
  4  5  2  0  0  0  0
  5  6  1  0  0  0  0
  5  9  1  0  0  0  0
  7  8  2  0  0  0  0
  8  9  1  0  0  0  0
 10  9  1  6  0  0  0
 10 15  1  0  0  0  0
 11 14  1  1  0  0  0
 11 12  1  0  0  0  0
 11 10  1  0  0  0  0
 12 13  1  1  0  0  0
 12 16  1  0  0  0  0
 16 17  1  6  0  0  0
 16 15  1  0  0  0  0
 18 19  1  0  0  0  0
 18 17  1  0  0  0  0
 19 21  1  0  0  0  0
 20 19  1  0  0  0  0
 22 19  2  0  0  0  0
M  END
>  <CHROM.1>
4.04122959,-74.32792130,-57.52959710,66.04360497,-71.06573920,59.46723022
-13.16157885,9.76735124,1.77507355,0.04378356,-2.92046382

>  <Name>
lig.pdb

>  <RI>
0

>  <Rbt.Current_Directory>
/home/itssahil/PROJECTS/Mol_Feturizer/New_Systems/rnas/4znp

>  <Rbt.Executable>
rbdock ($Id: //depot/dev/client3/rdock/2013.1/src/exe/rbdock.cxx#4 $)

>  <Rbt.Library>
libRbt.so (2013.1, Build901 2013/11/27)

>  <Rbt.Parameter_File>
/export/apps/rDock/src/rDock_2013.1_src/data/scripts/dock_solv.prm

>  <Rbt.Receptor>
prm/pocket_docking_2.prm

>  <SCORE>
-23.1663

>  <SCORE.INTER>
-17.9929

>  <SCORE.INTER.CONST>
1

>  <SCORE.INTER.POLAR>
0

>  <SCORE.INTER.ROT>
5

>  <SCORE.INTER.SOLV>
19.1803

>  <SCORE.INTER.VDW>
-25.322

>  <SCORE.INTER.norm>
-0.817859

>  <SCORE.INTRA>
-5.17344

>  <SCORE.INTRA.DIHEDRAL>
-8.71039

>  <SCORE.INTRA.DIHEDRAL.0>
11.9251

>  <SCORE.INTRA.POLAR>
0

>  <SCORE.INTRA.POLAR.0>
0

>  <SCORE.INTRA.REPUL>
0

>  <SCORE.INTRA.REPUL.0>
0

>  <SCORE.INTRA.SOLV>
1.86474

>  <SCORE.INTRA.SOLV.lig_0>
-40.9823

>  <SCORE.INTRA.VDW>
-1.75062

>  <SCORE.INTRA.VDW.0>
-0.53506

>  <SCORE.INTRA.norm>
-0.235156

>  <SCORE.RESTR>
0

>  <SCORE.RESTR.CAVITY>
0

>  <SCORE.RESTR.norm>
0

>  <SCORE.SYSTEM>
0

>  <SCORE.SYSTEM.CONST>
0

>  <SCORE.SYSTEM.DIHEDRAL>
0

>  <SCORE.SYSTEM.SOLV>
0

>  <SCORE.SYSTEM.norm>
0

>  <SCORE.heavy>
22

>  <SCORE.norm>
-1.05302

>  <RMSD>
1.666

$$$$
lig.pdb
 OpenBabel11021811523D
libRbt.so/2013.1/901 2013/11/27
 22 23  0  0  0  0  0  0  0  0999 V2000
   56.0499  -16.1761    8.1719 O   0  0  0  0  0  0  0  0  0  0  0  0
   56.7942  -17.0850    8.4556 C   0  0  0  0  0  0  0  0  0  0  0  0
   56.4147  -18.3489    8.3898 N   0  0  0  0  0  0  0  0  0  0  0  0
   58.1551  -16.8020    8.9332 C   0  0  0  0  0  0  0  0  0  0  0  0
   58.6617  -15.4744    9.2884 C   0  0  0  0  0  0  0  0  0  0  0  0
   57.9641  -14.3208    9.2110 N   0  0  0  0  0  0  0  0  0  0  0  0
   59.1955  -17.6233    9.1466 N   0  0  0  0  0  0  0  0  0  0  0  0
   60.2393  -16.8849    9.6154 C   0  0  0  0  0  0  0  0  0  0  0  0
   59.9174  -15.5725    9.7099 N   0  0  0  0  0  0  0  0  0  0  0  0
   60.8183  -14.4864   10.1834 C   0  0  1  0  0  0  0  0  0  0  0  0
   61.3122  -13.6916    8.9941 C   0  0  1  0  0  0  0  0  0  0  0  0
   61.3168  -12.2686    9.4894 C   0  0  2  0  0  0  0  0  0  0  0  0
   62.5950  -11.9560   10.0573 O   0  0  0  0  0  0  0  0  0  0  0  0
   62.6167  -14.1310    8.5847 O   0  0  0  0  0  0  0  0  0  0  0  0
   60.0969  -13.5666   10.9991 O   0  0  0  0  0  0  0  0  0  0  0  0
   60.2831  -12.2344   10.5850 C   0  0  2  0  0  0  0  0  0  0  0  0
   58.9124  -11.7238   10.1912 C   0  0  0  0  0  0  0  0  0  0  0  0
   58.9751  -10.4171    9.6579 O   0  0  0  0  0  0  0  0  0  0  0  0
   59.2794   -9.2015   10.6490 P   0  0  0  0  0  0  0  0  0  0  0  0
   60.6974   -9.4335   11.1310 O   0  0  0  0  0  0  0  0  0  0  0  0
   58.2131   -9.3742   11.6998 O   0  0  0  0  0  0  0  0  0  0  0  0
   59.0474   -7.9881    9.7920 O   0  0  0  0  0  0  0  0  0  0  0  0
  2  1  2  0  0  0  0
  2  4  1  0  0  0  0
  3  2  1  0  0  0  0
  4  7  1  0  0  0  0
  4  5  2  0  0  0  0
  5  6  1  0  0  0  0
  5  9  1  0  0  0  0
  7  8  2  0  0  0  0
  8  9  1  0  0  0  0
 10  9  1  6  0  0  0
 10 15  1  0  0  0  0
 11 14  1  1  0  0  0
 11 12  1  0  0  0  0
 11 10  1  0  0  0  0
 12 13  1  1  0  0  0
 12 16  1  0  0  0  0
 16 17  1  6  0  0  0
 16 15  1  0  0  0  0
 18 19  1  0  0  0  0
 18 17  1  0  0  0  0
 19 21  1  0  0  0  0
 20 19  1  0  0  0  0
 22 19  2  0  0  0  0
M  END
>  <CHROM.1>
9.18236730,-75.58219718,-57.65747202,66.08181864,-71.87526541,59.45138685
-13.20364677,9.75769929,1.78337590,0.05635661,-2.92521981

>  <Name>
lig.pdb

>  <RI>
0

>  <Rbt.Current_Directory>
/home/itssahil/PROJECTS/Mol_Feturizer/New_Systems/rnas/4znp

>  <Rbt.Executable>
rbdock ($Id: //depot/dev/client3/rdock/2013.1/src/exe/rbdock.cxx#4 $)

>  <Rbt.Library>
libRbt.so (2013.1, Build901 2013/11/27)

>  <Rbt.Parameter_File>
/export/apps/rDock/src/rDock_2013.1_src/data/scripts/dock_solv.prm

>  <Rbt.Receptor>
prm/pocket_docking_3.prm

>  <SCORE>
-23.2348

>  <SCORE.INTER>
-18.2113

>  <SCORE.INTER.CONST>
1

>  <SCORE.INTER.POLAR>
0

>  <SCORE.INTER.ROT>
5

>  <SCORE.INTER.SOLV>
19.4117

>  <SCORE.INTER.VDW>
-25.5448

>  <SCORE.INTER.norm>
-0.827787

>  <SCORE.INTRA>
-5.02344

>  <SCORE.INTRA.DIHEDRAL>
-8.35558

>  <SCORE.INTRA.DIHEDRAL.0>
11.9251

>  <SCORE.INTRA.POLAR>
0

>  <SCORE.INTRA.POLAR.0>
0

>  <SCORE.INTRA.REPUL>
0

>  <SCORE.INTRA.REPUL.0>
0

>  <SCORE.INTRA.SOLV>
1.83045

>  <SCORE.INTRA.SOLV.lig_0>
-40.9823

>  <SCORE.INTRA.VDW>
-1.76088

>  <SCORE.INTRA.VDW.0>
-0.53506

>  <SCORE.INTRA.norm>
-0.228338

>  <SCORE.RESTR>
0

>  <SCORE.RESTR.CAVITY>
0

>  <SCORE.RESTR.norm>
0

>  <SCORE.SYSTEM>
0

>  <SCORE.SYSTEM.CONST>
0

>  <SCORE.SYSTEM.DIHEDRAL>
0

>  <SCORE.SYSTEM.SOLV>
0

>  <SCORE.SYSTEM.norm>
0

>  <SCORE.heavy>
22

>  <SCORE.norm>
-1.05613

>  <RMSD>
1.668

$$$$
lig.pdb
 OpenBabel11021811523D
libRbt.so/2013.1/901 2013/11/27
 22 23  0  0  0  0  0  0  0  0999 V2000
   57.4386  -18.4308    8.0323 O   0  0  0  0  0  0  0  0  0  0  0  0
   56.8354  -17.3914    8.1600 C   0  0  0  0  0  0  0  0  0  0  0  0
   55.5722  -17.2640    7.7943 N   0  0  0  0  0  0  0  0  0  0  0  0
   57.5168  -16.2045    8.6959 C   0  0  0  0  0  0  0  0  0  0  0  0
   58.8652  -16.1964    9.2677 C   0  0  0  0  0  0  0  0  0  0  0  0
   59.6673  -17.2742    9.4039 N   0  0  0  0  0  0  0  0  0  0  0  0
   57.1076  -14.9293    8.7902 N   0  0  0  0  0  0  0  0  0  0  0  0
   58.1124  -14.1931    9.3407 C   0  0  0  0  0  0  0  0  0  0  0  0
   59.1908  -14.9605    9.6290 N   0  0  0  0  0  0  0  0  0  0  0  0
   60.4621  -14.4828   10.2381 C   0  0  1  0  0  0  0  0  0  0  0  0
   61.1892  -13.5973    9.2495 C   0  0  1  0  0  0  0  0  0  0  0  0
   61.7708  -12.5032   10.1067 C   0  0  2  0  0  0  0  0  0  0  0  0
   63.0870  -12.8717   10.5379 O   0  0  0  0  0  0  0  0  0  0  0  0
   62.2005  -14.3330    8.5433 O   0  0  0  0  0  0  0  0  0  0  0  0
   60.1894  -13.6643   11.3727 O   0  0  0  0  0  0  0  0  0  0  0  0
   60.8715  -12.4347   11.3136 C   0  0  2  0  0  0  0  0  0  0  0  0
   59.8006  -11.3637   11.2859 C   0  0  0  0  0  0  0  0  0  0  0  0
   59.0337  -11.3609   12.4724 O   0  0  0  0  0  0  0  0  0  0  0  0
   57.8446  -10.3029   12.6105 P   0  0  0  0  0  0  0  0  0  0  0  0
   57.2389  -10.5688   13.9741 O   0  0  0  0  0  0  0  0  0  0  0  0
   56.9637  -10.6609   11.4414 O   0  0  0  0  0  0  0  0  0  0  0  0
   58.5335   -8.9796   12.4240 O   0  0  0  0  0  0  0  0  0  0  0  0
  2  1  2  0  0  0  0
  2  4  1  0  0  0  0
  3  2  1  0  0  0  0
  4  7  1  0  0  0  0
  4  5  2  0  0  0  0
  5  6  1  0  0  0  0
  5  9  1  0  0  0  0
  7  8  2  0  0  0  0
  8  9  1  0  0  0  0
 10  9  1  6  0  0  0
 10 15  1  0  0  0  0
 11 14  1  1  0  0  0
 11 12  1  0  0  0  0
 11 10  1  0  0  0  0
 12 13  1  1  0  0  0
 12 16  1  0  0  0  0
 16 17  1  6  0  0  0
 16 15  1  0  0  0  0
 18 19  1  0  0  0  0
 18 17  1  0  0  0  0
 19 21  1  0  0  0  0
 20 19  1  0  0  0  0
 22 19  2  0  0  0  0
M  END
>  <CHROM.1>
-8.25011849,112.18232843,-178.57965972,179.89767034,-179.35576124,59.02087999
-13.53283685,10.40876509,1.66135334,-0.09343137,-2.57985456

>  <Name>
lig.pdb

>  <RI>
0

>  <Rbt.Current_Directory>
/home/itssahil/PROJECTS/Mol_Feturizer/New_Systems/rnas/4znp

>  <Rbt.Executable>
rbdock ($Id: //depot/dev/client3/rdock/2013.1/src/exe/rbdock.cxx#4 $)

>  <Rbt.Library>
libRbt.so (2013.1, Build901 2013/11/27)

>  <Rbt.Parameter_File>
/export/apps/rDock/src/rDock_2013.1_src/data/scripts/dock_solv.prm

>  <Rbt.Receptor>
prm/pocket_docking_8.prm

>  <SCORE>
-26.1666

>  <SCORE.INTER>
-20.0855

>  <SCORE.INTER.CONST>
1

>  <SCORE.INTER.POLAR>
0

>  <SCORE.INTER.ROT>
5

>  <SCORE.INTER.SOLV>
21.1656

>  <SCORE.INTER.VDW>
-27.3789

>  <SCORE.INTER.norm>
-0.912977

>  <SCORE.INTRA>
-6.08114

>  <SCORE.INTRA.DIHEDRAL>
-9.33294

>  <SCORE.INTRA.DIHEDRAL.0>
11.9251

>  <SCORE.INTRA.POLAR>
0

>  <SCORE.INTRA.POLAR.0>
0

>  <SCORE.INTRA.REPUL>
0

>  <SCORE.INTRA.REPUL.0>
0

>  <SCORE.INTRA.SOLV>
-0.103819

>  <SCORE.INTRA.SOLV.lig_0>
-40.9823

>  <SCORE.INTRA.VDW>
-1.36277

>  <SCORE.INTRA.VDW.0>
-0.53506

>  <SCORE.INTRA.norm>
-0.276416

>  <SCORE.RESTR>
0

>  <SCORE.RESTR.CAVITY>
0

>  <SCORE.RESTR.norm>
0

>  <SCORE.SYSTEM>
0

>  <SCORE.SYSTEM.CONST>
0

>  <SCORE.SYSTEM.DIHEDRAL>
0

>  <SCORE.SYSTEM.SOLV>
0

>  <SCORE.SYSTEM.norm>
0

>  <SCORE.heavy>
22

>  <SCORE.norm>
-1.18939

>  <RMSD>
1.668

$$$$
lig.pdb
 OpenBabel11021811523D
libRbt.so/2013.1/901 2013/11/27
 22 23  0  0  0  0  0  0  0  0999 V2000
   55.7163  -17.2275    7.8338 O   0  0  0  0  0  0  0  0  0  0  0  0
   56.8859  -17.2954    8.1301 C   0  0  0  0  0  0  0  0  0  0  0  0
   57.5747  -18.4170    8.0145 N   0  0  0  0  0  0  0  0  0  0  0  0
   57.5770  -16.1203    8.6793 C   0  0  0  0  0  0  0  0  0  0  0  0
   58.9114  -16.1366    9.2830 C   0  0  0  0  0  0  0  0  0  0  0  0
   59.6892  -17.2291    9.4406 N   0  0  0  0  0  0  0  0  0  0  0  0
   57.1902  -14.8373    8.7611 N   0  0  0  0  0  0  0  0  0  0  0  0
   58.1956  -14.1190    9.3337 C   0  0  0  0  0  0  0  0  0  0  0  0
   59.2520  -14.9061    9.6492 N   0  0  0  0  0  0  0  0  0  0  0  0
   60.5174  -14.4512   10.2874 C   0  0  1  0  0  0  0  0  0  0  0  0
   61.3192  -13.6441    9.2895 C   0  0  1  0  0  0  0  0  0  0  0  0
   61.9123  -12.5343   10.1184 C   0  0  2  0  0  0  0  0  0  0  0  0
   63.1939  -12.9342   10.6199 O   0  0  0  0  0  0  0  0  0  0  0  0
   62.3256  -14.4527    8.6603 O   0  0  0  0  0  0  0  0  0  0  0  0
   60.2351  -13.5690   11.3707 O   0  0  0  0  0  0  0  0  0  0  0  0
   60.9701  -12.3720   11.2828 C   0  0  2  0  0  0  0  0  0  0  0  0
   59.9471  -11.2614   11.1615 C   0  0  0  0  0  0  0  0  0  0  0  0
   59.1059  -11.2000   12.2949 O   0  0  0  0  0  0  0  0  0  0  0  0
   57.9346  -10.1137   12.3186 P   0  0  0  0  0  0  0  0  0  0  0  0
   57.2589  -10.2941   13.6631 O   0  0  0  0  0  0  0  0  0  0  0  0
   57.1031  -10.5173   11.1284 O   0  0  0  0  0  0  0  0  0  0  0  0
   58.6602   -8.8156   12.0962 O   0  0  0  0  0  0  0  0  0  0  0  0
  2  1  2  0  0  0  0
  2  4  1  0  0  0  0
  3  2  1  0  0  0  0
  4  7  1  0  0  0  0
  4  5  2  0  0  0  0
  5  6  1  0  0  0  0
  5  9  1  0  0  0  0
  7  8  2  0  0  0  0
  8  9  1  0  0  0  0
 10  9  1  6  0  0  0
 10 15  1  0  0  0  0
 11 14  1  1  0  0  0
 11 12  1  0  0  0  0
 11 10  1  0  0  0  0
 12 13  1  1  0  0  0
 12 16  1  0  0  0  0
 16 17  1  6  0  0  0
 16 15  1  0  0  0  0
 18 19  1  0  0  0  0
 18 17  1  0  0  0  0
 19 21  1  0  0  0  0
 20 19  1  0  0  0  0
 22 19  2  0  0  0  0
M  END
>  <CHROM.1>
169.02574925,109.17569301,179.43498917,-178.71428310,-178.11151746,59.10065327
-13.44910972,10.33316336,1.66899201,-0.03494322,-2.62111883

>  <Name>
lig.pdb

>  <RI>
0

>  <Rbt.Current_Directory>
/home/itssahil/PROJECTS/Mol_Feturizer/New_Systems/rnas/4znp

>  <Rbt.Executable>
rbdock ($Id: //depot/dev/client3/rdock/2013.1/src/exe/rbdock.cxx#4 $)

>  <Rbt.Library>
libRbt.so (2013.1, Build901 2013/11/27)

>  <Rbt.Parameter_File>
/export/apps/rDock/src/rDock_2013.1_src/data/scripts/dock_solv.prm

>  <Rbt.Receptor>
prm/pocket_docking_5.prm

>  <SCORE>
-25.8052

>  <SCORE.INTER>
-19.9474

>  <SCORE.INTER.CONST>
1

>  <SCORE.INTER.POLAR>
0

>  <SCORE.INTER.ROT>
5

>  <SCORE.INTER.SOLV>
20.7023

>  <SCORE.INTER.VDW>
-27.1324

>  <SCORE.INTER.norm>
-0.906702

>  <SCORE.INTRA>
-5.8577

>  <SCORE.INTRA.DIHEDRAL>
-9.16075

>  <SCORE.INTRA.DIHEDRAL.0>
11.9251

>  <SCORE.INTRA.POLAR>
0

>  <SCORE.INTRA.POLAR.0>
0

>  <SCORE.INTRA.REPUL>
0

>  <SCORE.INTRA.REPUL.0>
0

>  <SCORE.INTRA.SOLV>
0.17069

>  <SCORE.INTRA.SOLV.lig_0>
-40.9823

>  <SCORE.INTRA.VDW>
-1.36267

>  <SCORE.INTRA.VDW.0>
-0.53506

>  <SCORE.INTRA.norm>
-0.266259

>  <SCORE.RESTR>
0

>  <SCORE.RESTR.CAVITY>
0

>  <SCORE.RESTR.norm>
0

>  <SCORE.SYSTEM>
0

>  <SCORE.SYSTEM.CONST>
0

>  <SCORE.SYSTEM.DIHEDRAL>
0

>  <SCORE.SYSTEM.SOLV>
0

>  <SCORE.SYSTEM.norm>
0

>  <SCORE.heavy>
22

>  <SCORE.norm>
-1.17296

>  <RMSD>
1.674

$$$$
lig.pdb
 OpenBabel11021811523D
libRbt.so/2013.1/901 2013/11/27
 22 23  0  0  0  0  0  0  0  0999 V2000
   57.4971  -18.4700    8.0246 O   0  0  0  0  0  0  0  0  0  0  0  0
   56.8817  -17.4377    8.1519 C   0  0  0  0  0  0  0  0  0  0  0  0
   55.6151  -17.3273    7.7927 N   0  0  0  0  0  0  0  0  0  0  0  0
   57.5512  -16.2404    8.6797 C   0  0  0  0  0  0  0  0  0  0  0  0
   58.8939  -16.2177    9.2646 C   0  0  0  0  0  0  0  0  0  0  0  0
   59.7005  -17.2892    9.4218 N   0  0  0  0  0  0  0  0  0  0  0  0
   57.1340  -14.9665    8.7544 N   0  0  0  0  0  0  0  0  0  0  0  0
   58.1293  -14.2179    9.3055 C   0  0  0  0  0  0  0  0  0  0  0  0
   59.2091  -14.9756    9.6137 N   0  0  0  0  0  0  0  0  0  0  0  0
   60.4717  -14.4834   10.2293 C   0  0  1  0  0  0  0  0  0  0  0  0
   61.1966  -13.5946    9.2421 C   0  0  1  0  0  0  0  0  0  0  0  0
   61.7619  -12.4916   10.0989 C   0  0  2  0  0  0  0  0  0  0  0  0
   63.0788  -12.8457   10.5400 O   0  0  0  0  0  0  0  0  0  0  0  0
   62.2196  -14.3230    8.5453 O   0  0  0  0  0  0  0  0  0  0  0  0
   60.1836  -13.6632   11.3590 O   0  0  0  0  0  0  0  0  0  0  0  0
   60.8541  -12.4273   11.2996 C   0  0  2  0  0  0  0  0  0  0  0  0
   59.7731  -11.3669   11.2608 C   0  0  0  0  0  0  0  0  0  0  0  0
   58.9773  -11.3892   12.4279 O   0  0  0  0  0  0  0  0  0  0  0  0
   57.7269  -10.3988   12.5185 P   0  0  0  0  0  0  0  0  0  0  0  0
   57.1686  -10.5979   13.9133 O   0  0  0  0  0  0  0  0  0  0  0  0
   56.8456  -10.8972   11.4024 O   0  0  0  0  0  0  0  0  0  0  0  0
   58.3267   -9.0534   12.2169 O   0  0  0  0  0  0  0  0  0  0  0  0
  2  1  2  0  0  0  0
  2  4  1  0  0  0  0
  3  2  1  0  0  0  0
  4  7  1  0  0  0  0
  4  5  2  0  0  0  0
  5  6  1  0  0  0  0
  5  9  1  0  0  0  0
  7  8  2  0  0  0  0
  8  9  1  0  0  0  0
 10  9  1  6  0  0  0
 10 15  1  0  0  0  0
 11 14  1  1  0  0  0
 11 12  1  0  0  0  0
 11 10  1  0  0  0  0
 12 13  1  1  0  0  0
 12 16  1  0  0  0  0
 16 17  1  6  0  0  0
 16 15  1  0  0  0  0
 18 19  1  0  0  0  0
 18 17  1  0  0  0  0
 19 21  1  0  0  0  0
 20 19  1  0  0  0  0
 22 19  2  0  0  0  0
M  END
>  <CHROM.1>
-9.33034292,112.75311605,179.94456689,-175.73881450,-176.14360008,58.99926827
-13.56932753,10.37583225,1.64609480,-0.09374149,-2.58693716

>  <Name>
lig.pdb

>  <RI>
0

>  <Rbt.Current_Directory>
/home/itssahil/PROJECTS/Mol_Feturizer/New_Systems/rnas/4znp

>  <Rbt.Executable>
rbdock ($Id: //depot/dev/client3/rdock/2013.1/src/exe/rbdock.cxx#4 $)

>  <Rbt.Library>
libRbt.so (2013.1, Build901 2013/11/27)

>  <Rbt.Parameter_File>
/export/apps/rDock/src/rDock_2013.1_src/data/scripts/dock_solv.prm

>  <Rbt.Receptor>
prm/pocket_docking_5.prm

>  <SCORE>
-26.18

>  <SCORE.INTER>
-20.1871

>  <SCORE.INTER.CONST>
1

>  <SCORE.INTER.POLAR>
0

>  <SCORE.INTER.ROT>
5

>  <SCORE.INTER.SOLV>
21.2817

>  <SCORE.INTER.VDW>
-27.4853

>  <SCORE.INTER.norm>
-0.917593

>  <SCORE.INTRA>
-5.99298

>  <SCORE.INTRA.DIHEDRAL>
-9.16841

>  <SCORE.INTRA.DIHEDRAL.0>
11.9251

>  <SCORE.INTRA.POLAR>
0

>  <SCORE.INTRA.POLAR.0>
0

>  <SCORE.INTRA.REPUL>
0

>  <SCORE.INTRA.REPUL.0>
0

>  <SCORE.INTRA.SOLV>
-0.0882847

>  <SCORE.INTRA.SOLV.lig_0>
-40.9823

>  <SCORE.INTRA.VDW>
-1.36463

>  <SCORE.INTRA.VDW.0>
-0.53506

>  <SCORE.INTRA.norm>
-0.272408

>  <SCORE.RESTR>
0

>  <SCORE.RESTR.CAVITY>
0

>  <SCORE.RESTR.norm>
0

>  <SCORE.SYSTEM>
0

>  <SCORE.SYSTEM.CONST>
0

>  <SCORE.SYSTEM.DIHEDRAL>
0

>  <SCORE.SYSTEM.SOLV>
0

>  <SCORE.SYSTEM.norm>
0

>  <SCORE.heavy>
22

>  <SCORE.norm>
-1.19

>  <RMSD>
1.701

$$$$
lig.pdb
 OpenBabel11021811523D
libRbt.so/2013.1/901 2013/11/27
 22 23  0  0  0  0  0  0  0  0999 V2000
   56.1564  -16.1229    8.2814 O   0  0  0  0  0  0  0  0  0  0  0  0
   56.9054  -17.0485    8.4881 C   0  0  0  0  0  0  0  0  0  0  0  0
   56.5135  -18.3056    8.3796 N   0  0  0  0  0  0  0  0  0  0  0  0
   58.2884  -16.7964    8.9170 C   0  0  0  0  0  0  0  0  0  0  0  0
   58.8332  -15.4825    9.2665 C   0  0  0  0  0  0  0  0  0  0  0  0
   58.1556  -14.3152    9.2273 N   0  0  0  0  0  0  0  0  0  0  0  0
   59.3201  -17.6393    9.0825 N   0  0  0  0  0  0  0  0  0  0  0  0
   60.3947  -16.9258    9.5193 C   0  0  0  0  0  0  0  0  0  0  0  0
   60.1018  -15.6087    9.6394 N   0  0  0  0  0  0  0  0  0  0  0  0
   61.0404  -14.5450   10.0898 C   0  0  1  0  0  0  0  0  0  0  0  0
   61.3718  -13.6423    8.9213 C   0  0  1  0  0  0  0  0  0  0  0  0
   61.4195  -12.2659    9.5325 C   0  0  2  0  0  0  0  0  0  0  0  0
   62.7544  -11.9717    9.9634 O   0  0  0  0  0  0  0  0  0  0  0  0
   62.6208  -14.0151    8.3183 O   0  0  0  0  0  0  0  0  0  0  0  0
   60.4144  -13.7138   11.0639 O   0  0  0  0  0  0  0  0  0  0  0  0
   60.5301  -12.3477   10.7458 C   0  0  2  0  0  0  0  0  0  0  0  0
   59.1145  -11.8385   10.5690 C   0  0  0  0  0  0  0  0  0  0  0  0
   59.0876  -10.4510   10.3043 O   0  0  0  0  0  0  0  0  0  0  0  0
   59.4821   -9.4418   11.4784 P   0  0  0  0  0  0  0  0  0  0  0  0
   60.9462   -9.7167   11.7570 O   0  0  0  0  0  0  0  0  0  0  0  0
   58.5367   -9.8498   12.5787 O   0  0  0  0  0  0  0  0  0  0  0  0
   59.1454   -8.0932   10.9051 O   0  0  0  0  0  0  0  0  0  0  0  0
  2  1  2  0  0  0  0
  2  4  1  0  0  0  0
  3  2  1  0  0  0  0
  4  7  1  0  0  0  0
  4  5  2  0  0  0  0
  5  6  1  0  0  0  0
  5  9  1  0  0  0  0
  7  8  2  0  0  0  0
  8  9  1  0  0  0  0
 10  9  1  6  0  0  0
 10 15  1  0  0  0  0
 11 14  1  1  0  0  0
 11 12  1  0  0  0  0
 11 10  1  0  0  0  0
 12 13  1  1  0  0  0
 12 16  1  0  0  0  0
 16 17  1  6  0  0  0
 16 15  1  0  0  0  0
 18 19  1  0  0  0  0
 18 17  1  0  0  0  0
 19 21  1  0  0  0  0
 20 19  1  0  0  0  0
 22 19  2  0  0  0  0
M  END
>  <CHROM.1>
6.92138685,-68.69693954,-64.78716583,65.28048059,-69.86595130,59.61698731
-13.27950748,9.99278899,1.79002792,-0.06423114,-2.79470485

>  <Name>
lig.pdb

>  <RI>
0

>  <Rbt.Current_Directory>
/home/itssahil/PROJECTS/Mol_Feturizer/New_Systems/rnas/4znp

>  <Rbt.Executable>
rbdock ($Id: //depot/dev/client3/rdock/2013.1/src/exe/rbdock.cxx#4 $)

>  <Rbt.Library>
libRbt.so (2013.1, Build901 2013/11/27)

>  <Rbt.Parameter_File>
/export/apps/rDock/src/rDock_2013.1_src/data/scripts/dock_solv.prm

>  <Rbt.Receptor>
prm/pocket_docking_3.prm

>  <SCORE>
-22.9777

>  <SCORE.INTER>
-17.7368

>  <SCORE.INTER.CONST>
1

>  <SCORE.INTER.POLAR>
0

>  <SCORE.INTER.ROT>
5

>  <SCORE.INTER.SOLV>
18.454

>  <SCORE.INTER.VDW>
-24.9092

>  <SCORE.INTER.norm>
-0.806219

>  <SCORE.INTRA>
-5.24088

>  <SCORE.INTRA.DIHEDRAL>
-8.65925

>  <SCORE.INTRA.DIHEDRAL.0>
11.9251

>  <SCORE.INTRA.POLAR>
0

>  <SCORE.INTRA.POLAR.0>
0

>  <SCORE.INTRA.REPUL>
0

>  <SCORE.INTRA.REPUL.0>
0

>  <SCORE.INTRA.SOLV>
1.79549

>  <SCORE.INTRA.SOLV.lig_0>
-40.9823

>  <SCORE.INTRA.VDW>
-1.809

>  <SCORE.INTRA.VDW.0>
-0.53506

>  <SCORE.INTRA.norm>
-0.238222

>  <SCORE.RESTR>
0

>  <SCORE.RESTR.CAVITY>
0

>  <SCORE.RESTR.norm>
0

>  <SCORE.SYSTEM>
0

>  <SCORE.SYSTEM.CONST>
0

>  <SCORE.SYSTEM.DIHEDRAL>
0

>  <SCORE.SYSTEM.SOLV>
0

>  <SCORE.SYSTEM.norm>
0

>  <SCORE.heavy>
22

>  <SCORE.norm>
-1.04444

>  <RMSD>
1.713

$$$$
lig.pdb
 OpenBabel11021811523D
libRbt.so/2013.1/901 2013/11/27
 22 23  0  0  0  0  0  0  0  0999 V2000
   57.4681  -18.4266    8.0713 O   0  0  0  0  0  0  0  0  0  0  0  0
   56.8671  -17.3839    8.1805 C   0  0  0  0  0  0  0  0  0  0  0  0
   55.6063  -17.2585    7.8059 N   0  0  0  0  0  0  0  0  0  0  0  0
   57.5487  -16.1911    8.7029 C   0  0  0  0  0  0  0  0  0  0  0  0
   58.8905  -16.1798    9.2901 C   0  0  0  0  0  0  0  0  0  0  0  0
   59.6851  -17.2591    9.4549 N   0  0  0  0  0  0  0  0  0  0  0  0
   57.1454  -14.9123    8.7696 N   0  0  0  0  0  0  0  0  0  0  0  0
   58.1479  -14.1716    9.3185 C   0  0  0  0  0  0  0  0  0  0  0  0
   59.2187  -14.9393    9.6329 N   0  0  0  0  0  0  0  0  0  0  0  0
   60.4855  -14.4575   10.2481 C   0  0  1  0  0  0  0  0  0  0  0  0
   61.2158  -13.5720    9.2618 C   0  0  1  0  0  0  0  0  0  0  0  0
   61.7900  -12.4748   10.1202 C   0  0  2  0  0  0  0  0  0  0  0  0
   63.1047  -12.8393   10.5592 O   0  0  0  0  0  0  0  0  0  0  0  0
   62.2327  -14.3064    8.5625 O   0  0  0  0  0  0  0  0  0  0  0  0
   60.2046  -13.6375   11.3797 O   0  0  0  0  0  0  0  0  0  0  0  0
   60.8840  -12.4064   11.3221 C   0  0  2  0  0  0  0  0  0  0  0  0
   59.8107  -11.3381   11.2866 C   0  0  0  0  0  0  0  0  0  0  0  0
   58.9731  -11.4011   12.4225 O   0  0  0  0  0  0  0  0  0  0  0  0
   57.7285  -10.4031   12.5099 P   0  0  0  0  0  0  0  0  0  0  0  0
   56.8502  -10.7666   11.3295 O   0  0  0  0  0  0  0  0  0  0  0  0
   58.3954   -9.0550   12.4164 O   0  0  0  0  0  0  0  0  0  0  0  0
   57.1650  -10.6694   13.8782 O   0  0  0  0  0  0  0  0  0  0  0  0
  2  1  2  0  0  0  0
  2  4  1  0  0  0  0
  3  2  1  0  0  0  0
  4  7  1  0  0  0  0
  4  5  2  0  0  0  0
  5  6  1  0  0  0  0
  5  9  1  0  0  0  0
  7  8  2  0  0  0  0
  8  9  1  0  0  0  0
 10  9  1  6  0  0  0
 10 15  1  0  0  0  0
 11 14  1  1  0  0  0
 11 12  1  0  0  0  0
 11 10  1  0  0  0  0
 12 13  1  1  0  0  0
 12 16  1  0  0  0  0
 16 17  1  6  0  0  0
 16 15  1  0  0  0  0
 18 19  1  0  0  0  0
 18 17  1  0  0  0  0
 19 21  1  0  0  0  0
 20 19  1  0  0  0  0
 22 19  2  0  0  0  0
M  END
>  <CHROM.1>
-8.67336731,113.26652925,176.91614591,62.19593811,-176.36367993,59.00914196
-13.54344884,10.39533309,1.65210199,-0.08935183,-2.58539443

>  <Name>
lig.pdb

>  <RI>
0

>  <Rbt.Current_Directory>
/home/itssahil/PROJECTS/Mol_Feturizer/New_Systems/rnas/4znp

>  <Rbt.Executable>
rbdock ($Id: //depot/dev/client3/rdock/2013.1/src/exe/rbdock.cxx#4 $)

>  <Rbt.Library>
libRbt.so (2013.1, Build901 2013/11/27)

>  <Rbt.Parameter_File>
/export/apps/rDock/src/rDock_2013.1_src/data/scripts/dock_solv.prm

>  <Rbt.Receptor>
prm/pocket_docking_5.prm

>  <SCORE>
-26.2533

>  <SCORE.INTER>
-19.9995

>  <SCORE.INTER.CONST>
1

>  <SCORE.INTER.POLAR>
0

>  <SCORE.INTER.ROT>
5

>  <SCORE.INTER.SOLV>
21.5334

>  <SCORE.INTER.VDW>
-27.4442

>  <SCORE.INTER.norm>
-0.909069

>  <SCORE.INTRA>
-6.25376

>  <SCORE.INTRA.DIHEDRAL>
-9.20244

>  <SCORE.INTRA.DIHEDRAL.0>
11.9251

>  <SCORE.INTRA.POLAR>
0

>  <SCORE.INTRA.POLAR.0>
0

>  <SCORE.INTRA.REPUL>
0

>  <SCORE.INTRA.REPUL.0>
0

>  <SCORE.INTRA.SOLV>
-0.332441

>  <SCORE.INTRA.SOLV.lig_0>
-40.9823

>  <SCORE.INTRA.VDW>
-1.48632

>  <SCORE.INTRA.VDW.0>
-0.53506

>  <SCORE.INTRA.norm>
-0.284262

>  <SCORE.RESTR>
0

>  <SCORE.RESTR.CAVITY>
0

>  <SCORE.RESTR.norm>
0

>  <SCORE.SYSTEM>
0

>  <SCORE.SYSTEM.CONST>
0

>  <SCORE.SYSTEM.DIHEDRAL>
0

>  <SCORE.SYSTEM.SOLV>
0

>  <SCORE.SYSTEM.norm>
0

>  <SCORE.heavy>
22

>  <SCORE.norm>
-1.19333

>  <RMSD>
1.720

$$$$
lig.pdb
 OpenBabel11021811523D
libRbt.so/2013.1/901 2013/11/27
 22 23  0  0  0  0  0  0  0  0999 V2000
   55.5484  -17.4007    7.7021 O   0  0  0  0  0  0  0  0  0  0  0  0
   56.7096  -17.4498    8.0333 C   0  0  0  0  0  0  0  0  0  0  0  0
   57.4167  -18.5627    7.9485 N   0  0  0  0  0  0  0  0  0  0  0  0
   57.3681  -16.2604    8.5919 C   0  0  0  0  0  0  0  0  0  0  0  0
   58.6750  -16.2565    9.2532 C   0  0  0  0  0  0  0  0  0  0  0  0
   59.4526  -17.3403    9.4631 N   0  0  0  0  0  0  0  0  0  0  0  0
   56.9695  -14.9792    8.6348 N   0  0  0  0  0  0  0  0  0  0  0  0
   57.9441  -14.2438    9.2381 C   0  0  0  0  0  0  0  0  0  0  0  0
   58.9910  -15.0175    9.6127 N   0  0  0  0  0  0  0  0  0  0  0  0
   60.2244  -14.5425   10.2973 C   0  0  1  0  0  0  0  0  0  0  0  0
   61.2132  -14.0505    9.2627 C   0  0  1  0  0  0  0  0  0  0  0  0
   61.8354  -12.8391    9.9074 C   0  0  2  0  0  0  0  0  0  0  0  0
   63.0034  -13.2259   10.6424 O   0  0  0  0  0  0  0  0  0  0  0  0
   62.1837  -15.0628    8.9531 O   0  0  0  0  0  0  0  0  0  0  0  0
   59.9291  -13.4197   11.1243 O   0  0  0  0  0  0  0  0  0  0  0  0
   60.7988  -12.3405   10.8805 C   0  0  2  0  0  0  0  0  0  0  0  0
   59.9255  -11.2011   10.3971 C   0  0  0  0  0  0  0  0  0  0  0  0
   58.8102  -11.0031   11.2414 O   0  0  0  0  0  0  0  0  0  0  0  0
   59.0671  -10.5566   12.7538 P   0  0  0  0  0  0  0  0  0  0  0  0
   59.7256  -11.7534   13.4100 O   0  0  0  0  0  0  0  0  0  0  0  0
   57.6722  -10.2528   13.2364 O   0  0  0  0  0  0  0  0  0  0  0  0
   59.9065   -9.3172   12.6123 O   0  0  0  0  0  0  0  0  0  0  0  0
  2  1  2  0  0  0  0
  2  4  1  0  0  0  0
  3  2  1  0  0  0  0
  4  7  1  0  0  0  0
  4  5  2  0  0  0  0
  5  6  1  0  0  0  0
  5  9  1  0  0  0  0
  7  8  2  0  0  0  0
  8  9  1  0  0  0  0
 10  9  1  6  0  0  0
 10 15  1  0  0  0  0
 11 14  1  1  0  0  0
 11 12  1  0  0  0  0
 11 10  1  0  0  0  0
 12 13  1  1  0  0  0
 12 16  1  0  0  0  0
 16 17  1  6  0  0  0
 16 15  1  0  0  0  0
 18 19  1  0  0  0  0
 18 17  1  0  0  0  0
 19 21  1  0  0  0  0
 20 19  1  0  0  0  0
 22 19  2  0  0  0  0
M  END
>  <CHROM.1>
168.03114903,95.33242063,166.93260455,-67.93594865,63.72504268,59.26486113
-13.67766749,10.35715961,1.84538872,-0.05443385,-2.56336959

>  <Name>
lig.pdb

>  <RI>
0

>  <Rbt.Current_Directory>
/home/itssahil/PROJECTS/Mol_Feturizer/New_Systems/rnas/4znp

>  <Rbt.Executable>
rbdock ($Id: //depot/dev/client3/rdock/2013.1/src/exe/rbdock.cxx#4 $)

>  <Rbt.Library>
libRbt.so (2013.1, Build901 2013/11/27)

>  <Rbt.Parameter_File>
/export/apps/rDock/src/rDock_2013.1_src/data/scripts/dock_solv.prm

>  <Rbt.Receptor>
prm/pocket_docking_3.prm

>  <SCORE>
-25.2251

>  <SCORE.INTER>
-20.3916

>  <SCORE.INTER.CONST>
1

>  <SCORE.INTER.POLAR>
0

>  <SCORE.INTER.ROT>
5

>  <SCORE.INTER.SOLV>
21.0423

>  <SCORE.INTER.VDW>
-27.5418

>  <SCORE.INTER.norm>
-0.926892

>  <SCORE.INTRA>
-4.83351

>  <SCORE.INTRA.DIHEDRAL>
-8.381

>  <SCORE.INTRA.DIHEDRAL.0>
11.9251

>  <SCORE.INTRA.POLAR>
0

>  <SCORE.INTRA.POLAR.0>
0

>  <SCORE.INTRA.REPUL>
0

>  <SCORE.INTRA.REPUL.0>
0

>  <SCORE.INTRA.SOLV>
1.45503

>  <SCORE.INTRA.SOLV.lig_0>
-40.9823

>  <SCORE.INTRA.VDW>
-1.37053

>  <SCORE.INTRA.VDW.0>
-0.53506

>  <SCORE.INTRA.norm>
-0.219705

>  <SCORE.RESTR>
0

>  <SCORE.RESTR.CAVITY>
0

>  <SCORE.RESTR.norm>
0

>  <SCORE.SYSTEM>
0

>  <SCORE.SYSTEM.CONST>
0

>  <SCORE.SYSTEM.DIHEDRAL>
0

>  <SCORE.SYSTEM.SOLV>
0

>  <SCORE.SYSTEM.norm>
0

>  <SCORE.heavy>
22

>  <SCORE.norm>
-1.1466

>  <RMSD>
1.725

$$$$
lig.pdb
 OpenBabel11021811523D
libRbt.so/2013.1/901 2013/11/27
 22 23  0  0  0  0  0  0  0  0999 V2000
   56.7481  -18.3522    8.1900 O   0  0  0  0  0  0  0  0  0  0  0  0
   57.0208  -17.2038    8.4492 C   0  0  0  0  0  0  0  0  0  0  0  0
   56.1435  -16.2258    8.3088 N   0  0  0  0  0  0  0  0  0  0  0  0
   58.3760  -16.8500    8.8947 C   0  0  0  0  0  0  0  0  0  0  0  0
   58.8093  -15.5050    9.2799 C   0  0  0  0  0  0  0  0  0  0  0  0
   58.0384  -14.3964    9.2636 N   0  0  0  0  0  0  0  0  0  0  0  0
   59.4723  -17.6096    9.0478 N   0  0  0  0  0  0  0  0  0  0  0  0
   60.4824  -16.8216    9.5099 C   0  0  0  0  0  0  0  0  0  0  0  0
   60.0818  -15.5362    9.6594 N   0  0  0  0  0  0  0  0  0  0  0  0
   60.9275  -14.4107   10.1425 C   0  0  1  0  0  0  0  0  0  0  0  0
   61.3660  -13.5716    8.9620 C   0  0  1  0  0  0  0  0  0  0  0  0
   61.2988  -12.1584    9.4805 C   0  0  2  0  0  0  0  0  0  0  0  0
   62.5639  -11.7863   10.0419 O   0  0  0  0  0  0  0  0  0  0  0  0
   62.6882  -13.9333    8.5336 O   0  0  0  0  0  0  0  0  0  0  0  0
   60.1657  -13.5443   10.9796 O   0  0  0  0  0  0  0  0  0  0  0  0
   60.2757  -12.1976   10.5858 C   0  0  2  0  0  0  0  0  0  0  0  0
   58.8757  -11.7556   10.2129 C   0  0  0  0  0  0  0  0  0  0  0  0
   58.8633  -10.4412    9.6950 O   0  0  0  0  0  0  0  0  0  0  0  0
   59.1518   -9.2255   10.6907 P   0  0  0  0  0  0  0  0  0  0  0  0
   58.2629   -9.4817   11.8911 O   0  0  0  0  0  0  0  0  0  0  0  0
   58.7656   -8.0324    9.8551 O   0  0  0  0  0  0  0  0  0  0  0  0
   60.6356   -9.3082   10.9192 O   0  0  0  0  0  0  0  0  0  0  0  0
  2  1  2  0  0  0  0
  2  4  1  0  0  0  0
  3  2  1  0  0  0  0
  4  7  1  0  0  0  0
  4  5  2  0  0  0  0
  5  6  1  0  0  0  0
  5  9  1  0  0  0  0
  7  8  2  0  0  0  0
  8  9  1  0  0  0  0
 10  9  1  6  0  0  0
 10 15  1  0  0  0  0
 11 14  1  1  0  0  0
 11 12  1  0  0  0  0
 11 10  1  0  0  0  0
 12 13  1  1  0  0  0
 12 16  1  0  0  0  0
 16 17  1  6  0  0  0
 16 15  1  0  0  0  0
 18 19  1  0  0  0  0
 18 17  1  0  0  0  0
 19 21  1  0  0  0  0
 20 19  1  0  0  0  0
 22 19  2  0  0  0  0
M  END
>  <CHROM.1>
-177.77808696,-77.27898570,-57.39789234,-48.12533684,-70.30671608,59.50435112
-13.19844889,9.74626980,1.74024742,0.02655487,-2.90959385

>  <Name>
lig.pdb

>  <RI>
0

>  <Rbt.Current_Directory>
/home/itssahil/PROJECTS/Mol_Feturizer/New_Systems/rnas/4znp

>  <Rbt.Executable>
rbdock ($Id: //depot/dev/client3/rdock/2013.1/src/exe/rbdock.cxx#4 $)

>  <Rbt.Library>
libRbt.so (2013.1, Build901 2013/11/27)

>  <Rbt.Parameter_File>
/export/apps/rDock/src/rDock_2013.1_src/data/scripts/dock_solv.prm

>  <Rbt.Receptor>
prm/pocket_docking_3.prm

>  <SCORE>
-22.9491

>  <SCORE.INTER>
-18.3318

>  <SCORE.INTER.CONST>
1

>  <SCORE.INTER.POLAR>
0

>  <SCORE.INTER.ROT>
5

>  <SCORE.INTER.SOLV>
19.0088

>  <SCORE.INTER.VDW>
-25.4908

>  <SCORE.INTER.norm>
-0.833266

>  <SCORE.INTRA>
-4.61729

>  <SCORE.INTRA.DIHEDRAL>
-8.65418

>  <SCORE.INTRA.DIHEDRAL.0>
11.9251

>  <SCORE.INTRA.POLAR>
0

>  <SCORE.INTRA.POLAR.0>
0

>  <SCORE.INTRA.REPUL>
0

>  <SCORE.INTRA.REPUL.0>
0

>  <SCORE.INTRA.SOLV>
3.06878

>  <SCORE.INTRA.SOLV.lig_0>
-40.9823

>  <SCORE.INTRA.VDW>
-1.82458

>  <SCORE.INTRA.VDW.0>
-0.53506

>  <SCORE.INTRA.norm>
-0.209877

>  <SCORE.RESTR>
0

>  <SCORE.RESTR.CAVITY>
0

>  <SCORE.RESTR.norm>
0

>  <SCORE.SYSTEM>
0

>  <SCORE.SYSTEM.CONST>
0

>  <SCORE.SYSTEM.DIHEDRAL>
0

>  <SCORE.SYSTEM.SOLV>
0

>  <SCORE.SYSTEM.norm>
0

>  <SCORE.heavy>
22

>  <SCORE.norm>
-1.04314

>  <RMSD>
1.726

$$$$
lig.pdb
 OpenBabel11021811523D
libRbt.so/2013.1/901 2013/11/27
 22 23  0  0  0  0  0  0  0  0999 V2000
   57.4495  -18.4701    7.9913 O   0  0  0  0  0  0  0  0  0  0  0  0
   56.8466  -17.4306    8.1194 C   0  0  0  0  0  0  0  0  0  0  0  0
   55.5827  -17.3034    7.7558 N   0  0  0  0  0  0  0  0  0  0  0  0
   57.5289  -16.2433    8.6533 C   0  0  0  0  0  0  0  0  0  0  0  0
   58.8715  -16.2383    9.2388 C   0  0  0  0  0  0  0  0  0  0  0  0
   59.6663  -17.3193    9.3912 N   0  0  0  0  0  0  0  0  0  0  0  0
   57.1258  -14.9653    8.7340 N   0  0  0  0  0  0  0  0  0  0  0  0
   58.1290  -14.2304    9.2892 C   0  0  0  0  0  0  0  0  0  0  0  0
   59.2002  -15.0014    9.5942 N   0  0  0  0  0  0  0  0  0  0  0  0
   60.4678  -14.5261   10.2127 C   0  0  1  0  0  0  0  0  0  0  0  0
   61.1927  -13.6235    9.2379 C   0  0  1  0  0  0  0  0  0  0  0  0
   61.7671  -12.5384   10.1115 C   0  0  2  0  0  0  0  0  0  0  0  0
   63.0841  -12.9065   10.5405 O   0  0  0  0  0  0  0  0  0  0  0  0
   62.2091  -14.3444    8.5239 O   0  0  0  0  0  0  0  0  0  0  0  0
   60.1886  -13.7246   11.3578 O   0  0  0  0  0  0  0  0  0  0  0  0
   60.8649  -12.4910   11.3172 C   0  0  2  0  0  0  0  0  0  0  0  0
   59.7889  -11.4250   11.3019 C   0  0  0  0  0  0  0  0  0  0  0  0
   59.0229  -11.4387   12.4889 O   0  0  0  0  0  0  0  0  0  0  0  0
   57.7958  -10.4236   12.6177 P   0  0  0  0  0  0  0  0  0  0  0  0
   56.8950  -10.7456   11.4422 O   0  0  0  0  0  0  0  0  0  0  0  0
   58.4828   -9.0844   12.5458 O   0  0  0  0  0  0  0  0  0  0  0  0
   57.2478  -10.7131   13.9876 O   0  0  0  0  0  0  0  0  0  0  0  0
  2  1  2  0  0  0  0
  2  4  1  0  0  0  0
  3  2  1  0  0  0  0
  4  7  1  0  0  0  0
  4  5  2  0  0  0  0
  5  6  1  0  0  0  0
  5  9  1  0  0  0  0
  7  8  2  0  0  0  0
  8  9  1  0  0  0  0
 10  9  1  6  0  0  0
 10 15  1  0  0  0  0
 11 14  1  1  0  0  0
 11 12  1  0  0  0  0
 11 10  1  0  0  0  0
 12 13  1  1  0  0  0
 12 16  1  0  0  0  0
 16 17  1  6  0  0  0
 16 15  1  0  0  0  0
 18 19  1  0  0  0  0
 18 17  1  0  0  0  0
 19 21  1  0  0  0  0
 20 19  1  0  0  0  0
 22 19  2  0  0  0  0
M  END
>  <CHROM.1>
-9.09696826,113.61127396,-178.33713897,57.87270630,-177.18389511,59.01394662
-13.59279403,10.40072209,1.65756489,-0.09594538,-2.56798245

>  <Name>
lig.pdb

>  <RI>
0

>  <Rbt.Current_Directory>
/home/itssahil/PROJECTS/Mol_Feturizer/New_Systems/rnas/4znp

>  <Rbt.Executable>
rbdock ($Id: //depot/dev/client3/rdock/2013.1/src/exe/rbdock.cxx#4 $)

>  <Rbt.Library>
libRbt.so (2013.1, Build901 2013/11/27)

>  <Rbt.Parameter_File>
/export/apps/rDock/src/rDock_2013.1_src/data/scripts/dock_solv.prm

>  <Rbt.Receptor>
prm/pocket_docking_6.prm

>  <SCORE>
-26.2112

>  <SCORE.INTER>
-19.9399

>  <SCORE.INTER.CONST>
1

>  <SCORE.INTER.POLAR>
0

>  <SCORE.INTER.ROT>
5

>  <SCORE.INTER.SOLV>
21.6796

>  <SCORE.INTER.VDW>
-27.4531

>  <SCORE.INTER.norm>
-0.906358

>  <SCORE.INTRA>
-6.27127

>  <SCORE.INTRA.DIHEDRAL>
-9.24434

>  <SCORE.INTRA.DIHEDRAL.0>
11.9251

>  <SCORE.INTRA.POLAR>
0

>  <SCORE.INTRA.POLAR.0>
0

>  <SCORE.INTRA.REPUL>
0

>  <SCORE.INTRA.REPUL.0>
0

>  <SCORE.INTRA.SOLV>
-0.347734

>  <SCORE.INTRA.SOLV.lig_0>
-40.9823

>  <SCORE.INTRA.VDW>
-1.47524

>  <SCORE.INTRA.VDW.0>
-0.53506

>  <SCORE.INTRA.norm>
-0.285058

>  <SCORE.RESTR>
0

>  <SCORE.RESTR.CAVITY>
0

>  <SCORE.RESTR.norm>
0

>  <SCORE.SYSTEM>
0

>  <SCORE.SYSTEM.CONST>
0

>  <SCORE.SYSTEM.DIHEDRAL>
0

>  <SCORE.SYSTEM.SOLV>
0

>  <SCORE.SYSTEM.norm>
0

>  <SCORE.heavy>
22

>  <SCORE.norm>
-1.19142

>  <RMSD>
1.736

$$$$
lig.pdb
 OpenBabel11021811523D
libRbt.so/2013.1/901 2013/11/27
 22 23  0  0  0  0  0  0  0  0999 V2000
   55.5385  -17.3830    7.6816 O   0  0  0  0  0  0  0  0  0  0  0  0
   56.6953  -17.4417    8.0265 C   0  0  0  0  0  0  0  0  0  0  0  0
   57.3939  -18.5606    7.9506 N   0  0  0  0  0  0  0  0  0  0  0  0
   57.3572  -16.2575    8.5921 C   0  0  0  0  0  0  0  0  0  0  0  0
   58.6621  -16.2620    9.2573 C   0  0  0  0  0  0  0  0  0  0  0  0
   59.4344  -17.3500    9.4650 N   0  0  0  0  0  0  0  0  0  0  0  0
   56.9638  -14.9748    8.6393 N   0  0  0  0  0  0  0  0  0  0  0  0
   57.9398  -14.2461    9.2487 C   0  0  0  0  0  0  0  0  0  0  0  0
   58.9823  -15.0259    9.6230 N   0  0  0  0  0  0  0  0  0  0  0  0
   60.2155  -14.5590   10.3134 C   0  0  1  0  0  0  0  0  0  0  0  0
   61.1768  -13.9917    9.2916 C   0  0  1  0  0  0  0  0  0  0  0  0
   61.7823  -12.8015    9.9895 C   0  0  2  0  0  0  0  0  0  0  0  0
   62.9700  -13.1992   10.6860 O   0  0  0  0  0  0  0  0  0  0  0  0
   62.1643  -14.9642    8.9153 O   0  0  0  0  0  0  0  0  0  0  0  0
   59.9087  -13.4877   11.2021 O   0  0  0  0  0  0  0  0  0  0  0  0
   60.7506  -12.3777   11.0023 C   0  0  2  0  0  0  0  0  0  0  0  0
   59.8450  -11.2350   10.5918 C   0  0  0  0  0  0  0  0  0  0  0  0
   58.7894  -11.0484   11.5122 O   0  0  0  0  0  0  0  0  0  0  0  0
   59.1517  -10.7168   13.0325 P   0  0  0  0  0  0  0  0  0  0  0  0
   60.2926   -9.7222   12.9564 O   0  0  0  0  0  0  0  0  0  0  0  0
   59.5240  -12.0732   13.5732 O   0  0  0  0  0  0  0  0  0  0  0  0
   57.8526  -10.2124   13.5971 O   0  0  0  0  0  0  0  0  0  0  0  0
  2  1  2  0  0  0  0
  2  4  1  0  0  0  0
  3  2  1  0  0  0  0
  4  7  1  0  0  0  0
  4  5  2  0  0  0  0
  5  6  1  0  0  0  0
  5  9  1  0  0  0  0
  7  8  2  0  0  0  0
  8  9  1  0  0  0  0
 10  9  1  6  0  0  0
 10 15  1  0  0  0  0
 11 14  1  1  0  0  0
 11 12  1  0  0  0  0
 11 10  1  0  0  0  0
 12 13  1  1  0  0  0
 12 16  1  0  0  0  0
 16 17  1  6  0  0  0
 16 15  1  0  0  0  0
 18 19  1  0  0  0  0
 18 17  1  0  0  0  0
 19 21  1  0  0  0  0
 20 19  1  0  0  0  0
 22 19  2  0  0  0  0
M  END
>  <CHROM.1>
168.65224177,98.63700192,170.95423808,41.81713909,59.54981547,59.27234108
-13.72457323,10.46077235,1.85880361,-0.09080027,-2.50986965

>  <Name>
lig.pdb

>  <RI>
0

>  <Rbt.Current_Directory>
/home/itssahil/PROJECTS/Mol_Feturizer/New_Systems/rnas/4znp

>  <Rbt.Executable>
rbdock ($Id: //depot/dev/client3/rdock/2013.1/src/exe/rbdock.cxx#4 $)

>  <Rbt.Library>
libRbt.so (2013.1, Build901 2013/11/27)

>  <Rbt.Parameter_File>
/export/apps/rDock/src/rDock_2013.1_src/data/scripts/dock_solv.prm

>  <Rbt.Receptor>
prm/pocket_docking_3.prm

>  <SCORE>
-25.3191

>  <SCORE.INTER>
-20.3887

>  <SCORE.INTER.CONST>
1

>  <SCORE.INTER.POLAR>
0

>  <SCORE.INTER.ROT>
5

>  <SCORE.INTER.SOLV>
21.5827

>  <SCORE.INTER.VDW>
-27.72

>  <SCORE.INTER.norm>
-0.926758

>  <SCORE.INTRA>
-4.93047

>  <SCORE.INTRA.DIHEDRAL>
-8.41598

>  <SCORE.INTRA.DIHEDRAL.0>
11.9251

>  <SCORE.INTRA.POLAR>
0

>  <SCORE.INTRA.POLAR.0>
0

>  <SCORE.INTRA.REPUL>
0

>  <SCORE.INTRA.REPUL.0>
0

>  <SCORE.INTRA.SOLV>
1.06225

>  <SCORE.INTRA.SOLV.lig_0>
-40.9823

>  <SCORE.INTRA.VDW>
-1.2536

>  <SCORE.INTRA.VDW.0>
-0.53506

>  <SCORE.INTRA.norm>
-0.224112

>  <SCORE.RESTR>
0

>  <SCORE.RESTR.CAVITY>
0

>  <SCORE.RESTR.norm>
0

>  <SCORE.SYSTEM>
0

>  <SCORE.SYSTEM.CONST>
0

>  <SCORE.SYSTEM.DIHEDRAL>
0

>  <SCORE.SYSTEM.SOLV>
0

>  <SCORE.SYSTEM.norm>
0

>  <SCORE.heavy>
22

>  <SCORE.norm>
-1.15087

>  <RMSD>
1.740

$$$$
lig.pdb
 OpenBabel11021811523D
libRbt.so/2013.1/901 2013/11/27
 22 23  0  0  0  0  0  0  0  0999 V2000
   55.6155  -17.0985    8.0114 O   0  0  0  0  0  0  0  0  0  0  0  0
   56.8010  -17.1533    8.2399 C   0  0  0  0  0  0  0  0  0  0  0  0
   57.4915  -18.2709    8.0990 N   0  0  0  0  0  0  0  0  0  0  0  0
   57.5127  -15.9654    8.7326 C   0  0  0  0  0  0  0  0  0  0  0  0
   58.8717  -15.9669    9.2789 C   0  0  0  0  0  0  0  0  0  0  0  0
   59.6575  -17.0548    9.4276 N   0  0  0  0  0  0  0  0  0  0  0  0
   57.1273  -14.6813    8.8020 N   0  0  0  0  0  0  0  0  0  0  0  0
   58.1549  -13.9493    9.3149 C   0  0  0  0  0  0  0  0  0  0  0  0
   59.2253  -14.7281    9.6025 N   0  0  0  0  0  0  0  0  0  0  0  0
   60.5160  -14.2579   10.1756 C   0  0  1  0  0  0  0  0  0  0  0  0
   61.1659  -13.2863    9.2146 C   0  0  1  0  0  0  0  0  0  0  0  0
   61.7666  -12.2377   10.1146 C   0  0  2  0  0  0  0  0  0  0  0  0
   63.1130  -12.5977   10.4486 O   0  0  0  0  0  0  0  0  0  0  0  0
   62.1547  -13.9427    8.4060 O   0  0  0  0  0  0  0  0  0  0  0  0
   60.2857  -13.5274   11.3778 O   0  0  0  0  0  0  0  0  0  0  0  0
   60.9333  -12.2779   11.3691 C   0  0  2  0  0  0  0  0  0  0  0  0
   59.8366  -11.2382   11.4734 C   0  0  0  0  0  0  0  0  0  0  0  0
   59.1271  -11.3474   12.6903 O   0  0  0  0  0  0  0  0  0  0  0  0
   57.9275  -10.3297   12.9688 P   0  0  0  0  0  0  0  0  0  0  0  0
   58.5505   -8.9517   12.8688 O   0  0  0  0  0  0  0  0  0  0  0  0
   57.4861  -10.7303   14.3527 O   0  0  0  0  0  0  0  0  0  0  0  0
   56.9145  -10.6907   11.9179 O   0  0  0  0  0  0  0  0  0  0  0  0
  2  1  2  0  0  0  0
  2  4  1  0  0  0  0
  3  2  1  0  0  0  0
  4  7  1  0  0  0  0
  4  5  2  0  0  0  0
  5  6  1  0  0  0  0
  5  9  1  0  0  0  0
  7  8  2  0  0  0  0
  8  9  1  0  0  0  0
 10  9  1  6  0  0  0
 10 15  1  0  0  0  0
 11 14  1  1  0  0  0
 11 12  1  0  0  0  0
 11 10  1  0  0  0  0
 12 13  1  1  0  0  0
 12 16  1  0  0  0  0
 16 17  1  6  0  0  0
 16 15  1  0  0  0  0
 18 19  1  0  0  0  0
 18 17  1  0  0  0  0
 19 21  1  0  0  0  0
 20 19  1  0  0  0  0
 22 19  2  0  0  0  0
M  END
>  <CHROM.1>
167.92048518,118.50208569,-179.17752375,-57.37729787,-179.80106253,59.04779622
-13.37380447,10.52774400,1.68184841,-0.16809564,-2.52089499

>  <Name>
lig.pdb

>  <RI>
0

>  <Rbt.Current_Directory>
/home/itssahil/PROJECTS/Mol_Feturizer/New_Systems/rnas/4znp

>  <Rbt.Executable>
rbdock ($Id: //depot/dev/client3/rdock/2013.1/src/exe/rbdock.cxx#4 $)

>  <Rbt.Library>
libRbt.so (2013.1, Build901 2013/11/27)

>  <Rbt.Parameter_File>
/export/apps/rDock/src/rDock_2013.1_src/data/scripts/dock_solv.prm

>  <Rbt.Receptor>
prm/pocket_docking_4.prm

>  <SCORE>
-25.1068

>  <SCORE.INTER>
-19.1596

>  <SCORE.INTER.CONST>
1

>  <SCORE.INTER.POLAR>
0

>  <SCORE.INTER.ROT>
5

>  <SCORE.INTER.SOLV>
20.5724

>  <SCORE.INTER.VDW>
-26.5639

>  <SCORE.INTER.norm>
-0.870893

>  <SCORE.INTRA>
-5.94718

>  <SCORE.INTRA.DIHEDRAL>
-9.07022

>  <SCORE.INTRA.DIHEDRAL.0>
11.9251

>  <SCORE.INTRA.POLAR>
0

>  <SCORE.INTRA.POLAR.0>
0

>  <SCORE.INTRA.REPUL>
0

>  <SCORE.INTRA.REPUL.0>
0

>  <SCORE.INTRA.SOLV>
0.109506

>  <SCORE.INTRA.SOLV.lig_0>
-40.9823

>  <SCORE.INTRA.VDW>
-1.46682

>  <SCORE.INTRA.VDW.0>
-0.53506

>  <SCORE.INTRA.norm>
-0.270326

>  <SCORE.RESTR>
0

>  <SCORE.RESTR.CAVITY>
0

>  <SCORE.RESTR.norm>
0

>  <SCORE.SYSTEM>
0

>  <SCORE.SYSTEM.CONST>
0

>  <SCORE.SYSTEM.DIHEDRAL>
0

>  <SCORE.SYSTEM.SOLV>
0

>  <SCORE.SYSTEM.norm>
0

>  <SCORE.heavy>
22

>  <SCORE.norm>
-1.14122

>  <RMSD>
1.740

$$$$
lig.pdb
 OpenBabel11021811523D
libRbt.so/2013.1/901 2013/11/27
 22 23  0  0  0  0  0  0  0  0999 V2000
   55.8197  -17.1236    7.7498 O   0  0  0  0  0  0  0  0  0  0  0  0
   56.9657  -17.1570    8.1319 C   0  0  0  0  0  0  0  0  0  0  0  0
   57.6855  -18.2644    8.0946 N   0  0  0  0  0  0  0  0  0  0  0  0
   57.5888  -15.9535    8.7006 C   0  0  0  0  0  0  0  0  0  0  0  0
   58.8919  -15.9178    9.3684 C   0  0  0  0  0  0  0  0  0  0  0  0
   59.6978  -16.9813    9.5758 N   0  0  0  0  0  0  0  0  0  0  0  0
   57.1550  -14.6839    8.7491 N   0  0  0  0  0  0  0  0  0  0  0  0
   58.1063  -13.9258    9.3615 C   0  0  0  0  0  0  0  0  0  0  0  0
   59.1722  -14.6728    9.7367 N   0  0  0  0  0  0  0  0  0  0  0  0
   60.3888  -14.1684   10.4302 C   0  0  1  0  0  0  0  0  0  0  0  0
   61.5219  -14.0544    9.4336 C   0  0  1  0  0  0  0  0  0  0  0  0
   62.2323  -12.7893    9.8400 C   0  0  2  0  0  0  0  0  0  0  0  0
   63.2701  -13.0954   10.7799 O   0  0  0  0  0  0  0  0  0  0  0  0
   62.3797  -15.2048    9.4925 O   0  0  0  0  0  0  0  0  0  0  0  0
   60.1652  -12.8502   10.9240 O   0  0  0  0  0  0  0  0  0  0  0  0
   61.1838  -11.9603   10.5352 C   0  0  2  0  0  0  0  0  0  0  0  0
   60.5102  -10.8964    9.6932 C   0  0  0  0  0  0  0  0  0  0  0  0
   61.4306   -9.9203    9.2503 O   0  0  0  0  0  0  0  0  0  0  0  0
   60.9932   -8.9393    8.0675 P   0  0  0  0  0  0  0  0  0  0  0  0
   62.2286   -8.1157    7.7636 O   0  0  0  0  0  0  0  0  0  0  0  0
   59.8558   -8.1744    8.6936 O   0  0  0  0  0  0  0  0  0  0  0  0
   60.5267   -9.8796    6.9909 O   0  0  0  0  0  0  0  0  0  0  0  0
  2  1  2  0  0  0  0
  2  4  1  0  0  0  0
  3  2  1  0  0  0  0
  4  7  1  0  0  0  0
  4  5  2  0  0  0  0
  5  6  1  0  0  0  0
  5  9  1  0  0  0  0
  7  8  2  0  0  0  0
  8  9  1  0  0  0  0
 10  9  1  6  0  0  0
 10 15  1  0  0  0  0
 11 14  1  1  0  0  0
 11 12  1  0  0  0  0
 11 10  1  0  0  0  0
 12 13  1  1  0  0  0
 12 16  1  0  0  0  0
 16 17  1  6  0  0  0
 16 15  1  0  0  0  0
 18 19  1  0  0  0  0
 18 17  1  0  0  0  0
 19 21  1  0  0  0  0
 20 19  1  0  0  0  0
 22 19  2  0  0  0  0
M  END
>  <CHROM.1>
170.75900560,77.62527335,-62.88596488,-175.30456791,164.84208797,60.02007521
-13.03701944,9.08371602,2.06717602,0.46477074,2.88284445

>  <Name>
lig.pdb

>  <RI>
0

>  <Rbt.Current_Directory>
/home/itssahil/PROJECTS/Mol_Feturizer/New_Systems/rnas/4znp

>  <Rbt.Executable>
rbdock ($Id: //depot/dev/client3/rdock/2013.1/src/exe/rbdock.cxx#4 $)

>  <Rbt.Library>
libRbt.so (2013.1, Build901 2013/11/27)

>  <Rbt.Parameter_File>
/export/apps/rDock/src/rDock_2013.1_src/data/scripts/dock_solv.prm

>  <Rbt.Receptor>
prm/pocket_docking_6.prm

>  <SCORE>
-26.2442

>  <SCORE.INTER>
-21.2919

>  <SCORE.INTER.CONST>
1

>  <SCORE.INTER.POLAR>
0

>  <SCORE.INTER.ROT>
5

>  <SCORE.INTER.SOLV>
24.492

>  <SCORE.INTER.VDW>
-29.2919

>  <SCORE.INTER.norm>
-0.967812

>  <SCORE.INTRA>
-4.98054

>  <SCORE.INTRA.DIHEDRAL>
-8.14649

>  <SCORE.INTRA.DIHEDRAL.0>
11.9251

>  <SCORE.INTRA.POLAR>
0

>  <SCORE.INTRA.POLAR.0>
0

>  <SCORE.INTRA.REPUL>
0

>  <SCORE.INTRA.REPUL.0>
0

>  <SCORE.INTRA.SOLV>
0.700808

>  <SCORE.INTRA.SOLV.lig_0>
-40.9823

>  <SCORE.INTRA.VDW>
-1.2577

>  <SCORE.INTRA.VDW.0>
-0.53506

>  <SCORE.INTRA.norm>
-0.226388

>  <SCORE.RESTR>
0.0282339

>  <SCORE.RESTR.CAVITY>
0.0282339

>  <SCORE.RESTR.norm>
0.00128336

>  <SCORE.SYSTEM>
0

>  <SCORE.SYSTEM.CONST>
0

>  <SCORE.SYSTEM.DIHEDRAL>
0

>  <SCORE.SYSTEM.SOLV>
0

>  <SCORE.SYSTEM.norm>
0

>  <SCORE.heavy>
22

>  <SCORE.norm>
-1.19292

>  <RMSD>
1.756

$$$$
lig.pdb
 OpenBabel11021811523D
libRbt.so/2013.1/901 2013/11/27
 22 23  0  0  0  0  0  0  0  0999 V2000
   56.6227  -18.2824    8.2627 O   0  0  0  0  0  0  0  0  0  0  0  0
   56.9759  -17.1419    8.4496 C   0  0  0  0  0  0  0  0  0  0  0  0
   56.1726  -16.1149    8.2355 N   0  0  0  0  0  0  0  0  0  0  0  0
   58.3500  -16.8576    8.8869 C   0  0  0  0  0  0  0  0  0  0  0  0
   58.8588  -15.5331    9.2504 C   0  0  0  0  0  0  0  0  0  0  0  0
   58.1510  -14.3836    9.2186 N   0  0  0  0  0  0  0  0  0  0  0  0
   59.4027  -17.6748    9.0495 N   0  0  0  0  0  0  0  0  0  0  0  0
   60.4564  -16.9374    9.4974 C   0  0  0  0  0  0  0  0  0  0  0  0
   60.1286  -15.6296    9.6278 N   0  0  0  0  0  0  0  0  0  0  0  0
   61.0372  -14.5458   10.0918 C   0  0  1  0  0  0  0  0  0  0  0  0
   61.3400  -13.6173    8.9358 C   0  0  1  0  0  0  0  0  0  0  0  0
   61.3494  -12.2489    9.5666 C   0  0  2  0  0  0  0  0  0  0  0  0
   62.6761  -11.9226    9.9994 O   0  0  0  0  0  0  0  0  0  0  0  0
   62.5978  -13.9453    8.3253 O   0  0  0  0  0  0  0  0  0  0  0  0
   60.3896  -13.7469   11.0788 O   0  0  0  0  0  0  0  0  0  0  0  0
   60.4653  -12.3737   10.7802 C   0  0  2  0  0  0  0  0  0  0  0  0
   59.0352  -11.9030   10.6132 C   0  0  0  0  0  0  0  0  0  0  0  0
   58.9653  -10.5069   10.4082 O   0  0  0  0  0  0  0  0  0  0  0  0
   59.3468   -9.5372   11.6193 P   0  0  0  0  0  0  0  0  0  0  0  0
   58.5309  -10.0371   12.7945 O   0  0  0  0  0  0  0  0  0  0  0  0
   58.9370   -8.1883   11.0871 O   0  0  0  0  0  0  0  0  0  0  0  0
   60.8398   -9.6821   11.7233 O   0  0  0  0  0  0  0  0  0  0  0  0
  2  1  2  0  0  0  0
  2  4  1  0  0  0  0
  3  2  1  0  0  0  0
  4  7  1  0  0  0  0
  4  5  2  0  0  0  0
  5  6  1  0  0  0  0
  5  9  1  0  0  0  0
  7  8  2  0  0  0  0
  8  9  1  0  0  0  0
 10  9  1  6  0  0  0
 10 15  1  0  0  0  0
 11 14  1  1  0  0  0
 11 12  1  0  0  0  0
 11 10  1  0  0  0  0
 12 13  1  1  0  0  0
 12 16  1  0  0  0  0
 16 17  1  6  0  0  0
 16 15  1  0  0  0  0
 18 19  1  0  0  0  0
 18 17  1  0  0  0  0
 19 21  1  0  0  0  0
 20 19  1  0  0  0  0
 22 19  2  0  0  0  0
M  END
>  <CHROM.1>
-174.67664629,-68.19838227,-66.54619507,-50.85044110,-68.64546894,59.58740013
-13.32609538,10.02349107,1.76608132,-0.08148372,-2.77276333

>  <Name>
lig.pdb

>  <RI>
0

>  <Rbt.Current_Directory>
/home/itssahil/PROJECTS/Mol_Feturizer/New_Systems/rnas/4znp

>  <Rbt.Executable>
rbdock ($Id: //depot/dev/client3/rdock/2013.1/src/exe/rbdock.cxx#4 $)

>  <Rbt.Library>
libRbt.so (2013.1, Build901 2013/11/27)

>  <Rbt.Parameter_File>
/export/apps/rDock/src/rDock_2013.1_src/data/scripts/dock_solv.prm

>  <Rbt.Receptor>
prm/pocket_docking_3.prm

>  <SCORE>
-22.3603

>  <SCORE.INTER>
-17.6025

>  <SCORE.INTER.CONST>
1

>  <SCORE.INTER.POLAR>
0

>  <SCORE.INTER.ROT>
5

>  <SCORE.INTER.SOLV>
18.6035

>  <SCORE.INTER.VDW>
-24.8695

>  <SCORE.INTER.norm>
-0.800114

>  <SCORE.INTRA>
-4.75775

>  <SCORE.INTRA.DIHEDRAL>
-8.67484

>  <SCORE.INTRA.DIHEDRAL.0>
11.9251

>  <SCORE.INTRA.POLAR>
0

>  <SCORE.INTRA.POLAR.0>
0

>  <SCORE.INTRA.REPUL>
0

>  <SCORE.INTRA.REPUL.0>
0

>  <SCORE.INTRA.SOLV>
2.97369

>  <SCORE.INTRA.SOLV.lig_0>
-40.9823

>  <SCORE.INTRA.VDW>
-1.90717

>  <SCORE.INTRA.VDW.0>
-0.53506

>  <SCORE.INTRA.norm>
-0.216261

>  <SCORE.RESTR>
0

>  <SCORE.RESTR.CAVITY>
0

>  <SCORE.RESTR.norm>
0

>  <SCORE.SYSTEM>
0

>  <SCORE.SYSTEM.CONST>
0

>  <SCORE.SYSTEM.DIHEDRAL>
0

>  <SCORE.SYSTEM.SOLV>
0

>  <SCORE.SYSTEM.norm>
0

>  <SCORE.heavy>
22

>  <SCORE.norm>
-1.01638

>  <RMSD>
1.768

$$$$
lig.pdb
 OpenBabel11021811523D
libRbt.so/2013.1/901 2013/11/27
 22 23  0  0  0  0  0  0  0  0999 V2000
   56.0508  -16.1952    8.1840 O   0  0  0  0  0  0  0  0  0  0  0  0
   56.7965  -17.1026    8.4682 C   0  0  0  0  0  0  0  0  0  0  0  0
   56.4187  -18.3671    8.4048 N   0  0  0  0  0  0  0  0  0  0  0  0
   58.1576  -16.8172    8.9439 C   0  0  0  0  0  0  0  0  0  0  0  0
   58.6635  -15.4880    9.2942 C   0  0  0  0  0  0  0  0  0  0  0  0
   57.9652  -14.3351    9.2135 N   0  0  0  0  0  0  0  0  0  0  0  0
   59.1987  -17.6371    9.1592 N   0  0  0  0  0  0  0  0  0  0  0  0
   60.2424  -16.8964    9.6248 C   0  0  0  0  0  0  0  0  0  0  0  0
   59.9197  -15.5839    9.7152 N   0  0  0  0  0  0  0  0  0  0  0  0
   60.8202  -14.4956   10.1844 C   0  0  1  0  0  0  0  0  0  0  0  0
   61.3143  -13.7058    8.9919 C   0  0  1  0  0  0  0  0  0  0  0  0
   61.3184  -12.2806    9.4811 C   0  0  2  0  0  0  0  0  0  0  0  0
   62.5964  -11.9654   10.0481 O   0  0  0  0  0  0  0  0  0  0  0  0
   62.6190  -14.1466    8.5847 O   0  0  0  0  0  0  0  0  0  0  0  0
   60.0983  -13.5725   10.9959 O   0  0  0  0  0  0  0  0  0  0  0  0
   60.2844  -12.2421   10.5762 C   0  0  2  0  0  0  0  0  0  0  0  0
   58.9137  -11.7334   10.1799 C   0  0  0  0  0  0  0  0  0  0  0  0
   58.9807  -10.4442    9.6059 O   0  0  0  0  0  0  0  0  0  0  0  0
   59.3614   -9.2091   10.5451 P   0  0  0  0  0  0  0  0  0  0  0  0
   58.4831   -9.3625   11.7706 O   0  0  0  0  0  0  0  0  0  0  0  0
   59.0306   -8.0294    9.6679 O   0  0  0  0  0  0  0  0  0  0  0  0
   60.8419   -9.3723   10.7506 O   0  0  0  0  0  0  0  0  0  0  0  0
  2  1  2  0  0  0  0
  2  4  1  0  0  0  0
  3  2  1  0  0  0  0
  4  7  1  0  0  0  0
  4  5  2  0  0  0  0
  5  6  1  0  0  0  0
  5  9  1  0  0  0  0
  7  8  2  0  0  0  0
  8  9  1  0  0  0  0
 10  9  1  6  0  0  0
 10 15  1  0  0  0  0
 11 14  1  1  0  0  0
 11 12  1  0  0  0  0
 11 10  1  0  0  0  0
 12 13  1  1  0  0  0
 12 16  1  0  0  0  0
 16 17  1  6  0  0  0
 16 15  1  0  0  0  0
 18 19  1  0  0  0  0
 18 17  1  0  0  0  0
 19 21  1  0  0  0  0
 20 19  1  0  0  0  0
 22 19  2  0  0  0  0
M  END
>  <CHROM.1>
9.07108533,-75.66611567,-55.97595147,-47.59497866,-69.44248066,59.48005413
-13.21325891,9.72613356,1.79672814,0.06257757,-2.94235498

>  <Name>
lig.pdb

>  <RI>
0

>  <Rbt.Current_Directory>
/home/itssahil/PROJECTS/Mol_Feturizer/New_Systems/rnas/4znp

>  <Rbt.Executable>
rbdock ($Id: //depot/dev/client3/rdock/2013.1/src/exe/rbdock.cxx#4 $)

>  <Rbt.Library>
libRbt.so (2013.1, Build901 2013/11/27)

>  <Rbt.Parameter_File>
/export/apps/rDock/src/rDock_2013.1_src/data/scripts/dock_solv.prm

>  <Rbt.Receptor>
prm/pocket_docking_2.prm

>  <SCORE>
-23.0955

>  <SCORE.INTER>
-18.4981

>  <SCORE.INTER.CONST>
1

>  <SCORE.INTER.POLAR>
0

>  <SCORE.INTER.ROT>
5

>  <SCORE.INTER.SOLV>
19.1602

>  <SCORE.INTER.VDW>
-25.6521

>  <SCORE.INTER.norm>
-0.840821

>  <SCORE.INTRA>
-4.59741

>  <SCORE.INTRA.DIHEDRAL>
-8.37041

>  <SCORE.INTRA.DIHEDRAL.0>
11.9251

>  <SCORE.INTRA.POLAR>
0

>  <SCORE.INTRA.POLAR.0>
0

>  <SCORE.INTRA.REPUL>
0

>  <SCORE.INTRA.REPUL.0>
0

>  <SCORE.INTRA.SOLV>
2.90275

>  <SCORE.INTRA.SOLV.lig_0>
-40.9823

>  <SCORE.INTRA.VDW>
-1.86358

>  <SCORE.INTRA.VDW.0>
-0.53506

>  <SCORE.INTRA.norm>
-0.208973

>  <SCORE.RESTR>
0

>  <SCORE.RESTR.CAVITY>
0

>  <SCORE.RESTR.norm>
0

>  <SCORE.SYSTEM>
0

>  <SCORE.SYSTEM.CONST>
0

>  <SCORE.SYSTEM.DIHEDRAL>
0

>  <SCORE.SYSTEM.SOLV>
0

>  <SCORE.SYSTEM.norm>
0

>  <SCORE.heavy>
22

>  <SCORE.norm>
-1.04979

>  <RMSD>
1.780

$$$$
lig.pdb
 OpenBabel11021811523D
libRbt.so/2013.1/901 2013/11/27
 22 23  0  0  0  0  0  0  0  0999 V2000
   56.0742  -16.2066    8.1133 O   0  0  0  0  0  0  0  0  0  0  0  0
   56.8076  -17.1109    8.4370 C   0  0  0  0  0  0  0  0  0  0  0  0
   56.4226  -18.3742    8.3985 N   0  0  0  0  0  0  0  0  0  0  0  0
   58.1602  -16.8216    8.9340 C   0  0  0  0  0  0  0  0  0  0  0  0
   58.6632  -15.4885    9.2733 C   0  0  0  0  0  0  0  0  0  0  0  0
   57.9698  -14.3352    9.1615 N   0  0  0  0  0  0  0  0  0  0  0  0
   59.1947  -17.6407    9.1817 N   0  0  0  0  0  0  0  0  0  0  0  0
   60.2314  -16.8955    9.6557 C   0  0  0  0  0  0  0  0  0  0  0  0
   59.9108  -15.5810    9.7195 N   0  0  0  0  0  0  0  0  0  0  0  0
   60.8054  -14.4879   10.1889 C   0  0  1  0  0  0  0  0  0  0  0  0
   61.2893  -13.6906    8.9971 C   0  0  1  0  0  0  0  0  0  0  0  0
   61.2852  -12.2671    9.4911 C   0  0  2  0  0  0  0  0  0  0  0  0
   62.5631  -11.9447   10.0543 O   0  0  0  0  0  0  0  0  0  0  0  0
   62.5956  -14.1209    8.5836 O   0  0  0  0  0  0  0  0  0  0  0  0
   60.0801  -13.5726   11.0062 O   0  0  0  0  0  0  0  0  0  0  0  0
   60.2551  -12.2395   10.5902 C   0  0  2  0  0  0  0  0  0  0  0  0
   58.8793  -11.7394   10.2008 C   0  0  0  0  0  0  0  0  0  0  0  0
   58.9340  -10.4443    9.6387 O   0  0  0  0  0  0  0  0  0  0  0  0
   59.2706   -9.2101   10.5957 P   0  0  0  0  0  0  0  0  0  0  0  0
   58.3323   -9.3614   11.7762 O   0  0  0  0  0  0  0  0  0  0  0  0
   58.9863   -8.0296    9.7033 O   0  0  0  0  0  0  0  0  0  0  0  0
   60.7387   -9.3767   10.8743 O   0  0  0  0  0  0  0  0  0  0  0  0
  2  1  2  0  0  0  0
  2  4  1  0  0  0  0
  3  2  1  0  0  0  0
  4  7  1  0  0  0  0
  4  5  2  0  0  0  0
  5  6  1  0  0  0  0
  5  9  1  0  0  0  0
  7  8  2  0  0  0  0
  8  9  1  0  0  0  0
 10  9  1  6  0  0  0
 10 15  1  0  0  0  0
 11 14  1  1  0  0  0
 11 12  1  0  0  0  0
 11 10  1  0  0  0  0
 12 13  1  1  0  0  0
 12 16  1  0  0  0  0
 16 17  1  6  0  0  0
 16 15  1  0  0  0  0
 18 19  1  0  0  0  0
 18 17  1  0  0  0  0
 19 21  1  0  0  0  0
 20 19  1  0  0  0  0
 22 19  2  0  0  0  0
M  END
>  <CHROM.1>
9.73250636,-73.88123921,-56.35188174,-49.65839837,-70.90492987,59.44668728
-13.21133035,9.73762710,1.78407328,0.06504654,-2.93452922

>  <Name>
lig.pdb

>  <RI>
0

>  <Rbt.Current_Directory>
/home/itssahil/PROJECTS/Mol_Feturizer/New_Systems/rnas/4znp

>  <Rbt.Executable>
rbdock ($Id: //depot/dev/client3/rdock/2013.1/src/exe/rbdock.cxx#4 $)

>  <Rbt.Library>
libRbt.so (2013.1, Build901 2013/11/27)

>  <Rbt.Parameter_File>
/export/apps/rDock/src/rDock_2013.1_src/data/scripts/dock_solv.prm

>  <Rbt.Receptor>
prm/pocket_docking_5.prm

>  <SCORE>
-22.9989

>  <SCORE.INTER>
-18.3766

>  <SCORE.INTER.CONST>
1

>  <SCORE.INTER.POLAR>
0

>  <SCORE.INTER.ROT>
5

>  <SCORE.INTER.SOLV>
19.1695

>  <SCORE.INTER.VDW>
-25.5742

>  <SCORE.INTER.norm>
-0.835299

>  <SCORE.INTRA>
-4.62236

>  <SCORE.INTRA.DIHEDRAL>
-8.27316

>  <SCORE.INTRA.DIHEDRAL.0>
11.9251

>  <SCORE.INTRA.POLAR>
0

>  <SCORE.INTRA.POLAR.0>
0

>  <SCORE.INTRA.REPUL>
0

>  <SCORE.INTRA.REPUL.0>
0

>  <SCORE.INTRA.SOLV>
2.84257

>  <SCORE.INTRA.SOLV.lig_0>
-40.9823

>  <SCORE.INTRA.VDW>
-1.90706

>  <SCORE.INTRA.VDW.0>
-0.53506

>  <SCORE.INTRA.norm>
-0.210107

>  <SCORE.RESTR>
0

>  <SCORE.RESTR.CAVITY>
0

>  <SCORE.RESTR.norm>
0

>  <SCORE.SYSTEM>
0

>  <SCORE.SYSTEM.CONST>
0

>  <SCORE.SYSTEM.DIHEDRAL>
0

>  <SCORE.SYSTEM.SOLV>
0

>  <SCORE.SYSTEM.norm>
0

>  <SCORE.heavy>
22

>  <SCORE.norm>
-1.04541

>  <RMSD>
1.783

$$$$
lig.pdb
 OpenBabel11021811523D
libRbt.so/2013.1/901 2013/11/27
 22 23  0  0  0  0  0  0  0  0999 V2000
   56.1249  -16.1429    8.2396 O   0  0  0  0  0  0  0  0  0  0  0  0
   56.8695  -17.0656    8.4731 C   0  0  0  0  0  0  0  0  0  0  0  0
   56.4776  -18.3240    8.3797 N   0  0  0  0  0  0  0  0  0  0  0  0
   58.2462  -16.8078    8.9186 C   0  0  0  0  0  0  0  0  0  0  0  0
   58.7781  -15.4934    9.2856 C   0  0  0  0  0  0  0  0  0  0  0  0
   58.0926  -14.3306    9.2500 N   0  0  0  0  0  0  0  0  0  0  0  0
   59.2821  -17.6451    9.0871 N   0  0  0  0  0  0  0  0  0  0  0  0
   60.3471  -16.9281    9.5415 C   0  0  0  0  0  0  0  0  0  0  0  0
   60.0436  -15.6143    9.6704 N   0  0  0  0  0  0  0  0  0  0  0  0
   60.9701  -14.5482   10.1402 C   0  0  1  0  0  0  0  0  0  0  0  0
   61.4723  -13.7611    8.9493 C   0  0  1  0  0  0  0  0  0  0  0  0
   61.5098  -12.3396    9.4476 C   0  0  2  0  0  0  0  0  0  0  0  0
   62.7980  -12.0550   10.0075 O   0  0  0  0  0  0  0  0  0  0  0  0
   62.7646  -14.2265    8.5300 O   0  0  0  0  0  0  0  0  0  0  0  0
   60.2735  -13.6155   10.9627 O   0  0  0  0  0  0  0  0  0  0  0  0
   60.4844  -12.2866   10.5503 C   0  0  2  0  0  0  0  0  0  0  0  0
   59.1220  -11.7467   10.1670 C   0  0  0  0  0  0  0  0  0  0  0  0
   59.2061  -10.4333    9.6534 O   0  0  0  0  0  0  0  0  0  0  0  0
   59.5660   -9.2428   10.6563 P   0  0  0  0  0  0  0  0  0  0  0  0
   59.3709   -7.9759    9.8479 O   0  0  0  0  0  0  0  0  0  0  0  0
   60.9954   -9.5538   11.0182 O   0  0  0  0  0  0  0  0  0  0  0  0
   58.6236   -9.4613   11.8073 O   0  0  0  0  0  0  0  0  0  0  0  0
  2  1  2  0  0  0  0
  2  4  1  0  0  0  0
  3  2  1  0  0  0  0
  4  7  1  0  0  0  0
  4  5  2  0  0  0  0
  5  6  1  0  0  0  0
  5  9  1  0  0  0  0
  7  8  2  0  0  0  0
  8  9  1  0  0  0  0
 10  9  1  6  0  0  0
 10 15  1  0  0  0  0
 11 14  1  1  0  0  0
 11 12  1  0  0  0  0
 11 10  1  0  0  0  0
 12 13  1  1  0  0  0
 12 16  1  0  0  0  0
 16 17  1  6  0  0  0
 16 15  1  0  0  0  0
 18 19  1  0  0  0  0
 18 17  1  0  0  0  0
 19 21  1  0  0  0  0
 20 19  1  0  0  0  0
 22 19  2  0  0  0  0
M  END
>  <CHROM.1>
8.50028597,-77.21479571,-58.48150649,-171.75716914,-70.48322290,59.63710873
-13.24291586,9.74366941,1.81202562,0.04001370,-2.92019175

>  <Name>
lig.pdb

>  <RI>
0

>  <Rbt.Current_Directory>
/home/itssahil/PROJECTS/Mol_Feturizer/New_Systems/rnas/4znp

>  <Rbt.Executable>
rbdock ($Id: //depot/dev/client3/rdock/2013.1/src/exe/rbdock.cxx#4 $)

>  <Rbt.Library>
libRbt.so (2013.1, Build901 2013/11/27)

>  <Rbt.Parameter_File>
/export/apps/rDock/src/rDock_2013.1_src/data/scripts/dock_solv.prm

>  <Rbt.Receptor>
prm/pocket_docking_2.prm

>  <SCORE>
-22.7912

>  <SCORE.INTER>
-18.1205

>  <SCORE.INTER.CONST>
1

>  <SCORE.INTER.POLAR>
0

>  <SCORE.INTER.ROT>
5

>  <SCORE.INTER.SOLV>
19.0935

>  <SCORE.INTER.VDW>
-25.3781

>  <SCORE.INTER.norm>
-0.823657

>  <SCORE.INTRA>
-4.67071

>  <SCORE.INTRA.DIHEDRAL>
-8.50023

>  <SCORE.INTRA.DIHEDRAL.0>
11.9251

>  <SCORE.INTRA.POLAR>
0

>  <SCORE.INTRA.POLAR.0>
0

>  <SCORE.INTRA.REPUL>
0

>  <SCORE.INTRA.REPUL.0>
0

>  <SCORE.INTRA.SOLV>
2.26482

>  <SCORE.INTRA.SOLV.lig_0>
-40.9823

>  <SCORE.INTRA.VDW>
-1.553

>  <SCORE.INTRA.VDW.0>
-0.53506

>  <SCORE.INTRA.norm>
-0.212305

>  <SCORE.RESTR>
0

>  <SCORE.RESTR.CAVITY>
0

>  <SCORE.RESTR.norm>
0

>  <SCORE.SYSTEM>
0

>  <SCORE.SYSTEM.CONST>
0

>  <SCORE.SYSTEM.DIHEDRAL>
0

>  <SCORE.SYSTEM.SOLV>
0

>  <SCORE.SYSTEM.norm>
0

>  <SCORE.heavy>
22

>  <SCORE.norm>
-1.03596

>  <RMSD>
1.785

$$$$
lig.pdb
 OpenBabel11021811523D
libRbt.so/2013.1/901 2013/11/27
 22 23  0  0  0  0  0  0  0  0999 V2000
   57.5134  -18.3979    8.0353 O   0  0  0  0  0  0  0  0  0  0  0  0
   56.8719  -17.3800    8.1479 C   0  0  0  0  0  0  0  0  0  0  0  0
   55.6069  -17.3032    7.7739 N   0  0  0  0  0  0  0  0  0  0  0  0
   57.5062  -16.1628    8.6736 C   0  0  0  0  0  0  0  0  0  0  0  0
   58.8231  -16.1107    9.3127 C   0  0  0  0  0  0  0  0  0  0  0  0
   59.6337  -17.1688    9.5291 N   0  0  0  0  0  0  0  0  0  0  0  0
   57.0729  -14.8924    8.7000 N   0  0  0  0  0  0  0  0  0  0  0  0
   58.0365  -14.1195    9.2734 C   0  0  0  0  0  0  0  0  0  0  0  0
   59.1104  -14.8571    9.6443 N   0  0  0  0  0  0  0  0  0  0  0  0
   60.3411  -14.3358   10.2994 C   0  0  1  0  0  0  0  0  0  0  0  0
   61.0619  -13.4089    9.3448 C   0  0  1  0  0  0  0  0  0  0  0  0
   61.5706  -12.3029   10.2327 C   0  0  2  0  0  0  0  0  0  0  0  0
   62.8865  -12.6229   10.7017 O   0  0  0  0  0  0  0  0  0  0  0  0
   62.1245  -14.0936    8.6631 O   0  0  0  0  0  0  0  0  0  0  0  0
   59.9991  -13.5435   11.4339 O   0  0  0  0  0  0  0  0  0  0  0  0
   60.6315  -12.2865   11.4107 C   0  0  2  0  0  0  0  0  0  0  0  0
   59.5189  -11.2598   11.3608 C   0  0  0  0  0  0  0  0  0  0  0  0
   58.7197  -11.2985   12.5253 O   0  0  0  0  0  0  0  0  0  0  0  0
   57.4426  -10.3420   12.6070 P   0  0  0  0  0  0  0  0  0  0  0  0
   56.8707  -10.5683   13.9921 O   0  0  0  0  0  0  0  0  0  0  0  0
   56.5901  -10.8532   11.4745 O   0  0  0  0  0  0  0  0  0  0  0  0
   58.0110   -8.9787   12.3255 O   0  0  0  0  0  0  0  0  0  0  0  0
  2  1  2  0  0  0  0
  2  4  1  0  0  0  0
  3  2  1  0  0  0  0
  4  7  1  0  0  0  0
  4  5  2  0  0  0  0
  5  6  1  0  0  0  0
  5  9  1  0  0  0  0
  7  8  2  0  0  0  0
  8  9  1  0  0  0  0
 10  9  1  6  0  0  0
 10 15  1  0  0  0  0
 11 14  1  1  0  0  0
 11 12  1  0  0  0  0
 11 10  1  0  0  0  0
 12 13  1  1  0  0  0
 12 16  1  0  0  0  0
 16 17  1  6  0  0  0
 16 15  1  0  0  0  0
 18 19  1  0  0  0  0
 18 17  1  0  0  0  0
 19 21  1  0  0  0  0
 20 19  1  0  0  0  0
 22 19  2  0  0  0  0
M  END
>  <CHROM.1>
-11.45095710,115.48677293,-178.26074388,-176.70848894,-176.37650925,58.84014166
-13.46352801,10.44270797,1.61277372,-0.09473237,-2.57996536

>  <Name>
lig.pdb

>  <RI>
0

>  <Rbt.Current_Directory>
/home/itssahil/PROJECTS/Mol_Feturizer/New_Systems/rnas/4znp

>  <Rbt.Executable>
rbdock ($Id: //depot/dev/client3/rdock/2013.1/src/exe/rbdock.cxx#4 $)

>  <Rbt.Library>
libRbt.so (2013.1, Build901 2013/11/27)

>  <Rbt.Parameter_File>
/export/apps/rDock/src/rDock_2013.1_src/data/scripts/dock_solv.prm

>  <Rbt.Receptor>
prm/pocket_docking_4.prm

>  <SCORE>
-25.8392

>  <SCORE.INTER>
-19.9068

>  <SCORE.INTER.CONST>
1

>  <SCORE.INTER.POLAR>
0

>  <SCORE.INTER.ROT>
5

>  <SCORE.INTER.SOLV>
20.9574

>  <SCORE.INTER.VDW>
-27.1904

>  <SCORE.INTER.norm>
-0.904856

>  <SCORE.INTRA>
-5.9324

>  <SCORE.INTRA.DIHEDRAL>
-9.04125

>  <SCORE.INTRA.DIHEDRAL.0>
11.9251

>  <SCORE.INTRA.POLAR>
0

>  <SCORE.INTRA.POLAR.0>
0

>  <SCORE.INTRA.REPUL>
0

>  <SCORE.INTRA.REPUL.0>
0

>  <SCORE.INTRA.SOLV>
-0.120153

>  <SCORE.INTRA.SOLV.lig_0>
-40.9823

>  <SCORE.INTRA.VDW>
-1.3517

>  <SCORE.INTRA.VDW.0>
-0.53506

>  <SCORE.INTRA.norm>
-0.269655

>  <SCORE.RESTR>
0

>  <SCORE.RESTR.CAVITY>
0

>  <SCORE.RESTR.norm>
0

>  <SCORE.SYSTEM>
0

>  <SCORE.SYSTEM.CONST>
0

>  <SCORE.SYSTEM.DIHEDRAL>
0

>  <SCORE.SYSTEM.SOLV>
0

>  <SCORE.SYSTEM.norm>
0

>  <SCORE.heavy>
22

>  <SCORE.norm>
-1.17451

>  <RMSD>
1.785

$$$$
lig.pdb
 OpenBabel11021811523D
libRbt.so/2013.1/901 2013/11/27
 22 23  0  0  0  0  0  0  0  0999 V2000
   57.5187  -18.4091    8.0208 O   0  0  0  0  0  0  0  0  0  0  0  0
   56.8746  -17.3920    8.1260 C   0  0  0  0  0  0  0  0  0  0  0  0
   55.6161  -17.3148    7.7312 N   0  0  0  0  0  0  0  0  0  0  0  0
   57.4991  -16.1763    8.6666 C   0  0  0  0  0  0  0  0  0  0  0  0
   58.8180  -16.1203    9.3011 C   0  0  0  0  0  0  0  0  0  0  0  0
   59.6399  -17.1732    9.4991 N   0  0  0  0  0  0  0  0  0  0  0  0
   57.0534  -14.9107    8.7129 N   0  0  0  0  0  0  0  0  0  0  0  0
   58.0117  -14.1365    9.2934 C   0  0  0  0  0  0  0  0  0  0  0  0
   59.0944  -14.8687    9.6494 N   0  0  0  0  0  0  0  0  0  0  0  0
   60.3225  -14.3447   10.3070 C   0  0  1  0  0  0  0  0  0  0  0  0
   61.0521  -13.4294    9.3478 C   0  0  1  0  0  0  0  0  0  0  0  0
   61.5586  -12.3162   10.2279 C   0  0  2  0  0  0  0  0  0  0  0  0
   62.8707  -12.6354   10.7081 O   0  0  0  0  0  0  0  0  0  0  0  0
   62.1167  -14.1239    8.6795 O   0  0  0  0  0  0  0  0  0  0  0  0
   59.9760  -13.5403   11.4315 O   0  0  0  0  0  0  0  0  0  0  0  0
   60.6124  -12.2854   11.3999 C   0  0  2  0  0  0  0  0  0  0  0  0
   59.5032  -11.2560   11.3330 C   0  0  0  0  0  0  0  0  0  0  0  0
   58.7350  -11.2380   12.5186 O   0  0  0  0  0  0  0  0  0  0  0  0
   57.4581  -10.2801   12.5866 P   0  0  0  0  0  0  0  0  0  0  0  0
   56.5371  -10.7752   11.4896 O   0  0  0  0  0  0  0  0  0  0  0  0
   58.0661   -8.9229   12.3437 O   0  0  0  0  0  0  0  0  0  0  0  0
   56.9743  -10.4459   14.0005 O   0  0  0  0  0  0  0  0  0  0  0  0
  2  1  2  0  0  0  0
  2  4  1  0  0  0  0
  3  2  1  0  0  0  0
  4  7  1  0  0  0  0
  4  5  2  0  0  0  0
  5  6  1  0  0  0  0
  5  9  1  0  0  0  0
  7  8  2  0  0  0  0
  8  9  1  0  0  0  0
 10  9  1  6  0  0  0
 10 15  1  0  0  0  0
 11 14  1  1  0  0  0
 11 12  1  0  0  0  0
 11 10  1  0  0  0  0
 12 13  1  1  0  0  0
 12 16  1  0  0  0  0
 16 17  1  6  0  0  0
 16 15  1  0  0  0  0
 18 19  1  0  0  0  0
 18 17  1  0  0  0  0
 19 21  1  0  0  0  0
 20 19  1  0  0  0  0
 22 19  2  0  0  0  0
M  END
>  <CHROM.1>
-10.00762219,113.81430509,-175.51588689,61.49500382,-175.91792080,58.84025618
-13.45020734,10.43838515,1.61258626,-0.08443817,-2.58369232

>  <Name>
lig.pdb

>  <RI>
0

>  <Rbt.Current_Directory>
/home/itssahil/PROJECTS/Mol_Feturizer/New_Systems/rnas/4znp

>  <Rbt.Executable>
rbdock ($Id: //depot/dev/client3/rdock/2013.1/src/exe/rbdock.cxx#4 $)

>  <Rbt.Library>
libRbt.so (2013.1, Build901 2013/11/27)

>  <Rbt.Parameter_File>
/export/apps/rDock/src/rDock_2013.1_src/data/scripts/dock_solv.prm

>  <Rbt.Receptor>
prm/pocket_docking_4.prm

>  <SCORE>
-25.9801

>  <SCORE.INTER>
-19.8158

>  <SCORE.INTER.CONST>
1

>  <SCORE.INTER.POLAR>
0

>  <SCORE.INTER.ROT>
5

>  <SCORE.INTER.SOLV>
21.0531

>  <SCORE.INTER.VDW>
-27.1616

>  <SCORE.INTER.norm>
-0.900717

>  <SCORE.INTRA>
-6.1647

>  <SCORE.INTRA.DIHEDRAL>
-9.08181

>  <SCORE.INTRA.DIHEDRAL.0>
11.9251

>  <SCORE.INTRA.POLAR>
0

>  <SCORE.INTRA.POLAR.0>
0

>  <SCORE.INTRA.REPUL>
0

>  <SCORE.INTRA.REPUL.0>
0

>  <SCORE.INTRA.SOLV>
-0.354699

>  <SCORE.INTRA.SOLV.lig_0>
-40.9823

>  <SCORE.INTRA.VDW>
-1.44644

>  <SCORE.INTRA.VDW.0>
-0.53506

>  <SCORE.INTRA.norm>
-0.280213

>  <SCORE.RESTR>
0.000408454

>  <SCORE.RESTR.CAVITY>
0.000408454

>  <SCORE.RESTR.norm>
1.85661e-05

>  <SCORE.SYSTEM>
0

>  <SCORE.SYSTEM.CONST>
0

>  <SCORE.SYSTEM.DIHEDRAL>
0

>  <SCORE.SYSTEM.SOLV>
0

>  <SCORE.SYSTEM.norm>
0

>  <SCORE.heavy>
22

>  <SCORE.norm>
-1.18091

>  <RMSD>
1.785

$$$$
lig.pdb
 OpenBabel11021811523D
libRbt.so/2013.1/901 2013/11/27
 22 23  0  0  0  0  0  0  0  0999 V2000
   56.0761  -16.1912    8.1187 O   0  0  0  0  0  0  0  0  0  0  0  0
   56.8044  -17.0964    8.4515 C   0  0  0  0  0  0  0  0  0  0  0  0
   56.4081  -18.3568    8.4373 N   0  0  0  0  0  0  0  0  0  0  0  0
   58.1635  -16.8108    8.9324 C   0  0  0  0  0  0  0  0  0  0  0  0
   58.6679  -15.4815    9.2846 C   0  0  0  0  0  0  0  0  0  0  0  0
   57.9697  -14.3287    9.2012 N   0  0  0  0  0  0  0  0  0  0  0  0
   59.2039  -17.6305    9.1517 N   0  0  0  0  0  0  0  0  0  0  0  0
   60.2457  -16.8896    9.6214 C   0  0  0  0  0  0  0  0  0  0  0  0
   59.9224  -15.5772    9.7104 N   0  0  0  0  0  0  0  0  0  0  0  0
   60.8209  -14.4888   10.1831 C   0  0  1  0  0  0  0  0  0  0  0  0
   61.3183  -13.6979    8.9926 C   0  0  1  0  0  0  0  0  0  0  0  0
   61.3202  -12.2731    9.4828 C   0  0  2  0  0  0  0  0  0  0  0  0
   62.5963  -11.9576   10.0539 O   0  0  0  0  0  0  0  0  0  0  0  0
   62.6245  -14.1379    8.5892 O   0  0  0  0  0  0  0  0  0  0  0  0
   60.0961  -13.5665   10.9930 O   0  0  0  0  0  0  0  0  0  0  0  0
   60.2828  -12.2357   10.5747 C   0  0  2  0  0  0  0  0  0  0  0  0
   58.9131  -11.7275   10.1745 C   0  0  0  0  0  0  0  0  0  0  0  0
   58.9769  -10.4234    9.6348 O   0  0  0  0  0  0  0  0  0  0  0  0
   59.2948   -9.2049   10.6180 P   0  0  0  0  0  0  0  0  0  0  0  0
   59.0725   -7.9592    9.7839 O   0  0  0  0  0  0  0  0  0  0  0  0
   60.7288   -9.4694   10.9981 O   0  0  0  0  0  0  0  0  0  0  0  0
   58.3482   -9.4276   11.7648 O   0  0  0  0  0  0  0  0  0  0  0  0
  2  1  2  0  0  0  0
  2  4  1  0  0  0  0
  3  2  1  0  0  0  0
  4  7  1  0  0  0  0
  4  5  2  0  0  0  0
  5  6  1  0  0  0  0
  5  9  1  0  0  0  0
  7  8  2  0  0  0  0
  8  9  1  0  0  0  0
 10  9  1  6  0  0  0
 10 15  1  0  0  0  0
 11 14  1  1  0  0  0
 11 12  1  0  0  0  0
 11 10  1  0  0  0  0
 12 13  1  1  0  0  0
 12 16  1  0  0  0  0
 16 17  1  6  0  0  0
 16 15  1  0  0  0  0
 18 19  1  0  0  0  0
 18 17  1  0  0  0  0
 19 21  1  0  0  0  0
 20 19  1  0  0  0  0
 22 19  2  0  0  0  0
M  END
>  <CHROM.1>
11.73400857,-75.60401738,-57.57061945,-171.23473582,-71.17203661,59.46605915
-13.21142197,9.74748744,1.78795519,0.05866179,-2.92967018

>  <Name>
lig.pdb

>  <RI>
0

>  <Rbt.Current_Directory>
/home/itssahil/PROJECTS/Mol_Feturizer/New_Systems/rnas/4znp

>  <Rbt.Executable>
rbdock ($Id: //depot/dev/client3/rdock/2013.1/src/exe/rbdock.cxx#4 $)

>  <Rbt.Library>
libRbt.so (2013.1, Build901 2013/11/27)

>  <Rbt.Parameter_File>
/export/apps/rDock/src/rDock_2013.1_src/data/scripts/dock_solv.prm

>  <Rbt.Receptor>
prm/pocket_docking_3.prm

>  <SCORE>
-23.0605

>  <SCORE.INTER>
-18.5021

>  <SCORE.INTER.CONST>
1

>  <SCORE.INTER.POLAR>
0

>  <SCORE.INTER.ROT>
5

>  <SCORE.INTER.SOLV>
19.1319

>  <SCORE.INTER.VDW>
-25.6453

>  <SCORE.INTER.norm>
-0.841003

>  <SCORE.INTRA>
-4.55843

>  <SCORE.INTRA.DIHEDRAL>
-8.16162

>  <SCORE.INTRA.DIHEDRAL.0>
11.9251

>  <SCORE.INTRA.POLAR>
0

>  <SCORE.INTRA.POLAR.0>
0

>  <SCORE.INTRA.REPUL>
0

>  <SCORE.INTRA.REPUL.0>
0

>  <SCORE.INTRA.SOLV>
2.2583

>  <SCORE.INTRA.SOLV.lig_0>
-40.9823

>  <SCORE.INTRA.VDW>
-1.60677

>  <SCORE.INTRA.VDW.0>
-0.53506

>  <SCORE.INTRA.norm>
-0.207201

>  <SCORE.RESTR>
0

>  <SCORE.RESTR.CAVITY>
0

>  <SCORE.RESTR.norm>
0

>  <SCORE.SYSTEM>
0

>  <SCORE.SYSTEM.CONST>
0

>  <SCORE.SYSTEM.DIHEDRAL>
0

>  <SCORE.SYSTEM.SOLV>
0

>  <SCORE.SYSTEM.norm>
0

>  <SCORE.heavy>
22

>  <SCORE.norm>
-1.0482

>  <RMSD>
1.787

$$$$
lig.pdb
 OpenBabel11021811523D
libRbt.so/2013.1/901 2013/11/27
 22 23  0  0  0  0  0  0  0  0999 V2000
   57.8121  -18.1484    8.2556 O   0  0  0  0  0  0  0  0  0  0  0  0
   57.1625  -17.1312    8.3161 C   0  0  0  0  0  0  0  0  0  0  0  0
   55.9097  -17.0732    7.9003 N   0  0  0  0  0  0  0  0  0  0  0  0
   57.7741  -15.8946    8.8233 C   0  0  0  0  0  0  0  0  0  0  0  0
   59.0930  -15.8073    9.4541 C   0  0  0  0  0  0  0  0  0  0  0  0
   59.9268  -16.8454    9.6788 N   0  0  0  0  0  0  0  0  0  0  0  0
   57.3145  -14.6333    8.8366 N   0  0  0  0  0  0  0  0  0  0  0  0
   58.2648  -13.8335    9.3951 C   0  0  0  0  0  0  0  0  0  0  0  0
   59.3559  -14.5439    9.7687 N   0  0  0  0  0  0  0  0  0  0  0  0
   60.5790  -13.9891   10.4104 C   0  0  1  0  0  0  0  0  0  0  0  0
   61.6984  -13.9379    9.3933 C   0  0  1  0  0  0  0  0  0  0  0  0
   62.4078  -12.6454    9.7041 C   0  0  2  0  0  0  0  0  0  0  0  0
   63.4593  -12.8833   10.6485 O   0  0  0  0  0  0  0  0  0  0  0  0
   62.5625  -15.0782    9.5181 O   0  0  0  0  0  0  0  0  0  0  0  0
   60.3554  -12.6414   10.8173 O   0  0  0  0  0  0  0  0  0  0  0  0
   61.3644  -11.7757   10.3558 C   0  0  2  0  0  0  0  0  0  0  0  0
   60.6747  -10.7737    9.4532 C   0  0  0  0  0  0  0  0  0  0  0  0
   61.5921   -9.8566    8.8934 O   0  0  0  0  0  0  0  0  0  0  0  0
   61.0282   -8.6748    7.9780 P   0  0  0  0  0  0  0  0  0  0  0  0
   60.3301   -9.3695    6.8261 O   0  0  0  0  0  0  0  0  0  0  0  0
   62.2863   -7.9332    7.6064 O   0  0  0  0  0  0  0  0  0  0  0  0
   60.1583   -7.8901    8.9205 O   0  0  0  0  0  0  0  0  0  0  0  0
  2  1  2  0  0  0  0
  2  4  1  0  0  0  0
  3  2  1  0  0  0  0
  4  7  1  0  0  0  0
  4  5  2  0  0  0  0
  5  6  1  0  0  0  0
  5  9  1  0  0  0  0
  7  8  2  0  0  0  0
  8  9  1  0  0  0  0
 10  9  1  6  0  0  0
 10 15  1  0  0  0  0
 11 14  1  1  0  0  0
 11 12  1  0  0  0  0
 11 10  1  0  0  0  0
 12 13  1  1  0  0  0
 12 16  1  0  0  0  0
 16 17  1  6  0  0  0
 16 15  1  0  0  0  0
 18 19  1  0  0  0  0
 18 17  1  0  0  0  0
 19 21  1  0  0  0  0
 20 19  1  0  0  0  0
 22 19  2  0  0  0  0
M  END
>  <CHROM.1>
-8.90259706,75.50368572,-60.66572013,-60.37781852,-176.61365896,60.17480072
-12.88042691,9.05942497,2.02452460,0.43299282,2.88229351

>  <Name>
lig.pdb

>  <RI>
0

>  <Rbt.Current_Directory>
/home/itssahil/PROJECTS/Mol_Feturizer/New_Systems/rnas/4znp

>  <Rbt.Executable>
rbdock ($Id: //depot/dev/client3/rdock/2013.1/src/exe/rbdock.cxx#4 $)

>  <Rbt.Library>
libRbt.so (2013.1, Build901 2013/11/27)

>  <Rbt.Parameter_File>
/export/apps/rDock/src/rDock_2013.1_src/data/scripts/dock_solv.prm

>  <Rbt.Receptor>
prm/pocket_docking_5.prm

>  <SCORE>
-28.427

>  <SCORE.INTER>
-22.6353

>  <SCORE.INTER.CONST>
1

>  <SCORE.INTER.POLAR>
0

>  <SCORE.INTER.ROT>
5

>  <SCORE.INTER.SOLV>
22.3631

>  <SCORE.INTER.VDW>
-29.4779

>  <SCORE.INTER.norm>
-1.02888

>  <SCORE.INTRA>
-5.83559

>  <SCORE.INTRA.DIHEDRAL>
-9.26052

>  <SCORE.INTRA.DIHEDRAL.0>
11.9251

>  <SCORE.INTRA.POLAR>
0

>  <SCORE.INTRA.POLAR.0>
0

>  <SCORE.INTRA.REPUL>
0

>  <SCORE.INTRA.REPUL.0>
0

>  <SCORE.INTRA.SOLV>
0.334491

>  <SCORE.INTRA.SOLV.lig_0>
-40.9823

>  <SCORE.INTRA.VDW>
-1.37257

>  <SCORE.INTRA.VDW.0>
-0.53506

>  <SCORE.INTRA.norm>
-0.265254

>  <SCORE.RESTR>
0.0439344

>  <SCORE.RESTR.CAVITY>
0.0439344

>  <SCORE.RESTR.norm>
0.00199702

>  <SCORE.SYSTEM>
0

>  <SCORE.SYSTEM.CONST>
0

>  <SCORE.SYSTEM.DIHEDRAL>
0

>  <SCORE.SYSTEM.SOLV>
0

>  <SCORE.SYSTEM.norm>
0

>  <SCORE.heavy>
22

>  <SCORE.norm>
-1.29214

>  <RMSD>
1.787

$$$$
lig.pdb
 OpenBabel11021811523D
libRbt.so/2013.1/901 2013/11/27
 22 23  0  0  0  0  0  0  0  0999 V2000
   57.5399  -18.4118    8.0033 O   0  0  0  0  0  0  0  0  0  0  0  0
   56.8856  -17.4033    8.1270 C   0  0  0  0  0  0  0  0  0  0  0  0
   55.6233  -17.3347    7.7425 N   0  0  0  0  0  0  0  0  0  0  0  0
   57.5008  -16.1881    8.6792 C   0  0  0  0  0  0  0  0  0  0  0  0
   58.8151  -16.1301    9.3230 C   0  0  0  0  0  0  0  0  0  0  0  0
   59.6404  -17.1805    9.5203 N   0  0  0  0  0  0  0  0  0  0  0  0
   57.0491  -14.9249    8.7301 N   0  0  0  0  0  0  0  0  0  0  0  0
   57.9999  -14.1500    9.3219 C   0  0  0  0  0  0  0  0  0  0  0  0
   59.0834  -14.8794    9.6809 N   0  0  0  0  0  0  0  0  0  0  0  0
   60.3047  -14.3538   10.3500 C   0  0  1  0  0  0  0  0  0  0  0  0
   61.0433  -13.4394    9.3969 C   0  0  1  0  0  0  0  0  0  0  0  0
   61.5404  -12.3248   10.2806 C   0  0  2  0  0  0  0  0  0  0  0  0
   62.8478  -12.6427   10.7744 O   0  0  0  0  0  0  0  0  0  0  0  0
   62.1149  -14.1343    8.7402 O   0  0  0  0  0  0  0  0  0  0  0  0
   59.9464  -13.5482   11.4699 O   0  0  0  0  0  0  0  0  0  0  0  0
   60.5825  -12.2930   11.4430 C   0  0  2  0  0  0  0  0  0  0  0  0
   59.4735  -11.2642   11.3638 C   0  0  0  0  0  0  0  0  0  0  0  0
   58.6840  -11.2558   12.5353 O   0  0  0  0  0  0  0  0  0  0  0  0
   57.4522  -10.2417   12.6187 P   0  0  0  0  0  0  0  0  0  0  0  0
   56.5318  -10.6479   11.4852 O   0  0  0  0  0  0  0  0  0  0  0  0
   58.1280   -8.9063   12.4433 O   0  0  0  0  0  0  0  0  0  0  0  0
   56.9321  -10.4410   14.0154 O   0  0  0  0  0  0  0  0  0  0  0  0
  2  1  2  0  0  0  0
  2  4  1  0  0  0  0
  3  2  1  0  0  0  0
  4  7  1  0  0  0  0
  4  5  2  0  0  0  0
  5  6  1  0  0  0  0
  5  9  1  0  0  0  0
  7  8  2  0  0  0  0
  8  9  1  0  0  0  0
 10  9  1  6  0  0  0
 10 15  1  0  0  0  0
 11 14  1  1  0  0  0
 11 12  1  0  0  0  0
 11 10  1  0  0  0  0
 12 13  1  1  0  0  0
 12 16  1  0  0  0  0
 16 17  1  6  0  0  0
 16 15  1  0  0  0  0
 18 19  1  0  0  0  0
 18 17  1  0  0  0  0
 19 21  1  0  0  0  0
 20 19  1  0  0  0  0
 22 19  2  0  0  0  0
M  END
>  <CHROM.1>
-10.99822285,113.29855418,-176.19402904,61.39125981,-179.23231741,58.83169906
-13.44730376,10.46930168,1.60830752,-0.07531874,-2.58425148

>  <Name>
lig.pdb

>  <RI>
0

>  <Rbt.Current_Directory>
/home/itssahil/PROJECTS/Mol_Feturizer/New_Systems/rnas/4znp

>  <Rbt.Executable>
rbdock ($Id: //depot/dev/client3/rdock/2013.1/src/exe/rbdock.cxx#4 $)

>  <Rbt.Library>
libRbt.so (2013.1, Build901 2013/11/27)

>  <Rbt.Parameter_File>
/export/apps/rDock/src/rDock_2013.1_src/data/scripts/dock_solv.prm

>  <Rbt.Receptor>
prm/pocket_docking_4.prm

>  <SCORE>
-25.9902

>  <SCORE.INTER>
-19.8113

>  <SCORE.INTER.CONST>
1

>  <SCORE.INTER.POLAR>
0

>  <SCORE.INTER.ROT>
5

>  <SCORE.INTER.SOLV>
21.0855

>  <SCORE.INTER.VDW>
-27.1693

>  <SCORE.INTER.norm>
-0.900511

>  <SCORE.INTRA>
-6.17892

>  <SCORE.INTRA.DIHEDRAL>
-9.11812

>  <SCORE.INTRA.DIHEDRAL.0>
11.9251

>  <SCORE.INTRA.POLAR>
0

>  <SCORE.INTRA.POLAR.0>
0

>  <SCORE.INTRA.REPUL>
0

>  <SCORE.INTRA.REPUL.0>
0

>  <SCORE.INTRA.SOLV>
-0.35851

>  <SCORE.INTRA.SOLV.lig_0>
-40.9823

>  <SCORE.INTRA.VDW>
-1.4406

>  <SCORE.INTRA.VDW.0>
-0.53506

>  <SCORE.INTRA.norm>
-0.28086

>  <SCORE.RESTR>
0

>  <SCORE.RESTR.CAVITY>
0

>  <SCORE.RESTR.norm>
0

>  <SCORE.SYSTEM>
0

>  <SCORE.SYSTEM.CONST>
0

>  <SCORE.SYSTEM.DIHEDRAL>
0

>  <SCORE.SYSTEM.SOLV>
0

>  <SCORE.SYSTEM.norm>
0

>  <SCORE.heavy>
22

>  <SCORE.norm>
-1.18137

>  <RMSD>
1.788

$$$$
lig.pdb
 OpenBabel11021811523D
libRbt.so/2013.1/901 2013/11/27
 22 23  0  0  0  0  0  0  0  0999 V2000
   57.7841  -18.1952    8.2412 O   0  0  0  0  0  0  0  0  0  0  0  0
   57.1353  -17.1762    8.2746 C   0  0  0  0  0  0  0  0  0  0  0  0
   55.8982  -17.1170    7.8143 N   0  0  0  0  0  0  0  0  0  0  0  0
   57.7315  -15.9391    8.7985 C   0  0  0  0  0  0  0  0  0  0  0  0
   59.0349  -15.8497    9.4607 C   0  0  0  0  0  0  0  0  0  0  0  0
   59.8657  -16.8862    9.7032 N   0  0  0  0  0  0  0  0  0  0  0  0
   57.2685  -14.6790    8.8033 N   0  0  0  0  0  0  0  0  0  0  0  0
   58.2032  -13.8779    9.3857 C   0  0  0  0  0  0  0  0  0  0  0  0
   59.2870  -14.5863    9.7839 N   0  0  0  0  0  0  0  0  0  0  0  0
   60.4930  -14.0296   10.4555 C   0  0  1  0  0  0  0  0  0  0  0  0
   61.6343  -13.9676    9.4637 C   0  0  1  0  0  0  0  0  0  0  0  0
   62.3307  -12.6737    9.7973 C   0  0  2  0  0  0  0  0  0  0  0  0
   63.3622  -12.9123   10.7634 O   0  0  0  0  0  0  0  0  0  0  0  0
   62.5007  -15.1047    9.6011 O   0  0  0  0  0  0  0  0  0  0  0  0
   60.2542  -12.6853   10.8649 O   0  0  0  0  0  0  0  0  0  0  0  0
   61.2692  -11.8124   10.4307 C   0  0  2  0  0  0  0  0  0  0  0  0
   60.5949  -10.8084    9.5188 C   0  0  0  0  0  0  0  0  0  0  0  0
   61.5145   -9.8635    9.0113 O   0  0  0  0  0  0  0  0  0  0  0  0
   60.9745   -8.7214    8.0333 P   0  0  0  0  0  0  0  0  0  0  0  0
   59.9628   -7.9474    8.8545 O   0  0  0  0  0  0  0  0  0  0  0  0
   60.3933   -9.5241    6.8982 O   0  0  0  0  0  0  0  0  0  0  0  0
   62.2240   -7.9866    7.6338 O   0  0  0  0  0  0  0  0  0  0  0  0
  2  1  2  0  0  0  0
  2  4  1  0  0  0  0
  3  2  1  0  0  0  0
  4  7  1  0  0  0  0
  4  5  2  0  0  0  0
  5  6  1  0  0  0  0
  5  9  1  0  0  0  0
  7  8  2  0  0  0  0
  8  9  1  0  0  0  0
 10  9  1  6  0  0  0
 10 15  1  0  0  0  0
 11 14  1  1  0  0  0
 11 12  1  0  0  0  0
 11 10  1  0  0  0  0
 12 13  1  1  0  0  0
 12 16  1  0  0  0  0
 16 17  1  6  0  0  0
 16 15  1  0  0  0  0
 18 19  1  0  0  0  0
 18 17  1  0  0  0  0
 19 21  1  0  0  0  0
 20 19  1  0  0  0  0
 22 19  2  0  0  0  0
M  END
>  <CHROM.1>
-8.09886930,75.76787573,-62.15421676,60.99263914,-179.73820663,60.11146345
-12.92575561,9.09120717,2.02766524,0.45630766,2.88028937

>  <Name>
lig.pdb

>  <RI>
0

>  <Rbt.Current_Directory>
/home/itssahil/PROJECTS/Mol_Feturizer/New_Systems/rnas/4znp

>  <Rbt.Executable>
rbdock ($Id: //depot/dev/client3/rdock/2013.1/src/exe/rbdock.cxx#4 $)

>  <Rbt.Library>
libRbt.so (2013.1, Build901 2013/11/27)

>  <Rbt.Parameter_File>
/export/apps/rDock/src/rDock_2013.1_src/data/scripts/dock_solv.prm

>  <Rbt.Receptor>
prm/pocket_docking_5.prm

>  <SCORE>
-28.4006

>  <SCORE.INTER>
-22.4718

>  <SCORE.INTER.CONST>
1

>  <SCORE.INTER.POLAR>
0

>  <SCORE.INTER.ROT>
5

>  <SCORE.INTER.SOLV>
22.8977

>  <SCORE.INTER.VDW>
-29.5471

>  <SCORE.INTER.norm>
-1.02145

>  <SCORE.INTRA>
-5.93063

>  <SCORE.INTRA.DIHEDRAL>
-9.33713

>  <SCORE.INTRA.DIHEDRAL.0>
11.9251

>  <SCORE.INTRA.POLAR>
0

>  <SCORE.INTRA.POLAR.0>
0

>  <SCORE.INTRA.REPUL>
0

>  <SCORE.INTRA.REPUL.0>
0

>  <SCORE.INTRA.SOLV>
0.0919626

>  <SCORE.INTRA.SOLV.lig_0>
-40.9823

>  <SCORE.INTRA.VDW>
-1.30805

>  <SCORE.INTRA.VDW.0>
-0.53506

>  <SCORE.INTRA.norm>
-0.269574

>  <SCORE.RESTR>
0.00183948

>  <SCORE.RESTR.CAVITY>
0.00183948

>  <SCORE.RESTR.norm>
8.36129e-05

>  <SCORE.SYSTEM>
0

>  <SCORE.SYSTEM.CONST>
0

>  <SCORE.SYSTEM.DIHEDRAL>
0

>  <SCORE.SYSTEM.SOLV>
0

>  <SCORE.SYSTEM.norm>
0

>  <SCORE.heavy>
22

>  <SCORE.norm>
-1.29094

>  <RMSD>
1.804

$$$$
lig.pdb
 OpenBabel11021811523D
libRbt.so/2013.1/901 2013/11/27
 22 23  0  0  0  0  0  0  0  0999 V2000
   58.0472  -18.0648    8.2958 O   0  0  0  0  0  0  0  0  0  0  0  0
   57.3191  -17.1054    8.3954 C   0  0  0  0  0  0  0  0  0  0  0  0
   56.0452  -17.1527    8.0482 N   0  0  0  0  0  0  0  0  0  0  0  0
   57.8519  -15.8219    8.8739 C   0  0  0  0  0  0  0  0  0  0  0  0
   59.1830  -15.6285    9.4536 C   0  0  0  0  0  0  0  0  0  0  0  0
   60.1025  -16.5976    9.6504 N   0  0  0  0  0  0  0  0  0  0  0  0
   57.2968  -14.5997    8.8998 N   0  0  0  0  0  0  0  0  0  0  0  0
   58.2027  -13.7250    9.4183 C   0  0  0  0  0  0  0  0  0  0  0  0
   59.3590  -14.3465    9.7529 N   0  0  0  0  0  0  0  0  0  0  0  0
   60.5587  -13.6944   10.3451 C   0  0  1  0  0  0  0  0  0  0  0  0
   61.7306  -13.8500    9.4003 C   0  0  1  0  0  0  0  0  0  0  0  0
   62.4511  -12.5305    9.5005 C   0  0  2  0  0  0  0  0  0  0  0  0
   63.4463  -12.5973   10.5296 O   0  0  0  0  0  0  0  0  0  0  0  0
   62.5617  -14.9561    9.7857 O   0  0  0  0  0  0  0  0  0  0  0  0
   60.3438  -12.2915   10.4774 O   0  0  0  0  0  0  0  0  0  0  0  0
   61.3944  -11.5408    9.9175 C   0  0  2  0  0  0  0  0  0  0  0  0
   60.7749  -10.7201    8.8053 C   0  0  0  0  0  0  0  0  0  0  0  0
   61.7474   -9.9740    8.1027 O   0  0  0  0  0  0  0  0  0  0  0  0
   62.0446   -8.4754    8.5699 P   0  0  0  0  0  0  0  0  0  0  0  0
   63.0883   -7.9611    7.5989 O   0  0  0  0  0  0  0  0  0  0  0  0
   62.5313   -8.6738    9.9822 O   0  0  0  0  0  0  0  0  0  0  0  0
   60.6922   -7.8203    8.5172 O   0  0  0  0  0  0  0  0  0  0  0  0
  2  1  2  0  0  0  0
  2  4  1  0  0  0  0
  3  2  1  0  0  0  0
  4  7  1  0  0  0  0
  4  5  2  0  0  0  0
  5  6  1  0  0  0  0
  5  9  1  0  0  0  0
  7  8  2  0  0  0  0
  8  9  1  0  0  0  0
 10  9  1  6  0  0  0
 10 15  1  0  0  0  0
 11 14  1  1  0  0  0
 11 12  1  0  0  0  0
 11 10  1  0  0  0  0
 12 13  1  1  0  0  0
 12 16  1  0  0  0  0
 16 17  1  6  0  0  0
 16 15  1  0  0  0  0
 18 19  1  0  0  0  0
 18 17  1  0  0  0  0
 19 21  1  0  0  0  0
 20 19  1  0  0  0  0
 22 19  2  0  0  0  0
M  END
>  <CHROM.1>
-9.97790096,62.49306954,-58.50207742,-178.45854909,-92.85573787,60.48881088
-12.72841081,9.15993018,2.09882903,0.34301504,2.93694023

>  <Name>
lig.pdb

>  <RI>
0

>  <Rbt.Current_Directory>
/home/itssahil/PROJECTS/Mol_Feturizer/New_Systems/rnas/4znp

>  <Rbt.Executable>
rbdock ($Id: //depot/dev/client3/rdock/2013.1/src/exe/rbdock.cxx#4 $)

>  <Rbt.Library>
libRbt.so (2013.1, Build901 2013/11/27)

>  <Rbt.Parameter_File>
/export/apps/rDock/src/rDock_2013.1_src/data/scripts/dock_solv.prm

>  <Rbt.Receptor>
prm/pocket_docking_4.prm

>  <SCORE>
-24.8861

>  <SCORE.INTER>
-21.48

>  <SCORE.INTER.CONST>
1

>  <SCORE.INTER.POLAR>
0

>  <SCORE.INTER.ROT>
5

>  <SCORE.INTER.SOLV>
19.9714

>  <SCORE.INTER.VDW>
-27.9104

>  <SCORE.INTER.norm>
-0.976362

>  <SCORE.INTRA>
-3.40618

>  <SCORE.INTRA.DIHEDRAL>
-5.083

>  <SCORE.INTRA.DIHEDRAL.0>
11.9251

>  <SCORE.INTRA.POLAR>
0

>  <SCORE.INTRA.POLAR.0>
0

>  <SCORE.INTRA.REPUL>
0

>  <SCORE.INTRA.REPUL.0>
0

>  <SCORE.INTRA.SOLV>
0.968199

>  <SCORE.INTRA.SOLV.lig_0>
-40.9823

>  <SCORE.INTRA.VDW>
-1.34878

>  <SCORE.INTRA.VDW.0>
-0.53506

>  <SCORE.INTRA.norm>
-0.154826

>  <SCORE.RESTR>
0

>  <SCORE.RESTR.CAVITY>
0

>  <SCORE.RESTR.norm>
0

>  <SCORE.SYSTEM>
0

>  <SCORE.SYSTEM.CONST>
0

>  <SCORE.SYSTEM.DIHEDRAL>
0

>  <SCORE.SYSTEM.SOLV>
0

>  <SCORE.SYSTEM.norm>
0

>  <SCORE.heavy>
22

>  <SCORE.norm>
-1.13119

>  <RMSD>
1.806

$$$$
lig.pdb
 OpenBabel11021811523D
libRbt.so/2013.1/901 2013/11/27
 22 23  0  0  0  0  0  0  0  0999 V2000
   55.8124  -16.9984    7.8881 O   0  0  0  0  0  0  0  0  0  0  0  0
   56.9573  -17.0713    8.2681 C   0  0  0  0  0  0  0  0  0  0  0  0
   57.6286  -18.2093    8.2579 N   0  0  0  0  0  0  0  0  0  0  0  0
   57.6338  -15.8814    8.8035 C   0  0  0  0  0  0  0  0  0  0  0  0
   58.9605  -15.8774    9.4242 C   0  0  0  0  0  0  0  0  0  0  0  0
   59.7432  -16.9615    9.6123 N   0  0  0  0  0  0  0  0  0  0  0  0
   57.2378  -14.5997    8.8561 N   0  0  0  0  0  0  0  0  0  0  0  0
   58.2312  -13.8640    9.4275 C   0  0  0  0  0  0  0  0  0  0  0  0
   59.2885  -14.6379    9.7712 N   0  0  0  0  0  0  0  0  0  0  0  0
   60.5428  -14.1627   10.4165 C   0  0  1  0  0  0  0  0  0  0  0  0
   61.5349  -13.7609    9.3466 C   0  0  1  0  0  0  0  0  0  0  0  0
   62.2000  -12.5344    9.9154 C   0  0  2  0  0  0  0  0  0  0  0  0
   63.3637  -12.9143   10.6608 O   0  0  0  0  0  0  0  0  0  0  0  0
   62.4712  -14.8185    9.0868 O   0  0  0  0  0  0  0  0  0  0  0  0
   60.2902  -12.9861   11.1804 O   0  0  0  0  0  0  0  0  0  0  0  0
   61.1894  -11.9496   10.8675 C   0  0  2  0  0  0  0  0  0  0  0  0
   60.3456  -10.8134   10.3274 C   0  0  0  0  0  0  0  0  0  0  0  0
   59.8022  -10.0263   11.3672 O   0  0  0  0  0  0  0  0  0  0  0  0
   58.6737  -10.6664   12.2995 P   0  0  0  0  0  0  0  0  0  0  0  0
   57.7023  -11.3278   11.3425 O   0  0  0  0  0  0  0  0  0  0  0  0
   58.1345   -9.4581   13.0206 O   0  0  0  0  0  0  0  0  0  0  0  0
   59.4504  -11.5769   13.2098 O   0  0  0  0  0  0  0  0  0  0  0  0
  2  1  2  0  0  0  0
  2  4  1  0  0  0  0
  3  2  1  0  0  0  0
  4  7  1  0  0  0  0
  4  5  2  0  0  0  0
  5  6  1  0  0  0  0
  5  9  1  0  0  0  0
  7  8  2  0  0  0  0
  8  9  1  0  0  0  0
 10  9  1  6  0  0  0
 10 15  1  0  0  0  0
 11 14  1  1  0  0  0
 11 12  1  0  0  0  0
 11 10  1  0  0  0  0
 12 13  1  1  0  0  0
 12 16  1  0  0  0  0
 16 17  1  6  0  0  0
 16 15  1  0  0  0  0
 18 19  1  0  0  0  0
 18 17  1  0  0  0  0
 19 21  1  0  0  0  0
 20 19  1  0  0  0  0
 22 19  2  0  0  0  0
M  END
>  <CHROM.1>
173.05011104,91.55451491,-158.56496667,-46.39780648,-69.04010701,59.39854671
-13.43366870,10.32839748,1.83869079,-0.05036300,-2.61421328

>  <Name>
lig.pdb

>  <RI>
0

>  <Rbt.Current_Directory>
/home/itssahil/PROJECTS/Mol_Feturizer/New_Systems/rnas/4znp

>  <Rbt.Executable>
rbdock ($Id: //depot/dev/client3/rdock/2013.1/src/exe/rbdock.cxx#4 $)

>  <Rbt.Library>
libRbt.so (2013.1, Build901 2013/11/27)

>  <Rbt.Parameter_File>
/export/apps/rDock/src/rDock_2013.1_src/data/scripts/dock_solv.prm

>  <Rbt.Receptor>
prm/pocket_docking_5.prm

>  <SCORE>
-23.8492

>  <SCORE.INTER>
-19.642

>  <SCORE.INTER.CONST>
1

>  <SCORE.INTER.POLAR>
0

>  <SCORE.INTER.ROT>
5

>  <SCORE.INTER.SOLV>
20.3626

>  <SCORE.INTER.VDW>
-26.8155

>  <SCORE.INTER.norm>
-0.892818

>  <SCORE.INTRA>
-4.20724

>  <SCORE.INTRA.DIHEDRAL>
-7.22407

>  <SCORE.INTRA.DIHEDRAL.0>
11.9251

>  <SCORE.INTRA.POLAR>
0

>  <SCORE.INTRA.POLAR.0>
0

>  <SCORE.INTRA.REPUL>
0

>  <SCORE.INTRA.REPUL.0>
0

>  <SCORE.INTRA.SOLV>
2.56798

>  <SCORE.INTRA.SOLV.lig_0>
-40.9823

>  <SCORE.INTRA.VDW>
-1.87919

>  <SCORE.INTRA.VDW.0>
-0.53506

>  <SCORE.INTRA.norm>
-0.191238

>  <SCORE.RESTR>
0

>  <SCORE.RESTR.CAVITY>
0

>  <SCORE.RESTR.norm>
0

>  <SCORE.SYSTEM>
0

>  <SCORE.SYSTEM.CONST>
0

>  <SCORE.SYSTEM.DIHEDRAL>
0

>  <SCORE.SYSTEM.SOLV>
0

>  <SCORE.SYSTEM.norm>
0

>  <SCORE.heavy>
22

>  <SCORE.norm>
-1.08406

>  <RMSD>
1.807

$$$$
lig.pdb
 OpenBabel11021811523D
libRbt.so/2013.1/901 2013/11/27
 22 23  0  0  0  0  0  0  0  0999 V2000
   56.2877  -15.5901    8.5959 O   0  0  0  0  0  0  0  0  0  0  0  0
   56.9626  -16.5919    8.5577 C   0  0  0  0  0  0  0  0  0  0  0  0
   56.4525  -17.7696    8.2437 N   0  0  0  0  0  0  0  0  0  0  0  0
   58.3886  -16.5344    8.9090 C   0  0  0  0  0  0  0  0  0  0  0  0
   59.1253  -15.3105    9.2327 C   0  0  0  0  0  0  0  0  0  0  0  0
   58.6112  -14.0619    9.2366 N   0  0  0  0  0  0  0  0  0  0  0  0
   59.3038  -17.5111    9.0126 N   0  0  0  0  0  0  0  0  0  0  0  0
   60.4879  -16.9548    9.3912 C   0  0  0  0  0  0  0  0  0  0  0  0
   60.3836  -15.6117    9.5330 N   0  0  0  0  0  0  0  0  0  0  0  0
   61.4814  -14.6902    9.9342 C   0  0  1  0  0  0  0  0  0  0  0  0
   61.7369  -13.7003    8.8184 C   0  0  1  0  0  0  0  0  0  0  0  0
   62.0126  -12.4072    9.5410 C   0  0  2  0  0  0  0  0  0  0  0  0
   63.4180  -12.2809    9.7917 O   0  0  0  0  0  0  0  0  0  0  0  0
   62.8432  -14.1159    8.0023 O   0  0  0  0  0  0  0  0  0  0  0  0
   61.0882  -13.9159   11.0645 O   0  0  0  0  0  0  0  0  0  0  0  0
   61.2990  -12.5393   10.8613 C   0  0  2  0  0  0  0  0  0  0  0  0
   59.9331  -11.8902   10.9477 C   0  0  0  0  0  0  0  0  0  0  0  0
   60.0160  -10.4834   10.8477 O   0  0  0  0  0  0  0  0  0  0  0  0
   58.6941   -9.6210   11.0958 P   0  0  0  0  0  0  0  0  0  0  0  0
   59.1483   -8.1769   11.0249 O   0  0  0  0  0  0  0  0  0  0  0  0
   58.2629  -10.0869   12.4625 O   0  0  0  0  0  0  0  0  0  0  0  0
   57.7644  -10.0905   10.0113 O   0  0  0  0  0  0  0  0  0  0  0  0
  2  1  2  0  0  0  0
  2  4  1  0  0  0  0
  3  2  1  0  0  0  0
  4  7  1  0  0  0  0
  4  5  2  0  0  0  0
  5  6  1  0  0  0  0
  5  9  1  0  0  0  0
  7  8  2  0  0  0  0
  8  9  1  0  0  0  0
 10  9  1  6  0  0  0
 10 15  1  0  0  0  0
 11 14  1  1  0  0  0
 11 12  1  0  0  0  0
 11 10  1  0  0  0  0
 12 13  1  1  0  0  0
 12 16  1  0  0  0  0
 16 17  1  6  0  0  0
 16 15  1  0  0  0  0
 18 19  1  0  0  0  0
 18 17  1  0  0  0  0
 19 21  1  0  0  0  0
 20 19  1  0  0  0  0
 22 19  2  0  0  0  0
M  END
>  <CHROM.1>
-4.34265565,-60.94069470,-65.98889683,175.61262782,-172.68539141,59.67097391
-13.28867335,9.88433114,1.67193232,-0.03194971,-2.81692918

>  <Name>
lig.pdb

>  <RI>
0

>  <Rbt.Current_Directory>
/home/itssahil/PROJECTS/Mol_Feturizer/New_Systems/rnas/4znp

>  <Rbt.Executable>
rbdock ($Id: //depot/dev/client3/rdock/2013.1/src/exe/rbdock.cxx#4 $)

>  <Rbt.Library>
libRbt.so (2013.1, Build901 2013/11/27)

>  <Rbt.Parameter_File>
/export/apps/rDock/src/rDock_2013.1_src/data/scripts/dock_solv.prm

>  <Rbt.Receptor>
prm/pocket_docking_3.prm

>  <SCORE>
-22.8194

>  <SCORE.INTER>
-17.1721

>  <SCORE.INTER.CONST>
1

>  <SCORE.INTER.POLAR>
0

>  <SCORE.INTER.ROT>
5

>  <SCORE.INTER.SOLV>
20.9032

>  <SCORE.INTER.VDW>
-25.3491

>  <SCORE.INTER.norm>
-0.78055

>  <SCORE.INTRA>
-5.64734

>  <SCORE.INTRA.DIHEDRAL>
-9.05311

>  <SCORE.INTRA.DIHEDRAL.0>
11.9251

>  <SCORE.INTRA.POLAR>
0

>  <SCORE.INTRA.POLAR.0>
0

>  <SCORE.INTRA.REPUL>
0

>  <SCORE.INTRA.REPUL.0>
0

>  <SCORE.INTRA.SOLV>
1.14053

>  <SCORE.INTRA.SOLV.lig_0>
-40.9823

>  <SCORE.INTRA.VDW>
-1.69105

>  <SCORE.INTRA.VDW.0>
-0.53506

>  <SCORE.INTRA.norm>
-0.256697

>  <SCORE.RESTR>
0

>  <SCORE.RESTR.CAVITY>
0

>  <SCORE.RESTR.norm>
0

>  <SCORE.SYSTEM>
0

>  <SCORE.SYSTEM.CONST>
0

>  <SCORE.SYSTEM.DIHEDRAL>
0

>  <SCORE.SYSTEM.SOLV>
0

>  <SCORE.SYSTEM.norm>
0

>  <SCORE.heavy>
22

>  <SCORE.norm>
-1.03725

>  <RMSD>
1.816

$$$$
lig.pdb
 OpenBabel11021811523D
libRbt.so/2013.1/901 2013/11/27
 22 23  0  0  0  0  0  0  0  0999 V2000
   55.8324  -17.1661    7.8441 O   0  0  0  0  0  0  0  0  0  0  0  0
   56.9908  -17.1711    8.1884 C   0  0  0  0  0  0  0  0  0  0  0  0
   57.7373  -18.2593    8.1230 N   0  0  0  0  0  0  0  0  0  0  0  0
   57.6011  -15.9537    8.7413 C   0  0  0  0  0  0  0  0  0  0  0  0
   58.9106  -15.8926    9.3944 C   0  0  0  0  0  0  0  0  0  0  0  0
   59.7354  -16.9416    9.6008 N   0  0  0  0  0  0  0  0  0  0  0  0
   57.1479  -14.6907    8.7851 N   0  0  0  0  0  0  0  0  0  0  0  0
   58.0938  -13.9132    9.3814 C   0  0  0  0  0  0  0  0  0  0  0  0
   59.1753  -14.6406    9.7503 N   0  0  0  0  0  0  0  0  0  0  0  0
   60.3913  -14.1120   10.4266 C   0  0  1  0  0  0  0  0  0  0  0  0
   61.5353  -14.0680    9.4369 C   0  0  1  0  0  0  0  0  0  0  0  0
   62.2572  -12.7902    9.7784 C   0  0  2  0  0  0  0  0  0  0  0  0
   63.2820  -13.0547   10.7447 O   0  0  0  0  0  0  0  0  0  0  0  0
   62.3782  -15.2231    9.5698 O   0  0  0  0  0  0  0  0  0  0  0  0
   60.1791  -12.7653   10.8427 O   0  0  0  0  0  0  0  0  0  0  0  0
   61.2123  -11.9109   10.4146 C   0  0  2  0  0  0  0  0  0  0  0  0
   60.5600  -10.8886    9.5069 C   0  0  0  0  0  0  0  0  0  0  0  0
   61.4910   -9.9328    9.0424 O   0  0  0  0  0  0  0  0  0  0  0  0
   60.9738   -8.7693    8.0774 P   0  0  0  0  0  0  0  0  0  0  0  0
   60.3411   -9.4865    6.9018 O   0  0  0  0  0  0  0  0  0  0  0  0
   62.2478   -8.0291    7.7615 O   0  0  0  0  0  0  0  0  0  0  0  0
   60.0518   -7.9720    8.9578 O   0  0  0  0  0  0  0  0  0  0  0  0
  2  1  2  0  0  0  0
  2  4  1  0  0  0  0
  3  2  1  0  0  0  0
  4  7  1  0  0  0  0
  4  5  2  0  0  0  0
  5  6  1  0  0  0  0
  5  9  1  0  0  0  0
  7  8  2  0  0  0  0
  8  9  1  0  0  0  0
 10  9  1  6  0  0  0
 10 15  1  0  0  0  0
 11 14  1  1  0  0  0
 11 12  1  0  0  0  0
 11 10  1  0  0  0  0
 12 13  1  1  0  0  0
 12 16  1  0  0  0  0
 16 17  1  6  0  0  0
 16 15  1  0  0  0  0
 18 19  1  0  0  0  0
 18 17  1  0  0  0  0
 19 21  1  0  0  0  0
 20 19  1  0  0  0  0
 22 19  2  0  0  0  0
M  END
>  <CHROM.1>
169.23757353,74.17490977,-64.18044598,-56.84275242,-179.60787200,60.03440899
-12.97767662,9.08014109,2.04601750,0.44759874,2.88958042

>  <Name>
lig.pdb

>  <RI>
0

>  <Rbt.Current_Directory>
/home/itssahil/PROJECTS/Mol_Feturizer/New_Systems/rnas/4znp

>  <Rbt.Executable>
rbdock ($Id: //depot/dev/client3/rdock/2013.1/src/exe/rbdock.cxx#4 $)

>  <Rbt.Library>
libRbt.so (2013.1, Build901 2013/11/27)

>  <Rbt.Parameter_File>
/export/apps/rDock/src/rDock_2013.1_src/data/scripts/dock_solv.prm

>  <Rbt.Receptor>
prm/pocket_docking_5.prm

>  <SCORE>
-28.0207

>  <SCORE.INTER>
-22.3926

>  <SCORE.INTER.CONST>
1

>  <SCORE.INTER.POLAR>
0

>  <SCORE.INTER.ROT>
5

>  <SCORE.INTER.SOLV>
22.6731

>  <SCORE.INTER.VDW>
-29.4194

>  <SCORE.INTER.norm>
-1.01784

>  <SCORE.INTRA>
-5.6281

>  <SCORE.INTRA.DIHEDRAL>
-9.11343

>  <SCORE.INTRA.DIHEDRAL.0>
11.9251

>  <SCORE.INTRA.POLAR>
0

>  <SCORE.INTRA.POLAR.0>
0

>  <SCORE.INTRA.REPUL>
0

>  <SCORE.INTRA.REPUL.0>
0

>  <SCORE.INTRA.SOLV>
0.566458

>  <SCORE.INTRA.SOLV.lig_0>
-40.9823

>  <SCORE.INTRA.VDW>
-1.35462

>  <SCORE.INTRA.VDW.0>
-0.53506

>  <SCORE.INTRA.norm>
-0.255823

>  <SCORE.RESTR>
0

>  <SCORE.RESTR.CAVITY>
0

>  <SCORE.RESTR.norm>
0

>  <SCORE.SYSTEM>
0

>  <SCORE.SYSTEM.CONST>
0

>  <SCORE.SYSTEM.DIHEDRAL>
0

>  <SCORE.SYSTEM.SOLV>
0

>  <SCORE.SYSTEM.norm>
0

>  <SCORE.heavy>
22

>  <SCORE.norm>
-1.27367

>  <RMSD>
1.840

$$$$
lig.pdb
 OpenBabel11021811523D
libRbt.so/2013.1/901 2013/11/27
 22 23  0  0  0  0  0  0  0  0999 V2000
   56.1167  -16.9640    7.9948 O   0  0  0  0  0  0  0  0  0  0  0  0
   57.2627  -16.9455    8.3780 C   0  0  0  0  0  0  0  0  0  0  0  0
   58.0171  -18.0301    8.3863 N   0  0  0  0  0  0  0  0  0  0  0  0
   57.8467  -15.7005    8.8967 C   0  0  0  0  0  0  0  0  0  0  0  0
   59.1702  -15.5868    9.5139 C   0  0  0  0  0  0  0  0  0  0  0  0
   60.0341  -16.6052    9.7136 N   0  0  0  0  0  0  0  0  0  0  0  0
   57.3536  -14.4523    8.9342 N   0  0  0  0  0  0  0  0  0  0  0  0
   58.2886  -13.6354    9.4938 C   0  0  0  0  0  0  0  0  0  0  0  0
   59.4027  -14.3215    9.8444 N   0  0  0  0  0  0  0  0  0  0  0  0
   60.6179  -13.7433   10.4805 C   0  0  1  0  0  0  0  0  0  0  0  0
   61.7376  -13.6900    9.4639 C   0  0  1  0  0  0  0  0  0  0  0  0
   62.4301  -12.3849    9.7597 C   0  0  2  0  0  0  0  0  0  0  0  0
   63.4835  -12.5979   10.7079 O   0  0  0  0  0  0  0  0  0  0  0  0
   62.6161  -14.8176    9.6032 O   0  0  0  0  0  0  0  0  0  0  0  0
   60.3765  -12.3939   10.8709 O   0  0  0  0  0  0  0  0  0  0  0  0
   61.3749  -11.5208   10.4000 C   0  0  2  0  0  0  0  0  0  0  0  0
   60.6733  -10.5387    9.4847 C   0  0  0  0  0  0  0  0  0  0  0  0
   61.5680   -9.5747    8.9687 O   0  0  0  0  0  0  0  0  0  0  0  0
   61.0080   -8.4843    7.9440 P   0  0  0  0  0  0  0  0  0  0  0  0
   62.2225   -7.6822    7.5217 O   0  0  0  0  0  0  0  0  0  0  0  0
   60.0123   -7.7346    8.7909 O   0  0  0  0  0  0  0  0  0  0  0  0
   60.3444   -9.3152    6.8809 O   0  0  0  0  0  0  0  0  0  0  0  0
  2  1  2  0  0  0  0
  2  4  1  0  0  0  0
  3  2  1  0  0  0  0
  4  7  1  0  0  0  0
  4  5  2  0  0  0  0
  5  6  1  0  0  0  0
  5  9  1  0  0  0  0
  7  8  2  0  0  0  0
  8  9  1  0  0  0  0
 10  9  1  6  0  0  0
 10 15  1  0  0  0  0
 11 14  1  1  0  0  0
 11 12  1  0  0  0  0
 11 10  1  0  0  0  0
 12 13  1  1  0  0  0
 12 16  1  0  0  0  0
 16 17  1  6  0  0  0
 16 15  1  0  0  0  0
 18 19  1  0  0  0  0
 18 17  1  0  0  0  0
 19 21  1  0  0  0  0
 20 19  1  0  0  0  0
 22 19  2  0  0  0  0
M  END
>  <CHROM.1>
173.36281510,73.62323559,-63.68846765,-176.26757477,178.03822674,60.19683378
-12.66457249,9.10037084,2.01275978,0.43972995,2.87302103

>  <Name>
lig.pdb

>  <RI>
0

>  <Rbt.Current_Directory>
/home/itssahil/PROJECTS/Mol_Feturizer/New_Systems/rnas/4znp

>  <Rbt.Executable>
rbdock ($Id: //depot/dev/client3/rdock/2013.1/src/exe/rbdock.cxx#4 $)

>  <Rbt.Library>
libRbt.so (2013.1, Build901 2013/11/27)

>  <Rbt.Parameter_File>
/export/apps/rDock/src/rDock_2013.1_src/data/scripts/dock_solv.prm

>  <Rbt.Receptor>
prm/pocket_docking_4.prm

>  <SCORE>
-26.6253

>  <SCORE.INTER>
-21.1371

>  <SCORE.INTER.CONST>
1

>  <SCORE.INTER.POLAR>
0

>  <SCORE.INTER.ROT>
5

>  <SCORE.INTER.SOLV>
22.8224

>  <SCORE.INTER.VDW>
-28.6322

>  <SCORE.INTER.norm>
-0.960776

>  <SCORE.INTRA>
-5.50733

>  <SCORE.INTRA.DIHEDRAL>
-9.3179

>  <SCORE.INTRA.DIHEDRAL.0>
11.9251

>  <SCORE.INTRA.POLAR>
0

>  <SCORE.INTRA.POLAR.0>
0

>  <SCORE.INTRA.REPUL>
0

>  <SCORE.INTRA.REPUL.0>
0

>  <SCORE.INTRA.SOLV>
0.620905

>  <SCORE.INTRA.SOLV.lig_0>
-40.9823

>  <SCORE.INTRA.VDW>
-1.15884

>  <SCORE.INTRA.VDW.0>
-0.53506

>  <SCORE.INTRA.norm>
-0.250333

>  <SCORE.RESTR>
0.0191429

>  <SCORE.RESTR.CAVITY>
0.0191429

>  <SCORE.RESTR.norm>
0.000870131

>  <SCORE.SYSTEM>
0

>  <SCORE.SYSTEM.CONST>
0

>  <SCORE.SYSTEM.DIHEDRAL>
0

>  <SCORE.SYSTEM.SOLV>
0

>  <SCORE.SYSTEM.norm>
0

>  <SCORE.heavy>
22

>  <SCORE.norm>
-1.21024

>  <RMSD>
1.854

$$$$
lig.pdb
 OpenBabel11021811523D
libRbt.so/2013.1/901 2013/11/27
 22 23  0  0  0  0  0  0  0  0999 V2000
   55.7526  -17.1695    7.9183 O   0  0  0  0  0  0  0  0  0  0  0  0
   56.9286  -17.2126    8.1935 C   0  0  0  0  0  0  0  0  0  0  0  0
   57.6367  -18.3216    8.0736 N   0  0  0  0  0  0  0  0  0  0  0  0
   57.6067  -16.0202    8.7212 C   0  0  0  0  0  0  0  0  0  0  0  0
   58.9687  -15.9975    9.2595 C   0  0  0  0  0  0  0  0  0  0  0  0
   59.7887  -17.0649    9.3675 N   0  0  0  0  0  0  0  0  0  0  0  0
   57.1824  -14.7515    8.8354 N   0  0  0  0  0  0  0  0  0  0  0  0
   58.1905  -14.0054    9.3663 C   0  0  0  0  0  0  0  0  0  0  0  0
   59.2862  -14.7597    9.6219 N   0  0  0  0  0  0  0  0  0  0  0  0
   60.5656  -14.2689   10.2029 C   0  0  1  0  0  0  0  0  0  0  0  0
   61.2296  -13.3241    9.2248 C   0  0  1  0  0  0  0  0  0  0  0  0
   61.8120  -12.2476   10.1036 C   0  0  2  0  0  0  0  0  0  0  0  0
   63.1534  -12.5935   10.4712 O   0  0  0  0  0  0  0  0  0  0  0  0
   62.2338  -14.0012    8.4531 O   0  0  0  0  0  0  0  0  0  0  0  0
   60.3129  -13.5039   11.3788 O   0  0  0  0  0  0  0  0  0  0  0  0
   60.9573  -12.2532   11.3443 C   0  0  2  0  0  0  0  0  0  0  0  0
   59.8564  -11.2142   11.3990 C   0  0  0  0  0  0  0  0  0  0  0  0
   59.1017  -11.3148   12.5891 O   0  0  0  0  0  0  0  0  0  0  0  0
   57.8729  -10.3159   12.8008 P   0  0  0  0  0  0  0  0  0  0  0  0
   56.9446  -10.5825   11.6329 O   0  0  0  0  0  0  0  0  0  0  0  0
   58.5508   -8.9702   12.7814 O   0  0  0  0  0  0  0  0  0  0  0  0
   57.3611  -10.6794   14.1670 O   0  0  0  0  0  0  0  0  0  0  0  0
  2  1  2  0  0  0  0
  2  4  1  0  0  0  0
  3  2  1  0  0  0  0
  4  7  1  0  0  0  0
  4  5  2  0  0  0  0
  5  6  1  0  0  0  0
  5  9  1  0  0  0  0
  7  8  2  0  0  0  0
  8  9  1  0  0  0  0
 10  9  1  6  0  0  0
 10 15  1  0  0  0  0
 11 14  1  1  0  0  0
 11 12  1  0  0  0  0
 11 10  1  0  0  0  0
 12 13  1  1  0  0  0
 12 16  1  0  0  0  0
 16 17  1  6  0  0  0
 16 15  1  0  0  0  0
 18 19  1  0  0  0  0
 18 17  1  0  0  0  0
 19 21  1  0  0  0  0
 20 19  1  0  0  0  0
 22 19  2  0  0  0  0
M  END
>  <CHROM.1>
171.18101203,114.34543028,179.11287624,59.30055830,-178.58209170,59.08829331
-13.38376221,10.47367682,1.66084674,-0.14414107,-2.54537713

>  <Name>
lig.pdb

>  <RI>
0

>  <Rbt.Current_Directory>
/home/itssahil/PROJECTS/Mol_Feturizer/New_Systems/rnas/4znp

>  <Rbt.Executable>
rbdock ($Id: //depot/dev/client3/rdock/2013.1/src/exe/rbdock.cxx#4 $)

>  <Rbt.Library>
libRbt.so (2013.1, Build901 2013/11/27)

>  <Rbt.Parameter_File>
/export/apps/rDock/src/rDock_2013.1_src/data/scripts/dock_solv.prm

>  <Rbt.Receptor>
prm/pocket_docking_4.prm

>  <SCORE>
-25.5449

>  <SCORE.INTER>
-19.414

>  <SCORE.INTER.CONST>
1

>  <SCORE.INTER.POLAR>
0

>  <SCORE.INTER.ROT>
5

>  <SCORE.INTER.SOLV>
20.1178

>  <SCORE.INTER.VDW>
-26.582

>  <SCORE.INTER.norm>
-0.882456

>  <SCORE.INTRA>
-6.13083

>  <SCORE.INTRA.DIHEDRAL>
-9.29552

>  <SCORE.INTRA.DIHEDRAL.0>
11.9251

>  <SCORE.INTRA.POLAR>
0

>  <SCORE.INTRA.POLAR.0>
0

>  <SCORE.INTRA.REPUL>
0

>  <SCORE.INTRA.REPUL.0>
0

>  <SCORE.INTRA.SOLV>
-0.107985

>  <SCORE.INTRA.SOLV.lig_0>
-40.9823

>  <SCORE.INTRA.VDW>
-1.42907

>  <SCORE.INTRA.VDW.0>
-0.53506

>  <SCORE.INTRA.norm>
-0.278674

>  <SCORE.RESTR>
0

>  <SCORE.RESTR.CAVITY>
0

>  <SCORE.RESTR.norm>
0

>  <SCORE.SYSTEM>
0

>  <SCORE.SYSTEM.CONST>
0

>  <SCORE.SYSTEM.DIHEDRAL>
0

>  <SCORE.SYSTEM.SOLV>
0

>  <SCORE.SYSTEM.norm>
0

>  <SCORE.heavy>
22

>  <SCORE.norm>
-1.16113

>  <RMSD>
1.854

$$$$
lig.pdb
 OpenBabel11021811523D
libRbt.so/2013.1/901 2013/11/27
 22 23  0  0  0  0  0  0  0  0999 V2000
   56.0806  -16.7805    8.0860 O   0  0  0  0  0  0  0  0  0  0  0  0
   57.2260  -16.7559    8.4704 C   0  0  0  0  0  0  0  0  0  0  0  0
   57.9590  -17.8514    8.5616 N   0  0  0  0  0  0  0  0  0  0  0  0
   57.8336  -15.4874    8.8971 C   0  0  0  0  0  0  0  0  0  0  0  0
   59.1503  -15.3559    9.5251 C   0  0  0  0  0  0  0  0  0  0  0  0
   59.9852  -16.3752    9.8204 N   0  0  0  0  0  0  0  0  0  0  0  0
   57.3716  -14.2288    8.8259 N   0  0  0  0  0  0  0  0  0  0  0  0
   58.3185  -13.3920    9.3335 C   0  0  0  0  0  0  0  0  0  0  0  0
   59.4097  -14.0740    9.7567 N   0  0  0  0  0  0  0  0  0  0  0  0
   60.6295  -13.4755   10.3644 C   0  0  1  0  0  0  0  0  0  0  0  0
   61.8163  -13.7326    9.4613 C   0  0  1  0  0  0  0  0  0  0  0  0
   62.6125  -12.4559    9.5417 C   0  0  2  0  0  0  0  0  0  0  0  0
   63.5720  -12.5478   10.6024 O   0  0  0  0  0  0  0  0  0  0  0  0
   62.5671  -14.8729    9.9066 O   0  0  0  0  0  0  0  0  0  0  0  0
   60.4967  -12.0587   10.4458 O   0  0  0  0  0  0  0  0  0  0  0  0
   61.6066  -11.3913    9.8949 C   0  0  2  0  0  0  0  0  0  0  0  0
   61.0702  -10.5726    8.7388 C   0  0  0  0  0  0  0  0  0  0  0  0
   60.4535   -9.3819    9.1837 O   0  0  0  0  0  0  0  0  0  0  0  0
   60.4733   -8.1062    8.2221 P   0  0  0  0  0  0  0  0  0  0  0  0
   61.7956   -7.4218    8.5051 O   0  0  0  0  0  0  0  0  0  0  0  0
   59.2532   -7.3473    8.6761 O   0  0  0  0  0  0  0  0  0  0  0  0
   60.3005   -8.7012    6.8520 O   0  0  0  0  0  0  0  0  0  0  0  0
  2  1  2  0  0  0  0
  2  4  1  0  0  0  0
  3  2  1  0  0  0  0
  4  7  1  0  0  0  0
  4  5  2  0  0  0  0
  5  6  1  0  0  0  0
  5  9  1  0  0  0  0
  7  8  2  0  0  0  0
  8  9  1  0  0  0  0
 10  9  1  6  0  0  0
 10 15  1  0  0  0  0
 11 14  1  1  0  0  0
 11 12  1  0  0  0  0
 11 10  1  0  0  0  0
 12 13  1  1  0  0  0
 12 16  1  0  0  0  0
 16 17  1  6  0  0  0
 16 15  1  0  0  0  0
 18 19  1  0  0  0  0
 18 17  1  0  0  0  0
 19 21  1  0  0  0  0
 20 19  1  0  0  0  0
 22 19  2  0  0  0  0
M  END
>  <CHROM.1>
172.47342446,64.44397842,-163.03424423,-85.58523439,150.42945533,60.07097203
-12.45401486,9.10721408,1.91689175,0.36285198,2.95329129

>  <Name>
lig.pdb

>  <RI>
0

>  <Rbt.Current_Directory>
/home/itssahil/PROJECTS/Mol_Feturizer/New_Systems/rnas/4znp

>  <Rbt.Executable>
rbdock ($Id: //depot/dev/client3/rdock/2013.1/src/exe/rbdock.cxx#4 $)

>  <Rbt.Library>
libRbt.so (2013.1, Build901 2013/11/27)

>  <Rbt.Parameter_File>
/export/apps/rDock/src/rDock_2013.1_src/data/scripts/dock_solv.prm

>  <Rbt.Receptor>
prm/pocket_docking_4.prm

>  <SCORE>
-22.0155

>  <SCORE.INTER>
-19.429

>  <SCORE.INTER.CONST>
1

>  <SCORE.INTER.POLAR>
0

>  <SCORE.INTER.ROT>
5

>  <SCORE.INTER.SOLV>
22.2002

>  <SCORE.INTER.VDW>
-27.2861

>  <SCORE.INTER.norm>
-0.883137

>  <SCORE.INTRA>
-2.58841

>  <SCORE.INTRA.DIHEDRAL>
-4.0156

>  <SCORE.INTRA.DIHEDRAL.0>
11.9251

>  <SCORE.INTRA.POLAR>
0

>  <SCORE.INTRA.POLAR.0>
0

>  <SCORE.INTRA.REPUL>
0

>  <SCORE.INTRA.REPUL.0>
0

>  <SCORE.INTRA.SOLV>
0.62614

>  <SCORE.INTRA.SOLV.lig_0>
-40.9823

>  <SCORE.INTRA.VDW>
-0.893683

>  <SCORE.INTRA.VDW.0>
-0.53506

>  <SCORE.INTRA.norm>
-0.117655

>  <SCORE.RESTR>
0.00188606

>  <SCORE.RESTR.CAVITY>
0.00188606

>  <SCORE.RESTR.norm>
8.57299e-05

>  <SCORE.SYSTEM>
0

>  <SCORE.SYSTEM.CONST>
0

>  <SCORE.SYSTEM.DIHEDRAL>
0

>  <SCORE.SYSTEM.SOLV>
0

>  <SCORE.SYSTEM.norm>
0

>  <SCORE.heavy>
22

>  <SCORE.norm>
-1.00071

>  <RMSD>
1.860

$$$$
lig.pdb
 OpenBabel11021811523D
libRbt.so/2013.1/901 2013/11/27
 22 23  0  0  0  0  0  0  0  0999 V2000
   57.5583  -18.4239    7.9634 O   0  0  0  0  0  0  0  0  0  0  0  0
   56.9008  -17.4113    8.0140 C   0  0  0  0  0  0  0  0  0  0  0  0
   55.6795  -17.3423    7.5145 N   0  0  0  0  0  0  0  0  0  0  0  0
   57.4692  -16.1917    8.6054 C   0  0  0  0  0  0  0  0  0  0  0  0
   58.7341  -16.1255    9.3409 C   0  0  0  0  0  0  0  0  0  0  0  0
   59.5485  -17.1712    9.5990 N   0  0  0  0  0  0  0  0  0  0  0  0
   57.0088  -14.9307    8.6209 N   0  0  0  0  0  0  0  0  0  0  0  0
   57.9112  -14.1496    9.2768 C   0  0  0  0  0  0  0  0  0  0  0  0
   58.9701  -14.8727    9.7137 N   0  0  0  0  0  0  0  0  0  0  0  0
   60.1381  -14.3394   10.4665 C   0  0  1  0  0  0  0  0  0  0  0  0
   60.8491  -13.3055    9.6206 C   0  0  1  0  0  0  0  0  0  0  0  0
   61.2536  -12.2457   10.6124 C   0  0  2  0  0  0  0  0  0  0  0  0
   62.5623  -12.5313   11.1219 O   0  0  0  0  0  0  0  0  0  0  0  0
   61.9787  -13.8793    8.9443 O   0  0  0  0  0  0  0  0  0  0  0  0
   59.7003  -13.6555   11.6380 O   0  0  0  0  0  0  0  0  0  0  0  0
   60.2617  -12.3690   11.7398 C   0  0  2  0  0  0  0  0  0  0  0  0
   59.0968  -11.4013   11.7104 C   0  0  0  0  0  0  0  0  0  0  0  0
   59.3885  -10.2110   12.4134 O   0  0  0  0  0  0  0  0  0  0  0  0
   59.3701  -10.2435   14.0107 P   0  0  0  0  0  0  0  0  0  0  0  0
   60.4282  -11.2582   14.3949 O   0  0  0  0  0  0  0  0  0  0  0  0
   57.9518  -10.6603   14.3034 O   0  0  0  0  0  0  0  0  0  0  0  0
   59.6364   -8.8133   14.3904 O   0  0  0  0  0  0  0  0  0  0  0  0
  2  1  2  0  0  0  0
  2  4  1  0  0  0  0
  3  2  1  0  0  0  0
  4  7  1  0  0  0  0
  4  5  2  0  0  0  0
  5  6  1  0  0  0  0
  5  9  1  0  0  0  0
  7  8  2  0  0  0  0
  8  9  1  0  0  0  0
 10  9  1  6  0  0  0
 10 15  1  0  0  0  0
 11 14  1  1  0  0  0
 11 12  1  0  0  0  0
 11 10  1  0  0  0  0
 12 13  1  1  0  0  0
 12 16  1  0  0  0  0
 16 17  1  6  0  0  0
 16 15  1  0  0  0  0
 18 19  1  0  0  0  0
 18 17  1  0  0  0  0
 19 21  1  0  0  0  0
 20 19  1  0  0  0  0
 22 19  2  0  0  0  0
M  END
>  <CHROM.1>
-9.55762532,119.61586298,-90.34512533,60.51837716,-75.79120996,59.25638331
-13.42056174,10.91166684,1.81476510,-0.16489286,-2.41930923

>  <Name>
lig.pdb

>  <RI>
0

>  <Rbt.Current_Directory>
/home/itssahil/PROJECTS/Mol_Feturizer/New_Systems/rnas/4znp

>  <Rbt.Executable>
rbdock ($Id: //depot/dev/client3/rdock/2013.1/src/exe/rbdock.cxx#4 $)

>  <Rbt.Library>
libRbt.so (2013.1, Build901 2013/11/27)

>  <Rbt.Parameter_File>
/export/apps/rDock/src/rDock_2013.1_src/data/scripts/dock_solv.prm

>  <Rbt.Receptor>
prm/pocket_docking_6.prm

>  <SCORE>
-23.2672

>  <SCORE.INTER>
-19.3064

>  <SCORE.INTER.CONST>
1

>  <SCORE.INTER.POLAR>
0

>  <SCORE.INTER.ROT>
5

>  <SCORE.INTER.SOLV>
20.7162

>  <SCORE.INTER.VDW>
-26.7096

>  <SCORE.INTER.norm>
-0.877561

>  <SCORE.INTRA>
-3.96088

>  <SCORE.INTRA.DIHEDRAL>
-5.40279

>  <SCORE.INTRA.DIHEDRAL.0>
11.9251

>  <SCORE.INTRA.POLAR>
0

>  <SCORE.INTRA.POLAR.0>
0

>  <SCORE.INTRA.REPUL>
0

>  <SCORE.INTRA.REPUL.0>
0

>  <SCORE.INTRA.SOLV>
0.238764

>  <SCORE.INTRA.SOLV.lig_0>
-40.9823

>  <SCORE.INTRA.VDW>
-1.37887

>  <SCORE.INTRA.VDW.0>
-0.53506

>  <SCORE.INTRA.norm>
-0.18004

>  <SCORE.RESTR>
0

>  <SCORE.RESTR.CAVITY>
0

>  <SCORE.RESTR.norm>
0

>  <SCORE.SYSTEM>
0

>  <SCORE.SYSTEM.CONST>
0

>  <SCORE.SYSTEM.DIHEDRAL>
0

>  <SCORE.SYSTEM.SOLV>
0

>  <SCORE.SYSTEM.norm>
0

>  <SCORE.heavy>
22

>  <SCORE.norm>
-1.0576

>  <RMSD>
1.892

$$$$
lig.pdb
 OpenBabel11021811523D
libRbt.so/2013.1/901 2013/11/27
 22 23  0  0  0  0  0  0  0  0999 V2000
   57.5964  -18.1657    8.3004 O   0  0  0  0  0  0  0  0  0  0  0  0
   57.0234  -17.1093    8.4268 C   0  0  0  0  0  0  0  0  0  0  0  0
   55.7339  -16.9759    8.1714 N   0  0  0  0  0  0  0  0  0  0  0  0
   57.7690  -15.9099    8.8339 C   0  0  0  0  0  0  0  0  0  0  0  0
   59.1826  -15.8894    9.2170 C   0  0  0  0  0  0  0  0  0  0  0  0
   59.9977  -16.9646    9.2711 N   0  0  0  0  0  0  0  0  0  0  0  0
   57.3741  -14.6320    8.9497 N   0  0  0  0  0  0  0  0  0  0  0  0
   58.4431  -13.8835    9.3392 C   0  0  0  0  0  0  0  0  0  0  0  0
   59.5520  -14.6449    9.4983 N   0  0  0  0  0  0  0  0  0  0  0  0
   60.8934  -14.1538    9.9165 C   0  0  1  0  0  0  0  0  0  0  0  0
   61.3100  -13.0095    9.0180 C   0  0  1  0  0  0  0  0  0  0  0  0
   61.9965  -12.0489    9.9541 C   0  0  2  0  0  0  0  0  0  0  0  0
   63.3989  -12.3400   10.0061 O   0  0  0  0  0  0  0  0  0  0  0  0
   62.1795  -13.4656    7.9700 O   0  0  0  0  0  0  0  0  0  0  0  0
   60.8337  -13.6166   11.2355 O   0  0  0  0  0  0  0  0  0  0  0  0
   61.3972  -12.3290   11.3077 C   0  0  2  0  0  0  0  0  0  0  0  0
   60.2774  -11.4068   11.7437 C   0  0  0  0  0  0  0  0  0  0  0  0
   59.7463  -11.7859   12.9967 O   0  0  0  0  0  0  0  0  0  0  0  0
   58.6226  -10.8641   13.6603 P   0  0  0  0  0  0  0  0  0  0  0  0
   59.3181   -9.5513   13.9596 O   0  0  0  0  0  0  0  0  0  0  0  0
   58.2286  -11.6672   14.8729 O   0  0  0  0  0  0  0  0  0  0  0  0
   57.5394  -10.8322   12.6181 O   0  0  0  0  0  0  0  0  0  0  0  0
  2  1  2  0  0  0  0
  2  4  1  0  0  0  0
  3  2  1  0  0  0  0
  4  7  1  0  0  0  0
  4  5  2  0  0  0  0
  5  6  1  0  0  0  0
  5  9  1  0  0  0  0
  7  8  2  0  0  0  0
  8  9  1  0  0  0  0
 10  9  1  6  0  0  0
 10 15  1  0  0  0  0
 11 14  1  6  0  0  0
 11 12  1  0  0  0  0
 11 10  1  0  0  0  0
 12 13  1  1  0  0  0
 12 16  1  0  0  0  0
 16 17  1  6  0  0  0
 16 15  1  0  0  0  0
 18 19  1  0  0  0  0
 18 17  1  0  0  0  0
 19 21  1  0  0  0  0
 20 19  1  0  0  0  0
 22 19  2  0  0  0  0
M  END
>  <CHROM.1>
-5.11840880,127.82660483,177.49029827,-65.36689769,175.84228100,59.45502622
-13.46023928,10.67624966,1.75549444,-0.36063614,-2.37566384

>  <Name>
lig.pdb

>  <RI>
0

>  <Rbt.Current_Directory>
/home/itssahil/PROJECTS/Mol_Feturizer/New_Systems/rnas/4znp

>  <Rbt.Executable>
rbdock ($Id: //depot/dev/client3/rdock/2013.1/src/exe/rbdock.cxx#4 $)

>  <Rbt.Library>
libRbt.so (2013.1, Build901 2013/11/27)

>  <Rbt.Parameter_File>
/export/apps/rDock/src/rDock_2013.1_src/data/scripts/dock_solv.prm

>  <Rbt.Receptor>
prm/pocket_docking_8.prm

>  <SCORE>
-25.5676

>  <SCORE.INTER>
-19.5161

>  <SCORE.INTER.CONST>
1

>  <SCORE.INTER.POLAR>
0

>  <SCORE.INTER.ROT>
5

>  <SCORE.INTER.SOLV>
20.7169

>  <SCORE.INTER.VDW>
-26.8497

>  <SCORE.INTER.norm>
-0.887094

>  <SCORE.INTRA>
-6.05155

>  <SCORE.INTRA.DIHEDRAL>
-9.29218

>  <SCORE.INTRA.DIHEDRAL.0>
11.9251

>  <SCORE.INTRA.POLAR>
0

>  <SCORE.INTRA.POLAR.0>
0

>  <SCORE.INTRA.REPUL>
0

>  <SCORE.INTRA.REPUL.0>
0

>  <SCORE.INTRA.SOLV>
-0.178938

>  <SCORE.INTRA.SOLV.lig_0>
-40.9823

>  <SCORE.INTRA.VDW>
-1.31599

>  <SCORE.INTRA.VDW.0>
-0.53506

>  <SCORE.INTRA.norm>
-0.27507

>  <SCORE.RESTR>
0

>  <SCORE.RESTR.CAVITY>
0

>  <SCORE.RESTR.norm>
0

>  <SCORE.SYSTEM>
0

>  <SCORE.SYSTEM.CONST>
0

>  <SCORE.SYSTEM.DIHEDRAL>
0

>  <SCORE.SYSTEM.SOLV>
0

>  <SCORE.SYSTEM.norm>
0

>  <SCORE.heavy>
22

>  <SCORE.norm>
-1.16216

>  <RMSD>
1.892

$$$$
lig.pdb
 OpenBabel11021811523D
libRbt.so/2013.1/901 2013/11/27
 22 23  0  0  0  0  0  0  0  0999 V2000
   56.3079  -15.6015    8.5689 O   0  0  0  0  0  0  0  0  0  0  0  0
   56.9940  -16.5963    8.5760 C   0  0  0  0  0  0  0  0  0  0  0  0
   56.4976  -17.7926    8.3145 N   0  0  0  0  0  0  0  0  0  0  0  0
   58.4188  -16.5070    8.9256 C   0  0  0  0  0  0  0  0  0  0  0  0
   59.1274  -15.2676    9.2528 C   0  0  0  0  0  0  0  0  0  0  0  0
   58.5845  -14.0312    9.2621 N   0  0  0  0  0  0  0  0  0  0  0  0
   59.3566  -17.4626    9.0243 N   0  0  0  0  0  0  0  0  0  0  0  0
   60.5280  -16.8804    9.4033 C   0  0  0  0  0  0  0  0  0  0  0  0
   60.3928  -15.5406    9.5503 N   0  0  0  0  0  0  0  0  0  0  0  0
   61.4695  -14.5954    9.9535 C   0  0  1  0  0  0  0  0  0  0  0  0
   61.6295  -13.5344    8.8863 C   0  0  1  0  0  0  0  0  0  0  0  0
   61.8859  -12.2727    9.6692 C   0  0  2  0  0  0  0  0  0  0  0  0
   63.2953  -12.0986    9.8621 O   0  0  0  0  0  0  0  0  0  0  0  0
   62.7114  -13.8543    7.9976 O   0  0  0  0  0  0  0  0  0  0  0  0
   61.0995  -13.9036   11.1436 O   0  0  0  0  0  0  0  0  0  0  0  0
   61.2430  -12.5098   11.0110 C   0  0  2  0  0  0  0  0  0  0  0  0
   59.8571  -11.9276   11.1973 C   0  0  0  0  0  0  0  0  0  0  0  0
   59.8905  -10.5181   11.2889 O   0  0  0  0  0  0  0  0  0  0  0  0
   59.3434   -9.6597   10.0575 P   0  0  0  0  0  0  0  0  0  0  0  0
   60.1115  -10.1668    8.8534 O   0  0  0  0  0  0  0  0  0  0  0  0
   59.6766   -8.2518   10.4790 O   0  0  0  0  0  0  0  0  0  0  0  0
   57.8641   -9.9281   10.0769 O   0  0  0  0  0  0  0  0  0  0  0  0
  2  1  2  0  0  0  0
  2  4  1  0  0  0  0
  3  2  1  0  0  0  0
  4  7  1  0  0  0  0
  4  5  2  0  0  0  0
  5  6  1  0  0  0  0
  5  9  1  0  0  0  0
  7  8  2  0  0  0  0
  8  9  1  0  0  0  0
 10  9  1  6  0  0  0
 10 15  1  0  0  0  0
 11 14  1  6  0  0  0
 11 12  1  0  0  0  0
 11 10  1  0  0  0  0
 12 13  1  1  0  0  0
 12 16  1  0  0  0  0
 16 17  1  6  0  0  0
 16 15  1  0  0  0  0
 18 19  1  0  0  0  0
 18 17  1  0  0  0  0
 19 21  1  0  0  0  0
 20 19  1  0  0  0  0
 22 19  2  0  0  0  0
M  END
>  <CHROM.1>
-1.48401319,-56.76400189,-70.98585646,-54.13267295,107.71258999,59.82719378
-13.24618172,9.64862253,1.81858239,0.07134282,-2.95438023

>  <Name>
lig.pdb

>  <RI>
0

>  <Rbt.Current_Directory>
/home/itssahil/PROJECTS/Mol_Feturizer/New_Systems/rnas/4znp

>  <Rbt.Executable>
rbdock ($Id: //depot/dev/client3/rdock/2013.1/src/exe/rbdock.cxx#4 $)

>  <Rbt.Library>
libRbt.so (2013.1, Build901 2013/11/27)

>  <Rbt.Parameter_File>
/export/apps/rDock/src/rDock_2013.1_src/data/scripts/dock_solv.prm

>  <Rbt.Receptor>
prm/pocket_docking_6.prm

>  <SCORE>
-20.1061

>  <SCORE.INTER>
-17.3578

>  <SCORE.INTER.CONST>
1

>  <SCORE.INTER.POLAR>
0

>  <SCORE.INTER.ROT>
5

>  <SCORE.INTER.SOLV>
21.4843

>  <SCORE.INTER.VDW>
-25.6667

>  <SCORE.INTER.norm>
-0.788993

>  <SCORE.INTRA>
-2.74827

>  <SCORE.INTRA.DIHEDRAL>
-2.52992

>  <SCORE.INTRA.DIHEDRAL.0>
11.9251

>  <SCORE.INTRA.POLAR>
0

>  <SCORE.INTRA.POLAR.0>
0

>  <SCORE.INTRA.REPUL>
0

>  <SCORE.INTRA.REPUL.0>
0

>  <SCORE.INTRA.SOLV>
1.85643

>  <SCORE.INTRA.SOLV.lig_0>
-40.9823

>  <SCORE.INTRA.VDW>
-2.41153

>  <SCORE.INTRA.VDW.0>
-0.53506

>  <SCORE.INTRA.norm>
-0.124922

>  <SCORE.RESTR>
0

>  <SCORE.RESTR.CAVITY>
0

>  <SCORE.RESTR.norm>
0

>  <SCORE.SYSTEM>
0

>  <SCORE.SYSTEM.CONST>
0

>  <SCORE.SYSTEM.DIHEDRAL>
0

>  <SCORE.SYSTEM.SOLV>
0

>  <SCORE.SYSTEM.norm>
0

>  <SCORE.heavy>
22

>  <SCORE.norm>
-0.913915

>  <RMSD>
1.895

$$$$
lig.pdb
 OpenBabel11021811523D
libRbt.so/2013.1/901 2013/11/27
 22 23  0  0  0  0  0  0  0  0999 V2000
   57.7786  -18.2095    8.2198 O   0  0  0  0  0  0  0  0  0  0  0  0
   57.1009  -17.2107    8.2792 C   0  0  0  0  0  0  0  0  0  0  0  0
   55.8447  -17.1902    7.8703 N   0  0  0  0  0  0  0  0  0  0  0  0
   57.6802  -15.9550    8.7770 C   0  0  0  0  0  0  0  0  0  0  0  0
   59.0024  -15.8263    9.3939 C   0  0  0  0  0  0  0  0  0  0  0  0
   59.8693  -16.8382    9.6124 N   0  0  0  0  0  0  0  0  0  0  0  0
   57.1829  -14.7080    8.7921 N   0  0  0  0  0  0  0  0  0  0  0  0
   58.1145  -13.8784    9.3387 C   0  0  0  0  0  0  0  0  0  0  0  0
   59.2303  -14.5547    9.7028 N   0  0  0  0  0  0  0  0  0  0  0  0
   60.4427  -13.9615   10.3303 C   0  0  1  0  0  0  0  0  0  0  0  0
   61.5684  -13.9368    9.3192 C   0  0  1  0  0  0  0  0  0  0  0  0
   62.2611  -12.6252    9.5844 C   0  0  2  0  0  0  0  0  0  0  0  0
   63.3087  -12.8145   10.5440 O   0  0  0  0  0  0  0  0  0  0  0  0
   62.4443  -15.0615    9.4934 O   0  0  0  0  0  0  0  0  0  0  0  0
   60.2012  -12.6019   10.6834 O   0  0  0  0  0  0  0  0  0  0  0  0
   61.2036  -11.7430   10.1953 C   0  0  2  0  0  0  0  0  0  0  0  0
   60.5088  -10.7845    9.2503 C   0  0  0  0  0  0  0  0  0  0  0  0
   61.4181   -9.8723    8.6697 O   0  0  0  0  0  0  0  0  0  0  0  0
   60.8446   -8.7222    7.7205 P   0  0  0  0  0  0  0  0  0  0  0  0
   59.7976   -8.0110    8.5540 O   0  0  0  0  0  0  0  0  0  0  0  0
   60.3037   -9.5116    6.5564 O   0  0  0  0  0  0  0  0  0  0  0  0
   62.0694   -7.9302    7.3553 O   0  0  0  0  0  0  0  0  0  0  0  0
  2  1  2  0  0  0  0
  2  4  1  0  0  0  0
  3  2  1  0  0  0  0
  4  7  1  0  0  0  0
  4  5  2  0  0  0  0
  5  6  1  0  0  0  0
  5  9  1  0  0  0  0
  7  8  2  0  0  0  0
  8  9  1  0  0  0  0
 10  9  1  6  0  0  0
 10 15  1  0  0  0  0
 11 14  1  1  0  0  0
 11 12  1  0  0  0  0
 11 10  1  0  0  0  0
 12 13  1  1  0  0  0
 12 16  1  0  0  0  0
 16 17  1  6  0  0  0
 16 15  1  0  0  0  0
 18 19  1  0  0  0  0
 18 17  1  0  0  0  0
 19 21  1  0  0  0  0
 20 19  1  0  0  0  0
 22 19  2  0  0  0  0
M  END
>  <CHROM.1>
-8.58430029,72.98166103,-61.13902888,54.60178772,-175.92052816,60.03708855
-12.90822062,8.92498684,2.01117537,0.44178666,2.85617337

>  <Name>
lig.pdb

>  <RI>
0

>  <Rbt.Current_Directory>
/home/itssahil/PROJECTS/Mol_Feturizer/New_Systems/rnas/4znp

>  <Rbt.Executable>
rbdock ($Id: //depot/dev/client3/rdock/2013.1/src/exe/rbdock.cxx#4 $)

>  <Rbt.Library>
libRbt.so (2013.1, Build901 2013/11/27)

>  <Rbt.Parameter_File>
/export/apps/rDock/src/rDock_2013.1_src/data/scripts/dock_solv.prm

>  <Rbt.Receptor>
prm/pocket_docking_7.prm

>  <SCORE>
-29.2226

>  <SCORE.INTER>
-23.3719

>  <SCORE.INTER.CONST>
1

>  <SCORE.INTER.POLAR>
0

>  <SCORE.INTER.ROT>
5

>  <SCORE.INTER.SOLV>
23.3045

>  <SCORE.INTER.VDW>
-30.2828

>  <SCORE.INTER.norm>
-1.06236

>  <SCORE.INTRA>
-5.85072

>  <SCORE.INTRA.DIHEDRAL>
-9.21094

>  <SCORE.INTRA.DIHEDRAL.0>
11.9251

>  <SCORE.INTRA.POLAR>
0

>  <SCORE.INTRA.POLAR.0>
0

>  <SCORE.INTRA.REPUL>
0

>  <SCORE.INTRA.REPUL.0>
0

>  <SCORE.INTRA.SOLV>
0.112736

>  <SCORE.INTRA.SOLV.lig_0>
-40.9823

>  <SCORE.INTRA.VDW>
-1.30162

>  <SCORE.INTRA.VDW.0>
-0.53506

>  <SCORE.INTRA.norm>
-0.265942

>  <SCORE.RESTR>
0

>  <SCORE.RESTR.CAVITY>
0

>  <SCORE.RESTR.norm>
0

>  <SCORE.SYSTEM>
0

>  <SCORE.SYSTEM.CONST>
0

>  <SCORE.SYSTEM.DIHEDRAL>
0

>  <SCORE.SYSTEM.SOLV>
0

>  <SCORE.SYSTEM.norm>
0

>  <SCORE.heavy>
22

>  <SCORE.norm>
-1.3283

>  <RMSD>
1.905

$$$$
lig.pdb
 OpenBabel11021811523D
libRbt.so/2013.1/901 2013/11/27
 22 23  0  0  0  0  0  0  0  0999 V2000
   56.5408  -17.9514    8.3657 O   0  0  0  0  0  0  0  0  0  0  0  0
   57.0224  -16.8609    8.5639 C   0  0  0  0  0  0  0  0  0  0  0  0
   56.3209  -15.7493    8.4294 N   0  0  0  0  0  0  0  0  0  0  0  0
   58.4418  -16.7361    8.9244 C   0  0  0  0  0  0  0  0  0  0  0  0
   59.1196  -15.4779    9.2450 C   0  0  0  0  0  0  0  0  0  0  0  0
   58.5492  -14.2540    9.2372 N   0  0  0  0  0  0  0  0  0  0  0  0
   59.3999  -17.6693    9.0406 N   0  0  0  0  0  0  0  0  0  0  0  0
   60.5547  -17.0572    9.4234 C   0  0  0  0  0  0  0  0  0  0  0  0
   60.3882  -15.7194    9.5557 N   0  0  0  0  0  0  0  0  0  0  0  0
   61.4401  -14.7462    9.9582 C   0  0  1  0  0  0  0  0  0  0  0  0
   61.7386  -13.8230    8.7969 C   0  0  1  0  0  0  0  0  0  0  0  0
   61.9428  -12.4799    9.4485 C   0  0  2  0  0  0  0  0  0  0  0  0
   63.3280  -12.3017    9.7703 O   0  0  0  0  0  0  0  0  0  0  0  0
   62.8997  -14.2609    8.0740 O   0  0  0  0  0  0  0  0  0  0  0  0
   60.9642  -13.9121   11.0116 O   0  0  0  0  0  0  0  0  0  0  0  0
   61.1562  -12.5462   10.7318 C   0  0  2  0  0  0  0  0  0  0  0  0
   59.7736  -11.9284   10.6977 C   0  0  0  0  0  0  0  0  0  0  0  0
   59.8195  -10.5328   10.9128 O   0  0  0  0  0  0  0  0  0  0  0  0
   60.4887   -9.6093    9.7939 P   0  0  0  0  0  0  0  0  0  0  0  0
   60.1664  -10.2900    8.4787 O   0  0  0  0  0  0  0  0  0  0  0  0
   61.9433   -9.6384   10.1866 O   0  0  0  0  0  0  0  0  0  0  0  0
   59.8586   -8.2648   10.0306 O   0  0  0  0  0  0  0  0  0  0  0  0
  2  1  2  0  0  0  0
  2  4  1  0  0  0  0
  3  2  1  0  0  0  0
  4  7  1  0  0  0  0
  4  5  2  0  0  0  0
  5  6  1  0  0  0  0
  5  9  1  0  0  0  0
  7  8  2  0  0  0  0
  8  9  1  0  0  0  0
 10  9  1  6  0  0  0
 10 15  1  0  0  0  0
 11 14  1  1  0  0  0
 11 12  1  0  0  0  0
 11 10  1  0  0  0  0
 12 13  1  1  0  0  0
 12 16  1  0  0  0  0
 16 17  1  6  0  0  0
 16 15  1  0  0  0  0
 18 19  1  0  0  0  0
 18 17  1  0  0  0  0
 19 21  1  0  0  0  0
 20 19  1  0  0  0  0
 22 19  2  0  0  0  0
M  END
>  <CHROM.1>
-177.14300032,-65.53567644,-83.58257276,33.61731941,67.86001639,60.14951916
-13.37723619,9.51458796,1.94091488,0.07251860,-3.00952771

>  <Name>
lig.pdb

>  <RI>
0

>  <Rbt.Current_Directory>
/home/itssahil/PROJECTS/Mol_Feturizer/New_Systems/rnas/4znp

>  <Rbt.Executable>
rbdock ($Id: //depot/dev/client3/rdock/2013.1/src/exe/rbdock.cxx#4 $)

>  <Rbt.Library>
libRbt.so (2013.1, Build901 2013/11/27)

>  <Rbt.Parameter_File>
/export/apps/rDock/src/rDock_2013.1_src/data/scripts/dock_solv.prm

>  <Rbt.Receptor>
prm/pocket_docking_3.prm

>  <SCORE>
-21.609

>  <SCORE.INTER>
-17.8576

>  <SCORE.INTER.CONST>
1

>  <SCORE.INTER.POLAR>
0

>  <SCORE.INTER.ROT>
5

>  <SCORE.INTER.SOLV>
20.3608

>  <SCORE.INTER.VDW>
-25.6253

>  <SCORE.INTER.norm>
-0.811709

>  <SCORE.INTRA>
-3.75136

>  <SCORE.INTRA.DIHEDRAL>
-6.44809

>  <SCORE.INTRA.DIHEDRAL.0>
11.9251

>  <SCORE.INTRA.POLAR>
0

>  <SCORE.INTRA.POLAR.0>
0

>  <SCORE.INTRA.REPUL>
0

>  <SCORE.INTRA.REPUL.0>
0

>  <SCORE.INTRA.SOLV>
2.72866

>  <SCORE.INTRA.SOLV.lig_0>
-40.9823

>  <SCORE.INTRA.VDW>
-1.89165

>  <SCORE.INTRA.VDW.0>
-0.53506

>  <SCORE.INTRA.norm>
-0.170516

>  <SCORE.RESTR>
0

>  <SCORE.RESTR.CAVITY>
0

>  <SCORE.RESTR.norm>
0

>  <SCORE.SYSTEM>
0

>  <SCORE.SYSTEM.CONST>
0

>  <SCORE.SYSTEM.DIHEDRAL>
0

>  <SCORE.SYSTEM.SOLV>
0

>  <SCORE.SYSTEM.norm>
0

>  <SCORE.heavy>
22

>  <SCORE.norm>
-0.982225

>  <RMSD>
1.909

$$$$
lig.pdb
 OpenBabel11021811523D
libRbt.so/2013.1/901 2013/11/27
 22 23  0  0  0  0  0  0  0  0999 V2000
   57.9535  -18.0172    8.1924 O   0  0  0  0  0  0  0  0  0  0  0  0
   57.2307  -17.0724    8.4054 C   0  0  0  0  0  0  0  0  0  0  0  0
   55.9295  -17.1201    8.1807 N   0  0  0  0  0  0  0  0  0  0  0  0
   57.7967  -15.8049    8.8885 C   0  0  0  0  0  0  0  0  0  0  0  0
   59.1497  -15.6393    9.4245 C   0  0  0  0  0  0  0  0  0  0  0  0
   60.0626  -16.6234    9.5710 N   0  0  0  0  0  0  0  0  0  0  0  0
   57.2591  -14.5766    8.9564 N   0  0  0  0  0  0  0  0  0  0  0  0
   58.1941  -13.7233    9.4588 C   0  0  0  0  0  0  0  0  0  0  0  0
   59.3529  -14.3655    9.7411 N   0  0  0  0  0  0  0  0  0  0  0  0
   60.5811  -13.7398   10.3027 C   0  0  1  0  0  0  0  0  0  0  0  0
   61.7360  -13.9610    9.3500 C   0  0  1  0  0  0  0  0  0  0  0  0
   62.5024  -12.6650    9.4070 C   0  0  2  0  0  0  0  0  0  0  0  0
   63.5066  -12.7389   10.4269 O   0  0  0  0  0  0  0  0  0  0  0  0
   62.5330  -15.0845    9.7562 O   0  0  0  0  0  0  0  0  0  0  0  0
   60.4161  -12.3274   10.3995 O   0  0  0  0  0  0  0  0  0  0  0  0
   61.4852  -11.6286    9.8085 C   0  0  2  0  0  0  0  0  0  0  0  0
   60.8815  -10.8167    8.6812 C   0  0  0  0  0  0  0  0  0  0  0  0
   61.8686  -10.1063    7.9621 O   0  0  0  0  0  0  0  0  0  0  0  0
   62.2623   -8.6378    8.4532 P   0  0  0  0  0  0  0  0  0  0  0  0
   63.3989   -8.2120    7.5457 O   0  0  0  0  0  0  0  0  0  0  0  0
   62.6494   -8.8766    9.8898 O   0  0  0  0  0  0  0  0  0  0  0  0
   60.9743   -7.8723    8.3270 O   0  0  0  0  0  0  0  0  0  0  0  0
  2  1  2  0  0  0  0
  2  4  1  0  0  0  0
  3  2  1  0  0  0  0
  4  7  1  0  0  0  0
  4  5  2  0  0  0  0
  5  6  1  0  0  0  0
  5  9  1  0  0  0  0
  7  8  2  0  0  0  0
  8  9  1  0  0  0  0
 10  9  1  6  0  0  0
 10 15  1  0  0  0  0
 11 14  1  1  0  0  0
 11 12  1  0  0  0  0
 11 10  1  0  0  0  0
 12 13  1  1  0  0  0
 12 16  1  0  0  0  0
 16 17  1  6  0  0  0
 16 15  1  0  0  0  0
 18 19  1  0  0  0  0
 18 17  1  0  0  0  0
 19 21  1  0  0  0  0
 20 19  1  0  0  0  0
 22 19  2  0  0  0  0
M  END
>  <CHROM.1>
-14.05664618,59.30325708,-59.47394576,175.88802316,-89.22209815,60.54603880
-12.80415793,9.09936938,2.13436920,0.31516030,2.92092547

>  <Name>
lig.pdb

>  <RI>
0

>  <Rbt.Current_Directory>
/home/itssahil/PROJECTS/Mol_Feturizer/New_Systems/rnas/4znp

>  <Rbt.Executable>
rbdock ($Id: //depot/dev/client3/rdock/2013.1/src/exe/rbdock.cxx#4 $)

>  <Rbt.Library>
libRbt.so (2013.1, Build901 2013/11/27)

>  <Rbt.Parameter_File>
/export/apps/rDock/src/rDock_2013.1_src/data/scripts/dock_solv.prm

>  <Rbt.Receptor>
prm/pocket_docking_5.prm

>  <SCORE>
-25.3823

>  <SCORE.INTER>
-21.87

>  <SCORE.INTER.CONST>
1

>  <SCORE.INTER.POLAR>
0

>  <SCORE.INTER.ROT>
5

>  <SCORE.INTER.SOLV>
20.6501

>  <SCORE.INTER.VDW>
-28.3967

>  <SCORE.INTER.norm>
-0.99409

>  <SCORE.INTRA>
-3.51229

>  <SCORE.INTRA.DIHEDRAL>
-5.45382

>  <SCORE.INTRA.DIHEDRAL.0>
11.9251

>  <SCORE.INTRA.POLAR>
0

>  <SCORE.INTRA.POLAR.0>
0

>  <SCORE.INTRA.REPUL>
0

>  <SCORE.INTRA.REPUL.0>
0

>  <SCORE.INTRA.SOLV>
1.01249

>  <SCORE.INTRA.SOLV.lig_0>
-40.9823

>  <SCORE.INTRA.VDW>
-1.29162

>  <SCORE.INTRA.VDW.0>
-0.53506

>  <SCORE.INTRA.norm>
-0.159649

>  <SCORE.RESTR>
0

>  <SCORE.RESTR.CAVITY>
0

>  <SCORE.RESTR.norm>
0

>  <SCORE.SYSTEM>
0

>  <SCORE.SYSTEM.CONST>
0

>  <SCORE.SYSTEM.DIHEDRAL>
0

>  <SCORE.SYSTEM.SOLV>
0

>  <SCORE.SYSTEM.norm>
0

>  <SCORE.heavy>
22

>  <SCORE.norm>
-1.15374

>  <RMSD>
1.913

$$$$
lig.pdb
 OpenBabel11021811523D
libRbt.so/2013.1/901 2013/11/27
 22 23  0  0  0  0  0  0  0  0999 V2000
   56.0822  -16.1677    8.1411 O   0  0  0  0  0  0  0  0  0  0  0  0
   56.8045  -17.0883    8.4431 C   0  0  0  0  0  0  0  0  0  0  0  0
   56.3978  -18.3444    8.3935 N   0  0  0  0  0  0  0  0  0  0  0  0
   58.1683  -16.8281    8.9254 C   0  0  0  0  0  0  0  0  0  0  0  0
   58.6871  -15.5132    9.3089 C   0  0  0  0  0  0  0  0  0  0  0  0
   58.0000  -14.3519    9.2574 N   0  0  0  0  0  0  0  0  0  0  0  0
   59.2014  -17.6632    9.1196 N   0  0  0  0  0  0  0  0  0  0  0  0
   60.2523  -16.9446    9.6034 C   0  0  0  0  0  0  0  0  0  0  0  0
   59.9423  -15.6317    9.7269 N   0  0  0  0  0  0  0  0  0  0  0  0
   60.8533  -14.5644   10.2230 C   0  0  1  0  0  0  0  0  0  0  0  0
   61.3373  -13.7356    9.0530 C   0  0  1  0  0  0  0  0  0  0  0  0
   61.3539  -12.3284    9.5914 C   0  0  2  0  0  0  0  0  0  0  0  0
   62.6398  -12.0387   10.1539 O   0  0  0  0  0  0  0  0  0  0  0  0
   62.6351  -14.1677    8.6154 O   0  0  0  0  0  0  0  0  0  0  0  0
   60.1454  -13.6670   11.0746 O   0  0  0  0  0  0  0  0  0  0  0  0
   60.3328  -12.3236   10.6993 C   0  0  2  0  0  0  0  0  0  0  0  0
   58.9601  -11.7955   10.3371 C   0  0  0  0  0  0  0  0  0  0  0  0
   58.8342  -10.4201   10.6345 O   0  0  0  0  0  0  0  0  0  0  0  0
   59.8388   -9.3927    9.9360 P   0  0  0  0  0  0  0  0  0  0  0  0
   59.1122   -8.0628    9.9492 O   0  0  0  0  0  0  0  0  0  0  0  0
   60.0215  -10.0053    8.5715 O   0  0  0  0  0  0  0  0  0  0  0  0
   61.0797   -9.4927   10.7792 O   0  0  0  0  0  0  0  0  0  0  0  0
  2  1  2  0  0  0  0
  2  4  1  0  0  0  0
  3  2  1  0  0  0  0
  4  7  1  0  0  0  0
  4  5  2  0  0  0  0
  5  6  1  0  0  0  0
  5  9  1  0  0  0  0
  7  8  2  0  0  0  0
  8  9  1  0  0  0  0
 10  9  1  6  0  0  0
 10 15  1  0  0  0  0
 11 14  1  1  0  0  0
 11 12  1  0  0  0  0
 11 10  1  0  0  0  0
 12 13  1  1  0  0  0
 12 16  1  0  0  0  0
 16 17  1  6  0  0  0
 16 15  1  0  0  0  0
 18 19  1  0  0  0  0
 18 17  1  0  0  0  0
 19 21  1  0  0  0  0
 20 19  1  0  0  0  0
 22 19  2  0  0  0  0
M  END
>  <CHROM.1>
11.45178713,-74.75621514,-93.83520407,155.99947392,59.20137467,59.62554150
-13.29295068,9.60529110,1.87189759,0.14092514,-3.01870099

>  <Name>
lig.pdb

>  <RI>
0

>  <Rbt.Current_Directory>
/home/itssahil/PROJECTS/Mol_Feturizer/New_Systems/rnas/4znp

>  <Rbt.Executable>
rbdock ($Id: //depot/dev/client3/rdock/2013.1/src/exe/rbdock.cxx#4 $)

>  <Rbt.Library>
libRbt.so (2013.1, Build901 2013/11/27)

>  <Rbt.Parameter_File>
/export/apps/rDock/src/rDock_2013.1_src/data/scripts/dock_solv.prm

>  <Rbt.Receptor>
prm/pocket_docking_2.prm

>  <SCORE>
-20.4638

>  <SCORE.INTER>
-18.4629

>  <SCORE.INTER.CONST>
1

>  <SCORE.INTER.POLAR>
0

>  <SCORE.INTER.ROT>
5

>  <SCORE.INTER.SOLV>
19.6156

>  <SCORE.INTER.VDW>
-25.7805

>  <SCORE.INTER.norm>
-0.839223

>  <SCORE.INTRA>
-2.0009

>  <SCORE.INTRA.DIHEDRAL>
-5.00312

>  <SCORE.INTRA.DIHEDRAL.0>
11.9251

>  <SCORE.INTRA.POLAR>
0

>  <SCORE.INTRA.POLAR.0>
0

>  <SCORE.INTRA.REPUL>
0

>  <SCORE.INTRA.REPUL.0>
0

>  <SCORE.INTRA.SOLV>
3.45972

>  <SCORE.INTRA.SOLV.lig_0>
-40.9823

>  <SCORE.INTRA.VDW>
-1.2292

>  <SCORE.INTRA.VDW.0>
-0.53506

>  <SCORE.INTRA.norm>
-0.09095

>  <SCORE.RESTR>
0

>  <SCORE.RESTR.CAVITY>
0

>  <SCORE.RESTR.norm>
0

>  <SCORE.SYSTEM>
0

>  <SCORE.SYSTEM.CONST>
0

>  <SCORE.SYSTEM.DIHEDRAL>
0

>  <SCORE.SYSTEM.SOLV>
0

>  <SCORE.SYSTEM.norm>
0

>  <SCORE.heavy>
22

>  <SCORE.norm>
-0.930173

>  <RMSD>
1.925

$$$$
lig.pdb
 OpenBabel11021811523D
libRbt.so/2013.1/901 2013/11/27
 22 23  0  0  0  0  0  0  0  0999 V2000
   57.9786  -18.0469    8.2934 O   0  0  0  0  0  0  0  0  0  0  0  0
   57.2800  -17.0630    8.3592 C   0  0  0  0  0  0  0  0  0  0  0  0
   56.0162  -17.0731    7.9741 N   0  0  0  0  0  0  0  0  0  0  0  0
   57.8403  -15.7914    8.8381 C   0  0  0  0  0  0  0  0  0  0  0  0
   59.1746  -15.6273    9.4195 C   0  0  0  0  0  0  0  0  0  0  0  0
   60.0722  -16.6164    9.6180 N   0  0  0  0  0  0  0  0  0  0  0  0
   57.3124  -14.5572    8.8627 N   0  0  0  0  0  0  0  0  0  0  0  0
   58.2367  -13.7026    9.3823 C   0  0  0  0  0  0  0  0  0  0  0  0
   59.3784  -14.3493    9.7187 N   0  0  0  0  0  0  0  0  0  0  0  0
   60.5915  -13.7237   10.3123 C   0  0  1  0  0  0  0  0  0  0  0  0
   61.7700  -13.9410    9.3882 C   0  0  1  0  0  0  0  0  0  0  0  0
   62.5332  -12.6443    9.4675 C   0  0  2  0  0  0  0  0  0  0  0  0
   63.5117  -12.7197   10.5120 O   0  0  0  0  0  0  0  0  0  0  0  0
   62.5581  -15.0647    9.8111 O   0  0  0  0  0  0  0  0  0  0  0  0
   60.4223  -12.3117   10.4086 O   0  0  0  0  0  0  0  0  0  0  0  0
   61.5050  -11.6101    9.8463 C   0  0  2  0  0  0  0  0  0  0  0  0
   60.9285  -10.7960    8.7064 C   0  0  0  0  0  0  0  0  0  0  0  0
   61.9363  -10.1099    7.9925 O   0  0  0  0  0  0  0  0  0  0  0  0
   62.2875   -8.6105    8.4181 P   0  0  0  0  0  0  0  0  0  0  0  0
   63.4460   -8.2105    7.5267 O   0  0  0  0  0  0  0  0  0  0  0  0
   62.6307   -8.7668    9.8771 O   0  0  0  0  0  0  0  0  0  0  0  0
   60.9911   -7.8777    8.2103 O   0  0  0  0  0  0  0  0  0  0  0  0
  2  1  2  0  0  0  0
  2  4  1  0  0  0  0
  3  2  1  0  0  0  0
  4  7  1  0  0  0  0
  4  5  2  0  0  0  0
  5  6  1  0  0  0  0
  5  9  1  0  0  0  0
  7  8  2  0  0  0  0
  8  9  1  0  0  0  0
 10  9  1  6  0  0  0
 10 15  1  0  0  0  0
 11 14  1  1  0  0  0
 11 12  1  0  0  0  0
 11 10  1  0  0  0  0
 12 13  1  1  0  0  0
 12 16  1  0  0  0  0
 16 17  1  6  0  0  0
 16 15  1  0  0  0  0
 18 19  1  0  0  0  0
 18 17  1  0  0  0  0
 19 21  1  0  0  0  0
 20 19  1  0  0  0  0
 22 19  2  0  0  0  0
M  END
>  <CHROM.1>
-8.08468163,60.84175119,-57.94509795,176.55424900,-93.05484400,60.57598615
-12.78570100,9.09089557,2.13845168,0.35218154,2.89965952

>  <Name>
lig.pdb

>  <RI>
0

>  <Rbt.Current_Directory>
/home/itssahil/PROJECTS/Mol_Feturizer/New_Systems/rnas/4znp

>  <Rbt.Executable>
rbdock ($Id: //depot/dev/client3/rdock/2013.1/src/exe/rbdock.cxx#4 $)

>  <Rbt.Library>
libRbt.so (2013.1, Build901 2013/11/27)

>  <Rbt.Parameter_File>
/export/apps/rDock/src/rDock_2013.1_src/data/scripts/dock_solv.prm

>  <Rbt.Receptor>
prm/pocket_docking_6.prm

>  <SCORE>
-25.5557

>  <SCORE.INTER>
-22.1483

>  <SCORE.INTER.CONST>
1

>  <SCORE.INTER.POLAR>
0

>  <SCORE.INTER.ROT>
5

>  <SCORE.INTER.SOLV>
20.7578

>  <SCORE.INTER.VDW>
-28.6181

>  <SCORE.INTER.norm>
-1.00674

>  <SCORE.INTRA>
-3.40738

>  <SCORE.INTRA.DIHEDRAL>
-5.13765

>  <SCORE.INTRA.DIHEDRAL.0>
11.9251

>  <SCORE.INTRA.POLAR>
0

>  <SCORE.INTRA.POLAR.0>
0

>  <SCORE.INTRA.REPUL>
0

>  <SCORE.INTRA.REPUL.0>
0

>  <SCORE.INTRA.SOLV>
0.964288

>  <SCORE.INTRA.SOLV.lig_0>
-40.9823

>  <SCORE.INTRA.VDW>
-1.3207

>  <SCORE.INTRA.VDW.0>
-0.53506

>  <SCORE.INTRA.norm>
-0.154881

>  <SCORE.RESTR>
0

>  <SCORE.RESTR.CAVITY>
0

>  <SCORE.RESTR.norm>
0

>  <SCORE.SYSTEM>
0

>  <SCORE.SYSTEM.CONST>
0

>  <SCORE.SYSTEM.DIHEDRAL>
0

>  <SCORE.SYSTEM.SOLV>
0

>  <SCORE.SYSTEM.norm>
0

>  <SCORE.heavy>
22

>  <SCORE.norm>
-1.16162

>  <RMSD>
1.927

$$$$
lig.pdb
 OpenBabel11021811523D
libRbt.so/2013.1/901 2013/11/27
 22 23  0  0  0  0  0  0  0  0999 V2000
   56.0197  -17.1109    7.9540 O   0  0  0  0  0  0  0  0  0  0  0  0
   57.1773  -17.0755    8.2992 C   0  0  0  0  0  0  0  0  0  0  0  0
   57.9498  -18.1470    8.2738 N   0  0  0  0  0  0  0  0  0  0  0  0
   57.7570  -15.8245    8.8083 C   0  0  0  0  0  0  0  0  0  0  0  0
   59.0814  -15.7009    9.4215 C   0  0  0  0  0  0  0  0  0  0  0  0
   59.9503  -16.7141    9.6258 N   0  0  0  0  0  0  0  0  0  0  0  0
   57.2585  -14.5783    8.8387 N   0  0  0  0  0  0  0  0  0  0  0  0
   58.1911  -13.7536    9.3906 C   0  0  0  0  0  0  0  0  0  0  0  0
   59.3091  -14.4324    9.7431 N   0  0  0  0  0  0  0  0  0  0  0  0
   60.5232  -13.8447   10.3724 C   0  0  1  0  0  0  0  0  0  0  0  0
   61.6533  -13.8340    9.3660 C   0  0  1  0  0  0  0  0  0  0  0  0
   62.3546  -12.5261    9.6266 C   0  0  2  0  0  0  0  0  0  0  0  0
   63.3967  -12.7176   10.5917 O   0  0  0  0  0  0  0  0  0  0  0  0
   62.5201  -14.9641    9.5504 O   0  0  0  0  0  0  0  0  0  0  0  0
   60.2903  -12.4812   10.7167 O   0  0  0  0  0  0  0  0  0  0  0  0
   61.3011  -11.6326   10.2280 C   0  0  2  0  0  0  0  0  0  0  0  0
   60.6175  -10.6745    9.2746 C   0  0  0  0  0  0  0  0  0  0  0  0
   61.5374   -9.7789    8.6849 O   0  0  0  0  0  0  0  0  0  0  0  0
   60.9842   -8.6697    7.6769 P   0  0  0  0  0  0  0  0  0  0  0  0
   62.2027   -7.8648    7.2717 O   0  0  0  0  0  0  0  0  0  0  0  0
   59.9886   -7.9308    8.5333 O   0  0  0  0  0  0  0  0  0  0  0  0
   60.3210   -9.4804    6.5981 O   0  0  0  0  0  0  0  0  0  0  0  0
  2  1  2  0  0  0  0
  2  4  1  0  0  0  0
  3  2  1  0  0  0  0
  4  7  1  0  0  0  0
  4  5  2  0  0  0  0
  5  6  1  0  0  0  0
  5  9  1  0  0  0  0
  7  8  2  0  0  0  0
  8  9  1  0  0  0  0
 10  9  1  6  0  0  0
 10 15  1  0  0  0  0
 11 14  1  1  0  0  0
 11 12  1  0  0  0  0
 11 10  1  0  0  0  0
 12 13  1  1  0  0  0
 12 16  1  0  0  0  0
 16 17  1  6  0  0  0
 16 15  1  0  0  0  0
 18 19  1  0  0  0  0
 18 17  1  0  0  0  0
 19 21  1  0  0  0  0
 20 19  1  0  0  0  0
 22 19  2  0  0  0  0
M  END
>  <CHROM.1>
171.28642513,71.82279340,-60.69091541,178.18465468,-178.47468290,60.12897548
-12.80557924,8.94616016,2.02467771,0.44811413,2.83967393

>  <Name>
lig.pdb

>  <RI>
0

>  <Rbt.Current_Directory>
/home/itssahil/PROJECTS/Mol_Feturizer/New_Systems/rnas/4znp

>  <Rbt.Executable>
rbdock ($Id: //depot/dev/client3/rdock/2013.1/src/exe/rbdock.cxx#4 $)

>  <Rbt.Library>
libRbt.so (2013.1, Build901 2013/11/27)

>  <Rbt.Parameter_File>
/export/apps/rDock/src/rDock_2013.1_src/data/scripts/dock_solv.prm

>  <Rbt.Receptor>
prm/pocket_docking_7.prm

>  <SCORE>
-27.8986

>  <SCORE.INTER>
-22.4063

>  <SCORE.INTER.CONST>
1

>  <SCORE.INTER.POLAR>
0

>  <SCORE.INTER.ROT>
5

>  <SCORE.INTER.SOLV>
24.1292

>  <SCORE.INTER.VDW>
-29.9139

>  <SCORE.INTER.norm>
-1.01847

>  <SCORE.INTRA>
-5.49234

>  <SCORE.INTRA.DIHEDRAL>
-9.30871

>  <SCORE.INTRA.DIHEDRAL.0>
11.9251

>  <SCORE.INTRA.POLAR>
0

>  <SCORE.INTRA.POLAR.0>
0

>  <SCORE.INTRA.REPUL>
0

>  <SCORE.INTRA.REPUL.0>
0

>  <SCORE.INTRA.SOLV>
0.610932

>  <SCORE.INTRA.SOLV.lig_0>
-40.9823

>  <SCORE.INTRA.VDW>
-1.14345

>  <SCORE.INTRA.VDW.0>
-0.53506

>  <SCORE.INTRA.norm>
-0.249652

>  <SCORE.RESTR>
0

>  <SCORE.RESTR.CAVITY>
0

>  <SCORE.RESTR.norm>
0

>  <SCORE.SYSTEM>
0

>  <SCORE.SYSTEM.CONST>
0

>  <SCORE.SYSTEM.DIHEDRAL>
0

>  <SCORE.SYSTEM.SOLV>
0

>  <SCORE.SYSTEM.norm>
0

>  <SCORE.heavy>
22

>  <SCORE.norm>
-1.26812

>  <RMSD>
1.928

$$$$
lig.pdb
 OpenBabel11021811523D
libRbt.so/2013.1/901 2013/11/27
 22 23  0  0  0  0  0  0  0  0999 V2000
   57.6459  -18.4581    7.9652 O   0  0  0  0  0  0  0  0  0  0  0  0
   56.9187  -17.5124    8.1583 C   0  0  0  0  0  0  0  0  0  0  0  0
   55.6292  -17.5494    7.8728 N   0  0  0  0  0  0  0  0  0  0  0  0
   57.4680  -16.2553    8.6858 C   0  0  0  0  0  0  0  0  0  0  0  0
   58.7701  -16.1175    9.3422 C   0  0  0  0  0  0  0  0  0  0  0  0
   59.6426  -17.1214    9.5753 N   0  0  0  0  0  0  0  0  0  0  0  0
   56.9554  -15.0145    8.6993 N   0  0  0  0  0  0  0  0  0  0  0  0
   57.8606  -14.1799    9.2814 C   0  0  0  0  0  0  0  0  0  0  0  0
   58.9735  -14.8467    9.6707 N   0  0  0  0  0  0  0  0  0  0  0  0
   60.1599  -14.2460   10.3393 C   0  0  1  0  0  0  0  0  0  0  0  0
   61.2602  -14.0444    9.3201 C   0  0  1  0  0  0  0  0  0  0  0  0
   61.8759  -12.7261    9.7116 C   0  0  2  0  0  0  0  0  0  0  0  0
   62.9533  -12.9470   10.6305 O   0  0  0  0  0  0  0  0  0  0  0  0
   62.2075  -15.1230    9.3622 O   0  0  0  0  0  0  0  0  0  0  0  0
   59.8423  -12.9487   10.8371 O   0  0  0  0  0  0  0  0  0  0  0  0
   60.7790  -11.9815   10.4274 C   0  0  2  0  0  0  0  0  0  0  0  0
   60.0064  -10.9761    9.5988 C   0  0  0  0  0  0  0  0  0  0  0  0
   60.7481   -9.7921    9.3887 O   0  0  0  0  0  0  0  0  0  0  0  0
   62.0269   -9.8516    8.4328 P   0  0  0  0  0  0  0  0  0  0  0  0
   61.7288  -10.9635    7.4471 O   0  0  0  0  0  0  0  0  0  0  0  0
   63.1382  -10.1451    9.4072 O   0  0  0  0  0  0  0  0  0  0  0  0
   62.1083   -8.4580    7.8744 O   0  0  0  0  0  0  0  0  0  0  0  0
  2  1  2  0  0  0  0
  2  4  1  0  0  0  0
  3  2  1  0  0  0  0
  4  7  1  0  0  0  0
  4  5  2  0  0  0  0
  5  6  1  0  0  0  0
  5  9  1  0  0  0  0
  7  8  2  0  0  0  0
  8  9  1  0  0  0  0
 10  9  1  6  0  0  0
 10 15  1  0  0  0  0
 11 14  1  1  0  0  0
 11 12  1  0  0  0  0
 11 10  1  0  0  0  0
 12 13  1  1  0  0  0
 12 16  1  0  0  0  0
 16 17  1  6  0  0  0
 16 15  1  0  0  0  0
 18 19  1  0  0  0  0
 18 17  1  0  0  0  0
 19 21  1  0  0  0  0
 20 19  1  0  0  0  0
 22 19  2  0  0  0  0
M  END
>  <CHROM.1>
-17.03841712,79.69212769,-76.04983849,28.55650732,69.75415615,60.14716050
-13.38190852,9.14000517,-2.20667640,-0.37825243,-0.22544774

>  <Name>
lig.pdb

>  <RI>
0

>  <Rbt.Current_Directory>
/home/itssahil/PROJECTS/Mol_Feturizer/New_Systems/rnas/4znp

>  <Rbt.Executable>
rbdock ($Id: //depot/dev/client3/rdock/2013.1/src/exe/rbdock.cxx#4 $)

>  <Rbt.Library>
libRbt.so (2013.1, Build901 2013/11/27)

>  <Rbt.Parameter_File>
/export/apps/rDock/src/rDock_2013.1_src/data/scripts/dock_solv.prm

>  <Rbt.Receptor>
prm/pocket_docking_8.prm

>  <SCORE>
-27.1639

>  <SCORE.INTER>
-23.7356

>  <SCORE.INTER.CONST>
1

>  <SCORE.INTER.POLAR>
0

>  <SCORE.INTER.ROT>
5

>  <SCORE.INTER.SOLV>
23.1331

>  <SCORE.INTER.VDW>
-30.4681

>  <SCORE.INTER.norm>
-1.07889

>  <SCORE.INTRA>
-3.4283

>  <SCORE.INTRA.DIHEDRAL>
-6.09018

>  <SCORE.INTRA.DIHEDRAL.0>
11.9251

>  <SCORE.INTRA.POLAR>
0

>  <SCORE.INTRA.POLAR.0>
0

>  <SCORE.INTRA.REPUL>
0

>  <SCORE.INTRA.REPUL.0>
0

>  <SCORE.INTRA.SOLV>
1.7061

>  <SCORE.INTRA.SOLV.lig_0>
-40.9823

>  <SCORE.INTRA.VDW>
-1.23626

>  <SCORE.INTRA.VDW.0>
-0.53506

>  <SCORE.INTRA.norm>
-0.155832

>  <SCORE.RESTR>
0

>  <SCORE.RESTR.CAVITY>
0

>  <SCORE.RESTR.norm>
0

>  <SCORE.SYSTEM>
0

>  <SCORE.SYSTEM.CONST>
0

>  <SCORE.SYSTEM.DIHEDRAL>
0

>  <SCORE.SYSTEM.SOLV>
0

>  <SCORE.SYSTEM.norm>
0

>  <SCORE.heavy>
22

>  <SCORE.norm>
-1.23472

>  <RMSD>
1.932

$$$$
lig.pdb
 OpenBabel11021811523D
libRbt.so/2013.1/901 2013/11/27
 22 23  0  0  0  0  0  0  0  0999 V2000
   56.3278  -15.5776    8.5566 O   0  0  0  0  0  0  0  0  0  0  0  0
   56.9989  -16.5825    8.5697 C   0  0  0  0  0  0  0  0  0  0  0  0
   56.4839  -17.7732    8.3188 N   0  0  0  0  0  0  0  0  0  0  0  0
   58.4258  -16.5120    8.9150 C   0  0  0  0  0  0  0  0  0  0  0  0
   59.1480  -15.2840    9.2553 C   0  0  0  0  0  0  0  0  0  0  0  0
   58.6177  -14.0425    9.2823 N   0  0  0  0  0  0  0  0  0  0  0  0
   59.3543  -17.4782    8.9981 N   0  0  0  0  0  0  0  0  0  0  0  0
   60.5328  -16.9126    9.3800 C   0  0  0  0  0  0  0  0  0  0  0  0
   60.4117  -15.5735    9.5445 N   0  0  0  0  0  0  0  0  0  0  0  0
   61.4994  -14.6443    9.9556 C   0  0  1  0  0  0  0  0  0  0  0  0
   61.7508  -13.6462    8.8463 C   0  0  1  0  0  0  0  0  0  0  0  0
   62.0116  -12.3545    9.5770 C   0  0  2  0  0  0  0  0  0  0  0  0
   63.4147  -12.2170    9.8347 O   0  0  0  0  0  0  0  0  0  0  0  0
   62.8644  -14.0473    8.0328 O   0  0  0  0  0  0  0  0  0  0  0  0
   61.0942  -13.8798   11.0883 O   0  0  0  0  0  0  0  0  0  0  0  0
   61.2935  -12.5003   10.8935 C   0  0  2  0  0  0  0  0  0  0  0  0
   59.9214  -11.8640   10.9772 C   0  0  0  0  0  0  0  0  0  0  0  0
   59.9947  -10.4543   10.9175 O   0  0  0  0  0  0  0  0  0  0  0  0
   58.6604   -9.6094   11.1591 P   0  0  0  0  0  0  0  0  0  0  0  0
   58.1823  -10.0165   12.5384 O   0  0  0  0  0  0  0  0  0  0  0  0
   57.7849  -10.0662   10.0209 O   0  0  0  0  0  0  0  0  0  0  0  0
   59.1161   -8.1860   10.9952 O   0  0  0  0  0  0  0  0  0  0  0  0
  2  1  2  0  0  0  0
  2  4  1  0  0  0  0
  3  2  1  0  0  0  0
  4  7  1  0  0  0  0
  4  5  2  0  0  0  0
  5  6  1  0  0  0  0
  5  9  1  0  0  0  0
  7  8  2  0  0  0  0
  8  9  1  0  0  0  0
 10  9  1  6  0  0  0
 10 15  1  0  0  0  0
 11 14  1  1  0  0  0
 11 12  1  0  0  0  0
 11 10  1  0  0  0  0
 12 13  1  1  0  0  0
 12 16  1  0  0  0  0
 16 17  1  6  0  0  0
 16 15  1  0  0  0  0
 18 19  1  0  0  0  0
 18 17  1  0  0  0  0
 19 21  1  0  0  0  0
 20 19  1  0  0  0  0
 22 19  2  0  0  0  0
M  END
>  <CHROM.1>
-0.27542723,-61.80380534,-67.40523389,58.23597809,-173.12013399,59.67612469
-13.25711563,9.91109048,1.66151836,-0.03569309,-2.81298572

>  <Name>
lig.pdb

>  <RI>
0

>  <Rbt.Current_Directory>
/home/itssahil/PROJECTS/Mol_Feturizer/New_Systems/rnas/4znp

>  <Rbt.Executable>
rbdock ($Id: //depot/dev/client3/rdock/2013.1/src/exe/rbdock.cxx#4 $)

>  <Rbt.Library>
libRbt.so (2013.1, Build901 2013/11/27)

>  <Rbt.Parameter_File>
/export/apps/rDock/src/rDock_2013.1_src/data/scripts/dock_solv.prm

>  <Rbt.Receptor>
prm/pocket_docking_3.prm

>  <SCORE>
-23.5068

>  <SCORE.INTER>
-17.5992

>  <SCORE.INTER.CONST>
1

>  <SCORE.INTER.POLAR>
0

>  <SCORE.INTER.ROT>
5

>  <SCORE.INTER.SOLV>
19.7919

>  <SCORE.INTER.VDW>
-25.2634

>  <SCORE.INTER.norm>
-0.799962

>  <SCORE.INTRA>
-5.90763

>  <SCORE.INTRA.DIHEDRAL>
-9.06944

>  <SCORE.INTRA.DIHEDRAL.0>
11.9251

>  <SCORE.INTRA.POLAR>
0

>  <SCORE.INTRA.POLAR.0>
0

>  <SCORE.INTRA.REPUL>
0

>  <SCORE.INTRA.REPUL.0>
0

>  <SCORE.INTRA.SOLV>
0.899143

>  <SCORE.INTRA.SOLV.lig_0>
-40.9823

>  <SCORE.INTRA.VDW>
-1.82248

>  <SCORE.INTRA.VDW.0>
-0.53506

>  <SCORE.INTRA.norm>
-0.268529

>  <SCORE.RESTR>
0

>  <SCORE.RESTR.CAVITY>
0

>  <SCORE.RESTR.norm>
0

>  <SCORE.SYSTEM>
0

>  <SCORE.SYSTEM.CONST>
0

>  <SCORE.SYSTEM.DIHEDRAL>
0

>  <SCORE.SYSTEM.SOLV>
0

>  <SCORE.SYSTEM.norm>
0

>  <SCORE.heavy>
22

>  <SCORE.norm>
-1.06849

>  <RMSD>
1.938

$$$$
lig.pdb
 OpenBabel11021811523D
libRbt.so/2013.1/901 2013/11/27
 22 23  0  0  0  0  0  0  0  0999 V2000
   56.3155  -15.4606    8.6505 O   0  0  0  0  0  0  0  0  0  0  0  0
   56.9905  -16.4627    8.6300 C   0  0  0  0  0  0  0  0  0  0  0  0
   56.4806  -17.6460    8.3376 N   0  0  0  0  0  0  0  0  0  0  0  0
   58.4167  -16.3985    8.9796 C   0  0  0  0  0  0  0  0  0  0  0  0
   59.1544  -15.1683    9.2758 C   0  0  0  0  0  0  0  0  0  0  0  0
   58.6413  -13.9195    9.2522 N   0  0  0  0  0  0  0  0  0  0  0  0
   59.3312  -17.3734    9.1046 N   0  0  0  0  0  0  0  0  0  0  0  0
   60.5158  -16.8098    9.4704 C   0  0  0  0  0  0  0  0  0  0  0  0
   60.4126  -15.4638    9.5824 N   0  0  0  0  0  0  0  0  0  0  0  0
   61.5112  -14.5344    9.9627 C   0  0  1  0  0  0  0  0  0  0  0  0
   61.7667  -13.5694    8.8254 C   0  0  1  0  0  0  0  0  0  0  0  0
   62.0436  -12.2609    9.5194 C   0  0  2  0  0  0  0  0  0  0  0  0
   63.4493  -12.1301    9.7665 O   0  0  0  0  0  0  0  0  0  0  0  0
   62.8722  -14.0033    8.0179 O   0  0  0  0  0  0  0  0  0  0  0  0
   61.1192  -13.7354   11.0761 O   0  0  0  0  0  0  0  0  0  0  0  0
   61.3308  -12.3637   10.8428 C   0  0  2  0  0  0  0  0  0  0  0  0
   59.9653  -11.7120   10.9157 C   0  0  0  0  0  0  0  0  0  0  0  0
   60.0594  -10.3024   10.9321 O   0  0  0  0  0  0  0  0  0  0  0  0
   58.7500   -9.4536   11.2751 P   0  0  0  0  0  0  0  0  0  0  0  0
   57.8562   -9.6027   10.0603 O   0  0  0  0  0  0  0  0  0  0  0  0
   59.3135   -8.0720   11.4858 O   0  0  0  0  0  0  0  0  0  0  0  0
   58.2597  -10.0731   12.5544 O   0  0  0  0  0  0  0  0  0  0  0  0
  2  1  2  0  0  0  0
  2  4  1  0  0  0  0
  3  2  1  0  0  0  0
  4  7  1  0  0  0  0
  4  5  2  0  0  0  0
  5  6  1  0  0  0  0
  5  9  1  0  0  0  0
  7  8  2  0  0  0  0
  8  9  1  0  0  0  0
 10  9  1  6  0  0  0
 10 15  1  0  0  0  0
 11 14  1  1  0  0  0
 11 12  1  0  0  0  0
 11 10  1  0  0  0  0
 12 13  1  1  0  0  0
 12 16  1  0  0  0  0
 16 17  1  6  0  0  0
 16 15  1  0  0  0  0
 18 19  1  0  0  0  0
 18 17  1  0  0  0  0
 19 21  1  0  0  0  0
 20 19  1  0  0  0  0
 22 19  2  0  0  0  0
M  END
>  <CHROM.1>
-4.58946191,-60.91175998,-72.43252050,-71.40724986,-168.93184819,59.71166021
-13.13151489,9.95614646,1.67108175,-0.05571955,-2.80433005

>  <Name>
lig.pdb

>  <RI>
0

>  <Rbt.Current_Directory>
/home/itssahil/PROJECTS/Mol_Feturizer/New_Systems/rnas/4znp

>  <Rbt.Executable>
rbdock ($Id: //depot/dev/client3/rdock/2013.1/src/exe/rbdock.cxx#4 $)

>  <Rbt.Library>
libRbt.so (2013.1, Build901 2013/11/27)

>  <Rbt.Parameter_File>
/export/apps/rDock/src/rDock_2013.1_src/data/scripts/dock_solv.prm

>  <Rbt.Receptor>
prm/pocket_docking_2.prm

>  <SCORE>
-22.4763

>  <SCORE.INTER>
-17.2042

>  <SCORE.INTER.CONST>
1

>  <SCORE.INTER.POLAR>
0

>  <SCORE.INTER.ROT>
5

>  <SCORE.INTER.SOLV>
19.4785

>  <SCORE.INTER.VDW>
-24.8956

>  <SCORE.INTER.norm>
-0.782008

>  <SCORE.INTRA>
-5.2748

>  <SCORE.INTRA.DIHEDRAL>
-8.14827

>  <SCORE.INTRA.DIHEDRAL.0>
11.9251

>  <SCORE.INTRA.POLAR>
0

>  <SCORE.INTRA.POLAR.0>
0

>  <SCORE.INTRA.REPUL>
0

>  <SCORE.INTRA.REPUL.0>
0

>  <SCORE.INTRA.SOLV>
1.14227

>  <SCORE.INTRA.SOLV.lig_0>
-40.9823

>  <SCORE.INTRA.VDW>
-1.7718

>  <SCORE.INTRA.VDW.0>
-0.53506

>  <SCORE.INTRA.norm>
-0.239763

>  <SCORE.RESTR>
0.00268322

>  <SCORE.RESTR.CAVITY>
0.00268322

>  <SCORE.RESTR.norm>
0.000121964

>  <SCORE.SYSTEM>
0

>  <SCORE.SYSTEM.CONST>
0

>  <SCORE.SYSTEM.DIHEDRAL>
0

>  <SCORE.SYSTEM.SOLV>
0

>  <SCORE.SYSTEM.norm>
0

>  <SCORE.heavy>
22

>  <SCORE.norm>
-1.02165

>  <RMSD>
1.949

$$$$
lig.pdb
 OpenBabel11021811523D
libRbt.so/2013.1/901 2013/11/27
 22 23  0  0  0  0  0  0  0  0999 V2000
   56.6157  -17.8496    8.3124 O   0  0  0  0  0  0  0  0  0  0  0  0
   57.0609  -16.7576    8.5764 C   0  0  0  0  0  0  0  0  0  0  0  0
   56.3161  -15.6672    8.5328 N   0  0  0  0  0  0  0  0  0  0  0  0
   58.4823  -16.6034    8.9174 C   0  0  0  0  0  0  0  0  0  0  0  0
   59.1308  -15.3361    9.2620 C   0  0  0  0  0  0  0  0  0  0  0  0
   58.5271  -14.1288    9.2975 N   0  0  0  0  0  0  0  0  0  0  0  0
   59.4673  -17.5126    8.9921 N   0  0  0  0  0  0  0  0  0  0  0  0
   60.6112  -16.8794    9.3732 C   0  0  0  0  0  0  0  0  0  0  0  0
   60.4106  -15.5508    9.5454 N   0  0  0  0  0  0  0  0  0  0  0  0
   61.4421  -14.5603    9.9580 C   0  0  1  0  0  0  0  0  0  0  0  0
   61.5968  -13.5172    8.8725 C   0  0  1  0  0  0  0  0  0  0  0  0
   61.7868  -12.2311    9.6341 C   0  0  2  0  0  0  0  0  0  0  0  0
   63.1832  -12.0039    9.8632 O   0  0  0  0  0  0  0  0  0  0  0  0
   62.7145  -13.8181    8.0223 O   0  0  0  0  0  0  0  0  0  0  0  0
   61.0140  -13.8567   11.1214 O   0  0  0  0  0  0  0  0  0  0  0  0
   61.1135  -12.4619   10.9619 C   0  0  2  0  0  0  0  0  0  0  0  0
   59.7036  -11.9245   11.0957 C   0  0  0  0  0  0  0  0  0  0  0  0
   59.6911  -10.5180   11.2286 O   0  0  0  0  0  0  0  0  0  0  0  0
   58.2867   -9.7821   11.4254 P   0  0  0  0  0  0  0  0  0  0  0  0
   57.6035  -10.5344   12.5497 O   0  0  0  0  0  0  0  0  0  0  0  0
   57.6495   -9.9462   10.0698 O   0  0  0  0  0  0  0  0  0  0  0  0
   58.6773   -8.3574   11.7057 O   0  0  0  0  0  0  0  0  0  0  0  0
  2  1  2  0  0  0  0
  2  4  1  0  0  0  0
  3  2  1  0  0  0  0
  4  7  1  0  0  0  0
  4  5  2  0  0  0  0
  5  6  1  0  0  0  0
  5  9  1  0  0  0  0
  7  8  2  0  0  0  0
  8  9  1  0  0  0  0
 10  9  1  6  0  0  0
 10 15  1  0  0  0  0
 11 14  1  1  0  0  0
 11 12  1  0  0  0  0
 11 10  1  0  0  0  0
 12 13  1  1  0  0  0
 12 16  1  0  0  0  0
 16 17  1  6  0  0  0
 16 15  1  0  0  0  0
 18 19  1  0  0  0  0
 18 17  1  0  0  0  0
 19 21  1  0  0  0  0
 20 19  1  0  0  0  0
 22 19  2  0  0  0  0
M  END
>  <CHROM.1>
-179.59652541,-59.97304392,-74.13212590,50.10005435,-178.18440825,59.52907610
-13.30441862,10.00005470,1.60266684,-0.07895431,-2.77665996

>  <Name>
lig.pdb

>  <RI>
0

>  <Rbt.Current_Directory>
/home/itssahil/PROJECTS/Mol_Feturizer/New_Systems/rnas/4znp

>  <Rbt.Executable>
rbdock ($Id: //depot/dev/client3/rdock/2013.1/src/exe/rbdock.cxx#4 $)

>  <Rbt.Library>
libRbt.so (2013.1, Build901 2013/11/27)

>  <Rbt.Parameter_File>
/export/apps/rDock/src/rDock_2013.1_src/data/scripts/dock_solv.prm

>  <Rbt.Receptor>
prm/pocket_docking_5.prm

>  <SCORE>
-23.0102

>  <SCORE.INTER>
-17.4473

>  <SCORE.INTER.CONST>
1

>  <SCORE.INTER.POLAR>
0

>  <SCORE.INTER.ROT>
5

>  <SCORE.INTER.SOLV>
19.9884

>  <SCORE.INTER.VDW>
-25.2276

>  <SCORE.INTER.norm>
-0.793057

>  <SCORE.INTRA>
-5.563

>  <SCORE.INTRA.DIHEDRAL>
-8.65489

>  <SCORE.INTRA.DIHEDRAL.0>
11.9251

>  <SCORE.INTRA.POLAR>
0

>  <SCORE.INTRA.POLAR.0>
0

>  <SCORE.INTRA.REPUL>
0

>  <SCORE.INTRA.REPUL.0>
0

>  <SCORE.INTRA.SOLV>
1.09886

>  <SCORE.INTRA.SOLV.lig_0>
-40.9823

>  <SCORE.INTRA.VDW>
-1.78498

>  <SCORE.INTRA.VDW.0>
-0.53506

>  <SCORE.INTRA.norm>
-0.252864

>  <SCORE.RESTR>
0

>  <SCORE.RESTR.CAVITY>
0

>  <SCORE.RESTR.norm>
0

>  <SCORE.SYSTEM>
0

>  <SCORE.SYSTEM.CONST>
0

>  <SCORE.SYSTEM.DIHEDRAL>
0

>  <SCORE.SYSTEM.SOLV>
0

>  <SCORE.SYSTEM.norm>
0

>  <SCORE.heavy>
22

>  <SCORE.norm>
-1.04592

>  <RMSD>
1.951

$$$$
lig.pdb
 OpenBabel11021811523D
libRbt.so/2013.1/901 2013/11/27
 22 23  0  0  0  0  0  0  0  0999 V2000
   57.2838  -18.5919    7.9221 O   0  0  0  0  0  0  0  0  0  0  0  0
   56.6630  -17.5609    8.0318 C   0  0  0  0  0  0  0  0  0  0  0  0
   55.4110  -17.4494    7.6246 N   0  0  0  0  0  0  0  0  0  0  0  0
   57.3104  -16.3662    8.5921 C   0  0  0  0  0  0  0  0  0  0  0  0
   58.6257  -16.3477    9.2363 C   0  0  0  0  0  0  0  0  0  0  0  0
   59.4226  -17.4210    9.4266 N   0  0  0  0  0  0  0  0  0  0  0  0
   56.8926  -15.0917    8.6515 N   0  0  0  0  0  0  0  0  0  0  0  0
   57.8636  -14.3465    9.2486 C   0  0  0  0  0  0  0  0  0  0  0  0
   58.9272  -15.1070    9.6026 N   0  0  0  0  0  0  0  0  0  0  0  0
   60.1619  -14.6188   10.2752 C   0  0  1  0  0  0  0  0  0  0  0  0
   61.2385  -14.3858    9.2375 C   0  0  1  0  0  0  0  0  0  0  0  0
   61.9302  -13.1340    9.7117 C   0  0  2  0  0  0  0  0  0  0  0  0
   63.0236  -13.4792   10.5715 O   0  0  0  0  0  0  0  0  0  0  0  0
   62.1325  -15.5071    9.1597 O   0  0  0  0  0  0  0  0  0  0  0  0
   59.9242  -13.3532   10.8863 O   0  0  0  0  0  0  0  0  0  0  0  0
   60.8941  -12.4003   10.5229 C   0  0  2  0  0  0  0  0  0  0  0  0
   60.1463  -11.2957    9.8052 C   0  0  0  0  0  0  0  0  0  0  0  0
   61.0008  -10.2245    9.4609 O   0  0  0  0  0  0  0  0  0  0  0  0
   61.5534  -10.1392    7.9643 P   0  0  0  0  0  0  0  0  0  0  0  0
   61.7864  -11.5781    7.5492 O   0  0  0  0  0  0  0  0  0  0  0  0
   62.8033   -9.3148    8.1339 O   0  0  0  0  0  0  0  0  0  0  0  0
   60.4700   -9.3933    7.2359 O   0  0  0  0  0  0  0  0  0  0  0  0
  2  1  2  0  0  0  0
  2  4  1  0  0  0  0
  3  2  1  0  0  0  0
  4  7  1  0  0  0  0
  4  5  2  0  0  0  0
  5  6  1  0  0  0  0
  5  9  1  0  0  0  0
  7  8  2  0  0  0  0
  8  9  1  0  0  0  0
 10  9  1  6  0  0  0
 10 15  1  0  0  0  0
 11 14  1  1  0  0  0
 11 12  1  0  0  0  0
 11 10  1  0  0  0  0
 12 13  1  1  0  0  0
 12 16  1  0  0  0  0
 16 17  1  6  0  0  0
 16 15  1  0  0  0  0
 18 19  1  0  0  0  0
 18 17  1  0  0  0  0
 19 21  1  0  0  0  0
 20 19  1  0  0  0  0
 22 19  2  0  0  0  0
M  END
>  <CHROM.1>
-9.75901262,83.13066389,-65.92614034,-36.28541378,99.54427153,59.97679238
-13.65308767,8.97131573,2.22783573,0.45726659,2.81930630

>  <Name>
lig.pdb

>  <RI>
0

>  <Rbt.Current_Directory>
/home/itssahil/PROJECTS/Mol_Feturizer/New_Systems/rnas/4znp

>  <Rbt.Executable>
rbdock ($Id: //depot/dev/client3/rdock/2013.1/src/exe/rbdock.cxx#4 $)

>  <Rbt.Library>
libRbt.so (2013.1, Build901 2013/11/27)

>  <Rbt.Parameter_File>
/export/apps/rDock/src/rDock_2013.1_src/data/scripts/dock_solv.prm

>  <Rbt.Receptor>
prm/pocket_docking_4.prm

>  <SCORE>
-26.3278

>  <SCORE.INTER>
-24.229

>  <SCORE.INTER.CONST>
1

>  <SCORE.INTER.POLAR>
0

>  <SCORE.INTER.ROT>
5

>  <SCORE.INTER.SOLV>
26.8678

>  <SCORE.INTER.VDW>
-32.0419

>  <SCORE.INTER.norm>
-1.10132

>  <SCORE.INTRA>
-2.10884

>  <SCORE.INTRA.DIHEDRAL>
-2.96559

>  <SCORE.INTRA.DIHEDRAL.0>
11.9251

>  <SCORE.INTRA.POLAR>
0

>  <SCORE.INTRA.POLAR.0>
0

>  <SCORE.INTRA.REPUL>
0

>  <SCORE.INTRA.REPUL.0>
0

>  <SCORE.INTRA.SOLV>
1.07175

>  <SCORE.INTRA.SOLV.lig_0>
-40.9823

>  <SCORE.INTRA.VDW>
-1.16192

>  <SCORE.INTRA.VDW.0>
-0.53506

>  <SCORE.INTRA.norm>
-0.0958562

>  <SCORE.RESTR>
0.0100678

>  <SCORE.RESTR.CAVITY>
0.0100678

>  <SCORE.RESTR.norm>
0.000457627

>  <SCORE.SYSTEM>
0

>  <SCORE.SYSTEM.CONST>
0

>  <SCORE.SYSTEM.DIHEDRAL>
0

>  <SCORE.SYSTEM.SOLV>
0

>  <SCORE.SYSTEM.norm>
0

>  <SCORE.heavy>
22

>  <SCORE.norm>
-1.19672

>  <RMSD>
1.954

$$$$
lig.pdb
 OpenBabel11021811523D
libRbt.so/2013.1/901 2013/11/27
 22 23  0  0  0  0  0  0  0  0999 V2000
   57.5546  -18.4255    8.0376 O   0  0  0  0  0  0  0  0  0  0  0  0
   56.8961  -17.4173    8.1390 C   0  0  0  0  0  0  0  0  0  0  0  0
   55.6404  -17.3559    7.7327 N   0  0  0  0  0  0  0  0  0  0  0  0
   57.4994  -16.1945    8.6878 C   0  0  0  0  0  0  0  0  0  0  0  0
   58.8045  -16.1254    9.3490 C   0  0  0  0  0  0  0  0  0  0  0  0
   59.6308  -17.1708    9.5676 N   0  0  0  0  0  0  0  0  0  0  0  0
   57.0424  -14.9326    8.7204 N   0  0  0  0  0  0  0  0  0  0  0  0
   57.9822  -14.1485    9.3177 C   0  0  0  0  0  0  0  0  0  0  0  0
   59.0634  -14.8704    9.6984 N   0  0  0  0  0  0  0  0  0  0  0  0
   60.2735  -14.3339   10.3790 C   0  0  1  0  0  0  0  0  0  0  0  0
   61.3713  -14.1265    9.3583 C   0  0  1  0  0  0  0  0  0  0  0  0
   62.0314  -12.8446    9.7955 C   0  0  2  0  0  0  0  0  0  0  0  0
   63.1087  -13.1352   10.6950 O   0  0  0  0  0  0  0  0  0  0  0  0
   62.2845  -15.2349    9.3491 O   0  0  0  0  0  0  0  0  0  0  0  0
   60.0010  -13.0480   10.9303 O   0  0  0  0  0  0  0  0  0  0  0  0
   60.9644  -12.0951   10.5503 C   0  0  2  0  0  0  0  0  0  0  0  0
   60.2172  -11.0341    9.7690 C   0  0  0  0  0  0  0  0  0  0  0  0
   61.0148   -9.8890    9.5482 O   0  0  0  0  0  0  0  0  0  0  0  0
   61.6763   -9.6853    8.1083 P   0  0  0  0  0  0  0  0  0  0  0  0
   60.5102   -9.6607    7.1405 O   0  0  0  0  0  0  0  0  0  0  0  0
   62.5715  -10.8923    7.9965 O   0  0  0  0  0  0  0  0  0  0  0  0
   62.4542   -8.4077    8.2609 O   0  0  0  0  0  0  0  0  0  0  0  0
  2  1  2  0  0  0  0
  2  4  1  0  0  0  0
  3  2  1  0  0  0  0
  4  7  1  0  0  0  0
  4  5  2  0  0  0  0
  5  6  1  0  0  0  0
  5  9  1  0  0  0  0
  7  8  2  0  0  0  0
  8  9  1  0  0  0  0
 10  9  1  6  0  0  0
 10 15  1  0  0  0  0
 11 14  1  1  0  0  0
 11 12  1  0  0  0  0
 11 10  1  0  0  0  0
 12 13  1  1  0  0  0
 12 16  1  0  0  0  0
 16 17  1  6  0  0  0
 16 15  1  0  0  0  0
 18 19  1  0  0  0  0
 18 17  1  0  0  0  0
 19 21  1  0  0  0  0
 20 19  1  0  0  0  0
 22 19  2  0  0  0  0
M  END
>  <CHROM.1>
-10.78217866,81.35224729,-73.47049040,58.34651739,102.25166209,60.11705832
-13.36254696,9.07861813,2.19454247,0.46105635,2.83534305

>  <Name>
lig.pdb

>  <RI>
0

>  <Rbt.Current_Directory>
/home/itssahil/PROJECTS/Mol_Feturizer/New_Systems/rnas/4znp

>  <Rbt.Executable>
rbdock ($Id: //depot/dev/client3/rdock/2013.1/src/exe/rbdock.cxx#4 $)

>  <Rbt.Library>
libRbt.so (2013.1, Build901 2013/11/27)

>  <Rbt.Parameter_File>
/export/apps/rDock/src/rDock_2013.1_src/data/scripts/dock_solv.prm

>  <Rbt.Receptor>
prm/pocket_docking_5.prm

>  <SCORE>
-26.9208

>  <SCORE.INTER>
-24.4039

>  <SCORE.INTER.CONST>
1

>  <SCORE.INTER.POLAR>
0

>  <SCORE.INTER.ROT>
5

>  <SCORE.INTER.SOLV>
24.2668

>  <SCORE.INTER.VDW>
-31.2916

>  <SCORE.INTER.norm>
-1.10927

>  <SCORE.INTRA>
-2.51688

>  <SCORE.INTRA.DIHEDRAL>
-2.82131

>  <SCORE.INTRA.DIHEDRAL.0>
11.9251

>  <SCORE.INTRA.POLAR>
0

>  <SCORE.INTRA.POLAR.0>
0

>  <SCORE.INTRA.REPUL>
0

>  <SCORE.INTRA.REPUL.0>
0

>  <SCORE.INTRA.SOLV>
0.779597

>  <SCORE.INTRA.SOLV.lig_0>
-40.9823

>  <SCORE.INTRA.VDW>
-1.49603

>  <SCORE.INTRA.VDW.0>
-0.53506

>  <SCORE.INTRA.norm>
-0.114404

>  <SCORE.RESTR>
0

>  <SCORE.RESTR.CAVITY>
0

>  <SCORE.RESTR.norm>
0

>  <SCORE.SYSTEM>
0

>  <SCORE.SYSTEM.CONST>
0

>  <SCORE.SYSTEM.DIHEDRAL>
0

>  <SCORE.SYSTEM.SOLV>
0

>  <SCORE.SYSTEM.norm>
0

>  <SCORE.heavy>
22

>  <SCORE.norm>
-1.22367

>  <RMSD>
1.965

$$$$
lig.pdb
 OpenBabel11021811523D
libRbt.so/2013.1/901 2013/11/27
 22 23  0  0  0  0  0  0  0  0999 V2000
   55.6337  -17.2886    7.5689 O   0  0  0  0  0  0  0  0  0  0  0  0
   56.7693  -17.3640    7.9753 C   0  0  0  0  0  0  0  0  0  0  0  0
   57.4463  -18.4986    7.9586 N   0  0  0  0  0  0  0  0  0  0  0  0
   57.4266  -16.1822    8.5510 C   0  0  0  0  0  0  0  0  0  0  0  0
   58.7177  -16.1924    9.2425 C   0  0  0  0  0  0  0  0  0  0  0  0
   59.4792  -17.2844    9.4686 N   0  0  0  0  0  0  0  0  0  0  0  0
   57.0400  -14.8970    8.5868 N   0  0  0  0  0  0  0  0  0  0  0  0
   58.0076  -14.1724    9.2138 C   0  0  0  0  0  0  0  0  0  0  0  0
   59.0377  -14.9572    9.6113 N   0  0  0  0  0  0  0  0  0  0  0  0
   60.2595  -14.4957   10.3253 C   0  0  1  0  0  0  0  0  0  0  0  0
   61.1555  -13.7549    9.3565 C   0  0  1  0  0  0  0  0  0  0  0  0
   61.7074  -12.6169   10.1754 C   0  0  2  0  0  0  0  0  0  0  0  0
   62.9362  -13.0160   10.7957 O   0  0  0  0  0  0  0  0  0  0  0  0
   62.1890  -14.6132    8.8488 O   0  0  0  0  0  0  0  0  0  0  0  0
   59.9137  -13.5552   11.3390 O   0  0  0  0  0  0  0  0  0  0  0  0
   60.6809  -12.3785   11.2522 C   0  0  2  0  0  0  0  0  0  0  0  0
   59.6967  -11.2558   10.9968 C   0  0  0  0  0  0  0  0  0  0  0  0
   58.6828  -11.2161   11.9799 O   0  0  0  0  0  0  0  0  0  0  0  0
   59.0911  -10.8652   13.4841 P   0  0  0  0  0  0  0  0  0  0  0  0
   59.8423  -12.0839   13.9815 O   0  0  0  0  0  0  0  0  0  0  0  0
   57.7500  -10.6354   14.1317 O   0  0  0  0  0  0  0  0  0  0  0  0
   59.8833   -9.5952   13.3418 O   0  0  0  0  0  0  0  0  0  0  0  0
  2  1  2  0  0  0  0
  2  4  1  0  0  0  0
  3  2  1  0  0  0  0
  4  7  1  0  0  0  0
  4  5  2  0  0  0  0
  5  6  1  0  0  0  0
  5  9  1  0  0  0  0
  7  8  2  0  0  0  0
  8  9  1  0  0  0  0
 10  9  1  6  0  0  0
 10 15  1  0  0  0  0
 11 14  1  1  0  0  0
 11 12  1  0  0  0  0
 11 10  1  0  0  0  0
 12 13  1  1  0  0  0
 12 16  1  0  0  0  0
 16 17  1  6  0  0  0
 16 15  1  0  0  0  0
 18 19  1  0  0  0  0
 18 17  1  0  0  0  0
 19 21  1  0  0  0  0
 20 19  1  0  0  0  0
 22 19  2  0  0  0  0
M  END
>  <CHROM.1>
170.93887622,106.89024885,172.90265955,-71.17829023,65.47547479,59.26504141
-13.69347359,10.62335739,1.83426764,-0.14381546,-2.43101620

>  <Name>
lig.pdb

>  <RI>
0

>  <Rbt.Current_Directory>
/home/itssahil/PROJECTS/Mol_Feturizer/New_Systems/rnas/4znp

>  <Rbt.Executable>
rbdock ($Id: //depot/dev/client3/rdock/2013.1/src/exe/rbdock.cxx#4 $)

>  <Rbt.Library>
libRbt.so (2013.1, Build901 2013/11/27)

>  <Rbt.Parameter_File>
/export/apps/rDock/src/rDock_2013.1_src/data/scripts/dock_solv.prm

>  <Rbt.Receptor>
prm/pocket_docking_5.prm

>  <SCORE>
-26.0168

>  <SCORE.INTER>
-20.8718

>  <SCORE.INTER.CONST>
1

>  <SCORE.INTER.POLAR>
0

>  <SCORE.INTER.ROT>
5

>  <SCORE.INTER.SOLV>
21.6099

>  <SCORE.INTER.VDW>
-28.0512

>  <SCORE.INTER.norm>
-0.948719

>  <SCORE.INTRA>
-5.14493

>  <SCORE.INTRA.DIHEDRAL>
-8.8049

>  <SCORE.INTRA.DIHEDRAL.0>
11.9251

>  <SCORE.INTRA.POLAR>
0

>  <SCORE.INTRA.POLAR.0>
0

>  <SCORE.INTRA.REPUL>
0

>  <SCORE.INTRA.REPUL.0>
0

>  <SCORE.INTRA.SOLV>
1.30486

>  <SCORE.INTRA.SOLV.lig_0>
-40.9823

>  <SCORE.INTRA.VDW>
-1.39491

>  <SCORE.INTRA.VDW.0>
-0.53506

>  <SCORE.INTRA.norm>
-0.23386

>  <SCORE.RESTR>
0

>  <SCORE.RESTR.CAVITY>
0

>  <SCORE.RESTR.norm>
0

>  <SCORE.SYSTEM>
0

>  <SCORE.SYSTEM.CONST>
0

>  <SCORE.SYSTEM.DIHEDRAL>
0

>  <SCORE.SYSTEM.SOLV>
0

>  <SCORE.SYSTEM.norm>
0

>  <SCORE.heavy>
22

>  <SCORE.norm>
-1.18258

>  <RMSD>
1.968

$$$$
lig.pdb
 OpenBabel11021811523D
libRbt.so/2013.1/901 2013/11/27
 22 23  0  0  0  0  0  0  0  0999 V2000
   56.0890  -17.2729    8.1301 O   0  0  0  0  0  0  0  0  0  0  0  0
   57.2610  -17.1624    8.4034 C   0  0  0  0  0  0  0  0  0  0  0  0
   58.0980  -18.1819    8.3278 N   0  0  0  0  0  0  0  0  0  0  0  0
   57.7893  -15.8758    8.8788 C   0  0  0  0  0  0  0  0  0  0  0  0
   59.1264  -15.6731    9.4413 C   0  0  0  0  0  0  0  0  0  0  0  0
   60.0565  -16.6349    9.6229 N   0  0  0  0  0  0  0  0  0  0  0  0
   57.2244  -14.6585    8.9158 N   0  0  0  0  0  0  0  0  0  0  0  0
   58.1298  -13.7778    9.4250 C   0  0  0  0  0  0  0  0  0  0  0  0
   59.2955  -14.3905    9.7423 N   0  0  0  0  0  0  0  0  0  0  0  0
   60.4976  -13.7301   10.3205 C   0  0  1  0  0  0  0  0  0  0  0  0
   61.6444  -13.8292    9.3381 C   0  0  1  0  0  0  0  0  0  0  0  0
   62.3384  -12.4973    9.4599 C   0  0  2  0  0  0  0  0  0  0  0  0
   63.3645  -12.5737   10.4575 O   0  0  0  0  0  0  0  0  0  0  0  0
   62.5104  -14.9275    9.6639 O   0  0  0  0  0  0  0  0  0  0  0  0
   60.2560  -12.3373   10.5039 O   0  0  0  0  0  0  0  0  0  0  0  0
   61.2730  -11.5456    9.9386 C   0  0  2  0  0  0  0  0  0  0  0  0
   60.6033  -10.7047    8.8713 C   0  0  0  0  0  0  0  0  0  0  0  0
   61.5484  -10.0052    8.0880 O   0  0  0  0  0  0  0  0  0  0  0  0
   62.2946   -8.7485    8.7334 P   0  0  0  0  0  0  0  0  0  0  0  0
   63.0248   -8.0906    7.5797 O   0  0  0  0  0  0  0  0  0  0  0  0
   63.1833   -9.4004    9.7610 O   0  0  0  0  0  0  0  0  0  0  0  0
   61.1754   -7.9638    9.3596 O   0  0  0  0  0  0  0  0  0  0  0  0
  2  1  2  0  0  0  0
  2  4  1  0  0  0  0
  3  2  1  0  0  0  0
  4  7  1  0  0  0  0
  4  5  2  0  0  0  0
  5  6  1  0  0  0  0
  5  9  1  0  0  0  0
  7  8  2  0  0  0  0
  8  9  1  0  0  0  0
 10  9  1  6  0  0  0
 10 15  1  0  0  0  0
 11 14  1  1  0  0  0
 11 12  1  0  0  0  0
 11 10  1  0  0  0  0
 12 13  1  1  0  0  0
 12 16  1  0  0  0  0
 16 17  1  6  0  0  0
 16 15  1  0  0  0  0
 18 19  1  0  0  0  0
 18 17  1  0  0  0  0
 19 21  1  0  0  0  0
 20 19  1  0  0  0  0
 22 19  2  0  0  0  0
M  END
>  <CHROM.1>
169.63203719,64.52921772,-53.28980123,-169.97454545,-73.54679776,60.49667522
-12.82146401,9.19741981,2.13662101,0.29969470,2.96557077

>  <Name>
lig.pdb

>  <RI>
0

>  <Rbt.Current_Directory>
/home/itssahil/PROJECTS/Mol_Feturizer/New_Systems/rnas/4znp

>  <Rbt.Executable>
rbdock ($Id: //depot/dev/client3/rdock/2013.1/src/exe/rbdock.cxx#4 $)

>  <Rbt.Library>
libRbt.so (2013.1, Build901 2013/11/27)

>  <Rbt.Parameter_File>
/export/apps/rDock/src/rDock_2013.1_src/data/scripts/dock_solv.prm

>  <Rbt.Receptor>
prm/pocket_docking_4.prm

>  <SCORE>
-25.84

>  <SCORE.INTER>
-21.4437

>  <SCORE.INTER.CONST>
1

>  <SCORE.INTER.POLAR>
0

>  <SCORE.INTER.ROT>
5

>  <SCORE.INTER.SOLV>
19.7302

>  <SCORE.INTER.VDW>
-27.8059

>  <SCORE.INTER.norm>
-0.974713

>  <SCORE.INTRA>
-4.3963

>  <SCORE.INTRA.DIHEDRAL>
-8.00298

>  <SCORE.INTRA.DIHEDRAL.0>
11.9251

>  <SCORE.INTRA.POLAR>
0

>  <SCORE.INTRA.POLAR.0>
0

>  <SCORE.INTRA.REPUL>
0

>  <SCORE.INTRA.REPUL.0>
0

>  <SCORE.INTRA.SOLV>
1.7396

>  <SCORE.INTRA.SOLV.lig_0>
-40.9823

>  <SCORE.INTRA.VDW>
-1.26461

>  <SCORE.INTRA.VDW.0>
-0.53506

>  <SCORE.INTRA.norm>
-0.199832

>  <SCORE.RESTR>
0

>  <SCORE.RESTR.CAVITY>
0

>  <SCORE.RESTR.norm>
0

>  <SCORE.SYSTEM>
0

>  <SCORE.SYSTEM.CONST>
0

>  <SCORE.SYSTEM.DIHEDRAL>
0

>  <SCORE.SYSTEM.SOLV>
0

>  <SCORE.SYSTEM.norm>
0

>  <SCORE.heavy>
22

>  <SCORE.norm>
-1.17455

>  <RMSD>
1.972

$$$$
lig.pdb
 OpenBabel11021811523D
libRbt.so/2013.1/901 2013/11/27
 22 23  0  0  0  0  0  0  0  0999 V2000
   56.4797  -18.3530    8.3754 O   0  0  0  0  0  0  0  0  0  0  0  0
   56.9177  -17.2348    8.5104 C   0  0  0  0  0  0  0  0  0  0  0  0
   56.1735  -16.1613    8.3114 N   0  0  0  0  0  0  0  0  0  0  0  0
   58.3300  -17.0336    8.8641 C   0  0  0  0  0  0  0  0  0  0  0  0
   58.9286  -15.7490    9.2340 C   0  0  0  0  0  0  0  0  0  0  0  0
   58.2802  -14.5657    9.2849 N   0  0  0  0  0  0  0  0  0  0  0  0
   59.3477  -17.9067    8.9310 N   0  0  0  0  0  0  0  0  0  0  0  0
   60.4647  -17.2379    9.3307 C   0  0  0  0  0  0  0  0  0  0  0  0
   60.2136  -15.9207    9.5231 N   0  0  0  0  0  0  0  0  0  0  0  0
   61.2048  -14.8995    9.9591 C   0  0  1  0  0  0  0  0  0  0  0  0
   61.7949  -14.2227    8.7410 C   0  0  1  0  0  0  0  0  0  0  0  0
   61.9258  -12.7809    9.1588 C   0  0  2  0  0  0  0  0  0  0  0  0
   63.2169  -12.5588    9.7400 O   0  0  0  0  0  0  0  0  0  0  0  0
   63.0592  -14.8053    8.3879 O   0  0  0  0  0  0  0  0  0  0  0  0
   60.5590  -13.8716   10.7061 O   0  0  0  0  0  0  0  0  0  0  0  0
   60.8793  -12.5882   10.2254 C   0  0  2  0  0  0  0  0  0  0  0  0
   59.5714  -11.9736    9.7713 C   0  0  0  0  0  0  0  0  0  0  0  0
   58.7852  -11.5503   10.8661 O   0  0  0  0  0  0  0  0  0  0  0  0
   59.3384  -10.3727   11.7935 P   0  0  0  0  0  0  0  0  0  0  0  0
   59.8473   -9.3199   10.8293 O   0  0  0  0  0  0  0  0  0  0  0  0
   60.4061  -11.0735   12.5932 O   0  0  0  0  0  0  0  0  0  0  0  0
   58.1465  -10.0013   12.6315 O   0  0  0  0  0  0  0  0  0  0  0  0
  2  1  2  0  0  0  0
  2  4  1  0  0  0  0
  3  2  1  0  0  0  0
  4  7  1  0  0  0  0
  4  5  2  0  0  0  0
  5  6  1  0  0  0  0
  5  9  1  0  0  0  0
  7  8  2  0  0  0  0
  8  9  1  0  0  0  0
 10  9  1  6  0  0  0
 10 15  1  0  0  0  0
 11 14  1  1  0  0  0
 11 12  1  0  0  0  0
 11 10  1  0  0  0  0
 12 13  1  1  0  0  0
 12 16  1  0  0  0  0
 16 17  1  6  0  0  0
 16 15  1  0  0  0  0
 18 19  1  0  0  0  0
 18 17  1  0  0  0  0
 19 21  1  0  0  0  0
 20 19  1  0  0  0  0
 22 19  2  0  0  0  0
M  END
>  <CHROM.1>
-171.10413363,-85.31231217,-166.33363095,45.42330328,64.55302709,59.72538757
-13.78917718,9.96578061,1.79294744,-0.14337788,-2.71335484

>  <Name>
lig.pdb

>  <RI>
0

>  <Rbt.Current_Directory>
/home/itssahil/PROJECTS/Mol_Feturizer/New_Systems/rnas/4znp

>  <Rbt.Executable>
rbdock ($Id: //depot/dev/client3/rdock/2013.1/src/exe/rbdock.cxx#4 $)

>  <Rbt.Library>
libRbt.so (2013.1, Build901 2013/11/27)

>  <Rbt.Parameter_File>
/export/apps/rDock/src/rDock_2013.1_src/data/scripts/dock_solv.prm

>  <Rbt.Receptor>
prm/pocket_docking_2.prm

>  <SCORE>
-22.8471

>  <SCORE.INTER>
-18.3333

>  <SCORE.INTER.CONST>
1

>  <SCORE.INTER.POLAR>
0

>  <SCORE.INTER.ROT>
5

>  <SCORE.INTER.SOLV>
19.9871

>  <SCORE.INTER.VDW>
-25.8179

>  <SCORE.INTER.norm>
-0.833332

>  <SCORE.INTRA>
-4.51375

>  <SCORE.INTRA.DIHEDRAL>
-8.09955

>  <SCORE.INTRA.DIHEDRAL.0>
11.9251

>  <SCORE.INTRA.POLAR>
0

>  <SCORE.INTRA.POLAR.0>
0

>  <SCORE.INTRA.REPUL>
0.00528235

>  <SCORE.INTRA.REPUL.0>
0

>  <SCORE.INTRA.SOLV>
2.04226

>  <SCORE.INTRA.SOLV.lig_0>
-40.9823

>  <SCORE.INTRA.VDW>
-1.51151

>  <SCORE.INTRA.VDW.0>
-0.53506

>  <SCORE.INTRA.norm>
-0.20517

>  <SCORE.RESTR>
0

>  <SCORE.RESTR.CAVITY>
0

>  <SCORE.RESTR.norm>
0

>  <SCORE.SYSTEM>
0

>  <SCORE.SYSTEM.CONST>
0

>  <SCORE.SYSTEM.DIHEDRAL>
0

>  <SCORE.SYSTEM.SOLV>
0

>  <SCORE.SYSTEM.norm>
0

>  <SCORE.heavy>
22

>  <SCORE.norm>
-1.0385

>  <RMSD>
1.979

$$$$
lig.pdb
 OpenBabel11021811523D
libRbt.so/2013.1/901 2013/11/27
 22 23  0  0  0  0  0  0  0  0999 V2000
   56.4440  -18.3599    8.3394 O   0  0  0  0  0  0  0  0  0  0  0  0
   56.8879  -17.2463    8.4916 C   0  0  0  0  0  0  0  0  0  0  0  0
   56.1525  -16.1657    8.2987 N   0  0  0  0  0  0  0  0  0  0  0  0
   58.2982  -17.0586    8.8603 C   0  0  0  0  0  0  0  0  0  0  0  0
   58.9020  -15.7822    9.2498 C   0  0  0  0  0  0  0  0  0  0  0  0
   58.2610  -14.5951    9.3079 N   0  0  0  0  0  0  0  0  0  0  0  0
   59.3094  -17.9392    8.9268 N   0  0  0  0  0  0  0  0  0  0  0  0
   60.4271  -17.2824    9.3439 C   0  0  0  0  0  0  0  0  0  0  0  0
   60.1831  -15.9658    9.5486 N   0  0  0  0  0  0  0  0  0  0  0  0
   61.1771  -14.9562   10.0049 C   0  0  1  0  0  0  0  0  0  0  0  0
   61.7926  -14.2795    8.7993 C   0  0  1  0  0  0  0  0  0  0  0  0
   61.9307  -12.8409    9.2259 C   0  0  2  0  0  0  0  0  0  0  0  0
   63.2146  -12.6340    9.8282 O   0  0  0  0  0  0  0  0  0  0  0  0
   63.0566  -14.8726    8.4631 O   0  0  0  0  0  0  0  0  0  0  0  0
   60.5295  -13.9255   10.7465 O   0  0  0  0  0  0  0  0  0  0  0  0
   60.8695  -12.6431   10.2770 C   0  0  2  0  0  0  0  0  0  0  0  0
   59.5748  -12.0139    9.8055 C   0  0  0  0  0  0  0  0  0  0  0  0
   58.7896  -11.5600   10.8888 O   0  0  0  0  0  0  0  0  0  0  0  0
   59.3573  -10.3771   11.8005 P   0  0  0  0  0  0  0  0  0  0  0  0
   59.8577   -9.3332   10.8224 O   0  0  0  0  0  0  0  0  0  0  0  0
   60.4325  -11.0750   12.5928 O   0  0  0  0  0  0  0  0  0  0  0  0
   58.1766   -9.9959   12.6498 O   0  0  0  0  0  0  0  0  0  0  0  0
  2  1  2  0  0  0  0
  2  4  1  0  0  0  0
  3  2  1  0  0  0  0
  4  7  1  0  0  0  0
  4  5  2  0  0  0  0
  5  6  1  0  0  0  0
  5  9  1  0  0  0  0
  7  8  2  0  0  0  0
  8  9  1  0  0  0  0
 10  9  1  6  0  0  0
 10 15  1  0  0  0  0
 11 14  1  1  0  0  0
 11 12  1  0  0  0  0
 11 10  1  0  0  0  0
 12 13  1  1  0  0  0
 12 16  1  0  0  0  0
 16 17  1  6  0  0  0
 16 15  1  0  0  0  0
 18 19  1  0  0  0  0
 18 17  1  0  0  0  0
 19 21  1  0  0  0  0
 20 19  1  0  0  0  0
 22 19  2  0  0  0  0
M  END
>  <CHROM.1>
-171.15538148,-85.85797114,-164.96707689,46.79178201,64.56727766,59.71666928
-13.82008941,9.98807579,1.79786698,-0.12269505,-2.71473525

>  <Name>
lig.pdb

>  <RI>
0

>  <Rbt.Current_Directory>
/home/itssahil/PROJECTS/Mol_Feturizer/New_Systems/rnas/4znp

>  <Rbt.Executable>
rbdock ($Id: //depot/dev/client3/rdock/2013.1/src/exe/rbdock.cxx#4 $)

>  <Rbt.Library>
libRbt.so (2013.1, Build901 2013/11/27)

>  <Rbt.Parameter_File>
/export/apps/rDock/src/rDock_2013.1_src/data/scripts/dock_solv.prm

>  <Rbt.Receptor>
prm/pocket_docking_2.prm

>  <SCORE>
-22.8812

>  <SCORE.INTER>
-18.3988

>  <SCORE.INTER.CONST>
1

>  <SCORE.INTER.POLAR>
0

>  <SCORE.INTER.ROT>
5

>  <SCORE.INTER.SOLV>
20.1753

>  <SCORE.INTER.VDW>
-25.9243

>  <SCORE.INTER.norm>
-0.836307

>  <SCORE.INTRA>
-4.48243

>  <SCORE.INTRA.DIHEDRAL>
-8.02865

>  <SCORE.INTRA.DIHEDRAL.0>
11.9251

>  <SCORE.INTRA.POLAR>
0

>  <SCORE.INTRA.POLAR.0>
0

>  <SCORE.INTRA.REPUL>
0

>  <SCORE.INTRA.REPUL.0>
0

>  <SCORE.INTRA.SOLV>
2.03245

>  <SCORE.INTRA.SOLV.lig_0>
-40.9823

>  <SCORE.INTRA.VDW>
-1.48433

>  <SCORE.INTRA.VDW.0>
-0.53506

>  <SCORE.INTRA.norm>
-0.203747

>  <SCORE.RESTR>
0

>  <SCORE.RESTR.CAVITY>
0

>  <SCORE.RESTR.norm>
0

>  <SCORE.SYSTEM>
0

>  <SCORE.SYSTEM.CONST>
0

>  <SCORE.SYSTEM.DIHEDRAL>
0

>  <SCORE.SYSTEM.SOLV>
0

>  <SCORE.SYSTEM.norm>
0

>  <SCORE.heavy>
22

>  <SCORE.norm>
-1.04005

>  <RMSD>
1.979

$$$$
lig.pdb
 OpenBabel11021811523D
libRbt.so/2013.1/901 2013/11/27
 22 23  0  0  0  0  0  0  0  0999 V2000
   57.5589  -18.4258    8.0050 O   0  0  0  0  0  0  0  0  0  0  0  0
   56.8937  -17.4245    8.1288 C   0  0  0  0  0  0  0  0  0  0  0  0
   55.6311  -17.3691    7.7434 N   0  0  0  0  0  0  0  0  0  0  0  0
   57.4955  -16.2031    8.6823 C   0  0  0  0  0  0  0  0  0  0  0  0
   58.7984  -16.1358    9.3480 C   0  0  0  0  0  0  0  0  0  0  0  0
   59.6236  -17.1819    9.5673 N   0  0  0  0  0  0  0  0  0  0  0  0
   57.0389  -14.9410    8.7160 N   0  0  0  0  0  0  0  0  0  0  0  0
   57.9769  -14.1585    9.3181 C   0  0  0  0  0  0  0  0  0  0  0  0
   59.0565  -14.8816    9.7010 N   0  0  0  0  0  0  0  0  0  0  0  0
   60.2644  -14.3470   10.3869 C   0  0  1  0  0  0  0  0  0  0  0  0
   61.0410  -13.4741    9.4250 C   0  0  1  0  0  0  0  0  0  0  0  0
   61.5261  -12.3354   10.2843 C   0  0  2  0  0  0  0  0  0  0  0  0
   62.8149  -12.6507   10.8262 O   0  0  0  0  0  0  0  0  0  0  0  0
   62.1224  -14.2030    8.8236 O   0  0  0  0  0  0  0  0  0  0  0  0
   59.8841  -13.4994   11.4679 O   0  0  0  0  0  0  0  0  0  0  0  0
   60.5358  -12.2530   11.4168 C   0  0  2  0  0  0  0  0  0  0  0  0
   59.4421  -11.2153   11.2705 C   0  0  0  0  0  0  0  0  0  0  0  0
   58.4851  -11.3155   12.3050 O   0  0  0  0  0  0  0  0  0  0  0  0
   58.9381  -10.9782   13.7995 P   0  0  0  0  0  0  0  0  0  0  0  0
   59.8497  -12.1205   14.2007 O   0  0  0  0  0  0  0  0  0  0  0  0
   57.6196  -10.9295   14.5275 O   0  0  0  0  0  0  0  0  0  0  0  0
   59.5723   -9.6209   13.6723 O   0  0  0  0  0  0  0  0  0  0  0  0
  2  1  2  0  0  0  0
  2  4  1  0  0  0  0
  3  2  1  0  0  0  0
  4  7  1  0  0  0  0
  4  5  2  0  0  0  0
  5  6  1  0  0  0  0
  5  9  1  0  0  0  0
  7  8  2  0  0  0  0
  8  9  1  0  0  0  0
 10  9  1  6  0  0  0
 10 15  1  0  0  0  0
 11 14  1  1  0  0  0
 11 12  1  0  0  0  0
 11 10  1  0  0  0  0
 12 13  1  1  0  0  0
 12 16  1  0  0  0  0
 16 17  1  6  0  0  0
 16 15  1  0  0  0  0
 18 19  1  0  0  0  0
 18 17  1  0  0  0  0
 19 21  1  0  0  0  0
 20 19  1  0  0  0  0
 22 19  2  0  0  0  0
M  END
>  <CHROM.1>
-12.12715114,111.42428799,173.49627520,-70.44662524,66.36469790,59.21344358
-13.65302340,10.79236312,1.80205459,-0.24734985,-2.38996036

>  <Name>
lig.pdb

>  <RI>
0

>  <Rbt.Current_Directory>
/home/itssahil/PROJECTS/Mol_Feturizer/New_Systems/rnas/4znp

>  <Rbt.Executable>
rbdock ($Id: //depot/dev/client3/rdock/2013.1/src/exe/rbdock.cxx#4 $)

>  <Rbt.Library>
libRbt.so (2013.1, Build901 2013/11/27)

>  <Rbt.Parameter_File>
/export/apps/rDock/src/rDock_2013.1_src/data/scripts/dock_solv.prm

>  <Rbt.Receptor>
prm/pocket_docking_4.prm

>  <SCORE>
-26.6529

>  <SCORE.INTER>
-21.4177

>  <SCORE.INTER.CONST>
1

>  <SCORE.INTER.POLAR>
0

>  <SCORE.INTER.ROT>
5

>  <SCORE.INTER.SOLV>
21.1993

>  <SCORE.INTER.VDW>
-28.2782

>  <SCORE.INTER.norm>
-0.973531

>  <SCORE.INTRA>
-5.23524

>  <SCORE.INTRA.DIHEDRAL>
-8.59837

>  <SCORE.INTRA.DIHEDRAL.0>
11.9251

>  <SCORE.INTRA.POLAR>
0

>  <SCORE.INTRA.POLAR.0>
0

>  <SCORE.INTRA.REPUL>
0

>  <SCORE.INTRA.REPUL.0>
0

>  <SCORE.INTRA.SOLV>
0.992931

>  <SCORE.INTRA.SOLV.lig_0>
-40.9823

>  <SCORE.INTRA.VDW>
-1.43252

>  <SCORE.INTRA.VDW.0>
-0.53506

>  <SCORE.INTRA.norm>
-0.237965

>  <SCORE.RESTR>
0

>  <SCORE.RESTR.CAVITY>
0

>  <SCORE.RESTR.norm>
0

>  <SCORE.SYSTEM>
0

>  <SCORE.SYSTEM.CONST>
0

>  <SCORE.SYSTEM.DIHEDRAL>
0

>  <SCORE.SYSTEM.SOLV>
0

>  <SCORE.SYSTEM.norm>
0

>  <SCORE.heavy>
22

>  <SCORE.norm>
-1.2115

>  <RMSD>
1.986

$$$$
lig.pdb
 OpenBabel11021811523D
libRbt.so/2013.1/901 2013/11/27
 22 23  0  0  0  0  0  0  0  0999 V2000
   56.5637  -17.8409    8.2836 O   0  0  0  0  0  0  0  0  0  0  0  0
   57.0026  -16.7505    8.5643 C   0  0  0  0  0  0  0  0  0  0  0  0
   56.2566  -15.6609    8.5175 N   0  0  0  0  0  0  0  0  0  0  0  0
   58.4177  -16.5969    8.9304 C   0  0  0  0  0  0  0  0  0  0  0  0
   59.0685  -15.3252    9.2539 C   0  0  0  0  0  0  0  0  0  0  0  0
   58.4733  -14.1132    9.2442 N   0  0  0  0  0  0  0  0  0  0  0  0
   59.3941  -17.5105    9.0501 N   0  0  0  0  0  0  0  0  0  0  0  0
   60.5347  -16.8751    9.4376 C   0  0  0  0  0  0  0  0  0  0  0  0
   60.3405  -15.5410    9.5695 N   0  0  0  0  0  0  0  0  0  0  0  0
   61.3707  -14.5467    9.9764 C   0  0  1  0  0  0  0  0  0  0  0  0
   61.5192  -13.5059    8.8880 C   0  0  1  0  0  0  0  0  0  0  0  0
   61.7082  -12.2174    9.6459 C   0  0  2  0  0  0  0  0  0  0  0  0
   63.1048  -11.9860    9.8699 O   0  0  0  0  0  0  0  0  0  0  0  0
   62.6348  -13.8058    8.0348 O   0  0  0  0  0  0  0  0  0  0  0  0
   60.9446  -13.8415   11.1395 O   0  0  0  0  0  0  0  0  0  0  0  0
   61.0398  -12.4469   10.9765 C   0  0  2  0  0  0  0  0  0  0  0  0
   59.6290  -11.9129   11.1136 C   0  0  0  0  0  0  0  0  0  0  0  0
   59.6142  -10.5079   11.2617 O   0  0  0  0  0  0  0  0  0  0  0  0
   58.2091   -9.7768   11.4706 P   0  0  0  0  0  0  0  0  0  0  0  0
   57.5205   -9.8573   10.1230 O   0  0  0  0  0  0  0  0  0  0  0  0
   58.6308   -8.3919   11.8888 O   0  0  0  0  0  0  0  0  0  0  0  0
   57.5801  -10.5484   12.5975 O   0  0  0  0  0  0  0  0  0  0  0  0
  2  1  2  0  0  0  0
  2  4  1  0  0  0  0
  3  2  1  0  0  0  0
  4  7  1  0  0  0  0
  4  5  2  0  0  0  0
  5  6  1  0  0  0  0
  5  9  1  0  0  0  0
  7  8  2  0  0  0  0
  8  9  1  0  0  0  0
 10  9  1  6  0  0  0
 10 15  1  0  0  0  0
 11 14  1  6  0  0  0
 11 12  1  0  0  0  0
 11 10  1  0  0  0  0
 12 13  1  1  0  0  0
 12 16  1  0  0  0  0
 16 17  1  6  0  0  0
 16 15  1  0  0  0  0
 18 19  1  0  0  0  0
 18 17  1  0  0  0  0
 19 21  1  0  0  0  0
 20 19  1  0  0  0  0
 22 19  2  0  0  0  0
M  END
>  <CHROM.1>
178.28296938,-57.91896532,-74.94575685,-71.79198541,-177.91438408,59.45919454
-13.29375593,10.02608082,1.60067350,-0.07815686,-2.76880348

>  <Name>
lig.pdb

>  <RI>
0

>  <Rbt.Current_Directory>
/home/itssahil/PROJECTS/Mol_Feturizer/New_Systems/rnas/4znp

>  <Rbt.Executable>
rbdock ($Id: //depot/dev/client3/rdock/2013.1/src/exe/rbdock.cxx#4 $)

>  <Rbt.Library>
libRbt.so (2013.1, Build901 2013/11/27)

>  <Rbt.Parameter_File>
/export/apps/rDock/src/rDock_2013.1_src/data/scripts/dock_solv.prm

>  <Rbt.Receptor>
prm/pocket_docking_4.prm

>  <SCORE>
-22.7403

>  <SCORE.INTER>
-17.416

>  <SCORE.INTER.CONST>
1

>  <SCORE.INTER.POLAR>
0

>  <SCORE.INTER.ROT>
5

>  <SCORE.INTER.SOLV>
20.2975

>  <SCORE.INTER.VDW>
-25.3099

>  <SCORE.INTER.norm>
-0.791638

>  <SCORE.INTRA>
-5.32425

>  <SCORE.INTRA.DIHEDRAL>
-8.52168

>  <SCORE.INTRA.DIHEDRAL.0>
11.9251

>  <SCORE.INTRA.POLAR>
0

>  <SCORE.INTRA.POLAR.0>
0

>  <SCORE.INTRA.REPUL>
0

>  <SCORE.INTRA.REPUL.0>
0

>  <SCORE.INTRA.SOLV>
1.36681

>  <SCORE.INTRA.SOLV.lig_0>
-40.9823

>  <SCORE.INTRA.VDW>
-1.74681

>  <SCORE.INTRA.VDW.0>
-0.53506

>  <SCORE.INTRA.norm>
-0.242011

>  <SCORE.RESTR>
0

>  <SCORE.RESTR.CAVITY>
0

>  <SCORE.RESTR.norm>
0

>  <SCORE.SYSTEM>
0

>  <SCORE.SYSTEM.CONST>
0

>  <SCORE.SYSTEM.DIHEDRAL>
0

>  <SCORE.SYSTEM.SOLV>
0

>  <SCORE.SYSTEM.norm>
0

>  <SCORE.heavy>
22

>  <SCORE.norm>
-1.03365

>  <RMSD>
1.988

$$$$
lig.pdb
 OpenBabel11021811523D
libRbt.so/2013.1/901 2013/11/27
 22 23  0  0  0  0  0  0  0  0999 V2000
   56.0956  -15.9718    8.2403 O   0  0  0  0  0  0  0  0  0  0  0  0
   56.7636  -16.9602    8.4334 C   0  0  0  0  0  0  0  0  0  0  0  0
   56.2671  -18.1781    8.3066 N   0  0  0  0  0  0  0  0  0  0  0  0
   58.1624  -16.8321    8.8659 C   0  0  0  0  0  0  0  0  0  0  0  0
   58.8224  -15.5712    9.2124 C   0  0  0  0  0  0  0  0  0  0  0  0
   58.2527  -14.3478    9.1668 N   0  0  0  0  0  0  0  0  0  0  0  0
   59.1135  -17.7639    9.0378 N   0  0  0  0  0  0  0  0  0  0  0  0
   60.2468  -17.1484    9.4755 C   0  0  0  0  0  0  0  0  0  0  0  0
   60.0733  -15.8098    9.5898 N   0  0  0  0  0  0  0  0  0  0  0  0
   61.1027  -14.8332   10.0394 C   0  0  1  0  0  0  0  0  0  0  0  0
   61.7641  -14.2103    8.8292 C   0  0  1  0  0  0  0  0  0  0  0  0
   61.9572  -12.7698    9.2264 C   0  0  2  0  0  0  0  0  0  0  0  0
   63.2398  -12.6039    9.8439 O   0  0  0  0  0  0  0  0  0  0  0  0
   63.0064  -14.8638    8.5256 O   0  0  0  0  0  0  0  0  0  0  0  0
   60.4889  -13.7597   10.7483 O   0  0  0  0  0  0  0  0  0  0  0  0
   60.8902  -12.5036   10.2563 C   0  0  2  0  0  0  0  0  0  0  0  0
   59.6305  -11.8309    9.7512 C   0  0  0  0  0  0  0  0  0  0  0  0
   58.8041  -11.4037   10.8145 O   0  0  0  0  0  0  0  0  0  0  0  0
   59.3671  -10.3003   11.8235 P   0  0  0  0  0  0  0  0  0  0  0  0
   59.9238   -9.2048   10.9364 O   0  0  0  0  0  0  0  0  0  0  0  0
   60.3988  -11.0772   12.5999 O   0  0  0  0  0  0  0  0  0  0  0  0
   58.1673   -9.9486   12.6586 O   0  0  0  0  0  0  0  0  0  0  0  0
  2  1  2  0  0  0  0
  2  4  1  0  0  0  0
  3  2  1  0  0  0  0
  4  7  1  0  0  0  0
  4  5  2  0  0  0  0
  5  6  1  0  0  0  0
  5  9  1  0  0  0  0
  7  8  2  0  0  0  0
  8  9  1  0  0  0  0
 10  9  1  6  0  0  0
 10 15  1  0  0  0  0
 11 14  1  1  0  0  0
 11 12  1  0  0  0  0
 11 10  1  0  0  0  0
 12 13  1  1  0  0  0
 12 16  1  0  0  0  0
 16 17  1  6  0  0  0
 16 15  1  0  0  0  0
 18 19  1  0  0  0  0
 18 17  1  0  0  0  0
 19 21  1  0  0  0  0
 20 19  1  0  0  0  0
 22 19  2  0  0  0  0
M  END
>  <CHROM.1>
5.80925845,-82.68003679,-169.12844614,48.64178022,62.74963173,59.67160732
-13.67682107,9.99414865,1.82574062,-0.09782725,-2.70789924

>  <Name>
lig.pdb

>  <RI>
0

>  <Rbt.Current_Directory>
/home/itssahil/PROJECTS/Mol_Feturizer/New_Systems/rnas/4znp

>  <Rbt.Executable>
rbdock ($Id: //depot/dev/client3/rdock/2013.1/src/exe/rbdock.cxx#4 $)

>  <Rbt.Library>
libRbt.so (2013.1, Build901 2013/11/27)

>  <Rbt.Parameter_File>
/export/apps/rDock/src/rDock_2013.1_src/data/scripts/dock_solv.prm

>  <Rbt.Receptor>
prm/pocket_docking_2.prm

>  <SCORE>
-23.0995

>  <SCORE.INTER>
-18.2865

>  <SCORE.INTER.CONST>
1

>  <SCORE.INTER.POLAR>
0

>  <SCORE.INTER.ROT>
5

>  <SCORE.INTER.SOLV>
19.6511

>  <SCORE.INTER.VDW>
-25.6747

>  <SCORE.INTER.norm>
-0.831207

>  <SCORE.INTRA>
-4.81293

>  <SCORE.INTRA.DIHEDRAL>
-8.69056

>  <SCORE.INTRA.DIHEDRAL.0>
11.9251

>  <SCORE.INTRA.POLAR>
0

>  <SCORE.INTRA.POLAR.0>
0

>  <SCORE.INTRA.REPUL>
0.00480082

>  <SCORE.INTRA.REPUL.0>
0

>  <SCORE.INTRA.SOLV>
1.87362

>  <SCORE.INTRA.SOLV.lig_0>
-40.9823

>  <SCORE.INTRA.VDW>
-1.42847

>  <SCORE.INTRA.VDW.0>
-0.53506

>  <SCORE.INTRA.norm>
-0.21877

>  <SCORE.RESTR>
0

>  <SCORE.RESTR.CAVITY>
0

>  <SCORE.RESTR.norm>
0

>  <SCORE.SYSTEM>
0

>  <SCORE.SYSTEM.CONST>
0

>  <SCORE.SYSTEM.DIHEDRAL>
0

>  <SCORE.SYSTEM.SOLV>
0

>  <SCORE.SYSTEM.norm>
0

>  <SCORE.heavy>
22

>  <SCORE.norm>
-1.04998

>  <RMSD>
1.992

$$$$
lig.pdb
 OpenBabel11021811523D
libRbt.so/2013.1/901 2013/11/27
 22 23  0  0  0  0  0  0  0  0999 V2000
   55.9648  -17.1411    7.9810 O   0  0  0  0  0  0  0  0  0  0  0  0
   57.1250  -17.0944    8.3159 C   0  0  0  0  0  0  0  0  0  0  0  0
   57.9056  -18.1601    8.2913 N   0  0  0  0  0  0  0  0  0  0  0  0
   57.6995  -15.8355    8.8112 C   0  0  0  0  0  0  0  0  0  0  0  0
   59.0389  -15.6922    9.3863 C   0  0  0  0  0  0  0  0  0  0  0  0
   59.9292  -16.6920    9.5629 N   0  0  0  0  0  0  0  0  0  0  0  0
   57.1825  -14.5974    8.8592 N   0  0  0  0  0  0  0  0  0  0  0  0
   58.1176  -13.7592    9.3861 C   0  0  0  0  0  0  0  0  0  0  0  0
   59.2559  -14.4210    9.7044 N   0  0  0  0  0  0  0  0  0  0  0  0
   60.4782  -13.8154   10.2999 C   0  0  1  0  0  0  0  0  0  0  0  0
   61.6327  -13.9647    9.3329 C   0  0  1  0  0  0  0  0  0  0  0  0
   62.3837  -12.6652    9.4661 C   0  0  2  0  0  0  0  0  0  0  0  0
   63.3918  -12.7882   10.4773 O   0  0  0  0  0  0  0  0  0  0  0  0
   62.4444  -15.1009    9.6687 O   0  0  0  0  0  0  0  0  0  0  0  0
   60.2965  -12.4135   10.4820 O   0  0  0  0  0  0  0  0  0  0  0  0
   61.3554  -11.6674    9.9317 C   0  0  2  0  0  0  0  0  0  0  0  0
   60.7384  -10.7965    8.8568 C   0  0  0  0  0  0  0  0  0  0  0  0
   61.7236  -10.1201    8.1032 O   0  0  0  0  0  0  0  0  0  0  0  0
   62.4776   -8.8796    8.7706 P   0  0  0  0  0  0  0  0  0  0  0  0
   63.3768   -8.3337    7.6796 O   0  0  0  0  0  0  0  0  0  0  0  0
   63.1976   -9.5290    9.9241 O   0  0  0  0  0  0  0  0  0  0  0  0
   61.3519   -7.9924    9.2248 O   0  0  0  0  0  0  0  0  0  0  0  0
  2  1  2  0  0  0  0
  2  4  1  0  0  0  0
  3  2  1  0  0  0  0
  4  7  1  0  0  0  0
  4  5  2  0  0  0  0
  5  6  1  0  0  0  0
  5  9  1  0  0  0  0
  7  8  2  0  0  0  0
  8  9  1  0  0  0  0
 10  9  1  6  0  0  0
 10 15  1  0  0  0  0
 11 14  1  1  0  0  0
 11 12  1  0  0  0  0
 11 10  1  0  0  0  0
 12 13  1  1  0  0  0
 12 16  1  0  0  0  0
 16 17  1  6  0  0  0
 16 15  1  0  0  0  0
 18 19  1  0  0  0  0
 18 17  1  0  0  0  0
 19 21  1  0  0  0  0
 20 19  1  0  0  0  0
 22 19  2  0  0  0  0
M  END
>  <CHROM.1>
172.64490557,63.75021936,-54.36735107,-176.06179473,-74.43690883,60.52333966
-12.89508117,9.18182155,2.17869154,0.30664499,2.95868579

>  <Name>
lig.pdb

>  <RI>
0

>  <Rbt.Current_Directory>
/home/itssahil/PROJECTS/Mol_Feturizer/New_Systems/rnas/4znp

>  <Rbt.Executable>
rbdock ($Id: //depot/dev/client3/rdock/2013.1/src/exe/rbdock.cxx#4 $)

>  <Rbt.Library>
libRbt.so (2013.1, Build901 2013/11/27)

>  <Rbt.Parameter_File>
/export/apps/rDock/src/rDock_2013.1_src/data/scripts/dock_solv.prm

>  <Rbt.Receptor>
prm/pocket_docking_8.prm

>  <SCORE>
-26.3788

>  <SCORE.INTER>
-21.8786

>  <SCORE.INTER.CONST>
1

>  <SCORE.INTER.POLAR>
0

>  <SCORE.INTER.ROT>
5

>  <SCORE.INTER.SOLV>
20.2635

>  <SCORE.INTER.VDW>
-28.2736

>  <SCORE.INTER.norm>
-0.994481

>  <SCORE.INTRA>
-4.50017

>  <SCORE.INTRA.DIHEDRAL>
-8.24839

>  <SCORE.INTRA.DIHEDRAL.0>
11.9251

>  <SCORE.INTRA.POLAR>
0

>  <SCORE.INTRA.POLAR.0>
0

>  <SCORE.INTRA.REPUL>
0

>  <SCORE.INTRA.REPUL.0>
0

>  <SCORE.INTRA.SOLV>
1.66909

>  <SCORE.INTRA.SOLV.lig_0>
-40.9823

>  <SCORE.INTRA.VDW>
-1.21052

>  <SCORE.INTRA.VDW.0>
-0.53506

>  <SCORE.INTRA.norm>
-0.204553

>  <SCORE.RESTR>
0

>  <SCORE.RESTR.CAVITY>
0

>  <SCORE.RESTR.norm>
0

>  <SCORE.SYSTEM>
0

>  <SCORE.SYSTEM.CONST>
0

>  <SCORE.SYSTEM.DIHEDRAL>
0

>  <SCORE.SYSTEM.SOLV>
0

>  <SCORE.SYSTEM.norm>
0

>  <SCORE.heavy>
22

>  <SCORE.norm>
-1.19903

>  <RMSD>
2.003

$$$$
lig.pdb
 OpenBabel11021811523D
libRbt.so/2013.1/901 2013/11/27
 22 23  0  0  0  0  0  0  0  0999 V2000
   55.6373  -17.2580    7.6532 O   0  0  0  0  0  0  0  0  0  0  0  0
   56.7803  -17.3355    8.0380 C   0  0  0  0  0  0  0  0  0  0  0  0
   57.4583  -18.4689    7.9987 N   0  0  0  0  0  0  0  0  0  0  0  0
   57.4465  -16.1580    8.6123 C   0  0  0  0  0  0  0  0  0  0  0  0
   58.7539  -16.1712    9.2725 C   0  0  0  0  0  0  0  0  0  0  0  0
   59.5250  -17.2625    9.4668 N   0  0  0  0  0  0  0  0  0  0  0  0
   57.0557  -14.8750    8.6733 N   0  0  0  0  0  0  0  0  0  0  0  0
   58.0353  -14.1540    9.2858 C   0  0  0  0  0  0  0  0  0  0  0  0
   59.0778  -14.9392    9.6488 N   0  0  0  0  0  0  0  0  0  0  0  0
   60.3145  -14.4812   10.3388 C   0  0  1  0  0  0  0  0  0  0  0  0
   61.1723  -13.7031    9.3647 C   0  0  1  0  0  0  0  0  0  0  0  0
   61.7344  -12.5804   10.1977 C   0  0  2  0  0  0  0  0  0  0  0  0
   62.9859  -12.9802   10.7706 O   0  0  0  0  0  0  0  0  0  0  0  0
   62.2006  -14.5340    8.8037 O   0  0  0  0  0  0  0  0  0  0  0  0
   59.9876  -13.5729   11.3875 O   0  0  0  0  0  0  0  0  0  0  0  0
   60.7376  -12.3844   11.3102 C   0  0  2  0  0  0  0  0  0  0  0  0
   59.7325  -11.2681   11.1145 C   0  0  0  0  0  0  0  0  0  0  0  0
   58.7185  -11.2998   12.0977 O   0  0  0  0  0  0  0  0  0  0  0  0
   59.1310  -11.0924   13.6272 P   0  0  0  0  0  0  0  0  0  0  0  0
   60.2642  -10.0865   13.5952 O   0  0  0  0  0  0  0  0  0  0  0  0
   59.5279  -12.4860   14.0407 O   0  0  0  0  0  0  0  0  0  0  0  0
   57.8498  -10.6459   14.2752 O   0  0  0  0  0  0  0  0  0  0  0  0
  2  1  2  0  0  0  0
  2  4  1  0  0  0  0
  3  2  1  0  0  0  0
  4  7  1  0  0  0  0
  4  5  2  0  0  0  0
  5  6  1  0  0  0  0
  5  9  1  0  0  0  0
  7  8  2  0  0  0  0
  8  9  1  0  0  0  0
 10  9  1  6  0  0  0
 10 15  1  0  0  0  0
 11 14  1  1  0  0  0
 11 12  1  0  0  0  0
 11 10  1  0  0  0  0
 12 13  1  1  0  0  0
 12 16  1  0  0  0  0
 16 17  1  6  0  0  0
 16 15  1  0  0  0  0
 18 19  1  0  0  0  0
 18 17  1  0  0  0  0
 19 21  1  0  0  0  0
 20 19  1  0  0  0  0
 22 19  2  0  0  0  0
M  END
>  <CHROM.1>
171.34818339,107.91377770,170.60070249,35.57808355,62.55840002,59.30130829
-13.74584371,10.69197701,1.85094047,-0.19293655,-2.38887454

>  <Name>
lig.pdb

>  <RI>
0

>  <Rbt.Current_Directory>
/home/itssahil/PROJECTS/Mol_Feturizer/New_Systems/rnas/4znp

>  <Rbt.Executable>
rbdock ($Id: //depot/dev/client3/rdock/2013.1/src/exe/rbdock.cxx#4 $)

>  <Rbt.Library>
libRbt.so (2013.1, Build901 2013/11/27)

>  <Rbt.Parameter_File>
/export/apps/rDock/src/rDock_2013.1_src/data/scripts/dock_solv.prm

>  <Rbt.Receptor>
prm/pocket_docking_5.prm

>  <SCORE>
-26.4663

>  <SCORE.INTER>
-21.5637

>  <SCORE.INTER.CONST>
1

>  <SCORE.INTER.POLAR>
0

>  <SCORE.INTER.ROT>
5

>  <SCORE.INTER.SOLV>
22.0288

>  <SCORE.INTER.VDW>
-28.6521

>  <SCORE.INTER.norm>
-0.980168

>  <SCORE.INTRA>
-4.90259

>  <SCORE.INTRA.DIHEDRAL>
-8.17422

>  <SCORE.INTRA.DIHEDRAL.0>
11.9251

>  <SCORE.INTRA.POLAR>
0

>  <SCORE.INTRA.POLAR.0>
0

>  <SCORE.INTRA.REPUL>
0

>  <SCORE.INTRA.REPUL.0>
0

>  <SCORE.INTRA.SOLV>
0.934836

>  <SCORE.INTRA.SOLV.lig_0>
-40.9823

>  <SCORE.INTRA.VDW>
-1.2829

>  <SCORE.INTRA.VDW.0>
-0.53506

>  <SCORE.INTRA.norm>
-0.222845

>  <SCORE.RESTR>
0

>  <SCORE.RESTR.CAVITY>
0

>  <SCORE.RESTR.norm>
0

>  <SCORE.SYSTEM>
0

>  <SCORE.SYSTEM.CONST>
0

>  <SCORE.SYSTEM.DIHEDRAL>
0

>  <SCORE.SYSTEM.SOLV>
0

>  <SCORE.SYSTEM.norm>
0

>  <SCORE.heavy>
22

>  <SCORE.norm>
-1.20301

>  <RMSD>
2.006

$$$$
lig.pdb
 OpenBabel11021811523D
libRbt.so/2013.1/901 2013/11/27
 22 23  0  0  0  0  0  0  0  0999 V2000
   55.7092  -17.5574    7.8600 O   0  0  0  0  0  0  0  0  0  0  0  0
   56.8865  -17.4860    8.1233 C   0  0  0  0  0  0  0  0  0  0  0  0
   57.7017  -18.5154    7.9762 N   0  0  0  0  0  0  0  0  0  0  0  0
   57.4466  -16.2404    8.6664 C   0  0  0  0  0  0  0  0  0  0  0  0
   58.7567  -16.1189    9.3100 C   0  0  0  0  0  0  0  0  0  0  0  0
   59.6281  -17.1299    9.5152 N   0  0  0  0  0  0  0  0  0  0  0  0
   56.9389  -14.9983    8.7079 N   0  0  0  0  0  0  0  0  0  0  0  0
   57.8538  -14.1773    9.2940 C   0  0  0  0  0  0  0  0  0  0  0  0
   58.9687  -14.8549    9.6585 N   0  0  0  0  0  0  0  0  0  0  0  0
   60.1650  -14.2703   10.3238 C   0  0  1  0  0  0  0  0  0  0  0  0
   61.2477  -14.0377    9.2924 C   0  0  1  0  0  0  0  0  0  0  0  0
   61.8674  -12.7294    9.7104 C   0  0  2  0  0  0  0  0  0  0  0  0
   62.9604  -12.9734   10.6047 O   0  0  0  0  0  0  0  0  0  0  0  0
   62.1976  -15.1148    9.2886 O   0  0  0  0  0  0  0  0  0  0  0  0
   59.8533  -12.9881   10.8629 O   0  0  0  0  0  0  0  0  0  0  0  0
   60.7812  -12.0077   10.4649 C   0  0  2  0  0  0  0  0  0  0  0  0
   59.9930  -10.9814    9.6777 C   0  0  0  0  0  0  0  0  0  0  0  0
   60.7382   -9.7998    9.4666 O   0  0  0  0  0  0  0  0  0  0  0  0
   61.9731   -9.8466    8.4539 P   0  0  0  0  0  0  0  0  0  0  0  0
   61.5882  -10.8785    7.4129 O   0  0  0  0  0  0  0  0  0  0  0  0
   63.1101  -10.2473    9.3581 O   0  0  0  0  0  0  0  0  0  0  0  0
   62.0904   -8.4235    7.9831 O   0  0  0  0  0  0  0  0  0  0  0  0
  2  1  2  0  0  0  0
  2  4  1  0  0  0  0
  3  2  1  0  0  0  0
  4  7  1  0  0  0  0
  4  5  2  0  0  0  0
  5  6  1  0  0  0  0
  5  9  1  0  0  0  0
  7  8  2  0  0  0  0
  8  9  1  0  0  0  0
 10  9  1  6  0  0  0
 10 15  1  0  0  0  0
 11 14  1  1  0  0  0
 11 12  1  0  0  0  0
 11 10  1  0  0  0  0
 12 13  1  1  0  0  0
 12 16  1  0  0  0  0
 16 17  1  6  0  0  0
 16 15  1  0  0  0  0
 18 19  1  0  0  0  0
 18 17  1  0  0  0  0
 19 21  1  0  0  0  0
 20 19  1  0  0  0  0
 22 19  2  0  0  0  0
M  END
>  <CHROM.1>
164.92498352,80.42752715,-74.92682686,31.34871559,70.72451055,60.12171570
-13.38166361,9.14043066,2.20518045,0.37065155,2.92889252

>  <Name>
lig.pdb

>  <RI>
0

>  <Rbt.Current_Directory>
/home/itssahil/PROJECTS/Mol_Feturizer/New_Systems/rnas/4znp

>  <Rbt.Executable>
rbdock ($Id: //depot/dev/client3/rdock/2013.1/src/exe/rbdock.cxx#4 $)

>  <Rbt.Library>
libRbt.so (2013.1, Build901 2013/11/27)

>  <Rbt.Parameter_File>
/export/apps/rDock/src/rDock_2013.1_src/data/scripts/dock_solv.prm

>  <Rbt.Receptor>
prm/pocket_docking_6.prm

>  <SCORE>
-26.5922

>  <SCORE.INTER>
-23.113

>  <SCORE.INTER.CONST>
1

>  <SCORE.INTER.POLAR>
0

>  <SCORE.INTER.ROT>
5

>  <SCORE.INTER.SOLV>
22.7417

>  <SCORE.INTER.VDW>
-29.9225

>  <SCORE.INTER.norm>
-1.05059

>  <SCORE.INTRA>
-3.47923

>  <SCORE.INTRA.DIHEDRAL>
-6.48034

>  <SCORE.INTRA.DIHEDRAL.0>
11.9251

>  <SCORE.INTRA.POLAR>
0

>  <SCORE.INTRA.POLAR.0>
0

>  <SCORE.INTRA.REPUL>
0

>  <SCORE.INTRA.REPUL.0>
0

>  <SCORE.INTRA.SOLV>
1.93071

>  <SCORE.INTRA.SOLV.lig_0>
-40.9823

>  <SCORE.INTRA.VDW>
-1.20442

>  <SCORE.INTRA.VDW.0>
-0.53506

>  <SCORE.INTRA.norm>
-0.158147

>  <SCORE.RESTR>
0

>  <SCORE.RESTR.CAVITY>
0

>  <SCORE.RESTR.norm>
0

>  <SCORE.SYSTEM>
0

>  <SCORE.SYSTEM.CONST>
0

>  <SCORE.SYSTEM.DIHEDRAL>
0

>  <SCORE.SYSTEM.SOLV>
0

>  <SCORE.SYSTEM.norm>
0

>  <SCORE.heavy>
22

>  <SCORE.norm>
-1.20874

>  <RMSD>
2.018

$$$$
lig.pdb
 OpenBabel11021811523D
libRbt.so/2013.1/901 2013/11/27
 22 23  0  0  0  0  0  0  0  0999 V2000
   56.2839  -15.7706    8.5019 O   0  0  0  0  0  0  0  0  0  0  0  0
   57.0110  -16.7339    8.5638 C   0  0  0  0  0  0  0  0  0  0  0  0
   56.5689  -17.9610    8.3531 N   0  0  0  0  0  0  0  0  0  0  0  0
   58.4259  -16.5678    8.9254 C   0  0  0  0  0  0  0  0  0  0  0  0
   59.0675  -15.2899    9.2426 C   0  0  0  0  0  0  0  0  0  0  0  0
   58.4627  -14.0827    9.2301 N   0  0  0  0  0  0  0  0  0  0  0  0
   59.4099  -17.4733    9.0457 N   0  0  0  0  0  0  0  0  0  0  0  0
   60.5464  -16.8275    9.4278 C   0  0  0  0  0  0  0  0  0  0  0  0
   60.3421  -15.4945    9.5554 N   0  0  0  0  0  0  0  0  0  0  0  0
   61.3655  -14.4906    9.9559 C   0  0  1  0  0  0  0  0  0  0  0  0
   61.4784  -13.4339    8.8786 C   0  0  1  0  0  0  0  0  0  0  0  0
   61.6633  -12.1526    9.6496 C   0  0  2  0  0  0  0  0  0  0  0  0
   63.0604  -11.9038    9.8504 O   0  0  0  0  0  0  0  0  0  0  0  0
   62.5819  -13.7066    8.0008 O   0  0  0  0  0  0  0  0  0  0  0  0
   60.9515  -13.8067   11.1359 O   0  0  0  0  0  0  0  0  0  0  0  0
   61.0236  -12.4088   10.9894 C   0  0  2  0  0  0  0  0  0  0  0  0
   59.6082  -11.8972   11.1600 C   0  0  0  0  0  0  0  0  0  0  0  0
   59.5227  -10.5073   10.9212 O   0  0  0  0  0  0  0  0  0  0  0  0
   58.1974   -9.7357   11.3691 P   0  0  0  0  0  0  0  0  0  0  0  0
   57.0712  -10.7233   11.1387 O   0  0  0  0  0  0  0  0  0  0  0  0
   58.1975   -8.5434   10.4476 O   0  0  0  0  0  0  0  0  0  0  0  0
   58.4816   -9.3564   12.7960 O   0  0  0  0  0  0  0  0  0  0  0  0
  2  1  2  0  0  0  0
  2  4  1  0  0  0  0
  3  2  1  0  0  0  0
  4  7  1  0  0  0  0
  4  5  2  0  0  0  0
  5  6  1  0  0  0  0
  5  9  1  0  0  0  0
  7  8  2  0  0  0  0
  8  9  1  0  0  0  0
 10  9  1  6  0  0  0
 10 15  1  0  0  0  0
 11 14  1  6  0  0  0
 11 12  1  0  0  0  0
 11 10  1  0  0  0  0
 12 13  1  1  0  0  0
 12 16  1  0  0  0  0
 16 17  1  6  0  0  0
 16 15  1  0  0  0  0
 18 19  1  0  0  0  0
 18 17  1  0  0  0  0
 19 21  1  0  0  0  0
 20 19  1  0  0  0  0
 22 19  2  0  0  0  0
M  END
>  <CHROM.1>
0.50724653,-56.54350444,-57.00676481,-35.08598230,-166.36938398,59.44609557
-13.24873454,9.98895069,1.60450270,-0.07227849,-2.78684664

>  <Name>
lig.pdb

>  <RI>
0

>  <Rbt.Current_Directory>
/home/itssahil/PROJECTS/Mol_Feturizer/New_Systems/rnas/4znp

>  <Rbt.Executable>
rbdock ($Id: //depot/dev/client3/rdock/2013.1/src/exe/rbdock.cxx#4 $)

>  <Rbt.Library>
libRbt.so (2013.1, Build901 2013/11/27)

>  <Rbt.Parameter_File>
/export/apps/rDock/src/rDock_2013.1_src/data/scripts/dock_solv.prm

>  <Rbt.Receptor>
prm/pocket_docking_4.prm

>  <SCORE>
-22.6272

>  <SCORE.INTER>
-17.7874

>  <SCORE.INTER.CONST>
1

>  <SCORE.INTER.POLAR>
0

>  <SCORE.INTER.ROT>
5

>  <SCORE.INTER.SOLV>
19.4293

>  <SCORE.INTER.VDW>
-25.268

>  <SCORE.INTER.norm>
-0.808518

>  <SCORE.INTRA>
-4.8398

>  <SCORE.INTRA.DIHEDRAL>
-7.66628

>  <SCORE.INTRA.DIHEDRAL.0>
11.9251

>  <SCORE.INTRA.POLAR>
0

>  <SCORE.INTRA.POLAR.0>
0

>  <SCORE.INTRA.REPUL>
0

>  <SCORE.INTRA.REPUL.0>
0

>  <SCORE.INTRA.SOLV>
1.09692

>  <SCORE.INTRA.SOLV.lig_0>
-40.9823

>  <SCORE.INTRA.VDW>
-1.55512

>  <SCORE.INTRA.VDW.0>
-0.53506

>  <SCORE.INTRA.norm>
-0.219991

>  <SCORE.RESTR>
0

>  <SCORE.RESTR.CAVITY>
0

>  <SCORE.RESTR.norm>
0

>  <SCORE.SYSTEM>
0

>  <SCORE.SYSTEM.CONST>
0

>  <SCORE.SYSTEM.DIHEDRAL>
0

>  <SCORE.SYSTEM.SOLV>
0

>  <SCORE.SYSTEM.norm>
0

>  <SCORE.heavy>
22

>  <SCORE.norm>
-1.02851

>  <RMSD>
2.027

$$$$
lig.pdb
 OpenBabel11021811523D
libRbt.so/2013.1/901 2013/11/27
 22 23  0  0  0  0  0  0  0  0999 V2000
   56.0610  -16.0007    8.3059 O   0  0  0  0  0  0  0  0  0  0  0  0
   56.7342  -16.9872    8.4907 C   0  0  0  0  0  0  0  0  0  0  0  0
   56.2382  -18.2064    8.3756 N   0  0  0  0  0  0  0  0  0  0  0  0
   58.1398  -16.8549    8.8994 C   0  0  0  0  0  0  0  0  0  0  0  0
   58.7982  -15.5937    9.2477 C   0  0  0  0  0  0  0  0  0  0  0  0
   58.2204  -14.3735    9.2256 N   0  0  0  0  0  0  0  0  0  0  0  0
   59.0995  -17.7825    9.0440 N   0  0  0  0  0  0  0  0  0  0  0  0
   60.2367  -17.1647    9.4681 C   0  0  0  0  0  0  0  0  0  0  0  0
   60.0572  -15.8285    9.6000 N   0  0  0  0  0  0  0  0  0  0  0  0
   61.0885  -14.8504   10.0417 C   0  0  1  0  0  0  0  0  0  0  0  0
   61.7208  -14.2069    8.8267 C   0  0  1  0  0  0  0  0  0  0  0  0
   61.9118  -12.7702    9.2391 C   0  0  2  0  0  0  0  0  0  0  0  0
   63.2055  -12.6031    9.8328 O   0  0  0  0  0  0  0  0  0  0  0  0
   62.9613  -14.8472    8.4896 O   0  0  0  0  0  0  0  0  0  0  0  0
   60.4816  -13.7908   10.7770 O   0  0  0  0  0  0  0  0  0  0  0  0
   60.8640  -12.5255   10.2937 C   0  0  2  0  0  0  0  0  0  0  0  0
   59.5896  -11.8554    9.8231 C   0  0  0  0  0  0  0  0  0  0  0  0
   58.7950  -11.4233   10.9084 O   0  0  0  0  0  0  0  0  0  0  0  0
   59.3723  -10.2880   11.8730 P   0  0  0  0  0  0  0  0  0  0  0  0
   58.1944   -9.8611   12.7257 O   0  0  0  0  0  0  0  0  0  0  0  0
   59.8561   -9.2526   10.8908 O   0  0  0  0  0  0  0  0  0  0  0  0
   60.5047  -10.9775   12.5822 O   0  0  0  0  0  0  0  0  0  0  0  0
  2  1  2  0  0  0  0
  2  4  1  0  0  0  0
  3  2  1  0  0  0  0
  4  7  1  0  0  0  0
  4  5  2  0  0  0  0
  5  6  1  0  0  0  0
  5  9  1  0  0  0  0
  7  8  2  0  0  0  0
  8  9  1  0  0  0  0
 10  9  1  6  0  0  0
 10 15  1  0  0  0  0
 11 14  1  1  0  0  0
 11 12  1  0  0  0  0
 11 10  1  0  0  0  0
 12 13  1  1  0  0  0
 12 16  1  0  0  0  0
 16 17  1  6  0  0  0
 16 15  1  0  0  0  0
 18 19  1  0  0  0  0
 18 17  1  0  0  0  0
 19 21  1  0  0  0  0
 20 19  1  0  0  0  0
 22 19  2  0  0  0  0
M  END
>  <CHROM.1>
6.63455888,-82.48412915,-167.89447046,168.61352579,64.29505618,59.65505563
-13.68153082,10.02124508,1.82596521,-0.10825751,-2.70716572

>  <Name>
lig.pdb

>  <RI>
0

>  <Rbt.Current_Directory>
/home/itssahil/PROJECTS/Mol_Feturizer/New_Systems/rnas/4znp

>  <Rbt.Executable>
rbdock ($Id: //depot/dev/client3/rdock/2013.1/src/exe/rbdock.cxx#4 $)

>  <Rbt.Library>
libRbt.so (2013.1, Build901 2013/11/27)

>  <Rbt.Parameter_File>
/export/apps/rDock/src/rDock_2013.1_src/data/scripts/dock_solv.prm

>  <Rbt.Receptor>
prm/pocket_docking_2.prm

>  <SCORE>
-22.3891

>  <SCORE.INTER>
-18.2039

>  <SCORE.INTER.CONST>
1

>  <SCORE.INTER.POLAR>
0

>  <SCORE.INTER.ROT>
5

>  <SCORE.INTER.SOLV>
19.973

>  <SCORE.INTER.VDW>
-25.7269

>  <SCORE.INTER.norm>
-0.827449

>  <SCORE.INTRA>
-4.18522

>  <SCORE.INTRA.DIHEDRAL>
-8.49997

>  <SCORE.INTRA.DIHEDRAL.0>
11.9251

>  <SCORE.INTRA.POLAR>
0

>  <SCORE.INTRA.POLAR.0>
0

>  <SCORE.INTRA.REPUL>
0

>  <SCORE.INTRA.REPUL.0>
0

>  <SCORE.INTRA.SOLV>
2.64148

>  <SCORE.INTRA.SOLV.lig_0>
-40.9823

>  <SCORE.INTRA.VDW>
-1.25598

>  <SCORE.INTRA.VDW.0>
-0.53506

>  <SCORE.INTRA.norm>
-0.190237

>  <SCORE.RESTR>
0

>  <SCORE.RESTR.CAVITY>
0

>  <SCORE.RESTR.norm>
0

>  <SCORE.SYSTEM>
0

>  <SCORE.SYSTEM.CONST>
0

>  <SCORE.SYSTEM.DIHEDRAL>
0

>  <SCORE.SYSTEM.SOLV>
0

>  <SCORE.SYSTEM.norm>
0

>  <SCORE.heavy>
22

>  <SCORE.norm>
-1.01769

>  <RMSD>
2.035

$$$$
lig.pdb
 OpenBabel11021811523D
libRbt.so/2013.1/901 2013/11/27
 22 23  0  0  0  0  0  0  0  0999 V2000
   55.9801  -17.2225    7.9788 O   0  0  0  0  0  0  0  0  0  0  0  0
   57.1467  -17.1575    8.2878 C   0  0  0  0  0  0  0  0  0  0  0  0
   57.9486  -18.2055    8.2238 N   0  0  0  0  0  0  0  0  0  0  0  0
   57.7060  -15.8965    8.7951 C   0  0  0  0  0  0  0  0  0  0  0  0
   59.0438  -15.7426    9.3714 C   0  0  0  0  0  0  0  0  0  0  0  0
   59.9460  -16.7333    9.5383 N   0  0  0  0  0  0  0  0  0  0  0  0
   57.1741  -14.6653    8.8550 N   0  0  0  0  0  0  0  0  0  0  0  0
   58.0992  -13.8210    9.3898 C   0  0  0  0  0  0  0  0  0  0  0  0
   59.2454  -14.4720    9.7017 N   0  0  0  0  0  0  0  0  0  0  0  0
   60.4604  -13.8575   10.3028 C   0  0  1  0  0  0  0  0  0  0  0  0
   61.6136  -13.9733    9.3297 C   0  0  1  0  0  0  0  0  0  0  0  0
   62.3451  -12.6648    9.4814 C   0  0  2  0  0  0  0  0  0  0  0  0
   63.3586  -12.7887   10.4872 O   0  0  0  0  0  0  0  0  0  0  0  0
   62.4438  -15.1022    9.6442 O   0  0  0  0  0  0  0  0  0  0  0  0
   60.2580  -12.4616   10.5084 O   0  0  0  0  0  0  0  0  0  0  0  0
   61.3033  -11.6905    9.9667 C   0  0  2  0  0  0  0  0  0  0  0  0
   60.6693  -10.8119    8.9082 C   0  0  0  0  0  0  0  0  0  0  0  0
   61.6424  -10.1340    8.1404 O   0  0  0  0  0  0  0  0  0  0  0  0
   62.4499   -8.9337    8.8185 P   0  0  0  0  0  0  0  0  0  0  0  0
   63.2009   -9.5681    9.9719 O   0  0  0  0  0  0  0  0  0  0  0  0
   61.3430   -7.9930    9.2195 O   0  0  0  0  0  0  0  0  0  0  0  0
   63.2805   -8.3916    7.6885 O   0  0  0  0  0  0  0  0  0  0  0  0
  2  1  2  0  0  0  0
  2  4  1  0  0  0  0
  3  2  1  0  0  0  0
  4  7  1  0  0  0  0
  4  5  2  0  0  0  0
  5  6  1  0  0  0  0
  5  9  1  0  0  0  0
  7  8  2  0  0  0  0
  8  9  1  0  0  0  0
 10  9  1  6  0  0  0
 10 15  1  0  0  0  0
 11 14  1  1  0  0  0
 11 12  1  0  0  0  0
 11 10  1  0  0  0  0
 12 13  1  1  0  0  0
 12 16  1  0  0  0  0
 16 17  1  6  0  0  0
 16 15  1  0  0  0  0
 18 19  1  0  0  0  0
 18 17  1  0  0  0  0
 19 21  1  0  0  0  0
 20 19  1  0  0  0  0
 22 19  2  0  0  0  0
M  END
>  <CHROM.1>
171.10652532,64.21479632,-52.89425424,62.10324794,-72.22515747,60.50335748
-12.93299100,9.18902069,2.17248454,0.31032239,2.96708123

>  <Name>
lig.pdb

>  <RI>
0

>  <Rbt.Current_Directory>
/home/itssahil/PROJECTS/Mol_Feturizer/New_Systems/rnas/4znp

>  <Rbt.Executable>
rbdock ($Id: //depot/dev/client3/rdock/2013.1/src/exe/rbdock.cxx#4 $)

>  <Rbt.Library>
libRbt.so (2013.1, Build901 2013/11/27)

>  <Rbt.Parameter_File>
/export/apps/rDock/src/rDock_2013.1_src/data/scripts/dock_solv.prm

>  <Rbt.Receptor>
prm/pocket_docking_5.prm

>  <SCORE>
-26.288

>  <SCORE.INTER>
-21.433

>  <SCORE.INTER.CONST>
1

>  <SCORE.INTER.POLAR>
0

>  <SCORE.INTER.ROT>
5

>  <SCORE.INTER.SOLV>
21.1871

>  <SCORE.INTER.VDW>
-28.2844

>  <SCORE.INTER.norm>
-0.974227

>  <SCORE.INTRA>
-4.85497

>  <SCORE.INTRA.DIHEDRAL>
-8.39937

>  <SCORE.INTRA.DIHEDRAL.0>
11.9251

>  <SCORE.INTRA.POLAR>
0

>  <SCORE.INTRA.POLAR.0>
0

>  <SCORE.INTRA.REPUL>
0

>  <SCORE.INTRA.REPUL.0>
0

>  <SCORE.INTRA.SOLV>
1.39147

>  <SCORE.INTRA.SOLV.lig_0>
-40.9823

>  <SCORE.INTRA.VDW>
-1.35102

>  <SCORE.INTRA.VDW.0>
-0.53506

>  <SCORE.INTRA.norm>
-0.22068

>  <SCORE.RESTR>
0

>  <SCORE.RESTR.CAVITY>
0

>  <SCORE.RESTR.norm>
0

>  <SCORE.SYSTEM>
0

>  <SCORE.SYSTEM.CONST>
0

>  <SCORE.SYSTEM.DIHEDRAL>
0

>  <SCORE.SYSTEM.SOLV>
0

>  <SCORE.SYSTEM.norm>
0

>  <SCORE.heavy>
22

>  <SCORE.norm>
-1.19491

>  <RMSD>
2.037

$$$$
lig.pdb
 OpenBabel11021811523D
libRbt.so/2013.1/901 2013/11/27
 22 23  0  0  0  0  0  0  0  0999 V2000
   56.1471  -17.2079    8.0923 O   0  0  0  0  0  0  0  0  0  0  0  0
   57.3125  -17.1091    8.3963 C   0  0  0  0  0  0  0  0  0  0  0  0
   58.1378  -18.1400    8.3555 N   0  0  0  0  0  0  0  0  0  0  0  0
   57.8444  -15.8238    8.8712 C   0  0  0  0  0  0  0  0  0  0  0  0
   59.1830  -15.6240    9.4312 C   0  0  0  0  0  0  0  0  0  0  0  0
   60.1115  -16.5879    9.6105 N   0  0  0  0  0  0  0  0  0  0  0  0
   57.2820  -14.6053    8.9100 N   0  0  0  0  0  0  0  0  0  0  0  0
   58.1903  -13.7267    9.4177 C   0  0  0  0  0  0  0  0  0  0  0  0
   59.3554  -14.3419    9.7324 N   0  0  0  0  0  0  0  0  0  0  0  0
   60.5599  -13.6843   10.3085 C   0  0  1  0  0  0  0  0  0  0  0  0
   61.7138  -13.8146    9.3380 C   0  0  1  0  0  0  0  0  0  0  0  0
   62.4218  -12.4885    9.4409 C   0  0  2  0  0  0  0  0  0  0  0  0
   63.4386  -12.5576   10.4486 O   0  0  0  0  0  0  0  0  0  0  0  0
   62.5645  -14.9162    9.6918 O   0  0  0  0  0  0  0  0  0  0  0  0
   60.3326  -12.2857   10.4637 O   0  0  0  0  0  0  0  0  0  0  0  0
   61.3632  -11.5162    9.8924 C   0  0  2  0  0  0  0  0  0  0  0  0
   60.7122  -10.6880    8.8039 C   0  0  0  0  0  0  0  0  0  0  0  0
   61.6678   -9.9664    8.0543 O   0  0  0  0  0  0  0  0  0  0  0  0
   62.3751   -8.7042    8.7319 P   0  0  0  0  0  0  0  0  0  0  0  0
   63.2639   -9.2858    9.8130 O   0  0  0  0  0  0  0  0  0  0  0  0
   61.1962   -7.9116    9.2346 O   0  0  0  0  0  0  0  0  0  0  0  0
   63.0666   -8.0324    7.5781 O   0  0  0  0  0  0  0  0  0  0  0  0
  2  1  2  0  0  0  0
  2  4  1  0  0  0  0
  3  2  1  0  0  0  0
  4  7  1  0  0  0  0
  4  5  2  0  0  0  0
  5  6  1  0  0  0  0
  5  9  1  0  0  0  0
  7  8  2  0  0  0  0
  8  9  1  0  0  0  0
 10  9  1  6  0  0  0
 10 15  1  0  0  0  0
 11 14  1  1  0  0  0
 11 12  1  0  0  0  0
 11 10  1  0  0  0  0
 12 13  1  1  0  0  0
 12 16  1  0  0  0  0
 16 17  1  6  0  0  0
 16 15  1  0  0  0  0
 18 19  1  0  0  0  0
 18 17  1  0  0  0  0
 19 21  1  0  0  0  0
 20 19  1  0  0  0  0
 22 19  2  0  0  0  0
M  END
>  <CHROM.1>
171.55602540,63.16798535,-55.96504535,69.17848390,-72.90483064,60.56368763
-12.77722802,9.18203560,2.13921888,0.30753791,2.95772129

>  <Name>
lig.pdb

>  <RI>
0

>  <Rbt.Current_Directory>
/home/itssahil/PROJECTS/Mol_Feturizer/New_Systems/rnas/4znp

>  <Rbt.Executable>
rbdock ($Id: //depot/dev/client3/rdock/2013.1/src/exe/rbdock.cxx#4 $)

>  <Rbt.Library>
libRbt.so (2013.1, Build901 2013/11/27)

>  <Rbt.Parameter_File>
/export/apps/rDock/src/rDock_2013.1_src/data/scripts/dock_solv.prm

>  <Rbt.Receptor>
prm/pocket_docking_4.prm

>  <SCORE>
-25.9734

>  <SCORE.INTER>
-21.103

>  <SCORE.INTER.CONST>
1

>  <SCORE.INTER.POLAR>
0

>  <SCORE.INTER.ROT>
5

>  <SCORE.INTER.SOLV>
20.4279

>  <SCORE.INTER.VDW>
-27.8113

>  <SCORE.INTER.norm>
-0.959229

>  <SCORE.INTRA>
-4.87036

>  <SCORE.INTRA.DIHEDRAL>
-8.31607

>  <SCORE.INTRA.DIHEDRAL.0>
11.9251

>  <SCORE.INTRA.POLAR>
0

>  <SCORE.INTRA.POLAR.0>
0

>  <SCORE.INTRA.REPUL>
0

>  <SCORE.INTRA.REPUL.0>
0

>  <SCORE.INTRA.SOLV>
1.33314

>  <SCORE.INTRA.SOLV.lig_0>
-40.9823

>  <SCORE.INTRA.VDW>
-1.37889

>  <SCORE.INTRA.VDW.0>
-0.53506

>  <SCORE.INTRA.norm>
-0.22138

>  <SCORE.RESTR>
0

>  <SCORE.RESTR.CAVITY>
0

>  <SCORE.RESTR.norm>
0

>  <SCORE.SYSTEM>
0

>  <SCORE.SYSTEM.CONST>
0

>  <SCORE.SYSTEM.DIHEDRAL>
0

>  <SCORE.SYSTEM.SOLV>
0

>  <SCORE.SYSTEM.norm>
0

>  <SCORE.heavy>
22

>  <SCORE.norm>
-1.18061

>  <RMSD>
2.052

$$$$
lig.pdb
 OpenBabel11021811523D
libRbt.so/2013.1/901 2013/11/27
 22 23  0  0  0  0  0  0  0  0999 V2000
   56.7633  -18.3784    8.2051 O   0  0  0  0  0  0  0  0  0  0  0  0
   57.0355  -17.2233    8.4331 C   0  0  0  0  0  0  0  0  0  0  0  0
   56.1602  -16.2489    8.2592 N   0  0  0  0  0  0  0  0  0  0  0  0
   58.3881  -16.8582    8.8773 C   0  0  0  0  0  0  0  0  0  0  0  0
   58.8130  -15.5079    9.2535 C   0  0  0  0  0  0  0  0  0  0  0  0
   58.0354  -14.4042    9.2289 N   0  0  0  0  0  0  0  0  0  0  0  0
   59.4890  -17.6100    9.0366 N   0  0  0  0  0  0  0  0  0  0  0  0
   60.4938  -16.8127    9.4941 C   0  0  0  0  0  0  0  0  0  0  0  0
   60.0853  -15.5287    9.6343 N   0  0  0  0  0  0  0  0  0  0  0  0
   60.9237  -14.3948   10.1103 C   0  0  1  0  0  0  0  0  0  0  0  0
   61.4562  -13.6308    8.9174 C   0  0  1  0  0  0  0  0  0  0  0  0
   61.3882  -12.1902    9.3535 C   0  0  2  0  0  0  0  0  0  0  0  0
   62.6228  -11.8121    9.9754 O   0  0  0  0  0  0  0  0  0  0  0  0
   62.7946  -14.0412    8.5965 O   0  0  0  0  0  0  0  0  0  0  0  0
   60.1297  -13.4689   10.8478 O   0  0  0  0  0  0  0  0  0  0  0  0
   60.2956  -12.1484   10.3900 C   0  0  2  0  0  0  0  0  0  0  0  0
   58.9328  -11.7008    9.9031 C   0  0  0  0  0  0  0  0  0  0  0  0
   58.0359  -11.4969   10.9754 O   0  0  0  0  0  0  0  0  0  0  0  0
   58.2438  -10.2197   11.9125 P   0  0  0  0  0  0  0  0  0  0  0  0
   57.0506  -10.2201   12.8470 O   0  0  0  0  0  0  0  0  0  0  0  0
   58.2693   -9.0929   10.9123 O   0  0  0  0  0  0  0  0  0  0  0  0
   59.5902  -10.4620   12.5364 O   0  0  0  0  0  0  0  0  0  0  0  0
  2  1  2  0  0  0  0
  2  4  1  0  0  0  0
  3  2  1  0  0  0  0
  4  7  1  0  0  0  0
  4  5  2  0  0  0  0
  5  6  1  0  0  0  0
  5  9  1  0  0  0  0
  7  8  2  0  0  0  0
  8  9  1  0  0  0  0
 10  9  1  6  0  0  0
 10 15  1  0  0  0  0
 11 14  1  1  0  0  0
 11 12  1  0  0  0  0
 11 10  1  0  0  0  0
 12 13  1  1  0  0  0
 12 16  1  0  0  0  0
 16 17  1  6  0  0  0
 16 15  1  0  0  0  0
 18 19  1  0  0  0  0
 18 17  1  0  0  0  0
 19 21  1  0  0  0  0
 20 19  1  0  0  0  0
 22 19  2  0  0  0  0
M  END
>  <CHROM.1>
-176.43892098,-82.11297922,-170.90225276,174.15007536,72.45066048,59.26573722
-13.49053946,10.05620789,1.63055911,-0.15455276,-2.72240847

>  <Name>
lig.pdb

>  <RI>
0

>  <Rbt.Current_Directory>
/home/itssahil/PROJECTS/Mol_Feturizer/New_Systems/rnas/4znp

>  <Rbt.Executable>
rbdock ($Id: //depot/dev/client3/rdock/2013.1/src/exe/rbdock.cxx#4 $)

>  <Rbt.Library>
libRbt.so (2013.1, Build901 2013/11/27)

>  <Rbt.Parameter_File>
/export/apps/rDock/src/rDock_2013.1_src/data/scripts/dock_solv.prm

>  <Rbt.Receptor>
prm/pocket_docking_7.prm

>  <SCORE>
-22.4316

>  <SCORE.INTER>
-18.4623

>  <SCORE.INTER.CONST>
1

>  <SCORE.INTER.POLAR>
0

>  <SCORE.INTER.ROT>
5

>  <SCORE.INTER.SOLV>
18.9671

>  <SCORE.INTER.VDW>
-25.5639

>  <SCORE.INTER.norm>
-0.839194

>  <SCORE.INTRA>
-3.96933

>  <SCORE.INTRA.DIHEDRAL>
-8.33549

>  <SCORE.INTRA.DIHEDRAL.0>
11.9251

>  <SCORE.INTRA.POLAR>
0

>  <SCORE.INTRA.POLAR.0>
0

>  <SCORE.INTRA.REPUL>
0.0514279

>  <SCORE.INTRA.REPUL.0>
0

>  <SCORE.INTRA.SOLV>
2.74246

>  <SCORE.INTRA.SOLV.lig_0>
-40.9823

>  <SCORE.INTRA.VDW>
-1.42996

>  <SCORE.INTRA.VDW.0>
-0.53506

>  <SCORE.INTRA.norm>
-0.180424

>  <SCORE.RESTR>
0

>  <SCORE.RESTR.CAVITY>
0

>  <SCORE.RESTR.norm>
0

>  <SCORE.SYSTEM>
0

>  <SCORE.SYSTEM.CONST>
0

>  <SCORE.SYSTEM.DIHEDRAL>
0

>  <SCORE.SYSTEM.SOLV>
0

>  <SCORE.SYSTEM.norm>
0

>  <SCORE.heavy>
22

>  <SCORE.norm>
-1.01962

>  <RMSD>
2.053

$$$$
lig.pdb
 OpenBabel11021811523D
libRbt.so/2013.1/901 2013/11/27
 22 23  0  0  0  0  0  0  0  0999 V2000
   55.7156  -17.1773    7.8168 O   0  0  0  0  0  0  0  0  0  0  0  0
   56.8794  -17.2582    8.1324 C   0  0  0  0  0  0  0  0  0  0  0  0
   57.5557  -18.3890    8.0346 N   0  0  0  0  0  0  0  0  0  0  0  0
   57.5763  -16.0885    8.6859 C   0  0  0  0  0  0  0  0  0  0  0  0
   58.9090  -16.1144    9.2932 C   0  0  0  0  0  0  0  0  0  0  0  0
   59.6795  -17.2121    9.4506 N   0  0  0  0  0  0  0  0  0  0  0  0
   57.1974  -14.8033    8.7694 N   0  0  0  0  0  0  0  0  0  0  0  0
   58.2057  -14.0925    9.3462 C   0  0  0  0  0  0  0  0  0  0  0  0
   59.2563  -14.8868    9.6629 N   0  0  0  0  0  0  0  0  0  0  0  0
   60.5228  -14.4412   10.3053 C   0  0  1  0  0  0  0  0  0  0  0  0
   61.3609  -13.6914    9.2927 C   0  0  1  0  0  0  0  0  0  0  0  0
   61.9693  -12.5676   10.0909 C   0  0  2  0  0  0  0  0  0  0  0  0
   63.2321  -12.9813   10.6279 O   0  0  0  0  0  0  0  0  0  0  0  0
   62.3558  -14.5476    8.7099 O   0  0  0  0  0  0  0  0  0  0  0  0
   60.2463  -13.5133   11.3514 O   0  0  0  0  0  0  0  0  0  0  0  0
   61.0134  -12.3393   11.2328 C   0  0  2  0  0  0  0  0  0  0  0  0
   60.0215  -11.2084   11.0547 C   0  0  0  0  0  0  0  0  0  0  0  0
   59.8602  -10.4628   12.2438 O   0  0  0  0  0  0  0  0  0  0  0  0
   58.9120  -11.0476   13.3891 P   0  0  0  0  0  0  0  0  0  0  0  0
   59.4470  -12.4375   13.6699 O   0  0  0  0  0  0  0  0  0  0  0  0
   57.5571  -11.0074   12.7307 O   0  0  0  0  0  0  0  0  0  0  0  0
   59.0408  -10.0380   14.4959 O   0  0  0  0  0  0  0  0  0  0  0  0
  2  1  2  0  0  0  0
  2  4  1  0  0  0  0
  3  2  1  0  0  0  0
  4  7  1  0  0  0  0
  4  5  2  0  0  0  0
  5  6  1  0  0  0  0
  5  9  1  0  0  0  0
  7  8  2  0  0  0  0
  8  9  1  0  0  0  0
 10  9  1  6  0  0  0
 10 15  1  0  0  0  0
 11 14  1  1  0  0  0
 11 12  1  0  0  0  0
 11 10  1  0  0  0  0
 12 13  1  1  0  0  0
 12 16  1  0  0  0  0
 16 17  1  6  0  0  0
 16 15  1  0  0  0  0
 18 19  1  0  0  0  0
 18 17  1  0  0  0  0
 19 21  1  0  0  0  0
 20 19  1  0  0  0  0
 22 19  2  0  0  0  0
M  END
>  <CHROM.1>
169.99994157,106.60023402,-138.78932927,54.54356289,-79.71303165,59.38750532
-13.68031313,10.62305076,1.82435003,-0.18020526,-2.43021140

>  <Name>
lig.pdb

>  <RI>
0

>  <Rbt.Current_Directory>
/home/itssahil/PROJECTS/Mol_Feturizer/New_Systems/rnas/4znp

>  <Rbt.Executable>
rbdock ($Id: //depot/dev/client3/rdock/2013.1/src/exe/rbdock.cxx#4 $)

>  <Rbt.Library>
libRbt.so (2013.1, Build901 2013/11/27)

>  <Rbt.Parameter_File>
/export/apps/rDock/src/rDock_2013.1_src/data/scripts/dock_solv.prm

>  <Rbt.Receptor>
prm/pocket_docking_6.prm

>  <SCORE>
-24.254

>  <SCORE.INTER>
-21.3035

>  <SCORE.INTER.CONST>
1

>  <SCORE.INTER.POLAR>
0

>  <SCORE.INTER.ROT>
5

>  <SCORE.INTER.SOLV>
21.1721

>  <SCORE.INTER.VDW>
-28.193

>  <SCORE.INTER.norm>
-0.968339

>  <SCORE.INTRA>
-2.95057

>  <SCORE.INTRA.DIHEDRAL>
-3.39019

>  <SCORE.INTRA.DIHEDRAL.0>
11.9251

>  <SCORE.INTRA.POLAR>
0

>  <SCORE.INTRA.POLAR.0>
0

>  <SCORE.INTRA.REPUL>
0

>  <SCORE.INTRA.REPUL.0>
0

>  <SCORE.INTRA.SOLV>
0.745748

>  <SCORE.INTRA.SOLV.lig_0>
-40.9823

>  <SCORE.INTRA.VDW>
-1.62835

>  <SCORE.INTRA.VDW.0>
-0.53506

>  <SCORE.INTRA.norm>
-0.134117

>  <SCORE.RESTR>
0

>  <SCORE.RESTR.CAVITY>
0

>  <SCORE.RESTR.norm>
0

>  <SCORE.SYSTEM>
0

>  <SCORE.SYSTEM.CONST>
0

>  <SCORE.SYSTEM.DIHEDRAL>
0

>  <SCORE.SYSTEM.SOLV>
0

>  <SCORE.SYSTEM.norm>
0

>  <SCORE.heavy>
22

>  <SCORE.norm>
-1.10246

>  <RMSD>
2.062

$$$$
lig.pdb
 OpenBabel11021811523D
libRbt.so/2013.1/901 2013/11/27
 22 23  0  0  0  0  0  0  0  0999 V2000
   57.5641  -18.1366    8.3469 O   0  0  0  0  0  0  0  0  0  0  0  0
   57.0159  -17.0692    8.4902 C   0  0  0  0  0  0  0  0  0  0  0  0
   55.7248  -16.9075    8.2608 N   0  0  0  0  0  0  0  0  0  0  0  0
   57.7942  -15.8881    8.8893 C   0  0  0  0  0  0  0  0  0  0  0  0
   59.2199  -15.8957    9.2250 C   0  0  0  0  0  0  0  0  0  0  0  0
   60.0186  -16.9844    9.2364 N   0  0  0  0  0  0  0  0  0  0  0  0
   57.4244  -14.6059    9.0365 N   0  0  0  0  0  0  0  0  0  0  0  0
   58.5178  -13.8803    9.4007 C   0  0  0  0  0  0  0  0  0  0  0  0
   59.6188  -14.6616    9.5116 N   0  0  0  0  0  0  0  0  0  0  0  0
   60.9813  -14.1981    9.8916 C   0  0  1  0  0  0  0  0  0  0  0  0
   61.3874  -13.0491    8.9944 C   0  0  1  0  0  0  0  0  0  0  0  0
   62.1203  -12.1123    9.9194 C   0  0  2  0  0  0  0  0  0  0  0  0
   63.5185  -12.4270    9.9216 O   0  0  0  0  0  0  0  0  0  0  0  0
   62.2145  -13.5056    7.9127 O   0  0  0  0  0  0  0  0  0  0  0  0
   60.9738  -13.6775   11.2185 O   0  0  0  0  0  0  0  0  0  0  0  0
   61.5609  -12.4003   11.2884 C   0  0  2  0  0  0  0  0  0  0  0  0
   60.4718  -11.4656   11.7726 C   0  0  0  0  0  0  0  0  0  0  0  0
   59.9849  -11.8447   13.0435 O   0  0  0  0  0  0  0  0  0  0  0  0
   58.8452  -10.9536   13.7215 P   0  0  0  0  0  0  0  0  0  0  0  0
   57.7330  -10.8905   12.6940 O   0  0  0  0  0  0  0  0  0  0  0  0
   59.5629   -9.6511   13.9643 O   0  0  0  0  0  0  0  0  0  0  0  0
   58.5438  -11.6879   14.9986 O   0  0  0  0  0  0  0  0  0  0  0  0
  2  1  2  0  0  0  0
  2  4  1  0  0  0  0
  3  2  1  0  0  0  0
  4  7  1  0  0  0  0
  4  5  2  0  0  0  0
  5  6  1  0  0  0  0
  5  9  1  0  0  0  0
  7  8  2  0  0  0  0
  8  9  1  0  0  0  0
 10  9  1  6  0  0  0
 10 15  1  0  0  0  0
 11 14  1  6  0  0  0
 11 12  1  0  0  0  0
 11 10  1  0  0  0  0
 12 13  1  1  0  0  0
 12 16  1  0  0  0  0
 16 17  1  6  0  0  0
 16 15  1  0  0  0  0
 18 19  1  0  0  0  0
 18 17  1  0  0  0  0
 19 21  1  0  0  0  0
 20 19  1  0  0  0  0
 22 19  2  0  0  0  0
M  END
>  <CHROM.1>
-4.13122305,127.71918414,178.08176461,54.55237044,179.00013958,59.57323670
-13.49435727,10.69959507,1.79110178,-0.36946102,-2.35129833

>  <Name>
lig.pdb

>  <RI>
0

>  <Rbt.Current_Directory>
/home/itssahil/PROJECTS/Mol_Feturizer/New_Systems/rnas/4znp

>  <Rbt.Executable>
rbdock ($Id: //depot/dev/client3/rdock/2013.1/src/exe/rbdock.cxx#4 $)

>  <Rbt.Library>
libRbt.so (2013.1, Build901 2013/11/27)

>  <Rbt.Parameter_File>
/export/apps/rDock/src/rDock_2013.1_src/data/scripts/dock_solv.prm

>  <Rbt.Receptor>
prm/pocket_docking_5.prm

>  <SCORE>
-25.5762

>  <SCORE.INTER>
-19.3759

>  <SCORE.INTER.CONST>
1

>  <SCORE.INTER.POLAR>
0

>  <SCORE.INTER.ROT>
5

>  <SCORE.INTER.SOLV>
21.6668

>  <SCORE.INTER.VDW>
-27.0729

>  <SCORE.INTER.norm>
-0.880722

>  <SCORE.INTRA>
-6.20033

>  <SCORE.INTRA.DIHEDRAL>
-9.40572

>  <SCORE.INTRA.DIHEDRAL.0>
11.9251

>  <SCORE.INTRA.POLAR>
0

>  <SCORE.INTRA.POLAR.0>
0

>  <SCORE.INTRA.REPUL>
0

>  <SCORE.INTRA.REPUL.0>
0

>  <SCORE.INTRA.SOLV>
-0.420275

>  <SCORE.INTRA.SOLV.lig_0>
-40.9823

>  <SCORE.INTRA.VDW>
-1.28733

>  <SCORE.INTRA.VDW.0>
-0.53506

>  <SCORE.INTRA.norm>
-0.281833

>  <SCORE.RESTR>
0

>  <SCORE.RESTR.CAVITY>
0

>  <SCORE.RESTR.norm>
0

>  <SCORE.SYSTEM>
0

>  <SCORE.SYSTEM.CONST>
0

>  <SCORE.SYSTEM.DIHEDRAL>
0

>  <SCORE.SYSTEM.SOLV>
0

>  <SCORE.SYSTEM.norm>
0

>  <SCORE.heavy>
22

>  <SCORE.norm>
-1.16256

>  <RMSD>
2.065

$$$$
lig.pdb
 OpenBabel11021811523D
libRbt.so/2013.1/901 2013/11/27
 22 23  0  0  0  0  0  0  0  0999 V2000
   56.1272  -15.9497    8.3277 O   0  0  0  0  0  0  0  0  0  0  0  0
   56.8473  -16.9078    8.4820 C   0  0  0  0  0  0  0  0  0  0  0  0
   56.4143  -18.1449    8.3145 N   0  0  0  0  0  0  0  0  0  0  0  0
   58.2406  -16.7217    8.9113 C   0  0  0  0  0  0  0  0  0  0  0  0
   58.8476  -15.4349    9.2592 C   0  0  0  0  0  0  0  0  0  0  0  0
   58.2267  -14.2365    9.2179 N   0  0  0  0  0  0  0  0  0  0  0  0
   59.2306  -17.6129    9.0787 N   0  0  0  0  0  0  0  0  0  0  0  0
   60.3380  -16.9510    9.5152 C   0  0  0  0  0  0  0  0  0  0  0  0
   60.1085  -15.6212    9.6331 N   0  0  0  0  0  0  0  0  0  0  0  0
   61.0968  -14.6031   10.0825 C   0  0  1  0  0  0  0  0  0  0  0  0
   61.6634  -13.8884    8.8749 C   0  0  1  0  0  0  0  0  0  0  0  0
   61.7876  -12.4572    9.3295 C   0  0  2  0  0  0  0  0  0  0  0  0
   63.0849  -12.2390    9.8982 O   0  0  0  0  0  0  0  0  0  0  0  0
   62.9275  -14.4497    8.4883 O   0  0  0  0  0  0  0  0  0  0  0  0
   60.4527  -13.6015   10.8659 O   0  0  0  0  0  0  0  0  0  0  0  0
   60.7548  -12.3028   10.4156 C   0  0  2  0  0  0  0  0  0  0  0  0
   59.4352  -11.6883    9.9968 C   0  0  0  0  0  0  0  0  0  0  0  0
   59.4344  -10.2858   10.1675 O   0  0  0  0  0  0  0  0  0  0  0  0
   60.4261   -9.4074    9.2745 P   0  0  0  0  0  0  0  0  0  0  0  0
   59.7997   -8.0280    9.2334 O   0  0  0  0  0  0  0  0  0  0  0  0
   60.4161  -10.1509    7.9639 O   0  0  0  0  0  0  0  0  0  0  0  0
   61.7415   -9.5306    9.9925 O   0  0  0  0  0  0  0  0  0  0  0  0
  2  1  2  0  0  0  0
  2  4  1  0  0  0  0
  3  2  1  0  0  0  0
  4  7  1  0  0  0  0
  4  5  2  0  0  0  0
  5  6  1  0  0  0  0
  5  9  1  0  0  0  0
  7  8  2  0  0  0  0
  8  9  1  0  0  0  0
 10  9  1  6  0  0  0
 10 15  1  0  0  0  0
 11 14  1  1  0  0  0
 11 12  1  0  0  0  0
 11 10  1  0  0  0  0
 12 13  1  1  0  0  0
 12 16  1  0  0  0  0
 16 17  1  6  0  0  0
 16 15  1  0  0  0  0
 18 19  1  0  0  0  0
 18 17  1  0  0  0  0
 19 21  1  0  0  0  0
 20 19  1  0  0  0  0
 22 19  2  0  0  0  0
M  END
>  <CHROM.1>
3.81122209,-79.08579620,-91.83028469,156.26660297,65.38291259,59.95545698
-13.28293904,9.33504238,1.94657579,0.15198143,-3.11417064

>  <Name>
lig.pdb

>  <RI>
0

>  <Rbt.Current_Directory>
/home/itssahil/PROJECTS/Mol_Feturizer/New_Systems/rnas/4znp

>  <Rbt.Executable>
rbdock ($Id: //depot/dev/client3/rdock/2013.1/src/exe/rbdock.cxx#4 $)

>  <Rbt.Library>
libRbt.so (2013.1, Build901 2013/11/27)

>  <Rbt.Parameter_File>
/export/apps/rDock/src/rDock_2013.1_src/data/scripts/dock_solv.prm

>  <Rbt.Receptor>
prm/pocket_docking_4.prm

>  <SCORE>
-21.5045

>  <SCORE.INTER>
-18.9208

>  <SCORE.INTER.CONST>
1

>  <SCORE.INTER.POLAR>
0

>  <SCORE.INTER.ROT>
5

>  <SCORE.INTER.SOLV>
20.0071

>  <SCORE.INTER.VDW>
-26.2162

>  <SCORE.INTER.norm>
-0.860035

>  <SCORE.INTRA>
-2.58376

>  <SCORE.INTRA.DIHEDRAL>
-5.59708

>  <SCORE.INTRA.DIHEDRAL.0>
11.9251

>  <SCORE.INTRA.POLAR>
0

>  <SCORE.INTRA.POLAR.0>
0

>  <SCORE.INTRA.REPUL>
0

>  <SCORE.INTRA.REPUL.0>
0

>  <SCORE.INTRA.SOLV>
3.36623

>  <SCORE.INTRA.SOLV.lig_0>
-40.9823

>  <SCORE.INTRA.VDW>
-1.46834

>  <SCORE.INTRA.VDW.0>
-0.53506

>  <SCORE.INTRA.norm>
-0.117444

>  <SCORE.RESTR>
0

>  <SCORE.RESTR.CAVITY>
0

>  <SCORE.RESTR.norm>
0

>  <SCORE.SYSTEM>
0

>  <SCORE.SYSTEM.CONST>
0

>  <SCORE.SYSTEM.DIHEDRAL>
0

>  <SCORE.SYSTEM.SOLV>
0

>  <SCORE.SYSTEM.norm>
0

>  <SCORE.heavy>
22

>  <SCORE.norm>
-0.977479

>  <RMSD>
2.075

$$$$
lig.pdb
 OpenBabel11021811523D
libRbt.so/2013.1/901 2013/11/27
 22 23  0  0  0  0  0  0  0  0999 V2000
   57.5864  -18.1176    8.4035 O   0  0  0  0  0  0  0  0  0  0  0  0
   57.0324  -17.0481    8.5026 C   0  0  0  0  0  0  0  0  0  0  0  0
   55.7467  -16.8972    8.2382 N   0  0  0  0  0  0  0  0  0  0  0  0
   57.7982  -15.8535    8.8853 C   0  0  0  0  0  0  0  0  0  0  0  0
   59.2205  -15.8438    9.2353 C   0  0  0  0  0  0  0  0  0  0  0  0
   60.0267  -16.9262    9.2766 N   0  0  0  0  0  0  0  0  0  0  0  0
   57.4178  -14.5713    9.0028 N   0  0  0  0  0  0  0  0  0  0  0  0
   58.5023  -13.8305    9.3630 C   0  0  0  0  0  0  0  0  0  0  0  0
   59.6077  -14.6013    9.5007 N   0  0  0  0  0  0  0  0  0  0  0  0
   60.9629  -14.1203    9.8847 C   0  0  1  0  0  0  0  0  0  0  0  0
   61.3460  -12.9494    9.0058 C   0  0  1  0  0  0  0  0  0  0  0  0
   62.0651  -12.0154    9.9444 C   0  0  2  0  0  0  0  0  0  0  0  0
   63.4686  -12.3053    9.9375 O   0  0  0  0  0  0  0  0  0  0  0  0
   62.1777  -13.3730    7.9143 O   0  0  0  0  0  0  0  0  0  0  0  0
   60.9502  -13.6221   11.2201 O   0  0  0  0  0  0  0  0  0  0  0  0
   61.5150  -12.3361   11.3099 C   0  0  2  0  0  0  0  0  0  0  0  0
   60.4110  -11.4291   11.8127 C   0  0  0  0  0  0  0  0  0  0  0  0
   59.9408  -11.8327   13.0823 O   0  0  0  0  0  0  0  0  0  0  0  0
   58.8176  -10.9493   13.7969 P   0  0  0  0  0  0  0  0  0  0  0  0
   57.6817  -10.8742   12.7964 O   0  0  0  0  0  0  0  0  0  0  0  0
   59.5413   -9.6497   14.0378 O   0  0  0  0  0  0  0  0  0  0  0  0
   58.5458  -11.6981   15.0721 O   0  0  0  0  0  0  0  0  0  0  0  0
  2  1  2  0  0  0  0
  2  4  1  0  0  0  0
  3  2  1  0  0  0  0
  4  7  1  0  0  0  0
  4  5  2  0  0  0  0
  5  6  1  0  0  0  0
  5  9  1  0  0  0  0
  7  8  2  0  0  0  0
  8  9  1  0  0  0  0
 10  9  1  6  0  0  0
 10 15  1  0  0  0  0
 11 14  1  6  0  0  0
 11 12  1  0  0  0  0
 11 10  1  0  0  0  0
 12 13  1  1  0  0  0
 12 16  1  0  0  0  0
 16 17  1  6  0  0  0
 16 15  1  0  0  0  0
 18 19  1  0  0  0  0
 18 17  1  0  0  0  0
 19 21  1  0  0  0  0
 20 19  1  0  0  0  0
 22 19  2  0  0  0  0
M  END
>  <CHROM.1>
-3.16405627,130.04415727,178.46897184,55.39481348,177.30681717,59.55255654
-13.44936612,10.72606066,1.78686847,-0.39033504,-2.34025195

>  <Name>
lig.pdb

>  <RI>
0

>  <Rbt.Current_Directory>
/home/itssahil/PROJECTS/Mol_Feturizer/New_Systems/rnas/4znp

>  <Rbt.Executable>
rbdock ($Id: //depot/dev/client3/rdock/2013.1/src/exe/rbdock.cxx#4 $)

>  <Rbt.Library>
libRbt.so (2013.1, Build901 2013/11/27)

>  <Rbt.Parameter_File>
/export/apps/rDock/src/rDock_2013.1_src/data/scripts/dock_solv.prm

>  <Rbt.Receptor>
prm/pocket_docking_6.prm

>  <SCORE>
-25.5628

>  <SCORE.INTER>
-19.4013

>  <SCORE.INTER.CONST>
1

>  <SCORE.INTER.POLAR>
0

>  <SCORE.INTER.ROT>
5

>  <SCORE.INTER.SOLV>
21.4706

>  <SCORE.INTER.VDW>
-27.0244

>  <SCORE.INTER.norm>
-0.881875

>  <SCORE.INTRA>
-6.16155

>  <SCORE.INTRA.DIHEDRAL>
-9.40522

>  <SCORE.INTRA.DIHEDRAL.0>
11.9251

>  <SCORE.INTRA.POLAR>
0

>  <SCORE.INTRA.POLAR.0>
0

>  <SCORE.INTRA.REPUL>
0

>  <SCORE.INTRA.REPUL.0>
0

>  <SCORE.INTRA.SOLV>
-0.427222

>  <SCORE.INTRA.SOLV.lig_0>
-40.9823

>  <SCORE.INTRA.VDW>
-1.24533

>  <SCORE.INTRA.VDW.0>
-0.53506

>  <SCORE.INTRA.norm>
-0.28007

>  <SCORE.RESTR>
0

>  <SCORE.RESTR.CAVITY>
0

>  <SCORE.RESTR.norm>
0

>  <SCORE.SYSTEM>
0

>  <SCORE.SYSTEM.CONST>
0

>  <SCORE.SYSTEM.DIHEDRAL>
0

>  <SCORE.SYSTEM.SOLV>
0

>  <SCORE.SYSTEM.norm>
0

>  <SCORE.heavy>
22

>  <SCORE.norm>
-1.16195

>  <RMSD>
2.092

$$$$
lig.pdb
 OpenBabel11021811523D
libRbt.so/2013.1/901 2013/11/27
 22 23  0  0  0  0  0  0  0  0999 V2000
   57.5706  -18.1030    8.3709 O   0  0  0  0  0  0  0  0  0  0  0  0
   57.0173  -17.0353    8.4914 C   0  0  0  0  0  0  0  0  0  0  0  0
   55.7286  -16.8813    8.2435 N   0  0  0  0  0  0  0  0  0  0  0  0
   57.7869  -15.8458    8.8824 C   0  0  0  0  0  0  0  0  0  0  0  0
   59.2113  -15.8417    9.2239 C   0  0  0  0  0  0  0  0  0  0  0  0
   60.0164  -16.9255    9.2487 N   0  0  0  0  0  0  0  0  0  0  0  0
   57.4089  -14.5646    9.0161 N   0  0  0  0  0  0  0  0  0  0  0  0
   58.4965  -13.8291    9.3778 C   0  0  0  0  0  0  0  0  0  0  0  0
   59.6017  -14.6027    9.5004 N   0  0  0  0  0  0  0  0  0  0  0  0
   60.9598  -14.1275    9.8815 C   0  0  1  0  0  0  0  0  0  0  0  0
   61.3453  -12.9571    9.0030 C   0  0  1  0  0  0  0  0  0  0  0  0
   62.0705  -12.0271    9.9408 C   0  0  2  0  0  0  0  0  0  0  0  0
   63.4729  -12.3227    9.9300 O   0  0  0  0  0  0  0  0  0  0  0  0
   62.1725  -13.3828    7.9089 O   0  0  0  0  0  0  0  0  0  0  0  0
   60.9525  -13.6308   11.2176 O   0  0  0  0  0  0  0  0  0  0  0  0
   61.5227  -12.3472   11.3073 C   0  0  2  0  0  0  0  0  0  0  0  0
   60.4236  -11.4363   11.8140 C   0  0  0  0  0  0  0  0  0  0  0  0
   59.9606  -11.8347   13.0879 O   0  0  0  0  0  0  0  0  0  0  0  0
   58.8299  -10.9575   13.7982 P   0  0  0  0  0  0  0  0  0  0  0  0
   57.6810  -10.9236   12.8104 O   0  0  0  0  0  0  0  0  0  0  0  0
   59.5323   -9.6402   14.0036 O   0  0  0  0  0  0  0  0  0  0  0  0
   58.5872  -11.6847   15.0916 O   0  0  0  0  0  0  0  0  0  0  0  0
  2  1  2  0  0  0  0
  2  4  1  0  0  0  0
  3  2  1  0  0  0  0
  4  7  1  0  0  0  0
  4  5  2  0  0  0  0
  5  6  1  0  0  0  0
  5  9  1  0  0  0  0
  7  8  2  0  0  0  0
  8  9  1  0  0  0  0
 10  9  1  6  0  0  0
 10 15  1  0  0  0  0
 11 14  1  6  0  0  0
 11 12  1  0  0  0  0
 11 10  1  0  0  0  0
 12 13  1  1  0  0  0
 12 16  1  0  0  0  0
 16 17  1  6  0  0  0
 16 15  1  0  0  0  0
 18 19  1  0  0  0  0
 18 17  1  0  0  0  0
 19 21  1  0  0  0  0
 20 19  1  0  0  0  0
 22 19  2  0  0  0  0
M  END
>  <CHROM.1>
-3.53295228,129.43358284,178.82449724,56.41002623,178.09522785,59.55304005
-13.45252425,10.72292380,1.79015237,-0.38748710,-2.33690435

>  <Name>
lig.pdb

>  <RI>
0

>  <Rbt.Current_Directory>
/home/itssahil/PROJECTS/Mol_Feturizer/New_Systems/rnas/4znp

>  <Rbt.Executable>
rbdock ($Id: //depot/dev/client3/rdock/2013.1/src/exe/rbdock.cxx#4 $)

>  <Rbt.Library>
libRbt.so (2013.1, Build901 2013/11/27)

>  <Rbt.Parameter_File>
/export/apps/rDock/src/rDock_2013.1_src/data/scripts/dock_solv.prm

>  <Rbt.Receptor>
prm/pocket_docking_5.prm

>  <SCORE>
-25.6515

>  <SCORE.INTER>
-19.4631

>  <SCORE.INTER.CONST>
1

>  <SCORE.INTER.POLAR>
0

>  <SCORE.INTER.ROT>
5

>  <SCORE.INTER.SOLV>
21.5236

>  <SCORE.INTER.VDW>
-27.0832

>  <SCORE.INTER.norm>
-0.884685

>  <SCORE.INTRA>
-6.18847

>  <SCORE.INTRA.DIHEDRAL>
-9.43272

>  <SCORE.INTRA.DIHEDRAL.0>
11.9251

>  <SCORE.INTRA.POLAR>
0

>  <SCORE.INTRA.POLAR.0>
0

>  <SCORE.INTRA.REPUL>
0

>  <SCORE.INTRA.REPUL.0>
0

>  <SCORE.INTRA.SOLV>
-0.425976

>  <SCORE.INTRA.SOLV.lig_0>
-40.9823

>  <SCORE.INTRA.VDW>
-1.25912

>  <SCORE.INTRA.VDW.0>
-0.53506

>  <SCORE.INTRA.norm>
-0.281294

>  <SCORE.RESTR>
0

>  <SCORE.RESTR.CAVITY>
0

>  <SCORE.RESTR.norm>
0

>  <SCORE.SYSTEM>
0

>  <SCORE.SYSTEM.CONST>
0

>  <SCORE.SYSTEM.DIHEDRAL>
0

>  <SCORE.SYSTEM.SOLV>
0

>  <SCORE.SYSTEM.norm>
0

>  <SCORE.heavy>
22

>  <SCORE.norm>
-1.16598

>  <RMSD>
2.093

$$$$
lig.pdb
 OpenBabel11021811523D
libRbt.so/2013.1/901 2013/11/27
 22 23  0  0  0  0  0  0  0  0999 V2000
   55.7891  -17.2004    7.7775 O   0  0  0  0  0  0  0  0  0  0  0  0
   56.9389  -17.2203    8.1492 C   0  0  0  0  0  0  0  0  0  0  0  0
   57.6736  -18.3173    8.0978 N   0  0  0  0  0  0  0  0  0  0  0  0
   57.5503  -16.0121    8.7205 C   0  0  0  0  0  0  0  0  0  0  0  0
   58.8585  -15.9628    9.3773 C   0  0  0  0  0  0  0  0  0  0  0  0
   59.6807  -17.0164    9.5707 N   0  0  0  0  0  0  0  0  0  0  0  0
   57.0996  -14.7489    8.7812 N   0  0  0  0  0  0  0  0  0  0  0  0
   58.0456  -13.9818    9.3904 C   0  0  0  0  0  0  0  0  0  0  0  0
   59.1249  -14.7165    9.7515 N   0  0  0  0  0  0  0  0  0  0  0  0
   60.3404  -14.1999   10.4379 C   0  0  1  0  0  0  0  0  0  0  0  0
   61.4430  -14.0009    9.4207 C   0  0  1  0  0  0  0  0  0  0  0  0
   62.1189  -12.7303    9.8670 C   0  0  2  0  0  0  0  0  0  0  0  0
   63.1904  -13.0403   10.7669 O   0  0  0  0  0  0  0  0  0  0  0  0
   62.3417  -15.1211    9.4068 O   0  0  0  0  0  0  0  0  0  0  0  0
   60.0835  -12.9139   10.9962 O   0  0  0  0  0  0  0  0  0  0  0  0
   61.0601  -11.9714   10.6239 C   0  0  2  0  0  0  0  0  0  0  0  0
   60.3285  -10.8961    9.8474 C   0  0  0  0  0  0  0  0  0  0  0  0
   61.1881   -9.8334    9.4900 O   0  0  0  0  0  0  0  0  0  0  0  0
   61.6808   -9.7267    7.9739 P   0  0  0  0  0  0  0  0  0  0  0  0
   60.4316   -9.4096    7.1766 O   0  0  0  0  0  0  0  0  0  0  0  0
   62.2608  -11.0962    7.7315 O   0  0  0  0  0  0  0  0  0  0  0  0
   62.7377   -8.6585    8.0265 O   0  0  0  0  0  0  0  0  0  0  0  0
  2  1  2  0  0  0  0
  2  4  1  0  0  0  0
  3  2  1  0  0  0  0
  4  7  1  0  0  0  0
  4  5  2  0  0  0  0
  5  6  1  0  0  0  0
  5  9  1  0  0  0  0
  7  8  2  0  0  0  0
  8  9  1  0  0  0  0
 10  9  1  6  0  0  0
 10 15  1  0  0  0  0
 11 14  1  1  0  0  0
 11 12  1  0  0  0  0
 11 10  1  0  0  0  0
 12 13  1  1  0  0  0
 12 16  1  0  0  0  0
 16 17  1  6  0  0  0
 16 15  1  0  0  0  0
 18 19  1  0  0  0  0
 18 17  1  0  0  0  0
 19 21  1  0  0  0  0
 20 19  1  0  0  0  0
 22 19  2  0  0  0  0
M  END
>  <CHROM.1>
170.73042532,80.31679158,-66.08479298,66.75381089,104.77689374,60.16463294
-13.26574174,9.07736074,2.22310467,0.48826516,2.78622811

>  <Name>
lig.pdb

>  <RI>
0

>  <Rbt.Current_Directory>
/home/itssahil/PROJECTS/Mol_Feturizer/New_Systems/rnas/4znp

>  <Rbt.Executable>
rbdock ($Id: //depot/dev/client3/rdock/2013.1/src/exe/rbdock.cxx#4 $)

>  <Rbt.Library>
libRbt.so (2013.1, Build901 2013/11/27)

>  <Rbt.Parameter_File>
/export/apps/rDock/src/rDock_2013.1_src/data/scripts/dock_solv.prm

>  <Rbt.Receptor>
prm/pocket_docking_5.prm

>  <SCORE>
-26.5004

>  <SCORE.INTER>
-24.2312

>  <SCORE.INTER.CONST>
1

>  <SCORE.INTER.POLAR>
0

>  <SCORE.INTER.ROT>
5

>  <SCORE.INTER.SOLV>
24.2816

>  <SCORE.INTER.VDW>
-31.1813

>  <SCORE.INTER.norm>
-1.10142

>  <SCORE.INTRA>
-2.26921

>  <SCORE.INTRA.DIHEDRAL>
-2.95991

>  <SCORE.INTRA.DIHEDRAL.0>
11.9251

>  <SCORE.INTRA.POLAR>
0

>  <SCORE.INTRA.POLAR.0>
0

>  <SCORE.INTRA.REPUL>
0

>  <SCORE.INTRA.REPUL.0>
0

>  <SCORE.INTRA.SOLV>
1.09345

>  <SCORE.INTRA.SOLV.lig_0>
-40.9823

>  <SCORE.INTRA.VDW>
-1.33598

>  <SCORE.INTRA.VDW.0>
-0.53506

>  <SCORE.INTRA.norm>
-0.103146

>  <SCORE.RESTR>
0

>  <SCORE.RESTR.CAVITY>
0

>  <SCORE.RESTR.norm>
0

>  <SCORE.SYSTEM>
0

>  <SCORE.SYSTEM.CONST>
0

>  <SCORE.SYSTEM.DIHEDRAL>
0

>  <SCORE.SYSTEM.SOLV>
0

>  <SCORE.SYSTEM.norm>
0

>  <SCORE.heavy>
22

>  <SCORE.norm>
-1.20456

>  <RMSD>
2.130

$$$$
lig.pdb
 OpenBabel11021811523D
libRbt.so/2013.1/901 2013/11/27
 22 23  0  0  0  0  0  0  0  0999 V2000
   56.6194  -18.0942    8.3474 O   0  0  0  0  0  0  0  0  0  0  0  0
   57.0553  -16.9788    8.5097 C   0  0  0  0  0  0  0  0  0  0  0  0
   56.3173  -15.9013    8.3095 N   0  0  0  0  0  0  0  0  0  0  0  0
   58.4591  -16.7852    8.8998 C   0  0  0  0  0  0  0  0  0  0  0  0
   59.0650  -15.4973    9.2453 C   0  0  0  0  0  0  0  0  0  0  0  0
   58.4327  -14.3042    9.2372 N   0  0  0  0  0  0  0  0  0  0  0  0
   59.4614  -17.6694    9.0267 N   0  0  0  0  0  0  0  0  0  0  0  0
   60.5755  -17.0029    9.4381 C   0  0  0  0  0  0  0  0  0  0  0  0
   60.3380  -15.6767    9.5792 N   0  0  0  0  0  0  0  0  0  0  0  0
   61.3304  -14.6551   10.0115 C   0  0  1  0  0  0  0  0  0  0  0  0
   61.6986  -13.7837    8.8304 C   0  0  1  0  0  0  0  0  0  0  0  0
   61.8175  -12.4041    9.4245 C   0  0  2  0  0  0  0  0  0  0  0  0
   63.1677  -12.1708    9.8445 O   0  0  0  0  0  0  0  0  0  0  0  0
   62.9241  -14.2245    8.2251 O   0  0  0  0  0  0  0  0  0  0  0  0
   60.7517  -13.7826   10.9788 O   0  0  0  0  0  0  0  0  0  0  0  0
   60.9324  -12.4277   10.6435 C   0  0  2  0  0  0  0  0  0  0  0  0
   59.5424  -11.8517   10.4682 C   0  0  0  0  0  0  0  0  0  0  0  0
   58.8084  -11.8818   11.6750 O   0  0  0  0  0  0  0  0  0  0  0  0
   59.2258  -10.8804   12.8478 P   0  0  0  0  0  0  0  0  0  0  0  0
   60.6625  -11.2356   13.1745 O   0  0  0  0  0  0  0  0  0  0  0  0
   58.2259  -11.2172   13.9237 O   0  0  0  0  0  0  0  0  0  0  0  0
   58.9855   -9.5229   12.2476 O   0  0  0  0  0  0  0  0  0  0  0  0
  2  1  2  0  0  0  0
  2  4  1  0  0  0  0
  3  2  1  0  0  0  0
  4  7  1  0  0  0  0
  4  5  2  0  0  0  0
  5  6  1  0  0  0  0
  5  9  1  0  0  0  0
  7  8  2  0  0  0  0
  8  9  1  0  0  0  0
 10  9  1  6  0  0  0
 10 15  1  0  0  0  0
 11 14  1  1  0  0  0
 11 12  1  0  0  0  0
 11 10  1  0  0  0  0
 12 13  1  1  0  0  0
 12 16  1  0  0  0  0
 16 17  1  6  0  0  0
 16 15  1  0  0  0  0
 18 19  1  0  0  0  0
 18 17  1  0  0  0  0
 19 21  1  0  0  0  0
 20 19  1  0  0  0  0
 22 19  2  0  0  0  0
M  END
>  <CHROM.1>
-174.00064554,-70.63941273,-178.15137768,-59.76740072,71.19270357,59.73708074
-13.73305653,10.34487544,1.76733062,-0.27630320,-2.52679406

>  <Name>
lig.pdb

>  <RI>
0

>  <Rbt.Current_Directory>
/home/itssahil/PROJECTS/Mol_Feturizer/New_Systems/rnas/4znp

>  <Rbt.Executable>
rbdock ($Id: //depot/dev/client3/rdock/2013.1/src/exe/rbdock.cxx#4 $)

>  <Rbt.Library>
libRbt.so (2013.1, Build901 2013/11/27)

>  <Rbt.Parameter_File>
/export/apps/rDock/src/rDock_2013.1_src/data/scripts/dock_solv.prm

>  <Rbt.Receptor>
prm/pocket_docking_5.prm

>  <SCORE>
-23.5924

>  <SCORE.INTER>
-18.7406

>  <SCORE.INTER.CONST>
1

>  <SCORE.INTER.POLAR>
0

>  <SCORE.INTER.ROT>
5

>  <SCORE.INTER.SOLV>
20.0547

>  <SCORE.INTER.VDW>
-26.1119

>  <SCORE.INTER.norm>
-0.851844

>  <SCORE.INTRA>
-4.85187

>  <SCORE.INTRA.DIHEDRAL>
-8.70514

>  <SCORE.INTRA.DIHEDRAL.0>
11.9251

>  <SCORE.INTRA.POLAR>
0

>  <SCORE.INTRA.POLAR.0>
0

>  <SCORE.INTRA.REPUL>
0.0105794

>  <SCORE.INTRA.REPUL.0>
0

>  <SCORE.INTRA.SOLV>
2.35622

>  <SCORE.INTRA.SOLV.lig_0>
-40.9823

>  <SCORE.INTRA.VDW>
-1.73031

>  <SCORE.INTRA.VDW.0>
-0.53506

>  <SCORE.INTRA.norm>
-0.22054

>  <SCORE.RESTR>
0

>  <SCORE.RESTR.CAVITY>
0

>  <SCORE.RESTR.norm>
0

>  <SCORE.SYSTEM>
0

>  <SCORE.SYSTEM.CONST>
0

>  <SCORE.SYSTEM.DIHEDRAL>
0

>  <SCORE.SYSTEM.SOLV>
0

>  <SCORE.SYSTEM.norm>
0

>  <SCORE.heavy>
22

>  <SCORE.norm>
-1.07238

>  <RMSD>
2.170

$$$$
lig.pdb
 OpenBabel11021811523D
libRbt.so/2013.1/901 2013/11/27
 22 23  0  0  0  0  0  0  0  0999 V2000
   56.2451  -15.5868    8.5542 O   0  0  0  0  0  0  0  0  0  0  0  0
   56.9172  -16.5912    8.5559 C   0  0  0  0  0  0  0  0  0  0  0  0
   56.4088  -17.7758    8.2659 N   0  0  0  0  0  0  0  0  0  0  0  0
   58.3370  -16.5278    8.9306 C   0  0  0  0  0  0  0  0  0  0  0  0
   59.0679  -15.2989    9.2481 C   0  0  0  0  0  0  0  0  0  0  0  0
   58.5538  -14.0505    9.2242 N   0  0  0  0  0  0  0  0  0  0  0  0
   59.2504  -17.5025    9.0646 N   0  0  0  0  0  0  0  0  0  0  0  0
   60.4278  -16.9401    9.4548 C   0  0  0  0  0  0  0  0  0  0  0  0
   60.3210  -15.5950    9.5744 N   0  0  0  0  0  0  0  0  0  0  0  0
   61.4117  -14.6671    9.9802 C   0  0  1  0  0  0  0  0  0  0  0  0
   61.7513  -13.7562    8.8204 C   0  0  1  0  0  0  0  0  0  0  0  0
   62.0101  -12.4234    9.4738 C   0  0  2  0  0  0  0  0  0  0  0  0
   63.4008  -12.3037    9.7989 O   0  0  0  0  0  0  0  0  0  0  0  0
   62.8946  -14.2417    8.0996 O   0  0  0  0  0  0  0  0  0  0  0  0
   60.9689  -13.8147   11.0333 O   0  0  0  0  0  0  0  0  0  0  0  0
   61.2185  -12.4579   10.7553 C   0  0  2  0  0  0  0  0  0  0  0  0
   59.8631  -11.7826   10.7188 C   0  0  0  0  0  0  0  0  0  0  0  0
   59.3299  -11.6108   12.0158 O   0  0  0  0  0  0  0  0  0  0  0  0
   58.0930  -10.6179   12.2075 P   0  0  0  0  0  0  0  0  0  0  0  0
   58.6036   -9.2634   11.7589 O   0  0  0  0  0  0  0  0  0  0  0  0
   57.8160  -10.7372   13.6840 O   0  0  0  0  0  0  0  0  0  0  0  0
   57.0123  -11.2435   11.3700 O   0  0  0  0  0  0  0  0  0  0  0  0
  2  1  2  0  0  0  0
  2  4  1  0  0  0  0
  3  2  1  0  0  0  0
  4  7  1  0  0  0  0
  4  5  2  0  0  0  0
  5  6  1  0  0  0  0
  5  9  1  0  0  0  0
  7  8  2  0  0  0  0
  8  9  1  0  0  0  0
 10  9  1  6  0  0  0
 10 15  1  0  0  0  0
 11 14  1  1  0  0  0
 11 12  1  0  0  0  0
 11 10  1  0  0  0  0
 12 13  1  1  0  0  0
 12 16  1  0  0  0  0
 16 17  1  6  0  0  0
 16 15  1  0  0  0  0
 18 19  1  0  0  0  0
 18 17  1  0  0  0  0
 19 21  1  0  0  0  0
 20 19  1  0  0  0  0
 22 19  2  0  0  0  0
M  END
>  <CHROM.1>
-3.59140934,-64.78910657,-167.18832297,-60.79333479,165.51344665,59.46502788
-13.57061488,10.20088648,1.56591675,-0.17494710,-2.62945290

>  <Name>
lig.pdb

>  <RI>
0

>  <Rbt.Current_Directory>
/home/itssahil/PROJECTS/Mol_Feturizer/New_Systems/rnas/4znp

>  <Rbt.Executable>
rbdock ($Id: //depot/dev/client3/rdock/2013.1/src/exe/rbdock.cxx#4 $)

>  <Rbt.Library>
libRbt.so (2013.1, Build901 2013/11/27)

>  <Rbt.Parameter_File>
/export/apps/rDock/src/rDock_2013.1_src/data/scripts/dock_solv.prm

>  <Rbt.Receptor>
prm/pocket_docking_6.prm

>  <SCORE>
-23.1695

>  <SCORE.INTER>
-17.8975

>  <SCORE.INTER.CONST>
1

>  <SCORE.INTER.POLAR>
0

>  <SCORE.INTER.ROT>
5

>  <SCORE.INTER.SOLV>
21.3187

>  <SCORE.INTER.VDW>
-25.9713

>  <SCORE.INTER.norm>
-0.813524

>  <SCORE.INTRA>
-5.272

>  <SCORE.INTRA.DIHEDRAL>
-7.9266

>  <SCORE.INTRA.DIHEDRAL.0>
11.9251

>  <SCORE.INTRA.POLAR>
0

>  <SCORE.INTRA.POLAR.0>
0

>  <SCORE.INTRA.REPUL>
0

>  <SCORE.INTRA.REPUL.0>
0

>  <SCORE.INTRA.SOLV>
1.20046

>  <SCORE.INTRA.SOLV.lig_0>
-40.9823

>  <SCORE.INTRA.VDW>
-1.90893

>  <SCORE.INTRA.VDW.0>
-0.53506

>  <SCORE.INTRA.norm>
-0.239637

>  <SCORE.RESTR>
0

>  <SCORE.RESTR.CAVITY>
0

>  <SCORE.RESTR.norm>
0

>  <SCORE.SYSTEM>
0

>  <SCORE.SYSTEM.CONST>
0

>  <SCORE.SYSTEM.DIHEDRAL>
0

>  <SCORE.SYSTEM.SOLV>
0

>  <SCORE.SYSTEM.norm>
0

>  <SCORE.heavy>
22

>  <SCORE.norm>
-1.05316

>  <RMSD>
2.173

$$$$
lig.pdb
 OpenBabel11021811523D
libRbt.so/2013.1/901 2013/11/27
 22 23  0  0  0  0  0  0  0  0999 V2000
   56.0675  -17.1150    8.0281 O   0  0  0  0  0  0  0  0  0  0  0  0
   57.2323  -17.0569    8.3448 C   0  0  0  0  0  0  0  0  0  0  0  0
   58.0198  -18.1175    8.3197 N   0  0  0  0  0  0  0  0  0  0  0  0
   57.8054  -15.7889    8.8180 C   0  0  0  0  0  0  0  0  0  0  0  0
   59.1401  -15.6362    9.4016 C   0  0  0  0  0  0  0  0  0  0  0  0
   60.0264  -16.6340    9.6075 N   0  0  0  0  0  0  0  0  0  0  0  0
   57.2910  -14.5489    8.8348 N   0  0  0  0  0  0  0  0  0  0  0  0
   58.2235  -13.7016    9.3517 C   0  0  0  0  0  0  0  0  0  0  0  0
   59.3573  -14.3590    9.6942 N   0  0  0  0  0  0  0  0  0  0  0  0
   60.5758  -13.7434   10.2873 C   0  0  1  0  0  0  0  0  0  0  0  0
   61.7500  -13.9624    9.3581 C   0  0  1  0  0  0  0  0  0  0  0  0
   62.5208  -12.6704    9.4419 C   0  0  2  0  0  0  0  0  0  0  0  0
   63.5023  -12.7570   10.4827 O   0  0  0  0  0  0  0  0  0  0  0  0
   62.5331  -15.0928    9.7724 O   0  0  0  0  0  0  0  0  0  0  0  0
   60.4150  -12.3310   10.3917 O   0  0  0  0  0  0  0  0  0  0  0  0
   61.4998  -11.6325    9.8295 C   0  0  2  0  0  0  0  0  0  0  0  0
   60.9242  -10.8091    8.6959 C   0  0  0  0  0  0  0  0  0  0  0  0
   61.9360  -10.1476    7.9646 O   0  0  0  0  0  0  0  0  0  0  0  0
   62.5454   -8.7945    8.5563 P   0  0  0  0  0  0  0  0  0  0  0  0
   62.8330   -9.0976   10.0131 O   0  0  0  0  0  0  0  0  0  0  0  0
   61.4275   -7.8123    8.3187 O   0  0  0  0  0  0  0  0  0  0  0  0
   63.7341   -8.5335    7.6734 O   0  0  0  0  0  0  0  0  0  0  0  0
  2  1  2  0  0  0  0
  2  4  1  0  0  0  0
  3  2  1  0  0  0  0
  4  7  1  0  0  0  0
  4  5  2  0  0  0  0
  5  6  1  0  0  0  0
  5  9  1  0  0  0  0
  7  8  2  0  0  0  0
  8  9  1  0  0  0  0
 10  9  1  6  0  0  0
 10 15  1  0  0  0  0
 11 14  1  1  0  0  0
 11 12  1  0  0  0  0
 11 10  1  0  0  0  0
 12 13  1  1  0  0  0
 12 16  1  0  0  0  0
 16 17  1  6  0  0  0
 16 15  1  0  0  0  0
 18 19  1  0  0  0  0
 18 17  1  0  0  0  0
 19 21  1  0  0  0  0
 20 19  1  0  0  0  0
 22 19  2  0  0  0  0
M  END
>  <CHROM.1>
171.05100049,61.60159006,-56.67597137,46.95545107,-80.23467289,60.62465261
-12.84142547,9.10909368,2.17724053,0.33506426,2.90719831

>  <Name>
lig.pdb

>  <RI>
0

>  <Rbt.Current_Directory>
/home/itssahil/PROJECTS/Mol_Feturizer/New_Systems/rnas/4znp

>  <Rbt.Executable>
rbdock ($Id: //depot/dev/client3/rdock/2013.1/src/exe/rbdock.cxx#4 $)

>  <Rbt.Library>
libRbt.so (2013.1, Build901 2013/11/27)

>  <Rbt.Parameter_File>
/export/apps/rDock/src/rDock_2013.1_src/data/scripts/dock_solv.prm

>  <Rbt.Receptor>
prm/blind_docking_100.prm

>  <SCORE>
-25.7743

>  <SCORE.INTER>
-21.4886

>  <SCORE.INTER.CONST>
1

>  <SCORE.INTER.POLAR>
0

>  <SCORE.INTER.ROT>
5

>  <SCORE.INTER.SOLV>
21.8741

>  <SCORE.INTER.VDW>
-28.5504

>  <SCORE.INTER.norm>
-0.976754

>  <SCORE.INTRA>
-4.3054

>  <SCORE.INTRA.DIHEDRAL>
-7.17994

>  <SCORE.INTRA.DIHEDRAL.0>
11.9251

>  <SCORE.INTRA.POLAR>
0

>  <SCORE.INTRA.POLAR.0>
0

>  <SCORE.INTRA.REPUL>
0

>  <SCORE.INTRA.REPUL.0>
0

>  <SCORE.INTRA.SOLV>
1.13045

>  <SCORE.INTRA.SOLV.lig_0>
-40.9823

>  <SCORE.INTRA.VDW>
-1.28065

>  <SCORE.INTRA.VDW.0>
-0.53506

>  <SCORE.INTRA.norm>
-0.1957

>  <SCORE.RESTR>
0.019661

>  <SCORE.RESTR.CAVITY>
0.019661

>  <SCORE.RESTR.norm>
0.00089368

>  <SCORE.SYSTEM>
0

>  <SCORE.SYSTEM.CONST>
0

>  <SCORE.SYSTEM.DIHEDRAL>
0

>  <SCORE.SYSTEM.SOLV>
0

>  <SCORE.SYSTEM.norm>
0

>  <SCORE.heavy>
22

>  <SCORE.norm>
-1.17156

>  <RMSD>
2.184

$$$$
lig.pdb
 OpenBabel11021811523D
libRbt.so/2013.1/901 2013/11/27
 22 23  0  0  0  0  0  0  0  0999 V2000
   56.6318  -18.1547    8.3411 O   0  0  0  0  0  0  0  0  0  0  0  0
   57.0238  -17.0275    8.5311 C   0  0  0  0  0  0  0  0  0  0  0  0
   56.2458  -15.9747    8.3517 N   0  0  0  0  0  0  0  0  0  0  0  0
   58.4174  -16.7892    8.9327 C   0  0  0  0  0  0  0  0  0  0  0  0
   58.9818  -15.4810    9.2727 C   0  0  0  0  0  0  0  0  0  0  0  0
   58.3147  -14.3072    9.2482 N   0  0  0  0  0  0  0  0  0  0  0  0
   59.4441  -17.6423    9.0768 N   0  0  0  0  0  0  0  0  0  0  0  0
   60.5340  -16.9397    9.4930 C   0  0  0  0  0  0  0  0  0  0  0  0
   60.2562  -15.6200    9.6202 N   0  0  0  0  0  0  0  0  0  0  0  0
   61.2138  -14.5659   10.0530 C   0  0  1  0  0  0  0  0  0  0  0  0
   61.6194  -13.7356    8.8546 C   0  0  1  0  0  0  0  0  0  0  0  0
   61.6922  -12.3319    9.3976 C   0  0  2  0  0  0  0  0  0  0  0  0
   63.0195  -12.0600    9.8647 O   0  0  0  0  0  0  0  0  0  0  0  0
   62.8762  -14.1795    8.3198 O   0  0  0  0  0  0  0  0  0  0  0  0
   60.5813  -13.6657   10.9593 O   0  0  0  0  0  0  0  0  0  0  0  0
   60.7560  -12.3223   10.5780 C   0  0  2  0  0  0  0  0  0  0  0  0
   59.3665  -11.7767   10.3212 C   0  0  0  0  0  0  0  0  0  0  0  0
   58.5821  -11.7708   11.4963 O   0  0  0  0  0  0  0  0  0  0  0  0
   59.0476  -10.8559   12.7205 P   0  0  0  0  0  0  0  0  0  0  0  0
   59.4606   -9.5400   12.0924 O   0  0  0  0  0  0  0  0  0  0  0  0
   60.1761  -11.6629   13.3088 O   0  0  0  0  0  0  0  0  0  0  0  0
   57.8379  -10.8280   13.6131 O   0  0  0  0  0  0  0  0  0  0  0  0
  2  1  2  0  0  0  0
  2  4  1  0  0  0  0
  3  2  1  0  0  0  0
  4  7  1  0  0  0  0
  4  5  2  0  0  0  0
  5  6  1  0  0  0  0
  5  9  1  0  0  0  0
  7  8  2  0  0  0  0
  8  9  1  0  0  0  0
 10  9  1  6  0  0  0
 10 15  1  0  0  0  0
 11 14  1  1  0  0  0
 11 12  1  0  0  0  0
 11 10  1  0  0  0  0
 12 13  1  1  0  0  0
 12 16  1  0  0  0  0
 16 17  1  6  0  0  0
 16 15  1  0  0  0  0
 18 19  1  0  0  0  0
 18 17  1  0  0  0  0
 19 21  1  0  0  0  0
 20 19  1  0  0  0  0
 22 19  2  0  0  0  0
M  END
>  <CHROM.1>
-175.89870462,-73.35583405,-178.11857631,43.42643681,63.21965129,59.62623738
-13.70068433,10.31649478,1.76026289,-0.27726327,-2.55515186

>  <Name>
lig.pdb

>  <RI>
0

>  <Rbt.Current_Directory>
/home/itssahil/PROJECTS/Mol_Feturizer/New_Systems/rnas/4znp

>  <Rbt.Executable>
rbdock ($Id: //depot/dev/client3/rdock/2013.1/src/exe/rbdock.cxx#4 $)

>  <Rbt.Library>
libRbt.so (2013.1, Build901 2013/11/27)

>  <Rbt.Parameter_File>
/export/apps/rDock/src/rDock_2013.1_src/data/scripts/dock_solv.prm

>  <Rbt.Receptor>
prm/pocket_docking_4.prm

>  <SCORE>
-23.7389

>  <SCORE.INTER>
-18.7844

>  <SCORE.INTER.CONST>
1

>  <SCORE.INTER.POLAR>
0

>  <SCORE.INTER.ROT>
5

>  <SCORE.INTER.SOLV>
19.8554

>  <SCORE.INTER.VDW>
-26.0747

>  <SCORE.INTER.norm>
-0.853837

>  <SCORE.INTRA>
-4.95446

>  <SCORE.INTRA.DIHEDRAL>
-8.94613

>  <SCORE.INTRA.DIHEDRAL.0>
11.9251

>  <SCORE.INTRA.POLAR>
0

>  <SCORE.INTRA.POLAR.0>
0

>  <SCORE.INTRA.REPUL>
0.0115183

>  <SCORE.INTRA.REPUL.0>
0

>  <SCORE.INTRA.SOLV>
2.17101

>  <SCORE.INTRA.SOLV.lig_0>
-40.9823

>  <SCORE.INTRA.VDW>
-1.62449

>  <SCORE.INTRA.VDW.0>
-0.53506

>  <SCORE.INTRA.norm>
-0.225203

>  <SCORE.RESTR>
0

>  <SCORE.RESTR.CAVITY>
0

>  <SCORE.RESTR.norm>
0

>  <SCORE.SYSTEM>
0

>  <SCORE.SYSTEM.CONST>
0

>  <SCORE.SYSTEM.DIHEDRAL>
0

>  <SCORE.SYSTEM.SOLV>
0

>  <SCORE.SYSTEM.norm>
0

>  <SCORE.heavy>
22

>  <SCORE.norm>
-1.07904

>  <RMSD>
2.187

$$$$
lig.pdb
 OpenBabel11021811523D
libRbt.so/2013.1/901 2013/11/27
 22 23  0  0  0  0  0  0  0  0999 V2000
   56.6405  -18.1425    8.3389 O   0  0  0  0  0  0  0  0  0  0  0  0
   57.0343  -17.0163    8.5314 C   0  0  0  0  0  0  0  0  0  0  0  0
   56.2574  -15.9621    8.3559 N   0  0  0  0  0  0  0  0  0  0  0  0
   58.4288  -16.7810    8.9316 C   0  0  0  0  0  0  0  0  0  0  0  0
   58.9950  -15.4747    9.2757 C   0  0  0  0  0  0  0  0  0  0  0  0
   58.3290  -14.3002    9.2568 N   0  0  0  0  0  0  0  0  0  0  0  0
   59.4548  -17.6356    9.0708 N   0  0  0  0  0  0  0  0  0  0  0  0
   60.5461  -16.9357    9.4879 C   0  0  0  0  0  0  0  0  0  0  0  0
   60.2698  -15.6162    9.6206 N   0  0  0  0  0  0  0  0  0  0  0  0
   61.2292  -14.5647   10.0559 C   0  0  1  0  0  0  0  0  0  0  0  0
   61.6365  -13.7326    8.8593 C   0  0  1  0  0  0  0  0  0  0  0  0
   61.7116  -12.3302    9.4054 C   0  0  2  0  0  0  0  0  0  0  0  0
   63.0393  -12.0616    9.8734 O   0  0  0  0  0  0  0  0  0  0  0  0
   62.8927  -14.1776    8.3240 O   0  0  0  0  0  0  0  0  0  0  0  0
   60.5980  -13.6654   10.9639 O   0  0  0  0  0  0  0  0  0  0  0  0
   60.7752  -12.3215   10.5856 C   0  0  2  0  0  0  0  0  0  0  0  0
   59.3867  -11.7729   10.3296 C   0  0  0  0  0  0  0  0  0  0  0  0
   58.5992  -11.7760   11.5027 O   0  0  0  0  0  0  0  0  0  0  0  0
   59.0714  -10.8847   12.7417 P   0  0  0  0  0  0  0  0  0  0  0  0
   59.5174   -9.5705   12.1326 O   0  0  0  0  0  0  0  0  0  0  0  0
   60.1774  -11.7213   13.3314 O   0  0  0  0  0  0  0  0  0  0  0  0
   57.8539  -10.8419   13.6229 O   0  0  0  0  0  0  0  0  0  0  0  0
  2  1  2  0  0  0  0
  2  4  1  0  0  0  0
  3  2  1  0  0  0  0
  4  7  1  0  0  0  0
  4  5  2  0  0  0  0
  5  6  1  0  0  0  0
  5  9  1  0  0  0  0
  7  8  2  0  0  0  0
  8  9  1  0  0  0  0
 10  9  1  6  0  0  0
 10 15  1  0  0  0  0
 11 14  1  1  0  0  0
 11 12  1  0  0  0  0
 11 10  1  0  0  0  0
 12 13  1  1  0  0  0
 12 16  1  0  0  0  0
 16 17  1  6  0  0  0
 16 15  1  0  0  0  0
 18 19  1  0  0  0  0
 18 17  1  0  0  0  0
 19 21  1  0  0  0  0
 20 19  1  0  0  0  0
 22 19  2  0  0  0  0
M  END
>  <CHROM.1>
-175.82776260,-73.50641339,-178.48969146,42.71267946,62.51130871,59.64342770
-13.70519448,10.32448861,1.76383375,-0.27928677,-2.54937650

>  <Name>
lig.pdb

>  <RI>
0

>  <Rbt.Current_Directory>
/home/itssahil/PROJECTS/Mol_Feturizer/New_Systems/rnas/4znp

>  <Rbt.Executable>
rbdock ($Id: //depot/dev/client3/rdock/2013.1/src/exe/rbdock.cxx#4 $)

>  <Rbt.Library>
libRbt.so (2013.1, Build901 2013/11/27)

>  <Rbt.Parameter_File>
/export/apps/rDock/src/rDock_2013.1_src/data/scripts/dock_solv.prm

>  <Rbt.Receptor>
prm/pocket_docking_5.prm

>  <SCORE>
-23.6999

>  <SCORE.INTER>
-18.7749

>  <SCORE.INTER.CONST>
1

>  <SCORE.INTER.POLAR>
0

>  <SCORE.INTER.ROT>
5

>  <SCORE.INTER.SOLV>
19.9346

>  <SCORE.INTER.VDW>
-26.0948

>  <SCORE.INTER.norm>
-0.853404

>  <SCORE.INTRA>
-4.92506

>  <SCORE.INTRA.DIHEDRAL>
-8.9342

>  <SCORE.INTRA.DIHEDRAL.0>
11.9251

>  <SCORE.INTRA.POLAR>
0

>  <SCORE.INTRA.POLAR.0>
0

>  <SCORE.INTRA.REPUL>
0.0121001

>  <SCORE.INTRA.REPUL.0>
0

>  <SCORE.INTRA.SOLV>
2.18476

>  <SCORE.INTRA.SOLV.lig_0>
-40.9823

>  <SCORE.INTRA.VDW>
-1.61084

>  <SCORE.INTRA.VDW.0>
-0.53506

>  <SCORE.INTRA.norm>
-0.223866

>  <SCORE.RESTR>
0

>  <SCORE.RESTR.CAVITY>
0

>  <SCORE.RESTR.norm>
0

>  <SCORE.SYSTEM>
0

>  <SCORE.SYSTEM.CONST>
0

>  <SCORE.SYSTEM.DIHEDRAL>
0

>  <SCORE.SYSTEM.SOLV>
0

>  <SCORE.SYSTEM.norm>
0

>  <SCORE.heavy>
22

>  <SCORE.norm>
-1.07727

>  <RMSD>
2.195

$$$$
lig.pdb
 OpenBabel11021811523D
libRbt.so/2013.1/901 2013/11/27
 22 23  0  0  0  0  0  0  0  0999 V2000
   55.7366  -16.7759    8.3055 O   0  0  0  0  0  0  0  0  0  0  0  0
   56.9266  -16.8835    8.4866 C   0  0  0  0  0  0  0  0  0  0  0  0
   57.5508  -18.0428    8.3768 N   0  0  0  0  0  0  0  0  0  0  0  0
   57.7208  -15.7126    8.8849 C   0  0  0  0  0  0  0  0  0  0  0  0
   59.1461  -15.7392    9.2211 C   0  0  0  0  0  0  0  0  0  0  0  0
   59.9300  -16.8386    9.2338 N   0  0  0  0  0  0  0  0  0  0  0  0
   57.3683  -14.4254    9.0307 N   0  0  0  0  0  0  0  0  0  0  0  0
   58.4713  -13.7143    9.3946 C   0  0  0  0  0  0  0  0  0  0  0  0
   59.5616  -14.5103    9.5066 N   0  0  0  0  0  0  0  0  0  0  0  0
   60.9301  -14.0650    9.8867 C   0  0  1  0  0  0  0  0  0  0  0  0
   61.3304  -12.8870    9.0252 C   0  0  1  0  0  0  0  0  0  0  0  0
   62.0774  -11.9853    9.9735 C   0  0  2  0  0  0  0  0  0  0  0  0
   63.4743  -12.3048    9.9487 O   0  0  0  0  0  0  0  0  0  0  0  0
   62.1433  -13.3086    7.9188 O   0  0  0  0  0  0  0  0  0  0  0  0
   60.9397  -13.5905   11.2308 O   0  0  0  0  0  0  0  0  0  0  0  0
   61.5325  -12.3186   11.3380 C   0  0  2  0  0  0  0  0  0  0  0  0
   60.4525  -11.3975   11.8668 C   0  0  0  0  0  0  0  0  0  0  0  0
   59.9630  -11.8312   13.1191 O   0  0  0  0  0  0  0  0  0  0  0  0
   58.8508  -10.9484   13.8515 P   0  0  0  0  0  0  0  0  0  0  0  0
   58.5264  -11.7032   15.1250 O   0  0  0  0  0  0  0  0  0  0  0  0
   57.7444  -10.9192   12.8289 O   0  0  0  0  0  0  0  0  0  0  0  0
   59.5185   -9.6106   14.0108 O   0  0  0  0  0  0  0  0  0  0  0  0
  2  1  2  0  0  0  0
  2  4  1  0  0  0  0
  3  2  1  0  0  0  0
  4  7  1  0  0  0  0
  4  5  2  0  0  0  0
  5  6  1  0  0  0  0
  5  9  1  0  0  0  0
  7  8  2  0  0  0  0
  8  9  1  0  0  0  0
 10  9  1  6  0  0  0
 10 15  1  0  0  0  0
 11 14  1  6  0  0  0
 11 12  1  0  0  0  0
 11 10  1  0  0  0  0
 12 13  1  1  0  0  0
 12 16  1  0  0  0  0
 16 17  1  6  0  0  0
 16 15  1  0  0  0  0
 18 19  1  0  0  0  0
 18 17  1  0  0  0  0
 19 21  1  0  0  0  0
 20 19  1  0  0  0  0
 22 19  2  0  0  0  0
M  END
>  <CHROM.1>
175.56188180,129.94050866,177.09369506,178.46424484,177.92930215,59.52501702
-13.38752140,10.74336395,1.80858676,-0.38174534,-2.31819816

>  <Name>
lig.pdb

>  <RI>
0

>  <Rbt.Current_Directory>
/home/itssahil/PROJECTS/Mol_Feturizer/New_Systems/rnas/4znp

>  <Rbt.Executable>
rbdock ($Id: //depot/dev/client3/rdock/2013.1/src/exe/rbdock.cxx#4 $)

>  <Rbt.Library>
libRbt.so (2013.1, Build901 2013/11/27)

>  <Rbt.Parameter_File>
/export/apps/rDock/src/rDock_2013.1_src/data/scripts/dock_solv.prm

>  <Rbt.Receptor>
prm/pocket_docking_6.prm

>  <SCORE>
-25.5838

>  <SCORE.INTER>
-19.8349

>  <SCORE.INTER.CONST>
1

>  <SCORE.INTER.POLAR>
0

>  <SCORE.INTER.ROT>
5

>  <SCORE.INTER.SOLV>
20.2883

>  <SCORE.INTER.VDW>
-26.9194

>  <SCORE.INTER.norm>
-0.901586

>  <SCORE.INTRA>
-5.7489

>  <SCORE.INTRA.DIHEDRAL>
-9.39519

>  <SCORE.INTRA.DIHEDRAL.0>
11.9251

>  <SCORE.INTRA.POLAR>
0

>  <SCORE.INTRA.POLAR.0>
0

>  <SCORE.INTRA.REPUL>
0

>  <SCORE.INTRA.REPUL.0>
0

>  <SCORE.INTRA.SOLV>
0.0607624

>  <SCORE.INTRA.SOLV.lig_0>
-40.9823

>  <SCORE.INTRA.VDW>
-1.08169

>  <SCORE.INTRA.VDW.0>
-0.53506

>  <SCORE.INTRA.norm>
-0.261314

>  <SCORE.RESTR>
0

>  <SCORE.RESTR.CAVITY>
0

>  <SCORE.RESTR.norm>
0

>  <SCORE.SYSTEM>
0

>  <SCORE.SYSTEM.CONST>
0

>  <SCORE.SYSTEM.DIHEDRAL>
0

>  <SCORE.SYSTEM.SOLV>
0

>  <SCORE.SYSTEM.norm>
0

>  <SCORE.heavy>
22

>  <SCORE.norm>
-1.1629

>  <RMSD>
2.196

$$$$
lig.pdb
 OpenBabel11021811523D
libRbt.so/2013.1/901 2013/11/27
 22 23  0  0  0  0  0  0  0  0999 V2000
   55.6464  -16.7541    8.2741 O   0  0  0  0  0  0  0  0  0  0  0  0
   56.8323  -16.8784    8.4704 C   0  0  0  0  0  0  0  0  0  0  0  0
   57.4379  -18.0498    8.3877 N   0  0  0  0  0  0  0  0  0  0  0  0
   57.6418  -15.7142    8.8572 C   0  0  0  0  0  0  0  0  0  0  0  0
   59.0648  -15.7576    9.2017 C   0  0  0  0  0  0  0  0  0  0  0  0
   59.8319  -16.8684    9.2337 N   0  0  0  0  0  0  0  0  0  0  0  0
   57.3080  -14.4200    8.9836 N   0  0  0  0  0  0  0  0  0  0  0  0
   58.4197  -13.7207    9.3439 C   0  0  0  0  0  0  0  0  0  0  0  0
   59.4972  -14.5314    9.4729 N   0  0  0  0  0  0  0  0  0  0  0  0
   60.8702  -14.1015    9.8545 C   0  0  1  0  0  0  0  0  0  0  0  0
   61.2809  -12.9219    9.0001 C   0  0  1  0  0  0  0  0  0  0  0  0
   62.0373  -12.0334    9.9534 C   0  0  2  0  0  0  0  0  0  0  0  0
   63.4311  -12.3659    9.9253 O   0  0  0  0  0  0  0  0  0  0  0  0
   62.0888  -13.3442    7.8903 O   0  0  0  0  0  0  0  0  0  0  0  0
   60.8854  -13.6357   11.2016 O   0  0  0  0  0  0  0  0  0  0  0  0
   61.4904  -12.3701   11.3163 C   0  0  2  0  0  0  0  0  0  0  0  0
   60.4197  -11.4421   11.8518 C   0  0  0  0  0  0  0  0  0  0  0  0
   59.9539  -11.8581   13.1191 O   0  0  0  0  0  0  0  0  0  0  0  0
   58.8418  -10.9753   13.8515 P   0  0  0  0  0  0  0  0  0  0  0  0
   58.5303  -11.7208   15.1337 O   0  0  0  0  0  0  0  0  0  0  0  0
   57.7283  -10.9612   12.8362 O   0  0  0  0  0  0  0  0  0  0  0  0
   59.5030   -9.6324   13.9946 O   0  0  0  0  0  0  0  0  0  0  0  0
  2  1  2  0  0  0  0
  2  4  1  0  0  0  0
  3  2  1  0  0  0  0
  4  7  1  0  0  0  0
  4  5  2  0  0  0  0
  5  6  1  0  0  0  0
  5  9  1  0  0  0  0
  7  8  2  0  0  0  0
  8  9  1  0  0  0  0
 10  9  1  6  0  0  0
 10 15  1  0  0  0  0
 11 14  1  6  0  0  0
 11 12  1  0  0  0  0
 11 10  1  0  0  0  0
 12 13  1  1  0  0  0
 12 16  1  0  0  0  0
 16 17  1  6  0  0  0
 16 15  1  0  0  0  0
 18 19  1  0  0  0  0
 18 17  1  0  0  0  0
 19 21  1  0  0  0  0
 20 19  1  0  0  0  0
 22 19  2  0  0  0  0
M  END
>  <CHROM.1>
175.96452618,131.17976641,178.76029001,177.64054998,178.66818998,59.47616400
-13.41276652,10.72608873,1.81973890,-0.37853163,-2.30986687

>  <Name>
lig.pdb

>  <RI>
0

>  <Rbt.Current_Directory>
/home/itssahil/PROJECTS/Mol_Feturizer/New_Systems/rnas/4znp

>  <Rbt.Executable>
rbdock ($Id: //depot/dev/client3/rdock/2013.1/src/exe/rbdock.cxx#4 $)

>  <Rbt.Library>
libRbt.so (2013.1, Build901 2013/11/27)

>  <Rbt.Parameter_File>
/export/apps/rDock/src/rDock_2013.1_src/data/scripts/dock_solv.prm

>  <Rbt.Receptor>
prm/pocket_docking_7.prm

>  <SCORE>
-25.5699

>  <SCORE.INTER>
-19.8169

>  <SCORE.INTER.CONST>
1

>  <SCORE.INTER.POLAR>
0

>  <SCORE.INTER.ROT>
5

>  <SCORE.INTER.SOLV>
20.4745

>  <SCORE.INTER.VDW>
-26.9694

>  <SCORE.INTER.norm>
-0.900768

>  <SCORE.INTRA>
-5.75301

>  <SCORE.INTRA.DIHEDRAL>
-9.43743

>  <SCORE.INTRA.DIHEDRAL.0>
11.9251

>  <SCORE.INTRA.POLAR>
0

>  <SCORE.INTRA.POLAR.0>
0

>  <SCORE.INTRA.REPUL>
0

>  <SCORE.INTRA.REPUL.0>
0

>  <SCORE.INTRA.SOLV>
0.0559329

>  <SCORE.INTRA.SOLV.lig_0>
-40.9823

>  <SCORE.INTRA.VDW>
-1.06226

>  <SCORE.INTRA.VDW.0>
-0.53506

>  <SCORE.INTRA.norm>
-0.261501

>  <SCORE.RESTR>
0

>  <SCORE.RESTR.CAVITY>
0

>  <SCORE.RESTR.norm>
0

>  <SCORE.SYSTEM>
0

>  <SCORE.SYSTEM.CONST>
0

>  <SCORE.SYSTEM.DIHEDRAL>
0

>  <SCORE.SYSTEM.SOLV>
0

>  <SCORE.SYSTEM.norm>
0

>  <SCORE.heavy>
22

>  <SCORE.norm>
-1.16227

>  <RMSD>
2.196

$$$$
lig.pdb
 OpenBabel11021811523D
libRbt.so/2013.1/901 2013/11/27
 22 23  0  0  0  0  0  0  0  0999 V2000
   55.6945  -16.7587    8.3070 O   0  0  0  0  0  0  0  0  0  0  0  0
   56.8810  -16.8815    8.5011 C   0  0  0  0  0  0  0  0  0  0  0  0
   57.4877  -18.0524    8.4186 N   0  0  0  0  0  0  0  0  0  0  0  0
   57.6901  -15.7160    8.8849 C   0  0  0  0  0  0  0  0  0  0  0  0
   59.1113  -15.7590    9.2363 C   0  0  0  0  0  0  0  0  0  0  0  0
   59.8771  -16.8704    9.2781 N   0  0  0  0  0  0  0  0  0  0  0  0
   57.3571  -14.4208    9.0024 N   0  0  0  0  0  0  0  0  0  0  0  0
   58.4679  -13.7206    9.3639 C   0  0  0  0  0  0  0  0  0  0  0  0
   59.5439  -14.5317    9.5024 N   0  0  0  0  0  0  0  0  0  0  0  0
   60.9156  -14.1011    9.8879 C   0  0  1  0  0  0  0  0  0  0  0  0
   61.3361  -12.9343    9.0209 C   0  0  1  0  0  0  0  0  0  0  0  0
   62.0886  -12.0356    9.9676 C   0  0  2  0  0  0  0  0  0  0  0  0
   63.4815  -12.3728    9.9536 O   0  0  0  0  0  0  0  0  0  0  0  0
   62.1502  -13.3737    7.9225 O   0  0  0  0  0  0  0  0  0  0  0  0
   60.9230  -13.6176   11.2288 O   0  0  0  0  0  0  0  0  0  0  0  0
   61.5313  -12.3526   11.3310 C   0  0  2  0  0  0  0  0  0  0  0  0
   60.4599  -11.4142   11.8468 C   0  0  0  0  0  0  0  0  0  0  0  0
   59.9659  -11.8263   13.1047 O   0  0  0  0  0  0  0  0  0  0  0  0
   58.8284  -10.9483   13.8032 P   0  0  0  0  0  0  0  0  0  0  0  0
   57.6940  -10.9049   12.7992 O   0  0  0  0  0  0  0  0  0  0  0  0
   59.5329   -9.6349   14.0257 O   0  0  0  0  0  0  0  0  0  0  0  0
   58.5644  -11.6814   15.0892 O   0  0  0  0  0  0  0  0  0  0  0  0
  2  1  2  0  0  0  0
  2  4  1  0  0  0  0
  3  2  1  0  0  0  0
  4  7  1  0  0  0  0
  4  5  2  0  0  0  0
  5  6  1  0  0  0  0
  5  9  1  0  0  0  0
  7  8  2  0  0  0  0
  8  9  1  0  0  0  0
 10  9  1  6  0  0  0
 10 15  1  0  0  0  0
 11 14  1  6  0  0  0
 11 12  1  0  0  0  0
 11 10  1  0  0  0  0
 12 13  1  1  0  0  0
 12 16  1  0  0  0  0
 16 17  1  6  0  0  0
 16 15  1  0  0  0  0
 18 19  1  0  0  0  0
 18 17  1  0  0  0  0
 19 21  1  0  0  0  0
 20 19  1  0  0  0  0
 22 19  2  0  0  0  0
M  END
>  <CHROM.1>
175.48928403,130.71409851,177.63419583,57.14640333,179.84819074,59.51102418
-13.40443681,10.73673624,1.81436630,-0.36871273,-2.32272180

>  <Name>
lig.pdb

>  <RI>
0

>  <Rbt.Current_Directory>
/home/itssahil/PROJECTS/Mol_Feturizer/New_Systems/rnas/4znp

>  <Rbt.Executable>
rbdock ($Id: //depot/dev/client3/rdock/2013.1/src/exe/rbdock.cxx#4 $)

>  <Rbt.Library>
libRbt.so (2013.1, Build901 2013/11/27)

>  <Rbt.Parameter_File>
/export/apps/rDock/src/rDock_2013.1_src/data/scripts/dock_solv.prm

>  <Rbt.Receptor>
prm/pocket_docking_7.prm

>  <SCORE>
-25.5072

>  <SCORE.INTER>
-19.5021

>  <SCORE.INTER.CONST>
1

>  <SCORE.INTER.POLAR>
0

>  <SCORE.INTER.ROT>
5

>  <SCORE.INTER.SOLV>
21.1455

>  <SCORE.INTER.VDW>
-26.9832

>  <SCORE.INTER.norm>
-0.886461

>  <SCORE.INTRA>
-6.00505

>  <SCORE.INTRA.DIHEDRAL>
-9.4178

>  <SCORE.INTRA.DIHEDRAL.0>
11.9251

>  <SCORE.INTRA.POLAR>
0

>  <SCORE.INTRA.POLAR.0>
0

>  <SCORE.INTRA.REPUL>
0

>  <SCORE.INTRA.REPUL.0>
0

>  <SCORE.INTRA.SOLV>
-0.171101

>  <SCORE.INTRA.SOLV.lig_0>
-40.9823

>  <SCORE.INTRA.VDW>
-1.2106

>  <SCORE.INTRA.VDW.0>
-0.53506

>  <SCORE.INTRA.norm>
-0.272957

>  <SCORE.RESTR>
0

>  <SCORE.RESTR.CAVITY>
0

>  <SCORE.RESTR.norm>
0

>  <SCORE.SYSTEM>
0

>  <SCORE.SYSTEM.CONST>
0

>  <SCORE.SYSTEM.DIHEDRAL>
0

>  <SCORE.SYSTEM.SOLV>
0

>  <SCORE.SYSTEM.norm>
0

>  <SCORE.heavy>
22

>  <SCORE.norm>
-1.15942

>  <RMSD>
2.196

$$$$
lig.pdb
 OpenBabel11021811523D
libRbt.so/2013.1/901 2013/11/27
 22 23  0  0  0  0  0  0  0  0999 V2000
   55.6909  -16.7299    8.3183 O   0  0  0  0  0  0  0  0  0  0  0  0
   56.8769  -16.8491    8.5177 C   0  0  0  0  0  0  0  0  0  0  0  0
   57.4873  -18.0183    8.4395 N   0  0  0  0  0  0  0  0  0  0  0  0
   57.6809  -15.6807    8.9034 C   0  0  0  0  0  0  0  0  0  0  0  0
   59.1081  -15.7142    9.2309 C   0  0  0  0  0  0  0  0  0  0  0  0
   59.8851  -16.8185    9.2458 N   0  0  0  0  0  0  0  0  0  0  0  0
   57.3374  -14.3904    9.0432 N   0  0  0  0  0  0  0  0  0  0  0  0
   58.4472  -13.6840    9.3956 C   0  0  0  0  0  0  0  0  0  0  0  0
   59.5331  -14.4862    9.5060 N   0  0  0  0  0  0  0  0  0  0  0  0
   60.9067  -14.0471    9.8746 C   0  0  1  0  0  0  0  0  0  0  0  0
   61.3036  -12.8683    9.0126 C   0  0  1  0  0  0  0  0  0  0  0  0
   62.0628  -11.9721    9.9564 C   0  0  2  0  0  0  0  0  0  0  0  0
   63.4582  -12.2968    9.9178 O   0  0  0  0  0  0  0  0  0  0  0  0
   62.1046  -13.2900    7.8976 O   0  0  0  0  0  0  0  0  0  0  0  0
   60.9306  -13.5764   11.2198 O   0  0  0  0  0  0  0  0  0  0  0  0
   61.5293  -12.3071   11.3250 C   0  0  2  0  0  0  0  0  0  0  0  0
   60.4577  -11.3833   11.8662 C   0  0  0  0  0  0  0  0  0  0  0  0
   59.9907  -11.8087   13.1299 O   0  0  0  0  0  0  0  0  0  0  0  0
   58.8556  -10.9484   13.8537 P   0  0  0  0  0  0  0  0  0  0  0  0
   58.5395  -11.7074   15.1268 O   0  0  0  0  0  0  0  0  0  0  0  0
   57.7551  -10.9447   12.8243 O   0  0  0  0  0  0  0  0  0  0  0  0
   59.4937   -9.5964   14.0143 O   0  0  0  0  0  0  0  0  0  0  0  0
  2  1  2  0  0  0  0
  2  4  1  0  0  0  0
  3  2  1  0  0  0  0
  4  7  1  0  0  0  0
  4  5  2  0  0  0  0
  5  6  1  0  0  0  0
  5  9  1  0  0  0  0
  7  8  2  0  0  0  0
  8  9  1  0  0  0  0
 10  9  1  6  0  0  0
 10 15  1  0  0  0  0
 11 14  1  6  0  0  0
 11 12  1  0  0  0  0
 11 10  1  0  0  0  0
 12 13  1  1  0  0  0
 12 16  1  0  0  0  0
 16 17  1  6  0  0  0
 16 15  1  0  0  0  0
 18 19  1  0  0  0  0
 18 17  1  0  0  0  0
 19 21  1  0  0  0  0
 20 19  1  0  0  0  0
 22 19  2  0  0  0  0
M  END
>  <CHROM.1>
176.98740088,130.50931596,177.87550621,177.09879437,179.93183533,59.50627611
-13.37102444,10.74537896,1.81916205,-0.38604765,-2.31314231

>  <Name>
lig.pdb

>  <RI>
0

>  <Rbt.Current_Directory>
/home/itssahil/PROJECTS/Mol_Feturizer/New_Systems/rnas/4znp

>  <Rbt.Executable>
rbdock ($Id: //depot/dev/client3/rdock/2013.1/src/exe/rbdock.cxx#4 $)

>  <Rbt.Library>
libRbt.so (2013.1, Build901 2013/11/27)

>  <Rbt.Parameter_File>
/export/apps/rDock/src/rDock_2013.1_src/data/scripts/dock_solv.prm

>  <Rbt.Receptor>
prm/pocket_docking_6.prm

>  <SCORE>
-25.5449

>  <SCORE.INTER>
-19.7743

>  <SCORE.INTER.CONST>
1

>  <SCORE.INTER.POLAR>
0

>  <SCORE.INTER.ROT>
5

>  <SCORE.INTER.SOLV>
20.2898

>  <SCORE.INTER.VDW>
-26.8794

>  <SCORE.INTER.norm>
-0.898831

>  <SCORE.INTRA>
-5.77061

>  <SCORE.INTRA.DIHEDRAL>
-9.45053

>  <SCORE.INTRA.DIHEDRAL.0>
11.9251

>  <SCORE.INTRA.POLAR>
0

>  <SCORE.INTRA.POLAR.0>
0

>  <SCORE.INTRA.REPUL>
0

>  <SCORE.INTRA.REPUL.0>
0

>  <SCORE.INTRA.SOLV>
0.0556903

>  <SCORE.INTRA.SOLV.lig_0>
-40.9823

>  <SCORE.INTRA.VDW>
-1.07319

>  <SCORE.INTRA.VDW.0>
-0.53506

>  <SCORE.INTRA.norm>
-0.262301

>  <SCORE.RESTR>
0

>  <SCORE.RESTR.CAVITY>
0

>  <SCORE.RESTR.norm>
0

>  <SCORE.SYSTEM>
0

>  <SCORE.SYSTEM.CONST>
0

>  <SCORE.SYSTEM.DIHEDRAL>
0

>  <SCORE.SYSTEM.SOLV>
0

>  <SCORE.SYSTEM.norm>
0

>  <SCORE.heavy>
22

>  <SCORE.norm>
-1.16113

>  <RMSD>
2.199

$$$$
lig.pdb
 OpenBabel11021811523D
libRbt.so/2013.1/901 2013/11/27
 22 23  0  0  0  0  0  0  0  0999 V2000
   55.6545  -16.7925    8.3021 O   0  0  0  0  0  0  0  0  0  0  0  0
   56.8447  -16.9059    8.4782 C   0  0  0  0  0  0  0  0  0  0  0  0
   57.4617  -18.0694    8.3721 N   0  0  0  0  0  0  0  0  0  0  0  0
   57.6475  -15.7374    8.8660 C   0  0  0  0  0  0  0  0  0  0  0  0
   59.0696  -15.7735    9.2148 C   0  0  0  0  0  0  0  0  0  0  0  0
   59.8420  -16.8805    9.2503 N   0  0  0  0  0  0  0  0  0  0  0  0
   57.3070  -14.4447    8.9900 N   0  0  0  0  0  0  0  0  0  0  0  0
   58.4142  -13.7395    9.3528 C   0  0  0  0  0  0  0  0  0  0  0  0
   59.4953  -14.5449    9.4859 N   0  0  0  0  0  0  0  0  0  0  0  0
   60.8650  -14.1079    9.8711 C   0  0  1  0  0  0  0  0  0  0  0  0
   61.2740  -12.9296    9.0140 C   0  0  1  0  0  0  0  0  0  0  0  0
   62.0230  -12.0346    9.9671 C   0  0  2  0  0  0  0  0  0  0  0  0
   63.4183  -12.3613    9.9452 O   0  0  0  0  0  0  0  0  0  0  0  0
   62.0877  -13.3523    7.9088 O   0  0  0  0  0  0  0  0  0  0  0  0
   60.8733  -13.6374   11.2165 O   0  0  0  0  0  0  0  0  0  0  0  0
   61.4726  -12.3689   11.3291 C   0  0  2  0  0  0  0  0  0  0  0  0
   60.3960  -11.4436   11.8575 C   0  0  0  0  0  0  0  0  0  0  0  0
   59.9300  -11.8550   13.1262 O   0  0  0  0  0  0  0  0  0  0  0  0
   58.8076  -10.9772   13.8489 P   0  0  0  0  0  0  0  0  0  0  0  0
   57.6556  -10.9261   12.8656 O   0  0  0  0  0  0  0  0  0  0  0  0
   59.5196   -9.6667   14.0647 O   0  0  0  0  0  0  0  0  0  0  0  0
   58.5646  -11.7154   15.1361 O   0  0  0  0  0  0  0  0  0  0  0  0
  2  1  2  0  0  0  0
  2  4  1  0  0  0  0
  3  2  1  0  0  0  0
  4  7  1  0  0  0  0
  4  5  2  0  0  0  0
  5  6  1  0  0  0  0
  5  9  1  0  0  0  0
  7  8  2  0  0  0  0
  8  9  1  0  0  0  0
 10  9  1  6  0  0  0
 10 15  1  0  0  0  0
 11 14  1  6  0  0  0
 11 12  1  0  0  0  0
 11 10  1  0  0  0  0
 12 13  1  1  0  0  0
 12 16  1  0  0  0  0
 16 17  1  6  0  0  0
 16 15  1  0  0  0  0
 18 19  1  0  0  0  0
 18 17  1  0  0  0  0
 19 21  1  0  0  0  0
 20 19  1  0  0  0  0
 22 19  2  0  0  0  0
M  END
>  <CHROM.1>
174.61102175,131.03658145,178.92816622,56.71942346,178.91084787,59.46905128
-13.42135624,10.73985474,1.81408530,-0.37789921,-2.31295124

>  <Name>
lig.pdb

>  <RI>
0

>  <Rbt.Current_Directory>
/home/itssahil/PROJECTS/Mol_Feturizer/New_Systems/rnas/4znp

>  <Rbt.Executable>
rbdock ($Id: //depot/dev/client3/rdock/2013.1/src/exe/rbdock.cxx#4 $)

>  <Rbt.Library>
libRbt.so (2013.1, Build901 2013/11/27)

>  <Rbt.Parameter_File>
/export/apps/rDock/src/rDock_2013.1_src/data/scripts/dock_solv.prm

>  <Rbt.Receptor>
prm/pocket_docking_6.prm

>  <SCORE>
-25.4945

>  <SCORE.INTER>
-19.498

>  <SCORE.INTER.CONST>
1

>  <SCORE.INTER.POLAR>
0

>  <SCORE.INTER.ROT>
5

>  <SCORE.INTER.SOLV>
21.239

>  <SCORE.INTER.VDW>
-27.0117

>  <SCORE.INTER.norm>
-0.886273

>  <SCORE.INTRA>
-5.99652

>  <SCORE.INTRA.DIHEDRAL>
-9.40133

>  <SCORE.INTRA.DIHEDRAL.0>
11.9251

>  <SCORE.INTRA.POLAR>
0

>  <SCORE.INTRA.POLAR.0>
0

>  <SCORE.INTRA.REPUL>
0

>  <SCORE.INTRA.REPUL.0>
0

>  <SCORE.INTRA.SOLV>
-0.179494

>  <SCORE.INTRA.SOLV.lig_0>
-40.9823

>  <SCORE.INTRA.VDW>
-1.20611

>  <SCORE.INTRA.VDW.0>
-0.53506

>  <SCORE.INTRA.norm>
-0.272569

>  <SCORE.RESTR>
0

>  <SCORE.RESTR.CAVITY>
0

>  <SCORE.RESTR.norm>
0

>  <SCORE.SYSTEM>
0

>  <SCORE.SYSTEM.CONST>
0

>  <SCORE.SYSTEM.DIHEDRAL>
0

>  <SCORE.SYSTEM.SOLV>
0

>  <SCORE.SYSTEM.norm>
0

>  <SCORE.heavy>
22

>  <SCORE.norm>
-1.15884

>  <RMSD>
2.211

$$$$
lig.pdb
 OpenBabel11021811523D
libRbt.so/2013.1/901 2013/11/27
 22 23  0  0  0  0  0  0  0  0999 V2000
   56.1436  -15.9141    8.2985 O   0  0  0  0  0  0  0  0  0  0  0  0
   56.8442  -16.8855    8.4593 C   0  0  0  0  0  0  0  0  0  0  0  0
   56.3888  -18.1143    8.2915 N   0  0  0  0  0  0  0  0  0  0  0  0
   58.2380  -16.7251    8.8974 C   0  0  0  0  0  0  0  0  0  0  0  0
   58.8656  -15.4501    9.2521 C   0  0  0  0  0  0  0  0  0  0  0  0
   58.2663  -14.2408    9.2102 N   0  0  0  0  0  0  0  0  0  0  0  0
   59.2111  -17.6341    9.0684 N   0  0  0  0  0  0  0  0  0  0  0  0
   60.3274  -16.9930    9.5130 C   0  0  0  0  0  0  0  0  0  0  0  0
   60.1207  -15.6596    9.6329 N   0  0  0  0  0  0  0  0  0  0  0  0
   61.1242  -14.6602   10.0907 C   0  0  1  0  0  0  0  0  0  0  0  0
   61.5969  -13.8465    8.9056 C   0  0  1  0  0  0  0  0  0  0  0  0
   61.7333  -12.4516    9.4586 C   0  0  2  0  0  0  0  0  0  0  0  0
   63.0638  -12.2530    9.9531 O   0  0  0  0  0  0  0  0  0  0  0  0
   62.8387  -14.3540    8.3926 O   0  0  0  0  0  0  0  0  0  0  0  0
   60.5226  -13.7324   10.9901 O   0  0  0  0  0  0  0  0  0  0  0  0
   60.7759  -12.3982   10.6206 C   0  0  2  0  0  0  0  0  0  0  0  0
   59.4226  -11.7781   10.3402 C   0  0  0  0  0  0  0  0  0  0  0  0
   58.6104  -11.7518   11.4960 O   0  0  0  0  0  0  0  0  0  0  0  0
   59.0724  -10.8533   12.7336 P   0  0  0  0  0  0  0  0  0  0  0  0
   59.4769   -9.5254   12.1253 O   0  0  0  0  0  0  0  0  0  0  0  0
   60.2064  -11.6627   13.3078 O   0  0  0  0  0  0  0  0  0  0  0  0
   57.8639  -10.8462   13.6281 O   0  0  0  0  0  0  0  0  0  0  0  0
  2  1  2  0  0  0  0
  2  4  1  0  0  0  0
  3  2  1  0  0  0  0
  4  7  1  0  0  0  0
  4  5  2  0  0  0  0
  5  6  1  0  0  0  0
  5  9  1  0  0  0  0
  7  8  2  0  0  0  0
  8  9  1  0  0  0  0
 10  9  1  6  0  0  0
 10 15  1  0  0  0  0
 11 14  1  1  0  0  0
 11 12  1  0  0  0  0
 11 10  1  0  0  0  0
 12 13  1  1  0  0  0
 12 16  1  0  0  0  0
 16 17  1  6  0  0  0
 16 15  1  0  0  0  0
 18 19  1  0  0  0  0
 18 17  1  0  0  0  0
 19 21  1  0  0  0  0
 20 19  1  0  0  0  0
 22 19  2  0  0  0  0
M  END
>  <CHROM.1>
4.08639646,-72.80357661,-178.85556158,46.01460427,64.73719808,59.57059070
-13.71076317,10.32776577,1.78952958,-0.23017656,-2.54265764

>  <Name>
lig.pdb

>  <RI>
0

>  <Rbt.Current_Directory>
/home/itssahil/PROJECTS/Mol_Feturizer/New_Systems/rnas/4znp

>  <Rbt.Executable>
rbdock ($Id: //depot/dev/client3/rdock/2013.1/src/exe/rbdock.cxx#4 $)

>  <Rbt.Library>
libRbt.so (2013.1, Build901 2013/11/27)

>  <Rbt.Parameter_File>
/export/apps/rDock/src/rDock_2013.1_src/data/scripts/dock_solv.prm

>  <Rbt.Receptor>
prm/pocket_docking_4.prm

>  <SCORE>
-24.2972

>  <SCORE.INTER>
-19.1564

>  <SCORE.INTER.CONST>
1

>  <SCORE.INTER.POLAR>
0

>  <SCORE.INTER.ROT>
5

>  <SCORE.INTER.SOLV>
19.9472

>  <SCORE.INTER.VDW>
-26.3534

>  <SCORE.INTER.norm>
-0.870746

>  <SCORE.INTRA>
-5.14077

>  <SCORE.INTRA.DIHEDRAL>
-9.00722

>  <SCORE.INTRA.DIHEDRAL.0>
11.9251

>  <SCORE.INTRA.POLAR>
0

>  <SCORE.INTRA.POLAR.0>
0

>  <SCORE.INTRA.REPUL>
0.0149062

>  <SCORE.INTRA.REPUL.0>
0

>  <SCORE.INTRA.SOLV>
1.91645

>  <SCORE.INTRA.SOLV.lig_0>
-40.9823

>  <SCORE.INTRA.VDW>
-1.66992

>  <SCORE.INTRA.VDW.0>
-0.53506

>  <SCORE.INTRA.norm>
-0.233672

>  <SCORE.RESTR>
0

>  <SCORE.RESTR.CAVITY>
0

>  <SCORE.RESTR.norm>
0

>  <SCORE.SYSTEM>
0

>  <SCORE.SYSTEM.CONST>
0

>  <SCORE.SYSTEM.DIHEDRAL>
0

>  <SCORE.SYSTEM.SOLV>
0

>  <SCORE.SYSTEM.norm>
0

>  <SCORE.heavy>
22

>  <SCORE.norm>
-1.10442

>  <RMSD>
2.229

$$$$
lig.pdb
 OpenBabel11021811523D
libRbt.so/2013.1/901 2013/11/27
 22 23  0  0  0  0  0  0  0  0999 V2000
   56.2813  -15.7643    8.5137 O   0  0  0  0  0  0  0  0  0  0  0  0
   57.0082  -16.7276    8.5789 C   0  0  0  0  0  0  0  0  0  0  0  0
   56.5642  -17.9561    8.3806 N   0  0  0  0  0  0  0  0  0  0  0  0
   58.4253  -16.5595    8.9307 C   0  0  0  0  0  0  0  0  0  0  0  0
   59.0705  -15.2791    9.2298 C   0  0  0  0  0  0  0  0  0  0  0  0
   58.4673  -14.0711    9.2071 N   0  0  0  0  0  0  0  0  0  0  0  0
   59.4087  -17.4650    9.0557 N   0  0  0  0  0  0  0  0  0  0  0  0
   60.5483  -16.8166    9.4241 C   0  0  0  0  0  0  0  0  0  0  0  0
   60.3465  -15.4819    9.5378 N   0  0  0  0  0  0  0  0  0  0  0  0
   61.3736  -14.4752    9.9212 C   0  0  1  0  0  0  0  0  0  0  0  0
   61.4504  -13.4066    8.8523 C   0  0  1  0  0  0  0  0  0  0  0  0
   61.6474  -12.1321    9.6315 C   0  0  2  0  0  0  0  0  0  0  0  0
   63.0477  -11.8757    9.7973 O   0  0  0  0  0  0  0  0  0  0  0  0
   62.5317  -13.6626    7.9425 O   0  0  0  0  0  0  0  0  0  0  0  0
   60.9868  -13.8063   11.1190 O   0  0  0  0  0  0  0  0  0  0  0  0
   61.0457  -12.4065   10.9852 C   0  0  2  0  0  0  0  0  0  0  0  0
   59.6319  -11.9065   11.1990 C   0  0  0  0  0  0  0  0  0  0  0  0
   59.1396  -12.2613   12.4749 O   0  0  0  0  0  0  0  0  0  0  0  0
   59.5955  -11.3948   13.7374 P   0  0  0  0  0  0  0  0  0  0  0  0
   60.9878  -10.9041   13.3946 O   0  0  0  0  0  0  0  0  0  0  0  0
   59.5328  -12.4041   14.8545 O   0  0  0  0  0  0  0  0  0  0  0  0
   58.5197  -10.3503   13.8485 O   0  0  0  0  0  0  0  0  0  0  0  0
  2  1  2  0  0  0  0
  2  4  1  0  0  0  0
  3  2  1  0  0  0  0
  4  7  1  0  0  0  0
  4  5  2  0  0  0  0
  5  6  1  0  0  0  0
  5  9  1  0  0  0  0
  7  8  2  0  0  0  0
  8  9  1  0  0  0  0
 10  9  1  6  0  0  0
 10 15  1  0  0  0  0
 11 14  1  6  0  0  0
 11 12  1  0  0  0  0
 11 10  1  0  0  0  0
 12 13  1  1  0  0  0
 12 16  1  0  0  0  0
 16 17  1  6  0  0  0
 16 15  1  0  0  0  0
 18 19  1  0  0  0  0
 18 17  1  0  0  0  0
 19 21  1  0  0  0  0
 20 19  1  0  0  0  0
 22 19  2  0  0  0  0
M  END
>  <CHROM.1>
0.30632552,-54.74213245,177.51556332,-30.70416801,79.23107486,59.81426718
-13.72447318,10.65307177,1.83845921,-0.44559775,-2.30463698

>  <Name>
lig.pdb

>  <RI>
0

>  <Rbt.Current_Directory>
/home/itssahil/PROJECTS/Mol_Feturizer/New_Systems/rnas/4znp

>  <Rbt.Executable>
rbdock ($Id: //depot/dev/client3/rdock/2013.1/src/exe/rbdock.cxx#4 $)

>  <Rbt.Library>
libRbt.so (2013.1, Build901 2013/11/27)

>  <Rbt.Parameter_File>
/export/apps/rDock/src/rDock_2013.1_src/data/scripts/dock_solv.prm

>  <Rbt.Receptor>
prm/pocket_docking_7.prm

>  <SCORE>
-24.3289

>  <SCORE.INTER>
-20.41

>  <SCORE.INTER.CONST>
1

>  <SCORE.INTER.POLAR>
0

>  <SCORE.INTER.ROT>
5

>  <SCORE.INTER.SOLV>
21.391

>  <SCORE.INTER.VDW>
-27.6704

>  <SCORE.INTER.norm>
-0.927728

>  <SCORE.INTRA>
-3.91892

>  <SCORE.INTRA.DIHEDRAL>
-6.60822

>  <SCORE.INTRA.DIHEDRAL.0>
11.9251

>  <SCORE.INTRA.POLAR>
0

>  <SCORE.INTRA.POLAR.0>
0

>  <SCORE.INTRA.REPUL>
0

>  <SCORE.INTRA.REPUL.0>
0

>  <SCORE.INTRA.SOLV>
1.74853

>  <SCORE.INTRA.SOLV.lig_0>
-40.9823

>  <SCORE.INTRA.VDW>
-1.48907

>  <SCORE.INTRA.VDW.0>
-0.53506

>  <SCORE.INTRA.norm>
-0.178133

>  <SCORE.RESTR>
0

>  <SCORE.RESTR.CAVITY>
0

>  <SCORE.RESTR.norm>
0

>  <SCORE.SYSTEM>
0

>  <SCORE.SYSTEM.CONST>
0

>  <SCORE.SYSTEM.DIHEDRAL>
0

>  <SCORE.SYSTEM.SOLV>
0

>  <SCORE.SYSTEM.norm>
0

>  <SCORE.heavy>
22

>  <SCORE.norm>
-1.10586

>  <RMSD>
2.531

$$$$
lig.pdb
 OpenBabel11021811523D
libRbt.so/2013.1/901 2013/11/27
 22 23  0  0  0  0  0  0  0  0999 V2000
   57.9539  -16.3604    9.2354 O   0  0  0  0  0  0  0  0  0  0  0  0
   59.0843  -16.7827    9.3016 C   0  0  0  0  0  0  0  0  0  0  0  0
   59.3490  -18.0769    9.3280 N   0  0  0  0  0  0  0  0  0  0  0  0
   60.2155  -15.8497    9.4007 C   0  0  0  0  0  0  0  0  0  0  0  0
   60.1011  -14.4184    9.6901 C   0  0  0  0  0  0  0  0  0  0  0  0
   58.9465  -13.7466    9.8875 N   0  0  0  0  0  0  0  0  0  0  0  0
   61.5346  -16.0566    9.2609 N   0  0  0  0  0  0  0  0  0  0  0  0
   62.1813  -14.8765    9.4704 C   0  0  0  0  0  0  0  0  0  0  0  0
   61.3114  -13.8734    9.7390 N   0  0  0  0  0  0  0  0  0  0  0  0
   61.6739  -12.4567   10.0161 C   0  0  1  0  0  0  0  0  0  0  0  0
   61.4733  -11.6342    8.7617 C   0  0  1  0  0  0  0  0  0  0  0  0
   60.9138  -10.3314    9.2716 C   0  0  2  0  0  0  0  0  0  0  0  0
   61.9828   -9.4150    9.5387 O   0  0  0  0  0  0  0  0  0  0  0  0
   62.7117  -11.4573    8.0563 O   0  0  0  0  0  0  0  0  0  0  0  0
   60.7957  -11.9041   10.9934 O   0  0  0  0  0  0  0  0  0  0  0  0
   60.2426  -10.6795   10.5747 C   0  0  2  0  0  0  0  0  0  0  0  0
   58.7447  -10.8963   10.5149 C   0  0  0  0  0  0  0  0  0  0  0  0
   58.0694   -9.7497   10.0404 O   0  0  0  0  0  0  0  0  0  0  0  0
   58.0642   -8.4357   10.9492 P   0  0  0  0  0  0  0  0  0  0  0  0
   59.5030   -7.9594   10.9589 O   0  0  0  0  0  0  0  0  0  0  0  0
   57.5590   -8.9633   12.2672 O   0  0  0  0  0  0  0  0  0  0  0  0
   57.0627   -7.5454   10.2672 O   0  0  0  0  0  0  0  0  0  0  0  0
  2  1  2  0  0  0  0
  2  4  1  0  0  0  0
  3  2  1  0  0  0  0
  4  7  1  0  0  0  0
  4  5  2  0  0  0  0
  5  6  1  0  0  0  0
  5  9  1  0  0  0  0
  7  8  2  0  0  0  0
  8  9  1  0  0  0  0
 10  9  1  6  0  0  0
 10 15  1  0  0  0  0
 11 14  1  1  0  0  0
 11 12  1  0  0  0  0
 11 10  1  0  0  0  0
 12 13  1  1  0  0  0
 12 16  1  0  0  0  0
 16 17  1  6  0  0  0
 16 15  1  0  0  0  0
 18 19  1  0  0  0  0
 18 17  1  0  0  0  0
 19 21  1  0  0  0  0
 20 19  1  0  0  0  0
 22 19  2  0  0  0  0
M  END
>  <CHROM.1>
12.60428971,-79.65526846,-59.17590029,67.50225516,-67.39199373,59.83603526
-11.99056317,9.96737055,1.35319824,-0.28678292,-3.01813680

>  <Name>
lig.pdb

>  <RI>
0

>  <Rbt.Current_Directory>
/home/itssahil/PROJECTS/Mol_Feturizer/New_Systems/rnas/4znp

>  <Rbt.Executable>
rbdock ($Id: //depot/dev/client3/rdock/2013.1/src/exe/rbdock.cxx#4 $)

>  <Rbt.Library>
libRbt.so (2013.1, Build901 2013/11/27)

>  <Rbt.Parameter_File>
/export/apps/rDock/src/rDock_2013.1_src/data/scripts/dock_solv.prm

>  <Rbt.Receptor>
prm/pocket_docking_7.prm

>  <SCORE>
-15.6363

>  <SCORE.INTER>
-10.7401

>  <SCORE.INTER.CONST>
1

>  <SCORE.INTER.POLAR>
0

>  <SCORE.INTER.ROT>
5

>  <SCORE.INTER.SOLV>
16.0941

>  <SCORE.INTER.VDW>
-19.4581

>  <SCORE.INTER.norm>
-0.488186

>  <SCORE.INTRA>
-4.89622

>  <SCORE.INTRA.DIHEDRAL>
-8.46598

>  <SCORE.INTRA.DIHEDRAL.0>
11.9251

>  <SCORE.INTRA.POLAR>
0

>  <SCORE.INTRA.POLAR.0>
0

>  <SCORE.INTRA.REPUL>
0

>  <SCORE.INTRA.REPUL.0>
0

>  <SCORE.INTRA.SOLV>
1.93784

>  <SCORE.INTRA.SOLV.lig_0>
-40.9823

>  <SCORE.INTRA.VDW>
-1.63215

>  <SCORE.INTRA.VDW.0>
-0.53506

>  <SCORE.INTRA.norm>
-0.222555

>  <SCORE.RESTR>
0

>  <SCORE.RESTR.CAVITY>
0

>  <SCORE.RESTR.norm>
0

>  <SCORE.SYSTEM>
0

>  <SCORE.SYSTEM.CONST>
0

>  <SCORE.SYSTEM.DIHEDRAL>
0

>  <SCORE.SYSTEM.SOLV>
0

>  <SCORE.SYSTEM.norm>
0

>  <SCORE.heavy>
22

>  <SCORE.norm>
-0.710742

>  <RMSD>
2.688

$$$$
lig.pdb
 OpenBabel11021811523D
libRbt.so/2013.1/901 2013/11/27
 22 23  0  0  0  0  0  0  0  0999 V2000
   61.2045  -17.4510    8.8098 O   0  0  0  0  0  0  0  0  0  0  0  0
   60.2394  -17.0034    9.3831 C   0  0  0  0  0  0  0  0  0  0  0  0
   59.1278  -17.7013    9.5352 N   0  0  0  0  0  0  0  0  0  0  0  0
   60.2606  -15.6272    9.8988 C   0  0  0  0  0  0  0  0  0  0  0  0
   61.3906  -14.7030    9.7801 C   0  0  0  0  0  0  0  0  0  0  0  0
   62.5778  -14.9837    9.2012 N   0  0  0  0  0  0  0  0  0  0  0  0
   59.3245  -14.9257   10.5576 N   0  0  0  0  0  0  0  0  0  0  0  0
   59.8120  -13.6776   10.8010 C   0  0  0  0  0  0  0  0  0  0  0  0
   61.0713  -13.5336   10.3232 N   0  0  0  0  0  0  0  0  0  0  0  0
   61.9031  -12.3028   10.4165 C   0  0  1  0  0  0  0  0  0  0  0  0
   61.7914  -11.5240    9.1238 C   0  0  1  0  0  0  0  0  0  0  0  0
   61.7580  -10.0859    9.5720 C   0  0  2  0  0  0  0  0  0  0  0  0
   63.0904   -9.5597    9.6158 O   0  0  0  0  0  0  0  0  0  0  0  0
   62.9026  -11.7997    8.2568 O   0  0  0  0  0  0  0  0  0  0  0  0
   61.4017  -11.4440   11.4377 O   0  0  0  0  0  0  0  0  0  0  0  0
   61.2119  -10.1282   10.9756 C   0  0  2  0  0  0  0  0  0  0  0  0
   59.7315   -9.8432   11.1227 C   0  0  0  0  0  0  0  0  0  0  0  0
   59.4031   -8.5430   10.6779 O   0  0  0  0  0  0  0  0  0  0  0  0
   57.8964   -8.0376   10.8424 P   0  0  0  0  0  0  0  0  0  0  0  0
   57.6434   -8.0375   12.3367 O   0  0  0  0  0  0  0  0  0  0  0  0
   57.1270   -9.0749   10.0661 O   0  0  0  0  0  0  0  0  0  0  0  0
   57.9025   -6.6986   10.1585 O   0  0  0  0  0  0  0  0  0  0  0  0
  2  1  2  0  0  0  0
  2  4  1  0  0  0  0
  3  2  1  0  0  0  0
  4  7  1  0  0  0  0
  4  5  2  0  0  0  0
  5  6  1  0  0  0  0
  5  9  1  0  0  0  0
  7  8  2  0  0  0  0
  8  9  1  0  0  0  0
 10  9  1  6  0  0  0
 10 15  1  0  0  0  0
 11 14  1  6  0  0  0
 11 12  1  0  0  0  0
 11 10  1  0  0  0  0
 12 13  1  1  0  0  0
 12 16  1  0  0  0  0
 16 17  1  6  0  0  0
 16 15  1  0  0  0  0
 18 19  1  0  0  0  0
 18 17  1  0  0  0  0
 19 21  1  0  0  0  0
 20 19  1  0  0  0  0
 22 19  2  0  0  0  0
M  END
>  <CHROM.1>
-0.02173188,83.54540740,-61.56526516,62.22476939,-176.31520618,60.23727538
-11.76763597,10.17729408,1.28130831,-0.25654485,-3.05373160

>  <Name>
lig.pdb

>  <RI>
0

>  <Rbt.Current_Directory>
/home/itssahil/PROJECTS/Mol_Feturizer/New_Systems/rnas/4znp

>  <Rbt.Executable>
rbdock ($Id: //depot/dev/client3/rdock/2013.1/src/exe/rbdock.cxx#4 $)

>  <Rbt.Library>
libRbt.so (2013.1, Build901 2013/11/27)

>  <Rbt.Parameter_File>
/export/apps/rDock/src/rDock_2013.1_src/data/scripts/dock_solv.prm

>  <Rbt.Receptor>
prm/pocket_docking_4.prm

>  <SCORE>
-16.4218

>  <SCORE.INTER>
-10.3751

>  <SCORE.INTER.CONST>
1

>  <SCORE.INTER.POLAR>
0

>  <SCORE.INTER.ROT>
5

>  <SCORE.INTER.SOLV>
16.8735

>  <SCORE.INTER.VDW>
-19.4746

>  <SCORE.INTER.norm>
-0.471596

>  <SCORE.INTRA>
-6.04665

>  <SCORE.INTRA.DIHEDRAL>
-9.44712

>  <SCORE.INTRA.DIHEDRAL.0>
11.9251

>  <SCORE.INTRA.POLAR>
0

>  <SCORE.INTRA.POLAR.0>
0

>  <SCORE.INTRA.REPUL>
0

>  <SCORE.INTRA.REPUL.0>
0

>  <SCORE.INTRA.SOLV>
-0.00510625

>  <SCORE.INTRA.SOLV.lig_0>
-40.9823

>  <SCORE.INTRA.VDW>
-1.32054

>  <SCORE.INTRA.VDW.0>
-0.53506

>  <SCORE.INTRA.norm>
-0.274848

>  <SCORE.RESTR>
0

>  <SCORE.RESTR.CAVITY>
0

>  <SCORE.RESTR.norm>
0

>  <SCORE.SYSTEM>
0

>  <SCORE.SYSTEM.CONST>
0

>  <SCORE.SYSTEM.DIHEDRAL>
0

>  <SCORE.SYSTEM.SOLV>
0

>  <SCORE.SYSTEM.norm>
0

>  <SCORE.heavy>
22

>  <SCORE.norm>
-0.746444

>  <RMSD>
2.795

$$$$
lig.pdb
 OpenBabel11021811523D
libRbt.so/2013.1/901 2013/11/27
 22 23  0  0  0  0  0  0  0  0999 V2000
   56.3852  -15.4750    8.7538 O   0  0  0  0  0  0  0  0  0  0  0  0
   57.1258  -16.4298    8.7717 C   0  0  0  0  0  0  0  0  0  0  0  0
   56.6840  -17.6633    8.6010 N   0  0  0  0  0  0  0  0  0  0  0  0
   58.5604  -16.2456    9.0326 C   0  0  0  0  0  0  0  0  0  0  0  0
   59.2225  -14.9513    9.2105 C   0  0  0  0  0  0  0  0  0  0  0  0
   58.6202  -13.7447    9.1418 N   0  0  0  0  0  0  0  0  0  0  0  0
   59.5483  -17.1455    9.1622 N   0  0  0  0  0  0  0  0  0  0  0  0
   60.7072  -16.4796    9.4233 C   0  0  0  0  0  0  0  0  0  0  0  0
   60.5135  -15.1394    9.4600 N   0  0  0  0  0  0  0  0  0  0  0  0
   61.5613  -14.1145    9.7187 C   0  0  1  0  0  0  0  0  0  0  0  0
   61.2692  -12.8806    8.8926 C   0  0  1  0  0  0  0  0  0  0  0  0
   61.6304  -11.7404    9.8090 C   0  0  2  0  0  0  0  0  0  0  0  0
   63.0038  -11.3787    9.6164 O   0  0  0  0  0  0  0  0  0  0  0  0
   62.0426  -12.8740    7.6825 O   0  0  0  0  0  0  0  0  0  0  0  0
   61.5171  -13.6956   11.0804 O   0  0  0  0  0  0  0  0  0  0  0  0
   61.4702  -12.2942   11.2010 C   0  0  2  0  0  0  0  0  0  0  0  0
   60.1622  -11.9782   11.8966 C   0  0  0  0  0  0  0  0  0  0  0  0
   60.3595  -11.6519   13.2570 O   0  0  0  0  0  0  0  0  0  0  0  0
   59.0984  -11.6719   14.2377 P   0  0  0  0  0  0  0  0  0  0  0  0
   58.7512  -13.1381   14.4009 O   0  0  0  0  0  0  0  0  0  0  0  0
   58.0871  -10.8593   13.4710 O   0  0  0  0  0  0  0  0  0  0  0  0
   59.5987  -10.9561   15.4617 O   0  0  0  0  0  0  0  0  0  0  0  0
  2  1  2  0  0  0  0
  2  4  1  0  0  0  0
  3  2  1  0  0  0  0
  4  7  1  0  0  0  0
  4  5  2  0  0  0  0
  5  6  1  0  0  0  0
  5  9  1  0  0  0  0
  7  8  2  0  0  0  0
  8  9  1  0  0  0  0
 10  9  1  1  0  0  0
 10 15  1  0  0  0  0
 11 14  1  6  0  0  0
 11 12  1  0  0  0  0
 11 10  1  0  0  0  0
 12 13  1  6  0  0  0
 12 16  1  0  0  0  0
 16 17  1  6  0  0  0
 16 15  1  0  0  0  0
 18 19  1  0  0  0  0
 18 17  1  0  0  0  0
 19 21  1  0  0  0  0
 20 19  1  0  0  0  0
 22 19  2  0  0  0  0
M  END
>  <CHROM.1>
-3.61047539,-34.52777878,-138.73767742,71.04443313,-163.89995817,59.78989951
-13.54839907,10.84272277,1.73327495,-0.56150633,-2.21212404

>  <Name>
lig.pdb

>  <RI>
0

>  <Rbt.Current_Directory>
/home/itssahil/PROJECTS/Mol_Feturizer/New_Systems/rnas/4znp

>  <Rbt.Executable>
rbdock ($Id: //depot/dev/client3/rdock/2013.1/src/exe/rbdock.cxx#4 $)

>  <Rbt.Library>
libRbt.so (2013.1, Build901 2013/11/27)

>  <Rbt.Parameter_File>
/export/apps/rDock/src/rDock_2013.1_src/data/scripts/dock_solv.prm

>  <Rbt.Receptor>
prm/pocket_docking_6.prm

>  <SCORE>
-21.3703

>  <SCORE.INTER>
-18.6779

>  <SCORE.INTER.CONST>
1

>  <SCORE.INTER.POLAR>
0

>  <SCORE.INTER.ROT>
5

>  <SCORE.INTER.SOLV>
23.1238

>  <SCORE.INTER.VDW>
-27.0932

>  <SCORE.INTER.norm>
-0.848993

>  <SCORE.INTRA>
-2.69248

>  <SCORE.INTRA.DIHEDRAL>
-4.01053

>  <SCORE.INTRA.DIHEDRAL.0>
11.9251

>  <SCORE.INTRA.POLAR>
0

>  <SCORE.INTRA.POLAR.0>
0

>  <SCORE.INTRA.REPUL>
0

>  <SCORE.INTRA.REPUL.0>
0

>  <SCORE.INTRA.SOLV>
0.763698

>  <SCORE.INTRA.SOLV.lig_0>
-40.9823

>  <SCORE.INTRA.VDW>
-1.06906

>  <SCORE.INTRA.VDW.0>
-0.53506

>  <SCORE.INTRA.norm>
-0.122385

>  <SCORE.RESTR>
0

>  <SCORE.RESTR.CAVITY>
0

>  <SCORE.RESTR.norm>
0

>  <SCORE.SYSTEM>
0

>  <SCORE.SYSTEM.CONST>
0

>  <SCORE.SYSTEM.DIHEDRAL>
0

>  <SCORE.SYSTEM.SOLV>
0

>  <SCORE.SYSTEM.norm>
0

>  <SCORE.heavy>
22

>  <SCORE.norm>
-0.971379

>  <RMSD>
2.927

$$$$
lig.pdb
 OpenBabel11021811523D
libRbt.so/2013.1/901 2013/11/27
 22 23  0  0  0  0  0  0  0  0999 V2000
   56.8180  -17.6773    8.6807 O   0  0  0  0  0  0  0  0  0  0  0  0
   57.2384  -16.5513    8.8063 C   0  0  0  0  0  0  0  0  0  0  0  0
   56.4547  -15.4934    8.6947 N   0  0  0  0  0  0  0  0  0  0  0  0
   58.6699  -16.3213    9.0479 C   0  0  0  0  0  0  0  0  0  0  0  0
   59.2903  -15.0072    9.2312 C   0  0  0  0  0  0  0  0  0  0  0  0
   58.6465  -13.8212    9.1859 N   0  0  0  0  0  0  0  0  0  0  0  0
   59.6895  -17.1883    9.1521 N   0  0  0  0  0  0  0  0  0  0  0  0
   60.8291  -16.4864    9.4038 C   0  0  0  0  0  0  0  0  0  0  0  0
   60.5906  -15.1541    9.4592 N   0  0  0  0  0  0  0  0  0  0  0  0
   61.6069  -14.0970    9.7144 C   0  0  1  0  0  0  0  0  0  0  0  0
   61.2703  -12.8707    8.8940 C   0  0  1  0  0  0  0  0  0  0  0  0
   61.6010  -11.7222    9.8116 C   0  0  2  0  0  0  0  0  0  0  0  0
   62.9608  -11.3164    9.6114 O   0  0  0  0  0  0  0  0  0  0  0  0
   62.0352  -12.8359    7.6790 O   0  0  0  0  0  0  0  0  0  0  0  0
   61.5582  -13.6837   11.0777 O   0  0  0  0  0  0  0  0  0  0  0  0
   61.4675  -12.2848   11.2029 C   0  0  2  0  0  0  0  0  0  0  0  0
   60.1546  -12.0127   11.9078 C   0  0  0  0  0  0  0  0  0  0  0  0
   60.3505  -11.6798   13.2668 O   0  0  0  0  0  0  0  0  0  0  0  0
   59.1133  -11.8056   14.2698 P   0  0  0  0  0  0  0  0  0  0  0  0
   58.8427  -13.2930   14.3749 O   0  0  0  0  0  0  0  0  0  0  0  0
   58.0468  -11.0127   13.5593 O   0  0  0  0  0  0  0  0  0  0  0  0
   59.6037  -11.1188   15.5142 O   0  0  0  0  0  0  0  0  0  0  0  0
  2  1  2  0  0  0  0
  2  4  1  0  0  0  0
  3  2  1  0  0  0  0
  4  7  1  0  0  0  0
  4  5  2  0  0  0  0
  5  6  1  0  0  0  0
  5  9  1  0  0  0  0
  7  8  2  0  0  0  0
  8  9  1  0  0  0  0
 10  9  1  1  0  0  0
 10 15  1  0  0  0  0
 11 14  1  6  0  0  0
 11 12  1  0  0  0  0
 11 10  1  0  0  0  0
 12 13  1  6  0  0  0
 12 16  1  0  0  0  0
 16 17  1  6  0  0  0
 16 15  1  0  0  0  0
 18 19  1  0  0  0  0
 18 17  1  0  0  0  0
 19 21  1  0  0  0  0
 20 19  1  0  0  0  0
 22 19  2  0  0  0  0
M  END
>  <CHROM.1>
-179.24876297,-35.23921914,-138.54063162,68.34320052,-161.17137790,59.83036784
-13.60879563,10.85541952,1.72253666,-0.59819480,-2.20890120

>  <Name>
lig.pdb

>  <RI>
0

>  <Rbt.Current_Directory>
/home/itssahil/PROJECTS/Mol_Feturizer/New_Systems/rnas/4znp

>  <Rbt.Executable>
rbdock ($Id: //depot/dev/client3/rdock/2013.1/src/exe/rbdock.cxx#4 $)

>  <Rbt.Library>
libRbt.so (2013.1, Build901 2013/11/27)

>  <Rbt.Parameter_File>
/export/apps/rDock/src/rDock_2013.1_src/data/scripts/dock_solv.prm

>  <Rbt.Receptor>
prm/pocket_docking_7.prm

>  <SCORE>
-21.0089

>  <SCORE.INTER>
-18.5536

>  <SCORE.INTER.CONST>
1

>  <SCORE.INTER.POLAR>
0

>  <SCORE.INTER.ROT>
5

>  <SCORE.INTER.SOLV>
23.9781

>  <SCORE.INTER.VDW>
-27.2951

>  <SCORE.INTER.norm>
-0.843344

>  <SCORE.INTRA>
-2.45531

>  <SCORE.INTRA.DIHEDRAL>
-3.68163

>  <SCORE.INTRA.DIHEDRAL.0>
11.9251

>  <SCORE.INTRA.POLAR>
0

>  <SCORE.INTRA.POLAR.0>
0

>  <SCORE.INTRA.REPUL>
0

>  <SCORE.INTRA.REPUL.0>
0

>  <SCORE.INTRA.SOLV>
1.02181

>  <SCORE.INTRA.SOLV.lig_0>
-40.9823

>  <SCORE.INTRA.VDW>
-1.12541

>  <SCORE.INTRA.VDW.0>
-0.53506

>  <SCORE.INTRA.norm>
-0.111605

>  <SCORE.RESTR>
0

>  <SCORE.RESTR.CAVITY>
0

>  <SCORE.RESTR.norm>
0

>  <SCORE.SYSTEM>
0

>  <SCORE.SYSTEM.CONST>
0

>  <SCORE.SYSTEM.DIHEDRAL>
0

>  <SCORE.SYSTEM.SOLV>
0

>  <SCORE.SYSTEM.norm>
0

>  <SCORE.heavy>
22

>  <SCORE.norm>
-0.954949

>  <RMSD>
2.936

$$$$
lig.pdb
 OpenBabel11021811523D
libRbt.so/2013.1/901 2013/11/27
 22 23  0  0  0  0  0  0  0  0999 V2000
   60.9695  -17.5366    8.8821 O   0  0  0  0  0  0  0  0  0  0  0  0
   60.0494  -16.9810    9.4346 C   0  0  0  0  0  0  0  0  0  0  0  0
   58.8662  -17.5525    9.5730 N   0  0  0  0  0  0  0  0  0  0  0  0
   60.2115  -15.6101    9.9391 C   0  0  0  0  0  0  0  0  0  0  0  0
   61.3567  -14.7414    9.6576 C   0  0  0  0  0  0  0  0  0  0  0  0
   62.4334  -15.0767    8.9149 N   0  0  0  0  0  0  0  0  0  0  0  0
   59.4150  -14.8672   10.7240 N   0  0  0  0  0  0  0  0  0  0  0  0
   59.9929  -13.6455   10.8923 C   0  0  0  0  0  0  0  0  0  0  0  0
   61.1761  -13.5606   10.2384 N   0  0  0  0  0  0  0  0  0  0  0  0
   62.0718  -12.3722   10.2089 C   0  0  1  0  0  0  0  0  0  0  0  0
   61.5070  -11.3434    9.2535 C   0  0  1  0  0  0  0  0  0  0  0  0
   61.7779  -10.0292    9.9389 C   0  0  2  0  0  0  0  0  0  0  0  0
   63.0506   -9.5178    9.5233 O   0  0  0  0  0  0  0  0  0  0  0  0
   62.1411  -11.4291    7.9678 O   0  0  0  0  0  0  0  0  0  0  0  0
   62.1031  -11.7452   11.4886 O   0  0  0  0  0  0  0  0  0  0  0  0
   61.8504  -10.3631   11.4063 C   0  0  2  0  0  0  0  0  0  0  0  0
   60.5877  -10.1209   12.2072 C   0  0  0  0  0  0  0  0  0  0  0  0
   59.4519  -10.6690   11.5704 O   0  0  0  0  0  0  0  0  0  0  0  0
   58.0055  -10.3056   12.1435 P   0  0  0  0  0  0  0  0  0  0  0  0
   57.0287  -10.8823   11.1384 O   0  0  0  0  0  0  0  0  0  0  0  0
   58.0530   -8.8003   12.1941 O   0  0  0  0  0  0  0  0  0  0  0  0
   58.0090  -10.9248   13.5137 O   0  0  0  0  0  0  0  0  0  0  0  0
  2  1  2  0  0  0  0
  2  4  1  0  0  0  0
  3  2  1  0  0  0  0
  4  7  1  0  0  0  0
  4  5  2  0  0  0  0
  5  6  1  0  0  0  0
  5  9  1  0  0  0  0
  7  8  2  0  0  0  0
  8  9  1  0  0  0  0
 10  9  1  1  0  0  0
 10 15  1  0  0  0  0
 11 14  1  6  0  0  0
 11 12  1  0  0  0  0
 11 10  1  0  0  0  0
 12 13  1  6  0  0  0
 12 16  1  0  0  0  0
 16 17  1  1  0  0  0
 16 15  1  0  0  0  0
 18 19  1  0  0  0  0
 18 17  1  0  0  0  0
 19 21  1  0  0  0  0
 20 19  1  0  0  0  0
 22 19  2  0  0  0  0
M  END
>  <CHROM.1>
9.84035797,103.59790116,48.39633018,172.36219136,-170.08799482,60.29993658
-12.42099291,10.60760306,1.33122970,-0.49374859,-2.88691000

>  <Name>
lig.pdb

>  <RI>
0

>  <Rbt.Current_Directory>
/home/itssahil/PROJECTS/Mol_Feturizer/New_Systems/rnas/4znp

>  <Rbt.Executable>
rbdock ($Id: //depot/dev/client3/rdock/2013.1/src/exe/rbdock.cxx#4 $)

>  <Rbt.Library>
libRbt.so (2013.1, Build901 2013/11/27)

>  <Rbt.Parameter_File>
/export/apps/rDock/src/rDock_2013.1_src/data/scripts/dock_solv.prm

>  <Rbt.Receptor>
prm/pocket_docking_3.prm

>  <SCORE>
-14.7861

>  <SCORE.INTER>
-9.56639

>  <SCORE.INTER.CONST>
1

>  <SCORE.INTER.POLAR>
0

>  <SCORE.INTER.ROT>
5

>  <SCORE.INTER.SOLV>
17.0317

>  <SCORE.INTER.VDW>
-18.9882

>  <SCORE.INTER.norm>
-0.434836

>  <SCORE.INTRA>
-5.68703

>  <SCORE.INTRA.DIHEDRAL>
-8.10494

>  <SCORE.INTRA.DIHEDRAL.0>
11.9251

>  <SCORE.INTRA.POLAR>
0

>  <SCORE.INTRA.POLAR.0>
0

>  <SCORE.INTRA.REPUL>
0

>  <SCORE.INTRA.REPUL.0>
0

>  <SCORE.INTRA.SOLV>
0.63066

>  <SCORE.INTRA.SOLV.lig_0>
-40.9823

>  <SCORE.INTRA.VDW>
-1.94989

>  <SCORE.INTRA.VDW.0>
-0.53506

>  <SCORE.INTRA.norm>
-0.258501

>  <SCORE.RESTR>
0.467287

>  <SCORE.RESTR.CAVITY>
0.467287

>  <SCORE.RESTR.norm>
0.0212403

>  <SCORE.SYSTEM>
0

>  <SCORE.SYSTEM.CONST>
0

>  <SCORE.SYSTEM.DIHEDRAL>
0

>  <SCORE.SYSTEM.SOLV>
0

>  <SCORE.SYSTEM.norm>
0

>  <SCORE.heavy>
22

>  <SCORE.norm>
-0.672097

>  <RMSD>
2.988

$$$$
lig.pdb
 OpenBabel11021811523D
libRbt.so/2013.1/901 2013/11/27
 22 23  0  0  0  0  0  0  0  0999 V2000
   58.7574  -18.4101    8.3694 O   0  0  0  0  0  0  0  0  0  0  0  0
   58.2055  -17.3703    8.6427 C   0  0  0  0  0  0  0  0  0  0  0  0
   56.9183  -17.1784    8.4143 N   0  0  0  0  0  0  0  0  0  0  0  0
   58.9753  -16.2530    9.2075 C   0  0  0  0  0  0  0  0  0  0  0  0
   58.4598  -14.8979    9.4154 C   0  0  0  0  0  0  0  0  0  0  0  0
   57.2166  -14.4737    9.1027 N   0  0  0  0  0  0  0  0  0  0  0  0
   60.2450  -16.1961    9.6401 N   0  0  0  0  0  0  0  0  0  0  0  0
   60.4888  -14.9372   10.0988 C   0  0  0  0  0  0  0  0  0  0  0  0
   59.4003  -14.1413    9.9697 N   0  0  0  0  0  0  0  0  0  0  0  0
   59.3156  -12.7098   10.3684 C   0  0  1  0  0  0  0  0  0  0  0  0
   60.4390  -12.3910   11.3310 C   0  0  1  0  0  0  0  0  0  0  0  0
   60.8760  -11.0065   10.9279 C   0  0  2  0  0  0  0  0  0  0  0  0
   60.1409  -10.0285   11.6742 O   0  0  0  0  0  0  0  0  0  0  0  0
   59.9840  -12.4448   12.6921 O   0  0  0  0  0  0  0  0  0  0  0  0
   59.5178  -11.8687    9.2356 O   0  0  0  0  0  0  0  0  0  0  0  0
   60.4970  -10.8865    9.4746 C   0  0  2  0  0  0  0  0  0  0  0  0
   61.6040  -11.1478    8.4742 C   0  0  0  0  0  0  0  0  0  0  0  0
   62.6307  -10.1817    8.5668 O   0  0  0  0  0  0  0  0  0  0  0  0
   62.2591   -8.6469    8.3240 P   0  0  0  0  0  0  0  0  0  0  0  0
   61.6702   -8.1730    9.6375 O   0  0  0  0  0  0  0  0  0  0  0  0
   61.2803   -8.7342    7.1816 O   0  0  0  0  0  0  0  0  0  0  0  0
   63.5683   -8.0338    7.9106 O   0  0  0  0  0  0  0  0  0  0  0  0
  2  1  2  0  0  0  0
  2  4  1  0  0  0  0
  3  2  1  0  0  0  0
  4  7  1  0  0  0  0
  4  5  2  0  0  0  0
  5  6  1  0  0  0  0
  5  9  1  0  0  0  0
  7  8  2  0  0  0  0
  8  9  1  0  0  0  0
 10  9  1  6  0  0  0
 10 15  1  0  0  0  0
 11 14  1  1  0  0  0
 11 12  1  0  0  0  0
 11 10  1  0  0  0  0
 12 13  1  1  0  0  0
 12 16  1  0  0  0  0
 16 17  1  6  0  0  0
 16 15  1  0  0  0  0
 18 19  1  0  0  0  0
 18 17  1  0  0  0  0
 19 21  1  0  0  0  0
 20 19  1  0  0  0  0
 22 19  2  0  0  0  0
M  END
>  <CHROM.1>
171.64944384,162.38979830,-64.90160538,80.80414474,-59.67384681,60.28722718
-12.38062835,9.41401757,-2.70965848,1.08348493,1.04114883

>  <Name>
lig.pdb

>  <RI>
0

>  <Rbt.Current_Directory>
/home/itssahil/PROJECTS/Mol_Feturizer/New_Systems/rnas/4znp

>  <Rbt.Executable>
rbdock ($Id: //depot/dev/client3/rdock/2013.1/src/exe/rbdock.cxx#4 $)

>  <Rbt.Library>
libRbt.so (2013.1, Build901 2013/11/27)

>  <Rbt.Parameter_File>
/export/apps/rDock/src/rDock_2013.1_src/data/scripts/dock_solv.prm

>  <Rbt.Receptor>
prm/pocket_docking_5.prm

>  <SCORE>
-19.7918

>  <SCORE.INTER>
-15.7993

>  <SCORE.INTER.CONST>
1

>  <SCORE.INTER.POLAR>
0

>  <SCORE.INTER.ROT>
5

>  <SCORE.INTER.SOLV>
20.4809

>  <SCORE.INTER.VDW>
-24.2932

>  <SCORE.INTER.norm>
-0.718152

>  <SCORE.INTRA>
-3.99244

>  <SCORE.INTRA.DIHEDRAL>
-8.51473

>  <SCORE.INTRA.DIHEDRAL.0>
11.9251

>  <SCORE.INTRA.POLAR>
0

>  <SCORE.INTRA.POLAR.0>
0

>  <SCORE.INTRA.REPUL>
0

>  <SCORE.INTRA.REPUL.0>
0

>  <SCORE.INTRA.SOLV>
1.0465

>  <SCORE.INTRA.SOLV.lig_0>
-40.9823

>  <SCORE.INTRA.VDW>
-0.258325

>  <SCORE.INTRA.VDW.0>
-0.53506

>  <SCORE.INTRA.norm>
-0.181475

>  <SCORE.RESTR>
0

>  <SCORE.RESTR.CAVITY>
0

>  <SCORE.RESTR.norm>
0

>  <SCORE.SYSTEM>
0

>  <SCORE.SYSTEM.CONST>
0

>  <SCORE.SYSTEM.DIHEDRAL>
0

>  <SCORE.SYSTEM.SOLV>
0

>  <SCORE.SYSTEM.norm>
0

>  <SCORE.heavy>
22

>  <SCORE.norm>
-0.899626

>  <RMSD>
3.001

$$$$
lig.pdb
 OpenBabel11021811523D
libRbt.so/2013.1/901 2013/11/27
 22 23  0  0  0  0  0  0  0  0999 V2000
   61.2452  -17.4692    8.7785 O   0  0  0  0  0  0  0  0  0  0  0  0
   60.2522  -17.0874    9.3519 C   0  0  0  0  0  0  0  0  0  0  0  0
   59.1891  -17.8574    9.5019 N   0  0  0  0  0  0  0  0  0  0  0  0
   60.1822  -15.7138    9.8702 C   0  0  0  0  0  0  0  0  0  0  0  0
   61.2344  -14.7057    9.7228 C   0  0  0  0  0  0  0  0  0  0  0  0
   62.4232  -14.8945    9.1109 N   0  0  0  0  0  0  0  0  0  0  0  0
   59.2136  -15.0863   10.5561 N   0  0  0  0  0  0  0  0  0  0  0  0
   59.6107  -13.8046   10.7891 C   0  0  0  0  0  0  0  0  0  0  0  0
   60.8416  -13.5644   10.2773 N   0  0  0  0  0  0  0  0  0  0  0  0
   61.5790  -12.2735   10.3507 C   0  0  1  0  0  0  0  0  0  0  0  0
   61.4233  -11.5329    9.0402 C   0  0  1  0  0  0  0  0  0  0  0  0
   61.2790  -10.0920    9.4564 C   0  0  2  0  0  0  0  0  0  0  0  0
   62.5682   -9.4675    9.5002 O   0  0  0  0  0  0  0  0  0  0  0  0
   62.5609  -11.7437    8.1893 O   0  0  0  0  0  0  0  0  0  0  0  0
   61.0048  -11.4327   11.3483 O   0  0  0  0  0  0  0  0  0  0  0  0
   60.7229  -10.1448   10.8556 C   0  0  2  0  0  0  0  0  0  0  0  0
   59.2240   -9.9674   10.9835 C   0  0  0  0  0  0  0  0  0  0  0  0
   58.8605   -9.5032   12.2673 O   0  0  0  0  0  0  0  0  0  0  0  0
   59.2001  -10.4160   13.5338 P   0  0  0  0  0  0  0  0  0  0  0  0
   60.6863  -10.2294   13.7650 O   0  0  0  0  0  0  0  0  0  0  0  0
   58.7971  -11.7866   13.0545 O   0  0  0  0  0  0  0  0  0  0  0  0
   58.2795   -9.8885   14.5992 O   0  0  0  0  0  0  0  0  0  0  0  0
  2  1  2  0  0  0  0
  2  4  1  0  0  0  0
  3  2  1  0  0  0  0
  4  7  1  0  0  0  0
  4  5  2  0  0  0  0
  5  6  1  0  0  0  0
  5  9  1  0  0  0  0
  7  8  2  0  0  0  0
  8  9  1  0  0  0  0
 10  9  1  6  0  0  0
 10 15  1  0  0  0  0
 11 14  1  6  0  0  0
 11 12  1  0  0  0  0
 11 10  1  0  0  0  0
 12 13  1  1  0  0  0
 12 16  1  0  0  0  0
 16 17  1  6  0  0  0
 16 15  1  0  0  0  0
 18 19  1  0  0  0  0
 18 17  1  0  0  0  0
 19 21  1  0  0  0  0
 20 19  1  0  0  0  0
 22 19  2  0  0  0  0
M  END
>  <CHROM.1>
1.70230297,81.03996758,-156.42345163,76.57084843,-61.68427753,60.39938751
-12.45032938,10.88826102,1.33778260,-0.86696339,-2.81379989

>  <Name>
lig.pdb

>  <RI>
0

>  <Rbt.Current_Directory>
/home/itssahil/PROJECTS/Mol_Feturizer/New_Systems/rnas/4znp

>  <Rbt.Executable>
rbdock ($Id: //depot/dev/client3/rdock/2013.1/src/exe/rbdock.cxx#4 $)

>  <Rbt.Library>
libRbt.so (2013.1, Build901 2013/11/27)

>  <Rbt.Parameter_File>
/export/apps/rDock/src/rDock_2013.1_src/data/scripts/dock_solv.prm

>  <Rbt.Receptor>
prm/pocket_docking_3.prm

>  <SCORE>
-14.0664

>  <SCORE.INTER>
-9.65821

>  <SCORE.INTER.CONST>
1

>  <SCORE.INTER.POLAR>
0

>  <SCORE.INTER.ROT>
5

>  <SCORE.INTER.SOLV>
16.139

>  <SCORE.INTER.VDW>
-18.7518

>  <SCORE.INTER.norm>
-0.43901

>  <SCORE.INTRA>
-4.41015

>  <SCORE.INTRA.DIHEDRAL>
-7.28915

>  <SCORE.INTRA.DIHEDRAL.0>
11.9251

>  <SCORE.INTRA.POLAR>
0

>  <SCORE.INTRA.POLAR.0>
0

>  <SCORE.INTRA.REPUL>
0

>  <SCORE.INTRA.REPUL.0>
0

>  <SCORE.INTRA.SOLV>
1.54514

>  <SCORE.INTRA.SOLV.lig_0>
-40.9823

>  <SCORE.INTRA.VDW>
-1.53814

>  <SCORE.INTRA.VDW.0>
-0.53506

>  <SCORE.INTRA.norm>
-0.200461

>  <SCORE.RESTR>
0.00190924

>  <SCORE.RESTR.CAVITY>
0.00190924

>  <SCORE.RESTR.norm>
8.67835e-05

>  <SCORE.SYSTEM>
0

>  <SCORE.SYSTEM.CONST>
0

>  <SCORE.SYSTEM.DIHEDRAL>
0

>  <SCORE.SYSTEM.SOLV>
0

>  <SCORE.SYSTEM.norm>
0

>  <SCORE.heavy>
22

>  <SCORE.norm>
-0.639384

>  <RMSD>
3.042

$$$$
lig.pdb
 OpenBabel11021811523D
libRbt.so/2013.1/901 2013/11/27
 22 23  0  0  0  0  0  0  0  0999 V2000
   59.1106  -18.3308    8.4836 O   0  0  0  0  0  0  0  0  0  0  0  0
   58.4452  -17.3469    8.7062 C   0  0  0  0  0  0  0  0  0  0  0  0
   57.1512  -17.3011    8.4431 N   0  0  0  0  0  0  0  0  0  0  0  0
   59.0781  -16.1351    9.2458 C   0  0  0  0  0  0  0  0  0  0  0  0
   58.3963  -14.8574    9.4643 C   0  0  0  0  0  0  0  0  0  0  0  0
   57.1002  -14.6008    9.1856 N   0  0  0  0  0  0  0  0  0  0  0  0
   60.3410  -15.9106    9.6422 N   0  0  0  0  0  0  0  0  0  0  0  0
   60.4312  -14.6276   10.0901 C   0  0  0  0  0  0  0  0  0  0  0  0
   59.2451  -13.9811    9.9896 N   0  0  0  0  0  0  0  0  0  0  0  0
   58.9855  -12.5702   10.3863 C   0  0  1  0  0  0  0  0  0  0  0  0
   59.9907  -12.1530   11.4378 C   0  0  1  0  0  0  0  0  0  0  0  0
   60.3174  -10.7269   11.0773 C   0  0  2  0  0  0  0  0  0  0  0  0
   59.4305   -9.8364   11.7661 O   0  0  0  0  0  0  0  0  0  0  0  0
   59.4362  -12.2688   12.7576 O   0  0  0  0  0  0  0  0  0  0  0  0
   59.1921  -11.6991    9.2772 O   0  0  0  0  0  0  0  0  0  0  0  0
   60.0455  -10.6272    9.5988 C   0  0  2  0  0  0  0  0  0  0  0  0
   61.2495  -10.7645    8.6898 C   0  0  0  0  0  0  0  0  0  0  0  0
   61.1292   -9.9557    7.5377 O   0  0  0  0  0  0  0  0  0  0  0  0
   61.1912   -8.3685    7.7091 P   0  0  0  0  0  0  0  0  0  0  0  0
   59.9428   -8.0088    8.4895 O   0  0  0  0  0  0  0  0  0  0  0  0
   61.2067   -7.8950    6.2785 O   0  0  0  0  0  0  0  0  0  0  0  0
   62.5076   -8.1448    8.4003 O   0  0  0  0  0  0  0  0  0  0  0  0
  2  1  2  0  0  0  0
  2  4  1  0  0  0  0
  3  2  1  0  0  0  0
  4  7  1  0  0  0  0
  4  5  2  0  0  0  0
  5  6  1  0  0  0  0
  5  9  1  0  0  0  0
  7  8  2  0  0  0  0
  8  9  1  0  0  0  0
 10  9  1  6  0  0  0
 10 15  1  0  0  0  0
 11 14  1  1  0  0  0
 11 12  1  0  0  0  0
 11 10  1  0  0  0  0
 12 13  1  1  0  0  0
 12 16  1  0  0  0  0
 16 17  1  6  0  0  0
 16 15  1  0  0  0  0
 18 19  1  0  0  0  0
 18 17  1  0  0  0  0
 19 21  1  0  0  0  0
 20 19  1  0  0  0  0
 22 19  2  0  0  0  0
M  END
>  <CHROM.1>
175.37655202,155.89052050,-145.89313731,-66.54207675,68.41314381,59.84066570
-12.19085674,9.28164188,-2.68558936,1.23646198,0.96348153

>  <Name>
lig.pdb

>  <RI>
0

>  <Rbt.Current_Directory>
/home/itssahil/PROJECTS/Mol_Feturizer/New_Systems/rnas/4znp

>  <Rbt.Executable>
rbdock ($Id: //depot/dev/client3/rdock/2013.1/src/exe/rbdock.cxx#4 $)

>  <Rbt.Library>
libRbt.so (2013.1, Build901 2013/11/27)

>  <Rbt.Parameter_File>
/export/apps/rDock/src/rDock_2013.1_src/data/scripts/dock_solv.prm

>  <Rbt.Receptor>
prm/pocket_docking_8.prm

>  <SCORE>
-18.7171

>  <SCORE.INTER>
-15.68

>  <SCORE.INTER.CONST>
1

>  <SCORE.INTER.POLAR>
0

>  <SCORE.INTER.ROT>
5

>  <SCORE.INTER.SOLV>
20.5308

>  <SCORE.INTER.VDW>
-24.2303

>  <SCORE.INTER.norm>
-0.712727

>  <SCORE.INTRA>
-3.03712

>  <SCORE.INTRA.DIHEDRAL>
-5.85261

>  <SCORE.INTRA.DIHEDRAL.0>
11.9251

>  <SCORE.INTRA.POLAR>
0

>  <SCORE.INTRA.POLAR.0>
0

>  <SCORE.INTRA.REPUL>
0

>  <SCORE.INTRA.REPUL.0>
0

>  <SCORE.INTRA.SOLV>
1.02783

>  <SCORE.INTRA.SOLV.lig_0>
-40.9823

>  <SCORE.INTRA.VDW>
-0.624725

>  <SCORE.INTRA.VDW.0>
-0.53506

>  <SCORE.INTRA.norm>
-0.138051

>  <SCORE.RESTR>
0

>  <SCORE.RESTR.CAVITY>
0

>  <SCORE.RESTR.norm>
0

>  <SCORE.SYSTEM>
0

>  <SCORE.SYSTEM.CONST>
0

>  <SCORE.SYSTEM.DIHEDRAL>
0

>  <SCORE.SYSTEM.SOLV>
0

>  <SCORE.SYSTEM.norm>
0

>  <SCORE.heavy>
22

>  <SCORE.norm>
-0.850778

>  <RMSD>
3.107

$$$$
lig.pdb
 OpenBabel11021811523D
libRbt.so/2013.1/901 2013/11/27
 22 23  0  0  0  0  0  0  0  0999 V2000
   59.1706  -17.9464    9.6068 O   0  0  0  0  0  0  0  0  0  0  0  0
   59.1632  -16.7448    9.4778 C   0  0  0  0  0  0  0  0  0  0  0  0
   58.0394  -16.0566    9.3821 N   0  0  0  0  0  0  0  0  0  0  0  0
   60.4298  -16.0060    9.3777 C   0  0  0  0  0  0  0  0  0  0  0  0
   60.5867  -14.5705    9.6227 C   0  0  0  0  0  0  0  0  0  0  0  0
   59.5943  -13.7172    9.9549 N   0  0  0  0  0  0  0  0  0  0  0  0
   61.6648  -16.4265    9.0605 N   0  0  0  0  0  0  0  0  0  0  0  0
   62.5134  -15.3635    9.1285 C   0  0  0  0  0  0  0  0  0  0  0  0
   61.8618  -14.2283    9.4773 N   0  0  0  0  0  0  0  0  0  0  0  0
   62.4803  -12.8847    9.6430 C   0  0  1  0  0  0  0  0  0  0  0  0
   61.5871  -11.8408    9.0084 C   0  0  1  0  0  0  0  0  0  0  0  0
   61.6752  -10.6700    9.9528 C   0  0  2  0  0  0  0  0  0  0  0  0
   62.7440   -9.8028    9.5529 O   0  0  0  0  0  0  0  0  0  0  0  0
   62.0379  -11.5100    7.6856 O   0  0  0  0  0  0  0  0  0  0  0  0
   62.5616  -12.5452   11.0250 O   0  0  0  0  0  0  0  0  0  0  0  0
   62.0206  -11.2732   11.2895 C   0  0  2  0  0  0  0  0  0  0  0  0
   60.8607  -11.5011   12.2366 C   0  0  0  0  0  0  0  0  0  0  0  0
   60.2940  -10.2822   12.6715 O   0  0  0  0  0  0  0  0  0  0  0  0
   59.3307  -10.2997   13.9460 P   0  0  0  0  0  0  0  0  0  0  0  0
   60.2439  -10.5714   15.1246 O   0  0  0  0  0  0  0  0  0  0  0  0
   58.3773  -11.4166   13.6081 O   0  0  0  0  0  0  0  0  0  0  0  0
   58.6701   -8.9498   13.9008 O   0  0  0  0  0  0  0  0  0  0  0  0
  2  1  2  0  0  0  0
  2  4  1  0  0  0  0
  3  2  1  0  0  0  0
  4  7  1  0  0  0  0
  4  5  2  0  0  0  0
  5  6  1  0  0  0  0
  5  9  1  0  0  0  0
  7  8  2  0  0  0  0
  8  9  1  0  0  0  0
 10  9  1  1  0  0  0
 10 15  1  0  0  0  0
 11 14  1  6  0  0  0
 11 12  1  0  0  0  0
 11 10  1  0  0  0  0
 12 13  1  6  0  0  0
 12 16  1  0  0  0  0
 16 17  1  1  0  0  0
 16 15  1  0  0  0  0
 18 19  1  0  0  0  0
 18 17  1  0  0  0  0
 19 21  1  0  0  0  0
 20 19  1  0  0  0  0
 22 19  2  0  0  0  0
M  END
>  <CHROM.1>
-160.55146831,-42.32200301,-66.95005041,70.67167178,-164.22746403,60.63343548
-12.69437485,10.91963857,1.44048318,-0.76964040,-2.59006822

>  <Name>
lig.pdb

>  <RI>
0

>  <Rbt.Current_Directory>
/home/itssahil/PROJECTS/Mol_Feturizer/New_Systems/rnas/4znp

>  <Rbt.Executable>
rbdock ($Id: //depot/dev/client3/rdock/2013.1/src/exe/rbdock.cxx#4 $)

>  <Rbt.Library>
libRbt.so (2013.1, Build901 2013/11/27)

>  <Rbt.Parameter_File>
/export/apps/rDock/src/rDock_2013.1_src/data/scripts/dock_solv.prm

>  <Rbt.Receptor>
prm/pocket_docking_4.prm

>  <SCORE>
-17.0023

>  <SCORE.INTER>
-12.7933

>  <SCORE.INTER.CONST>
1

>  <SCORE.INTER.POLAR>
0

>  <SCORE.INTER.ROT>
5

>  <SCORE.INTER.SOLV>
16.6569

>  <SCORE.INTER.VDW>
-21.0145

>  <SCORE.INTER.norm>
-0.581513

>  <SCORE.INTRA>
-4.20902

>  <SCORE.INTRA.DIHEDRAL>
-6.60003

>  <SCORE.INTRA.DIHEDRAL.0>
11.9251

>  <SCORE.INTRA.POLAR>
0

>  <SCORE.INTRA.POLAR.0>
0

>  <SCORE.INTRA.REPUL>
0

>  <SCORE.INTRA.REPUL.0>
0

>  <SCORE.INTRA.SOLV>
1.03255

>  <SCORE.INTRA.SOLV.lig_0>
-40.9823

>  <SCORE.INTRA.VDW>
-1.42528

>  <SCORE.INTRA.VDW.0>
-0.53506

>  <SCORE.INTRA.norm>
-0.191319

>  <SCORE.RESTR>
0

>  <SCORE.RESTR.CAVITY>
0

>  <SCORE.RESTR.norm>
0

>  <SCORE.SYSTEM>
0

>  <SCORE.SYSTEM.CONST>
0

>  <SCORE.SYSTEM.DIHEDRAL>
0

>  <SCORE.SYSTEM.SOLV>
0

>  <SCORE.SYSTEM.norm>
0

>  <SCORE.heavy>
22

>  <SCORE.norm>
-0.772832

>  <RMSD>
3.139

$$$$
lig.pdb
 OpenBabel11021811523D
libRbt.so/2013.1/901 2013/11/27
 22 23  0  0  0  0  0  0  0  0999 V2000
   56.9620  -16.8224    8.5957 O   0  0  0  0  0  0  0  0  0  0  0  0
   58.1481  -16.9972    8.7476 C   0  0  0  0  0  0  0  0  0  0  0  0
   58.7209  -18.1643    8.5122 N   0  0  0  0  0  0  0  0  0  0  0  0
   58.9957  -15.9068    9.2503 C   0  0  0  0  0  0  0  0  0  0  0  0
   58.5562  -14.5235    9.4469 C   0  0  0  0  0  0  0  0  0  0  0  0
   57.3222  -14.0455    9.1785 N   0  0  0  0  0  0  0  0  0  0  0  0
   60.2848  -15.9030    9.6253 N   0  0  0  0  0  0  0  0  0  0  0  0
   60.6096  -14.6476   10.0416 C   0  0  0  0  0  0  0  0  0  0  0  0
   59.5562  -13.8020    9.9406 N   0  0  0  0  0  0  0  0  0  0  0  0
   59.5589  -12.3594   10.3070 C   0  0  1  0  0  0  0  0  0  0  0  0
   60.7517  -12.0701   11.1923 C   0  0  1  0  0  0  0  0  0  0  0  0
   61.2238  -10.7164   10.7286 C   0  0  2  0  0  0  0  0  0  0  0  0
   60.5791   -9.6892   11.4924 O   0  0  0  0  0  0  0  0  0  0  0  0
   60.3785  -12.0722   12.5791 O   0  0  0  0  0  0  0  0  0  0  0  0
   59.7285  -11.5543    9.1430 O   0  0  0  0  0  0  0  0  0  0  0  0
   60.7627  -10.6124    9.2981 C   0  0  2  0  0  0  0  0  0  0  0  0
   61.7941  -10.9464    8.2402 C   0  0  0  0  0  0  0  0  0  0  0  0
   62.9804  -10.1987    8.4127 O   0  0  0  0  0  0  0  0  0  0  0  0
   62.9025   -8.6068    8.3019 P   0  0  0  0  0  0  0  0  0  0  0  0
   64.2961   -8.1730    7.8938 O   0  0  0  0  0  0  0  0  0  0  0  0
   62.4952   -8.2109    9.6976 O   0  0  0  0  0  0  0  0  0  0  0  0
   61.8045   -8.3816    7.2996 O   0  0  0  0  0  0  0  0  0  0  0  0
  2  1  2  0  0  0  0
  2  4  1  0  0  0  0
  3  2  1  0  0  0  0
  4  7  1  0  0  0  0
  4  5  2  0  0  0  0
  5  6  1  0  0  0  0
  5  9  1  0  0  0  0
  7  8  2  0  0  0  0
  8  9  1  0  0  0  0
 10  9  1  6  0  0  0
 10 15  1  0  0  0  0
 11 14  1  1  0  0  0
 11 12  1  0  0  0  0
 11 10  1  0  0  0  0
 12 13  1  1  0  0  0
 12 16  1  0  0  0  0
 16 17  1  6  0  0  0
 16 15  1  0  0  0  0
 18 19  1  0  0  0  0
 18 17  1  0  0  0  0
 19 21  1  0  0  0  0
 20 19  1  0  0  0  0
 22 19  2  0  0  0  0
M  END
>  <CHROM.1>
-7.85329782,163.33681891,-53.29516653,-154.68214231,-62.15083734,60.57911505
-12.13084339,9.38160263,-2.70961966,0.99386235,1.00335896

>  <Name>
lig.pdb

>  <RI>
0

>  <Rbt.Current_Directory>
/home/itssahil/PROJECTS/Mol_Feturizer/New_Systems/rnas/4znp

>  <Rbt.Executable>
rbdock ($Id: //depot/dev/client3/rdock/2013.1/src/exe/rbdock.cxx#4 $)

>  <Rbt.Library>
libRbt.so (2013.1, Build901 2013/11/27)

>  <Rbt.Parameter_File>
/export/apps/rDock/src/rDock_2013.1_src/data/scripts/dock_solv.prm

>  <Rbt.Receptor>
prm/pocket_docking_6.prm

>  <SCORE>
-18.9679

>  <SCORE.INTER>
-15.452

>  <SCORE.INTER.CONST>
1

>  <SCORE.INTER.POLAR>
0

>  <SCORE.INTER.ROT>
5

>  <SCORE.INTER.SOLV>
20.3319

>  <SCORE.INTER.VDW>
-24.0119

>  <SCORE.INTER.norm>
-0.702363

>  <SCORE.INTRA>
-3.51592

>  <SCORE.INTRA.DIHEDRAL>
-8.1835

>  <SCORE.INTRA.DIHEDRAL.0>
11.9251

>  <SCORE.INTRA.POLAR>
0

>  <SCORE.INTRA.POLAR.0>
0

>  <SCORE.INTRA.REPUL>
0

>  <SCORE.INTRA.REPUL.0>
0

>  <SCORE.INTRA.SOLV>
1.47296

>  <SCORE.INTRA.SOLV.lig_0>
-40.9823

>  <SCORE.INTRA.VDW>
-0.160653

>  <SCORE.INTRA.VDW.0>
-0.53506

>  <SCORE.INTRA.norm>
-0.159815

>  <SCORE.RESTR>
0

>  <SCORE.RESTR.CAVITY>
0

>  <SCORE.RESTR.norm>
0

>  <SCORE.SYSTEM>
0

>  <SCORE.SYSTEM.CONST>
0

>  <SCORE.SYSTEM.DIHEDRAL>
0

>  <SCORE.SYSTEM.SOLV>
0

>  <SCORE.SYSTEM.norm>
0

>  <SCORE.heavy>
22

>  <SCORE.norm>
-0.862177

>  <RMSD>
3.153

$$$$
lig.pdb
 OpenBabel11021811523D
libRbt.so/2013.1/901 2013/11/27
 22 23  0  0  0  0  0  0  0  0999 V2000
   58.0875  -16.0874    9.4485 O   0  0  0  0  0  0  0  0  0  0  0  0
   59.1302  -16.6961    9.3960 C   0  0  0  0  0  0  0  0  0  0  0  0
   59.1749  -18.0158    9.4395 N   0  0  0  0  0  0  0  0  0  0  0  0
   60.4056  -15.9691    9.3250 C   0  0  0  0  0  0  0  0  0  0  0  0
   60.5809  -14.5480    9.6335 C   0  0  0  0  0  0  0  0  0  0  0  0
   59.6001  -13.6983   10.0068 N   0  0  0  0  0  0  0  0  0  0  0  0
   61.6344  -16.3900    8.9851 N   0  0  0  0  0  0  0  0  0  0  0  0
   62.4963  -15.3416    9.0979 C   0  0  0  0  0  0  0  0  0  0  0  0
   61.8598  -14.2153    9.4994 N   0  0  0  0  0  0  0  0  0  0  0  0
   62.4953  -12.8881    9.7230 C   0  0  1  0  0  0  0  0  0  0  0  0
   61.6893  -11.8214    9.0141 C   0  0  1  0  0  0  0  0  0  0  0  0
   61.7229  -10.6535    9.9656 C   0  0  2  0  0  0  0  0  0  0  0  0
   62.8449   -9.8140    9.6648 O   0  0  0  0  0  0  0  0  0  0  0  0
   62.2647  -11.5019    7.7376 O   0  0  0  0  0  0  0  0  0  0  0  0
   62.4617  -12.5513   11.1077 O   0  0  0  0  0  0  0  0  0  0  0  0
   61.9321  -11.2658   11.3262 C   0  0  2  0  0  0  0  0  0  0  0  0
   60.6868  -11.4640   12.1655 C   0  0  0  0  0  0  0  0  0  0  0  0
   60.0944  -10.2315   12.5205 O   0  0  0  0  0  0  0  0  0  0  0  0
   58.7576  -10.2507   13.3952 P   0  0  0  0  0  0  0  0  0  0  0  0
   57.7212  -10.9185   12.5138 O   0  0  0  0  0  0  0  0  0  0  0  0
   58.5254   -8.7842   13.6525 O   0  0  0  0  0  0  0  0  0  0  0  0
   59.1661  -10.9922   14.6378 O   0  0  0  0  0  0  0  0  0  0  0  0
  2  1  2  0  0  0  0
  2  4  1  0  0  0  0
  3  2  1  0  0  0  0
  4  7  1  0  0  0  0
  4  5  2  0  0  0  0
  5  6  1  0  0  0  0
  5  9  1  0  0  0  0
  7  8  2  0  0  0  0
  8  9  1  0  0  0  0
 10  9  1  1  0  0  0
 10 15  1  0  0  0  0
 11 14  1  6  0  0  0
 11 12  1  0  0  0  0
 11 10  1  0  0  0  0
 12 13  1  6  0  0  0
 12 16  1  0  0  0  0
 16 17  1  6  0  0  0
 16 15  1  0  0  0  0
 18 19  1  0  0  0  0
 18 17  1  0  0  0  0
 19 21  1  0  0  0  0
 20 19  1  0  0  0  0
 22 19  2  0  0  0  0
M  END
>  <CHROM.1>
15.66375482,-48.21629950,-65.32879422,-64.32590004,179.32714014,60.47720697
-12.65819241,10.77526028,1.36569867,-0.63724105,-2.67544973

>  <Name>
lig.pdb

>  <RI>
0

>  <Rbt.Current_Directory>
/home/itssahil/PROJECTS/Mol_Feturizer/New_Systems/rnas/4znp

>  <Rbt.Executable>
rbdock ($Id: //depot/dev/client3/rdock/2013.1/src/exe/rbdock.cxx#4 $)

>  <Rbt.Library>
libRbt.so (2013.1, Build901 2013/11/27)

>  <Rbt.Parameter_File>
/export/apps/rDock/src/rDock_2013.1_src/data/scripts/dock_solv.prm

>  <Rbt.Receptor>
prm/pocket_docking_4.prm

>  <SCORE>
-17.4771

>  <SCORE.INTER>
-12.0163

>  <SCORE.INTER.CONST>
1

>  <SCORE.INTER.POLAR>
0

>  <SCORE.INTER.ROT>
5

>  <SCORE.INTER.SOLV>
16.9426

>  <SCORE.INTER.VDW>
-20.5917

>  <SCORE.INTER.norm>
-0.546196

>  <SCORE.INTRA>
-5.4608

>  <SCORE.INTRA.DIHEDRAL>
-8.46379

>  <SCORE.INTRA.DIHEDRAL.0>
11.9251

>  <SCORE.INTRA.POLAR>
0

>  <SCORE.INTRA.POLAR.0>
0

>  <SCORE.INTRA.REPUL>
0

>  <SCORE.INTRA.REPUL.0>
0

>  <SCORE.INTRA.SOLV>
1.13987

>  <SCORE.INTRA.SOLV.lig_0>
-40.9823

>  <SCORE.INTRA.VDW>
-1.79884

>  <SCORE.INTRA.VDW.0>
-0.53506

>  <SCORE.INTRA.norm>
-0.248218

>  <SCORE.RESTR>
0

>  <SCORE.RESTR.CAVITY>
0

>  <SCORE.RESTR.norm>
0

>  <SCORE.SYSTEM>
0

>  <SCORE.SYSTEM.CONST>
0

>  <SCORE.SYSTEM.DIHEDRAL>
0

>  <SCORE.SYSTEM.SOLV>
0

>  <SCORE.SYSTEM.norm>
0

>  <SCORE.heavy>
22

>  <SCORE.norm>
-0.794414

>  <RMSD>
3.157

$$$$
lig.pdb
 OpenBabel11021811523D
libRbt.so/2013.1/901 2013/11/27
 22 23  0  0  0  0  0  0  0  0999 V2000
   58.0904  -16.0543    9.4599 O   0  0  0  0  0  0  0  0  0  0  0  0
   59.1237  -16.6775    9.3919 C   0  0  0  0  0  0  0  0  0  0  0  0
   59.1493  -17.9982    9.4186 N   0  0  0  0  0  0  0  0  0  0  0  0
   60.4091  -15.9684    9.3203 C   0  0  0  0  0  0  0  0  0  0  0  0
   60.5978  -14.5417    9.5926 C   0  0  0  0  0  0  0  0  0  0  0  0
   59.6224  -13.6701    9.9277 N   0  0  0  0  0  0  0  0  0  0  0  0
   61.6373  -16.4135    9.0107 N   0  0  0  0  0  0  0  0  0  0  0  0
   62.5107  -15.3731    9.1078 C   0  0  0  0  0  0  0  0  0  0  0  0
   61.8826  -14.2284    9.4687 N   0  0  0  0  0  0  0  0  0  0  0  0
   62.5315  -12.9035    9.6657 C   0  0  1  0  0  0  0  0  0  0  0  0
   61.7059  -11.8352    8.9821 C   0  0  1  0  0  0  0  0  0  0  0  0
   61.7781  -10.6646    9.9281 C   0  0  2  0  0  0  0  0  0  0  0  0
   62.8926   -9.8312    9.5854 O   0  0  0  0  0  0  0  0  0  0  0  0
   62.2374  -11.5223    7.6852 O   0  0  0  0  0  0  0  0  0  0  0  0
   62.5481  -12.5623   11.0495 O   0  0  0  0  0  0  0  0  0  0  0  0
   62.0323  -11.2738   11.2824 C   0  0  2  0  0  0  0  0  0  0  0  0
   60.8165  -11.4637   12.1657 C   0  0  0  0  0  0  0  0  0  0  0  0
   60.2272  -10.2285   12.5161 O   0  0  0  0  0  0  0  0  0  0  0  0
   58.9205  -10.2393   13.4353 P   0  0  0  0  0  0  0  0  0  0  0  0
   57.8873  -11.0116   12.6398 O   0  0  0  0  0  0  0  0  0  0  0  0
   58.6326   -8.7688   13.5952 O   0  0  0  0  0  0  0  0  0  0  0  0
   59.3996  -10.8711   14.7128 O   0  0  0  0  0  0  0  0  0  0  0  0
  2  1  2  0  0  0  0
  2  4  1  0  0  0  0
  3  2  1  0  0  0  0
  4  7  1  0  0  0  0
  4  5  2  0  0  0  0
  5  6  1  0  0  0  0
  5  9  1  0  0  0  0
  7  8  2  0  0  0  0
  8  9  1  0  0  0  0
 10  9  1  1  0  0  0
 10 15  1  0  0  0  0
 11 14  1  6  0  0  0
 11 12  1  0  0  0  0
 11 10  1  0  0  0  0
 12 13  1  6  0  0  0
 12 16  1  0  0  0  0
 16 17  1  1  0  0  0
 16 15  1  0  0  0  0
 18 19  1  0  0  0  0
 18 17  1  0  0  0  0
 19 21  1  0  0  0  0
 20 19  1  0  0  0  0
 22 19  2  0  0  0  0
M  END
>  <CHROM.1>
13.03924590,-44.99467860,-64.18882562,-60.69916711,179.37837873,60.54454848
-12.65742249,10.76450825,1.39397605,-0.65311730,-2.65736074

>  <Name>
lig.pdb

>  <RI>
0

>  <Rbt.Current_Directory>
/home/itssahil/PROJECTS/Mol_Feturizer/New_Systems/rnas/4znp

>  <Rbt.Executable>
rbdock ($Id: //depot/dev/client3/rdock/2013.1/src/exe/rbdock.cxx#4 $)

>  <Rbt.Library>
libRbt.so (2013.1, Build901 2013/11/27)

>  <Rbt.Parameter_File>
/export/apps/rDock/src/rDock_2013.1_src/data/scripts/dock_solv.prm

>  <Rbt.Receptor>
prm/pocket_docking_5.prm

>  <SCORE>
-17.5463

>  <SCORE.INTER>
-11.9875

>  <SCORE.INTER.CONST>
1

>  <SCORE.INTER.POLAR>
0

>  <SCORE.INTER.ROT>
5

>  <SCORE.INTER.SOLV>
16.9359

>  <SCORE.INTER.VDW>
-20.5703

>  <SCORE.INTER.norm>
-0.544889

>  <SCORE.INTRA>
-5.55876

>  <SCORE.INTRA.DIHEDRAL>
-8.79487

>  <SCORE.INTRA.DIHEDRAL.0>
11.9251

>  <SCORE.INTRA.POLAR>
0

>  <SCORE.INTRA.POLAR.0>
0

>  <SCORE.INTRA.REPUL>
0

>  <SCORE.INTRA.REPUL.0>
0

>  <SCORE.INTRA.SOLV>
1.13467

>  <SCORE.INTRA.SOLV.lig_0>
-40.9823

>  <SCORE.INTRA.VDW>
-1.72866

>  <SCORE.INTRA.VDW.0>
-0.53506

>  <SCORE.INTRA.norm>
-0.252671

>  <SCORE.RESTR>
0

>  <SCORE.RESTR.CAVITY>
0

>  <SCORE.RESTR.norm>
0

>  <SCORE.SYSTEM>
0

>  <SCORE.SYSTEM.CONST>
0

>  <SCORE.SYSTEM.DIHEDRAL>
0

>  <SCORE.SYSTEM.SOLV>
0

>  <SCORE.SYSTEM.norm>
0

>  <SCORE.heavy>
22

>  <SCORE.norm>
-0.797559

>  <RMSD>
3.163

$$$$
lig.pdb
 OpenBabel11021811523D
libRbt.so/2013.1/901 2013/11/27
 22 23  0  0  0  0  0  0  0  0999 V2000
   56.8699  -16.8172    8.3902 O   0  0  0  0  0  0  0  0  0  0  0  0
   58.0352  -17.0550    8.6045 C   0  0  0  0  0  0  0  0  0  0  0  0
   58.5626  -18.2439    8.3720 N   0  0  0  0  0  0  0  0  0  0  0  0
   58.9049  -16.0206    9.1821 C   0  0  0  0  0  0  0  0  0  0  0  0
   58.4875  -14.6527    9.4985 C   0  0  0  0  0  0  0  0  0  0  0  0
   57.2565  -14.1387    9.2893 N   0  0  0  0  0  0  0  0  0  0  0  0
   60.1991  -16.0640    9.5364 N   0  0  0  0  0  0  0  0  0  0  0  0
   60.5472  -14.8514   10.0494 C   0  0  0  0  0  0  0  0  0  0  0  0
   59.5043  -13.9871   10.0345 N   0  0  0  0  0  0  0  0  0  0  0  0
   59.5321  -12.5797   10.5182 C   0  0  1  0  0  0  0  0  0  0  0  0
   60.3283  -12.5078   11.8032 C   0  0  1  0  0  0  0  0  0  0  0  0
   61.0902  -11.2136   11.6822 C   0  0  2  0  0  0  0  0  0  0  0  0
   60.3262  -10.1447   12.2547 O   0  0  0  0  0  0  0  0  0  0  0  0
   59.4627  -12.5263   12.9490 O   0  0  0  0  0  0  0  0  0  0  0  0
   60.2175  -11.7497    9.5839 O   0  0  0  0  0  0  0  0  0  0  0  0
   61.2167  -10.9734   10.2002 C   0  0  2  0  0  0  0  0  0  0  0  0
   62.5255  -11.3974    9.5664 C   0  0  0  0  0  0  0  0  0  0  0  0
   62.8409  -10.6058    8.4395 O   0  0  0  0  0  0  0  0  0  0  0  0
   62.9313   -9.0210    8.6207 P   0  0  0  0  0  0  0  0  0  0  0  0
   63.2619   -8.8115   10.0848 O   0  0  0  0  0  0  0  0  0  0  0  0
   61.5519   -8.5753    8.2090 O   0  0  0  0  0  0  0  0  0  0  0  0
   63.9841   -8.6171    7.6261 O   0  0  0  0  0  0  0  0  0  0  0  0
  2  1  2  0  0  0  0
  2  4  1  0  0  0  0
  3  2  1  0  0  0  0
  4  7  1  0  0  0  0
  4  5  2  0  0  0  0
  5  6  1  0  0  0  0
  5  9  1  0  0  0  0
  7  8  2  0  0  0  0
  8  9  1  0  0  0  0
 10  9  1  6  0  0  0
 10 15  1  0  0  0  0
 11 14  1  1  0  0  0
 11 12  1  0  0  0  0
 11 10  1  0  0  0  0
 12 13  1  1  0  0  0
 12 16  1  0  0  0  0
 16 17  1  6  0  0  0
 16 15  1  0  0  0  0
 18 19  1  0  0  0  0
 18 17  1  0  0  0  0
 19 21  1  0  0  0  0
 20 19  1  0  0  0  0
 22 19  2  0  0  0  0
M  END
>  <CHROM.1>
-2.14941916,139.60925347,-151.02483275,25.11115084,56.28794638,60.54569582
-12.42269166,9.68434581,-2.64145901,0.92178898,0.96272764

>  <Name>
lig.pdb

>  <RI>
0

>  <Rbt.Current_Directory>
/home/itssahil/PROJECTS/Mol_Feturizer/New_Systems/rnas/4znp

>  <Rbt.Executable>
rbdock ($Id: //depot/dev/client3/rdock/2013.1/src/exe/rbdock.cxx#4 $)

>  <Rbt.Library>
libRbt.so (2013.1, Build901 2013/11/27)

>  <Rbt.Parameter_File>
/export/apps/rDock/src/rDock_2013.1_src/data/scripts/dock_solv.prm

>  <Rbt.Receptor>
prm/pocket_docking_6.prm

>  <SCORE>
-17.602

>  <SCORE.INTER>
-14.6085

>  <SCORE.INTER.CONST>
1

>  <SCORE.INTER.POLAR>
0

>  <SCORE.INTER.ROT>
5

>  <SCORE.INTER.SOLV>
21.5547

>  <SCORE.INTER.VDW>
-23.8572

>  <SCORE.INTER.norm>
-0.664023

>  <SCORE.INTRA>
-2.9935

>  <SCORE.INTRA.DIHEDRAL>
-5.47874

>  <SCORE.INTRA.DIHEDRAL.0>
11.9251

>  <SCORE.INTRA.POLAR>
0

>  <SCORE.INTRA.POLAR.0>
0

>  <SCORE.INTRA.REPUL>
0

>  <SCORE.INTRA.REPUL.0>
0

>  <SCORE.INTRA.SOLV>
0.527446

>  <SCORE.INTRA.SOLV.lig_0>
-40.9823

>  <SCORE.INTRA.VDW>
-0.51786

>  <SCORE.INTRA.VDW.0>
-0.53506

>  <SCORE.INTRA.norm>
-0.136068

>  <SCORE.RESTR>
0

>  <SCORE.RESTR.CAVITY>
0

>  <SCORE.RESTR.norm>
0

>  <SCORE.SYSTEM>
0

>  <SCORE.SYSTEM.CONST>
0

>  <SCORE.SYSTEM.DIHEDRAL>
0

>  <SCORE.SYSTEM.SOLV>
0

>  <SCORE.SYSTEM.norm>
0

>  <SCORE.heavy>
22

>  <SCORE.norm>
-0.800091

>  <RMSD>
3.184

$$$$
lig.pdb
 OpenBabel11021811523D
libRbt.so/2013.1/901 2013/11/27
 22 23  0  0  0  0  0  0  0  0999 V2000
   57.0212  -14.7442    9.0995 O   0  0  0  0  0  0  0  0  0  0  0  0
   58.0132  -15.4316    9.0365 C   0  0  0  0  0  0  0  0  0  0  0  0
   57.9755  -16.6794    8.6035 N   0  0  0  0  0  0  0  0  0  0  0  0
   59.3071  -14.9024    9.4902 C   0  0  0  0  0  0  0  0  0  0  0  0
   59.4986  -13.6176   10.1667 C   0  0  0  0  0  0  0  0  0  0  0  0
   58.5243  -12.7277   10.4535 N   0  0  0  0  0  0  0  0  0  0  0  0
   60.5425  -15.4211    9.4048 N   0  0  0  0  0  0  0  0  0  0  0  0
   61.4149  -14.5578    9.9951 C   0  0  0  0  0  0  0  0  0  0  0  0
   60.7823  -13.4571   10.4677 N   0  0  0  0  0  0  0  0  0  0  0  0
   61.4292  -12.3136   11.1672 C   0  0  1  0  0  0  0  0  0  0  0  0
   62.7139  -11.9524   10.4536 C   0  0  1  0  0  0  0  0  0  0  0  0
   62.7472  -10.4471   10.5127 C   0  0  2  0  0  0  0  0  0  0  0  0
   63.4420  -10.0226   11.6922 O   0  0  0  0  0  0  0  0  0  0  0  0
   63.8493  -12.5490   11.0998 O   0  0  0  0  0  0  0  0  0  0  0  0
   60.5999  -11.1566   11.0939 O   0  0  0  0  0  0  0  0  0  0  0  0
   61.3041  -10.0302   10.6290 C   0  0  2  0  0  0  0  0  0  0  0  0
   60.6250   -9.6156    9.3401 C   0  0  0  0  0  0  0  0  0  0  0  0
   61.3791   -8.6473    8.6402 O   0  0  0  0  0  0  0  0  0  0  0  0
   60.7859   -8.0537    7.2807 P   0  0  0  0  0  0  0  0  0  0  0  0
   60.3304   -9.2636    6.4898 O   0  0  0  0  0  0  0  0  0  0  0  0
   61.9747   -7.3276    6.7060 O   0  0  0  0  0  0  0  0  0  0  0  0
   59.7128   -7.1119    7.7520 O   0  0  0  0  0  0  0  0  0  0  0  0
  2  1  2  0  0  0  0
  2  4  1  0  0  0  0
  3  2  1  0  0  0  0
  4  7  1  0  0  0  0
  4  5  2  0  0  0  0
  5  6  1  0  0  0  0
  5  9  1  0  0  0  0
  7  8  2  0  0  0  0
  8  9  1  0  0  0  0
 10  9  1  6  0  0  0
 10 15  1  0  0  0  0
 11 14  1  1  0  0  0
 11 12  1  0  0  0  0
 11 10  1  0  0  0  0
 12 13  1  1  0  0  0
 12 16  1  0  0  0  0
 16 17  1  6  0  0  0
 16 15  1  0  0  0  0
 18 19  1  0  0  0  0
 18 17  1  0  0  0  0
 19 21  1  0  0  0  0
 20 19  1  0  0  0  0
 22 19  2  0  0  0  0
M  END
>  <CHROM.1>
6.87954071,-136.51599179,-51.25041742,-47.52958184,-177.77218211,60.67387454
-11.49102884,9.37273008,1.93537264,0.63966877,2.68363983

>  <Name>
lig.pdb

>  <RI>
0

>  <Rbt.Current_Directory>
/home/itssahil/PROJECTS/Mol_Feturizer/New_Systems/rnas/4znp

>  <Rbt.Executable>
rbdock ($Id: //depot/dev/client3/rdock/2013.1/src/exe/rbdock.cxx#4 $)

>  <Rbt.Library>
libRbt.so (2013.1, Build901 2013/11/27)

>  <Rbt.Parameter_File>
/export/apps/rDock/src/rDock_2013.1_src/data/scripts/dock_solv.prm

>  <Rbt.Receptor>
prm/pocket_docking_8.prm

>  <SCORE>
-18.4494

>  <SCORE.INTER>
-13.4856

>  <SCORE.INTER.CONST>
1

>  <SCORE.INTER.POLAR>
0

>  <SCORE.INTER.ROT>
5

>  <SCORE.INTER.SOLV>
19.7905

>  <SCORE.INTER.VDW>
-22.5205

>  <SCORE.INTER.norm>
-0.61298

>  <SCORE.INTRA>
-4.96387

>  <SCORE.INTRA.DIHEDRAL>
-8.75401

>  <SCORE.INTRA.DIHEDRAL.0>
11.9251

>  <SCORE.INTRA.POLAR>
0

>  <SCORE.INTRA.POLAR.0>
0

>  <SCORE.INTRA.REPUL>
0

>  <SCORE.INTRA.REPUL.0>
0

>  <SCORE.INTRA.SOLV>
0.564603

>  <SCORE.INTRA.SOLV.lig_0>
-40.9823

>  <SCORE.INTRA.VDW>
-0.869163

>  <SCORE.INTRA.VDW.0>
-0.53506

>  <SCORE.INTRA.norm>
-0.22563

>  <SCORE.RESTR>
0

>  <SCORE.RESTR.CAVITY>
0

>  <SCORE.RESTR.norm>
0

>  <SCORE.SYSTEM>
0

>  <SCORE.SYSTEM.CONST>
0

>  <SCORE.SYSTEM.DIHEDRAL>
0

>  <SCORE.SYSTEM.SOLV>
0

>  <SCORE.SYSTEM.norm>
0

>  <SCORE.heavy>
22

>  <SCORE.norm>
-0.83861

>  <RMSD>
3.192

$$$$
lig.pdb
 OpenBabel11021811523D
libRbt.so/2013.1/901 2013/11/27
 22 23  0  0  0  0  0  0  0  0999 V2000
   58.6742  -18.6843    8.1431 O   0  0  0  0  0  0  0  0  0  0  0  0
   58.0668  -17.7006    8.4950 C   0  0  0  0  0  0  0  0  0  0  0  0
   56.7675  -17.5694    8.2942 N   0  0  0  0  0  0  0  0  0  0  0  0
   58.7787  -16.5820    9.1293 C   0  0  0  0  0  0  0  0  0  0  0  0
   58.2175  -15.2476    9.3524 C   0  0  0  0  0  0  0  0  0  0  0  0
   56.9794  -14.8458    8.9930 N   0  0  0  0  0  0  0  0  0  0  0  0
   60.0245  -16.5061    9.6239 N   0  0  0  0  0  0  0  0  0  0  0  0
   60.2122  -15.2562   10.1311 C   0  0  0  0  0  0  0  0  0  0  0  0
   59.1099  -14.4848    9.9736 N   0  0  0  0  0  0  0  0  0  0  0  0
   58.9678  -13.0690   10.4102 C   0  0  1  0  0  0  0  0  0  0  0  0
   59.9088  -12.8047   11.5656 C   0  0  1  0  0  0  0  0  0  0  0  0
   60.4197  -11.4119   11.3020 C   0  0  2  0  0  0  0  0  0  0  0  0
   59.5731  -10.4534   11.9490 O   0  0  0  0  0  0  0  0  0  0  0  0
   59.2234  -12.9054   12.8237 O   0  0  0  0  0  0  0  0  0  0  0  0
   59.3705  -12.1870    9.3654 O   0  0  0  0  0  0  0  0  0  0  0  0
   60.3004  -11.2293    9.8112 C   0  0  2  0  0  0  0  0  0  0  0  0
   61.5626  -11.4672    9.0083 C   0  0  0  0  0  0  0  0  0  0  0  0
   62.7151  -11.0498    9.7108 O   0  0  0  0  0  0  0  0  0  0  0  0
   63.2480  -11.9583   10.9122 P   0  0  0  0  0  0  0  0  0  0  0  0
   62.8443  -11.2192   12.1722 O   0  0  0  0  0  0  0  0  0  0  0  0
   64.7305  -11.9999   10.6454 O   0  0  0  0  0  0  0  0  0  0  0  0
   62.5844  -13.2847   10.6654 O   0  0  0  0  0  0  0  0  0  0  0  0
  2  1  2  0  0  0  0
  2  4  1  0  0  0  0
  3  2  1  0  0  0  0
  4  7  1  0  0  0  0
  4  5  2  0  0  0  0
  5  6  1  0  0  0  0
  5  9  1  0  0  0  0
  7  8  2  0  0  0  0
  8  9  1  0  0  0  0
 10  9  1  6  0  0  0
 10 15  1  0  0  0  0
 11 14  1  1  0  0  0
 11 12  1  0  0  0  0
 11 10  1  0  0  0  0
 12 13  1  1  0  0  0
 12 16  1  0  0  0  0
 16 17  1  6  0  0  0
 16 15  1  0  0  0  0
 18 19  1  0  0  0  0
 18 17  1  0  0  0  0
 19 21  1  0  0  0  0
 20 19  1  0  0  0  0
 22 19  2  0  0  0  0
M  END
>  <CHROM.1>
167.11282432,154.77779480,-35.04374235,-104.77900244,75.22639205,60.35277507
-13.54826220,10.19360257,-2.21033872,0.05819928,0.41929139

>  <Name>
lig.pdb

>  <RI>
0

>  <Rbt.Current_Directory>
/home/itssahil/PROJECTS/Mol_Feturizer/New_Systems/rnas/4znp

>  <Rbt.Executable>
rbdock ($Id: //depot/dev/client3/rdock/2013.1/src/exe/rbdock.cxx#4 $)

>  <Rbt.Library>
libRbt.so (2013.1, Build901 2013/11/27)

>  <Rbt.Parameter_File>
/export/apps/rDock/src/rDock_2013.1_src/data/scripts/dock_solv.prm

>  <Rbt.Receptor>
prm/pocket_docking_3.prm

>  <SCORE>
-13.1257

>  <SCORE.INTER>
-15.7041

>  <SCORE.INTER.CONST>
1

>  <SCORE.INTER.POLAR>
0

>  <SCORE.INTER.ROT>
5

>  <SCORE.INTER.SOLV>
23.5593

>  <SCORE.INTER.VDW>
-25.2559

>  <SCORE.INTER.norm>
-0.713825

>  <SCORE.INTRA>
1.74592

>  <SCORE.INTRA.DIHEDRAL>
-3.97855

>  <SCORE.INTRA.DIHEDRAL.0>
11.9251

>  <SCORE.INTRA.POLAR>
0

>  <SCORE.INTRA.POLAR.0>
0

>  <SCORE.INTRA.REPUL>
0

>  <SCORE.INTRA.REPUL.0>
0

>  <SCORE.INTRA.SOLV>
3.95393

>  <SCORE.INTRA.SOLV.lig_0>
-40.9823

>  <SCORE.INTRA.VDW>
1.75823

>  <SCORE.INTRA.VDW.0>
-0.53506

>  <SCORE.INTRA.norm>
0.0793598

>  <SCORE.RESTR>
0.832509

>  <SCORE.RESTR.CAVITY>
0.832509

>  <SCORE.RESTR.norm>
0.0378413

>  <SCORE.SYSTEM>
0

>  <SCORE.SYSTEM.CONST>
0

>  <SCORE.SYSTEM.DIHEDRAL>
0

>  <SCORE.SYSTEM.SOLV>
0

>  <SCORE.SYSTEM.norm>
0

>  <SCORE.heavy>
22

>  <SCORE.norm>
-0.596624

>  <RMSD>
3.328

$$$$
lig.pdb
 OpenBabel11021811523D
libRbt.so/2013.1/901 2013/11/27
 22 23  0  0  0  0  0  0  0  0999 V2000
   57.6652  -18.0227    8.4018 O   0  0  0  0  0  0  0  0  0  0  0  0
   57.5071  -16.8357    8.5641 C   0  0  0  0  0  0  0  0  0  0  0  0
   56.4125  -16.2128    8.1646 N   0  0  0  0  0  0  0  0  0  0  0  0
   58.5678  -16.0283    9.1833 C   0  0  0  0  0  0  0  0  0  0  0  0
   58.5323  -14.5724    9.3398 C   0  0  0  0  0  0  0  0  0  0  0  0
   57.5360  -13.7616    8.9236 N   0  0  0  0  0  0  0  0  0  0  0  0
   59.7442  -16.3921    9.7181 N   0  0  0  0  0  0  0  0  0  0  0  0
   60.3684  -15.2764   10.1875 C   0  0  0  0  0  0  0  0  0  0  0  0
   59.6303  -14.1626    9.9647 N   0  0  0  0  0  0  0  0  0  0  0  0
   60.0102  -12.7749   10.3463 C   0  0  1  0  0  0  0  0  0  0  0  0
   58.7687  -11.9109   10.3927 C   0  0  1  0  0  0  0  0  0  0  0  0
   58.9983  -11.0151   11.5823 C   0  0  2  0  0  0  0  0  0  0  0  0
   59.6554   -9.8119   11.1646 O   0  0  0  0  0  0  0  0  0  0  0  0
   58.6097  -11.1688    9.1735 O   0  0  0  0  0  0  0  0  0  0  0  0
   60.5522  -12.7559   11.6644 O   0  0  0  0  0  0  0  0  0  0  0  0
   59.9331  -11.7875   12.4765 C   0  0  2  0  0  0  0  0  0  0  0  0
   59.2872  -12.5485   13.6158 C   0  0  0  0  0  0  0  0  0  0  0  0
   59.1351  -11.7400   14.7644 O   0  0  0  0  0  0  0  0  0  0  0  0
   57.9397  -10.6806   14.7996 P   0  0  0  0  0  0  0  0  0  0  0  0
   56.7423  -11.4211   14.2387 O   0  0  0  0  0  0  0  0  0  0  0  0
   58.4707   -9.5736   13.9259 O   0  0  0  0  0  0  0  0  0  0  0  0
   57.8702  -10.2833   16.2481 O   0  0  0  0  0  0  0  0  0  0  0  0
  2  1  2  0  0  0  0
  2  4  1  0  0  0  0
  3  2  1  0  0  0  0
  4  7  1  0  0  0  0
  4  5  2  0  0  0  0
  5  6  1  0  0  0  0
  5  9  1  0  0  0  0
  7  8  2  0  0  0  0
  8  9  1  0  0  0  0
 10  9  1  1  0  0  0
 10 15  1  0  0  0  0
 11 14  1  6  0  0  0
 11 12  1  0  0  0  0
 11 10  1  0  0  0  0
 12 13  1  6  0  0  0
 12 16  1  0  0  0  0
 16 17  1  1  0  0  0
 16 15  1  0  0  0  0
 18 19  1  0  0  0  0
 18 17  1  0  0  0  0
 19 21  1  0  0  0  0
 20 19  1  0  0  0  0
 22 19  2  0  0  0  0
M  END
>  <CHROM.1>
175.18788132,20.85099197,-87.24060189,43.11836676,77.66953589,58.67362114
-12.89689557,11.50647489,1.60574861,-1.07913292,-2.31821064

>  <Name>
lig.pdb

>  <RI>
0

>  <Rbt.Current_Directory>
/home/itssahil/PROJECTS/Mol_Feturizer/New_Systems/rnas/4znp

>  <Rbt.Executable>
rbdock ($Id: //depot/dev/client3/rdock/2013.1/src/exe/rbdock.cxx#4 $)

>  <Rbt.Library>
libRbt.so (2013.1, Build901 2013/11/27)

>  <Rbt.Parameter_File>
/export/apps/rDock/src/rDock_2013.1_src/data/scripts/dock_solv.prm

>  <Rbt.Receptor>
prm/pocket_docking_7.prm

>  <SCORE>
-14.6125

>  <SCORE.INTER>
-12.5339

>  <SCORE.INTER.CONST>
1

>  <SCORE.INTER.POLAR>
0

>  <SCORE.INTER.ROT>
5

>  <SCORE.INTER.SOLV>
19.5194

>  <SCORE.INTER.VDW>
-21.7957

>  <SCORE.INTER.norm>
-0.569721

>  <SCORE.INTRA>
-2.07869

>  <SCORE.INTRA.DIHEDRAL>
-5.32873

>  <SCORE.INTRA.DIHEDRAL.0>
11.9251

>  <SCORE.INTRA.POLAR>
0

>  <SCORE.INTRA.POLAR.0>
0

>  <SCORE.INTRA.REPUL>
0

>  <SCORE.INTRA.REPUL.0>
0

>  <SCORE.INTRA.SOLV>
2.03117

>  <SCORE.INTRA.SOLV.lig_0>
-40.9823

>  <SCORE.INTRA.VDW>
-0.429903

>  <SCORE.INTRA.VDW.0>
-0.53506

>  <SCORE.INTRA.norm>
-0.0944857

>  <SCORE.RESTR>
0

>  <SCORE.RESTR.CAVITY>
0

>  <SCORE.RESTR.norm>
0

>  <SCORE.SYSTEM>
0

>  <SCORE.SYSTEM.CONST>
0

>  <SCORE.SYSTEM.DIHEDRAL>
0

>  <SCORE.SYSTEM.SOLV>
0

>  <SCORE.SYSTEM.norm>
0

>  <SCORE.heavy>
22

>  <SCORE.norm>
-0.664207

>  <RMSD>
3.364

$$$$
lig.pdb
 OpenBabel11021811523D
libRbt.so/2013.1/901 2013/11/27
 22 23  0  0  0  0  0  0  0  0999 V2000
   58.4080  -16.5890    8.8520 O   0  0  0  0  0  0  0  0  0  0  0  0
   58.4336  -15.4369    9.2162 C   0  0  0  0  0  0  0  0  0  0  0  0
   57.3475  -14.6850    9.2412 N   0  0  0  0  0  0  0  0  0  0  0  0
   59.7066  -14.8153    9.6076 C   0  0  0  0  0  0  0  0  0  0  0  0
   59.8370  -13.5265   10.2911 C   0  0  0  0  0  0  0  0  0  0  0  0
   58.8153  -12.7164   10.6421 N   0  0  0  0  0  0  0  0  0  0  0  0
   60.9712  -15.2374    9.4490 N   0  0  0  0  0  0  0  0  0  0  0  0
   61.8066  -14.3162   10.0041 C   0  0  0  0  0  0  0  0  0  0  0  0
   61.1194  -13.2718   10.5254 N   0  0  0  0  0  0  0  0  0  0  0  0
   61.7151  -12.0894   11.2055 C   0  0  1  0  0  0  0  0  0  0  0  0
   63.0130  -11.7194   10.5208 C   0  0  1  0  0  0  0  0  0  0  0  0
   63.0074  -10.2127   10.5295 C   0  0  2  0  0  0  0  0  0  0  0  0
   63.6531   -9.7314   11.7151 O   0  0  0  0  0  0  0  0  0  0  0  0
   64.1411  -12.2650   11.2224 O   0  0  0  0  0  0  0  0  0  0  0  0
   60.8605  -10.9571   11.0667 O   0  0  0  0  0  0  0  0  0  0  0  0
   61.5515   -9.8291   10.5860 C   0  0  2  0  0  0  0  0  0  0  0  0
   60.9045   -9.4752    9.2629 C   0  0  0  0  0  0  0  0  0  0  0  0
   61.5848   -8.4204    8.6143 O   0  0  0  0  0  0  0  0  0  0  0  0
   60.9922   -7.8603    7.2404 P   0  0  0  0  0  0  0  0  0  0  0  0
   60.4263   -9.0751    6.5327 O   0  0  0  0  0  0  0  0  0  0  0  0
   62.2107   -7.2555    6.5922 O   0  0  0  0  0  0  0  0  0  0  0  0
   60.0047   -6.8181    7.6873 O   0  0  0  0  0  0  0  0  0  0  0  0
  2  1  2  0  0  0  0
  2  4  1  0  0  0  0
  3  2  1  0  0  0  0
  4  7  1  0  0  0  0
  4  5  2  0  0  0  0
  5  6  1  0  0  0  0
  5  9  1  0  0  0  0
  7  8  2  0  0  0  0
  8  9  1  0  0  0  0
 10  9  1  6  0  0  0
 10 15  1  0  0  0  0
 11 14  1  1  0  0  0
 11 12  1  0  0  0  0
 11 10  1  0  0  0  0
 12 13  1  1  0  0  0
 12 16  1  0  0  0  0
 16 17  1  6  0  0  0
 16 15  1  0  0  0  0
 18 19  1  0  0  0  0
 18 17  1  0  0  0  0
 19 21  1  0  0  0  0
 20 19  1  0  0  0  0
 22 19  2  0  0  0  0
M  END
>  <CHROM.1>
-168.17898695,-142.80994721,-56.96718424,-35.85401583,-176.67158216,60.96836868
-11.32914722,9.40978512,1.89817236,0.65607526,2.68182401

>  <Name>
lig.pdb

>  <RI>
0

>  <Rbt.Current_Directory>
/home/itssahil/PROJECTS/Mol_Feturizer/New_Systems/rnas/4znp

>  <Rbt.Executable>
rbdock ($Id: //depot/dev/client3/rdock/2013.1/src/exe/rbdock.cxx#4 $)

>  <Rbt.Library>
libRbt.so (2013.1, Build901 2013/11/27)

>  <Rbt.Parameter_File>
/export/apps/rDock/src/rDock_2013.1_src/data/scripts/dock_solv.prm

>  <Rbt.Receptor>
prm/pocket_docking_8.prm

>  <SCORE>
-17.7806

>  <SCORE.INTER>
-13.5172

>  <SCORE.INTER.CONST>
1

>  <SCORE.INTER.POLAR>
0

>  <SCORE.INTER.ROT>
5

>  <SCORE.INTER.SOLV>
18.563

>  <SCORE.INTER.VDW>
-22.1325

>  <SCORE.INTER.norm>
-0.614418

>  <SCORE.INTRA>
-4.2634

>  <SCORE.INTRA.DIHEDRAL>
-8.01096

>  <SCORE.INTRA.DIHEDRAL.0>
11.9251

>  <SCORE.INTRA.POLAR>
0

>  <SCORE.INTRA.POLAR.0>
0

>  <SCORE.INTRA.REPUL>
0

>  <SCORE.INTRA.REPUL.0>
0

>  <SCORE.INTRA.SOLV>
0.625238

>  <SCORE.INTRA.SOLV.lig_0>
-40.9823

>  <SCORE.INTRA.VDW>
-0.570541

>  <SCORE.INTRA.VDW.0>
-0.53506

>  <SCORE.INTRA.norm>
-0.193791

>  <SCORE.RESTR>
0

>  <SCORE.RESTR.CAVITY>
0

>  <SCORE.RESTR.norm>
0

>  <SCORE.SYSTEM>
0

>  <SCORE.SYSTEM.CONST>
0

>  <SCORE.SYSTEM.DIHEDRAL>
0

>  <SCORE.SYSTEM.SOLV>
0

>  <SCORE.SYSTEM.norm>
0

>  <SCORE.heavy>
22

>  <SCORE.norm>
-0.808209

>  <RMSD>
3.376

$$$$
lig.pdb
 OpenBabel11021811523D
libRbt.so/2013.1/901 2013/11/27
 22 23  0  0  0  0  0  0  0  0999 V2000
   59.0795  -18.0104    9.4304 O   0  0  0  0  0  0  0  0  0  0  0  0
   59.0702  -16.8033    9.3719 C   0  0  0  0  0  0  0  0  0  0  0  0
   57.9461  -16.1136    9.2924 N   0  0  0  0  0  0  0  0  0  0  0  0
   60.3359  -16.0567    9.3429 C   0  0  0  0  0  0  0  0  0  0  0  0
   60.4779  -14.6318    9.6511 C   0  0  0  0  0  0  0  0  0  0  0  0
   59.4713  -13.7962    9.9856 N   0  0  0  0  0  0  0  0  0  0  0  0
   61.5823  -16.4595    9.0487 N   0  0  0  0  0  0  0  0  0  0  0  0
   62.4233  -15.3973    9.1872 C   0  0  0  0  0  0  0  0  0  0  0  0
   61.7554  -14.2796    9.5608 N   0  0  0  0  0  0  0  0  0  0  0  0
   62.3618  -12.9417    9.8010 C   0  0  1  0  0  0  0  0  0  0  0  0
   61.6251  -11.9039    8.9821 C   0  0  1  0  0  0  0  0  0  0  0  0
   61.5622  -10.7053    9.8931 C   0  0  2  0  0  0  0  0  0  0  0  0
   62.7054   -9.8689    9.6749 O   0  0  0  0  0  0  0  0  0  0  0  0
   62.3207  -11.6227    7.7576 O   0  0  0  0  0  0  0  0  0  0  0  0
   62.1927  -12.5600   11.1638 O   0  0  0  0  0  0  0  0  0  0  0  0
   61.6401  -11.2715   11.2871 C   0  0  2  0  0  0  0  0  0  0  0  0
   60.3198  -11.4502   12.0078 C   0  0  0  0  0  0  0  0  0  0  0  0
   60.4943  -11.5212   13.4080 O   0  0  0  0  0  0  0  0  0  0  0  0
   59.2064  -11.7395   14.3279 P   0  0  0  0  0  0  0  0  0  0  0  0
   58.1399  -10.8447   13.7289 O   0  0  0  0  0  0  0  0  0  0  0  0
   59.7084  -11.3130   15.6832 O   0  0  0  0  0  0  0  0  0  0  0  0
   58.9683  -13.2219   14.2461 O   0  0  0  0  0  0  0  0  0  0  0  0
  2  1  2  0  0  0  0
  2  4  1  0  0  0  0
  3  2  1  0  0  0  0
  4  7  1  0  0  0  0
  4  5  2  0  0  0  0
  5  6  1  0  0  0  0
  5  9  1  0  0  0  0
  7  8  2  0  0  0  0
  8  9  1  0  0  0  0
 10  9  1  1  0  0  0
 10 15  1  0  0  0  0
 11 14  1  6  0  0  0
 11 12  1  0  0  0  0
 11 10  1  0  0  0  0
 12 13  1  6  0  0  0
 12 16  1  0  0  0  0
 16 17  1  6  0  0  0
 16 15  1  0  0  0  0
 18 19  1  0  0  0  0
 18 17  1  0  0  0  0
 19 21  1  0  0  0  0
 20 19  1  0  0  0  0
 22 19  2  0  0  0  0
M  END
>  <CHROM.1>
-161.74057136,-52.17145297,-159.11888831,-41.84241125,-178.77136945,60.52090662
-13.13801544,11.04018740,1.37219836,-0.87419844,-2.46199506

>  <Name>
lig.pdb

>  <RI>
0

>  <Rbt.Current_Directory>
/home/itssahil/PROJECTS/Mol_Feturizer/New_Systems/rnas/4znp

>  <Rbt.Executable>
rbdock ($Id: //depot/dev/client3/rdock/2013.1/src/exe/rbdock.cxx#4 $)

>  <Rbt.Library>
libRbt.so (2013.1, Build901 2013/11/27)

>  <Rbt.Parameter_File>
/export/apps/rDock/src/rDock_2013.1_src/data/scripts/dock_solv.prm

>  <Rbt.Receptor>
prm/pocket_docking_7.prm

>  <SCORE>
-19.4051

>  <SCORE.INTER>
-15.1127

>  <SCORE.INTER.CONST>
1

>  <SCORE.INTER.POLAR>
0

>  <SCORE.INTER.ROT>
5

>  <SCORE.INTER.SOLV>
22.608

>  <SCORE.INTER.VDW>
-24.5444

>  <SCORE.INTER.norm>
-0.686939

>  <SCORE.INTRA>
-4.29245

>  <SCORE.INTRA.DIHEDRAL>
-6.32197

>  <SCORE.INTRA.DIHEDRAL.0>
11.9251

>  <SCORE.INTRA.POLAR>
0

>  <SCORE.INTRA.POLAR.0>
0

>  <SCORE.INTRA.REPUL>
0

>  <SCORE.INTRA.REPUL.0>
0

>  <SCORE.INTRA.SOLV>
1.18098

>  <SCORE.INTRA.SOLV.lig_0>
-40.9823

>  <SCORE.INTRA.VDW>
-1.72195

>  <SCORE.INTRA.VDW.0>
-0.53506

>  <SCORE.INTRA.norm>
-0.195111

>  <SCORE.RESTR>
0

>  <SCORE.RESTR.CAVITY>
0

>  <SCORE.RESTR.norm>
0

>  <SCORE.SYSTEM>
0

>  <SCORE.SYSTEM.CONST>
0

>  <SCORE.SYSTEM.DIHEDRAL>
0

>  <SCORE.SYSTEM.SOLV>
0

>  <SCORE.SYSTEM.norm>
0

>  <SCORE.heavy>
22

>  <SCORE.norm>
-0.88205

>  <RMSD>
3.410

$$$$
lig.pdb
 OpenBabel11021811523D
libRbt.so/2013.1/901 2013/11/27
 22 23  0  0  0  0  0  0  0  0999 V2000
   59.0190  -17.4798    9.6374 O   0  0  0  0  0  0  0  0  0  0  0  0
   60.0517  -16.8873    9.4309 C   0  0  0  0  0  0  0  0  0  0  0  0
   61.0746  -17.4540    8.8158 N   0  0  0  0  0  0  0  0  0  0  0  0
   60.2176  -15.5065    9.9065 C   0  0  0  0  0  0  0  0  0  0  0  0
   61.3913  -14.6669    9.6558 C   0  0  0  0  0  0  0  0  0  0  0  0
   62.4941  -15.0420    8.9728 N   0  0  0  0  0  0  0  0  0  0  0  0
   59.4008  -14.7281   10.6340 N   0  0  0  0  0  0  0  0  0  0  0  0
   59.9942  -13.5132   10.7971 C   0  0  0  0  0  0  0  0  0  0  0  0
   61.2077  -13.4678   10.1968 N   0  0  0  0  0  0  0  0  0  0  0  0
   62.1270  -12.2974   10.1778 C   0  0  1  0  0  0  0  0  0  0  0  0
   61.5167  -11.1950    9.3398 C   0  0  1  0  0  0  0  0  0  0  0  0
   61.8703   -9.9363   10.0887 C   0  0  2  0  0  0  0  0  0  0  0  0
   63.1199   -9.4219    9.6114 O   0  0  0  0  0  0  0  0  0  0  0  0
   62.0495  -11.2044    8.0062 O   0  0  0  0  0  0  0  0  0  0  0  0
   62.2701  -11.7604   11.4904 O   0  0  0  0  0  0  0  0  0  0  0  0
   62.0453  -10.3714   11.5205 C   0  0  2  0  0  0  0  0  0  0  0  0
   60.8531  -10.1607   12.4308 C   0  0  0  0  0  0  0  0  0  0  0  0
   61.1430  -10.5257   13.7644 O   0  0  0  0  0  0  0  0  0  0  0  0
   59.9439  -10.5817   14.8187 P   0  0  0  0  0  0  0  0  0  0  0  0
   60.6122  -10.7928   16.1625 O   0  0  0  0  0  0  0  0  0  0  0  0
   59.1356  -11.7510   14.3185 O   0  0  0  0  0  0  0  0  0  0  0  0
   59.2395   -9.2692   14.6136 O   0  0  0  0  0  0  0  0  0  0  0  0
  2  1  2  0  0  0  0
  2  4  1  0  0  0  0
  3  2  1  0  0  0  0
  4  7  1  0  0  0  0
  4  5  2  0  0  0  0
  5  6  1  0  0  0  0
  5  9  1  0  0  0  0
  7  8  2  0  0  0  0
  8  9  1  0  0  0  0
 10  9  1  1  0  0  0
 10 15  1  0  0  0  0
 11 14  1  6  0  0  0
 11 12  1  0  0  0  0
 11 10  1  0  0  0  0
 12 13  1  6  0  0  0
 12 16  1  0  0  0  0
 16 17  1  1  0  0  0
 16 15  1  0  0  0  0
 18 19  1  0  0  0  0
 18 17  1  0  0  0  0
 19 21  1  0  0  0  0
 20 19  1  0  0  0  0
 22 19  2  0  0  0  0
M  END
>  <CHROM.1>
-176.63058333,112.46005969,-176.51448404,-171.77528548,-170.83168607,60.88577329
-12.43979135,11.38915127,1.50778412,-1.00392664,-2.47624416

>  <Name>
lig.pdb

>  <RI>
0

>  <Rbt.Current_Directory>
/home/itssahil/PROJECTS/Mol_Feturizer/New_Systems/rnas/4znp

>  <Rbt.Executable>
rbdock ($Id: //depot/dev/client3/rdock/2013.1/src/exe/rbdock.cxx#4 $)

>  <Rbt.Library>
libRbt.so (2013.1, Build901 2013/11/27)

>  <Rbt.Parameter_File>
/export/apps/rDock/src/rDock_2013.1_src/data/scripts/dock_solv.prm

>  <Rbt.Receptor>
prm/pocket_docking_7.prm

>  <SCORE>
-17.3766

>  <SCORE.INTER>
-11.7199

>  <SCORE.INTER.CONST>
1

>  <SCORE.INTER.POLAR>
0

>  <SCORE.INTER.ROT>
5

>  <SCORE.INTER.SOLV>
17.9622

>  <SCORE.INTER.VDW>
-20.734

>  <SCORE.INTER.norm>
-0.532722

>  <SCORE.INTRA>
-5.65673

>  <SCORE.INTRA.DIHEDRAL>
-8.87658

>  <SCORE.INTRA.DIHEDRAL.0>
11.9251

>  <SCORE.INTRA.POLAR>
0

>  <SCORE.INTRA.POLAR.0>
0

>  <SCORE.INTRA.REPUL>
0

>  <SCORE.INTRA.REPUL.0>
0

>  <SCORE.INTRA.SOLV>
0.176431

>  <SCORE.INTRA.SOLV.lig_0>
-40.9823

>  <SCORE.INTRA.VDW>
-1.30666

>  <SCORE.INTRA.VDW.0>
-0.53506

>  <SCORE.INTRA.norm>
-0.257124

>  <SCORE.RESTR>
0

>  <SCORE.RESTR.CAVITY>
0

>  <SCORE.RESTR.norm>
0

>  <SCORE.SYSTEM>
0

>  <SCORE.SYSTEM.CONST>
0

>  <SCORE.SYSTEM.DIHEDRAL>
0

>  <SCORE.SYSTEM.SOLV>
0

>  <SCORE.SYSTEM.norm>
0

>  <SCORE.heavy>
22

>  <SCORE.norm>
-0.789846

>  <RMSD>
3.463

$$$$
lig.pdb
 OpenBabel11021811523D
libRbt.so/2013.1/901 2013/11/27
 22 23  0  0  0  0  0  0  0  0999 V2000
   58.0648  -16.1179    9.4371 O   0  0  0  0  0  0  0  0  0  0  0  0
   59.1152  -16.7132    9.3832 C   0  0  0  0  0  0  0  0  0  0  0  0
   59.1742  -18.0331    9.3867 N   0  0  0  0  0  0  0  0  0  0  0  0
   60.3832  -15.9706    9.3561 C   0  0  0  0  0  0  0  0  0  0  0  0
   60.5356  -14.5556    9.7025 C   0  0  0  0  0  0  0  0  0  0  0  0
   59.5376  -13.7262   10.0758 N   0  0  0  0  0  0  0  0  0  0  0  0
   61.6235  -16.3693    9.0317 N   0  0  0  0  0  0  0  0  0  0  0  0
   62.4707  -15.3145    9.1876 C   0  0  0  0  0  0  0  0  0  0  0  0
   61.8130  -14.2054    9.6028 N   0  0  0  0  0  0  0  0  0  0  0  0
   62.4284  -12.8771    9.8716 C   0  0  1  0  0  0  0  0  0  0  0  0
   61.7135  -11.8204    9.0576 C   0  0  1  0  0  0  0  0  0  0  0  0
   61.6485  -10.6348    9.9852 C   0  0  2  0  0  0  0  0  0  0  0  0
   62.8026   -9.8063    9.7961 O   0  0  0  0  0  0  0  0  0  0  0  0
   62.4297  -11.5279    7.8476 O   0  0  0  0  0  0  0  0  0  0  0  0
   62.2428  -12.5139   11.2373 O   0  0  0  0  0  0  0  0  0  0  0  0
   61.7006  -11.2221   11.3717 C   0  0  2  0  0  0  0  0  0  0  0  0
   60.3683  -11.3987   12.0703 C   0  0  0  0  0  0  0  0  0  0  0  0
   60.5050  -11.3518   13.4757 O   0  0  0  0  0  0  0  0  0  0  0  0
   59.2120  -11.6102   14.3778 P   0  0  0  0  0  0  0  0  0  0  0  0
   58.9540  -13.1002   14.2766 O   0  0  0  0  0  0  0  0  0  0  0  0
   58.1799  -10.7383   13.7104 O   0  0  0  0  0  0  0  0  0  0  0  0
   59.6189  -11.0854   15.7268 O   0  0  0  0  0  0  0  0  0  0  0  0
  2  1  2  0  0  0  0
  2  4  1  0  0  0  0
  3  2  1  0  0  0  0
  4  7  1  0  0  0  0
  4  5  2  0  0  0  0
  5  6  1  0  0  0  0
  5  9  1  0  0  0  0
  7  8  2  0  0  0  0
  8  9  1  0  0  0  0
 10  9  1  1  0  0  0
 10 15  1  0  0  0  0
 11 14  1  6  0  0  0
 11 12  1  0  0  0  0
 11 10  1  0  0  0  0
 12 13  1  6  0  0  0
 12 16  1  0  0  0  0
 16 17  1  6  0  0  0
 16 15  1  0  0  0  0
 18 19  1  0  0  0  0
 18 17  1  0  0  0  0
 19 21  1  0  0  0  0
 20 19  1  0  0  0  0
 22 19  2  0  0  0  0
M  END
>  <CHROM.1>
15.21326294,-54.07643483,-152.95699372,73.61495844,-176.30685581,60.56249651
-13.04030507,11.09202127,1.36393651,-0.84842740,-2.46759286

>  <Name>
lig.pdb

>  <RI>
0

>  <Rbt.Current_Directory>
/home/itssahil/PROJECTS/Mol_Feturizer/New_Systems/rnas/4znp

>  <Rbt.Executable>
rbdock ($Id: //depot/dev/client3/rdock/2013.1/src/exe/rbdock.cxx#4 $)

>  <Rbt.Library>
libRbt.so (2013.1, Build901 2013/11/27)

>  <Rbt.Parameter_File>
/export/apps/rDock/src/rDock_2013.1_src/data/scripts/dock_solv.prm

>  <Rbt.Receptor>
prm/pocket_docking_8.prm

>  <SCORE>
-19.711

>  <SCORE.INTER>
-15.4549

>  <SCORE.INTER.CONST>
1

>  <SCORE.INTER.POLAR>
0

>  <SCORE.INTER.ROT>
5

>  <SCORE.INTER.SOLV>
20.8434

>  <SCORE.INTER.VDW>
-24.1844

>  <SCORE.INTER.norm>
-0.702493

>  <SCORE.INTRA>
-4.25611

>  <SCORE.INTRA.DIHEDRAL>
-6.02641

>  <SCORE.INTRA.DIHEDRAL.0>
11.9251

>  <SCORE.INTRA.POLAR>
0

>  <SCORE.INTRA.POLAR.0>
0

>  <SCORE.INTRA.REPUL>
0

>  <SCORE.INTRA.REPUL.0>
0

>  <SCORE.INTRA.SOLV>
0.771366

>  <SCORE.INTRA.SOLV.lig_0>
-40.9823

>  <SCORE.INTRA.VDW>
-1.62859

>  <SCORE.INTRA.VDW.0>
-0.53506

>  <SCORE.INTRA.norm>
-0.19346

>  <SCORE.RESTR>
0

>  <SCORE.RESTR.CAVITY>
0

>  <SCORE.RESTR.norm>
0

>  <SCORE.SYSTEM>
0

>  <SCORE.SYSTEM.CONST>
0

>  <SCORE.SYSTEM.DIHEDRAL>
0

>  <SCORE.SYSTEM.SOLV>
0

>  <SCORE.SYSTEM.norm>
0

>  <SCORE.heavy>
22

>  <SCORE.norm>
-0.895953

>  <RMSD>
3.515

$$$$
lig.pdb
 OpenBabel11021811523D
libRbt.so/2013.1/901 2013/11/27
 22 23  0  0  0  0  0  0  0  0999 V2000
   61.1602  -17.4561    8.5709 O   0  0  0  0  0  0  0  0  0  0  0  0
   60.4895  -16.8918    9.4029 C   0  0  0  0  0  0  0  0  0  0  0  0
   59.4915  -17.4937   10.0253 N   0  0  0  0  0  0  0  0  0  0  0  0
   60.7426  -15.4792    9.7200 C   0  0  0  0  0  0  0  0  0  0  0  0
   61.8016  -14.6611    9.1243 C   0  0  0  0  0  0  0  0  0  0  0  0
   62.7069  -15.0868    8.2174 N   0  0  0  0  0  0  0  0  0  0  0  0
   60.1178  -14.6480   10.5692 N   0  0  0  0  0  0  0  0  0  0  0  0
   60.7105  -13.4244   10.4901 C   0  0  0  0  0  0  0  0  0  0  0  0
   61.7358  -13.4246    9.6048 N   0  0  0  0  0  0  0  0  0  0  0  0
   62.5997  -12.2592    9.2720 C   0  0  1  0  0  0  0  0  0  0  0  0
   61.7273  -11.0746    8.9172 C   0  0  1  0  0  0  0  0  0  0  0  0
   62.4466   -9.9016    9.5312 C   0  0  2  0  0  0  0  0  0  0  0  0
   63.3608   -9.3406    8.5806 O   0  0  0  0  0  0  0  0  0  0  0  0
   61.5868  -10.9443    7.4939 O   0  0  0  0  0  0  0  0  0  0  0  0
   63.3559  -11.8629   10.4135 O   0  0  0  0  0  0  0  0  0  0  0  0
   63.2383  -10.4846   10.6728 C   0  0  2  0  0  0  0  0  0  0  0  0
   62.6094  -10.3700   12.0460 C   0  0  0  0  0  0  0  0  0  0  0  0
   62.4552   -9.0218   12.4392 O   0  0  0  0  0  0  0  0  0  0  0  0
   61.8221   -8.7121   13.8730 P   0  0  0  0  0  0  0  0  0  0  0  0
   62.7250   -9.4213   14.8623 O   0  0  0  0  0  0  0  0  0  0  0  0
   60.4387   -9.2950   13.7418 O   0  0  0  0  0  0  0  0  0  0  0  0
   61.8073   -7.2096   13.9291 O   0  0  0  0  0  0  0  0  0  0  0  0
  2  1  2  0  0  0  0
  2  4  1  0  0  0  0
  3  2  1  0  0  0  0
  4  7  1  0  0  0  0
  4  5  2  0  0  0  0
  5  6  1  0  0  0  0
  5  9  1  0  0  0  0
  7  8  2  0  0  0  0
  8  9  1  0  0  0  0
 10  9  1  1  0  0  0
 10 15  1  0  0  0  0
 11 14  1  6  0  0  0
 11 12  1  0  0  0  0
 11 10  1  0  0  0  0
 12 13  1  6  0  0  0
 12 16  1  0  0  0  0
 16 17  1  1  0  0  0
 16 15  1  0  0  0  0
 18 19  1  0  0  0  0
 18 17  1  0  0  0  0
 19 21  1  0  0  0  0
 20 19  1  0  0  0  0
 22 19  2  0  0  0  0
M  END
>  <CHROM.1>
-1.84365371,129.13133803,-63.04586774,57.66750715,-179.26458483,61.80540701
-11.89302431,10.76143697,1.88830677,-1.12955953,-2.33337303

>  <Name>
lig.pdb

>  <RI>
0

>  <Rbt.Current_Directory>
/home/itssahil/PROJECTS/Mol_Feturizer/New_Systems/rnas/4znp

>  <Rbt.Executable>
rbdock ($Id: //depot/dev/client3/rdock/2013.1/src/exe/rbdock.cxx#4 $)

>  <Rbt.Library>
libRbt.so (2013.1, Build901 2013/11/27)

>  <Rbt.Parameter_File>
/export/apps/rDock/src/rDock_2013.1_src/data/scripts/dock_solv.prm

>  <Rbt.Receptor>
prm/pocket_docking_6.prm

>  <SCORE>
-15.8722

>  <SCORE.INTER>
-9.79057

>  <SCORE.INTER.CONST>
1

>  <SCORE.INTER.POLAR>
0

>  <SCORE.INTER.ROT>
5

>  <SCORE.INTER.SOLV>
17.4476

>  <SCORE.INTER.VDW>
-19.2763

>  <SCORE.INTER.norm>
-0.445026

>  <SCORE.INTRA>
-6.10711

>  <SCORE.INTRA.DIHEDRAL>
-9.44734

>  <SCORE.INTRA.DIHEDRAL.0>
11.9251

>  <SCORE.INTRA.POLAR>
0

>  <SCORE.INTRA.POLAR.0>
0

>  <SCORE.INTRA.REPUL>
0

>  <SCORE.INTRA.REPUL.0>
0

>  <SCORE.INTRA.SOLV>
-0.42176

>  <SCORE.INTRA.SOLV.lig_0>
-40.9823

>  <SCORE.INTRA.VDW>
-1.17257

>  <SCORE.INTRA.VDW.0>
-0.53506

>  <SCORE.INTRA.norm>
-0.277596

>  <SCORE.RESTR>
0.0254481

>  <SCORE.RESTR.CAVITY>
0.0254481

>  <SCORE.RESTR.norm>
0.00115673

>  <SCORE.SYSTEM>
0

>  <SCORE.SYSTEM.CONST>
0

>  <SCORE.SYSTEM.DIHEDRAL>
0

>  <SCORE.SYSTEM.SOLV>
0

>  <SCORE.SYSTEM.norm>
0

>  <SCORE.heavy>
22

>  <SCORE.norm>
-0.721465

>  <RMSD>
3.558

$$$$
lig.pdb
 OpenBabel11021811523D
libRbt.so/2013.1/901 2013/11/27
 22 23  0  0  0  0  0  0  0  0999 V2000
   60.4044  -17.5239    9.7173 O   0  0  0  0  0  0  0  0  0  0  0  0
   59.3347  -17.2128    9.2490 C   0  0  0  0  0  0  0  0  0  0  0  0
   58.5487  -18.0907    8.6514 N   0  0  0  0  0  0  0  0  0  0  0  0
   58.8893  -15.8128    9.2934 C   0  0  0  0  0  0  0  0  0  0  0  0
   59.7266  -14.6769    9.6858 C   0  0  0  0  0  0  0  0  0  0  0  0
   61.0158  -14.7506   10.0808 N   0  0  0  0  0  0  0  0  0  0  0  0
   57.6970  -15.2650    9.0092 N   0  0  0  0  0  0  0  0  0  0  0  0
   57.7894  -13.9171    9.1803 C   0  0  0  0  0  0  0  0  0  0  0  0
   59.0284  -13.5512    9.5878 N   0  0  0  0  0  0  0  0  0  0  0  0
   59.4774  -12.1605    9.8702 C   0  0  1  0  0  0  0  0  0  0  0  0
   59.6652  -11.9885   11.3619 C   0  0  1  0  0  0  0  0  0  0  0  0
   60.8950  -11.1249   11.4723 C   0  0  2  0  0  0  0  0  0  0  0  0
   60.5173   -9.7426   11.4974 O   0  0  0  0  0  0  0  0  0  0  0  0
   58.5126  -11.3755   11.9606 O   0  0  0  0  0  0  0  0  0  0  0  0
   60.7547  -11.9249    9.2832 O   0  0  0  0  0  0  0  0  0  0  0  0
   61.6703  -11.3882   10.2075 C   0  0  2  0  0  0  0  0  0  0  0  0
   62.7957  -12.3964   10.3143 C   0  0  0  0  0  0  0  0  0  0  0  0
   63.4462  -12.3228   11.5663 O   0  0  0  0  0  0  0  0  0  0  0  0
   64.5062  -11.1522   11.8083 P   0  0  0  0  0  0  0  0  0  0  0  0
   65.8211  -11.7001   11.2910 O   0  0  0  0  0  0  0  0  0  0  0  0
   64.4375  -10.9655   13.3020 O   0  0  0  0  0  0  0  0  0  0  0  0
   63.9173   -9.9896   11.0584 O   0  0  0  0  0  0  0  0  0  0  0  0
  2  1  2  0  0  0  0
  2  4  1  0  0  0  0
  3  2  1  0  0  0  0
  4  7  1  0  0  0  0
  4  5  2  0  0  0  0
  5  6  1  0  0  0  0
  5  9  1  0  0  0  0
  7  8  2  0  0  0  0
  8  9  1  0  0  0  0
 10  9  1  1  0  0  0
 10 15  1  0  0  0  0
 11 14  1  6  0  0  0
 11 12  1  0  0  0  0
 11 10  1  0  0  0  0
 12 13  1  6  0  0  0
 12 16  1  0  0  0  0
 16 17  1  1  0  0  0
 16 15  1  0  0  0  0
 18 19  1  0  0  0  0
 18 17  1  0  0  0  0
 19 21  1  0  0  0  0
 20 19  1  0  0  0  0
 22 19  2  0  0  0  0
M  END
>  <CHROM.1>
9.93446624,-70.56729571,-35.59498262,-86.91158379,-78.63850632,61.15290953
-12.94324256,10.55666100,-2.32434543,-0.17882289,0.28897827

>  <Name>
lig.pdb

>  <RI>
0

>  <Rbt.Current_Directory>
/home/itssahil/PROJECTS/Mol_Feturizer/New_Systems/rnas/4znp

>  <Rbt.Executable>
rbdock ($Id: //depot/dev/client3/rdock/2013.1/src/exe/rbdock.cxx#4 $)

>  <Rbt.Library>
libRbt.so (2013.1, Build901 2013/11/27)

>  <Rbt.Parameter_File>
/export/apps/rDock/src/rDock_2013.1_src/data/scripts/dock_solv.prm

>  <Rbt.Receptor>
prm/pocket_docking_5.prm

>  <SCORE>
-19.4972

>  <SCORE.INTER>
-17.3341

>  <SCORE.INTER.CONST>
1

>  <SCORE.INTER.POLAR>
0

>  <SCORE.INTER.ROT>
5

>  <SCORE.INTER.SOLV>
20.7409

>  <SCORE.INTER.VDW>
-25.4031

>  <SCORE.INTER.norm>
-0.787916

>  <SCORE.INTRA>
-2.16302

>  <SCORE.INTRA.DIHEDRAL>
-4.68354

>  <SCORE.INTRA.DIHEDRAL.0>
11.9251

>  <SCORE.INTRA.POLAR>
0

>  <SCORE.INTRA.POLAR.0>
0

>  <SCORE.INTRA.REPUL>
0

>  <SCORE.INTRA.REPUL.0>
0

>  <SCORE.INTRA.SOLV>
2.99998

>  <SCORE.INTRA.SOLV.lig_0>
-40.9823

>  <SCORE.INTRA.VDW>
-1.32124

>  <SCORE.INTRA.VDW.0>
-0.53506

>  <SCORE.INTRA.norm>
-0.0983192

>  <SCORE.RESTR>
0

>  <SCORE.RESTR.CAVITY>
0

>  <SCORE.RESTR.norm>
0

>  <SCORE.SYSTEM>
0

>  <SCORE.SYSTEM.CONST>
0

>  <SCORE.SYSTEM.DIHEDRAL>
0

>  <SCORE.SYSTEM.SOLV>
0

>  <SCORE.SYSTEM.norm>
0

>  <SCORE.heavy>
22

>  <SCORE.norm>
-0.886235

>  <RMSD>
3.595

$$$$
lig.pdb
 OpenBabel11021811523D
libRbt.so/2013.1/901 2013/11/27
 22 23  0  0  0  0  0  0  0  0999 V2000
   60.1172  -17.7292    9.7156 O   0  0  0  0  0  0  0  0  0  0  0  0
   59.4023  -16.7922    9.4481 C   0  0  0  0  0  0  0  0  0  0  0  0
   58.2017  -16.9542    8.9209 N   0  0  0  0  0  0  0  0  0  0  0  0
   59.8757  -15.4179    9.6654 C   0  0  0  0  0  0  0  0  0  0  0  0
   59.0662  -14.2114    9.4800 C   0  0  0  0  0  0  0  0  0  0  0  0
   57.7812  -14.1834    9.0660 N   0  0  0  0  0  0  0  0  0  0  0  0
   61.0746  -14.9574   10.0566 N   0  0  0  0  0  0  0  0  0  0  0  0
   61.0109  -13.5993   10.1347 C   0  0  0  0  0  0  0  0  0  0  0  0
   59.7849  -13.1382    9.7895 N   0  0  0  0  0  0  0  0  0  0  0  0
   59.3672  -11.7098    9.7626 C   0  0  1  0  0  0  0  0  0  0  0  0
   59.5672  -11.1039   11.1349 C   0  0  1  0  0  0  0  0  0  0  0  0
   60.0695   -9.7134   10.8443 C   0  0  2  0  0  0  0  0  0  0  0  0
   58.9635   -8.8064   10.7539 O   0  0  0  0  0  0  0  0  0  0  0  0
   58.3397  -11.0960   11.8802 O   0  0  0  0  0  0  0  0  0  0  0  0
   60.2034  -10.9671    8.8790 O   0  0  0  0  0  0  0  0  0  0  0  0
   60.7228   -9.8106    9.4901 C   0  0  2  0  0  0  0  0  0  0  0  0
   62.2284   -9.9771    9.4879 C   0  0  0  0  0  0  0  0  0  0  0  0
   62.8031   -9.5176    8.2818 O   0  0  0  0  0  0  0  0  0  0  0  0
   62.6436   -7.9746    7.8993 P   0  0  0  0  0  0  0  0  0  0  0  0
   62.6427   -7.2396    9.2247 O   0  0  0  0  0  0  0  0  0  0  0  0
   61.3282   -7.9640    7.1642 O   0  0  0  0  0  0  0  0  0  0  0  0
   63.8113   -7.7203    6.9869 O   0  0  0  0  0  0  0  0  0  0  0  0
  2  1  2  0  0  0  0
  2  4  1  0  0  0  0
  3  2  1  0  0  0  0
  4  7  1  0  0  0  0
  4  5  2  0  0  0  0
  5  6  1  0  0  0  0
  5  9  1  0  0  0  0
  7  8  2  0  0  0  0
  8  9  1  0  0  0  0
 10  9  1  1  0  0  0
 10 15  1  0  0  0  0
 11 14  1  6  0  0  0
 11 12  1  0  0  0  0
 11 10  1  0  0  0  0
 12 13  1  6  0  0  0
 12 16  1  0  0  0  0
 16 17  1  1  0  0  0
 16 15  1  0  0  0  0
 18 19  1  0  0  0  0
 18 17  1  0  0  0  0
 19 21  1  0  0  0  0
 20 19  1  0  0  0  0
 22 19  2  0  0  0  0
M  END
>  <CHROM.1>
-174.91698711,122.81180814,-155.61352709,32.83714414,62.10865288,60.57539108
-11.50691453,9.34719308,-2.04474549,0.67693678,0.13922918

>  <Name>
lig.pdb

>  <RI>
0

>  <Rbt.Current_Directory>
/home/itssahil/PROJECTS/Mol_Feturizer/New_Systems/rnas/4znp

>  <Rbt.Executable>
rbdock ($Id: //depot/dev/client3/rdock/2013.1/src/exe/rbdock.cxx#4 $)

>  <Rbt.Library>
libRbt.so (2013.1, Build901 2013/11/27)

>  <Rbt.Parameter_File>
/export/apps/rDock/src/rDock_2013.1_src/data/scripts/dock_solv.prm

>  <Rbt.Receptor>
prm/pocket_docking_8.prm

>  <SCORE>
-16.135

>  <SCORE.INTER>
-12.0736

>  <SCORE.INTER.CONST>
1

>  <SCORE.INTER.POLAR>
0

>  <SCORE.INTER.ROT>
5

>  <SCORE.INTER.SOLV>
17.7767

>  <SCORE.INTER.VDW>
-20.9079

>  <SCORE.INTER.norm>
-0.548798

>  <SCORE.INTRA>
-4.06146

>  <SCORE.INTRA.DIHEDRAL>
-6.52808

>  <SCORE.INTRA.DIHEDRAL.0>
11.9251

>  <SCORE.INTRA.POLAR>
0

>  <SCORE.INTRA.POLAR.0>
0

>  <SCORE.INTRA.REPUL>
0

>  <SCORE.INTRA.REPUL.0>
0

>  <SCORE.INTRA.SOLV>
0.671968

>  <SCORE.INTRA.SOLV.lig_0>
-40.9823

>  <SCORE.INTRA.VDW>
-1.13341

>  <SCORE.INTRA.VDW.0>
-0.53506

>  <SCORE.INTRA.norm>
-0.184612

>  <SCORE.RESTR>
0

>  <SCORE.RESTR.CAVITY>
0

>  <SCORE.RESTR.norm>
0

>  <SCORE.SYSTEM>
0

>  <SCORE.SYSTEM.CONST>
0

>  <SCORE.SYSTEM.DIHEDRAL>
0

>  <SCORE.SYSTEM.SOLV>
0

>  <SCORE.SYSTEM.norm>
0

>  <SCORE.heavy>
22

>  <SCORE.norm>
-0.73341

>  <RMSD>
3.746

$$$$
lig.pdb
 OpenBabel11021811523D
libRbt.so/2013.1/901 2013/11/27
 22 23  0  0  0  0  0  0  0  0999 V2000
   58.3122  -17.0586    9.0489 O   0  0  0  0  0  0  0  0  0  0  0  0
   59.4126  -16.7521    9.4436 C   0  0  0  0  0  0  0  0  0  0  0  0
   60.3705  -17.6460    9.6146 N   0  0  0  0  0  0  0  0  0  0  0  0
   59.7083  -15.3554    9.7928 C   0  0  0  0  0  0  0  0  0  0  0  0
   58.7546  -14.2473    9.7037 C   0  0  0  0  0  0  0  0  0  0  0  0
   57.4787  -14.3415    9.2719 N   0  0  0  0  0  0  0  0  0  0  0  0
   60.8376  -14.7872   10.2447 N   0  0  0  0  0  0  0  0  0  0  0  0
   60.6033  -13.4606   10.4446 C   0  0  0  0  0  0  0  0  0  0  0  0
   59.3311  -13.1260   10.1216 N   0  0  0  0  0  0  0  0  0  0  0  0
   58.7374  -11.7644   10.2172 C   0  0  1  0  0  0  0  0  0  0  0  0
   59.1908  -11.1099   11.5041 C   0  0  1  0  0  0  0  0  0  0  0  0
   59.4198   -9.6724   11.1152 C   0  0  2  0  0  0  0  0  0  0  0  0
   58.2175   -8.9180   11.3140 O   0  0  0  0  0  0  0  0  0  0  0  0
   58.1962  -11.2455   12.5312 O   0  0  0  0  0  0  0  0  0  0  0  0
   59.2242  -10.9380    9.1629 O   0  0  0  0  0  0  0  0  0  0  0  0
   59.7238   -9.7119    9.6401 C   0  0  2  0  0  0  0  0  0  0  0  0
   61.1902   -9.6825    9.2617 C   0  0  0  0  0  0  0  0  0  0  0  0
   61.7853   -8.4394    9.5729 O   0  0  0  0  0  0  0  0  0  0  0  0
   63.3655   -8.2839    9.3965 P   0  0  0  0  0  0  0  0  0  0  0  0
   63.6540   -8.7751    7.9921 O   0  0  0  0  0  0  0  0  0  0  0  0
   63.8962   -9.1620   10.5001 O   0  0  0  0  0  0  0  0  0  0  0  0
   63.6027   -6.8232    9.6630 O   0  0  0  0  0  0  0  0  0  0  0  0
  2  1  2  0  0  0  0
  2  4  1  0  0  0  0
  3  2  1  0  0  0  0
  4  7  1  0  0  0  0
  4  5  2  0  0  0  0
  5  6  1  0  0  0  0
  5  9  1  0  0  0  0
  7  8  2  0  0  0  0
  8  9  1  0  0  0  0
 10  9  1  6  0  0  0
 10 15  1  0  0  0  0
 11 14  1  1  0  0  0
 11 12  1  0  0  0  0
 11 10  1  0  0  0  0
 12 13  1  6  0  0  0
 12 16  1  0  0  0  0
 16 17  1  1  0  0  0
 16 15  1  0  0  0  0
 18 19  1  0  0  0  0
 18 17  1  0  0  0  0
 19 21  1  0  0  0  0
 20 19  1  0  0  0  0
 22 19  2  0  0  0  0
M  END
>  <CHROM.1>
-0.06163584,138.84425147,-67.72985182,51.08381669,173.13960750,60.44706417
-11.55620807,9.94651854,-2.05988866,0.37913579,0.17817800

>  <Name>
lig.pdb

>  <RI>
0

>  <Rbt.Current_Directory>
/home/itssahil/PROJECTS/Mol_Feturizer/New_Systems/rnas/4znp

>  <Rbt.Executable>
rbdock ($Id: //depot/dev/client3/rdock/2013.1/src/exe/rbdock.cxx#4 $)

>  <Rbt.Library>
libRbt.so (2013.1, Build901 2013/11/27)

>  <Rbt.Parameter_File>
/export/apps/rDock/src/rDock_2013.1_src/data/scripts/dock_solv.prm

>  <Rbt.Receptor>
prm/pocket_docking_5.prm

>  <SCORE>
-15.324

>  <SCORE.INTER>
-9.67248

>  <SCORE.INTER.CONST>
1

>  <SCORE.INTER.POLAR>
0

>  <SCORE.INTER.ROT>
5

>  <SCORE.INTER.SOLV>
16.8902

>  <SCORE.INTER.VDW>
-19.0117

>  <SCORE.INTER.norm>
-0.439658

>  <SCORE.INTRA>
-5.65153

>  <SCORE.INTRA.DIHEDRAL>
-8.92116

>  <SCORE.INTRA.DIHEDRAL.0>
11.9251

>  <SCORE.INTRA.POLAR>
0

>  <SCORE.INTRA.POLAR.0>
0

>  <SCORE.INTRA.REPUL>
0

>  <SCORE.INTRA.REPUL.0>
0

>  <SCORE.INTRA.SOLV>
-0.394536

>  <SCORE.INTRA.SOLV.lig_0>
-40.9823

>  <SCORE.INTRA.VDW>
-0.993677

>  <SCORE.INTRA.VDW.0>
-0.53506

>  <SCORE.INTRA.norm>
-0.256888

>  <SCORE.RESTR>
0

>  <SCORE.RESTR.CAVITY>
0

>  <SCORE.RESTR.norm>
0

>  <SCORE.SYSTEM>
0

>  <SCORE.SYSTEM.CONST>
0

>  <SCORE.SYSTEM.DIHEDRAL>
0

>  <SCORE.SYSTEM.SOLV>
0

>  <SCORE.SYSTEM.norm>
0

>  <SCORE.heavy>
22

>  <SCORE.norm>
-0.696546

>  <RMSD>
3.819

$$$$
lig.pdb
 OpenBabel11021811523D
libRbt.so/2013.1/901 2013/11/27
 22 23  0  0  0  0  0  0  0  0999 V2000
   60.8164  -17.5091    9.2023 O   0  0  0  0  0  0  0  0  0  0  0  0
   60.1297  -16.5478    9.4566 C   0  0  0  0  0  0  0  0  0  0  0  0
   58.8106  -16.6167    9.4879 N   0  0  0  0  0  0  0  0  0  0  0  0
   60.7535  -15.2394    9.6997 C   0  0  0  0  0  0  0  0  0  0  0  0
   60.0269  -14.0092   10.0221 C   0  0  0  0  0  0  0  0  0  0  0  0
   58.6854  -13.8926   10.1232 N   0  0  0  0  0  0  0  0  0  0  0  0
   62.0442  -14.8701    9.6874 N   0  0  0  0  0  0  0  0  0  0  0  0
   62.1175  -13.5465    9.9993 C   0  0  0  0  0  0  0  0  0  0  0  0
   60.8890  -13.0165   10.2107 N   0  0  0  0  0  0  0  0  0  0  0  0
   60.6007  -11.6008   10.5686 C   0  0  1  0  0  0  0  0  0  0  0  0
   61.8988  -10.8904   10.8855 C   0  0  1  0  0  0  0  0  0  0  0  0
   61.7120   -9.5181   10.2921 C   0  0  2  0  0  0  0  0  0  0  0  0
   61.1482   -8.6376   11.2723 O   0  0  0  0  0  0  0  0  0  0  0  0
   62.1307  -10.8453   12.3021 O   0  0  0  0  0  0  0  0  0  0  0  0
   60.0385  -10.9138    9.4534 O   0  0  0  0  0  0  0  0  0  0  0  0
   60.7099   -9.7068    9.1829 C   0  0  2  0  0  0  0  0  0  0  0  0
   61.2808   -9.8499    7.7872 C   0  0  0  0  0  0  0  0  0  0  0  0
   61.4677   -8.5939    7.1679 O   0  0  0  0  0  0  0  0  0  0  0  0
   62.7014   -7.6904    7.6307 P   0  0  0  0  0  0  0  0  0  0  0  0
   63.0015   -6.7977    6.4433 O   0  0  0  0  0  0  0  0  0  0  0  0
   63.7557   -8.7236    7.9336 O   0  0  0  0  0  0  0  0  0  0  0  0
   62.1899   -7.0136    8.8721 O   0  0  0  0  0  0  0  0  0  0  0  0
  2  1  2  0  0  0  0
  2  4  1  0  0  0  0
  3  2  1  0  0  0  0
  4  7  1  0  0  0  0
  4  5  2  0  0  0  0
  5  6  1  0  0  0  0
  5  9  1  0  0  0  0
  7  8  2  0  0  0  0
  8  9  1  0  0  0  0
 10  9  1  6  0  0  0
 10 15  1  0  0  0  0
 11 14  1  1  0  0  0
 11 12  1  0  0  0  0
 11 10  1  0  0  0  0
 12 13  1  1  0  0  0
 12 16  1  0  0  0  0
 16 17  1  6  0  0  0
 16 15  1  0  0  0  0
 18 19  1  0  0  0  0
 18 17  1  0  0  0  0
 19 21  1  0  0  0  0
 20 19  1  0  0  0  0
 22 19  2  0  0  0  0
M  END
>  <CHROM.1>
-179.66978366,171.32420682,-87.31011554,155.08684748,75.37611776,61.34178971
-11.29279408,9.31327212,-2.65305142,1.27372304,0.85243533

>  <Name>
lig.pdb

>  <RI>
0

>  <Rbt.Current_Directory>
/home/itssahil/PROJECTS/Mol_Feturizer/New_Systems/rnas/4znp

>  <Rbt.Executable>
rbdock ($Id: //depot/dev/client3/rdock/2013.1/src/exe/rbdock.cxx#4 $)

>  <Rbt.Library>
libRbt.so (2013.1, Build901 2013/11/27)

>  <Rbt.Parameter_File>
/export/apps/rDock/src/rDock_2013.1_src/data/scripts/dock_solv.prm

>  <Rbt.Receptor>
prm/pocket_docking_6.prm

>  <SCORE>
-14.8746

>  <SCORE.INTER>
-12.962

>  <SCORE.INTER.CONST>
1

>  <SCORE.INTER.POLAR>
0

>  <SCORE.INTER.ROT>
5

>  <SCORE.INTER.SOLV>
14.6719

>  <SCORE.INTER.VDW>
-20.4653

>  <SCORE.INTER.norm>
-0.589183

>  <SCORE.INTRA>
-1.91257

>  <SCORE.INTRA.DIHEDRAL>
-5.27384

>  <SCORE.INTRA.DIHEDRAL.0>
11.9251

>  <SCORE.INTRA.POLAR>
0

>  <SCORE.INTRA.POLAR.0>
0

>  <SCORE.INTRA.REPUL>
0

>  <SCORE.INTRA.REPUL.0>
0

>  <SCORE.INTRA.SOLV>
2.2014

>  <SCORE.INTRA.SOLV.lig_0>
-40.9823

>  <SCORE.INTRA.VDW>
-0.376352

>  <SCORE.INTRA.VDW.0>
-0.53506

>  <SCORE.INTRA.norm>
-0.0869352

>  <SCORE.RESTR>
0

>  <SCORE.RESTR.CAVITY>
0

>  <SCORE.RESTR.norm>
0

>  <SCORE.SYSTEM>
0

>  <SCORE.SYSTEM.CONST>
0

>  <SCORE.SYSTEM.DIHEDRAL>
0

>  <SCORE.SYSTEM.SOLV>
0

>  <SCORE.SYSTEM.norm>
0

>  <SCORE.heavy>
22

>  <SCORE.norm>
-0.676118

>  <RMSD>
3.918

$$$$
lig.pdb
 OpenBabel11021811523D
libRbt.so/2013.1/901 2013/11/27
 22 23  0  0  0  0  0  0  0  0999 V2000
   61.2379  -17.1127    8.9707 O   0  0  0  0  0  0  0  0  0  0  0  0
   62.0455  -16.2196    8.8676 C   0  0  0  0  0  0  0  0  0  0  0  0
   63.2529  -16.4197    8.3697 N   0  0  0  0  0  0  0  0  0  0  0  0
   61.7156  -14.8685    9.3432 C   0  0  0  0  0  0  0  0  0  0  0  0
   60.4171  -14.4629    9.8861 C   0  0  0  0  0  0  0  0  0  0  0  0
   59.3339  -15.2595   10.0104 N   0  0  0  0  0  0  0  0  0  0  0  0
   62.4612  -13.7533    9.3949 N   0  0  0  0  0  0  0  0  0  0  0  0
   61.7108  -12.7573    9.9423 C   0  0  0  0  0  0  0  0  0  0  0  0
   60.4632  -13.1862   10.2499 N   0  0  0  0  0  0  0  0  0  0  0  0
   59.3845  -12.3622   10.8604 C   0  0  1  0  0  0  0  0  0  0  0  0
   59.8538  -11.8358   12.1994 C   0  0  1  0  0  0  0  0  0  0  0  0
   59.2979  -10.4363   12.2505 C   0  0  2  0  0  0  0  0  0  0  0  0
   58.0021  -10.4504   12.8628 O   0  0  0  0  0  0  0  0  0  0  0  0
   59.3695  -12.6549   13.2751 O   0  0  0  0  0  0  0  0  0  0  0  0
   59.1242  -11.2146   10.0560 O   0  0  0  0  0  0  0  0  0  0  0  0
   59.1437  -10.0258   10.8091 C   0  0  2  0  0  0  0  0  0  0  0  0
   60.2638   -9.1845   10.2330 C   0  0  0  0  0  0  0  0  0  0  0  0
   59.8615   -8.5137    9.0565 O   0  0  0  0  0  0  0  0  0  0  0  0
   58.8886   -7.2535    9.1908 P   0  0  0  0  0  0  0  0  0  0  0  0
   58.7476   -6.7145    7.7814 O   0  0  0  0  0  0  0  0  0  0  0  0
   59.6500   -6.3644   10.1397 O   0  0  0  0  0  0  0  0  0  0  0  0
   57.6520   -7.8346    9.8184 O   0  0  0  0  0  0  0  0  0  0  0  0
  2  1  2  0  0  0  0
  2  4  1  0  0  0  0
  3  2  1  0  0  0  0
  4  7  1  0  0  0  0
  4  5  2  0  0  0  0
  5  6  1  0  0  0  0
  5  9  1  0  0  0  0
  7  8  2  0  0  0  0
  8  9  1  0  0  0  0
 10  9  1  6  0  0  0
 10 15  1  0  0  0  0
 11 14  1  1  0  0  0
 11 12  1  0  0  0  0
 11 10  1  0  0  0  0
 12 13  1  6  0  0  0
 12 16  1  0  0  0  0
 16 17  1  6  0  0  0
 16 15  1  0  0  0  0
 18 19  1  0  0  0  0
 18 17  1  0  0  0  0
 19 21  1  0  0  0  0
 20 19  1  0  0  0  0
 22 19  2  0  0  0  0
M  END
>  <CHROM.1>
-3.79432018,121.08609855,-161.76539644,175.66814184,74.29487367,59.96075540
-11.39748122,10.11499845,-0.92608225,1.02265141,-0.54271600

>  <Name>
lig.pdb

>  <RI>
0

>  <Rbt.Current_Directory>
/home/itssahil/PROJECTS/Mol_Feturizer/New_Systems/rnas/4znp

>  <Rbt.Executable>
rbdock ($Id: //depot/dev/client3/rdock/2013.1/src/exe/rbdock.cxx#4 $)

>  <Rbt.Library>
libRbt.so (2013.1, Build901 2013/11/27)

>  <Rbt.Parameter_File>
/export/apps/rDock/src/rDock_2013.1_src/data/scripts/dock_solv.prm

>  <Rbt.Receptor>
prm/pocket_docking_4.prm

>  <SCORE>
-13.7659

>  <SCORE.INTER>
-9.39946

>  <SCORE.INTER.CONST>
1

>  <SCORE.INTER.POLAR>
0

>  <SCORE.INTER.ROT>
5

>  <SCORE.INTER.SOLV>
17.7551

>  <SCORE.INTER.VDW>
-19.118

>  <SCORE.INTER.norm>
-0.427248

>  <SCORE.INTRA>
-4.36648

>  <SCORE.INTRA.DIHEDRAL>
-7.39747

>  <SCORE.INTRA.DIHEDRAL.0>
11.9251

>  <SCORE.INTRA.POLAR>
0

>  <SCORE.INTRA.POLAR.0>
0

>  <SCORE.INTRA.REPUL>
0

>  <SCORE.INTRA.REPUL.0>
0

>  <SCORE.INTRA.SOLV>
1.076

>  <SCORE.INTRA.SOLV.lig_0>
-40.9823

>  <SCORE.INTRA.VDW>
-1.20574

>  <SCORE.INTRA.VDW.0>
-0.53506

>  <SCORE.INTRA.norm>
-0.198476

>  <SCORE.RESTR>
0

>  <SCORE.RESTR.CAVITY>
0

>  <SCORE.RESTR.norm>
0

>  <SCORE.SYSTEM>
0

>  <SCORE.SYSTEM.CONST>
0

>  <SCORE.SYSTEM.DIHEDRAL>
0

>  <SCORE.SYSTEM.SOLV>
0

>  <SCORE.SYSTEM.norm>
0

>  <SCORE.heavy>
22

>  <SCORE.norm>
-0.625724

>  <RMSD>
3.943

$$$$
lig.pdb
 OpenBabel11021811523D
libRbt.so/2013.1/901 2013/11/27
 22 23  0  0  0  0  0  0  0  0999 V2000
   57.5294  -16.7838    8.8708 O   0  0  0  0  0  0  0  0  0  0  0  0
   58.6928  -16.8828    9.1825 C   0  0  0  0  0  0  0  0  0  0  0  0
   59.2793  -18.0562    9.3399 N   0  0  0  0  0  0  0  0  0  0  0  0
   59.4916  -15.6769    9.4431 C   0  0  0  0  0  0  0  0  0  0  0  0
   58.9996  -14.3022    9.3275 C   0  0  0  0  0  0  0  0  0  0  0  0
   57.7545  -13.9426    8.9482 N   0  0  0  0  0  0  0  0  0  0  0  0
   60.7725  -15.5413    9.8216 N   0  0  0  0  0  0  0  0  0  0  0  0
   61.0447  -14.2137    9.9563 C   0  0  0  0  0  0  0  0  0  0  0  0
   59.9639  -13.4521    9.6617 N   0  0  0  0  0  0  0  0  0  0  0  0
   59.9085  -11.9653    9.7034 C   0  0  1  0  0  0  0  0  0  0  0  0
   59.7220  -11.5113   11.1349 C   0  0  1  0  0  0  0  0  0  0  0  0
   60.5870  -10.2819   11.2379 C   0  0  2  0  0  0  0  0  0  0  0  0
   59.8176   -9.1178   10.9113 O   0  0  0  0  0  0  0  0  0  0  0  0
   58.3409  -11.2316   11.4125 O   0  0  0  0  0  0  0  0  0  0  0  0
   61.1501  -11.4123    9.2740 O   0  0  0  0  0  0  0  0  0  0  0  0
   61.6507  -10.4653   10.1868 C   0  0  2  0  0  0  0  0  0  0  0  0
   62.9777  -11.0123   10.6709 C   0  0  0  0  0  0  0  0  0  0  0  0
   63.4636  -10.2935   11.7859 O   0  0  0  0  0  0  0  0  0  0  0  0
   64.9053  -10.6657   12.3650 P   0  0  0  0  0  0  0  0  0  0  0  0
   64.9847  -12.1768   12.2793 O   0  0  0  0  0  0  0  0  0  0  0  0
   64.8387  -10.1097   13.7640 O   0  0  0  0  0  0  0  0  0  0  0  0
   65.8446   -9.8891   11.4845 O   0  0  0  0  0  0  0  0  0  0  0  0
  2  1  2  0  0  0  0
  2  4  1  0  0  0  0
  3  2  1  0  0  0  0
  4  7  1  0  0  0  0
  4  5  2  0  0  0  0
  5  6  1  0  0  0  0
  5  9  1  0  0  0  0
  7  8  2  0  0  0  0
  8  9  1  0  0  0  0
 10  9  1  1  0  0  0
 10 15  1  0  0  0  0
 11 14  1  6  0  0  0
 11 12  1  0  0  0  0
 11 10  1  0  0  0  0
 12 13  1  6  0  0  0
 12 16  1  0  0  0  0
 16 17  1  1  0  0  0
 16 15  1  0  0  0  0
 18 19  1  0  0  0  0
 18 17  1  0  0  0  0
 19 21  1  0  0  0  0
 20 19  1  0  0  0  0
 22 19  2  0  0  0  0
M  END
>  <CHROM.1>
-1.49468940,100.54749034,-50.37952200,-39.17598715,-175.65357719,61.27843942
-12.47599570,10.64294156,-2.36126230,-0.30034996,0.19517016

>  <Name>
lig.pdb

>  <RI>
0

>  <Rbt.Current_Directory>
/home/itssahil/PROJECTS/Mol_Feturizer/New_Systems/rnas/4znp

>  <Rbt.Executable>
rbdock ($Id: //depot/dev/client3/rdock/2013.1/src/exe/rbdock.cxx#4 $)

>  <Rbt.Library>
libRbt.so (2013.1, Build901 2013/11/27)

>  <Rbt.Parameter_File>
/export/apps/rDock/src/rDock_2013.1_src/data/scripts/dock_solv.prm

>  <Rbt.Receptor>
prm/pocket_docking_8.prm

>  <SCORE>
-18.5694

>  <SCORE.INTER>
-13.1196

>  <SCORE.INTER.CONST>
1

>  <SCORE.INTER.POLAR>
0

>  <SCORE.INTER.ROT>
5

>  <SCORE.INTER.SOLV>
20.8159

>  <SCORE.INTER.VDW>
-22.6184

>  <SCORE.INTER.norm>
-0.596345

>  <SCORE.INTRA>
-5.44978

>  <SCORE.INTRA.DIHEDRAL>
-8.43632

>  <SCORE.INTRA.DIHEDRAL.0>
11.9251

>  <SCORE.INTRA.POLAR>
0

>  <SCORE.INTRA.POLAR.0>
0

>  <SCORE.INTRA.REPUL>
0

>  <SCORE.INTRA.REPUL.0>
0

>  <SCORE.INTRA.SOLV>
0.00695222

>  <SCORE.INTRA.SOLV.lig_0>
-40.9823

>  <SCORE.INTRA.VDW>
-1.2351

>  <SCORE.INTRA.VDW.0>
-0.53506

>  <SCORE.INTRA.norm>
-0.247717

>  <SCORE.RESTR>
0

>  <SCORE.RESTR.CAVITY>
0

>  <SCORE.RESTR.norm>
0

>  <SCORE.SYSTEM>
0

>  <SCORE.SYSTEM.CONST>
0

>  <SCORE.SYSTEM.DIHEDRAL>
0

>  <SCORE.SYSTEM.SOLV>
0

>  <SCORE.SYSTEM.norm>
0

>  <SCORE.heavy>
22

>  <SCORE.norm>
-0.844063

>  <RMSD>
3.992

$$$$
lig.pdb
 OpenBabel11021811523D
libRbt.so/2013.1/901 2013/11/27
 22 23  0  0  0  0  0  0  0  0999 V2000
   62.8784  -16.6852    8.3405 O   0  0  0  0  0  0  0  0  0  0  0  0
   61.8208  -16.4831    8.8892 C   0  0  0  0  0  0  0  0  0  0  0  0
   60.8729  -17.4018    8.9454 N   0  0  0  0  0  0  0  0  0  0  0  0
   61.5373  -15.1687    9.4828 C   0  0  0  0  0  0  0  0  0  0  0  0
   60.2366  -14.7468   10.0075 C   0  0  0  0  0  0  0  0  0  0  0  0
   59.1096  -15.4907   10.0050 N   0  0  0  0  0  0  0  0  0  0  0  0
   62.3352  -14.1067    9.6776 N   0  0  0  0  0  0  0  0  0  0  0  0
   61.6108  -13.1290   10.2892 C   0  0  0  0  0  0  0  0  0  0  0  0
   60.3298  -13.5163   10.4987 N   0  0  0  0  0  0  0  0  0  0  0  0
   59.2662  -12.6974   11.1417 C   0  0  1  0  0  0  0  0  0  0  0  0
   59.8863  -11.8174   12.2053 C   0  0  1  0  0  0  0  0  0  0  0  0
   59.1339  -10.5179   12.0804 C   0  0  2  0  0  0  0  0  0  0  0  0
   57.9936  -10.5315   12.9486 O   0  0  0  0  0  0  0  0  0  0  0  0
   59.7472  -12.4054   13.5081 O   0  0  0  0  0  0  0  0  0  0  0  0
   58.6815  -11.8117   10.1901 O   0  0  0  0  0  0  0  0  0  0  0  0
   58.6510  -10.4832   10.6537 C   0  0  2  0  0  0  0  0  0  0  0  0
   59.4960   -9.6829    9.6842 C   0  0  0  0  0  0  0  0  0  0  0  0
   60.7135  -10.3363    9.3898 O   0  0  0  0  0  0  0  0  0  0  0  0
   61.6325   -9.7488    8.2223 P   0  0  0  0  0  0  0  0  0  0  0  0
   60.7144   -9.6298    7.0223 O   0  0  0  0  0  0  0  0  0  0  0  0
   62.7045  -10.8010    8.1023 O   0  0  0  0  0  0  0  0  0  0  0  0
   62.1539   -8.4640    8.8037 O   0  0  0  0  0  0  0  0  0  0  0  0
  2  1  2  0  0  0  0
  2  4  1  0  0  0  0
  3  2  1  0  0  0  0
  4  7  1  0  0  0  0
  4  5  2  0  0  0  0
  5  6  1  0  0  0  0
  5  9  1  0  0  0  0
  7  8  2  0  0  0  0
  8  9  1  0  0  0  0
 10  9  1  6  0  0  0
 10 15  1  0  0  0  0
 11 14  1  1  0  0  0
 11 12  1  0  0  0  0
 11 10  1  0  0  0  0
 12 13  1  1  0  0  0
 12 16  1  0  0  0  0
 16 17  1  6  0  0  0
 16 15  1  0  0  0  0
 18 19  1  0  0  0  0
 18 17  1  0  0  0  0
 19 21  1  0  0  0  0
 20 19  1  0  0  0  0
 22 19  2  0  0  0  0
M  END
>  <CHROM.1>
171.19802047,147.16622742,72.42778832,-52.44424842,171.00409991,60.58834434
-12.28763314,9.89287044,-1.31379249,0.90398052,-0.14409028

>  <Name>
lig.pdb

>  <RI>
0

>  <Rbt.Current_Directory>
/home/itssahil/PROJECTS/Mol_Feturizer/New_Systems/rnas/4znp

>  <Rbt.Executable>
rbdock ($Id: //depot/dev/client3/rdock/2013.1/src/exe/rbdock.cxx#4 $)

>  <Rbt.Library>
libRbt.so (2013.1, Build901 2013/11/27)

>  <Rbt.Parameter_File>
/export/apps/rDock/src/rDock_2013.1_src/data/scripts/dock_solv.prm

>  <Rbt.Receptor>
prm/pocket_docking_4.prm

>  <SCORE>
-18.5279

>  <SCORE.INTER>
-12.9882

>  <SCORE.INTER.CONST>
1

>  <SCORE.INTER.POLAR>
0

>  <SCORE.INTER.ROT>
5

>  <SCORE.INTER.SOLV>
19.9244

>  <SCORE.INTER.VDW>
-22.2336

>  <SCORE.INTER.norm>
-0.590374

>  <SCORE.INTRA>
-5.5397

>  <SCORE.INTRA.DIHEDRAL>
-8.2281

>  <SCORE.INTRA.DIHEDRAL.0>
11.9251

>  <SCORE.INTRA.POLAR>
0

>  <SCORE.INTRA.POLAR.0>
0

>  <SCORE.INTRA.REPUL>
0

>  <SCORE.INTRA.REPUL.0>
0

>  <SCORE.INTRA.SOLV>
0.585495

>  <SCORE.INTRA.SOLV.lig_0>
-40.9823

>  <SCORE.INTRA.VDW>
-1.7184

>  <SCORE.INTRA.VDW.0>
-0.53506

>  <SCORE.INTRA.norm>
-0.251805

>  <SCORE.RESTR>
0

>  <SCORE.RESTR.CAVITY>
0

>  <SCORE.RESTR.norm>
0

>  <SCORE.SYSTEM>
0

>  <SCORE.SYSTEM.CONST>
0

>  <SCORE.SYSTEM.DIHEDRAL>
0

>  <SCORE.SYSTEM.SOLV>
0

>  <SCORE.SYSTEM.norm>
0

>  <SCORE.heavy>
22

>  <SCORE.norm>
-0.842179

>  <RMSD>
4.026

$$$$
lig.pdb
 OpenBabel11021811523D
libRbt.so/2013.1/901 2013/11/27
 22 23  0  0  0  0  0  0  0  0999 V2000
   57.6588  -16.7538    8.8745 O   0  0  0  0  0  0  0  0  0  0  0  0
   58.8118  -16.8319    9.2281 C   0  0  0  0  0  0  0  0  0  0  0  0
   59.4176  -17.9944    9.3930 N   0  0  0  0  0  0  0  0  0  0  0  0
   59.5739  -15.6126    9.5328 C   0  0  0  0  0  0  0  0  0  0  0  0
   59.0312  -14.2526    9.4999 C   0  0  0  0  0  0  0  0  0  0  0  0
   57.7654  -13.9195    9.1680 N   0  0  0  0  0  0  0  0  0  0  0  0
   60.8582  -15.4501    9.8887 N   0  0  0  0  0  0  0  0  0  0  0  0
   61.0867  -14.1221   10.0859 C   0  0  0  0  0  0  0  0  0  0  0  0
   59.9730  -13.3862    9.8558 N   0  0  0  0  0  0  0  0  0  0  0  0
   59.8664  -11.9064    9.9758 C   0  0  1  0  0  0  0  0  0  0  0  0
   59.7447  -11.5303   11.4366 C   0  0  1  0  0  0  0  0  0  0  0  0
   60.5693  -10.2747   11.5546 C   0  0  2  0  0  0  0  0  0  0  0  0
   59.7411   -9.1268   11.3299 O   0  0  0  0  0  0  0  0  0  0  0  0
   58.3723  -11.3182   11.8030 O   0  0  0  0  0  0  0  0  0  0  0  0
   61.0611  -11.2855    9.5080 O   0  0  0  0  0  0  0  0  0  0  0  0
   61.5779  -10.3652   10.4390 C   0  0  2  0  0  0  0  0  0  0  0  0
   62.9489  -10.8832   10.8217 C   0  0  0  0  0  0  0  0  0  0  0  0
   63.4673  -10.2067   11.9484 O   0  0  0  0  0  0  0  0  0  0  0  0
   64.9386  -10.5754   12.4504 P   0  0  0  0  0  0  0  0  0  0  0  0
   65.8705   -9.8991   11.4650 O   0  0  0  0  0  0  0  0  0  0  0  0
   64.9278  -12.0810   12.3866 O   0  0  0  0  0  0  0  0  0  0  0  0
   64.9623  -10.0625   13.8636 O   0  0  0  0  0  0  0  0  0  0  0  0
  2  1  2  0  0  0  0
  2  4  1  0  0  0  0
  3  2  1  0  0  0  0
  4  7  1  0  0  0  0
  4  5  2  0  0  0  0
  5  6  1  0  0  0  0
  5  9  1  0  0  0  0
  7  8  2  0  0  0  0
  8  9  1  0  0  0  0
 10  9  1  1  0  0  0
 10 15  1  0  0  0  0
 11 14  1  6  0  0  0
 11 12  1  0  0  0  0
 11 10  1  0  0  0  0
 12 13  1  6  0  0  0
 12 16  1  0  0  0  0
 16 17  1  1  0  0  0
 16 15  1  0  0  0  0
 18 19  1  0  0  0  0
 18 17  1  0  0  0  0
 19 21  1  0  0  0  0
 20 19  1  0  0  0  0
 22 19  2  0  0  0  0
M  END
>  <CHROM.1>
2.71780301,102.38262088,-50.02708884,76.15462203,-177.06707579,61.30093108
-12.42274767,10.80907795,-2.33772203,-0.24996692,0.25230439

>  <Name>
lig.pdb

>  <RI>
0

>  <Rbt.Current_Directory>
/home/itssahil/PROJECTS/Mol_Feturizer/New_Systems/rnas/4znp

>  <Rbt.Executable>
rbdock ($Id: //depot/dev/client3/rdock/2013.1/src/exe/rbdock.cxx#4 $)

>  <Rbt.Library>
libRbt.so (2013.1, Build901 2013/11/27)

>  <Rbt.Parameter_File>
/export/apps/rDock/src/rDock_2013.1_src/data/scripts/dock_solv.prm

>  <Rbt.Receptor>
prm/pocket_docking_8.prm

>  <SCORE>
-18.2912

>  <SCORE.INTER>
-12.7402

>  <SCORE.INTER.CONST>
1

>  <SCORE.INTER.POLAR>
0

>  <SCORE.INTER.ROT>
5

>  <SCORE.INTER.SOLV>
19.8255

>  <SCORE.INTER.VDW>
-22.0353

>  <SCORE.INTER.norm>
-0.579099

>  <SCORE.INTRA>
-5.551

>  <SCORE.INTRA.DIHEDRAL>
-8.66119

>  <SCORE.INTRA.DIHEDRAL.0>
11.9251

>  <SCORE.INTRA.POLAR>
0

>  <SCORE.INTRA.POLAR.0>
0

>  <SCORE.INTRA.REPUL>
0

>  <SCORE.INTRA.REPUL.0>
0

>  <SCORE.INTRA.SOLV>
-0.170225

>  <SCORE.INTRA.SOLV.lig_0>
-40.9823

>  <SCORE.INTRA.VDW>
-1.1353

>  <SCORE.INTRA.VDW.0>
-0.53506

>  <SCORE.INTRA.norm>
-0.252318

>  <SCORE.RESTR>
0

>  <SCORE.RESTR.CAVITY>
0

>  <SCORE.RESTR.norm>
0

>  <SCORE.SYSTEM>
0

>  <SCORE.SYSTEM.CONST>
0

>  <SCORE.SYSTEM.DIHEDRAL>
0

>  <SCORE.SYSTEM.SOLV>
0

>  <SCORE.SYSTEM.norm>
0

>  <SCORE.heavy>
22

>  <SCORE.norm>
-0.831417

>  <RMSD>
4.042

$$$$
lig.pdb
 OpenBabel11021811523D
libRbt.so/2013.1/901 2013/11/27
 22 23  0  0  0  0  0  0  0  0999 V2000
   61.2332  -17.3704    8.8848 O   0  0  0  0  0  0  0  0  0  0  0  0
   61.6322  -16.2319    8.9549 C   0  0  0  0  0  0  0  0  0  0  0  0
   62.8385  -15.8848    8.5426 N   0  0  0  0  0  0  0  0  0  0  0  0
   60.7861  -15.1895    9.5530 C   0  0  0  0  0  0  0  0  0  0  0  0
   61.1487  -13.7748    9.6647 C   0  0  0  0  0  0  0  0  0  0  0  0
   62.3134  -13.2276    9.2555 N   0  0  0  0  0  0  0  0  0  0  0  0
   59.5647  -15.2647   10.1053 N   0  0  0  0  0  0  0  0  0  0  0  0
   59.1906  -14.0152   10.4973 C   0  0  0  0  0  0  0  0  0  0  0  0
   60.1515  -13.1000   10.2253 N   0  0  0  0  0  0  0  0  0  0  0  0
   60.0753  -11.6430   10.5202 C   0  0  1  0  0  0  0  0  0  0  0  0
   61.3645  -11.1969   11.1753 C   0  0  1  0  0  0  0  0  0  0  0  0
   61.6203   -9.8379   10.5771 C   0  0  2  0  0  0  0  0  0  0  0  0
   61.0146   -8.8265   11.3922 O   0  0  0  0  0  0  0  0  0  0  0  0
   61.2278  -11.1472   12.6041 O   0  0  0  0  0  0  0  0  0  0  0  0
   59.9714  -10.8986    9.3091 O   0  0  0  0  0  0  0  0  0  0  0  0
   60.9210   -9.8620    9.2428 C   0  0  2  0  0  0  0  0  0  0  0  0
   61.7906  -10.1682    8.0409 C   0  0  0  0  0  0  0  0  0  0  0  0
   62.8749   -9.2684    7.9378 O   0  0  0  0  0  0  0  0  0  0  0  0
   62.5646   -7.7296    7.6408 P   0  0  0  0  0  0  0  0  0  0  0  0
   61.4834   -7.7450    6.5789 O   0  0  0  0  0  0  0  0  0  0  0  0
   63.9047   -7.2190    7.1781 O   0  0  0  0  0  0  0  0  0  0  0  0
   62.1794   -7.1864    8.9889 O   0  0  0  0  0  0  0  0  0  0  0  0
  2  1  2  0  0  0  0
  2  4  1  0  0  0  0
  3  2  1  0  0  0  0
  4  7  1  0  0  0  0
  4  5  2  0  0  0  0
  5  6  1  0  0  0  0
  5  9  1  0  0  0  0
  7  8  2  0  0  0  0
  8  9  1  0  0  0  0
 10  9  1  6  0  0  0
 10 15  1  0  0  0  0
 11 14  1  1  0  0  0
 11 12  1  0  0  0  0
 11 10  1  0  0  0  0
 12 13  1  1  0  0  0
 12 16  1  0  0  0  0
 16 17  1  6  0  0  0
 16 15  1  0  0  0  0
 18 19  1  0  0  0  0
 18 17  1  0  0  0  0
 19 21  1  0  0  0  0
 20 19  1  0  0  0  0
 22 19  2  0  0  0  0
M  END
>  <CHROM.1>
-178.53536593,-46.29572257,-56.20063042,-42.38867581,-65.72712319,61.45116289
-11.33052063,9.28357354,-1.95956657,1.05758401,0.14704588

>  <Name>
lig.pdb

>  <RI>
0

>  <Rbt.Current_Directory>
/home/itssahil/PROJECTS/Mol_Feturizer/New_Systems/rnas/4znp

>  <Rbt.Executable>
rbdock ($Id: //depot/dev/client3/rdock/2013.1/src/exe/rbdock.cxx#4 $)

>  <Rbt.Library>
libRbt.so (2013.1, Build901 2013/11/27)

>  <Rbt.Parameter_File>
/export/apps/rDock/src/rDock_2013.1_src/data/scripts/dock_solv.prm

>  <Rbt.Receptor>
prm/pocket_docking_6.prm

>  <SCORE>
-16.787

>  <SCORE.INTER>
-12.1905

>  <SCORE.INTER.CONST>
1

>  <SCORE.INTER.POLAR>
0

>  <SCORE.INTER.ROT>
5

>  <SCORE.INTER.SOLV>
14.565

>  <SCORE.INTER.VDW>
-19.9154

>  <SCORE.INTER.norm>
-0.554114

>  <SCORE.INTRA>
-4.59652

>  <SCORE.INTRA.DIHEDRAL>
-8.78564

>  <SCORE.INTRA.DIHEDRAL.0>
11.9251

>  <SCORE.INTRA.POLAR>
0

>  <SCORE.INTRA.POLAR.0>
0

>  <SCORE.INTRA.REPUL>
0

>  <SCORE.INTRA.REPUL.0>
0

>  <SCORE.INTRA.SOLV>
3.21074

>  <SCORE.INTRA.SOLV.lig_0>
-40.9823

>  <SCORE.INTRA.VDW>
-1.80907

>  <SCORE.INTRA.VDW.0>
-0.53506

>  <SCORE.INTRA.norm>
-0.208933

>  <SCORE.RESTR>
0

>  <SCORE.RESTR.CAVITY>
0

>  <SCORE.RESTR.norm>
0

>  <SCORE.SYSTEM>
0

>  <SCORE.SYSTEM.CONST>
0

>  <SCORE.SYSTEM.DIHEDRAL>
0

>  <SCORE.SYSTEM.SOLV>
0

>  <SCORE.SYSTEM.norm>
0

>  <SCORE.heavy>
22

>  <SCORE.norm>
-0.763047

>  <RMSD>
4.072

$$$$
lig.pdb
 OpenBabel11021811523D
libRbt.so/2013.1/901 2013/11/27
 22 23  0  0  0  0  0  0  0  0999 V2000
   58.4163  -15.0729    9.8681 O   0  0  0  0  0  0  0  0  0  0  0  0
   59.5506  -15.4410    9.6722 C   0  0  0  0  0  0  0  0  0  0  0  0
   59.8332  -16.6801    9.3108 N   0  0  0  0  0  0  0  0  0  0  0  0
   60.6726  -14.5141    9.8771 C   0  0  0  0  0  0  0  0  0  0  0  0
   60.6478  -13.3479   10.7629 C   0  0  0  0  0  0  0  0  0  0  0  0
   59.5916  -12.9444   11.5012 N   0  0  0  0  0  0  0  0  0  0  0  0
   61.9054  -14.5021    9.3454 N   0  0  0  0  0  0  0  0  0  0  0  0
   62.5913  -13.4487    9.8695 C   0  0  0  0  0  0  0  0  0  0  0  0
   61.8304  -12.7435   10.7405 N   0  0  0  0  0  0  0  0  0  0  0  0
   62.2619  -11.5340   11.4930 C   0  0  1  0  0  0  0  0  0  0  0  0
   63.7493  -11.3304   11.3027 C   0  0  1  0  0  0  0  0  0  0  0  0
   63.8956   -9.8352   11.1866 C   0  0  2  0  0  0  0  0  0  0  0  0
   64.1210   -9.2671   12.4829 O   0  0  0  0  0  0  0  0  0  0  0  0
   64.4901  -11.8667   12.4100 O   0  0  0  0  0  0  0  0  0  0  0  0
   61.6342  -10.3705   10.9599 O   0  0  0  0  0  0  0  0  0  0  0  0
   62.5632   -9.3522   10.6755 C   0  0  2  0  0  0  0  0  0  0  0  0
   62.4715   -9.1078    9.1834 C   0  0  0  0  0  0  0  0  0  0  0  0
   61.6772   -7.9777    8.8870 O   0  0  0  0  0  0  0  0  0  0  0  0
   61.5235   -7.5315    7.3606 P   0  0  0  0  0  0  0  0  0  0  0  0
   60.6570   -8.6000    6.7246 O   0  0  0  0  0  0  0  0  0  0  0  0
   62.9550   -7.5091    6.8907 O   0  0  0  0  0  0  0  0  0  0  0  0
   60.9318   -6.1527    7.4595 O   0  0  0  0  0  0  0  0  0  0  0  0
  2  1  2  0  0  0  0
  2  4  1  0  0  0  0
  3  2  1  0  0  0  0
  4  7  1  0  0  0  0
  4  5  2  0  0  0  0
  5  6  1  0  0  0  0
  5  9  1  0  0  0  0
  7  8  2  0  0  0  0
  8  9  1  0  0  0  0
 10  9  1  6  0  0  0
 10 15  1  0  0  0  0
 11 14  1  1  0  0  0
 11 12  1  0  0  0  0
 11 10  1  0  0  0  0
 12 13  1  1  0  0  0
 12 16  1  0  0  0  0
 16 17  1  6  0  0  0
 16 15  1  0  0  0  0
 18 19  1  0  0  0  0
 18 17  1  0  0  0  0
 19 21  1  0  0  0  0
 20 19  1  0  0  0  0
 22 19  2  0  0  0  0
M  END
>  <CHROM.1>
24.59476616,171.92934594,-142.52135253,70.85066782,177.31880375,61.72885167
-10.99281519,9.73643568,1.85278122,0.78877275,2.63998289

>  <Name>
lig.pdb

>  <RI>
0

>  <Rbt.Current_Directory>
/home/itssahil/PROJECTS/Mol_Feturizer/New_Systems/rnas/4znp

>  <Rbt.Executable>
rbdock ($Id: //depot/dev/client3/rdock/2013.1/src/exe/rbdock.cxx#4 $)

>  <Rbt.Library>
libRbt.so (2013.1, Build901 2013/11/27)

>  <Rbt.Parameter_File>
/export/apps/rDock/src/rDock_2013.1_src/data/scripts/dock_solv.prm

>  <Rbt.Receptor>
prm/pocket_docking_6.prm

>  <SCORE>
-13.9429

>  <SCORE.INTER>
-11.6532

>  <SCORE.INTER.CONST>
1

>  <SCORE.INTER.POLAR>
0

>  <SCORE.INTER.ROT>
5

>  <SCORE.INTER.SOLV>
16.809

>  <SCORE.INTER.VDW>
-20.3052

>  <SCORE.INTER.norm>
-0.529692

>  <SCORE.INTRA>
-2.28968

>  <SCORE.INTRA.DIHEDRAL>
-3.49371

>  <SCORE.INTRA.DIHEDRAL.0>
11.9251

>  <SCORE.INTRA.POLAR>
0

>  <SCORE.INTRA.POLAR.0>
0

>  <SCORE.INTRA.REPUL>
0

>  <SCORE.INTRA.REPUL.0>
0

>  <SCORE.INTRA.SOLV>
-0.507089

>  <SCORE.INTRA.SOLV.lig_0>
-40.9823

>  <SCORE.INTRA.VDW>
-0.289287

>  <SCORE.INTRA.VDW.0>
-0.53506

>  <SCORE.INTRA.norm>
-0.104077

>  <SCORE.RESTR>
0

>  <SCORE.RESTR.CAVITY>
0

>  <SCORE.RESTR.norm>
0

>  <SCORE.SYSTEM>
0

>  <SCORE.SYSTEM.CONST>
0

>  <SCORE.SYSTEM.DIHEDRAL>
0

>  <SCORE.SYSTEM.SOLV>
0

>  <SCORE.SYSTEM.norm>
0

>  <SCORE.heavy>
22

>  <SCORE.norm>
-0.633769

>  <RMSD>
4.088

$$$$
lig.pdb
 OpenBabel11021811523D
libRbt.so/2013.1/901 2013/11/27
 22 23  0  0  0  0  0  0  0  0999 V2000
   58.1052  -15.5322    8.8681 O   0  0  0  0  0  0  0  0  0  0  0  0
   58.7624  -14.9859    9.7226 C   0  0  0  0  0  0  0  0  0  0  0  0
   59.4706  -15.6675   10.6056 N   0  0  0  0  0  0  0  0  0  0  0  0
   58.7572  -13.5203    9.8326 C   0  0  0  0  0  0  0  0  0  0  0  0
   59.1906  -12.7647   11.0101 C   0  0  0  0  0  0  0  0  0  0  0  0
   59.6369  -13.3001   12.1667 N   0  0  0  0  0  0  0  0  0  0  0  0
   58.3824  -12.5786    8.9522 N   0  0  0  0  0  0  0  0  0  0  0  0
   58.5884  -11.3554    9.5145 C   0  0  0  0  0  0  0  0  0  0  0  0
   59.0875  -11.4626   10.7693 N   0  0  0  0  0  0  0  0  0  0  0  0
   59.4285  -10.3285   11.6710 C   0  0  1  0  0  0  0  0  0  0  0  0
   60.8643  -10.4671   12.1285 C   0  0  1  0  0  0  0  0  0  0  0  0
   61.3791   -9.0510   12.1315 C   0  0  2  0  0  0  0  0  0  0  0  0
   61.1678   -8.4601   13.4201 O   0  0  0  0  0  0  0  0  0  0  0  0
   60.9364  -11.0766   13.4269 O   0  0  0  0  0  0  0  0  0  0  0  0
   59.3593   -9.0946   10.9608 O   0  0  0  0  0  0  0  0  0  0  0  0
   60.5260   -8.3246   11.1243 C   0  0  2  0  0  0  0  0  0  0  0  0
   61.1198   -8.1665    9.7397 C   0  0  0  0  0  0  0  0  0  0  0  0
   61.0999   -9.3826    9.0208 O   0  0  0  0  0  0  0  0  0  0  0  0
   62.4909  -10.0903    8.6789 P   0  0  0  0  0  0  0  0  0  0  0  0
   62.1250  -11.2737    7.8056 O   0  0  0  0  0  0  0  0  0  0  0  0
   63.0113  -10.4455   10.0478 O   0  0  0  0  0  0  0  0  0  0  0  0
   63.2886   -8.9933    8.0301 O   0  0  0  0  0  0  0  0  0  0  0  0
  2  1  2  0  0  0  0
  2  4  1  0  0  0  0
  3  2  1  0  0  0  0
  4  7  1  0  0  0  0
  4  5  2  0  0  0  0
  5  6  1  0  0  0  0
  5  9  1  0  0  0  0
  7  8  2  0  0  0  0
  8  9  1  0  0  0  0
 10  9  1  6  0  0  0
 10 15  1  0  0  0  0
 11 14  1  1  0  0  0
 11 12  1  0  0  0  0
 11 10  1  0  0  0  0
 12 13  1  1  0  0  0
 12 16  1  0  0  0  0
 16 17  1  6  0  0  0
 16 15  1  0  0  0  0
 18 19  1  0  0  0  0
 18 17  1  0  0  0  0
 19 21  1  0  0  0  0
 20 19  1  0  0  0  0
 22 19  2  0  0  0  0
M  END
>  <CHROM.1>
162.22286813,55.18366733,74.05189598,-174.78291156,-112.62070839,60.48806970
-11.08021945,10.32700921,-2.54386402,0.92840261,0.92916162

>  <Name>
lig.pdb

>  <RI>
0

>  <Rbt.Current_Directory>
/home/itssahil/PROJECTS/Mol_Feturizer/New_Systems/rnas/4znp

>  <Rbt.Executable>
rbdock ($Id: //depot/dev/client3/rdock/2013.1/src/exe/rbdock.cxx#4 $)

>  <Rbt.Library>
libRbt.so (2013.1, Build901 2013/11/27)

>  <Rbt.Parameter_File>
/export/apps/rDock/src/rDock_2013.1_src/data/scripts/dock_solv.prm

>  <Rbt.Receptor>
prm/pocket_docking_4.prm

>  <SCORE>
-4.30321

>  <SCORE.INTER>
-2.61789

>  <SCORE.INTER.CONST>
1

>  <SCORE.INTER.POLAR>
0

>  <SCORE.INTER.ROT>
5

>  <SCORE.INTER.SOLV>
16.7502

>  <SCORE.INTER.VDW>
-14.262

>  <SCORE.INTER.norm>
-0.118995

>  <SCORE.INTRA>
-1.68532

>  <SCORE.INTRA.DIHEDRAL>
-0.885446

>  <SCORE.INTRA.DIHEDRAL.0>
11.9251

>  <SCORE.INTRA.POLAR>
0

>  <SCORE.INTRA.POLAR.0>
0

>  <SCORE.INTRA.REPUL>
0

>  <SCORE.INTRA.REPUL.0>
0

>  <SCORE.INTRA.SOLV>
2.83279

>  <SCORE.INTRA.SOLV.lig_0>
-40.9823

>  <SCORE.INTRA.VDW>
-2.659

>  <SCORE.INTRA.VDW.0>
-0.53506

>  <SCORE.INTRA.norm>
-0.0766056

>  <SCORE.RESTR>
0

>  <SCORE.RESTR.CAVITY>
0

>  <SCORE.RESTR.norm>
0

>  <SCORE.SYSTEM>
0

>  <SCORE.SYSTEM.CONST>
0

>  <SCORE.SYSTEM.DIHEDRAL>
0

>  <SCORE.SYSTEM.SOLV>
0

>  <SCORE.SYSTEM.norm>
0

>  <SCORE.heavy>
22

>  <SCORE.norm>
-0.195601

>  <RMSD>
4.096

$$$$
lig.pdb
 OpenBabel11021811523D
libRbt.so/2013.1/901 2013/11/27
 22 23  0  0  0  0  0  0  0  0999 V2000
   61.6547  -16.6764    9.1378 O   0  0  0  0  0  0  0  0  0  0  0  0
   60.4897  -16.6523    9.4583 C   0  0  0  0  0  0  0  0  0  0  0  0
   59.8117  -17.7553    9.7215 N   0  0  0  0  0  0  0  0  0  0  0  0
   59.7689  -15.3730    9.5227 C   0  0  0  0  0  0  0  0  0  0  0  0
   60.3967  -14.0511    9.4617 C   0  0  0  0  0  0  0  0  0  0  0  0
   61.7221  -13.8148    9.3581 N   0  0  0  0  0  0  0  0  0  0  0  0
   58.4574  -15.1134    9.6451 N   0  0  0  0  0  0  0  0  0  0  0  0
   58.2818  -13.7629    9.6333 C   0  0  0  0  0  0  0  0  0  0  0  0
   59.4621  -13.1088    9.5154 N   0  0  0  0  0  0  0  0  0  0  0  0
   59.6388  -11.6316    9.4705 C   0  0  1  0  0  0  0  0  0  0  0  0
   59.3983  -11.0566   10.8496 C   0  0  1  0  0  0  0  0  0  0  0  0
   60.4340   -9.9690   10.9714 C   0  0  2  0  0  0  0  0  0  0  0  0
   59.8907   -8.7268   10.5069 O   0  0  0  0  0  0  0  0  0  0  0  0
   58.0596  -10.5515   10.9725 O   0  0  0  0  0  0  0  0  0  0  0  0
   60.9858  -11.3051    9.1377 O   0  0  0  0  0  0  0  0  0  0  0  0
   61.5456  -10.3843   10.0430 C   0  0  2  0  0  0  0  0  0  0  0  0
   62.7204  -11.0921   10.6860 C   0  0  0  0  0  0  0  0  0  0  0  0
   63.2543  -10.3472   11.7612 O   0  0  0  0  0  0  0  0  0  0  0  0
   64.6721  -10.7777   12.3587 P   0  0  0  0  0  0  0  0  0  0  0  0
   64.7927  -12.2577   12.0559 O   0  0  0  0  0  0  0  0  0  0  0  0
   64.5182  -10.4366   13.8184 O   0  0  0  0  0  0  0  0  0  0  0  0
   65.6373   -9.8637   11.6560 O   0  0  0  0  0  0  0  0  0  0  0  0
  2  1  2  0  0  0  0
  2  4  1  0  0  0  0
  3  2  1  0  0  0  0
  4  7  1  0  0  0  0
  4  5  2  0  0  0  0
  5  6  1  0  0  0  0
  5  9  1  0  0  0  0
  7  8  2  0  0  0  0
  8  9  1  0  0  0  0
 10  9  1  1  0  0  0
 10 15  1  0  0  0  0
 11 14  1  6  0  0  0
 11 12  1  0  0  0  0
 11 10  1  0  0  0  0
 12 13  1  6  0  0  0
 12 16  1  0  0  0  0
 16 17  1  1  0  0  0
 16 15  1  0  0  0  0
 18 19  1  0  0  0  0
 18 17  1  0  0  0  0
 19 21  1  0  0  0  0
 20 19  1  0  0  0  0
 22 19  2  0  0  0  0
M  END
>  <CHROM.1>
-11.66601681,-106.73823275,-53.37123127,-26.28047835,-167.30514303,61.43762761
-12.30483546,10.59568181,-2.28197830,-0.33054652,0.20979775

>  <Name>
lig.pdb

>  <RI>
0

>  <Rbt.Current_Directory>
/home/itssahil/PROJECTS/Mol_Feturizer/New_Systems/rnas/4znp

>  <Rbt.Executable>
rbdock ($Id: //depot/dev/client3/rdock/2013.1/src/exe/rbdock.cxx#4 $)

>  <Rbt.Library>
libRbt.so (2013.1, Build901 2013/11/27)

>  <Rbt.Parameter_File>
/export/apps/rDock/src/rDock_2013.1_src/data/scripts/dock_solv.prm

>  <Rbt.Receptor>
prm/pocket_docking_8.prm

>  <SCORE>
-15.764

>  <SCORE.INTER>
-11.9727

>  <SCORE.INTER.CONST>
1

>  <SCORE.INTER.POLAR>
0

>  <SCORE.INTER.ROT>
5

>  <SCORE.INTER.SOLV>
18.5138

>  <SCORE.INTER.VDW>
-21.0864

>  <SCORE.INTER.norm>
-0.544215

>  <SCORE.INTRA>
-3.79131

>  <SCORE.INTRA.DIHEDRAL>
-6.69898

>  <SCORE.INTRA.DIHEDRAL.0>
11.9251

>  <SCORE.INTRA.POLAR>
0

>  <SCORE.INTRA.POLAR.0>
0

>  <SCORE.INTRA.REPUL>
0

>  <SCORE.INTRA.REPUL.0>
0

>  <SCORE.INTRA.SOLV>
0.857837

>  <SCORE.INTRA.SOLV.lig_0>
-40.9823

>  <SCORE.INTRA.VDW>
-0.870737

>  <SCORE.INTRA.VDW.0>
-0.53506

>  <SCORE.INTRA.norm>
-0.172332

>  <SCORE.RESTR>
0

>  <SCORE.RESTR.CAVITY>
0

>  <SCORE.RESTR.norm>
0

>  <SCORE.SYSTEM>
0

>  <SCORE.SYSTEM.CONST>
0

>  <SCORE.SYSTEM.DIHEDRAL>
0

>  <SCORE.SYSTEM.SOLV>
0

>  <SCORE.SYSTEM.norm>
0

>  <SCORE.heavy>
22

>  <SCORE.norm>
-0.716548

>  <RMSD>
4.119

$$$$
lig.pdb
 OpenBabel11021811523D
libRbt.so/2013.1/901 2013/11/27
 22 23  0  0  0  0  0  0  0  0999 V2000
   58.1003  -15.8277    9.0916 O   0  0  0  0  0  0  0  0  0  0  0  0
   59.2182  -15.8974    9.5454 C   0  0  0  0  0  0  0  0  0  0  0  0
   59.8095  -17.0557    9.7785 N   0  0  0  0  0  0  0  0  0  0  0  0
   59.9485  -14.6718    9.8986 C   0  0  0  0  0  0  0  0  0  0  0  0
   59.4269  -13.3111    9.7510 C   0  0  0  0  0  0  0  0  0  0  0  0
   58.2148  -12.9839    9.2539 N   0  0  0  0  0  0  0  0  0  0  0  0
   61.1806  -14.5029   10.4043 N   0  0  0  0  0  0  0  0  0  0  0  0
   61.3958  -13.1698   10.5812 C   0  0  0  0  0  0  0  0  0  0  0  0
   60.3259  -12.4371   10.1895 N   0  0  0  0  0  0  0  0  0  0  0  0
   60.2193  -10.9535   10.2432 C   0  0  1  0  0  0  0  0  0  0  0  0
   58.9140  -10.5691   10.9056 C   0  0  1  0  0  0  0  0  0  0  0  0
   59.2757   -9.3709   11.7445 C   0  0  2  0  0  0  0  0  0  0  0  0
   59.0868   -8.1707   10.9843 O   0  0  0  0  0  0  0  0  0  0  0  0
   57.9075  -10.2662    9.9269 O   0  0  0  0  0  0  0  0  0  0  0  0
   61.2513  -10.4135   11.0649 O   0  0  0  0  0  0  0  0  0  0  0  0
   60.7455   -9.5289   12.0356 C   0  0  2  0  0  0  0  0  0  0  0  0
   61.0967  -10.1364   13.3780 C   0  0  0  0  0  0  0  0  0  0  0  0
   60.5429  -11.4275   13.5281 O   0  0  0  0  0  0  0  0  0  0  0  0
   59.2779  -11.6090   14.4870 P   0  0  0  0  0  0  0  0  0  0  0  0
   58.1789  -10.7846   13.8473 O   0  0  0  0  0  0  0  0  0  0  0  0
   59.7941  -11.0747   15.7980 O   0  0  0  0  0  0  0  0  0  0  0  0
   59.0749  -13.0985   14.5160 O   0  0  0  0  0  0  0  0  0  0  0  0
  2  1  2  0  0  0  0
  2  4  1  0  0  0  0
  3  2  1  0  0  0  0
  4  7  1  0  0  0  0
  4  5  2  0  0  0  0
  5  6  1  0  0  0  0
  5  9  1  0  0  0  0
  7  8  2  0  0  0  0
  8  9  1  0  0  0  0
 10  9  1  1  0  0  0
 10 15  1  0  0  0  0
 11 14  1  6  0  0  0
 11 12  1  0  0  0  0
 11 10  1  0  0  0  0
 12 13  1  6  0  0  0
 12 16  1  0  0  0  0
 16 17  1  1  0  0  0
 16 15  1  0  0  0  0
 18 19  1  0  0  0  0
 18 17  1  0  0  0  0
 19 21  1  0  0  0  0
 20 19  1  0  0  0  0
 22 19  2  0  0  0  0
M  END
>  <CHROM.1>
0.21835014,49.93526969,59.10407346,63.27772741,-105.43117700,59.63564634
-12.05986427,11.64560566,-2.23651326,-1.51714437,0.00346280

>  <Name>
lig.pdb

>  <RI>
0

>  <Rbt.Current_Directory>
/home/itssahil/PROJECTS/Mol_Feturizer/New_Systems/rnas/4znp

>  <Rbt.Executable>
rbdock ($Id: //depot/dev/client3/rdock/2013.1/src/exe/rbdock.cxx#4 $)

>  <Rbt.Library>
libRbt.so (2013.1, Build901 2013/11/27)

>  <Rbt.Parameter_File>
/export/apps/rDock/src/rDock_2013.1_src/data/scripts/dock_solv.prm

>  <Rbt.Receptor>
prm/pocket_docking_7.prm

>  <SCORE>
-10.7032

>  <SCORE.INTER>
-7.99924

>  <SCORE.INTER.CONST>
1

>  <SCORE.INTER.POLAR>
0

>  <SCORE.INTER.ROT>
5

>  <SCORE.INTER.SOLV>
18.498

>  <SCORE.INTER.VDW>
-18.4322

>  <SCORE.INTER.norm>
-0.363602

>  <SCORE.INTRA>
-2.70397

>  <SCORE.INTRA.DIHEDRAL>
-3.2507

>  <SCORE.INTRA.DIHEDRAL.0>
11.9251

>  <SCORE.INTRA.POLAR>
0

>  <SCORE.INTRA.POLAR.0>
0

>  <SCORE.INTRA.REPUL>
0

>  <SCORE.INTRA.REPUL.0>
0

>  <SCORE.INTRA.SOLV>
2.08747

>  <SCORE.INTRA.SOLV.lig_0>
-40.9823

>  <SCORE.INTRA.VDW>
-2.12236

>  <SCORE.INTRA.VDW.0>
-0.53506

>  <SCORE.INTRA.norm>
-0.122908

>  <SCORE.RESTR>
0

>  <SCORE.RESTR.CAVITY>
0

>  <SCORE.RESTR.norm>
0

>  <SCORE.SYSTEM>
0

>  <SCORE.SYSTEM.CONST>
0

>  <SCORE.SYSTEM.DIHEDRAL>
0

>  <SCORE.SYSTEM.SOLV>
0

>  <SCORE.SYSTEM.norm>
0

>  <SCORE.heavy>
22

>  <SCORE.norm>
-0.486509

>  <RMSD>
4.187

$$$$
lig.pdb
 OpenBabel11021811523D
libRbt.so/2013.1/901 2013/11/27
 22 23  0  0  0  0  0  0  0  0999 V2000
   62.9342  -15.6343    8.5139 O   0  0  0  0  0  0  0  0  0  0  0  0
   61.8723  -15.9520    8.9955 C   0  0  0  0  0  0  0  0  0  0  0  0
   61.3993  -17.1821    8.9012 N   0  0  0  0  0  0  0  0  0  0  0  0
   61.0410  -14.9483    9.6751 C   0  0  0  0  0  0  0  0  0  0  0  0
   61.3344  -13.5145    9.7332 C   0  0  0  0  0  0  0  0  0  0  0  0
   62.4143  -12.9109    9.1918 N   0  0  0  0  0  0  0  0  0  0  0  0
   59.8945  -15.0815   10.3608 N   0  0  0  0  0  0  0  0  0  0  0  0
   59.4971  -13.8486   10.7811 C   0  0  0  0  0  0  0  0  0  0  0  0
   60.3695  -12.8866   10.3956 N   0  0  0  0  0  0  0  0  0  0  0  0
   60.2454  -11.4317   10.6843 C   0  0  1  0  0  0  0  0  0  0  0  0
   61.5493  -10.9227   11.2596 C   0  0  1  0  0  0  0  0  0  0  0  0
   61.7087   -9.5594   10.6380 C   0  0  2  0  0  0  0  0  0  0  0  0
   61.1069   -8.5682   11.4802 O   0  0  0  0  0  0  0  0  0  0  0  0
   61.4940  -10.8655   12.6936 O   0  0  0  0  0  0  0  0  0  0  0  0
   60.0380  -10.7043    9.4762 O   0  0  0  0  0  0  0  0  0  0  0  0
   60.9347   -9.6273    9.3472 C   0  0  2  0  0  0  0  0  0  0  0  0
   61.7457   -9.9061    8.0986 C   0  0  0  0  0  0  0  0  0  0  0  0
   62.7183   -8.9065    7.8733 O   0  0  0  0  0  0  0  0  0  0  0  0
   62.2290   -7.4492    7.4381 P   0  0  0  0  0  0  0  0  0  0  0  0
   61.2046   -7.6886    6.3471 O   0  0  0  0  0  0  0  0  0  0  0  0
   63.5124   -6.8079    6.9772 O   0  0  0  0  0  0  0  0  0  0  0  0
   61.7212   -6.8552    8.7226 O   0  0  0  0  0  0  0  0  0  0  0  0
  2  1  2  0  0  0  0
  2  4  1  0  0  0  0
  3  2  1  0  0  0  0
  4  7  1  0  0  0  0
  4  5  2  0  0  0  0
  5  6  1  0  0  0  0
  5  9  1  0  0  0  0
  7  8  2  0  0  0  0
  8  9  1  0  0  0  0
 10  9  1  6  0  0  0
 10 15  1  0  0  0  0
 11 14  1  1  0  0  0
 11 12  1  0  0  0  0
 11 10  1  0  0  0  0
 12 13  1  1  0  0  0
 12 16  1  0  0  0  0
 16 17  1  6  0  0  0
 16 15  1  0  0  0  0
 18 19  1  0  0  0  0
 18 17  1  0  0  0  0
 19 21  1  0  0  0  0
 20 19  1  0  0  0  0
 22 19  2  0  0  0  0
M  END
>  <CHROM.1>
5.54343108,-49.40000301,-60.46324610,-46.30415470,-69.62845654,61.47981023
-11.06752309,9.29524613,-1.88517533,1.17489278,0.06126364

>  <Name>
lig.pdb

>  <RI>
0

>  <Rbt.Current_Directory>
/home/itssahil/PROJECTS/Mol_Feturizer/New_Systems/rnas/4znp

>  <Rbt.Executable>
rbdock ($Id: //depot/dev/client3/rdock/2013.1/src/exe/rbdock.cxx#4 $)

>  <Rbt.Library>
libRbt.so (2013.1, Build901 2013/11/27)

>  <Rbt.Parameter_File>
/export/apps/rDock/src/rDock_2013.1_src/data/scripts/dock_solv.prm

>  <Rbt.Receptor>
prm/pocket_docking_8.prm

>  <SCORE>
-16.8944

>  <SCORE.INTER>
-11.9772

>  <SCORE.INTER.CONST>
1

>  <SCORE.INTER.POLAR>
0

>  <SCORE.INTER.ROT>
5

>  <SCORE.INTER.SOLV>
14.272

>  <SCORE.INTER.VDW>
-19.6754

>  <SCORE.INTER.norm>
-0.544417

>  <SCORE.INTRA>
-4.91721

>  <SCORE.INTRA.DIHEDRAL>
-8.60068

>  <SCORE.INTRA.DIHEDRAL.0>
11.9251

>  <SCORE.INTRA.POLAR>
0

>  <SCORE.INTRA.POLAR.0>
0

>  <SCORE.INTRA.REPUL>
0

>  <SCORE.INTRA.REPUL.0>
0

>  <SCORE.INTRA.SOLV>
2.73596

>  <SCORE.INTRA.SOLV.lig_0>
-40.9823

>  <SCORE.INTRA.VDW>
-1.98485

>  <SCORE.INTRA.VDW.0>
-0.53506

>  <SCORE.INTRA.norm>
-0.223509

>  <SCORE.RESTR>
0

>  <SCORE.RESTR.CAVITY>
0

>  <SCORE.RESTR.norm>
0

>  <SCORE.SYSTEM>
0

>  <SCORE.SYSTEM.CONST>
0

>  <SCORE.SYSTEM.DIHEDRAL>
0

>  <SCORE.SYSTEM.SOLV>
0

>  <SCORE.SYSTEM.norm>
0

>  <SCORE.heavy>
22

>  <SCORE.norm>
-0.767927

>  <RMSD>
4.232

$$$$
lig.pdb
 OpenBabel11021811523D
libRbt.so/2013.1/901 2013/11/27
 22 23  0  0  0  0  0  0  0  0999 V2000
   62.9349  -15.6444    8.5099 O   0  0  0  0  0  0  0  0  0  0  0  0
   61.8673  -15.9486    8.9876 C   0  0  0  0  0  0  0  0  0  0  0  0
   61.3775  -17.1717    8.8884 N   0  0  0  0  0  0  0  0  0  0  0  0
   61.0481  -14.9354    9.6678 C   0  0  0  0  0  0  0  0  0  0  0  0
   61.3556  -13.5044    9.7217 C   0  0  0  0  0  0  0  0  0  0  0  0
   62.4394  -12.9125    9.1753 N   0  0  0  0  0  0  0  0  0  0  0  0
   59.9028  -15.0560   10.3578 N   0  0  0  0  0  0  0  0  0  0  0  0
   59.5188  -13.8184   10.7767 C   0  0  0  0  0  0  0  0  0  0  0  0
   60.3991  -12.8657   10.3861 N   0  0  0  0  0  0  0  0  0  0  0  0
   60.2902  -11.4091   10.6720 C   0  0  1  0  0  0  0  0  0  0  0  0
   61.5856  -10.9208   11.2832 C   0  0  1  0  0  0  0  0  0  0  0  0
   61.7836   -9.5602   10.6670 C   0  0  2  0  0  0  0  0  0  0  0  0
   61.1745   -8.5596   11.4927 O   0  0  0  0  0  0  0  0  0  0  0  0
   61.4917  -10.8628   12.7151 O   0  0  0  0  0  0  0  0  0  0  0  0
   60.1276  -10.6784    9.4590 O   0  0  0  0  0  0  0  0  0  0  0  0
   61.0445   -9.6157    9.3553 C   0  0  2  0  0  0  0  0  0  0  0  0
   61.8851   -9.9073    8.1293 C   0  0  0  0  0  0  0  0  0  0  0  0
   62.9058   -8.9461    7.9550 O   0  0  0  0  0  0  0  0  0  0  0  0
   62.4893   -7.4487    7.5850 P   0  0  0  0  0  0  0  0  0  0  0  0
   61.5031   -7.5864    6.4425 O   0  0  0  0  0  0  0  0  0  0  0  0
   63.8137   -6.8336    7.2127 O   0  0  0  0  0  0  0  0  0  0  0  0
   61.9509   -6.9076    8.8804 O   0  0  0  0  0  0  0  0  0  0  0  0
  2  1  2  0  0  0  0
  2  4  1  0  0  0  0
  3  2  1  0  0  0  0
  4  7  1  0  0  0  0
  4  5  2  0  0  0  0
  5  6  1  0  0  0  0
  5  9  1  0  0  0  0
  7  8  2  0  0  0  0
  8  9  1  0  0  0  0
 10  9  1  6  0  0  0
 10 15  1  0  0  0  0
 11 14  1  1  0  0  0
 11 12  1  0  0  0  0
 11 10  1  0  0  0  0
 12 13  1  1  0  0  0
 12 16  1  0  0  0  0
 16 17  1  6  0  0  0
 16 15  1  0  0  0  0
 18 19  1  0  0  0  0
 18 17  1  0  0  0  0
 19 21  1  0  0  0  0
 20 19  1  0  0  0  0
 22 19  2  0  0  0  0
M  END
>  <CHROM.1>
6.06630841,-51.21725955,-58.62190195,-48.45065530,-67.34602703,61.58090996
-11.06107448,9.33757699,-1.93036083,1.13186270,0.11668115

>  <Name>
lig.pdb

>  <RI>
0

>  <Rbt.Current_Directory>
/home/itssahil/PROJECTS/Mol_Feturizer/New_Systems/rnas/4znp

>  <Rbt.Executable>
rbdock ($Id: //depot/dev/client3/rdock/2013.1/src/exe/rbdock.cxx#4 $)

>  <Rbt.Library>
libRbt.so (2013.1, Build901 2013/11/27)

>  <Rbt.Parameter_File>
/export/apps/rDock/src/rDock_2013.1_src/data/scripts/dock_solv.prm

>  <Rbt.Receptor>
prm/pocket_docking_8.prm

>  <SCORE>
-16.7814

>  <SCORE.INTER>
-11.8509

>  <SCORE.INTER.CONST>
1

>  <SCORE.INTER.POLAR>
0

>  <SCORE.INTER.ROT>
5

>  <SCORE.INTER.SOLV>
13.9319

>  <SCORE.INTER.VDW>
-19.4779

>  <SCORE.INTER.norm>
-0.538677

>  <SCORE.INTRA>
-4.9305

>  <SCORE.INTRA.DIHEDRAL>
-8.84011

>  <SCORE.INTRA.DIHEDRAL.0>
11.9251

>  <SCORE.INTRA.POLAR>
0

>  <SCORE.INTRA.POLAR.0>
0

>  <SCORE.INTRA.REPUL>
0

>  <SCORE.INTRA.REPUL.0>
0

>  <SCORE.INTRA.SOLV>
2.89846

>  <SCORE.INTRA.SOLV.lig_0>
-40.9823

>  <SCORE.INTRA.VDW>
-1.95968

>  <SCORE.INTRA.VDW.0>
-0.53506

>  <SCORE.INTRA.norm>
-0.224114

>  <SCORE.RESTR>
0

>  <SCORE.RESTR.CAVITY>
0

>  <SCORE.RESTR.norm>
0

>  <SCORE.SYSTEM>
0

>  <SCORE.SYSTEM.CONST>
0

>  <SCORE.SYSTEM.DIHEDRAL>
0

>  <SCORE.SYSTEM.SOLV>
0

>  <SCORE.SYSTEM.norm>
0

>  <SCORE.heavy>
22

>  <SCORE.norm>
-0.762791

>  <RMSD>
4.248

$$$$
lig.pdb
 OpenBabel11021811523D
libRbt.so/2013.1/901 2013/11/27
 22 23  0  0  0  0  0  0  0  0999 V2000
   63.3797  -12.9410    8.2241 O   0  0  0  0  0  0  0  0  0  0  0  0
   62.7690  -13.9751    8.3582 C   0  0  0  0  0  0  0  0  0  0  0  0
   63.1442  -15.0935    7.7631 N   0  0  0  0  0  0  0  0  0  0  0  0
   61.5427  -14.0077    9.1678 C   0  0  0  0  0  0  0  0  0  0  0  0
   60.9364  -12.8455    9.8213 C   0  0  0  0  0  0  0  0  0  0  0  0
   61.4221  -11.5859    9.7926 N   0  0  0  0  0  0  0  0  0  0  0  0
   60.7335  -15.0298    9.4886 N   0  0  0  0  0  0  0  0  0  0  0  0
   59.7081  -14.5478   10.2442 C   0  0  0  0  0  0  0  0  0  0  0  0
   59.8233  -13.2132   10.4457 N   0  0  0  0  0  0  0  0  0  0  0  0
   58.8803  -12.3652   11.2248 C   0  0  1  0  0  0  0  0  0  0  0  0
   59.6412  -11.6423   12.3150 C   0  0  1  0  0  0  0  0  0  0  0  0
   59.0072  -10.2758   12.3505 C   0  0  2  0  0  0  0  0  0  0  0  0
   57.9237  -10.2672   13.2885 O   0  0  0  0  0  0  0  0  0  0  0  0
   59.5246  -12.3305   13.5701 O   0  0  0  0  0  0  0  0  0  0  0  0
   58.3259  -11.3497   10.3923 O   0  0  0  0  0  0  0  0  0  0  0  0
   58.4467  -10.0707   10.9671 C   0  0  2  0  0  0  0  0  0  0  0  0
   59.3043   -9.2638   10.0143 C   0  0  0  0  0  0  0  0  0  0  0  0
   59.5104   -7.9474   10.4841 O   0  0  0  0  0  0  0  0  0  0  0  0
   60.1831   -6.8824    9.5013 P   0  0  0  0  0  0  0  0  0  0  0  0
   61.4443   -7.5550    8.9975 O   0  0  0  0  0  0  0  0  0  0  0  0
   60.4101   -5.7061   10.4153 O   0  0  0  0  0  0  0  0  0  0  0  0
   59.1065   -6.6187    8.4854 O   0  0  0  0  0  0  0  0  0  0  0  0
  2  1  2  0  0  0  0
  2  4  1  0  0  0  0
  3  2  1  0  0  0  0
  4  7  1  0  0  0  0
  4  5  2  0  0  0  0
  5  6  1  0  0  0  0
  5  9  1  0  0  0  0
  7  8  2  0  0  0  0
  8  9  1  0  0  0  0
 10  9  1  6  0  0  0
 10 15  1  0  0  0  0
 11 14  1  1  0  0  0
 11 12  1  0  0  0  0
 11 10  1  0  0  0  0
 12 13  1  1  0  0  0
 12 16  1  0  0  0  0
 16 17  1  6  0  0  0
 16 15  1  0  0  0  0
 18 19  1  0  0  0  0
 18 17  1  0  0  0  0
 19 21  1  0  0  0  0
 20 19  1  0  0  0  0
 22 19  2  0  0  0  0
M  END
>  <CHROM.1>
2.27048574,-55.48948542,-61.72845241,-51.64676528,-169.98166215,60.20751041
-10.79817984,10.21780559,-1.20349435,0.84752622,-0.19392467

>  <Name>
lig.pdb

>  <RI>
0

>  <Rbt.Current_Directory>
/home/itssahil/PROJECTS/Mol_Feturizer/New_Systems/rnas/4znp

>  <Rbt.Executable>
rbdock ($Id: //depot/dev/client3/rdock/2013.1/src/exe/rbdock.cxx#4 $)

>  <Rbt.Library>
libRbt.so (2013.1, Build901 2013/11/27)

>  <Rbt.Parameter_File>
/export/apps/rDock/src/rDock_2013.1_src/data/scripts/dock_solv.prm

>  <Rbt.Receptor>
prm/pocket_docking_3.prm

>  <SCORE>
-9.43571

>  <SCORE.INTER>
-3.73126

>  <SCORE.INTER.CONST>
1

>  <SCORE.INTER.POLAR>
0

>  <SCORE.INTER.ROT>
5

>  <SCORE.INTER.SOLV>
12.9879

>  <SCORE.INTER.VDW>
-13.7501

>  <SCORE.INTER.norm>
-0.169603

>  <SCORE.INTRA>
-5.70444

>  <SCORE.INTRA.DIHEDRAL>
-8.84767

>  <SCORE.INTRA.DIHEDRAL.0>
11.9251

>  <SCORE.INTRA.POLAR>
0

>  <SCORE.INTRA.POLAR.0>
0

>  <SCORE.INTRA.REPUL>
0

>  <SCORE.INTRA.REPUL.0>
0

>  <SCORE.INTRA.SOLV>
1.12315

>  <SCORE.INTRA.SOLV.lig_0>
-40.9823

>  <SCORE.INTRA.VDW>
-1.84219

>  <SCORE.INTRA.VDW.0>
-0.53506

>  <SCORE.INTRA.norm>
-0.259293

>  <SCORE.RESTR>
0

>  <SCORE.RESTR.CAVITY>
0

>  <SCORE.RESTR.norm>
0

>  <SCORE.SYSTEM>
0

>  <SCORE.SYSTEM.CONST>
0

>  <SCORE.SYSTEM.DIHEDRAL>
0

>  <SCORE.SYSTEM.SOLV>
0

>  <SCORE.SYSTEM.norm>
0

>  <SCORE.heavy>
22

>  <SCORE.norm>
-0.428896

>  <RMSD>
4.431

$$$$
lig.pdb
 OpenBabel11021811523D
libRbt.so/2013.1/901 2013/11/27
 22 23  0  0  0  0  0  0  0  0999 V2000
   63.1444  -15.1618    7.9186 O   0  0  0  0  0  0  0  0  0  0  0  0
   62.2594  -15.5942    8.6188 C   0  0  0  0  0  0  0  0  0  0  0  0
   61.9733  -16.8830    8.6719 N   0  0  0  0  0  0  0  0  0  0  0  0
   61.4320  -14.6752    9.4132 C   0  0  0  0  0  0  0  0  0  0  0  0
   61.5791  -13.2181    9.4351 C   0  0  0  0  0  0  0  0  0  0  0  0
   62.5027  -12.5113    8.7490 N   0  0  0  0  0  0  0  0  0  0  0  0
   60.4139  -14.9196   10.2536 N   0  0  0  0  0  0  0  0  0  0  0  0
   59.9531  -13.7303   10.7309 C   0  0  0  0  0  0  0  0  0  0  0  0
   60.6569  -12.6869   10.2299 N   0  0  0  0  0  0  0  0  0  0  0  0
   60.4235  -11.2499   10.5392 C   0  0  1  0  0  0  0  0  0  0  0  0
   61.7553  -10.5526   10.7135 C   0  0  1  0  0  0  0  0  0  0  0  0
   61.5436   -9.2069   10.0696 C   0  0  2  0  0  0  0  0  0  0  0  0
   61.0778   -8.2684   11.0475 O   0  0  0  0  0  0  0  0  0  0  0  0
   62.1039  -10.4442   12.1025 O   0  0  0  0  0  0  0  0  0  0  0  0
   59.7831  -10.6058    9.4406 O   0  0  0  0  0  0  0  0  0  0  0  0
   60.4505   -9.4277    9.0566 C   0  0  2  0  0  0  0  0  0  0  0  0
   60.9019   -9.6500    7.6279 C   0  0  0  0  0  0  0  0  0  0  0  0
   61.0707   -8.4291    6.9373 O   0  0  0  0  0  0  0  0  0  0  0  0
   62.2431   -7.4466    7.3987 P   0  0  0  0  0  0  0  0  0  0  0  0
   61.6547   -6.6424    8.5407 O   0  0  0  0  0  0  0  0  0  0  0  0
   62.5138   -6.6626    6.1407 O   0  0  0  0  0  0  0  0  0  0  0  0
   63.3672   -8.3843    7.7420 O   0  0  0  0  0  0  0  0  0  0  0  0
  2  1  2  0  0  0  0
  2  4  1  0  0  0  0
  3  2  1  0  0  0  0
  4  7  1  0  0  0  0
  4  5  2  0  0  0  0
  5  6  1  0  0  0  0
  5  9  1  0  0  0  0
  7  8  2  0  0  0  0
  8  9  1  0  0  0  0
 10  9  1  6  0  0  0
 10 15  1  0  0  0  0
 11 14  1  1  0  0  0
 11 12  1  0  0  0  0
 11 10  1  0  0  0  0
 12 13  1  1  0  0  0
 12 16  1  0  0  0  0
 16 17  1  6  0  0  0
 16 15  1  0  0  0  0
 18 19  1  0  0  0  0
 18 17  1  0  0  0  0
 19 21  1  0  0  0  0
 20 19  1  0  0  0  0
 22 19  2  0  0  0  0
M  END
>  <CHROM.1>
0.28465270,-40.58728330,-86.75582067,-84.59541109,66.86109387,61.55165685
-10.86007752,9.02696613,-1.68820427,1.15388580,-0.09514481

>  <Name>
lig.pdb

>  <RI>
0

>  <Rbt.Current_Directory>
/home/itssahil/PROJECTS/Mol_Feturizer/New_Systems/rnas/4znp

>  <Rbt.Executable>
rbdock ($Id: //depot/dev/client3/rdock/2013.1/src/exe/rbdock.cxx#4 $)

>  <Rbt.Library>
libRbt.so (2013.1, Build901 2013/11/27)

>  <Rbt.Parameter_File>
/export/apps/rDock/src/rDock_2013.1_src/data/scripts/dock_solv.prm

>  <Rbt.Receptor>
prm/pocket_docking_6.prm

>  <SCORE>
-14.4904

>  <SCORE.INTER>
-11.328

>  <SCORE.INTER.CONST>
1

>  <SCORE.INTER.POLAR>
0

>  <SCORE.INTER.ROT>
5

>  <SCORE.INTER.SOLV>
15.5111

>  <SCORE.INTER.VDW>
-19.6557

>  <SCORE.INTER.norm>
-0.514909

>  <SCORE.INTRA>
-3.16238

>  <SCORE.INTRA.DIHEDRAL>
-6.29114

>  <SCORE.INTRA.DIHEDRAL.0>
11.9251

>  <SCORE.INTRA.POLAR>
0

>  <SCORE.INTRA.POLAR.0>
0

>  <SCORE.INTRA.REPUL>
0

>  <SCORE.INTRA.REPUL.0>
0

>  <SCORE.INTRA.SOLV>
3.34068

>  <SCORE.INTRA.SOLV.lig_0>
-40.9823

>  <SCORE.INTRA.VDW>
-1.68715

>  <SCORE.INTRA.VDW.0>
-0.53506

>  <SCORE.INTRA.norm>
-0.143744

>  <SCORE.RESTR>
0

>  <SCORE.RESTR.CAVITY>
0

>  <SCORE.RESTR.norm>
0

>  <SCORE.SYSTEM>
0

>  <SCORE.SYSTEM.CONST>
0

>  <SCORE.SYSTEM.DIHEDRAL>
0

>  <SCORE.SYSTEM.SOLV>
0

>  <SCORE.SYSTEM.norm>
0

>  <SCORE.heavy>
22

>  <SCORE.norm>
-0.658653

>  <RMSD>
4.456

$$$$
lig.pdb
 OpenBabel11021811523D
libRbt.so/2013.1/901 2013/11/27
 22 23  0  0  0  0  0  0  0  0999 V2000
   63.7895  -16.3640    8.0462 O   0  0  0  0  0  0  0  0  0  0  0  0
   62.7117  -16.0467    8.4914 C   0  0  0  0  0  0  0  0  0  0  0  0
   61.7982  -16.9423    8.8218 N   0  0  0  0  0  0  0  0  0  0  0  0
   62.3640  -14.6264    8.6394 C   0  0  0  0  0  0  0  0  0  0  0  0
   61.1603  -14.1210    9.3036 C   0  0  0  0  0  0  0  0  0  0  0  0
   60.1903  -14.8806    9.8562 N   0  0  0  0  0  0  0  0  0  0  0  0
   63.0096  -13.5212    8.2343 N   0  0  0  0  0  0  0  0  0  0  0  0
   62.2936  -12.4329    8.6315 C   0  0  0  0  0  0  0  0  0  0  0  0
   61.1660  -12.7928    9.2903 N   0  0  0  0  0  0  0  0  0  0  0  0
   60.1549  -11.8610    9.8601 C   0  0  1  0  0  0  0  0  0  0  0  0
   60.5323  -11.5240   11.2863 C   0  0  1  0  0  0  0  0  0  0  0  0
   60.1863  -10.0631   11.4143 C   0  0  2  0  0  0  0  0  0  0  0  0
   58.8385   -9.9222   11.8809 O   0  0  0  0  0  0  0  0  0  0  0  0
   59.8072  -12.3402   12.2193 O   0  0  0  0  0  0  0  0  0  0  0  0
   60.1648  -10.6260    9.1483 O   0  0  0  0  0  0  0  0  0  0  0  0
   60.2683   -9.5193   10.0116 C   0  0  2  0  0  0  0  0  0  0  0  0
   61.5611   -8.8213    9.6428 C   0  0  0  0  0  0  0  0  0  0  0  0
   61.5294   -8.3281    8.3192 O   0  0  0  0  0  0  0  0  0  0  0  0
   62.7790   -7.4863    7.7879 P   0  0  0  0  0  0  0  0  0  0  0  0
   62.9231   -6.3377    8.7661 O   0  0  0  0  0  0  0  0  0  0  0  0
   62.3310   -7.0922    6.4041 O   0  0  0  0  0  0  0  0  0  0  0  0
   63.8928   -8.4960    7.7631 O   0  0  0  0  0  0  0  0  0  0  0  0
  2  1  2  0  0  0  0
  2  4  1  0  0  0  0
  3  2  1  0  0  0  0
  4  7  1  0  0  0  0
  4  5  2  0  0  0  0
  5  6  1  0  0  0  0
  5  9  1  0  0  0  0
  7  8  2  0  0  0  0
  8  9  1  0  0  0  0
 10  9  1  6  0  0  0
 10 15  1  0  0  0  0
 11 14  1  1  0  0  0
 11 12  1  0  0  0  0
 11 10  1  0  0  0  0
 12 13  1  6  0  0  0
 12 16  1  0  0  0  0
 16 17  1  1  0  0  0
 16 15  1  0  0  0  0
 18 19  1  0  0  0  0
 18 17  1  0  0  0  0
 19 21  1  0  0  0  0
 20 19  1  0  0  0  0
 22 19  2  0  0  0  0
M  END
>  <CHROM.1>
-172.62650986,90.73600429,-178.94866475,-56.67737000,176.45823931,61.59428196
-11.21079606,9.17276968,-1.63265490,0.80570569,-0.05727544

>  <Name>
lig.pdb

>  <RI>
0

>  <Rbt.Current_Directory>
/home/itssahil/PROJECTS/Mol_Feturizer/New_Systems/rnas/4znp

>  <Rbt.Executable>
rbdock ($Id: //depot/dev/client3/rdock/2013.1/src/exe/rbdock.cxx#4 $)

>  <Rbt.Library>
libRbt.so (2013.1, Build901 2013/11/27)

>  <Rbt.Parameter_File>
/export/apps/rDock/src/rDock_2013.1_src/data/scripts/dock_solv.prm

>  <Rbt.Receptor>
prm/pocket_docking_5.prm

>  <SCORE>
-16.6633

>  <SCORE.INTER>
-10.708

>  <SCORE.INTER.CONST>
1

>  <SCORE.INTER.POLAR>
0

>  <SCORE.INTER.ROT>
5

>  <SCORE.INTER.SOLV>
17.4384

>  <SCORE.INTER.VDW>
-19.8848

>  <SCORE.INTER.norm>
-0.486727

>  <SCORE.INTRA>
-5.95527

>  <SCORE.INTRA.DIHEDRAL>
-9.20967

>  <SCORE.INTRA.DIHEDRAL.0>
11.9251

>  <SCORE.INTRA.POLAR>
0

>  <SCORE.INTRA.POLAR.0>
0

>  <SCORE.INTRA.REPUL>
0

>  <SCORE.INTRA.REPUL.0>
0

>  <SCORE.INTRA.SOLV>
0.36183

>  <SCORE.INTRA.SOLV.lig_0>
-40.9823

>  <SCORE.INTRA.VDW>
-1.53135

>  <SCORE.INTRA.VDW.0>
-0.53506

>  <SCORE.INTRA.norm>
-0.270694

>  <SCORE.RESTR>
0

>  <SCORE.RESTR.CAVITY>
0

>  <SCORE.RESTR.norm>
0

>  <SCORE.SYSTEM>
0

>  <SCORE.SYSTEM.CONST>
0

>  <SCORE.SYSTEM.DIHEDRAL>
0

>  <SCORE.SYSTEM.SOLV>
0

>  <SCORE.SYSTEM.norm>
0

>  <SCORE.heavy>
22

>  <SCORE.norm>
-0.757421

>  <RMSD>
4.504

$$$$
lig.pdb
 OpenBabel11021811523D
libRbt.so/2013.1/901 2013/11/27
 22 23  0  0  0  0  0  0  0  0999 V2000
   58.8228  -18.2532    8.6128 O   0  0  0  0  0  0  0  0  0  0  0  0
   57.7790  -17.6459    8.6598 C   0  0  0  0  0  0  0  0  0  0  0  0
   56.6150  -18.2347    8.4498 N   0  0  0  0  0  0  0  0  0  0  0  0
   57.7789  -16.1982    8.9136 C   0  0  0  0  0  0  0  0  0  0  0  0
   58.9523  -15.4139    9.3051 C   0  0  0  0  0  0  0  0  0  0  0  0
   60.1936  -15.9052    9.5083 N   0  0  0  0  0  0  0  0  0  0  0  0
   56.7824  -15.3004    8.8564 N   0  0  0  0  0  0  0  0  0  0  0  0
   57.2899  -14.0725    9.1553 C   0  0  0  0  0  0  0  0  0  0  0  0
   58.6161  -14.1345    9.4244 N   0  0  0  0  0  0  0  0  0  0  0  0
   59.4859  -12.9828    9.7882 C   0  0  1  0  0  0  0  0  0  0  0  0
   59.9479  -13.1376   11.2209 C   0  0  1  0  0  0  0  0  0  0  0  0
   61.3760  -12.6578   11.1921 C   0  0  2  0  0  0  0  0  0  0  0  0
   61.4223  -11.2529   11.4715 O   0  0  0  0  0  0  0  0  0  0  0  0
   59.1307  -12.3646   12.1138 O   0  0  0  0  0  0  0  0  0  0  0  0
   60.6678  -12.9852    8.9914 O   0  0  0  0  0  0  0  0  0  0  0  0
   61.8329  -12.8808    9.7738 C   0  0  2  0  0  0  0  0  0  0  0  0
   62.6216  -14.1489    9.5201 C   0  0  0  0  0  0  0  0  0  0  0  0
   62.8920  -14.3298    8.1453 O   0  0  0  0  0  0  0  0  0  0  0  0
   63.1907  -15.8065    7.6136 P   0  0  0  0  0  0  0  0  0  0  0  0
   62.4326  -16.7228    8.5531 O   0  0  0  0  0  0  0  0  0  0  0  0
   64.6917  -15.8849    7.7207 O   0  0  0  0  0  0  0  0  0  0  0  0
   62.7201  -15.7636    6.1862 O   0  0  0  0  0  0  0  0  0  0  0  0
  2  1  2  0  0  0  0
  2  4  1  0  0  0  0
  3  2  1  0  0  0  0
  4  7  1  0  0  0  0
  4  5  2  0  0  0  0
  5  6  1  0  0  0  0
  5  9  1  0  0  0  0
  7  8  2  0  0  0  0
  8  9  1  0  0  0  0
 10  9  1  6  0  0  0
 10 15  1  0  0  0  0
 11 14  1  1  0  0  0
 11 12  1  0  0  0  0
 11 10  1  0  0  0  0
 12 13  1  6  0  0  0
 12 16  1  0  0  0  0
 16 17  1  1  0  0  0
 16 15  1  0  0  0  0
 18 19  1  0  0  0  0
 18 17  1  0  0  0  0
 19 21  1  0  0  0  0
 20 19  1  0  0  0  0
 22 19  2  0  0  0  0
M  END
>  <CHROM.1>
-8.82602689,-66.48504410,174.34592312,28.53228200,-156.79879661,60.49707156
-14.86219852,9.12953991,-3.07210644,0.24188560,0.57199863

>  <Name>
lig.pdb

>  <RI>
0

>  <Rbt.Current_Directory>
/home/itssahil/PROJECTS/Mol_Feturizer/New_Systems/rnas/4znp

>  <Rbt.Executable>
rbdock ($Id: //depot/dev/client3/rdock/2013.1/src/exe/rbdock.cxx#4 $)

>  <Rbt.Library>
libRbt.so (2013.1, Build901 2013/11/27)

>  <Rbt.Parameter_File>
/export/apps/rDock/src/rDock_2013.1_src/data/scripts/dock_solv.prm

>  <Rbt.Receptor>
prm/pocket_docking_4.prm

>  <SCORE>
-23.2738

>  <SCORE.INTER>
-20.6908

>  <SCORE.INTER.CONST>
1

>  <SCORE.INTER.POLAR>
0

>  <SCORE.INTER.ROT>
5

>  <SCORE.INTER.SOLV>
28.5162

>  <SCORE.INTER.VDW>
-30.2326

>  <SCORE.INTER.norm>
-0.94049

>  <SCORE.INTRA>
-3.0429

>  <SCORE.INTRA.DIHEDRAL>
-5.58309

>  <SCORE.INTRA.DIHEDRAL.0>
11.9251

>  <SCORE.INTRA.POLAR>
0

>  <SCORE.INTRA.POLAR.0>
0

>  <SCORE.INTRA.REPUL>
0.0637615

>  <SCORE.INTRA.REPUL.0>
0

>  <SCORE.INTRA.SOLV>
2.20334

>  <SCORE.INTRA.SOLV.lig_0>
-40.9823

>  <SCORE.INTRA.VDW>
-1.67184

>  <SCORE.INTRA.VDW.0>
-0.53506

>  <SCORE.INTRA.norm>
-0.138314

>  <SCORE.RESTR>
0.459856

>  <SCORE.RESTR.CAVITY>
0.459856

>  <SCORE.RESTR.norm>
0.0209025

>  <SCORE.SYSTEM>
0

>  <SCORE.SYSTEM.CONST>
0

>  <SCORE.SYSTEM.DIHEDRAL>
0

>  <SCORE.SYSTEM.SOLV>
0

>  <SCORE.SYSTEM.norm>
0

>  <SCORE.heavy>
22

>  <SCORE.norm>
-1.0579

>  <RMSD>
4.516

$$$$
lig.pdb
 OpenBabel11021811523D
libRbt.so/2013.1/901 2013/11/27
 22 23  0  0  0  0  0  0  0  0999 V2000
   58.9599  -18.1035    9.1230 O   0  0  0  0  0  0  0  0  0  0  0  0
   57.9866  -17.4396    8.8543 C   0  0  0  0  0  0  0  0  0  0  0  0
   56.8635  -17.9847    8.4215 N   0  0  0  0  0  0  0  0  0  0  0  0
   58.0404  -15.9748    8.9619 C   0  0  0  0  0  0  0  0  0  0  0  0
   59.1783  -15.2118    9.4799 C   0  0  0  0  0  0  0  0  0  0  0  0
   60.3291  -15.7390    9.9499 N   0  0  0  0  0  0  0  0  0  0  0  0
   57.1321  -15.0402    8.6393 N   0  0  0  0  0  0  0  0  0  0  0  0
   57.6619  -13.8138    8.9037 C   0  0  0  0  0  0  0  0  0  0  0  0
   58.9139  -13.9119    9.4117 N   0  0  0  0  0  0  0  0  0  0  0  0
   59.7832  -12.7721    9.8123 C   0  0  1  0  0  0  0  0  0  0  0  0
   60.6200  -13.1765   11.0066 C   0  0  1  0  0  0  0  0  0  0  0  0
   61.9589  -12.5387   10.7402 C   0  0  2  0  0  0  0  0  0  0  0  0
   61.9992  -11.2312   11.3257 O   0  0  0  0  0  0  0  0  0  0  0  0
   60.0296  -12.7144   12.2315 O   0  0  0  0  0  0  0  0  0  0  0  0
   60.7067  -12.4653    8.7708 O   0  0  0  0  0  0  0  0  0  0  0  0
   62.0310  -12.3965    9.2420 C   0  0  2  0  0  0  0  0  0  0  0  0
   62.7930  -13.4796    8.5065 C   0  0  0  0  0  0  0  0  0  0  0  0
   62.2248  -14.7553    8.7205 O   0  0  0  0  0  0  0  0  0  0  0  0
   62.8077  -15.9978    7.9025 P   0  0  0  0  0  0  0  0  0  0  0  0
   62.7851  -15.5584    6.4523 O   0  0  0  0  0  0  0  0  0  0  0  0
   61.8332  -17.0929    8.2516 O   0  0  0  0  0  0  0  0  0  0  0  0
   64.1606  -16.2169    8.5208 O   0  0  0  0  0  0  0  0  0  0  0  0
  2  1  2  0  0  0  0
  2  4  1  0  0  0  0
  3  2  1  0  0  0  0
  4  7  1  0  0  0  0
  4  5  2  0  0  0  0
  5  6  1  0  0  0  0
  5  9  1  0  0  0  0
  7  8  2  0  0  0  0
  8  9  1  0  0  0  0
 10  9  1  6  0  0  0
 10 15  1  0  0  0  0
 11 14  1  1  0  0  0
 11 12  1  0  0  0  0
 11 10  1  0  0  0  0
 12 13  1  1  0  0  0
 12 16  1  0  0  0  0
 16 17  1  6  0  0  0
 16 15  1  0  0  0  0
 18 19  1  0  0  0  0
 18 17  1  0  0  0  0
 19 21  1  0  0  0  0
 20 19  1  0  0  0  0
 22 19  2  0  0  0  0
M  END
>  <CHROM.1>
-4.95100624,-33.62625619,59.97404011,-51.80482193,173.83103609,60.61723581
-14.77796626,9.15795562,-2.34287792,0.21870924,0.49357965

>  <Name>
lig.pdb

>  <RI>
0

>  <Rbt.Current_Directory>
/home/itssahil/PROJECTS/Mol_Feturizer/New_Systems/rnas/4znp

>  <Rbt.Executable>
rbdock ($Id: //depot/dev/client3/rdock/2013.1/src/exe/rbdock.cxx#4 $)

>  <Rbt.Library>
libRbt.so (2013.1, Build901 2013/11/27)

>  <Rbt.Parameter_File>
/export/apps/rDock/src/rDock_2013.1_src/data/scripts/dock_solv.prm

>  <Rbt.Receptor>
prm/pocket_docking_4.prm

>  <SCORE>
-27.2832

>  <SCORE.INTER>
-22.5214

>  <SCORE.INTER.CONST>
1

>  <SCORE.INTER.POLAR>
0

>  <SCORE.INTER.ROT>
5

>  <SCORE.INTER.SOLV>
27.8328

>  <SCORE.INTER.VDW>
-31.2252

>  <SCORE.INTER.norm>
-1.0237

>  <SCORE.INTRA>
-4.83927

>  <SCORE.INTRA.DIHEDRAL>
-9.17317

>  <SCORE.INTRA.DIHEDRAL.0>
11.9251

>  <SCORE.INTRA.POLAR>
0

>  <SCORE.INTRA.POLAR.0>
0

>  <SCORE.INTRA.REPUL>
0

>  <SCORE.INTRA.REPUL.0>
0

>  <SCORE.INTRA.SOLV>
3.07335

>  <SCORE.INTRA.SOLV.lig_0>
-40.9823

>  <SCORE.INTRA.VDW>
-1.78936

>  <SCORE.INTRA.VDW.0>
-0.53506

>  <SCORE.INTRA.norm>
-0.219967

>  <SCORE.RESTR>
0.0775185

>  <SCORE.RESTR.CAVITY>
0.0775185

>  <SCORE.RESTR.norm>
0.00352357

>  <SCORE.SYSTEM>
0

>  <SCORE.SYSTEM.CONST>
0

>  <SCORE.SYSTEM.DIHEDRAL>
0

>  <SCORE.SYSTEM.SOLV>
0

>  <SCORE.SYSTEM.norm>
0

>  <SCORE.heavy>
22

>  <SCORE.norm>
-1.24014

>  <RMSD>
4.534

$$$$
lig.pdb
 OpenBabel11021811523D
libRbt.so/2013.1/901 2013/11/27
 22 23  0  0  0  0  0  0  0  0999 V2000
   62.0095  -16.8532    8.7364 O   0  0  0  0  0  0  0  0  0  0  0  0
   61.0993  -16.2787    9.2859 C   0  0  0  0  0  0  0  0  0  0  0  0
   59.8986  -16.8176    9.4029 N   0  0  0  0  0  0  0  0  0  0  0  0
   61.2947  -14.9199    9.8109 C   0  0  0  0  0  0  0  0  0  0  0  0
   60.2289  -14.0562   10.3241 C   0  0  0  0  0  0  0  0  0  0  0  0
   58.9167  -14.3715   10.3719 N   0  0  0  0  0  0  0  0  0  0  0  0
   62.4106  -14.1848    9.9412 N   0  0  0  0  0  0  0  0  0  0  0  0
   62.0777  -12.9912   10.5061 C   0  0  0  0  0  0  0  0  0  0  0  0
   60.7473  -12.9091   10.7479 N   0  0  0  0  0  0  0  0  0  0  0  0
   60.0424  -11.7478   11.3559 C   0  0  1  0  0  0  0  0  0  0  0  0
   60.2020  -11.7968   12.8599 C   0  0  1  0  0  0  0  0  0  0  0  0
   60.3857  -10.3529   13.2494 C   0  0  2  0  0  0  0  0  0  0  0  0
   59.1125   -9.7623   13.5396 O   0  0  0  0  0  0  0  0  0  0  0  0
   59.0506  -12.3877   13.4828 O   0  0  0  0  0  0  0  0  0  0  0  0
   60.6473  -10.5274   10.9357 O   0  0  0  0  0  0  0  0  0  0  0  0
   60.9551   -9.6884   12.0229 C   0  0  2  0  0  0  0  0  0  0  0  0
   62.4592   -9.5099   12.0002 C   0  0  0  0  0  0  0  0  0  0  0  0
   63.1338  -10.7458   12.1159 O   0  0  0  0  0  0  0  0  0  0  0  0
   64.6833  -10.7365   12.5052 P   0  0  0  0  0  0  0  0  0  0  0  0
   64.7277  -10.2120   13.9264 O   0  0  0  0  0  0  0  0  0  0  0  0
   65.2660   -9.8130   11.4668 O   0  0  0  0  0  0  0  0  0  0  0  0
   65.1018  -12.1659   12.2995 O   0  0  0  0  0  0  0  0  0  0  0  0
  2  1  2  0  0  0  0
  2  4  1  0  0  0  0
  3  2  1  0  0  0  0
  4  7  1  0  0  0  0
  4  5  2  0  0  0  0
  5  6  1  0  0  0  0
  5  9  1  0  0  0  0
  7  8  2  0  0  0  0
  8  9  1  0  0  0  0
 10  9  1  6  0  0  0
 10 15  1  0  0  0  0
 11 14  1  1  0  0  0
 11 12  1  0  0  0  0
 11 10  1  0  0  0  0
 12 13  1  6  0  0  0
 12 16  1  0  0  0  0
 16 17  1  1  0  0  0
 16 15  1  0  0  0  0
 18 19  1  0  0  0  0
 18 17  1  0  0  0  0
 19 21  1  0  0  0  0
 20 19  1  0  0  0  0
 22 19  2  0  0  0  0
M  END
>  <CHROM.1>
171.03318006,99.74474759,58.62892633,66.68433756,-163.68365956,61.79057521
-12.24243740,11.51249803,-1.99841176,0.08424937,0.54812819

>  <Name>
lig.pdb

>  <RI>
0

>  <Rbt.Current_Directory>
/home/itssahil/PROJECTS/Mol_Feturizer/New_Systems/rnas/4znp

>  <Rbt.Executable>
rbdock ($Id: //depot/dev/client3/rdock/2013.1/src/exe/rbdock.cxx#4 $)

>  <Rbt.Library>
libRbt.so (2013.1, Build901 2013/11/27)

>  <Rbt.Parameter_File>
/export/apps/rDock/src/rDock_2013.1_src/data/scripts/dock_solv.prm

>  <Rbt.Receptor>
prm/pocket_docking_7.prm

>  <SCORE>
-15.4775

>  <SCORE.INTER>
-9.89091

>  <SCORE.INTER.CONST>
1

>  <SCORE.INTER.POLAR>
0

>  <SCORE.INTER.ROT>
5

>  <SCORE.INTER.SOLV>
20.1379

>  <SCORE.INTER.VDW>
-20.2399

>  <SCORE.INTER.norm>
-0.449587

>  <SCORE.INTRA>
-5.58657

>  <SCORE.INTRA.DIHEDRAL>
-7.98746

>  <SCORE.INTRA.DIHEDRAL.0>
11.9251

>  <SCORE.INTRA.POLAR>
0

>  <SCORE.INTRA.POLAR.0>
0

>  <SCORE.INTRA.REPUL>
0

>  <SCORE.INTRA.REPUL.0>
0

>  <SCORE.INTRA.SOLV>
0.98306

>  <SCORE.INTRA.SOLV.lig_0>
-40.9823

>  <SCORE.INTRA.VDW>
-2.08437

>  <SCORE.INTRA.VDW.0>
-0.53506

>  <SCORE.INTRA.norm>
-0.253935

>  <SCORE.RESTR>
0

>  <SCORE.RESTR.CAVITY>
0

>  <SCORE.RESTR.norm>
0

>  <SCORE.SYSTEM>
0

>  <SCORE.SYSTEM.CONST>
0

>  <SCORE.SYSTEM.DIHEDRAL>
0

>  <SCORE.SYSTEM.SOLV>
0

>  <SCORE.SYSTEM.norm>
0

>  <SCORE.heavy>
22

>  <SCORE.norm>
-0.703522

>  <RMSD>
4.554

$$$$
lig.pdb
 OpenBabel11021811523D
libRbt.so/2013.1/901 2013/11/27
 22 23  0  0  0  0  0  0  0  0999 V2000
   61.3211  -16.5902    9.2371 O   0  0  0  0  0  0  0  0  0  0  0  0
   62.2491  -15.9656    8.7798 C   0  0  0  0  0  0  0  0  0  0  0  0
   63.3644  -16.5542    8.3857 N   0  0  0  0  0  0  0  0  0  0  0  0
   62.1781  -14.5004    8.6881 C   0  0  0  0  0  0  0  0  0  0  0  0
   61.0730  -13.6799    9.1891 C   0  0  0  0  0  0  0  0  0  0  0  0
   59.9558  -14.1470    9.7867 N   0  0  0  0  0  0  0  0  0  0  0  0
   63.0391  -13.6143    8.1628 N   0  0  0  0  0  0  0  0  0  0  0  0
   62.5341  -12.3625    8.3435 C   0  0  0  0  0  0  0  0  0  0  0  0
   61.3362  -12.3957    8.9752 N   0  0  0  0  0  0  0  0  0  0  0  0
   60.5057  -11.2128    9.3307 C   0  0  1  0  0  0  0  0  0  0  0  0
   60.7518  -10.8453   10.7779 C   0  0  1  0  0  0  0  0  0  0  0  0
   60.7470   -9.3385   10.7720 C   0  0  2  0  0  0  0  0  0  0  0  0
   59.4197   -8.8560   11.0164 O   0  0  0  0  0  0  0  0  0  0  0  0
   59.7326  -11.3908   11.6301 O   0  0  0  0  0  0  0  0  0  0  0  0
   60.9055  -10.0799    8.5636 O   0  0  0  0  0  0  0  0  0  0  0  0
   61.1479   -8.9534    9.3717 C   0  0  2  0  0  0  0  0  0  0  0  0
   62.6073   -8.6010    9.1703 C   0  0  0  0  0  0  0  0  0  0  0  0
   62.8837   -8.2692    7.8251 O   0  0  0  0  0  0  0  0  0  0  0  0
   62.2649   -6.9227    7.2280 P   0  0  0  0  0  0  0  0  0  0  0  0
   60.7741   -7.1809    7.1402 O   0  0  0  0  0  0  0  0  0  0  0  0
   62.9711   -6.8097    5.9016 O   0  0  0  0  0  0  0  0  0  0  0  0
   62.7118   -5.8715    8.2058 O   0  0  0  0  0  0  0  0  0  0  0  0
  2  1  2  0  0  0  0
  2  4  1  0  0  0  0
  3  2  1  0  0  0  0
  4  7  1  0  0  0  0
  4  5  2  0  0  0  0
  5  6  1  0  0  0  0
  5  9  1  0  0  0  0
  7  8  2  0  0  0  0
  8  9  1  0  0  0  0
 10  9  1  6  0  0  0
 10 15  1  0  0  0  0
 11 14  1  1  0  0  0
 11 12  1  0  0  0  0
 11 10  1  0  0  0  0
 12 13  1  6  0  0  0
 12 16  1  0  0  0  0
 16 17  1  1  0  0  0
 16 15  1  0  0  0  0
 18 19  1  0  0  0  0
 18 17  1  0  0  0  0
 19 21  1  0  0  0  0
 20 19  1  0  0  0  0
 22 19  2  0  0  0  0
M  END
>  <CHROM.1>
3.80810999,82.88627225,179.36878207,-69.20789822,68.12520186,61.59356718
-10.74245294,8.82086747,-1.62614784,0.86887387,-0.12271148

>  <Name>
lig.pdb

>  <RI>
0

>  <Rbt.Current_Directory>
/home/itssahil/PROJECTS/Mol_Feturizer/New_Systems/rnas/4znp

>  <Rbt.Executable>
rbdock ($Id: //depot/dev/client3/rdock/2013.1/src/exe/rbdock.cxx#4 $)

>  <Rbt.Library>
libRbt.so (2013.1, Build901 2013/11/27)

>  <Rbt.Parameter_File>
/export/apps/rDock/src/rDock_2013.1_src/data/scripts/dock_solv.prm

>  <Rbt.Receptor>
prm/pocket_docking_6.prm

>  <SCORE>
-16.7322

>  <SCORE.INTER>
-11.3916

>  <SCORE.INTER.CONST>
1

>  <SCORE.INTER.POLAR>
0

>  <SCORE.INTER.ROT>
5

>  <SCORE.INTER.SOLV>
15.4723

>  <SCORE.INTER.VDW>
-19.6851

>  <SCORE.INTER.norm>
-0.517798

>  <SCORE.INTRA>
-5.3406

>  <SCORE.INTRA.DIHEDRAL>
-9.02487

>  <SCORE.INTRA.DIHEDRAL.0>
11.9251

>  <SCORE.INTRA.POLAR>
0

>  <SCORE.INTRA.POLAR.0>
0

>  <SCORE.INTRA.REPUL>
0

>  <SCORE.INTRA.REPUL.0>
0

>  <SCORE.INTRA.SOLV>
1.24014

>  <SCORE.INTRA.SOLV.lig_0>
-40.9823

>  <SCORE.INTRA.VDW>
-1.44824

>  <SCORE.INTRA.VDW.0>
-0.53506

>  <SCORE.INTRA.norm>
-0.242755

>  <SCORE.RESTR>
0

>  <SCORE.RESTR.CAVITY>
0

>  <SCORE.RESTR.norm>
0

>  <SCORE.SYSTEM>
0

>  <SCORE.SYSTEM.CONST>
0

>  <SCORE.SYSTEM.DIHEDRAL>
0

>  <SCORE.SYSTEM.SOLV>
0

>  <SCORE.SYSTEM.norm>
0

>  <SCORE.heavy>
22

>  <SCORE.norm>
-0.760553

>  <RMSD>
4.692

$$$$
lig.pdb
 OpenBabel11021811523D
libRbt.so/2013.1/901 2013/11/27
 22 23  0  0  0  0  0  0  0  0999 V2000
   59.7344  -16.2535   10.3147 O   0  0  0  0  0  0  0  0  0  0  0  0
   60.6994  -16.0796    9.6083 C   0  0  0  0  0  0  0  0  0  0  0  0
   61.2446  -17.0610    8.9116 N   0  0  0  0  0  0  0  0  0  0  0  0
   61.3323  -14.7549    9.5373 C   0  0  0  0  0  0  0  0  0  0  0  0
   60.9476  -13.5957   10.3458 C   0  0  0  0  0  0  0  0  0  0  0  0
   59.9493  -13.5681   11.2546 N   0  0  0  0  0  0  0  0  0  0  0  0
   62.3417  -14.3078    8.7733 N   0  0  0  0  0  0  0  0  0  0  0  0
   62.5818  -13.0061    9.0938 C   0  0  0  0  0  0  0  0  0  0  0  0
   61.7374  -12.5673   10.0579 N   0  0  0  0  0  0  0  0  0  0  0  0
   61.7195  -11.1991   10.6436 C   0  0  1  0  0  0  0  0  0  0  0  0
   63.1238  -10.8120   11.0540 C   0  0  1  0  0  0  0  0  0  0  0  0
   63.2145   -9.3520   10.6925 C   0  0  2  0  0  0  0  0  0  0  0  0
   62.8122   -8.5491   11.8094 O   0  0  0  0  0  0  0  0  0  0  0  0
   63.3340  -11.0410   12.4561 O   0  0  0  0  0  0  0  0  0  0  0  0
   61.3201  -10.2464    9.6614 O   0  0  0  0  0  0  0  0  0  0  0  0
   62.2153   -9.1635    9.5807 C   0  0  2  0  0  0  0  0  0  0  0  0
   62.7737   -9.1870    8.1728 C   0  0  0  0  0  0  0  0  0  0  0  0
   63.1030   -7.8900    7.7197 O   0  0  0  0  0  0  0  0  0  0  0  0
   64.5964   -7.3633    7.9319 P   0  0  0  0  0  0  0  0  0  0  0  0
   64.5762   -5.9241    7.4576 O   0  0  0  0  0  0  0  0  0  0  0  0
   65.3919   -8.3076    7.0681 O   0  0  0  0  0  0  0  0  0  0  0  0
   64.8387   -7.5876    9.3988 O   0  0  0  0  0  0  0  0  0  0  0  0
  2  1  2  0  0  0  0
  2  4  1  0  0  0  0
  3  2  1  0  0  0  0
  4  7  1  0  0  0  0
  4  5  2  0  0  0  0
  5  6  1  0  0  0  0
  5  9  1  0  0  0  0
  7  8  2  0  0  0  0
  8  9  1  0  0  0  0
 10  9  1  6  0  0  0
 10 15  1  0  0  0  0
 11 14  1  1  0  0  0
 11 12  1  0  0  0  0
 11 10  1  0  0  0  0
 12 13  1  1  0  0  0
 12 16  1  0  0  0  0
 16 17  1  6  0  0  0
 16 15  1  0  0  0  0
 18 19  1  0  0  0  0
 18 17  1  0  0  0  0
 19 21  1  0  0  0  0
 20 19  1  0  0  0  0
 22 19  2  0  0  0  0
M  END
>  <CHROM.1>
4.68273876,131.00527238,-92.36509892,-175.08643368,92.75364726,62.60495803
-10.92141835,9.50990217,-2.69507598,1.11502953,0.87700074

>  <Name>
lig.pdb

>  <RI>
0

>  <Rbt.Current_Directory>
/home/itssahil/PROJECTS/Mol_Feturizer/New_Systems/rnas/4znp

>  <Rbt.Executable>
rbdock ($Id: //depot/dev/client3/rdock/2013.1/src/exe/rbdock.cxx#4 $)

>  <Rbt.Library>
libRbt.so (2013.1, Build901 2013/11/27)

>  <Rbt.Parameter_File>
/export/apps/rDock/src/rDock_2013.1_src/data/scripts/dock_solv.prm

>  <Rbt.Receptor>
prm/pocket_docking_6.prm

>  <SCORE>
-15.3565

>  <SCORE.INTER>
-13.8768

>  <SCORE.INTER.CONST>
1

>  <SCORE.INTER.POLAR>
0

>  <SCORE.INTER.ROT>
5

>  <SCORE.INTER.SOLV>
17.1124

>  <SCORE.INTER.VDW>
-21.8887

>  <SCORE.INTER.norm>
-0.630766

>  <SCORE.INTRA>
-1.47967

>  <SCORE.INTRA.DIHEDRAL>
-2.23887

>  <SCORE.INTRA.DIHEDRAL.0>
11.9251

>  <SCORE.INTRA.POLAR>
0

>  <SCORE.INTRA.POLAR.0>
0

>  <SCORE.INTRA.REPUL>
0

>  <SCORE.INTRA.REPUL.0>
0

>  <SCORE.INTRA.SOLV>
1.47405

>  <SCORE.INTRA.SOLV.lig_0>
-40.9823

>  <SCORE.INTRA.VDW>
-1.09726

>  <SCORE.INTRA.VDW.0>
-0.53506

>  <SCORE.INTRA.norm>
-0.0672579

>  <SCORE.RESTR>
0

>  <SCORE.RESTR.CAVITY>
0

>  <SCORE.RESTR.norm>
0

>  <SCORE.SYSTEM>
0

>  <SCORE.SYSTEM.CONST>
0

>  <SCORE.SYSTEM.DIHEDRAL>
0

>  <SCORE.SYSTEM.SOLV>
0

>  <SCORE.SYSTEM.norm>
0

>  <SCORE.heavy>
22

>  <SCORE.norm>
-0.698024

>  <RMSD>
4.710

$$$$
lig.pdb
 OpenBabel11021811523D
libRbt.so/2013.1/901 2013/11/27
 22 23  0  0  0  0  0  0  0  0999 V2000
   60.5352  -16.4011    9.4969 O   0  0  0  0  0  0  0  0  0  0  0  0
   61.2684  -15.4410    9.4632 C   0  0  0  0  0  0  0  0  0  0  0  0
   62.3977  -15.4448    8.7772 N   0  0  0  0  0  0  0  0  0  0  0  0
   60.9393  -14.2342   10.2349 C   0  0  0  0  0  0  0  0  0  0  0  0
   61.7323  -13.0028   10.2473 C   0  0  0  0  0  0  0  0  0  0  0  0
   62.8845  -12.8035    9.5719 N   0  0  0  0  0  0  0  0  0  0  0  0
   59.9113  -13.9765   11.0590 N   0  0  0  0  0  0  0  0  0  0  0  0
   60.0354  -12.7003   11.5180 C   0  0  0  0  0  0  0  0  0  0  0  0
   61.1426  -12.0985   11.0210 N   0  0  0  0  0  0  0  0  0  0  0  0
   61.5839  -10.7075   11.3141 C   0  0  1  0  0  0  0  0  0  0  0  0
   63.0857  -10.6876   11.4995 C   0  0  1  0  0  0  0  0  0  0  0  0
   63.5124   -9.4014   10.8407 C   0  0  2  0  0  0  0  0  0  0  0  0
   63.5154   -8.3400   11.8037 O   0  0  0  0  0  0  0  0  0  0  0  0
   63.4350  -10.7294   12.8919 O   0  0  0  0  0  0  0  0  0  0  0  0
   61.3137   -9.8587   10.2014 O   0  0  0  0  0  0  0  0  0  0  0  0
   62.4457   -9.1168    9.8154 C   0  0  2  0  0  0  0  0  0  0  0  0
   62.7580   -9.5397    8.3948 C   0  0  0  0  0  0  0  0  0  0  0  0
   62.5352   -8.4897    7.4762 O   0  0  0  0  0  0  0  0  0  0  0  0
   63.5920   -7.2931    7.4133 P   0  0  0  0  0  0  0  0  0  0  0  0
   63.1665   -6.4558    6.2238 O   0  0  0  0  0  0  0  0  0  0  0  0
   64.8954   -8.0294    7.2404 O   0  0  0  0  0  0  0  0  0  0  0  0
   63.4720   -6.6520    8.7680 O   0  0  0  0  0  0  0  0  0  0  0  0
  2  1  2  0  0  0  0
  2  4  1  0  0  0  0
  3  2  1  0  0  0  0
  4  7  1  0  0  0  0
  4  5  2  0  0  0  0
  5  6  1  0  0  0  0
  5  9  1  0  0  0  0
  7  8  2  0  0  0  0
  8  9  1  0  0  0  0
 10  9  1  6  0  0  0
 10 15  1  0  0  0  0
 11 14  1  1  0  0  0
 11 12  1  0  0  0  0
 11 10  1  0  0  0  0
 12 13  1  1  0  0  0
 12 16  1  0  0  0  0
 16 17  1  6  0  0  0
 16 15  1  0  0  0  0
 18 19  1  0  0  0  0
 18 17  1  0  0  0  0
 19 21  1  0  0  0  0
 20 19  1  0  0  0  0
 22 19  2  0  0  0  0
M  END
>  <CHROM.1>
-178.49553107,-40.30632904,-129.60089032,172.62304679,74.90637644,62.39502020
-10.65399075,9.61620883,3.04546737,1.24999058,1.34980179

>  <Name>
lig.pdb

>  <RI>
0

>  <Rbt.Current_Directory>
/home/itssahil/PROJECTS/Mol_Feturizer/New_Systems/rnas/4znp

>  <Rbt.Executable>
rbdock ($Id: //depot/dev/client3/rdock/2013.1/src/exe/rbdock.cxx#4 $)

>  <Rbt.Library>
libRbt.so (2013.1, Build901 2013/11/27)

>  <Rbt.Parameter_File>
/export/apps/rDock/src/rDock_2013.1_src/data/scripts/dock_solv.prm

>  <Rbt.Receptor>
prm/pocket_docking_6.prm

>  <SCORE>
-13.2764

>  <SCORE.INTER>
-11.4057

>  <SCORE.INTER.CONST>
1

>  <SCORE.INTER.POLAR>
0

>  <SCORE.INTER.ROT>
5

>  <SCORE.INTER.SOLV>
14.5522

>  <SCORE.INTER.VDW>
-19.3879

>  <SCORE.INTER.norm>
-0.518441

>  <SCORE.INTRA>
-1.87071

>  <SCORE.INTRA.DIHEDRAL>
-3.47766

>  <SCORE.INTRA.DIHEDRAL.0>
11.9251

>  <SCORE.INTRA.POLAR>
0

>  <SCORE.INTRA.POLAR.0>
0

>  <SCORE.INTRA.REPUL>
0

>  <SCORE.INTRA.REPUL.0>
0

>  <SCORE.INTRA.SOLV>
2.69091

>  <SCORE.INTRA.SOLV.lig_0>
-40.9823

>  <SCORE.INTRA.VDW>
-1.47733

>  <SCORE.INTRA.VDW.0>
-0.53506

>  <SCORE.INTRA.norm>
-0.0850322

>  <SCORE.RESTR>
0

>  <SCORE.RESTR.CAVITY>
0

>  <SCORE.RESTR.norm>
0

>  <SCORE.SYSTEM>
0

>  <SCORE.SYSTEM.CONST>
0

>  <SCORE.SYSTEM.DIHEDRAL>
0

>  <SCORE.SYSTEM.SOLV>
0

>  <SCORE.SYSTEM.norm>
0

>  <SCORE.heavy>
22

>  <SCORE.norm>
-0.603473

>  <RMSD>
4.736

$$$$
lig.pdb
 OpenBabel11021811523D
libRbt.so/2013.1/901 2013/11/27
 22 23  0  0  0  0  0  0  0  0999 V2000
   57.1667   -9.4826   10.1407 O   0  0  0  0  0  0  0  0  0  0  0  0
   57.2683   -9.7754   11.3088 C   0  0  0  0  0  0  0  0  0  0  0  0
   56.5459   -9.1858   12.2449 N   0  0  0  0  0  0  0  0  0  0  0  0
   58.2489  -10.7844   11.7336 C   0  0  0  0  0  0  0  0  0  0  0  0
   59.0528  -11.6081   10.8278 C   0  0  0  0  0  0  0  0  0  0  0  0
   58.9974  -11.5760    9.4790 N   0  0  0  0  0  0  0  0  0  0  0  0
   58.6249  -11.1758   12.9615 N   0  0  0  0  0  0  0  0  0  0  0  0
   59.5887  -12.1296   12.8344 C   0  0  0  0  0  0  0  0  0  0  0  0
   59.8586  -12.3936   11.5335 N   0  0  0  0  0  0  0  0  0  0  0  0
   60.8548  -13.3798   11.0332 C   0  0  1  0  0  0  0  0  0  0  0  0
   60.4252  -13.8779    9.6703 C   0  0  1  0  0  0  0  0  0  0  0  0
   61.7182  -13.9927    8.9053 C   0  0  2  0  0  0  0  0  0  0  0  0
   62.2619  -15.3092    9.0652 O   0  0  0  0  0  0  0  0  0  0  0  0
   59.7382  -15.1349    9.7725 O   0  0  0  0  0  0  0  0  0  0  0  0
   62.1194  -12.7506   10.8414 O   0  0  0  0  0  0  0  0  0  0  0  0
   62.6481  -13.0060    9.5623 C   0  0  2  0  0  0  0  0  0  0  0  0
   62.7735  -11.6569    8.8850 C   0  0  0  0  0  0  0  0  0  0  0  0
   61.5094  -11.0740    8.6437 O   0  0  0  0  0  0  0  0  0  0  0  0
   61.4443   -9.5262    8.2527 P   0  0  0  0  0  0  0  0  0  0  0  0
   60.8237   -8.8434    9.4549 O   0  0  0  0  0  0  0  0  0  0  0  0
   60.5826   -9.5470    7.0166 O   0  0  0  0  0  0  0  0  0  0  0  0
   62.8762   -9.1847    7.9466 O   0  0  0  0  0  0  0  0  0  0  0  0
  2  1  2  0  0  0  0
  2  4  1  0  0  0  0
  3  2  1  0  0  0  0
  4  7  1  0  0  0  0
  4  5  2  0  0  0  0
  5  6  1  0  0  0  0
  5  9  1  0  0  0  0
  7  8  2  0  0  0  0
  8  9  1  0  0  0  0
 10  9  1  6  0  0  0
 10 15  1  0  0  0  0
 11 14  1  1  0  0  0
 11 12  1  0  0  0  0
 11 10  1  0  0  0  0
 12 13  1  1  0  0  0
 12 16  1  0  0  0  0
 16 17  1  6  0  0  0
 16 15  1  0  0  0  0
 18 19  1  0  0  0  0
 18 17  1  0  0  0  0
 19 21  1  0  0  0  0
 20 19  1  0  0  0  0
 22 19  2  0  0  0  0
M  END
>  <CHROM.1>
-7.09958492,-26.88162048,51.54850878,-110.20279464,166.06480816,60.35181662
-11.48360573,9.92744352,-2.83259812,-0.67358410,2.75386177

>  <Name>
lig.pdb

>  <RI>
0

>  <Rbt.Current_Directory>
/home/itssahil/PROJECTS/Mol_Feturizer/New_Systems/rnas/4znp

>  <Rbt.Executable>
rbdock ($Id: //depot/dev/client3/rdock/2013.1/src/exe/rbdock.cxx#4 $)

>  <Rbt.Library>
libRbt.so (2013.1, Build901 2013/11/27)

>  <Rbt.Parameter_File>
/export/apps/rDock/src/rDock_2013.1_src/data/scripts/dock_solv.prm

>  <Rbt.Receptor>
prm/pocket_docking_4.prm

>  <SCORE>
-13.7308

>  <SCORE.INTER>
-11.1007

>  <SCORE.INTER.CONST>
1

>  <SCORE.INTER.POLAR>
0

>  <SCORE.INTER.ROT>
5

>  <SCORE.INTER.SOLV>
14.1969

>  <SCORE.INTER.VDW>
-19.0661

>  <SCORE.INTER.norm>
-0.504579

>  <SCORE.INTRA>
-2.63008

>  <SCORE.INTRA.DIHEDRAL>
-6.02694

>  <SCORE.INTRA.DIHEDRAL.0>
11.9251

>  <SCORE.INTRA.POLAR>
0

>  <SCORE.INTRA.POLAR.0>
0

>  <SCORE.INTRA.REPUL>
0

>  <SCORE.INTRA.REPUL.0>
0

>  <SCORE.INTRA.SOLV>
3.01865

>  <SCORE.INTRA.SOLV.lig_0>
-40.9823

>  <SCORE.INTRA.VDW>
-1.12594

>  <SCORE.INTRA.VDW.0>
-0.53506

>  <SCORE.INTRA.norm>
-0.119549

>  <SCORE.RESTR>
0

>  <SCORE.RESTR.CAVITY>
0

>  <SCORE.RESTR.norm>
0

>  <SCORE.SYSTEM>
0

>  <SCORE.SYSTEM.CONST>
0

>  <SCORE.SYSTEM.DIHEDRAL>
0

>  <SCORE.SYSTEM.SOLV>
0

>  <SCORE.SYSTEM.norm>
0

>  <SCORE.heavy>
22

>  <SCORE.norm>
-0.624129

>  <RMSD>
4.779

$$$$
lig.pdb
 OpenBabel11021811523D
libRbt.so/2013.1/901 2013/11/27
 22 23  0  0  0  0  0  0  0  0999 V2000
   61.6378  -16.6434    9.0615 O   0  0  0  0  0  0  0  0  0  0  0  0
   62.5028  -15.9313    8.6086 C   0  0  0  0  0  0  0  0  0  0  0  0
   63.5883  -16.4228    8.0377 N   0  0  0  0  0  0  0  0  0  0  0  0
   62.3898  -14.4703    8.7218 C   0  0  0  0  0  0  0  0  0  0  0  0
   61.3489  -13.7639    9.4722 C   0  0  0  0  0  0  0  0  0  0  0  0
   60.3360  -14.3463   10.1490 N   0  0  0  0  0  0  0  0  0  0  0  0
   63.1506  -13.4917    8.2062 N   0  0  0  0  0  0  0  0  0  0  0  0
   62.6503  -12.2937    8.6175 C   0  0  0  0  0  0  0  0  0  0  0  0
   61.5533  -12.4537    9.3960 N   0  0  0  0  0  0  0  0  0  0  0  0
   60.7565  -11.3590   10.0141 C   0  0  1  0  0  0  0  0  0  0  0  0
   61.3491  -11.0081   11.3617 C   0  0  1  0  0  0  0  0  0  0  0  0
   61.2238   -9.5081   11.4301 C   0  0  2  0  0  0  0  0  0  0  0  0
   59.9756   -9.1522   12.0379 O   0  0  0  0  0  0  0  0  0  0  0  0
   60.6399  -11.6639   12.4245 O   0  0  0  0  0  0  0  0  0  0  0  0
   60.8469  -10.1757    9.2246 O   0  0  0  0  0  0  0  0  0  0  0  0
   61.2058   -9.0532    9.9939 C   0  0  2  0  0  0  0  0  0  0  0  0
   62.5263   -8.5671    9.4331 C   0  0  0  0  0  0  0  0  0  0  0  0
   62.3875   -8.0862    8.1119 O   0  0  0  0  0  0  0  0  0  0  0  0
   63.6340   -7.3552    7.4304 P   0  0  0  0  0  0  0  0  0  0  0  0
   64.7614   -8.3664    7.4876 O   0  0  0  0  0  0  0  0  0  0  0  0
   63.8157   -6.1479    8.3137 O   0  0  0  0  0  0  0  0  0  0  0  0
   63.1202   -6.9931    6.0646 O   0  0  0  0  0  0  0  0  0  0  0  0
  2  1  2  0  0  0  0
  2  4  1  0  0  0  0
  3  2  1  0  0  0  0
  4  7  1  0  0  0  0
  4  5  2  0  0  0  0
  5  6  1  0  0  0  0
  5  9  1  0  0  0  0
  7  8  2  0  0  0  0
  8  9  1  0  0  0  0
 10  9  1  6  0  0  0
 10 15  1  0  0  0  0
 11 14  1  1  0  0  0
 11 12  1  0  0  0  0
 11 10  1  0  0  0  0
 12 13  1  6  0  0  0
 12 16  1  0  0  0  0
 16 17  1  6  0  0  0
 16 15  1  0  0  0  0
 18 19  1  0  0  0  0
 18 17  1  0  0  0  0
 19 21  1  0  0  0  0
 20 19  1  0  0  0  0
 22 19  2  0  0  0  0
M  END
>  <CHROM.1>
6.32631772,92.55758530,-176.31195329,57.22534807,171.97987238,62.15753552
-10.90821587,9.14326573,-1.84114468,0.92390576,0.05423129

>  <Name>
lig.pdb

>  <RI>
0

>  <Rbt.Current_Directory>
/home/itssahil/PROJECTS/Mol_Feturizer/New_Systems/rnas/4znp

>  <Rbt.Executable>
rbdock ($Id: //depot/dev/client3/rdock/2013.1/src/exe/rbdock.cxx#4 $)

>  <Rbt.Library>
libRbt.so (2013.1, Build901 2013/11/27)

>  <Rbt.Parameter_File>
/export/apps/rDock/src/rDock_2013.1_src/data/scripts/dock_solv.prm

>  <Rbt.Receptor>
prm/pocket_docking_6.prm

>  <SCORE>
-17.0439

>  <SCORE.INTER>
-11.0172

>  <SCORE.INTER.CONST>
1

>  <SCORE.INTER.POLAR>
0

>  <SCORE.INTER.ROT>
5

>  <SCORE.INTER.SOLV>
19.0579

>  <SCORE.INTER.VDW>
-20.6308

>  <SCORE.INTER.norm>
-0.500781

>  <SCORE.INTRA>
-6.02669

>  <SCORE.INTRA.DIHEDRAL>
-8.99317

>  <SCORE.INTRA.DIHEDRAL.0>
11.9251

>  <SCORE.INTRA.POLAR>
0

>  <SCORE.INTRA.POLAR.0>
0

>  <SCORE.INTRA.REPUL>
0

>  <SCORE.INTRA.REPUL.0>
0

>  <SCORE.INTRA.SOLV>
-0.166518

>  <SCORE.INTRA.SOLV.lig_0>
-40.9823

>  <SCORE.INTRA.VDW>
-1.44685

>  <SCORE.INTRA.VDW.0>
-0.53506

>  <SCORE.INTRA.norm>
-0.27394

>  <SCORE.RESTR>
0

>  <SCORE.RESTR.CAVITY>
0

>  <SCORE.RESTR.norm>
0

>  <SCORE.SYSTEM>
0

>  <SCORE.SYSTEM.CONST>
0

>  <SCORE.SYSTEM.DIHEDRAL>
0

>  <SCORE.SYSTEM.SOLV>
0

>  <SCORE.SYSTEM.norm>
0

>  <SCORE.heavy>
22

>  <SCORE.norm>
-0.774721

>  <RMSD>
4.809

$$$$
lig.pdb
 OpenBabel11021811523D
libRbt.so/2013.1/901 2013/11/27
 22 23  0  0  0  0  0  0  0  0999 V2000
   63.2136  -16.6439    8.2932 O   0  0  0  0  0  0  0  0  0  0  0  0
   62.2447  -16.0723    8.7348 C   0  0  0  0  0  0  0  0  0  0  0  0
   61.1997  -16.7272    9.2090 N   0  0  0  0  0  0  0  0  0  0  0  0
   62.1825  -14.6040    8.7160 C   0  0  0  0  0  0  0  0  0  0  0  0
   61.1813  -13.7965    9.4167 C   0  0  0  0  0  0  0  0  0  0  0  0
   60.1638  -14.2794   10.1616 N   0  0  0  0  0  0  0  0  0  0  0  0
   62.9645  -13.7034    8.0998 N   0  0  0  0  0  0  0  0  0  0  0  0
   62.5128  -12.4563    8.4086 C   0  0  0  0  0  0  0  0  0  0  0  0
   61.4274  -12.5066    9.2176 N   0  0  0  0  0  0  0  0  0  0  0  0
   60.6803  -11.3331    9.7469 C   0  0  1  0  0  0  0  0  0  0  0  0
   61.5744  -10.5525   10.6857 C   0  0  1  0  0  0  0  0  0  0  0  0
   61.2368   -9.1140   10.3908 C   0  0  2  0  0  0  0  0  0  0  0  0
   60.1785   -8.6768   11.2528 O   0  0  0  0  0  0  0  0  0  0  0  0
   61.3183  -10.9035   12.0545 O   0  0  0  0  0  0  0  0  0  0  0  0
   60.3478  -10.4400    8.6869 O   0  0  0  0  0  0  0  0  0  0  0  0
   60.7306   -9.1160    8.9717 C   0  0  2  0  0  0  0  0  0  0  0  0
   61.7363   -8.7334    7.9057 C   0  0  0  0  0  0  0  0  0  0  0  0
   62.2357   -7.4266    8.1035 O   0  0  0  0  0  0  0  0  0  0  0  0
   63.3081   -6.8540    7.0669 P   0  0  0  0  0  0  0  0  0  0  0  0
   62.6619   -7.0131    5.7053 O   0  0  0  0  0  0  0  0  0  0  0  0
   64.4974   -7.7453    7.3156 O   0  0  0  0  0  0  0  0  0  0  0  0
   63.5371   -5.4471    7.5455 O   0  0  0  0  0  0  0  0  0  0  0  0
  2  1  2  0  0  0  0
  2  4  1  0  0  0  0
  3  2  1  0  0  0  0
  4  7  1  0  0  0  0
  4  5  2  0  0  0  0
  5  6  1  0  0  0  0
  5  9  1  0  0  0  0
  7  8  2  0  0  0  0
  8  9  1  0  0  0  0
 10  9  1  6  0  0  0
 10 15  1  0  0  0  0
 11 14  1  1  0  0  0
 11 12  1  0  0  0  0
 11 10  1  0  0  0  0
 12 13  1  1  0  0  0
 12 16  1  0  0  0  0
 16 17  1  6  0  0  0
 16 15  1  0  0  0  0
 18 19  1  0  0  0  0
 18 17  1  0  0  0  0
 19 21  1  0  0  0  0
 20 19  1  0  0  0  0
 22 19  2  0  0  0  0
M  END
>  <CHROM.1>
-169.08984655,114.95513279,-60.22858581,54.10635753,-179.83896159,61.96975021
-10.73297201,8.77540160,-1.78403189,0.92961440,-0.02226260

>  <Name>
lig.pdb

>  <RI>
0

>  <Rbt.Current_Directory>
/home/itssahil/PROJECTS/Mol_Feturizer/New_Systems/rnas/4znp

>  <Rbt.Executable>
rbdock ($Id: //depot/dev/client3/rdock/2013.1/src/exe/rbdock.cxx#4 $)

>  <Rbt.Library>
libRbt.so (2013.1, Build901 2013/11/27)

>  <Rbt.Parameter_File>
/export/apps/rDock/src/rDock_2013.1_src/data/scripts/dock_solv.prm

>  <Rbt.Receptor>
prm/pocket_docking_6.prm

>  <SCORE>
-18.8521

>  <SCORE.INTER>
-12.9969

>  <SCORE.INTER.CONST>
1

>  <SCORE.INTER.POLAR>
0

>  <SCORE.INTER.ROT>
5

>  <SCORE.INTER.SOLV>
18.102

>  <SCORE.INTER.VDW>
-21.632

>  <SCORE.INTER.norm>
-0.59077

>  <SCORE.INTRA>
-5.85513

>  <SCORE.INTRA.DIHEDRAL>
-8.9898

>  <SCORE.INTRA.DIHEDRAL.0>
11.9251

>  <SCORE.INTRA.POLAR>
0

>  <SCORE.INTRA.POLAR.0>
0

>  <SCORE.INTRA.REPUL>
0

>  <SCORE.INTRA.REPUL.0>
0

>  <SCORE.INTRA.SOLV>
-0.0939733

>  <SCORE.INTRA.SOLV.lig_0>
-40.9823

>  <SCORE.INTRA.VDW>
-1.31324

>  <SCORE.INTRA.VDW.0>
-0.53506

>  <SCORE.INTRA.norm>
-0.266142

>  <SCORE.RESTR>
0

>  <SCORE.RESTR.CAVITY>
0

>  <SCORE.RESTR.norm>
0

>  <SCORE.SYSTEM>
0

>  <SCORE.SYSTEM.CONST>
0

>  <SCORE.SYSTEM.DIHEDRAL>
0

>  <SCORE.SYSTEM.SOLV>
0

>  <SCORE.SYSTEM.norm>
0

>  <SCORE.heavy>
22

>  <SCORE.norm>
-0.856913

>  <RMSD>
4.813

$$$$
lig.pdb
 OpenBabel11021811523D
libRbt.so/2013.1/901 2013/11/27
 22 23  0  0  0  0  0  0  0  0999 V2000
   63.2173  -16.6184    8.2771 O   0  0  0  0  0  0  0  0  0  0  0  0
   62.2581  -16.0432    8.7349 C   0  0  0  0  0  0  0  0  0  0  0  0
   61.2164  -16.6942    9.2215 N   0  0  0  0  0  0  0  0  0  0  0  0
   62.2040  -14.5745    8.7229 C   0  0  0  0  0  0  0  0  0  0  0  0
   61.1948  -13.7655    9.4102 C   0  0  0  0  0  0  0  0  0  0  0  0
   60.1618  -14.2468   10.1344 N   0  0  0  0  0  0  0  0  0  0  0  0
   63.0015  -13.6749    8.1254 N   0  0  0  0  0  0  0  0  0  0  0  0
   62.5509  -12.4270    8.4329 C   0  0  0  0  0  0  0  0  0  0  0  0
   61.4512  -12.4758    9.2223 N   0  0  0  0  0  0  0  0  0  0  0  0
   60.7010  -11.3012    9.7447 C   0  0  1  0  0  0  0  0  0  0  0  0
   61.5930  -10.5127   10.6789 C   0  0  1  0  0  0  0  0  0  0  0  0
   61.2517   -9.0768   10.3755 C   0  0  2  0  0  0  0  0  0  0  0  0
   60.1922   -8.6374   11.2349 O   0  0  0  0  0  0  0  0  0  0  0  0
   61.3376  -10.8563   12.0498 O   0  0  0  0  0  0  0  0  0  0  0  0
   60.3662  -10.4152    8.6795 O   0  0  0  0  0  0  0  0  0  0  0  0
   60.7456   -9.0886    8.9565 C   0  0  2  0  0  0  0  0  0  0  0  0
   61.7504   -8.7096    7.8882 C   0  0  0  0  0  0  0  0  0  0  0  0
   62.2362   -7.3955    8.0706 O   0  0  0  0  0  0  0  0  0  0  0  0
   63.2809   -6.8137    7.0110 P   0  0  0  0  0  0  0  0  0  0  0  0
   62.6285   -7.0257    5.6595 O   0  0  0  0  0  0  0  0  0  0  0  0
   64.5003   -7.6605    7.2695 O   0  0  0  0  0  0  0  0  0  0  0  0
   63.4686   -5.3893    7.4543 O   0  0  0  0  0  0  0  0  0  0  0  0
  2  1  2  0  0  0  0
  2  4  1  0  0  0  0
  3  2  1  0  0  0  0
  4  7  1  0  0  0  0
  4  5  2  0  0  0  0
  5  6  1  0  0  0  0
  5  9  1  0  0  0  0
  7  8  2  0  0  0  0
  8  9  1  0  0  0  0
 10  9  1  6  0  0  0
 10 15  1  0  0  0  0
 11 14  1  1  0  0  0
 11 12  1  0  0  0  0
 11 10  1  0  0  0  0
 12 13  1  1  0  0  0
 12 16  1  0  0  0  0
 16 17  1  6  0  0  0
 16 15  1  0  0  0  0
 18 19  1  0  0  0  0
 18 17  1  0  0  0  0
 19 21  1  0  0  0  0
 20 19  1  0  0  0  0
 22 19  2  0  0  0  0
M  END
>  <CHROM.1>
-170.92882035,116.23079130,-60.82658989,52.45632110,-178.48036341,61.97488013
-10.69866699,8.75678253,-1.77910070,0.93801905,-0.03114718

>  <Name>
lig.pdb

>  <RI>
0

>  <Rbt.Current_Directory>
/home/itssahil/PROJECTS/Mol_Feturizer/New_Systems/rnas/4znp

>  <Rbt.Executable>
rbdock ($Id: //depot/dev/client3/rdock/2013.1/src/exe/rbdock.cxx#4 $)

>  <Rbt.Library>
libRbt.so (2013.1, Build901 2013/11/27)

>  <Rbt.Parameter_File>
/export/apps/rDock/src/rDock_2013.1_src/data/scripts/dock_solv.prm

>  <Rbt.Receptor>
prm/pocket_docking_6.prm

>  <SCORE>
-18.8786

>  <SCORE.INTER>
-12.9916

>  <SCORE.INTER.CONST>
1

>  <SCORE.INTER.POLAR>
0

>  <SCORE.INTER.ROT>
5

>  <SCORE.INTER.SOLV>
18.1005

>  <SCORE.INTER.VDW>
-21.6279

>  <SCORE.INTER.norm>
-0.590526

>  <SCORE.INTRA>
-5.88705

>  <SCORE.INTRA.DIHEDRAL>
-9.07888

>  <SCORE.INTRA.DIHEDRAL.0>
11.9251

>  <SCORE.INTRA.POLAR>
0

>  <SCORE.INTRA.POLAR.0>
0

>  <SCORE.INTRA.REPUL>
0

>  <SCORE.INTRA.REPUL.0>
0

>  <SCORE.INTRA.SOLV>
-0.10909

>  <SCORE.INTRA.SOLV.lig_0>
-40.9823

>  <SCORE.INTRA.VDW>
-1.29307

>  <SCORE.INTRA.VDW.0>
-0.53506

>  <SCORE.INTRA.norm>
-0.267593

>  <SCORE.RESTR>
0

>  <SCORE.RESTR.CAVITY>
0

>  <SCORE.RESTR.norm>
0

>  <SCORE.SYSTEM>
0

>  <SCORE.SYSTEM.CONST>
0

>  <SCORE.SYSTEM.DIHEDRAL>
0

>  <SCORE.SYSTEM.SOLV>
0

>  <SCORE.SYSTEM.norm>
0

>  <SCORE.heavy>
22

>  <SCORE.norm>
-0.858119

>  <RMSD>
4.839

$$$$
lig.pdb
 OpenBabel11021811523D
libRbt.so/2013.1/901 2013/11/27
 22 23  0  0  0  0  0  0  0  0999 V2000
   62.0801  -16.7377    8.6083 O   0  0  0  0  0  0  0  0  0  0  0  0
   61.4939  -15.8761    9.2203 C   0  0  0  0  0  0  0  0  0  0  0  0
   60.4136  -16.1354    9.9355 N   0  0  0  0  0  0  0  0  0  0  0  0
   61.9501  -14.4808    9.1492 C   0  0  0  0  0  0  0  0  0  0  0  0
   61.4771  -13.3972   10.0137 C   0  0  0  0  0  0  0  0  0  0  0  0
   60.5446  -13.5157   10.9831 N   0  0  0  0  0  0  0  0  0  0  0  0
   62.8436  -13.8931    8.3376 N   0  0  0  0  0  0  0  0  0  0  0  0
   62.9394  -12.5787    8.6806 C   0  0  0  0  0  0  0  0  0  0  0  0
   62.1115  -12.2711    9.7077 N   0  0  0  0  0  0  0  0  0  0  0  0
   61.9609  -10.9290   10.3334 C   0  0  1  0  0  0  0  0  0  0  0  0
   63.2820  -10.5084   10.9398 C   0  0  1  0  0  0  0  0  0  0  0  0
   63.3596   -9.0328   10.6449 C   0  0  2  0  0  0  0  0  0  0  0  0
   62.7816   -8.2903   11.7260 O   0  0  0  0  0  0  0  0  0  0  0  0
   63.3156  -10.7857   12.3486 O   0  0  0  0  0  0  0  0  0  0  0  0
   61.6552   -9.9527    9.3408 O   0  0  0  0  0  0  0  0  0  0  0  0
   62.5082   -8.8359    9.4176 C   0  0  2  0  0  0  0  0  0  0  0  0
   63.2470   -8.7829    8.0963 C   0  0  0  0  0  0  0  0  0  0  0  0
   63.9147   -7.5503    7.9203 O   0  0  0  0  0  0  0  0  0  0  0  0
   63.0705   -6.2890    7.4215 P   0  0  0  0  0  0  0  0  0  0  0  0
   61.9341   -6.1591    8.4157 O   0  0  0  0  0  0  0  0  0  0  0  0
   62.6586   -6.7109    6.0347 O   0  0  0  0  0  0  0  0  0  0  0  0
   64.0833   -5.1778    7.4046 O   0  0  0  0  0  0  0  0  0  0  0  0
  2  1  2  0  0  0  0
  2  4  1  0  0  0  0
  3  2  1  0  0  0  0
  4  7  1  0  0  0  0
  4  5  2  0  0  0  0
  5  6  1  0  0  0  0
  5  9  1  0  0  0  0
  7  8  2  0  0  0  0
  8  9  1  0  0  0  0
 10  9  1  6  0  0  0
 10 15  1  0  0  0  0
 11 14  1  1  0  0  0
 11 12  1  0  0  0  0
 11 10  1  0  0  0  0
 12 13  1  1  0  0  0
 12 16  1  0  0  0  0
 16 17  1  6  0  0  0
 16 15  1  0  0  0  0
 18 19  1  0  0  0  0
 18 17  1  0  0  0  0
 19 21  1  0  0  0  0
 20 19  1  0  0  0  0
 22 19  2  0  0  0  0
M  END
>  <CHROM.1>
-168.84439205,118.66912474,-75.13773165,55.11490571,-80.51194475,62.49661385
-10.42730637,9.17764487,3.01965756,1.39495755,1.49371041

>  <Name>
lig.pdb

>  <RI>
0

>  <Rbt.Current_Directory>
/home/itssahil/PROJECTS/Mol_Feturizer/New_Systems/rnas/4znp

>  <Rbt.Executable>
rbdock ($Id: //depot/dev/client3/rdock/2013.1/src/exe/rbdock.cxx#4 $)

>  <Rbt.Library>
libRbt.so (2013.1, Build901 2013/11/27)

>  <Rbt.Parameter_File>
/export/apps/rDock/src/rDock_2013.1_src/data/scripts/dock_solv.prm

>  <Rbt.Receptor>
prm/pocket_docking_8.prm

>  <SCORE>
-16.4815

>  <SCORE.INTER>
-12.1036

>  <SCORE.INTER.CONST>
1

>  <SCORE.INTER.POLAR>
0

>  <SCORE.INTER.ROT>
5

>  <SCORE.INTER.SOLV>
16.7929

>  <SCORE.INTER.VDW>
-20.6

>  <SCORE.INTER.norm>
-0.550164

>  <SCORE.INTRA>
-4.37794

>  <SCORE.INTRA.DIHEDRAL>
-6.30136

>  <SCORE.INTRA.DIHEDRAL.0>
11.9251

>  <SCORE.INTRA.POLAR>
0

>  <SCORE.INTRA.POLAR.0>
0

>  <SCORE.INTRA.REPUL>
0

>  <SCORE.INTRA.REPUL.0>
0

>  <SCORE.INTRA.SOLV>
0.415604

>  <SCORE.INTRA.SOLV.lig_0>
-40.9823

>  <SCORE.INTRA.VDW>
-1.43506

>  <SCORE.INTRA.VDW.0>
-0.53506

>  <SCORE.INTRA.norm>
-0.198997

>  <SCORE.RESTR>
0

>  <SCORE.RESTR.CAVITY>
0

>  <SCORE.RESTR.norm>
0

>  <SCORE.SYSTEM>
0

>  <SCORE.SYSTEM.CONST>
0

>  <SCORE.SYSTEM.DIHEDRAL>
0

>  <SCORE.SYSTEM.SOLV>
0

>  <SCORE.SYSTEM.norm>
0

>  <SCORE.heavy>
22

>  <SCORE.norm>
-0.749161

>  <RMSD>
4.846

$$$$
lig.pdb
 OpenBabel11021811523D
libRbt.so/2013.1/901 2013/11/27
 22 23  0  0  0  0  0  0  0  0999 V2000
   59.0607  -15.1149   10.3098 O   0  0  0  0  0  0  0  0  0  0  0  0
   60.1753  -15.2739    9.8707 C   0  0  0  0  0  0  0  0  0  0  0  0
   60.5467  -16.4021    9.2920 N   0  0  0  0  0  0  0  0  0  0  0  0
   61.1814  -14.2116   10.0102 C   0  0  0  0  0  0  0  0  0  0  0  0
   61.1050  -13.1022   10.9634 C   0  0  0  0  0  0  0  0  0  0  0  0
   60.0968  -12.8827   11.8343 N   0  0  0  0  0  0  0  0  0  0  0  0
   62.3325  -14.0053    9.3508 N   0  0  0  0  0  0  0  0  0  0  0  0
   62.9292  -12.8928    9.8616 C   0  0  0  0  0  0  0  0  0  0  0  0
   62.1871  -12.3402   10.8510 N   0  0  0  0  0  0  0  0  0  0  0  0
   62.5390  -11.1188   11.6255 C   0  0  1  0  0  0  0  0  0  0  0  0
   64.0433  -10.9553   11.6460 C   0  0  1  0  0  0  0  0  0  0  0  0
   64.2453   -9.4681   11.5126 C   0  0  2  0  0  0  0  0  0  0  0  0
   64.2980   -8.8665   12.8124 O   0  0  0  0  0  0  0  0  0  0  0  0
   64.6031  -11.4750   12.8622 O   0  0  0  0  0  0  0  0  0  0  0  0
   62.0260   -9.9578   10.9770 O   0  0  0  0  0  0  0  0  0  0  0  0
   63.0133   -8.9702   10.8024 C   0  0  2  0  0  0  0  0  0  0  0  0
   63.1429   -8.7687    9.3067 C   0  0  0  0  0  0  0  0  0  0  0  0
   63.7460   -7.5293    8.9968 O   0  0  0  0  0  0  0  0  0  0  0  0
   64.0210   -7.1762    7.4631 P   0  0  0  0  0  0  0  0  0  0  0  0
   65.1384   -8.1085    7.0399 O   0  0  0  0  0  0  0  0  0  0  0  0
   64.4000   -5.7195    7.5357 O   0  0  0  0  0  0  0  0  0  0  0  0
   62.6821   -7.3876    6.8124 O   0  0  0  0  0  0  0  0  0  0  0  0
  2  1  2  0  0  0  0
  2  4  1  0  0  0  0
  3  2  1  0  0  0  0
  4  7  1  0  0  0  0
  4  5  2  0  0  0  0
  5  6  1  0  0  0  0
  5  9  1  0  0  0  0
  7  8  2  0  0  0  0
  8  9  1  0  0  0  0
 10  9  1  6  0  0  0
 10 15  1  0  0  0  0
 11 14  1  1  0  0  0
 11 12  1  0  0  0  0
 11 10  1  0  0  0  0
 12 13  1  1  0  0  0
 12 16  1  0  0  0  0
 16 17  1  6  0  0  0
 16 15  1  0  0  0  0
 18 19  1  0  0  0  0
 18 17  1  0  0  0  0
 19 21  1  0  0  0  0
 20 19  1  0  0  0  0
 22 19  2  0  0  0  0
M  END
>  <CHROM.1>
18.48743176,153.98195311,-81.85704530,-70.18766414,177.36262434,62.73844736
-10.65503859,9.90584493,2.42500225,1.01303701,2.06297361

>  <Name>
lig.pdb

>  <RI>
0

>  <Rbt.Current_Directory>
/home/itssahil/PROJECTS/Mol_Feturizer/New_Systems/rnas/4znp

>  <Rbt.Executable>
rbdock ($Id: //depot/dev/client3/rdock/2013.1/src/exe/rbdock.cxx#4 $)

>  <Rbt.Library>
libRbt.so (2013.1, Build901 2013/11/27)

>  <Rbt.Parameter_File>
/export/apps/rDock/src/rDock_2013.1_src/data/scripts/dock_solv.prm

>  <Rbt.Receptor>
prm/pocket_docking_7.prm

>  <SCORE>
-16.2435

>  <SCORE.INTER>
-12.1854

>  <SCORE.INTER.CONST>
1

>  <SCORE.INTER.POLAR>
0

>  <SCORE.INTER.ROT>
5

>  <SCORE.INTER.SOLV>
18.3468

>  <SCORE.INTER.VDW>
-21.1725

>  <SCORE.INTER.norm>
-0.55388

>  <SCORE.INTRA>
-4.05816

>  <SCORE.INTRA.DIHEDRAL>
-6.47447

>  <SCORE.INTRA.DIHEDRAL.0>
11.9251

>  <SCORE.INTRA.POLAR>
0

>  <SCORE.INTRA.POLAR.0>
0

>  <SCORE.INTRA.REPUL>
0

>  <SCORE.INTRA.REPUL.0>
0

>  <SCORE.INTRA.SOLV>
-0.205221

>  <SCORE.INTRA.SOLV.lig_0>
-40.9823

>  <SCORE.INTRA.VDW>
-0.718313

>  <SCORE.INTRA.VDW.0>
-0.53506

>  <SCORE.INTRA.norm>
-0.184462

>  <SCORE.RESTR>
0

>  <SCORE.RESTR.CAVITY>
0

>  <SCORE.RESTR.norm>
0

>  <SCORE.SYSTEM>
0

>  <SCORE.SYSTEM.CONST>
0

>  <SCORE.SYSTEM.DIHEDRAL>
0

>  <SCORE.SYSTEM.SOLV>
0

>  <SCORE.SYSTEM.norm>
0

>  <SCORE.heavy>
22

>  <SCORE.norm>
-0.738341

>  <RMSD>
4.854

$$$$
lig.pdb
 OpenBabel11021811523D
libRbt.so/2013.1/901 2013/11/27
 22 23  0  0  0  0  0  0  0  0999 V2000
   63.2230  -16.6093    8.3058 O   0  0  0  0  0  0  0  0  0  0  0  0
   62.2577  -16.0332    8.7495 C   0  0  0  0  0  0  0  0  0  0  0  0
   61.2152  -16.6832    9.2357 N   0  0  0  0  0  0  0  0  0  0  0  0
   62.1970  -14.5650    8.7198 C   0  0  0  0  0  0  0  0  0  0  0  0
   61.1750  -13.7529    9.3841 C   0  0  0  0  0  0  0  0  0  0  0  0
   60.1345  -14.2309   10.0998 N   0  0  0  0  0  0  0  0  0  0  0  0
   62.9985  -13.6685    8.1228 N   0  0  0  0  0  0  0  0  0  0  0  0
   62.5381  -12.4193    8.4099 C   0  0  0  0  0  0  0  0  0  0  0  0
   61.4280  -12.4643    9.1849 N   0  0  0  0  0  0  0  0  0  0  0  0
   60.6654  -11.2874    9.6836 C   0  0  1  0  0  0  0  0  0  0  0  0
   61.5351  -10.4938   10.6345 C   0  0  1  0  0  0  0  0  0  0  0  0
   61.2005   -9.0596   10.3158 C   0  0  2  0  0  0  0  0  0  0  0  0
   60.1212   -8.6162   11.1479 O   0  0  0  0  0  0  0  0  0  0  0  0
   61.2478  -10.8305   12.0007 O   0  0  0  0  0  0  0  0  0  0  0  0
   60.3554  -10.4069    8.6063 O   0  0  0  0  0  0  0  0  0  0  0  0
   60.7278   -9.0787    8.8854 C   0  0  2  0  0  0  0  0  0  0  0  0
   61.7573   -8.7048    7.8391 C   0  0  0  0  0  0  0  0  0  0  0  0
   62.2262   -7.3839    8.0162 O   0  0  0  0  0  0  0  0  0  0  0  0
   63.3412   -6.8288    7.0155 P   0  0  0  0  0  0  0  0  0  0  0  0
   62.7457   -6.9968    5.6320 O   0  0  0  0  0  0  0  0  0  0  0  0
   64.5138   -7.7258    7.3176 O   0  0  0  0  0  0  0  0  0  0  0  0
   63.5621   -5.4189    7.4890 O   0  0  0  0  0  0  0  0  0  0  0  0
  2  1  2  0  0  0  0
  2  4  1  0  0  0  0
  3  2  1  0  0  0  0
  4  7  1  0  0  0  0
  4  5  2  0  0  0  0
  5  6  1  0  0  0  0
  5  9  1  0  0  0  0
  7  8  2  0  0  0  0
  8  9  1  0  0  0  0
 10  9  1  6  0  0  0
 10 15  1  0  0  0  0
 11 14  1  1  0  0  0
 11 12  1  0  0  0  0
 11 10  1  0  0  0  0
 12 13  1  1  0  0  0
 12 16  1  0  0  0  0
 16 17  1  6  0  0  0
 16 15  1  0  0  0  0
 18 19  1  0  0  0  0
 18 17  1  0  0  0  0
 19 21  1  0  0  0  0
 20 19  1  0  0  0  0
 22 19  2  0  0  0  0
M  END
>  <CHROM.1>
-171.26423933,115.51213390,-61.55642666,56.17391030,178.84978418,61.97295653
-10.69366839,8.73310025,-1.78173223,0.90800058,-0.03391011

>  <Name>
lig.pdb

>  <RI>
0

>  <Rbt.Current_Directory>
/home/itssahil/PROJECTS/Mol_Feturizer/New_Systems/rnas/4znp

>  <Rbt.Executable>
rbdock ($Id: //depot/dev/client3/rdock/2013.1/src/exe/rbdock.cxx#4 $)

>  <Rbt.Library>
libRbt.so (2013.1, Build901 2013/11/27)

>  <Rbt.Parameter_File>
/export/apps/rDock/src/rDock_2013.1_src/data/scripts/dock_solv.prm

>  <Rbt.Receptor>
prm/pocket_docking_7.prm

>  <SCORE>
-19.0301

>  <SCORE.INTER>
-13.0925

>  <SCORE.INTER.CONST>
1

>  <SCORE.INTER.POLAR>
0

>  <SCORE.INTER.ROT>
5

>  <SCORE.INTER.SOLV>
18.1357

>  <SCORE.INTER.VDW>
-21.7069

>  <SCORE.INTER.norm>
-0.595112

>  <SCORE.INTRA>
-5.9376

>  <SCORE.INTRA.DIHEDRAL>
-9.15966

>  <SCORE.INTRA.DIHEDRAL.0>
11.9251

>  <SCORE.INTRA.POLAR>
0

>  <SCORE.INTRA.POLAR.0>
0

>  <SCORE.INTRA.REPUL>
0

>  <SCORE.INTRA.REPUL.0>
0

>  <SCORE.INTRA.SOLV>
-0.0944915

>  <SCORE.INTRA.SOLV.lig_0>
-40.9823

>  <SCORE.INTRA.VDW>
-1.31052

>  <SCORE.INTRA.VDW.0>
-0.53506

>  <SCORE.INTRA.norm>
-0.269891

>  <SCORE.RESTR>
0

>  <SCORE.RESTR.CAVITY>
0

>  <SCORE.RESTR.norm>
0

>  <SCORE.SYSTEM>
0

>  <SCORE.SYSTEM.CONST>
0

>  <SCORE.SYSTEM.DIHEDRAL>
0

>  <SCORE.SYSTEM.SOLV>
0

>  <SCORE.SYSTEM.norm>
0

>  <SCORE.heavy>
22

>  <SCORE.norm>
-0.865002

>  <RMSD>
4.856

$$$$
lig.pdb
 OpenBabel11021811523D
libRbt.so/2013.1/901 2013/11/27
 22 23  0  0  0  0  0  0  0  0999 V2000
   62.6515  -16.5878    8.2629 O   0  0  0  0  0  0  0  0  0  0  0  0
   61.9146  -15.8901    8.9191 C   0  0  0  0  0  0  0  0  0  0  0  0
   60.8600  -16.3794    9.5468 N   0  0  0  0  0  0  0  0  0  0  0  0
   62.1511  -14.4418    9.0028 C   0  0  0  0  0  0  0  0  0  0  0  0
   61.5173  -13.5417    9.9689 C   0  0  0  0  0  0  0  0  0  0  0  0
   60.6141  -13.9039   10.9051 N   0  0  0  0  0  0  0  0  0  0  0  0
   62.9437  -13.6415    8.2724 N   0  0  0  0  0  0  0  0  0  0  0  0
   62.8364  -12.3720    8.7535 C   0  0  0  0  0  0  0  0  0  0  0  0
   61.9712  -12.3057    9.7937 N   0  0  0  0  0  0  0  0  0  0  0  0
   61.6162  -11.0768   10.5548 C   0  0  1  0  0  0  0  0  0  0  0  0
   62.8824  -10.4082   11.0445 C   0  0  1  0  0  0  0  0  0  0  0  0
   62.5986   -8.9374   10.8815 C   0  0  2  0  0  0  0  0  0  0  0  0
   62.0201   -8.4181   12.0855 O   0  0  0  0  0  0  0  0  0  0  0  0
   63.1596  -10.7626   12.4084 O   0  0  0  0  0  0  0  0  0  0  0  0
   60.9786  -10.1324    9.6985 O   0  0  0  0  0  0  0  0  0  0  0  0
   61.5715   -8.8587    9.7821 C   0  0  2  0  0  0  0  0  0  0  0  0
   62.1016   -8.5528    8.3965 C   0  0  0  0  0  0  0  0  0  0  0  0
   62.6660   -7.2595    8.3269 O   0  0  0  0  0  0  0  0  0  0  0  0
   63.3958   -6.8166    6.9764 P   0  0  0  0  0  0  0  0  0  0  0  0
   64.6320   -7.6893    6.8937 O   0  0  0  0  0  0  0  0  0  0  0  0
   63.6635   -5.3546    7.2249 O   0  0  0  0  0  0  0  0  0  0  0  0
   62.3433   -7.0352    5.9250 O   0  0  0  0  0  0  0  0  0  0  0  0
  2  1  2  0  0  0  0
  2  4  1  0  0  0  0
  3  2  1  0  0  0  0
  4  7  1  0  0  0  0
  4  5  2  0  0  0  0
  5  6  1  0  0  0  0
  5  9  1  0  0  0  0
  7  8  2  0  0  0  0
  8  9  1  0  0  0  0
 10  9  1  6  0  0  0
 10 15  1  0  0  0  0
 11 14  1  1  0  0  0
 11 12  1  0  0  0  0
 11 10  1  0  0  0  0
 12 13  1  1  0  0  0
 12 16  1  0  0  0  0
 16 17  1  6  0  0  0
 16 15  1  0  0  0  0
 18 19  1  0  0  0  0
 18 17  1  0  0  0  0
 19 21  1  0  0  0  0
 20 19  1  0  0  0  0
 22 19  2  0  0  0  0
M  END
>  <CHROM.1>
-166.51567601,127.34841016,-65.12482433,-67.67104816,174.46002823,62.40742566
-10.57072517,9.10409111,-2.26075375,1.31945471,0.44599541

>  <Name>
lig.pdb

>  <RI>
0

>  <Rbt.Current_Directory>
/home/itssahil/PROJECTS/Mol_Feturizer/New_Systems/rnas/4znp

>  <Rbt.Executable>
rbdock ($Id: //depot/dev/client3/rdock/2013.1/src/exe/rbdock.cxx#4 $)

>  <Rbt.Library>
libRbt.so (2013.1, Build901 2013/11/27)

>  <Rbt.Parameter_File>
/export/apps/rDock/src/rDock_2013.1_src/data/scripts/dock_solv.prm

>  <Rbt.Receptor>
prm/pocket_docking_7.prm

>  <SCORE>
-17.9301

>  <SCORE.INTER>
-12.5098

>  <SCORE.INTER.CONST>
1

>  <SCORE.INTER.POLAR>
0

>  <SCORE.INTER.ROT>
5

>  <SCORE.INTER.SOLV>
18.2308

>  <SCORE.INTER.VDW>
-21.3501

>  <SCORE.INTER.norm>
-0.568625

>  <SCORE.INTRA>
-5.42035

>  <SCORE.INTRA.DIHEDRAL>
-8.45736

>  <SCORE.INTRA.DIHEDRAL.0>
11.9251

>  <SCORE.INTRA.POLAR>
0

>  <SCORE.INTRA.POLAR.0>
0

>  <SCORE.INTRA.REPUL>
0

>  <SCORE.INTRA.REPUL.0>
0

>  <SCORE.INTRA.SOLV>
0.0817247

>  <SCORE.INTRA.SOLV.lig_0>
-40.9823

>  <SCORE.INTRA.VDW>
-1.23253

>  <SCORE.INTRA.VDW.0>
-0.53506

>  <SCORE.INTRA.norm>
-0.24638

>  <SCORE.RESTR>
0

>  <SCORE.RESTR.CAVITY>
0

>  <SCORE.RESTR.norm>
0

>  <SCORE.SYSTEM>
0

>  <SCORE.SYSTEM.CONST>
0

>  <SCORE.SYSTEM.DIHEDRAL>
0

>  <SCORE.SYSTEM.SOLV>
0

>  <SCORE.SYSTEM.norm>
0

>  <SCORE.heavy>
22

>  <SCORE.norm>
-0.815005

>  <RMSD>
4.863

$$$$
lig.pdb
 OpenBabel11021811523D
libRbt.so/2013.1/901 2013/11/27
 22 23  0  0  0  0  0  0  0  0999 V2000
   62.4454  -16.4754    8.4796 O   0  0  0  0  0  0  0  0  0  0  0  0
   61.8165  -15.6523    9.1021 C   0  0  0  0  0  0  0  0  0  0  0  0
   60.7438  -15.9728    9.8037 N   0  0  0  0  0  0  0  0  0  0  0  0
   62.2100  -14.2368    9.0596 C   0  0  0  0  0  0  0  0  0  0  0  0
   61.7927  -13.2195   10.0273 C   0  0  0  0  0  0  0  0  0  0  0  0
   60.9751  -13.4268   11.0818 N   0  0  0  0  0  0  0  0  0  0  0  0
   62.9884  -13.5712    8.1916 N   0  0  0  0  0  0  0  0  0  0  0  0
   63.0713  -12.2728    8.5940 C   0  0  0  0  0  0  0  0  0  0  0  0
   62.3480  -12.0532    9.7181 N   0  0  0  0  0  0  0  0  0  0  0  0
   62.2156  -10.7521   10.4286 C   0  0  1  0  0  0  0  0  0  0  0  0
   63.5317  -10.4077   11.0916 C   0  0  1  0  0  0  0  0  0  0  0  0
   63.6531   -8.9184   10.8979 C   0  0  2  0  0  0  0  0  0  0  0  0
   63.0677   -8.2342   12.0129 O   0  0  0  0  0  0  0  0  0  0  0  0
   63.5241  -10.7787   12.4789 O   0  0  0  0  0  0  0  0  0  0  0  0
   61.9585   -9.7044    9.4970 O   0  0  0  0  0  0  0  0  0  0  0  0
   62.8368   -8.6181    9.6676 C   0  0  2  0  0  0  0  0  0  0  0  0
   63.6086   -8.4970    8.3699 C   0  0  0  0  0  0  0  0  0  0  0  0
   62.7595   -8.1876    7.2839 O   0  0  0  0  0  0  0  0  0  0  0  0
   62.2112   -6.6934    7.1450 P   0  0  0  0  0  0  0  0  0  0  0  0
   63.4410   -5.8465    6.8858 O   0  0  0  0  0  0  0  0  0  0  0  0
   61.5546   -6.4705    8.4829 O   0  0  0  0  0  0  0  0  0  0  0  0
   61.2116   -6.7928    6.0262 O   0  0  0  0  0  0  0  0  0  0  0  0
  2  1  2  0  0  0  0
  2  4  1  0  0  0  0
  3  2  1  0  0  0  0
  4  7  1  0  0  0  0
  4  5  2  0  0  0  0
  5  6  1  0  0  0  0
  5  9  1  0  0  0  0
  7  8  2  0  0  0  0
  8  9  1  0  0  0  0
 10  9  1  6  0  0  0
 10 15  1  0  0  0  0
 11 14  1  1  0  0  0
 11 12  1  0  0  0  0
 11 10  1  0  0  0  0
 12 13  1  1  0  0  0
 12 16  1  0  0  0  0
 16 17  1  6  0  0  0
 16 15  1  0  0  0  0
 18 19  1  0  0  0  0
 18 17  1  0  0  0  0
 19 21  1  0  0  0  0
 20 19  1  0  0  0  0
 22 19  2  0  0  0  0
M  END
>  <CHROM.1>
-161.97775472,110.26194447,-178.76323018,65.06814668,75.64345953,62.44285695
-10.41448102,9.14368462,1.83842580,1.33878457,2.65282978

>  <Name>
lig.pdb

>  <RI>
0

>  <Rbt.Current_Directory>
/home/itssahil/PROJECTS/Mol_Feturizer/New_Systems/rnas/4znp

>  <Rbt.Executable>
rbdock ($Id: //depot/dev/client3/rdock/2013.1/src/exe/rbdock.cxx#4 $)

>  <Rbt.Library>
libRbt.so (2013.1, Build901 2013/11/27)

>  <Rbt.Parameter_File>
/export/apps/rDock/src/rDock_2013.1_src/data/scripts/dock_solv.prm

>  <Rbt.Receptor>
prm/pocket_docking_8.prm

>  <SCORE>
-15.9306

>  <SCORE.INTER>
-11.4524

>  <SCORE.INTER.CONST>
1

>  <SCORE.INTER.POLAR>
0

>  <SCORE.INTER.ROT>
5

>  <SCORE.INTER.SOLV>
17.0293

>  <SCORE.INTER.VDW>
-20.2447

>  <SCORE.INTER.norm>
-0.520562

>  <SCORE.INTRA>
-4.47821

>  <SCORE.INTRA.DIHEDRAL>
-7.11324

>  <SCORE.INTRA.DIHEDRAL.0>
11.9251

>  <SCORE.INTRA.POLAR>
0

>  <SCORE.INTRA.POLAR.0>
0

>  <SCORE.INTRA.REPUL>
0

>  <SCORE.INTRA.REPUL.0>
0

>  <SCORE.INTRA.SOLV>
0.607794

>  <SCORE.INTRA.SOLV.lig_0>
-40.9823

>  <SCORE.INTRA.VDW>
-1.22549

>  <SCORE.INTRA.VDW.0>
-0.53506

>  <SCORE.INTRA.norm>
-0.203555

>  <SCORE.RESTR>
0

>  <SCORE.RESTR.CAVITY>
0

>  <SCORE.RESTR.norm>
0

>  <SCORE.SYSTEM>
0

>  <SCORE.SYSTEM.CONST>
0

>  <SCORE.SYSTEM.DIHEDRAL>
0

>  <SCORE.SYSTEM.SOLV>
0

>  <SCORE.SYSTEM.norm>
0

>  <SCORE.heavy>
22

>  <SCORE.norm>
-0.724117

>  <RMSD>
4.867

$$$$
lig.pdb
 OpenBabel11021811523D
libRbt.so/2013.1/901 2013/11/27
 22 23  0  0  0  0  0  0  0  0999 V2000
   61.5161  -16.3492    9.2278 O   0  0  0  0  0  0  0  0  0  0  0  0
   62.3484  -15.6336    8.7220 C   0  0  0  0  0  0  0  0  0  0  0  0
   63.4858  -16.1085    8.2461 N   0  0  0  0  0  0  0  0  0  0  0  0
   62.1330  -14.1810    8.6606 C   0  0  0  0  0  0  0  0  0  0  0  0
   60.9884  -13.4762    9.2422 C   0  0  0  0  0  0  0  0  0  0  0  0
   59.9600  -14.0551    9.8986 N   0  0  0  0  0  0  0  0  0  0  0  0
   62.8715  -13.2104    8.0994 N   0  0  0  0  0  0  0  0  0  0  0  0
   62.2622  -12.0149    8.3325 C   0  0  0  0  0  0  0  0  0  0  0  0
   61.1146  -12.1702    9.0353 N   0  0  0  0  0  0  0  0  0  0  0  0
   60.1993  -11.0766    9.4615 C   0  0  1  0  0  0  0  0  0  0  0  0
   60.5682  -10.6317   10.8601 C   0  0  1  0  0  0  0  0  0  0  0  0
   60.3875   -9.1363   10.8212 C   0  0  2  0  0  0  0  0  0  0  0  0
   59.0508   -8.7983   11.2123 O   0  0  0  0  0  0  0  0  0  0  0  0
   59.7260  -11.2578   11.8405 O   0  0  0  0  0  0  0  0  0  0  0  0
   60.3723   -9.9342    8.6268 O   0  0  0  0  0  0  0  0  0  0  0  0
   60.5747   -8.7592    9.3746 C   0  0  2  0  0  0  0  0  0  0  0  0
   61.9495   -8.2517    8.9915 C   0  0  0  0  0  0  0  0  0  0  0  0
   61.9791   -7.7767    7.6612 O   0  0  0  0  0  0  0  0  0  0  0  0
   63.3261   -7.1111    7.1179 P   0  0  0  0  0  0  0  0  0  0  0  0
   64.4171   -8.1118    7.4422 O   0  0  0  0  0  0  0  0  0  0  0  0
   63.3853   -5.8270    7.9043 O   0  0  0  0  0  0  0  0  0  0  0  0
   63.0352   -6.8775    5.6613 O   0  0  0  0  0  0  0  0  0  0  0  0
  2  1  2  0  0  0  0
  2  4  1  0  0  0  0
  3  2  1  0  0  0  0
  4  7  1  0  0  0  0
  4  5  2  0  0  0  0
  5  6  1  0  0  0  0
  5  9  1  0  0  0  0
  7  8  2  0  0  0  0
  8  9  1  0  0  0  0
 10  9  1  6  0  0  0
 10 15  1  0  0  0  0
 11 14  1  1  0  0  0
 11 12  1  0  0  0  0
 11 10  1  0  0  0  0
 12 13  1  6  0  0  0
 12 16  1  0  0  0  0
 16 17  1  1  0  0  0
 16 15  1  0  0  0  0
 18 19  1  0  0  0  0
 18 17  1  0  0  0  0
 19 21  1  0  0  0  0
 20 19  1  0  0  0  0
 22 19  2  0  0  0  0
M  END
>  <CHROM.1>
3.57248430,87.16655813,-172.96285540,51.15218699,175.90968046,61.71992684
-10.61593517,8.81319464,-1.77937602,0.76917335,-0.06258159

>  <Name>
lig.pdb

>  <RI>
0

>  <Rbt.Current_Directory>
/home/itssahil/PROJECTS/Mol_Feturizer/New_Systems/rnas/4znp

>  <Rbt.Executable>
rbdock ($Id: //depot/dev/client3/rdock/2013.1/src/exe/rbdock.cxx#4 $)

>  <Rbt.Library>
libRbt.so (2013.1, Build901 2013/11/27)

>  <Rbt.Parameter_File>
/export/apps/rDock/src/rDock_2013.1_src/data/scripts/dock_solv.prm

>  <Rbt.Receptor>
prm/pocket_docking_7.prm

>  <SCORE>
-16.9335

>  <SCORE.INTER>
-10.8884

>  <SCORE.INTER.CONST>
1

>  <SCORE.INTER.POLAR>
0

>  <SCORE.INTER.ROT>
5

>  <SCORE.INTER.SOLV>
18.2657

>  <SCORE.INTER.VDW>
-20.2808

>  <SCORE.INTER.norm>
-0.494927

>  <SCORE.INTRA>
-6.04513

>  <SCORE.INTRA.DIHEDRAL>
-9.11285

>  <SCORE.INTRA.DIHEDRAL.0>
11.9251

>  <SCORE.INTRA.POLAR>
0

>  <SCORE.INTRA.POLAR.0>
0

>  <SCORE.INTRA.REPUL>
0

>  <SCORE.INTRA.REPUL.0>
0

>  <SCORE.INTRA.SOLV>
-0.0991193

>  <SCORE.INTRA.SOLV.lig_0>
-40.9823

>  <SCORE.INTRA.VDW>
-1.43915

>  <SCORE.INTRA.VDW.0>
-0.53506

>  <SCORE.INTRA.norm>
-0.274779

>  <SCORE.RESTR>
0

>  <SCORE.RESTR.CAVITY>
0

>  <SCORE.RESTR.norm>
0

>  <SCORE.SYSTEM>
0

>  <SCORE.SYSTEM.CONST>
0

>  <SCORE.SYSTEM.DIHEDRAL>
0

>  <SCORE.SYSTEM.SOLV>
0

>  <SCORE.SYSTEM.norm>
0

>  <SCORE.heavy>
22

>  <SCORE.norm>
-0.769706

>  <RMSD>
4.906

$$$$
lig.pdb
 OpenBabel11021811523D
libRbt.so/2013.1/901 2013/11/27
 22 23  0  0  0  0  0  0  0  0999 V2000
   61.6253  -16.4098    9.1224 O   0  0  0  0  0  0  0  0  0  0  0  0
   62.4709  -15.6876    8.6493 C   0  0  0  0  0  0  0  0  0  0  0  0
   63.5948  -16.1622    8.1422 N   0  0  0  0  0  0  0  0  0  0  0  0
   62.2881  -14.2293    8.6651 C   0  0  0  0  0  0  0  0  0  0  0  0
   61.1305  -13.5338    9.2321 C   0  0  0  0  0  0  0  0  0  0  0  0
   60.0594  -14.1266    9.8020 N   0  0  0  0  0  0  0  0  0  0  0  0
   63.0729  -13.2445    8.1996 N   0  0  0  0  0  0  0  0  0  0  0  0
   62.4770  -12.0512    8.4745 C   0  0  0  0  0  0  0  0  0  0  0  0
   61.2931  -12.2212    9.1104 N   0  0  0  0  0  0  0  0  0  0  0  0
   60.3800  -11.1339    9.5569 C   0  0  1  0  0  0  0  0  0  0  0  0
   60.7664  -10.6978   10.9535 C   0  0  1  0  0  0  0  0  0  0  0  0
   60.5801   -9.2028   10.9279 C   0  0  2  0  0  0  0  0  0  0  0  0
   59.2477   -8.8722   11.3396 O   0  0  0  0  0  0  0  0  0  0  0  0
   59.9397  -11.3338   11.9407 O   0  0  0  0  0  0  0  0  0  0  0  0
   60.5377   -9.9849    8.7282 O   0  0  0  0  0  0  0  0  0  0  0  0
   60.7463   -8.8146    9.4816 C   0  0  2  0  0  0  0  0  0  0  0  0
   62.1141   -8.2996    9.0836 C   0  0  0  0  0  0  0  0  0  0  0  0
   62.1349   -7.8547    7.7428 O   0  0  0  0  0  0  0  0  0  0  0  0
   63.4475   -7.1218    7.2018 P   0  0  0  0  0  0  0  0  0  0  0  0
   64.5758   -8.1021    7.4520 O   0  0  0  0  0  0  0  0  0  0  0  0
   63.4869   -5.8756    8.0481 O   0  0  0  0  0  0  0  0  0  0  0  0
   63.1142   -6.8279    5.7654 O   0  0  0  0  0  0  0  0  0  0  0  0
  2  1  2  0  0  0  0
  2  4  1  0  0  0  0
  3  2  1  0  0  0  0
  4  7  1  0  0  0  0
  4  5  2  0  0  0  0
  5  6  1  0  0  0  0
  5  9  1  0  0  0  0
  7  8  2  0  0  0  0
  8  9  1  0  0  0  0
 10  9  1  6  0  0  0
 10 15  1  0  0  0  0
 11 14  1  1  0  0  0
 11 12  1  0  0  0  0
 11 10  1  0  0  0  0
 12 13  1  6  0  0  0
 12 16  1  0  0  0  0
 16 17  1  1  0  0  0
 16 15  1  0  0  0  0
 18 19  1  0  0  0  0
 18 17  1  0  0  0  0
 19 21  1  0  0  0  0
 20 19  1  0  0  0  0
 22 19  2  0  0  0  0
M  END
>  <CHROM.1>
0.41005760,92.06200362,-174.85630676,56.10020232,172.98605893,61.87351147
-10.66071281,8.86981936,-1.78006675,0.78652025,-0.04072720

>  <Name>
lig.pdb

>  <RI>
0

>  <Rbt.Current_Directory>
/home/itssahil/PROJECTS/Mol_Feturizer/New_Systems/rnas/4znp

>  <Rbt.Executable>
rbdock ($Id: //depot/dev/client3/rdock/2013.1/src/exe/rbdock.cxx#4 $)

>  <Rbt.Library>
libRbt.so (2013.1, Build901 2013/11/27)

>  <Rbt.Parameter_File>
/export/apps/rDock/src/rDock_2013.1_src/data/scripts/dock_solv.prm

>  <Rbt.Receptor>
prm/pocket_docking_7.prm

>  <SCORE>
-17.0624

>  <SCORE.INTER>
-10.9424

>  <SCORE.INTER.CONST>
1

>  <SCORE.INTER.POLAR>
0

>  <SCORE.INTER.ROT>
5

>  <SCORE.INTER.SOLV>
18.3195

>  <SCORE.INTER.VDW>
-20.3347

>  <SCORE.INTER.norm>
-0.49738

>  <SCORE.INTRA>
-6.12003

>  <SCORE.INTRA.DIHEDRAL>
-9.19033

>  <SCORE.INTRA.DIHEDRAL.0>
11.9251

>  <SCORE.INTRA.POLAR>
0

>  <SCORE.INTRA.POLAR.0>
0

>  <SCORE.INTRA.REPUL>
0

>  <SCORE.INTRA.REPUL.0>
0

>  <SCORE.INTRA.SOLV>
-0.161333

>  <SCORE.INTRA.SOLV.lig_0>
-40.9823

>  <SCORE.INTRA.VDW>
-1.4442

>  <SCORE.INTRA.VDW.0>
-0.53506

>  <SCORE.INTRA.norm>
-0.278183

>  <SCORE.RESTR>
0

>  <SCORE.RESTR.CAVITY>
0

>  <SCORE.RESTR.norm>
0

>  <SCORE.SYSTEM>
0

>  <SCORE.SYSTEM.CONST>
0

>  <SCORE.SYSTEM.DIHEDRAL>
0

>  <SCORE.SYSTEM.SOLV>
0

>  <SCORE.SYSTEM.norm>
0

>  <SCORE.heavy>
22

>  <SCORE.norm>
-0.775563

>  <RMSD>
4.919

$$$$
lig.pdb
 OpenBabel11021811523D
libRbt.so/2013.1/901 2013/11/27
 22 23  0  0  0  0  0  0  0  0999 V2000
   61.3490  -16.5904    9.1781 O   0  0  0  0  0  0  0  0  0  0  0  0
   62.2761  -15.9423    8.7527 C   0  0  0  0  0  0  0  0  0  0  0  0
   63.3916  -16.5089    8.3281 N   0  0  0  0  0  0  0  0  0  0  0  0
   62.2038  -14.4744    8.7365 C   0  0  0  0  0  0  0  0  0  0  0  0
   61.1444  -13.6786    9.3607 C   0  0  0  0  0  0  0  0  0  0  0  0
   60.0755  -14.1734   10.0211 N   0  0  0  0  0  0  0  0  0  0  0  0
   63.0245  -13.5644    8.1881 N   0  0  0  0  0  0  0  0  0  0  0  0
   62.5400  -12.3226    8.4669 C   0  0  0  0  0  0  0  0  0  0  0  0
   61.3950  -12.3857    9.1880 N   0  0  0  0  0  0  0  0  0  0  0  0
   60.5993  -11.2210    9.6631 C   0  0  1  0  0  0  0  0  0  0  0  0
   61.4357  -10.4009   10.6213 C   0  0  1  0  0  0  0  0  0  0  0  0
   61.0764   -8.9770   10.2841 C   0  0  2  0  0  0  0  0  0  0  0  0
   59.9738   -8.5494   11.0939 O   0  0  0  0  0  0  0  0  0  0  0  0
   61.1323  -10.7318   11.9855 O   0  0  0  0  0  0  0  0  0  0  0  0
   60.2892  -10.3568    8.5729 O   0  0  0  0  0  0  0  0  0  0  0  0
   60.6287   -9.0185    8.8462 C   0  0  2  0  0  0  0  0  0  0  0  0
   61.6677   -8.6319    7.8140 C   0  0  0  0  0  0  0  0  0  0  0  0
   62.1049   -7.2995    7.9866 O   0  0  0  0  0  0  0  0  0  0  0  0
   63.2344   -6.7338    7.0084 P   0  0  0  0  0  0  0  0  0  0  0  0
   63.3610   -5.2657    7.3626 O   0  0  0  0  0  0  0  0  0  0  0  0
   62.6462   -7.0128    5.6494 O   0  0  0  0  0  0  0  0  0  0  0  0
   64.4221   -7.6057    7.3081 O   0  0  0  0  0  0  0  0  0  0  0  0
  2  1  2  0  0  0  0
  2  4  1  0  0  0  0
  3  2  1  0  0  0  0
  4  7  1  0  0  0  0
  4  5  2  0  0  0  0
  5  6  1  0  0  0  0
  5  9  1  0  0  0  0
  7  8  2  0  0  0  0
  8  9  1  0  0  0  0
 10  9  1  6  0  0  0
 10 15  1  0  0  0  0
 11 14  1  1  0  0  0
 11 12  1  0  0  0  0
 11 10  1  0  0  0  0
 12 13  1  1  0  0  0
 12 16  1  0  0  0  0
 16 17  1  6  0  0  0
 16 15  1  0  0  0  0
 18 19  1  0  0  0  0
 18 17  1  0  0  0  0
 19 21  1  0  0  0  0
 20 19  1  0  0  0  0
 22 19  2  0  0  0  0
M  END
>  <CHROM.1>
8.25739412,117.71860769,-61.59230837,174.24347888,178.29245462,61.90155403
-10.61111501,8.72053979,-1.75288725,0.88886487,-0.06359399

>  <Name>
lig.pdb

>  <RI>
0

>  <Rbt.Current_Directory>
/home/itssahil/PROJECTS/Mol_Feturizer/New_Systems/rnas/4znp

>  <Rbt.Executable>
rbdock ($Id: //depot/dev/client3/rdock/2013.1/src/exe/rbdock.cxx#4 $)

>  <Rbt.Library>
libRbt.so (2013.1, Build901 2013/11/27)

>  <Rbt.Parameter_File>
/export/apps/rDock/src/rDock_2013.1_src/data/scripts/dock_solv.prm

>  <Rbt.Receptor>
prm/pocket_docking_6.prm

>  <SCORE>
-18.7477

>  <SCORE.INTER>
-12.946

>  <SCORE.INTER.CONST>
1

>  <SCORE.INTER.POLAR>
0

>  <SCORE.INTER.ROT>
5

>  <SCORE.INTER.SOLV>
18.4559

>  <SCORE.INTER.VDW>
-21.716

>  <SCORE.INTER.norm>
-0.588454

>  <SCORE.INTRA>
-5.80177

>  <SCORE.INTRA.DIHEDRAL>
-9.15317

>  <SCORE.INTRA.DIHEDRAL.0>
11.9251

>  <SCORE.INTRA.POLAR>
0

>  <SCORE.INTRA.POLAR.0>
0

>  <SCORE.INTRA.REPUL>
0

>  <SCORE.INTRA.REPUL.0>
0

>  <SCORE.INTRA.SOLV>
-0.122225

>  <SCORE.INTRA.SOLV.lig_0>
-40.9823

>  <SCORE.INTRA.VDW>
-1.16407

>  <SCORE.INTRA.VDW.0>
-0.53506

>  <SCORE.INTRA.norm>
-0.263717

>  <SCORE.RESTR>
0

>  <SCORE.RESTR.CAVITY>
0

>  <SCORE.RESTR.norm>
0

>  <SCORE.SYSTEM>
0

>  <SCORE.SYSTEM.CONST>
0

>  <SCORE.SYSTEM.DIHEDRAL>
0

>  <SCORE.SYSTEM.SOLV>
0

>  <SCORE.SYSTEM.norm>
0

>  <SCORE.heavy>
22

>  <SCORE.norm>
-0.85217

>  <RMSD>
4.938

$$$$
lig.pdb
 OpenBabel11021811523D
libRbt.so/2013.1/901 2013/11/27
 22 23  0  0  0  0  0  0  0  0999 V2000
   61.7437  -16.3817    9.0799 O   0  0  0  0  0  0  0  0  0  0  0  0
   62.5475  -15.6283    8.5832 C   0  0  0  0  0  0  0  0  0  0  0  0
   63.6721  -16.0606    8.0409 N   0  0  0  0  0  0  0  0  0  0  0  0
   62.3120  -14.1777    8.6082 C   0  0  0  0  0  0  0  0  0  0  0  0
   61.1198  -13.5296    9.1593 C   0  0  0  0  0  0  0  0  0  0  0  0
   60.0604  -14.1657    9.7036 N   0  0  0  0  0  0  0  0  0  0  0  0
   63.0694  -13.1611    8.1662 N   0  0  0  0  0  0  0  0  0  0  0  0
   62.4259  -11.9925    8.4402 C   0  0  0  0  0  0  0  0  0  0  0  0
   61.2372  -12.2109    9.0521 N   0  0  0  0  0  0  0  0  0  0  0  0
   60.2774  -11.1612    9.4907 C   0  0  1  0  0  0  0  0  0  0  0  0
   60.5967  -10.7538   10.9128 C   0  0  1  0  0  0  0  0  0  0  0  0
   60.3699   -9.2642   10.9195 C   0  0  2  0  0  0  0  0  0  0  0  0
   59.0138   -8.9810   11.2866 O   0  0  0  0  0  0  0  0  0  0  0  0
   59.7502  -11.4388   11.8491 O   0  0  0  0  0  0  0  0  0  0  0  0
   60.4352   -9.9859    8.6999 O   0  0  0  0  0  0  0  0  0  0  0  0
   60.5815   -8.8317    9.4919 C   0  0  2  0  0  0  0  0  0  0  0  0
   61.9488   -8.2694    9.1624 C   0  0  0  0  0  0  0  0  0  0  0  0
   61.9999   -7.7572    7.8467 O   0  0  0  0  0  0  0  0  0  0  0  0
   63.3477   -7.0564    7.3518 P   0  0  0  0  0  0  0  0  0  0  0  0
   63.4809   -5.8130    8.2080 O   0  0  0  0  0  0  0  0  0  0  0  0
   63.0558   -6.7993    5.8960 O   0  0  0  0  0  0  0  0  0  0  0  0
   64.3870   -8.1253    7.5472 O   0  0  0  0  0  0  0  0  0  0  0  0
  2  1  2  0  0  0  0
  2  4  1  0  0  0  0
  3  2  1  0  0  0  0
  4  7  1  0  0  0  0
  4  5  2  0  0  0  0
  5  6  1  0  0  0  0
  5  9  1  0  0  0  0
  7  8  2  0  0  0  0
  8  9  1  0  0  0  0
 10  9  1  6  0  0  0
 10 15  1  0  0  0  0
 11 14  1  1  0  0  0
 11 12  1  0  0  0  0
 11 10  1  0  0  0  0
 12 13  1  6  0  0  0
 12 16  1  0  0  0  0
 16 17  1  1  0  0  0
 16 15  1  0  0  0  0
 18 19  1  0  0  0  0
 18 17  1  0  0  0  0
 19 21  1  0  0  0  0
 20 19  1  0  0  0  0
 22 19  2  0  0  0  0
M  END
>  <CHROM.1>
-2.43836329,90.41277514,-173.40691311,-65.68949787,176.98150932,61.79508572
-10.64759085,8.87554542,-1.74803202,0.74849703,-0.04377993

>  <Name>
lig.pdb

>  <RI>
0

>  <Rbt.Current_Directory>
/home/itssahil/PROJECTS/Mol_Feturizer/New_Systems/rnas/4znp

>  <Rbt.Executable>
rbdock ($Id: //depot/dev/client3/rdock/2013.1/src/exe/rbdock.cxx#4 $)

>  <Rbt.Library>
libRbt.so (2013.1, Build901 2013/11/27)

>  <Rbt.Parameter_File>
/export/apps/rDock/src/rDock_2013.1_src/data/scripts/dock_solv.prm

>  <Rbt.Receptor>
prm/pocket_docking_6.prm

>  <SCORE>
-17.2046

>  <SCORE.INTER>
-11.1186

>  <SCORE.INTER.CONST>
1

>  <SCORE.INTER.POLAR>
0

>  <SCORE.INTER.ROT>
5

>  <SCORE.INTER.SOLV>
17.0326

>  <SCORE.INTER.VDW>
-20.0233

>  <SCORE.INTER.norm>
-0.505391

>  <SCORE.INTRA>
-6.09002

>  <SCORE.INTRA.DIHEDRAL>
-9.30292

>  <SCORE.INTRA.DIHEDRAL.0>
11.9251

>  <SCORE.INTRA.POLAR>
0

>  <SCORE.INTRA.POLAR.0>
0

>  <SCORE.INTRA.REPUL>
0

>  <SCORE.INTRA.REPUL.0>
0

>  <SCORE.INTRA.SOLV>
0.132077

>  <SCORE.INTRA.SOLV.lig_0>
-40.9823

>  <SCORE.INTRA.VDW>
-1.5046

>  <SCORE.INTRA.VDW.0>
-0.53506

>  <SCORE.INTRA.norm>
-0.276819

>  <SCORE.RESTR>
0.00399238

>  <SCORE.RESTR.CAVITY>
0.00399238

>  <SCORE.RESTR.norm>
0.000181472

>  <SCORE.SYSTEM>
0

>  <SCORE.SYSTEM.CONST>
0

>  <SCORE.SYSTEM.DIHEDRAL>
0

>  <SCORE.SYSTEM.SOLV>
0

>  <SCORE.SYSTEM.norm>
0

>  <SCORE.heavy>
22

>  <SCORE.norm>
-0.782029

>  <RMSD>
4.938

$$$$
lig.pdb
 OpenBabel11021811523D
libRbt.so/2013.1/901 2013/11/27
 22 23  0  0  0  0  0  0  0  0999 V2000
   60.9742  -16.3316    9.5273 O   0  0  0  0  0  0  0  0  0  0  0  0
   61.8947  -15.8371    8.9202 C   0  0  0  0  0  0  0  0  0  0  0  0
   62.7304  -16.5635    8.1993 N   0  0  0  0  0  0  0  0  0  0  0  0
   62.1410  -14.3905    9.0040 C   0  0  0  0  0  0  0  0  0  0  0  0
   61.5214  -13.4878    9.9770 C   0  0  0  0  0  0  0  0  0  0  0  0
   60.6242  -13.8459   10.9205 N   0  0  0  0  0  0  0  0  0  0  0  0
   62.9322  -13.5940    8.2678 N   0  0  0  0  0  0  0  0  0  0  0  0
   62.8372  -12.3246    8.7518 C   0  0  0  0  0  0  0  0  0  0  0  0
   61.9815  -12.2545    9.7996 N   0  0  0  0  0  0  0  0  0  0  0  0
   61.6411  -11.0246   10.5656 C   0  0  1  0  0  0  0  0  0  0  0  0
   62.9165  -10.3518   11.0247 C   0  0  1  0  0  0  0  0  0  0  0  0
   62.6254   -8.8821   10.8647 C   0  0  2  0  0  0  0  0  0  0  0  0
   62.0732   -8.3611   12.0803 O   0  0  0  0  0  0  0  0  0  0  0  0
   63.2256  -10.7021   12.3828 O   0  0  0  0  0  0  0  0  0  0  0  0
   60.9818  -10.0838    9.7219 O   0  0  0  0  0  0  0  0  0  0  0  0
   61.5733   -8.8085    9.7889 C   0  0  2  0  0  0  0  0  0  0  0  0
   62.0709   -8.5048    8.3908 C   0  0  0  0  0  0  0  0  0  0  0  0
   62.6365   -7.2129    8.3067 O   0  0  0  0  0  0  0  0  0  0  0  0
   63.3227   -6.7675    6.9344 P   0  0  0  0  0  0  0  0  0  0  0  0
   62.2820   -7.0429    5.8676 O   0  0  0  0  0  0  0  0  0  0  0  0
   64.5379   -7.6573    6.8836 O   0  0  0  0  0  0  0  0  0  0  0  0
   63.6780   -5.3265    7.1752 O   0  0  0  0  0  0  0  0  0  0  0  0
  2  1  2  0  0  0  0
  2  4  1  0  0  0  0
  3  2  1  0  0  0  0
  4  7  1  0  0  0  0
  4  5  2  0  0  0  0
  5  6  1  0  0  0  0
  5  9  1  0  0  0  0
  7  8  2  0  0  0  0
  8  9  1  0  0  0  0
 10  9  1  6  0  0  0
 10 15  1  0  0  0  0
 11 14  1  1  0  0  0
 11 12  1  0  0  0  0
 11 10  1  0  0  0  0
 12 13  1  1  0  0  0
 12 16  1  0  0  0  0
 16 17  1  6  0  0  0
 16 15  1  0  0  0  0
 18 19  1  0  0  0  0
 18 17  1  0  0  0  0
 19 21  1  0  0  0  0
 20 19  1  0  0  0  0
 22 19  2  0  0  0  0
M  END
>  <CHROM.1>
12.61488944,128.32212483,-64.82644127,51.94038661,175.02802999,62.39792362
-10.52390452,9.09726797,-2.31241571,1.34004535,0.49368105

>  <Name>
lig.pdb

>  <RI>
0

>  <Rbt.Current_Directory>
/home/itssahil/PROJECTS/Mol_Feturizer/New_Systems/rnas/4znp

>  <Rbt.Executable>
rbdock ($Id: //depot/dev/client3/rdock/2013.1/src/exe/rbdock.cxx#4 $)

>  <Rbt.Library>
libRbt.so (2013.1, Build901 2013/11/27)

>  <Rbt.Parameter_File>
/export/apps/rDock/src/rDock_2013.1_src/data/scripts/dock_solv.prm

>  <Rbt.Receptor>
prm/pocket_docking_6.prm

>  <SCORE>
-18.2801

>  <SCORE.INTER>
-12.5848

>  <SCORE.INTER.CONST>
1

>  <SCORE.INTER.POLAR>
0

>  <SCORE.INTER.ROT>
5

>  <SCORE.INTER.SOLV>
18.2029

>  <SCORE.INTER.VDW>
-21.3908

>  <SCORE.INTER.norm>
-0.572036

>  <SCORE.INTRA>
-5.6953

>  <SCORE.INTRA.DIHEDRAL>
-8.56814

>  <SCORE.INTRA.DIHEDRAL.0>
11.9251

>  <SCORE.INTRA.POLAR>
0

>  <SCORE.INTRA.POLAR.0>
0

>  <SCORE.INTRA.REPUL>
0

>  <SCORE.INTRA.REPUL.0>
0

>  <SCORE.INTRA.SOLV>
-0.408963

>  <SCORE.INTRA.SOLV.lig_0>
-40.9823

>  <SCORE.INTRA.VDW>
-1.20675

>  <SCORE.INTRA.VDW.0>
-0.53506

>  <SCORE.INTRA.norm>
-0.258877

>  <SCORE.RESTR>
0

>  <SCORE.RESTR.CAVITY>
0

>  <SCORE.RESTR.norm>
0

>  <SCORE.SYSTEM>
0

>  <SCORE.SYSTEM.CONST>
0

>  <SCORE.SYSTEM.DIHEDRAL>
0

>  <SCORE.SYSTEM.SOLV>
0

>  <SCORE.SYSTEM.norm>
0

>  <SCORE.heavy>
22

>  <SCORE.norm>
-0.830914

>  <RMSD>
4.944

$$$$
lig.pdb
 OpenBabel11021811523D
libRbt.so/2013.1/901 2013/11/27
 22 23  0  0  0  0  0  0  0  0999 V2000
   61.1881  -16.3863    9.3969 O   0  0  0  0  0  0  0  0  0  0  0  0
   62.1019  -15.8447    8.8206 C   0  0  0  0  0  0  0  0  0  0  0  0
   62.9970  -16.5268    8.1284 N   0  0  0  0  0  0  0  0  0  0  0  0
   62.2712  -14.3876    8.9119 C   0  0  0  0  0  0  0  0  0  0  0  0
   61.5847  -13.5207    9.8724 C   0  0  0  0  0  0  0  0  0  0  0  0
   60.6868  -13.9270   10.7955 N   0  0  0  0  0  0  0  0  0  0  0  0
   63.0360  -13.5494    8.1944 N   0  0  0  0  0  0  0  0  0  0  0  0
   62.8649  -12.2878    8.6780 C   0  0  0  0  0  0  0  0  0  0  0  0
   61.9842  -12.2648    9.7069 N   0  0  0  0  0  0  0  0  0  0  0  0
   61.5639  -11.0560   10.4670 C   0  0  1  0  0  0  0  0  0  0  0  0
   62.7917  -10.3378   10.9837 C   0  0  1  0  0  0  0  0  0  0  0  0
   62.4495   -8.8793   10.8225 C   0  0  2  0  0  0  0  0  0  0  0  0
   61.8274   -8.3913   12.0179 O   0  0  0  0  0  0  0  0  0  0  0  0
   63.0580  -10.6879   12.3509 O   0  0  0  0  0  0  0  0  0  0  0  0
   60.9033  -10.1343    9.6035 O   0  0  0  0  0  0  0  0  0  0  0  0
   61.4406   -8.8374    9.7044 C   0  0  2  0  0  0  0  0  0  0  0  0
   61.9831   -8.5019    8.3305 C   0  0  0  0  0  0  0  0  0  0  0  0
   62.5667   -7.2156    8.2990 O   0  0  0  0  0  0  0  0  0  0  0  0
   63.3473   -6.7633    6.9805 P   0  0  0  0  0  0  0  0  0  0  0  0
   62.3785   -7.0191    5.8434 O   0  0  0  0  0  0  0  0  0  0  0  0
   64.5557   -7.6634    7.0025 O   0  0  0  0  0  0  0  0  0  0  0  0
   63.6976   -5.3279    7.2592 O   0  0  0  0  0  0  0  0  0  0  0  0
  2  1  2  0  0  0  0
  2  4  1  0  0  0  0
  3  2  1  0  0  0  0
  4  7  1  0  0  0  0
  4  5  2  0  0  0  0
  5  6  1  0  0  0  0
  5  9  1  0  0  0  0
  7  8  2  0  0  0  0
  8  9  1  0  0  0  0
 10  9  1  6  0  0  0
 10 15  1  0  0  0  0
 11 14  1  1  0  0  0
 11 12  1  0  0  0  0
 11 10  1  0  0  0  0
 12 13  1  1  0  0  0
 12 16  1  0  0  0  0
 16 17  1  6  0  0  0
 16 15  1  0  0  0  0
 18 19  1  0  0  0  0
 18 17  1  0  0  0  0
 19 21  1  0  0  0  0
 20 19  1  0  0  0  0
 22 19  2  0  0  0  0
M  END
>  <CHROM.1>
13.28078292,126.95013809,-61.57480811,51.78881356,172.70096447,62.40015344
-10.53066456,9.05114570,-2.08700085,1.29111537,0.28192727

>  <Name>
lig.pdb

>  <RI>
0

>  <Rbt.Current_Directory>
/home/itssahil/PROJECTS/Mol_Feturizer/New_Systems/rnas/4znp

>  <Rbt.Executable>
rbdock ($Id: //depot/dev/client3/rdock/2013.1/src/exe/rbdock.cxx#4 $)

>  <Rbt.Library>
libRbt.so (2013.1, Build901 2013/11/27)

>  <Rbt.Parameter_File>
/export/apps/rDock/src/rDock_2013.1_src/data/scripts/dock_solv.prm

>  <Rbt.Receptor>
prm/pocket_docking_8.prm

>  <SCORE>
-18.2548

>  <SCORE.INTER>
-12.5886

>  <SCORE.INTER.CONST>
1

>  <SCORE.INTER.POLAR>
0

>  <SCORE.INTER.ROT>
5

>  <SCORE.INTER.SOLV>
18.3585

>  <SCORE.INTER.VDW>
-21.4452

>  <SCORE.INTER.norm>
-0.572207

>  <SCORE.INTRA>
-5.66623

>  <SCORE.INTRA.DIHEDRAL>
-8.44341

>  <SCORE.INTRA.DIHEDRAL.0>
11.9251

>  <SCORE.INTRA.POLAR>
0

>  <SCORE.INTRA.POLAR.0>
0

>  <SCORE.INTRA.REPUL>
0

>  <SCORE.INTRA.REPUL.0>
0

>  <SCORE.INTRA.SOLV>
-0.382284

>  <SCORE.INTRA.SOLV.lig_0>
-40.9823

>  <SCORE.INTRA.VDW>
-1.25338

>  <SCORE.INTRA.VDW.0>
-0.53506

>  <SCORE.INTRA.norm>
-0.257556

>  <SCORE.RESTR>
0

>  <SCORE.RESTR.CAVITY>
0

>  <SCORE.RESTR.norm>
0

>  <SCORE.SYSTEM>
0

>  <SCORE.SYSTEM.CONST>
0

>  <SCORE.SYSTEM.DIHEDRAL>
0

>  <SCORE.SYSTEM.SOLV>
0

>  <SCORE.SYSTEM.norm>
0

>  <SCORE.heavy>
22

>  <SCORE.norm>
-0.829763

>  <RMSD>
4.975

$$$$
lig.pdb
 OpenBabel11021811523D
libRbt.so/2013.1/901 2013/11/27
 22 23  0  0  0  0  0  0  0  0999 V2000
   61.7429  -16.3600    9.0956 O   0  0  0  0  0  0  0  0  0  0  0  0
   62.5530  -15.6113    8.6020 C   0  0  0  0  0  0  0  0  0  0  0  0
   63.6913  -16.0470    8.0920 N   0  0  0  0  0  0  0  0  0  0  0  0
   62.3091  -14.1619    8.5949 C   0  0  0  0  0  0  0  0  0  0  0  0
   61.0895  -13.5128    9.0811 C   0  0  0  0  0  0  0  0  0  0  0  0
   60.0095  -14.1473    9.5855 N   0  0  0  0  0  0  0  0  0  0  0  0
   63.0807  -13.1473    8.1732 N   0  0  0  0  0  0  0  0  0  0  0  0
   62.4192  -11.9787    8.4001 C   0  0  0  0  0  0  0  0  0  0  0  0
   61.2049  -12.1952    8.9600 N   0  0  0  0  0  0  0  0  0  0  0  0
   60.2205  -11.1450    9.3386 C   0  0  1  0  0  0  0  0  0  0  0  0
   60.5142  -10.6670   10.7441 C   0  0  1  0  0  0  0  0  0  0  0  0
   60.2600   -9.1832   10.6798 C   0  0  2  0  0  0  0  0  0  0  0  0
   58.8944   -8.9092   11.0175 O   0  0  0  0  0  0  0  0  0  0  0  0
   59.6687  -11.3244   11.7008 O   0  0  0  0  0  0  0  0  0  0  0  0
   60.3667  -10.0042    8.4966 O   0  0  0  0  0  0  0  0  0  0  0  0
   60.4817   -8.8125    9.2364 C   0  0  2  0  0  0  0  0  0  0  0  0
   61.8425   -8.2400    8.8976 C   0  0  0  0  0  0  0  0  0  0  0  0
   61.9352   -7.8855    7.5332 O   0  0  0  0  0  0  0  0  0  0  0  0
   63.2238   -7.0805    7.0392 P   0  0  0  0  0  0  0  0  0  0  0  0
   63.1819   -5.7689    7.7975 O   0  0  0  0  0  0  0  0  0  0  0  0
   62.9784   -6.9673    5.5567 O   0  0  0  0  0  0  0  0  0  0  0  0
   64.3597   -8.0112    7.3620 O   0  0  0  0  0  0  0  0  0  0  0  0
  2  1  2  0  0  0  0
  2  4  1  0  0  0  0
  3  2  1  0  0  0  0
  4  7  1  0  0  0  0
  4  5  2  0  0  0  0
  5  6  1  0  0  0  0
  5  9  1  0  0  0  0
  7  8  2  0  0  0  0
  8  9  1  0  0  0  0
 10  9  1  6  0  0  0
 10 15  1  0  0  0  0
 11 14  1  1  0  0  0
 11 12  1  0  0  0  0
 11 10  1  0  0  0  0
 12 13  1  6  0  0  0
 12 16  1  0  0  0  0
 16 17  1  1  0  0  0
 16 15  1  0  0  0  0
 18 19  1  0  0  0  0
 18 17  1  0  0  0  0
 19 21  1  0  0  0  0
 20 19  1  0  0  0  0
 22 19  2  0  0  0  0
M  END
>  <CHROM.1>
-3.86703415,93.15115873,-178.08861822,-62.50759166,171.64208002,61.72587993
-10.63313236,8.70229477,-1.72572886,0.73928933,-0.09781692

>  <Name>
lig.pdb

>  <RI>
0

>  <Rbt.Current_Directory>
/home/itssahil/PROJECTS/Mol_Feturizer/New_Systems/rnas/4znp

>  <Rbt.Executable>
rbdock ($Id: //depot/dev/client3/rdock/2013.1/src/exe/rbdock.cxx#4 $)

>  <Rbt.Library>
libRbt.so (2013.1, Build901 2013/11/27)

>  <Rbt.Parameter_File>
/export/apps/rDock/src/rDock_2013.1_src/data/scripts/dock_solv.prm

>  <Rbt.Receptor>
prm/pocket_docking_7.prm

>  <SCORE>
-17.4407

>  <SCORE.INTER>
-11.3808

>  <SCORE.INTER.CONST>
1

>  <SCORE.INTER.POLAR>
0

>  <SCORE.INTER.ROT>
5

>  <SCORE.INTER.SOLV>
17.9105

>  <SCORE.INTER.VDW>
-20.4907

>  <SCORE.INTER.norm>
-0.517308

>  <SCORE.INTRA>
-6.05997

>  <SCORE.INTRA.DIHEDRAL>
-9.15992

>  <SCORE.INTRA.DIHEDRAL.0>
11.9251

>  <SCORE.INTRA.POLAR>
0

>  <SCORE.INTRA.POLAR.0>
0

>  <SCORE.INTRA.REPUL>
0

>  <SCORE.INTRA.REPUL.0>
0

>  <SCORE.INTRA.SOLV>
0.0713659

>  <SCORE.INTRA.SOLV.lig_0>
-40.9823

>  <SCORE.INTRA.VDW>
-1.51569

>  <SCORE.INTRA.VDW.0>
-0.53506

>  <SCORE.INTRA.norm>
-0.275453

>  <SCORE.RESTR>
0

>  <SCORE.RESTR.CAVITY>
0

>  <SCORE.RESTR.norm>
0

>  <SCORE.SYSTEM>
0

>  <SCORE.SYSTEM.CONST>
0

>  <SCORE.SYSTEM.DIHEDRAL>
0

>  <SCORE.SYSTEM.SOLV>
0

>  <SCORE.SYSTEM.norm>
0

>  <SCORE.heavy>
22

>  <SCORE.norm>
-0.792761

>  <RMSD>
4.998

$$$$
lig.pdb
 OpenBabel11021811523D
libRbt.so/2013.1/901 2013/11/27
 22 23  0  0  0  0  0  0  0  0999 V2000
   63.3865  -16.3730    8.3853 O   0  0  0  0  0  0  0  0  0  0  0  0
   62.3683  -15.8239    8.7349 C   0  0  0  0  0  0  0  0  0  0  0  0
   61.3024  -16.5025    9.1210 N   0  0  0  0  0  0  0  0  0  0  0  0
   62.2709  -14.3578    8.6976 C   0  0  0  0  0  0  0  0  0  0  0  0
   61.1502  -13.5767    9.2260 C   0  0  0  0  0  0  0  0  0  0  0  0
   60.0407  -14.0857    9.8031 N   0  0  0  0  0  0  0  0  0  0  0  0
   63.1166  -13.4374    8.2077 N   0  0  0  0  0  0  0  0  0  0  0  0
   62.5887  -12.2025    8.4336 C   0  0  0  0  0  0  0  0  0  0  0  0
   61.3905  -12.2809    9.0606 N   0  0  0  0  0  0  0  0  0  0  0  0
   60.5380  -11.1272    9.4579 C   0  0  1  0  0  0  0  0  0  0  0  0
   61.2587  -10.3108   10.5088 C   0  0  1  0  0  0  0  0  0  0  0  0
   60.9256   -8.8862   10.1483 C   0  0  2  0  0  0  0  0  0  0  0  0
   59.7383   -8.4756   10.8379 O   0  0  0  0  0  0  0  0  0  0  0  0
   60.8123  -10.6582   11.8289 O   0  0  0  0  0  0  0  0  0  0  0  0
   60.3403  -10.2540    8.3488 O   0  0  0  0  0  0  0  0  0  0  0  0
   60.6365   -8.9162    8.6700 C   0  0  2  0  0  0  0  0  0  0  0  0
   61.7777   -8.5109    7.7602 C   0  0  0  0  0  0  0  0  0  0  0  0
   62.1086   -7.1460    7.9134 O   0  0  0  0  0  0  0  0  0  0  0  0
   63.3147   -6.5511    7.0508 P   0  0  0  0  0  0  0  0  0  0  0  0
   63.2899   -5.0595    7.3177 O   0  0  0  0  0  0  0  0  0  0  0  0
   62.9321   -6.9540    5.6501 O   0  0  0  0  0  0  0  0  0  0  0  0
   64.5109   -7.3081    7.5577 O   0  0  0  0  0  0  0  0  0  0  0  0
  2  1  2  0  0  0  0
  2  4  1  0  0  0  0
  3  2  1  0  0  0  0
  4  7  1  0  0  0  0
  4  5  2  0  0  0  0
  5  6  1  0  0  0  0
  5  9  1  0  0  0  0
  7  8  2  0  0  0  0
  8  9  1  0  0  0  0
 10  9  1  6  0  0  0
 10 15  1  0  0  0  0
 11 14  1  1  0  0  0
 11 12  1  0  0  0  0
 11 10  1  0  0  0  0
 12 13  1  1  0  0  0
 12 16  1  0  0  0  0
 16 17  1  6  0  0  0
 16 15  1  0  0  0  0
 18 19  1  0  0  0  0
 18 17  1  0  0  0  0
 19 21  1  0  0  0  0
 20 19  1  0  0  0  0
 22 19  2  0  0  0  0
M  END
>  <CHROM.1>
-173.16044632,115.68451479,-66.47467608,173.15169276,178.73820351,61.90945572
-10.48577911,8.64606600,-1.73743774,0.80280243,-0.07519770

>  <Name>
lig.pdb

>  <RI>
0

>  <Rbt.Current_Directory>
/home/itssahil/PROJECTS/Mol_Feturizer/New_Systems/rnas/4znp

>  <Rbt.Executable>
rbdock ($Id: //depot/dev/client3/rdock/2013.1/src/exe/rbdock.cxx#4 $)

>  <Rbt.Library>
libRbt.so (2013.1, Build901 2013/11/27)

>  <Rbt.Parameter_File>
/export/apps/rDock/src/rDock_2013.1_src/data/scripts/dock_solv.prm

>  <Rbt.Receptor>
prm/pocket_docking_8.prm

>  <SCORE>
-18.8249

>  <SCORE.INTER>
-13.1799

>  <SCORE.INTER.CONST>
1

>  <SCORE.INTER.POLAR>
0

>  <SCORE.INTER.ROT>
5

>  <SCORE.INTER.SOLV>
17.6069

>  <SCORE.INTER.VDW>
-21.5889

>  <SCORE.INTER.norm>
-0.599087

>  <SCORE.INTRA>
-5.64495

>  <SCORE.INTRA.DIHEDRAL>
-9.08325

>  <SCORE.INTRA.DIHEDRAL.0>
11.9251

>  <SCORE.INTRA.POLAR>
0

>  <SCORE.INTRA.POLAR.0>
0

>  <SCORE.INTRA.REPUL>
0

>  <SCORE.INTRA.REPUL.0>
0

>  <SCORE.INTRA.SOLV>
0.105752

>  <SCORE.INTRA.SOLV.lig_0>
-40.9823

>  <SCORE.INTRA.VDW>
-1.1562

>  <SCORE.INTRA.VDW.0>
-0.53506

>  <SCORE.INTRA.norm>
-0.256589

>  <SCORE.RESTR>
0

>  <SCORE.RESTR.CAVITY>
0

>  <SCORE.RESTR.norm>
0

>  <SCORE.SYSTEM>
0

>  <SCORE.SYSTEM.CONST>
0

>  <SCORE.SYSTEM.DIHEDRAL>
0

>  <SCORE.SYSTEM.SOLV>
0

>  <SCORE.SYSTEM.norm>
0

>  <SCORE.heavy>
22

>  <SCORE.norm>
-0.855675

>  <RMSD>
5.005

$$$$
lig.pdb
 OpenBabel11021811523D
libRbt.so/2013.1/901 2013/11/27
 22 23  0  0  0  0  0  0  0  0999 V2000
   56.6375   -9.1841   12.8602 O   0  0  0  0  0  0  0  0  0  0  0  0
   57.5186   -9.9612   13.1435 C   0  0  0  0  0  0  0  0  0  0  0  0
   57.9953  -10.0636   14.3715 N   0  0  0  0  0  0  0  0  0  0  0  0
   58.1264  -10.7993   12.1003 C   0  0  0  0  0  0  0  0  0  0  0  0
   59.1642  -11.8068   12.3309 C   0  0  0  0  0  0  0  0  0  0  0  0
   59.7253  -12.0979   13.5241 N   0  0  0  0  0  0  0  0  0  0  0  0
   57.9028  -10.8485   10.7774 N   0  0  0  0  0  0  0  0  0  0  0  0
   58.7020  -11.8114   10.2400 C   0  0  0  0  0  0  0  0  0  0  0  0
   59.4704  -12.4044   11.1849 N   0  0  0  0  0  0  0  0  0  0  0  0
   60.4563  -13.4941   10.9481 C   0  0  1  0  0  0  0  0  0  0  0  0
   60.2696  -14.0429    9.5503 C   0  0  1  0  0  0  0  0  0  0  0  0
   61.6756  -14.3052    9.0761 C   0  0  2  0  0  0  0  0  0  0  0  0
   62.0570  -15.6468    9.4058 O   0  0  0  0  0  0  0  0  0  0  0  0
   59.4678  -15.2343    9.5658 O   0  0  0  0  0  0  0  0  0  0  0  0
   61.7840  -12.9775   10.9938 O   0  0  0  0  0  0  0  0  0  0  0  0
   62.5364  -13.3533    9.8653 C   0  0  2  0  0  0  0  0  0  0  0  0
   62.9152  -12.0635    9.1672 C   0  0  0  0  0  0  0  0  0  0  0  0
   61.7821  -11.3982    8.6481 O   0  0  0  0  0  0  0  0  0  0  0  0
   61.8236   -9.8062    8.5197 P   0  0  0  0  0  0  0  0  0  0  0  0
   61.4960   -9.2918    9.9071 O   0  0  0  0  0  0  0  0  0  0  0  0
   60.7675   -9.5442    7.4772 O   0  0  0  0  0  0  0  0  0  0  0  0
   63.2116   -9.5349    8.0091 O   0  0  0  0  0  0  0  0  0  0  0  0
  2  1  2  0  0  0  0
  2  4  1  0  0  0  0
  3  2  1  0  0  0  0
  4  7  1  0  0  0  0
  4  5  2  0  0  0  0
  5  6  1  0  0  0  0
  5  9  1  0  0  0  0
  7  8  2  0  0  0  0
  8  9  1  0  0  0  0
 10  9  1  6  0  0  0
 10 15  1  0  0  0  0
 11 14  1  1  0  0  0
 11 12  1  0  0  0  0
 11 10  1  0  0  0  0
 12 13  1  1  0  0  0
 12 16  1  0  0  0  0
 16 17  1  6  0  0  0
 16 15  1  0  0  0  0
 18 19  1  0  0  0  0
 18 17  1  0  0  0  0
 19 21  1  0  0  0  0
 20 19  1  0  0  0  0
 22 19  2  0  0  0  0
M  END
>  <CHROM.1>
-177.72514981,168.81736098,51.83600788,-81.39048508,151.21149698,60.39058217
-11.68410625,10.35508684,-2.94245162,-0.79139802,2.99041910

>  <Name>
lig.pdb

>  <RI>
0

>  <Rbt.Current_Directory>
/home/itssahil/PROJECTS/Mol_Feturizer/New_Systems/rnas/4znp

>  <Rbt.Executable>
rbdock ($Id: //depot/dev/client3/rdock/2013.1/src/exe/rbdock.cxx#4 $)

>  <Rbt.Library>
libRbt.so (2013.1, Build901 2013/11/27)

>  <Rbt.Parameter_File>
/export/apps/rDock/src/rDock_2013.1_src/data/scripts/dock_solv.prm

>  <Rbt.Receptor>
prm/pocket_docking_5.prm

>  <SCORE>
-13.8808

>  <SCORE.INTER>
-10.4841

>  <SCORE.INTER.CONST>
1

>  <SCORE.INTER.POLAR>
0

>  <SCORE.INTER.ROT>
5

>  <SCORE.INTER.SOLV>
14.1919

>  <SCORE.INTER.VDW>
-18.6534

>  <SCORE.INTER.norm>
-0.476551

>  <SCORE.INTRA>
-3.39666

>  <SCORE.INTRA.DIHEDRAL>
-5.20599

>  <SCORE.INTRA.DIHEDRAL.0>
11.9251

>  <SCORE.INTRA.POLAR>
0

>  <SCORE.INTRA.POLAR.0>
0

>  <SCORE.INTRA.REPUL>
0

>  <SCORE.INTRA.REPUL.0>
0

>  <SCORE.INTRA.SOLV>
1.11157

>  <SCORE.INTRA.SOLV.lig_0>
-40.9823

>  <SCORE.INTRA.VDW>
-1.34945

>  <SCORE.INTRA.VDW.0>
-0.53506

>  <SCORE.INTRA.norm>
-0.154393

>  <SCORE.RESTR>
0

>  <SCORE.RESTR.CAVITY>
0

>  <SCORE.RESTR.norm>
0

>  <SCORE.SYSTEM>
0

>  <SCORE.SYSTEM.CONST>
0

>  <SCORE.SYSTEM.DIHEDRAL>
0

>  <SCORE.SYSTEM.SOLV>
0

>  <SCORE.SYSTEM.norm>
0

>  <SCORE.heavy>
22

>  <SCORE.norm>
-0.630944

>  <RMSD>
5.007

$$$$
lig.pdb
 OpenBabel11021811523D
libRbt.so/2013.1/901 2013/11/27
 22 23  0  0  0  0  0  0  0  0999 V2000
   57.4278  -11.3404   14.6103 O   0  0  0  0  0  0  0  0  0  0  0  0
   56.9851  -10.8794   13.5846 C   0  0  0  0  0  0  0  0  0  0  0  0
   55.7543  -10.4062   13.5021 N   0  0  0  0  0  0  0  0  0  0  0  0
   57.8052  -10.8725   12.3649 C   0  0  0  0  0  0  0  0  0  0  0  0
   59.1516  -11.4383   12.2547 C   0  0  0  0  0  0  0  0  0  0  0  0
   59.8405  -12.0277   13.2554 N   0  0  0  0  0  0  0  0  0  0  0  0
   57.5484  -10.3835   11.1412 N   0  0  0  0  0  0  0  0  0  0  0  0
   58.6178  -10.6438   10.3392 C   0  0  0  0  0  0  0  0  0  0  0  0
   59.5978  -11.2932   11.0121 N   0  0  0  0  0  0  0  0  0  0  0  0
   60.9026  -11.7298   10.4442 C   0  0  1  0  0  0  0  0  0  0  0  0
   60.6540  -12.6428    9.2632 C   0  0  1  0  0  0  0  0  0  0  0  0
   61.7224  -12.2518    8.2753 C   0  0  2  0  0  0  0  0  0  0  0  0
   62.8905  -13.0568    8.4789 O   0  0  0  0  0  0  0  0  0  0  0  0
   60.7464  -14.0232    9.6488 O   0  0  0  0  0  0  0  0  0  0  0  0
   61.6179  -10.6088    9.9311 O   0  0  0  0  0  0  0  0  0  0  0  0
   62.0594  -10.8224    8.6120 C   0  0  2  0  0  0  0  0  0  0  0  0
   61.3825   -9.7623    7.7679 C   0  0  0  0  0  0  0  0  0  0  0  0
   61.7854   -8.4608    8.1418 O   0  0  0  0  0  0  0  0  0  0  0  0
   61.1019   -7.2120    7.4167 P   0  0  0  0  0  0  0  0  0  0  0  0
   59.6144   -7.3919    7.6442 O   0  0  0  0  0  0  0  0  0  0  0  0
   61.5538   -7.3869    5.9898 O   0  0  0  0  0  0  0  0  0  0  0  0
   61.7483   -6.0281    8.0809 O   0  0  0  0  0  0  0  0  0  0  0  0
  2  1  2  0  0  0  0
  2  4  1  0  0  0  0
  3  2  1  0  0  0  0
  4  7  1  0  0  0  0
  4  5  2  0  0  0  0
  5  6  1  0  0  0  0
  5  9  1  0  0  0  0
  7  8  2  0  0  0  0
  8  9  1  0  0  0  0
 10  9  1  6  0  0  0
 10 15  1  0  0  0  0
 11 14  1  1  0  0  0
 11 12  1  0  0  0  0
 11 10  1  0  0  0  0
 12 13  1  1  0  0  0
 12 16  1  0  0  0  0
 16 17  1  6  0  0  0
 16 15  1  0  0  0  0
 18 19  1  0  0  0  0
 18 17  1  0  0  0  0
 19 21  1  0  0  0  0
 20 19  1  0  0  0  0
 22 19  2  0  0  0  0
M  END
>  <CHROM.1>
2.36600895,123.05950240,-178.70318407,56.08820540,-176.26123131,60.14762199
-10.25529672,9.85620068,2.31663955,-0.77770391,2.69510042

>  <Name>
lig.pdb

>  <RI>
0

>  <Rbt.Current_Directory>
/home/itssahil/PROJECTS/Mol_Feturizer/New_Systems/rnas/4znp

>  <Rbt.Executable>
rbdock ($Id: //depot/dev/client3/rdock/2013.1/src/exe/rbdock.cxx#4 $)

>  <Rbt.Library>
libRbt.so (2013.1, Build901 2013/11/27)

>  <Rbt.Parameter_File>
/export/apps/rDock/src/rDock_2013.1_src/data/scripts/dock_solv.prm

>  <Rbt.Receptor>
prm/pocket_docking_7.prm

>  <SCORE>
-12.4019

>  <SCORE.INTER>
-6.13586

>  <SCORE.INTER.CONST>
1

>  <SCORE.INTER.POLAR>
0

>  <SCORE.INTER.ROT>
5

>  <SCORE.INTER.SOLV>
11.0931

>  <SCORE.INTER.VDW>
-14.7216

>  <SCORE.INTER.norm>
-0.278903

>  <SCORE.INTRA>
-6.26608

>  <SCORE.INTRA.DIHEDRAL>
-9.37354

>  <SCORE.INTRA.DIHEDRAL.0>
11.9251

>  <SCORE.INTRA.POLAR>
0

>  <SCORE.INTRA.POLAR.0>
0

>  <SCORE.INTRA.REPUL>
0

>  <SCORE.INTRA.REPUL.0>
0

>  <SCORE.INTRA.SOLV>
-0.40683

>  <SCORE.INTRA.SOLV.lig_0>
-40.9823

>  <SCORE.INTRA.VDW>
-1.3759

>  <SCORE.INTRA.VDW.0>
-0.53506

>  <SCORE.INTRA.norm>
-0.284822

>  <SCORE.RESTR>
0

>  <SCORE.RESTR.CAVITY>
0

>  <SCORE.RESTR.norm>
0

>  <SCORE.SYSTEM>
0

>  <SCORE.SYSTEM.CONST>
0

>  <SCORE.SYSTEM.DIHEDRAL>
0

>  <SCORE.SYSTEM.SOLV>
0

>  <SCORE.SYSTEM.norm>
0

>  <SCORE.heavy>
22

>  <SCORE.norm>
-0.563725

>  <RMSD>
5.008

$$$$
lig.pdb
 OpenBabel11021811523D
libRbt.so/2013.1/901 2013/11/27
 22 23  0  0  0  0  0  0  0  0999 V2000
   61.4617  -16.4232    9.2327 O   0  0  0  0  0  0  0  0  0  0  0  0
   62.3603  -15.7813    8.7418 C   0  0  0  0  0  0  0  0  0  0  0  0
   63.4551  -16.3527    8.2722 N   0  0  0  0  0  0  0  0  0  0  0  0
   62.2774  -14.3147    8.6924 C   0  0  0  0  0  0  0  0  0  0  0  0
   61.1655  -13.5180    9.2160 C   0  0  0  0  0  0  0  0  0  0  0  0
   60.0519  -14.0111    9.7991 N   0  0  0  0  0  0  0  0  0  0  0  0
   63.1314  -13.4069    8.1934 N   0  0  0  0  0  0  0  0  0  0  0  0
   62.6162  -12.1649    8.4098 C   0  0  0  0  0  0  0  0  0  0  0  0
   61.4184  -12.2261    9.0394 N   0  0  0  0  0  0  0  0  0  0  0  0
   60.5781  -11.0607    9.4283 C   0  0  1  0  0  0  0  0  0  0  0  0
   61.2470  -10.3185   10.5648 C   0  0  1  0  0  0  0  0  0  0  0  0
   60.9887   -8.8681   10.2485 C   0  0  2  0  0  0  0  0  0  0  0  0
   59.7686   -8.4451   10.8701 O   0  0  0  0  0  0  0  0  0  0  0  0
   60.6942  -10.7073   11.8321 O   0  0  0  0  0  0  0  0  0  0  0  0
   60.4909  -10.1327    8.3498 O   0  0  0  0  0  0  0  0  0  0  0  0
   60.8073   -8.8221    8.7535 C   0  0  2  0  0  0  0  0  0  0  0  0
   62.0247   -8.4190    7.9473 C   0  0  0  0  0  0  0  0  0  0  0  0
   62.4298   -7.0972    8.2383 O   0  0  0  0  0  0  0  0  0  0  0  0
   63.6535   -6.4760    7.4202 P   0  0  0  0  0  0  0  0  0  0  0  0
   63.7460   -5.0365    7.8851 O   0  0  0  0  0  0  0  0  0  0  0  0
   63.2055   -6.6569    5.9929 O   0  0  0  0  0  0  0  0  0  0  0  0
   64.8033   -7.3764    7.7779 O   0  0  0  0  0  0  0  0  0  0  0  0
  2  1  2  0  0  0  0
  2  4  1  0  0  0  0
  3  2  1  0  0  0  0
  4  7  1  0  0  0  0
  4  5  2  0  0  0  0
  5  6  1  0  0  0  0
  5  9  1  0  0  0  0
  7  8  2  0  0  0  0
  8  9  1  0  0  0  0
 10  9  1  6  0  0  0
 10 15  1  0  0  0  0
 11 14  1  1  0  0  0
 11 12  1  0  0  0  0
 11 10  1  0  0  0  0
 12 13  1  1  0  0  0
 12 16  1  0  0  0  0
 16 17  1  6  0  0  0
 16 15  1  0  0  0  0
 18 19  1  0  0  0  0
 18 17  1  0  0  0  0
 19 21  1  0  0  0  0
 20 19  1  0  0  0  0
 22 19  2  0  0  0  0
M  END
>  <CHROM.1>
0.63343542,110.25385574,-63.46408051,175.29676129,-176.74734979,62.03211736
-10.43109912,8.77139389,-1.78134379,0.73845391,-0.01545462

>  <Name>
lig.pdb

>  <RI>
0

>  <Rbt.Current_Directory>
/home/itssahil/PROJECTS/Mol_Feturizer/New_Systems/rnas/4znp

>  <Rbt.Executable>
rbdock ($Id: //depot/dev/client3/rdock/2013.1/src/exe/rbdock.cxx#4 $)

>  <Rbt.Library>
libRbt.so (2013.1, Build901 2013/11/27)

>  <Rbt.Parameter_File>
/export/apps/rDock/src/rDock_2013.1_src/data/scripts/dock_solv.prm

>  <Rbt.Receptor>
prm/pocket_docking_6.prm

>  <SCORE>
-18.8001

>  <SCORE.INTER>
-12.8477

>  <SCORE.INTER.CONST>
1

>  <SCORE.INTER.POLAR>
0

>  <SCORE.INTER.ROT>
5

>  <SCORE.INTER.SOLV>
17.3672

>  <SCORE.INTER.VDW>
-21.2876

>  <SCORE.INTER.norm>
-0.583988

>  <SCORE.INTRA>
-5.95234

>  <SCORE.INTRA.DIHEDRAL>
-9.3946

>  <SCORE.INTRA.DIHEDRAL.0>
11.9251

>  <SCORE.INTRA.POLAR>
0

>  <SCORE.INTRA.POLAR.0>
0

>  <SCORE.INTRA.REPUL>
0

>  <SCORE.INTRA.REPUL.0>
0

>  <SCORE.INTRA.SOLV>
-0.085479

>  <SCORE.INTRA.SOLV.lig_0>
-40.9823

>  <SCORE.INTRA.VDW>
-1.2123

>  <SCORE.INTRA.VDW.0>
-0.53506

>  <SCORE.INTRA.norm>
-0.270561

>  <SCORE.RESTR>
0

>  <SCORE.RESTR.CAVITY>
0

>  <SCORE.RESTR.norm>
0

>  <SCORE.SYSTEM>
0

>  <SCORE.SYSTEM.CONST>
0

>  <SCORE.SYSTEM.DIHEDRAL>
0

>  <SCORE.SYSTEM.SOLV>
0

>  <SCORE.SYSTEM.norm>
0

>  <SCORE.heavy>
22

>  <SCORE.norm>
-0.854549

>  <RMSD>
5.063

$$$$
lig.pdb
 OpenBabel11021811523D
libRbt.so/2013.1/901 2013/11/27
 22 23  0  0  0  0  0  0  0  0999 V2000
   63.4618  -16.2817    8.3501 O   0  0  0  0  0  0  0  0  0  0  0  0
   62.4486  -15.7436    8.7300 C   0  0  0  0  0  0  0  0  0  0  0  0
   61.4097  -16.4331    9.1670 N   0  0  0  0  0  0  0  0  0  0  0  0
   62.3254  -14.2801    8.6743 C   0  0  0  0  0  0  0  0  0  0  0  0
   61.1748  -13.5148    9.1600 C   0  0  0  0  0  0  0  0  0  0  0  0
   60.0576  -14.0388    9.7083 N   0  0  0  0  0  0  0  0  0  0  0  0
   63.1686  -13.3488    8.2007 N   0  0  0  0  0  0  0  0  0  0  0  0
   62.6113  -12.1219    8.3973 C   0  0  0  0  0  0  0  0  0  0  0  0
   61.3961  -12.2164    8.9883 N   0  0  0  0  0  0  0  0  0  0  0  0
   60.5106  -11.0751    9.3471 C   0  0  1  0  0  0  0  0  0  0  0  0
   61.1545  -10.2716   10.4561 C   0  0  1  0  0  0  0  0  0  0  0  0
   60.8351   -8.8434   10.0975 C   0  0  2  0  0  0  0  0  0  0  0  0
   59.6019   -8.4519   10.7140 O   0  0  0  0  0  0  0  0  0  0  0  0
   60.6251  -10.6436   11.7382 O   0  0  0  0  0  0  0  0  0  0  0  0
   60.3795  -10.1850    8.2416 O   0  0  0  0  0  0  0  0  0  0  0  0
   60.6438   -8.8508    8.6031 C   0  0  2  0  0  0  0  0  0  0  0  0
   61.8392   -8.4231    7.7769 C   0  0  0  0  0  0  0  0  0  0  0  0
   62.0978   -7.0404    7.9089 O   0  0  0  0  0  0  0  0  0  0  0  0
   63.2907   -6.4021    7.0592 P   0  0  0  0  0  0  0  0  0  0  0  0
   63.1470   -4.9048    7.2440 O   0  0  0  0  0  0  0  0  0  0  0  0
   62.9945   -6.9038    5.6695 O   0  0  0  0  0  0  0  0  0  0  0  0
   64.5176   -7.0407    7.6489 O   0  0  0  0  0  0  0  0  0  0  0  0
  2  1  2  0  0  0  0
  2  4  1  0  0  0  0
  3  2  1  0  0  0  0
  4  7  1  0  0  0  0
  4  5  2  0  0  0  0
  5  6  1  0  0  0  0
  5  9  1  0  0  0  0
  7  8  2  0  0  0  0
  8  9  1  0  0  0  0
 10  9  1  6  0  0  0
 10 15  1  0  0  0  0
 11 14  1  1  0  0  0
 11 12  1  0  0  0  0
 11 10  1  0  0  0  0
 12 13  1  1  0  0  0
 12 16  1  0  0  0  0
 16 17  1  6  0  0  0
 16 15  1  0  0  0  0
 18 19  1  0  0  0  0
 18 17  1  0  0  0  0
 19 21  1  0  0  0  0
 20 19  1  0  0  0  0
 22 19  2  0  0  0  0
M  END
>  <CHROM.1>
-177.11896175,113.07494540,-70.16325281,170.65572630,-177.59070322,61.90151958
-10.39996274,8.61045519,-1.71974318,0.76611179,-0.08927822

>  <Name>
lig.pdb

>  <RI>
0

>  <Rbt.Current_Directory>
/home/itssahil/PROJECTS/Mol_Feturizer/New_Systems/rnas/4znp

>  <Rbt.Executable>
rbdock ($Id: //depot/dev/client3/rdock/2013.1/src/exe/rbdock.cxx#4 $)

>  <Rbt.Library>
libRbt.so (2013.1, Build901 2013/11/27)

>  <Rbt.Parameter_File>
/export/apps/rDock/src/rDock_2013.1_src/data/scripts/dock_solv.prm

>  <Rbt.Receptor>
prm/pocket_docking_7.prm

>  <SCORE>
-18.9629

>  <SCORE.INTER>
-13.3935

>  <SCORE.INTER.CONST>
1

>  <SCORE.INTER.POLAR>
0

>  <SCORE.INTER.ROT>
5

>  <SCORE.INTER.SOLV>
17.4606

>  <SCORE.INTER.VDW>
-21.6825

>  <SCORE.INTER.norm>
-0.608794

>  <SCORE.INTRA>
-5.56946

>  <SCORE.INTRA.DIHEDRAL>
-8.95274

>  <SCORE.INTRA.DIHEDRAL.0>
11.9251

>  <SCORE.INTRA.POLAR>
0

>  <SCORE.INTRA.POLAR.0>
0

>  <SCORE.INTRA.REPUL>
0

>  <SCORE.INTRA.REPUL.0>
0

>  <SCORE.INTRA.SOLV>
0.0849601

>  <SCORE.INTRA.SOLV.lig_0>
-40.9823

>  <SCORE.INTRA.VDW>
-1.13557

>  <SCORE.INTRA.VDW.0>
-0.53506

>  <SCORE.INTRA.norm>
-0.253157

>  <SCORE.RESTR>
0

>  <SCORE.RESTR.CAVITY>
0

>  <SCORE.RESTR.norm>
0

>  <SCORE.SYSTEM>
0

>  <SCORE.SYSTEM.CONST>
0

>  <SCORE.SYSTEM.DIHEDRAL>
0

>  <SCORE.SYSTEM.SOLV>
0

>  <SCORE.SYSTEM.norm>
0

>  <SCORE.heavy>
22

>  <SCORE.norm>
-0.861951

>  <RMSD>
5.070

$$$$
lig.pdb
 OpenBabel11021811523D
libRbt.so/2013.1/901 2013/11/27
 22 23  0  0  0  0  0  0  0  0999 V2000
   62.7889  -16.3527    8.6306 O   0  0  0  0  0  0  0  0  0  0  0  0
   61.9372  -15.5872    9.0169 C   0  0  0  0  0  0  0  0  0  0  0  0
   60.8250  -16.0080    9.5928 N   0  0  0  0  0  0  0  0  0  0  0  0
   62.0984  -14.1406    8.8129 C   0  0  0  0  0  0  0  0  0  0  0  0
   61.1080  -13.1252    9.1782 C   0  0  0  0  0  0  0  0  0  0  0  0
   59.9016  -13.3685    9.7338 N   0  0  0  0  0  0  0  0  0  0  0  0
   63.1130  -13.4401    8.2815 N   0  0  0  0  0  0  0  0  0  0  0  0
   62.7985  -12.1161    8.3358 C   0  0  0  0  0  0  0  0  0  0  0  0
   61.5776  -11.9171    8.8880 N   0  0  0  0  0  0  0  0  0  0  0  0
   60.9219  -10.5978    9.0999 C   0  0  1  0  0  0  0  0  0  0  0  0
   61.4220   -9.9924   10.3935 C   0  0  1  0  0  0  0  0  0  0  0  0
   61.5514   -8.5248   10.0772 C   0  0  2  0  0  0  0  0  0  0  0  0
   60.3270   -7.8501   10.3928 O   0  0  0  0  0  0  0  0  0  0  0  0
   60.5031  -10.2397   11.4690 O   0  0  0  0  0  0  0  0  0  0  0  0
   61.2974   -9.6882    8.0687 O   0  0  0  0  0  0  0  0  0  0  0  0
   61.7626   -8.4650    8.5867 C   0  0  2  0  0  0  0  0  0  0  0  0
   63.1984   -8.3337    8.1225 C   0  0  0  0  0  0  0  0  0  0  0  0
   63.6534   -6.9986    8.2025 O   0  0  0  0  0  0  0  0  0  0  0  0
   63.0497   -5.9239    7.1860 P   0  0  0  0  0  0  0  0  0  0  0  0
   63.0488   -6.6161    5.8378 O   0  0  0  0  0  0  0  0  0  0  0  0
   64.0245   -4.7821    7.3153 O   0  0  0  0  0  0  0  0  0  0  0  0
   61.7068   -5.6002    7.7798 O   0  0  0  0  0  0  0  0  0  0  0  0
  2  1  2  0  0  0  0
  2  4  1  0  0  0  0
  3  2  1  0  0  0  0
  4  7  1  0  0  0  0
  4  5  2  0  0  0  0
  5  6  1  0  0  0  0
  5  9  1  0  0  0  0
  7  8  2  0  0  0  0
  8  9  1  0  0  0  0
 10  9  1  6  0  0  0
 10 15  1  0  0  0  0
 11 14  1  1  0  0  0
 11 12  1  0  0  0  0
 11 10  1  0  0  0  0
 12 13  1  6  0  0  0
 12 16  1  0  0  0  0
 16 17  1  1  0  0  0
 16 15  1  0  0  0  0
 18 19  1  0  0  0  0
 18 17  1  0  0  0  0
 19 21  1  0  0  0  0
 20 19  1  0  0  0  0
 22 19  2  0  0  0  0
M  END
>  <CHROM.1>
176.89787752,96.90951069,-80.62793657,-44.41717151,-69.81029561,62.01321698
-10.05213835,8.66419757,-1.77750978,0.83883796,-0.02813247

>  <Name>
lig.pdb

>  <RI>
0

>  <Rbt.Current_Directory>
/home/itssahil/PROJECTS/Mol_Feturizer/New_Systems/rnas/4znp

>  <Rbt.Executable>
rbdock ($Id: //depot/dev/client3/rdock/2013.1/src/exe/rbdock.cxx#4 $)

>  <Rbt.Library>
libRbt.so (2013.1, Build901 2013/11/27)

>  <Rbt.Parameter_File>
/export/apps/rDock/src/rDock_2013.1_src/data/scripts/dock_solv.prm

>  <Rbt.Receptor>
prm/pocket_docking_8.prm

>  <SCORE>
-18.6502

>  <SCORE.INTER>
-14.3295

>  <SCORE.INTER.CONST>
1

>  <SCORE.INTER.POLAR>
0

>  <SCORE.INTER.ROT>
5

>  <SCORE.INTER.SOLV>
14.663

>  <SCORE.INTER.VDW>
-21.374

>  <SCORE.INTER.norm>
-0.651339

>  <SCORE.INTRA>
-4.32069

>  <SCORE.INTRA.DIHEDRAL>
-7.24646

>  <SCORE.INTRA.DIHEDRAL.0>
11.9251

>  <SCORE.INTRA.POLAR>
0

>  <SCORE.INTRA.POLAR.0>
0

>  <SCORE.INTRA.REPUL>
0

>  <SCORE.INTRA.REPUL.0>
0

>  <SCORE.INTRA.SOLV>
1.57958

>  <SCORE.INTRA.SOLV.lig_0>
-40.9823

>  <SCORE.INTRA.VDW>
-1.48725

>  <SCORE.INTRA.VDW.0>
-0.53506

>  <SCORE.INTRA.norm>
-0.196395

>  <SCORE.RESTR>
0

>  <SCORE.RESTR.CAVITY>
0

>  <SCORE.RESTR.norm>
0

>  <SCORE.SYSTEM>
0

>  <SCORE.SYSTEM.CONST>
0

>  <SCORE.SYSTEM.DIHEDRAL>
0

>  <SCORE.SYSTEM.SOLV>
0

>  <SCORE.SYSTEM.norm>
0

>  <SCORE.heavy>
22

>  <SCORE.norm>
-0.847734

>  <RMSD>
5.106

$$$$
lig.pdb
 OpenBabel11021811523D
libRbt.so/2013.1/901 2013/11/27
 22 23  0  0  0  0  0  0  0  0999 V2000
   62.7289  -15.9090    8.0294 O   0  0  0  0  0  0  0  0  0  0  0  0
   62.0996  -15.2519    8.8249 C   0  0  0  0  0  0  0  0  0  0  0  0
   61.1867  -15.7908    9.6134 N   0  0  0  0  0  0  0  0  0  0  0  0
   62.3056  -13.7990    8.9080 C   0  0  0  0  0  0  0  0  0  0  0  0
   61.8358  -12.9452   10.0015 C   0  0  0  0  0  0  0  0  0  0  0  0
   61.1323  -13.3611   11.0764 N   0  0  0  0  0  0  0  0  0  0  0  0
   62.9260  -12.9543    8.0690 N   0  0  0  0  0  0  0  0  0  0  0  0
   62.8730  -11.7015    8.6004 C   0  0  0  0  0  0  0  0  0  0  0  0
   62.2136  -11.6906    9.7837 N   0  0  0  0  0  0  0  0  0  0  0  0
   61.9703  -10.4937   10.6344 C   0  0  1  0  0  0  0  0  0  0  0  0
   63.2938   -9.8417   10.9713 C   0  0  1  0  0  0  0  0  0  0  0  0
   62.9944   -8.3664   10.9073 C   0  0  2  0  0  0  0  0  0  0  0  0
   62.5886   -7.8966   12.1991 O   0  0  0  0  0  0  0  0  0  0  0  0
   63.7550  -10.2491   12.2689 O   0  0  0  0  0  0  0  0  0  0  0  0
   61.2236   -9.5178    9.9122 O   0  0  0  0  0  0  0  0  0  0  0  0
   61.8259   -8.2468    9.9637 C   0  0  2  0  0  0  0  0  0  0  0  0
   62.1611   -7.8849    8.5316 C   0  0  0  0  0  0  0  0  0  0  0  0
   62.8197   -6.6377    8.4483 O   0  0  0  0  0  0  0  0  0  0  0  0
   62.8695   -5.8933    7.0356 P   0  0  0  0  0  0  0  0  0  0  0  0
   63.2761   -6.9633    6.0422 O   0  0  0  0  0  0  0  0  0  0  0  0
   63.9021   -4.8228    7.2771 O   0  0  0  0  0  0  0  0  0  0  0  0
   61.4832   -5.3293    6.8909 O   0  0  0  0  0  0  0  0  0  0  0  0
  2  1  2  0  0  0  0
  2  4  1  0  0  0  0
  3  2  1  0  0  0  0
  4  7  1  0  0  0  0
  4  5  2  0  0  0  0
  5  6  1  0  0  0  0
  5  9  1  0  0  0  0
  7  8  2  0  0  0  0
  8  9  1  0  0  0  0
 10  9  1  6  0  0  0
 10 15  1  0  0  0  0
 11 14  1  1  0  0  0
 11 12  1  0  0  0  0
 11 10  1  0  0  0  0
 12 13  1  1  0  0  0
 12 16  1  0  0  0  0
 16 17  1  6  0  0  0
 16 15  1  0  0  0  0
 18 19  1  0  0  0  0
 18 17  1  0  0  0  0
 19 21  1  0  0  0  0
 20 19  1  0  0  0  0
 22 19  2  0  0  0  0
M  END
>  <CHROM.1>
-166.00915958,124.00379895,-60.01543470,-46.56413700,-162.31532987,62.47080489
-9.87915665,9.12485951,-3.05460990,1.48708215,1.27444744

>  <Name>
lig.pdb

>  <RI>
0

>  <Rbt.Current_Directory>
/home/itssahil/PROJECTS/Mol_Feturizer/New_Systems/rnas/4znp

>  <Rbt.Executable>
rbdock ($Id: //depot/dev/client3/rdock/2013.1/src/exe/rbdock.cxx#4 $)

>  <Rbt.Library>
libRbt.so (2013.1, Build901 2013/11/27)

>  <Rbt.Parameter_File>
/export/apps/rDock/src/rDock_2013.1_src/data/scripts/dock_solv.prm

>  <Rbt.Receptor>
prm/pocket_docking_7.prm

>  <SCORE>
-17.0202

>  <SCORE.INTER>
-12.3369

>  <SCORE.INTER.CONST>
1

>  <SCORE.INTER.POLAR>
0

>  <SCORE.INTER.ROT>
5

>  <SCORE.INTER.SOLV>
15.8943

>  <SCORE.INTER.VDW>
-20.4561

>  <SCORE.INTER.norm>
-0.56077

>  <SCORE.INTRA>
-4.68325

>  <SCORE.INTRA.DIHEDRAL>
-6.98441

>  <SCORE.INTRA.DIHEDRAL.0>
11.9251

>  <SCORE.INTRA.POLAR>
0

>  <SCORE.INTRA.POLAR.0>
0

>  <SCORE.INTRA.REPUL>
0

>  <SCORE.INTRA.REPUL.0>
0

>  <SCORE.INTRA.SOLV>
0.0078604

>  <SCORE.INTRA.SOLV.lig_0>
-40.9823

>  <SCORE.INTRA.VDW>
-1.19498

>  <SCORE.INTRA.VDW.0>
-0.53506

>  <SCORE.INTRA.norm>
-0.212875

>  <SCORE.RESTR>
0

>  <SCORE.RESTR.CAVITY>
0

>  <SCORE.RESTR.norm>
0

>  <SCORE.SYSTEM>
0

>  <SCORE.SYSTEM.CONST>
0

>  <SCORE.SYSTEM.DIHEDRAL>
0

>  <SCORE.SYSTEM.SOLV>
0

>  <SCORE.SYSTEM.norm>
0

>  <SCORE.heavy>
22

>  <SCORE.norm>
-0.773645

>  <RMSD>
5.204

$$$$
lig.pdb
 OpenBabel11021811523D
libRbt.so/2013.1/901 2013/11/27
 22 23  0  0  0  0  0  0  0  0999 V2000
   62.7610  -16.2485    8.7570 O   0  0  0  0  0  0  0  0  0  0  0  0
   61.9086  -15.4599    9.0918 C   0  0  0  0  0  0  0  0  0  0  0  0
   60.7911  -15.8438    9.6828 N   0  0  0  0  0  0  0  0  0  0  0  0
   62.0755  -14.0279    8.8055 C   0  0  0  0  0  0  0  0  0  0  0  0
   61.0181  -13.0205    8.9158 C   0  0  0  0  0  0  0  0  0  0  0  0
   59.7387  -13.2603    9.2750 N   0  0  0  0  0  0  0  0  0  0  0  0
   63.1531  -13.3367    8.4014 N   0  0  0  0  0  0  0  0  0  0  0  0
   62.8092  -12.0230    8.2973 C   0  0  0  0  0  0  0  0  0  0  0  0
   61.5079  -11.8228    8.6160 N   0  0  0  0  0  0  0  0  0  0  0  0
   60.8008  -10.5131    8.6088 C   0  0  1  0  0  0  0  0  0  0  0  0
   60.6236  -10.0322   10.0328 C   0  0  1  0  0  0  0  0  0  0  0  0
   60.8542   -8.5460    9.9418 C   0  0  2  0  0  0  0  0  0  0  0  0
   59.6103   -7.8751    9.7039 O   0  0  0  0  0  0  0  0  0  0  0  0
   59.3136  -10.3519   10.5268 O   0  0  0  0  0  0  0  0  0  0  0  0
   61.5957   -9.5260    7.9564 O   0  0  0  0  0  0  0  0  0  0  0  0
   61.7375   -8.3623    8.7351 C   0  0  2  0  0  0  0  0  0  0  0  0
   63.2203   -8.2220    9.0108 C   0  0  0  0  0  0  0  0  0  0  0  0
   63.9822   -8.3018    7.8237 O   0  0  0  0  0  0  0  0  0  0  0  0
   65.3887   -7.5461    7.7668 P   0  0  0  0  0  0  0  0  0  0  0  0
   66.1428   -8.2052    6.6294 O   0  0  0  0  0  0  0  0  0  0  0  0
   65.9479   -7.8124    9.1406 O   0  0  0  0  0  0  0  0  0  0  0  0
   65.0018   -6.1058    7.5756 O   0  0  0  0  0  0  0  0  0  0  0  0
  2  1  2  0  0  0  0
  2  4  1  0  0  0  0
  3  2  1  0  0  0  0
  4  7  1  0  0  0  0
  4  5  2  0  0  0  0
  5  6  1  0  0  0  0
  5  9  1  0  0  0  0
  7  8  2  0  0  0  0
  8  9  1  0  0  0  0
 10  9  1  1  0  0  0
 10 15  1  0  0  0  0
 11 14  1  6  0  0  0
 11 12  1  0  0  0  0
 11 10  1  0  0  0  0
 12 13  1  6  0  0  0
 12 16  1  0  0  0  0
 16 17  1  1  0  0  0
 16 15  1  0  0  0  0
 18 19  1  0  0  0  0
 18 17  1  0  0  0  0
 19 21  1  0  0  0  0
 20 19  1  0  0  0  0
 22 19  2  0  0  0  0
M  END
>  <CHROM.1>
167.24906410,76.42557069,169.16189376,160.49397744,152.26589363,62.49400754
-10.46370272,8.71284202,-2.05854736,0.35653733,0.01617775

>  <Name>
lig.pdb

>  <RI>
0

>  <Rbt.Current_Directory>
/home/itssahil/PROJECTS/Mol_Feturizer/New_Systems/rnas/4znp

>  <Rbt.Executable>
rbdock ($Id: //depot/dev/client3/rdock/2013.1/src/exe/rbdock.cxx#4 $)

>  <Rbt.Library>
libRbt.so (2013.1, Build901 2013/11/27)

>  <Rbt.Parameter_File>
/export/apps/rDock/src/rDock_2013.1_src/data/scripts/dock_solv.prm

>  <Rbt.Receptor>
prm/pocket_docking_8.prm

>  <SCORE>
-18.1061

>  <SCORE.INTER>
-14.975

>  <SCORE.INTER.CONST>
1

>  <SCORE.INTER.POLAR>
0

>  <SCORE.INTER.ROT>
5

>  <SCORE.INTER.SOLV>
20.0817

>  <SCORE.INTER.VDW>
-23.6106

>  <SCORE.INTER.norm>
-0.680681

>  <SCORE.INTRA>
-3.13116

>  <SCORE.INTRA.DIHEDRAL>
-4.9416

>  <SCORE.INTRA.DIHEDRAL.0>
11.9251

>  <SCORE.INTRA.POLAR>
0

>  <SCORE.INTRA.POLAR.0>
0

>  <SCORE.INTRA.REPUL>
0

>  <SCORE.INTRA.REPUL.0>
0

>  <SCORE.INTRA.SOLV>
0.540039

>  <SCORE.INTRA.SOLV.lig_0>
-40.9823

>  <SCORE.INTRA.VDW>
-0.930381

>  <SCORE.INTRA.VDW.0>
-0.53506

>  <SCORE.INTRA.norm>
-0.142326

>  <SCORE.RESTR>
0

>  <SCORE.RESTR.CAVITY>
0

>  <SCORE.RESTR.norm>
0

>  <SCORE.SYSTEM>
0

>  <SCORE.SYSTEM.CONST>
0

>  <SCORE.SYSTEM.DIHEDRAL>
0

>  <SCORE.SYSTEM.SOLV>
0

>  <SCORE.SYSTEM.norm>
0

>  <SCORE.heavy>
22

>  <SCORE.norm>
-0.823006

>  <RMSD>
5.351

$$$$
lig.pdb
 OpenBabel11021811523D
libRbt.so/2013.1/901 2013/11/27
 22 23  0  0  0  0  0  0  0  0999 V2000
   62.8414  -15.3760    7.5620 O   0  0  0  0  0  0  0  0  0  0  0  0
   62.3197  -14.8577    8.5210 C   0  0  0  0  0  0  0  0  0  0  0  0
   61.6355  -15.5559    9.4100 N   0  0  0  0  0  0  0  0  0  0  0  0
   62.3963  -13.4015    8.7051 C   0  0  0  0  0  0  0  0  0  0  0  0
   62.0630  -12.6926    9.9427 C   0  0  0  0  0  0  0  0  0  0  0  0
   61.6206  -13.2664   11.0821 N   0  0  0  0  0  0  0  0  0  0  0  0
   62.7610  -12.4303    7.8529 N   0  0  0  0  0  0  0  0  0  0  0  0
   62.6893  -11.2360    8.5034 C   0  0  0  0  0  0  0  0  0  0  0  0
   62.2694  -11.3903    9.7820 N   0  0  0  0  0  0  0  0  0  0  0  0
   62.0780  -10.2974   10.7740 C   0  0  1  0  0  0  0  0  0  0  0  0
   63.4052   -9.9749   11.4257 C   0  0  1  0  0  0  0  0  0  0  0  0
   63.3815   -8.4750   11.5671 C   0  0  2  0  0  0  0  0  0  0  0  0
   62.8242   -8.1156   12.8377 O   0  0  0  0  0  0  0  0  0  0  0  0
   63.5343  -10.6403   12.6919 O   0  0  0  0  0  0  0  0  0  0  0  0
   61.6612   -9.1024   10.1183 O   0  0  0  0  0  0  0  0  0  0  0  0
   62.4520   -7.9965   10.4822 C   0  0  2  0  0  0  0  0  0  0  0  0
   63.1105   -7.5155    9.2057 C   0  0  0  0  0  0  0  0  0  0  0  0
   62.2565   -6.6688    8.4642 O   0  0  0  0  0  0  0  0  0  0  0  0
   62.8440   -5.9320    7.1740 P   0  0  0  0  0  0  0  0  0  0  0  0
   64.1199   -5.2663    7.6490 O   0  0  0  0  0  0  0  0  0  0  0  0
   61.7281   -4.9859    6.8130 O   0  0  0  0  0  0  0  0  0  0  0  0
   62.9949   -7.0466    6.1761 O   0  0  0  0  0  0  0  0  0  0  0  0
  2  1  2  0  0  0  0
  2  4  1  0  0  0  0
  3  2  1  0  0  0  0
  4  7  1  0  0  0  0
  4  5  2  0  0  0  0
  5  6  1  0  0  0  0
  5  9  1  0  0  0  0
  7  8  2  0  0  0  0
  8  9  1  0  0  0  0
 10  9  1  6  0  0  0
 10 15  1  0  0  0  0
 11 14  1  1  0  0  0
 11 12  1  0  0  0  0
 11 10  1  0  0  0  0
 12 13  1  1  0  0  0
 12 16  1  0  0  0  0
 16 17  1  6  0  0  0
 16 15  1  0  0  0  0
 18 19  1  0  0  0  0
 18 17  1  0  0  0  0
 19 21  1  0  0  0  0
 20 19  1  0  0  0  0
 22 19  2  0  0  0  0
M  END
>  <CHROM.1>
-166.33705740,96.83646111,-158.90753650,-51.00134645,173.02143509,62.61368454
-9.74772923,9.25464515,2.44960461,1.48625203,2.07486252

>  <Name>
lig.pdb

>  <RI>
0

>  <Rbt.Current_Directory>
/home/itssahil/PROJECTS/Mol_Feturizer/New_Systems/rnas/4znp

>  <Rbt.Executable>
rbdock ($Id: //depot/dev/client3/rdock/2013.1/src/exe/rbdock.cxx#4 $)

>  <Rbt.Library>
libRbt.so (2013.1, Build901 2013/11/27)

>  <Rbt.Parameter_File>
/export/apps/rDock/src/rDock_2013.1_src/data/scripts/dock_solv.prm

>  <Rbt.Receptor>
prm/pocket_docking_8.prm

>  <SCORE>
-14.5199

>  <SCORE.INTER>
-9.65267

>  <SCORE.INTER.CONST>
1

>  <SCORE.INTER.POLAR>
0

>  <SCORE.INTER.ROT>
5

>  <SCORE.INTER.SOLV>
16.9591

>  <SCORE.INTER.VDW>
-19.0215

>  <SCORE.INTER.norm>
-0.438758

>  <SCORE.INTRA>
-4.86723

>  <SCORE.INTRA.DIHEDRAL>
-6.9845

>  <SCORE.INTRA.DIHEDRAL.0>
11.9251

>  <SCORE.INTRA.POLAR>
0

>  <SCORE.INTRA.POLAR.0>
0

>  <SCORE.INTRA.REPUL>
0

>  <SCORE.INTRA.REPUL.0>
0

>  <SCORE.INTRA.SOLV>
0.121917

>  <SCORE.INTRA.SOLV.lig_0>
-40.9823

>  <SCORE.INTRA.VDW>
-1.43594

>  <SCORE.INTRA.VDW.0>
-0.53506

>  <SCORE.INTRA.norm>
-0.221238

>  <SCORE.RESTR>
0

>  <SCORE.RESTR.CAVITY>
0

>  <SCORE.RESTR.norm>
0

>  <SCORE.SYSTEM>
0

>  <SCORE.SYSTEM.CONST>
0

>  <SCORE.SYSTEM.DIHEDRAL>
0

>  <SCORE.SYSTEM.SOLV>
0

>  <SCORE.SYSTEM.norm>
0

>  <SCORE.heavy>
22

>  <SCORE.norm>
-0.659996

>  <RMSD>
5.355

$$$$
lig.pdb
 OpenBabel11021811523D
libRbt.so/2013.1/901 2013/11/27
 22 23  0  0  0  0  0  0  0  0999 V2000
   60.8641  -15.0872   10.1001 O   0  0  0  0  0  0  0  0  0  0  0  0
   61.7063  -14.7808    9.2894 C   0  0  0  0  0  0  0  0  0  0  0  0
   62.3973  -15.6861    8.6195 N   0  0  0  0  0  0  0  0  0  0  0  0
   62.0223  -13.3649    9.0534 C   0  0  0  0  0  0  0  0  0  0  0  0
   61.6159  -12.2575    9.9217 C   0  0  0  0  0  0  0  0  0  0  0  0
   60.8798  -12.3716   11.0480 N   0  0  0  0  0  0  0  0  0  0  0  0
   62.7075  -12.7754    8.0608 N   0  0  0  0  0  0  0  0  0  0  0  0
   62.7488  -11.4355    8.3011 C   0  0  0  0  0  0  0  0  0  0  0  0
   62.0889  -11.1138    9.4395 N   0  0  0  0  0  0  0  0  0  0  0  0
   61.9352   -9.7435    9.9998 C   0  0  1  0  0  0  0  0  0  0  0  0
   63.3040   -9.1423   10.2345 C   0  0  1  0  0  0  0  0  0  0  0  0
   63.1349   -7.6980    9.8399 C   0  0  2  0  0  0  0  0  0  0  0  0
   62.7485   -6.9243   10.9828 O   0  0  0  0  0  0  0  0  0  0  0  0
   63.7051   -9.2901   11.6055 O   0  0  0  0  0  0  0  0  0  0  0  0
   61.2889   -8.8934    9.0557 O   0  0  0  0  0  0  0  0  0  0  0  0
   61.9981   -7.6951    8.8512 C   0  0  2  0  0  0  0  0  0  0  0  0
   62.3889   -7.6854    7.3877 C   0  0  0  0  0  0  0  0  0  0  0  0
   63.1777   -6.5587    7.0650 O   0  0  0  0  0  0  0  0  0  0  0  0
   62.5697   -5.1031    7.3182 P   0  0  0  0  0  0  0  0  0  0  0  0
   61.1321   -5.1906    6.8464 O   0  0  0  0  0  0  0  0  0  0  0  0
   63.4653   -4.2337    6.4740 O   0  0  0  0  0  0  0  0  0  0  0  0
   62.7853   -4.8878    8.7906 O   0  0  0  0  0  0  0  0  0  0  0  0
  2  1  2  0  0  0  0
  2  4  1  0  0  0  0
  3  2  1  0  0  0  0
  4  7  1  0  0  0  0
  4  5  2  0  0  0  0
  5  6  1  0  0  0  0
  5  9  1  0  0  0  0
  7  8  2  0  0  0  0
  8  9  1  0  0  0  0
 10  9  1  6  0  0  0
 10 15  1  0  0  0  0
 11 14  1  1  0  0  0
 11 12  1  0  0  0  0
 11 10  1  0  0  0  0
 12 13  1  1  0  0  0
 12 16  1  0  0  0  0
 16 17  1  6  0  0  0
 16 15  1  0  0  0  0
 18 19  1  0  0  0  0
 18 17  1  0  0  0  0
 19 21  1  0  0  0  0
 20 19  1  0  0  0  0
 22 19  2  0  0  0  0
M  END
>  <CHROM.1>
14.15312612,122.94709655,-58.79866994,-42.21190094,-58.84781006,62.32578019
-9.24098539,8.90471980,2.28241731,1.42292755,2.22136233

>  <Name>
lig.pdb

>  <RI>
0

>  <Rbt.Current_Directory>
/home/itssahil/PROJECTS/Mol_Feturizer/New_Systems/rnas/4znp

>  <Rbt.Executable>
rbdock ($Id: //depot/dev/client3/rdock/2013.1/src/exe/rbdock.cxx#4 $)

>  <Rbt.Library>
libRbt.so (2013.1, Build901 2013/11/27)

>  <Rbt.Parameter_File>
/export/apps/rDock/src/rDock_2013.1_src/data/scripts/dock_solv.prm

>  <Rbt.Receptor>
prm/pocket_docking_8.prm

>  <SCORE>
-17.1205

>  <SCORE.INTER>
-12.6706

>  <SCORE.INTER.CONST>
1

>  <SCORE.INTER.POLAR>
0

>  <SCORE.INTER.ROT>
5

>  <SCORE.INTER.SOLV>
13.4065

>  <SCORE.INTER.VDW>
-19.8492

>  <SCORE.INTER.norm>
-0.575937

>  <SCORE.INTRA>
-4.4554

>  <SCORE.INTRA.DIHEDRAL>
-8.18926

>  <SCORE.INTRA.DIHEDRAL.0>
11.9251

>  <SCORE.INTRA.POLAR>
0

>  <SCORE.INTRA.POLAR.0>
0

>  <SCORE.INTRA.REPUL>
0

>  <SCORE.INTRA.REPUL.0>
0

>  <SCORE.INTRA.SOLV>
1.8928

>  <SCORE.INTRA.SOLV.lig_0>
-40.9823

>  <SCORE.INTRA.VDW>
-1.30716

>  <SCORE.INTRA.VDW.0>
-0.53506

>  <SCORE.INTRA.norm>
-0.202518

>  <SCORE.RESTR>
0.00552441

>  <SCORE.RESTR.CAVITY>
0.00552441

>  <SCORE.RESTR.norm>
0.00025111

>  <SCORE.SYSTEM>
0

>  <SCORE.SYSTEM.CONST>
0

>  <SCORE.SYSTEM.DIHEDRAL>
0

>  <SCORE.SYSTEM.SOLV>
0

>  <SCORE.SYSTEM.norm>
0

>  <SCORE.heavy>
22

>  <SCORE.norm>
-0.778203

>  <RMSD>
5.541

$$$$
lig.pdb
 OpenBabel11021811523D
libRbt.so/2013.1/901 2013/11/27
 22 23  0  0  0  0  0  0  0  0999 V2000
   61.1752  -15.3999    9.4627 O   0  0  0  0  0  0  0  0  0  0  0  0
   60.8054  -14.4612   10.1279 C   0  0  0  0  0  0  0  0  0  0  0  0
   59.5996  -14.4148   10.6662 N   0  0  0  0  0  0  0  0  0  0  0  0
   61.6884  -13.3027   10.3240 C   0  0  0  0  0  0  0  0  0  0  0  0
   61.4008  -12.1663   11.2022 C   0  0  0  0  0  0  0  0  0  0  0  0
   60.2813  -12.0075   11.9404 N   0  0  0  0  0  0  0  0  0  0  0  0
   62.8859  -13.0155    9.7893 N   0  0  0  0  0  0  0  0  0  0  0  0
   63.3158  -11.8305   10.3047 C   0  0  0  0  0  0  0  0  0  0  0  0
   62.4157  -11.3099   11.1729 N   0  0  0  0  0  0  0  0  0  0  0  0
   62.5626  -10.0289   11.9163 C   0  0  1  0  0  0  0  0  0  0  0  0
   63.9563   -9.9460   12.5001 C   0  0  1  0  0  0  0  0  0  0  0  0
   64.3323   -8.4970   12.3289 C   0  0  2  0  0  0  0  0  0  0  0  0
   63.9473   -7.7544   13.4927 O   0  0  0  0  0  0  0  0  0  0  0  0
   63.9646  -10.3528   13.8774 O   0  0  0  0  0  0  0  0  0  0  0  0
   62.4434   -8.9235   11.0243 O   0  0  0  0  0  0  0  0  0  0  0  0
   63.5117   -8.0175   11.1598 C   0  0  2  0  0  0  0  0  0  0  0  0
   64.2140   -7.9958    9.8179 C   0  0  0  0  0  0  0  0  0  0  0  0
   63.3548   -7.5575    8.7856 O   0  0  0  0  0  0  0  0  0  0  0  0
   63.9925   -7.1789    7.3705 P   0  0  0  0  0  0  0  0  0  0  0  0
   65.0768   -8.2122    7.1394 O   0  0  0  0  0  0  0  0  0  0  0  0
   64.4895   -5.7768    7.6112 O   0  0  0  0  0  0  0  0  0  0  0  0
   62.8141   -7.2162    6.4372 O   0  0  0  0  0  0  0  0  0  0  0  0
  2  1  2  0  0  0  0
  2  4  1  0  0  0  0
  3  2  1  0  0  0  0
  4  7  1  0  0  0  0
  4  5  2  0  0  0  0
  5  6  1  0  0  0  0
  5  9  1  0  0  0  0
  7  8  2  0  0  0  0
  8  9  1  0  0  0  0
 10  9  1  6  0  0  0
 10 15  1  0  0  0  0
 11 14  1  1  0  0  0
 11 12  1  0  0  0  0
 11 10  1  0  0  0  0
 12 13  1  1  0  0  0
 12 16  1  0  0  0  0
 16 17  1  6  0  0  0
 16 15  1  0  0  0  0
 18 19  1  0  0  0  0
 18 17  1  0  0  0  0
 19 21  1  0  0  0  0
 20 19  1  0  0  0  0
 22 19  2  0  0  0  0
M  END
>  <CHROM.1>
-174.22052654,135.18791177,178.83370107,39.03245860,167.37342983,62.93360281
-9.97438150,10.17575945,2.63174521,1.12506457,1.74377210

>  <Name>
lig.pdb

>  <RI>
0

>  <Rbt.Current_Directory>
/home/itssahil/PROJECTS/Mol_Feturizer/New_Systems/rnas/4znp

>  <Rbt.Executable>
rbdock ($Id: //depot/dev/client3/rdock/2013.1/src/exe/rbdock.cxx#4 $)

>  <Rbt.Library>
libRbt.so (2013.1, Build901 2013/11/27)

>  <Rbt.Parameter_File>
/export/apps/rDock/src/rDock_2013.1_src/data/scripts/dock_solv.prm

>  <Rbt.Receptor>
prm/pocket_docking_7.prm

>  <SCORE>
-13.7782

>  <SCORE.INTER>
-8.82577

>  <SCORE.INTER.CONST>
1

>  <SCORE.INTER.POLAR>
0

>  <SCORE.INTER.ROT>
5

>  <SCORE.INTER.SOLV>
15.6761

>  <SCORE.INTER.VDW>
-18.0425

>  <SCORE.INTER.norm>
-0.401171

>  <SCORE.INTRA>
-4.95244

>  <SCORE.INTRA.DIHEDRAL>
-7.95201

>  <SCORE.INTRA.DIHEDRAL.0>
11.9251

>  <SCORE.INTRA.POLAR>
0

>  <SCORE.INTRA.POLAR.0>
0

>  <SCORE.INTRA.REPUL>
0

>  <SCORE.INTRA.REPUL.0>
0

>  <SCORE.INTRA.SOLV>
-0.210128

>  <SCORE.INTRA.SOLV.lig_0>
-40.9823

>  <SCORE.INTRA.VDW>
-0.871366

>  <SCORE.INTRA.VDW.0>
-0.53506

>  <SCORE.INTRA.norm>
-0.225111

>  <SCORE.RESTR>
0

>  <SCORE.RESTR.CAVITY>
0

>  <SCORE.RESTR.norm>
0

>  <SCORE.SYSTEM>
0

>  <SCORE.SYSTEM.CONST>
0

>  <SCORE.SYSTEM.DIHEDRAL>
0

>  <SCORE.SYSTEM.SOLV>
0

>  <SCORE.SYSTEM.norm>
0

>  <SCORE.heavy>
22

>  <SCORE.norm>
-0.626282

>  <RMSD>
5.559

$$$$
lig.pdb
 OpenBabel11021811523D
libRbt.so/2013.1/901 2013/11/27
 22 23  0  0  0  0  0  0  0  0999 V2000
   59.6522  -14.1792   11.2101 O   0  0  0  0  0  0  0  0  0  0  0  0
   60.4476  -14.4310   10.3358 C   0  0  0  0  0  0  0  0  0  0  0  0
   60.5099  -15.6213    9.7657 N   0  0  0  0  0  0  0  0  0  0  0  0
   61.4162  -13.4131    9.9045 C   0  0  0  0  0  0  0  0  0  0  0  0
   61.6006  -12.1064   10.5400 C   0  0  0  0  0  0  0  0  0  0  0  0
   60.8994  -11.6401   11.5956 N   0  0  0  0  0  0  0  0  0  0  0  0
   62.3051  -13.4224    8.8984 N   0  0  0  0  0  0  0  0  0  0  0  0
   62.9955  -12.2487    8.9215 C   0  0  0  0  0  0  0  0  0  0  0  0
   62.5738  -11.4432    9.9256 N   0  0  0  0  0  0  0  0  0  0  0  0
   63.1081  -10.0900   10.2397 C   0  0  1  0  0  0  0  0  0  0  0  0
   62.0059   -9.2432   10.8383 C   0  0  1  0  0  0  0  0  0  0  0  0
   62.7047   -8.4499   11.9119 C   0  0  2  0  0  0  0  0  0  0  0  0
   63.1774   -7.2102   11.3699 O   0  0  0  0  0  0  0  0  0  0  0  0
   61.4026   -8.4015    9.8433 O   0  0  0  0  0  0  0  0  0  0  0  0
   64.1220  -10.1786   11.2377 O   0  0  0  0  0  0  0  0  0  0  0  0
   63.8942   -9.2878   12.3031 C   0  0  2  0  0  0  0  0  0  0  0  0
   63.7251  -10.1482   13.5383 C   0  0  0  0  0  0  0  0  0  0  0  0
   63.6703   -9.3681   14.7149 O   0  0  0  0  0  0  0  0  0  0  0  0
   63.4362  -10.1080   16.1114 P   0  0  0  0  0  0  0  0  0  0  0  0
   62.0139  -10.6274   16.0469 O   0  0  0  0  0  0  0  0  0  0  0  0
   63.6638   -8.9956   17.1022 O   0  0  0  0  0  0  0  0  0  0  0  0
   64.5305  -11.1385   16.1463 O   0  0  0  0  0  0  0  0  0  0  0  0
  2  1  2  0  0  0  0
  2  4  1  0  0  0  0
  3  2  1  0  0  0  0
  4  7  1  0  0  0  0
  4  5  2  0  0  0  0
  5  6  1  0  0  0  0
  5  9  1  0  0  0  0
  7  8  2  0  0  0  0
  8  9  1  0  0  0  0
 10  9  1  1  0  0  0
 10 15  1  0  0  0  0
 11 14  1  6  0  0  0
 11 12  1  0  0  0  0
 11 10  1  0  0  0  0
 12 13  1  6  0  0  0
 12 16  1  0  0  0  0
 16 17  1  1  0  0  0
 16 15  1  0  0  0  0
 18 19  1  0  0  0  0
 18 17  1  0  0  0  0
 19 21  1  0  0  0  0
 20 19  1  0  0  0  0
 22 19  2  0  0  0  0
M  END
>  <CHROM.1>
6.08339653,-29.94383296,-70.10887013,-68.41594642,177.63123904,62.53086694
-10.87088493,12.26711972,2.56018577,-1.18155225,-1.17540401

>  <Name>
lig.pdb

>  <RI>
0

>  <Rbt.Current_Directory>
/home/itssahil/PROJECTS/Mol_Feturizer/New_Systems/rnas/4znp

>  <Rbt.Executable>
rbdock ($Id: //depot/dev/client3/rdock/2013.1/src/exe/rbdock.cxx#4 $)

>  <Rbt.Library>
libRbt.so (2013.1, Build901 2013/11/27)

>  <Rbt.Parameter_File>
/export/apps/rDock/src/rDock_2013.1_src/data/scripts/dock_solv.prm

>  <Rbt.Receptor>
prm/pocket_docking_7.prm

>  <SCORE>
-10.6528

>  <SCORE.INTER>
-5.78295

>  <SCORE.INTER.CONST>
1

>  <SCORE.INTER.POLAR>
0

>  <SCORE.INTER.ROT>
5

>  <SCORE.INTER.SOLV>
14.6496

>  <SCORE.INTER.VDW>
-15.6718

>  <SCORE.INTER.norm>
-0.262862

>  <SCORE.INTRA>
-4.87202

>  <SCORE.INTRA.DIHEDRAL>
-8.88326

>  <SCORE.INTRA.DIHEDRAL.0>
11.9251

>  <SCORE.INTRA.POLAR>
0

>  <SCORE.INTRA.POLAR.0>
0

>  <SCORE.INTRA.REPUL>
0

>  <SCORE.INTRA.REPUL.0>
0

>  <SCORE.INTRA.SOLV>
1.10252

>  <SCORE.INTRA.SOLV.lig_0>
-40.9823

>  <SCORE.INTRA.VDW>
-0.981653

>  <SCORE.INTRA.VDW.0>
-0.53506

>  <SCORE.INTRA.norm>
-0.221456

>  <SCORE.RESTR>
0.00215691

>  <SCORE.RESTR.CAVITY>
0.00215691

>  <SCORE.RESTR.norm>
9.80414e-05

>  <SCORE.SYSTEM>
0

>  <SCORE.SYSTEM.CONST>
0

>  <SCORE.SYSTEM.DIHEDRAL>
0

>  <SCORE.SYSTEM.SOLV>
0

>  <SCORE.SYSTEM.norm>
0

>  <SCORE.heavy>
22

>  <SCORE.norm>
-0.484219

>  <RMSD>
5.581

$$$$
lig.pdb
 OpenBabel11021811523D
libRbt.so/2013.1/901 2013/11/27
 22 23  0  0  0  0  0  0  0  0999 V2000
   56.9382   -6.9639   10.4898 O   0  0  0  0  0  0  0  0  0  0  0  0
   56.6447   -8.0830   10.8389 C   0  0  0  0  0  0  0  0  0  0  0  0
   55.5401   -8.3392   11.5170 N   0  0  0  0  0  0  0  0  0  0  0  0
   57.5482   -9.2060   10.5512 C   0  0  0  0  0  0  0  0  0  0  0  0
   57.3538  -10.5811   11.0165 C   0  0  0  0  0  0  0  0  0  0  0  0
   56.3338  -11.0122   11.7893 N   0  0  0  0  0  0  0  0  0  0  0  0
   58.6899   -9.2514    9.8462 N   0  0  0  0  0  0  0  0  0  0  0  0
   59.1476  -10.5341    9.8480 C   0  0  0  0  0  0  0  0  0  0  0  0
   58.3325  -11.3521   10.5561 N   0  0  0  0  0  0  0  0  0  0  0  0
   58.5314  -12.8123   10.7648 C   0  0  1  0  0  0  0  0  0  0  0  0
   58.5029  -13.5177    9.4262 C   0  0  1  0  0  0  0  0  0  0  0  0
   59.5676  -14.5761    9.5547 C   0  0  2  0  0  0  0  0  0  0  0  0
   58.9891  -15.7889   10.0534 O   0  0  0  0  0  0  0  0  0  0  0  0
   57.2063  -14.0769    9.1643 O   0  0  0  0  0  0  0  0  0  0  0  0
   59.8232  -13.0616   11.3133 O   0  0  0  0  0  0  0  0  0  0  0  0
   60.5258  -14.0410   10.5869 C   0  0  2  0  0  0  0  0  0  0  0  0
   61.7658  -13.3550   10.0518 C   0  0  0  0  0  0  0  0  0  0  0  0
   61.4462  -12.1717    9.3492 O   0  0  0  0  0  0  0  0  0  0  0  0
   62.6193  -11.3889    8.5986 P   0  0  0  0  0  0  0  0  0  0  0  0
   63.5357  -12.4719    8.0657 O   0  0  0  0  0  0  0  0  0  0  0  0
   63.2014  -10.5503    9.7070 O   0  0  0  0  0  0  0  0  0  0  0  0
   61.8875  -10.5613    7.5786 O   0  0  0  0  0  0  0  0  0  0  0  0
  2  1  2  0  0  0  0
  2  4  1  0  0  0  0
  3  2  1  0  0  0  0
  4  7  1  0  0  0  0
  4  5  2  0  0  0  0
  5  6  1  0  0  0  0
  5  9  1  0  0  0  0
  7  8  2  0  0  0  0
  8  9  1  0  0  0  0
 10  9  1  6  0  0  0
 10 15  1  0  0  0  0
 11 14  1  1  0  0  0
 11 12  1  0  0  0  0
 11 10  1  0  0  0  0
 12 13  1  1  0  0  0
 12 16  1  0  0  0  0
 16 17  1  6  0  0  0
 16 15  1  0  0  0  0
 18 19  1  0  0  0  0
 18 17  1  0  0  0  0
 19 21  1  0  0  0  0
 20 19  1  0  0  0  0
 22 19  2  0  0  0  0
M  END
>  <CHROM.1>
174.79162559,118.93028643,65.23550820,36.23440286,-174.39055007,59.54198322
-11.56217100,9.91538049,-2.56392963,-0.35590640,3.11565354

>  <Name>
lig.pdb

>  <RI>
0

>  <Rbt.Current_Directory>
/home/itssahil/PROJECTS/Mol_Feturizer/New_Systems/rnas/4znp

>  <Rbt.Executable>
rbdock ($Id: //depot/dev/client3/rdock/2013.1/src/exe/rbdock.cxx#4 $)

>  <Rbt.Library>
libRbt.so (2013.1, Build901 2013/11/27)

>  <Rbt.Parameter_File>
/export/apps/rDock/src/rDock_2013.1_src/data/scripts/dock_solv.prm

>  <Rbt.Receptor>
prm/pocket_docking_6.prm

>  <SCORE>
-12.4534

>  <SCORE.INTER>
-6.88908

>  <SCORE.INTER.CONST>
1

>  <SCORE.INTER.POLAR>
0

>  <SCORE.INTER.ROT>
5

>  <SCORE.INTER.SOLV>
17.8808

>  <SCORE.INTER.VDW>
-17.4863

>  <SCORE.INTER.norm>
-0.31314

>  <SCORE.INTRA>
-5.58639

>  <SCORE.INTRA.DIHEDRAL>
-8.43533

>  <SCORE.INTRA.DIHEDRAL.0>
11.9251

>  <SCORE.INTRA.POLAR>
0

>  <SCORE.INTRA.POLAR.0>
0

>  <SCORE.INTRA.REPUL>
0

>  <SCORE.INTRA.REPUL.0>
0

>  <SCORE.INTRA.SOLV>
0.833146

>  <SCORE.INTRA.SOLV.lig_0>
-40.9823

>  <SCORE.INTRA.VDW>
-1.7853

>  <SCORE.INTRA.VDW.0>
-0.53506

>  <SCORE.INTRA.norm>
-0.253927

>  <SCORE.RESTR>
0.0220535

>  <SCORE.RESTR.CAVITY>
0.0220535

>  <SCORE.RESTR.norm>
0.00100243

>  <SCORE.SYSTEM>
0

>  <SCORE.SYSTEM.CONST>
0

>  <SCORE.SYSTEM.DIHEDRAL>
0

>  <SCORE.SYSTEM.SOLV>
0

>  <SCORE.SYSTEM.norm>
0

>  <SCORE.heavy>
22

>  <SCORE.norm>
-0.566064

>  <RMSD>
5.715

$$$$
lig.pdb
 OpenBabel11021811523D
libRbt.so/2013.1/901 2013/11/27
 22 23  0  0  0  0  0  0  0  0999 V2000
   59.1850   -7.6749   11.2701 O   0  0  0  0  0  0  0  0  0  0  0  0
   59.2601   -8.7497   11.8173 C   0  0  0  0  0  0  0  0  0  0  0  0
   59.4691   -8.8619   13.1171 N   0  0  0  0  0  0  0  0  0  0  0  0
   59.1629   -9.9867   11.0295 C   0  0  0  0  0  0  0  0  0  0  0  0
   59.2158  -11.3417   11.5833 C   0  0  0  0  0  0  0  0  0  0  0  0
   59.3804  -11.6516   12.8872 N   0  0  0  0  0  0  0  0  0  0  0  0
   59.0141  -10.1727    9.7083 N   0  0  0  0  0  0  0  0  0  0  0  0
   58.9519  -11.5112    9.4650 C   0  0  0  0  0  0  0  0  0  0  0  0
   59.0685  -12.2303   10.6071 N   0  0  0  0  0  0  0  0  0  0  0  0
   59.0441  -13.7150   10.7081 C   0  0  1  0  0  0  0  0  0  0  0  0
   58.5732  -14.2984    9.3936 C   0  0  1  0  0  0  0  0  0  0  0  0
   59.4289  -15.5261    9.2179 C   0  0  2  0  0  0  0  0  0  0  0  0
   58.7755  -16.6611    9.8002 O   0  0  0  0  0  0  0  0  0  0  0  0
   57.1724  -14.6117    9.4395 O   0  0  0  0  0  0  0  0  0  0  0  0
   60.3620  -14.2181   10.9121 O   0  0  0  0  0  0  0  0  0  0  0  0
   60.6843  -15.2408   10.0005 C   0  0  2  0  0  0  0  0  0  0  0  0
   61.8656  -14.7309    9.2011 C   0  0  0  0  0  0  0  0  0  0  0  0
   61.5314  -13.5818    8.4501 O   0  0  0  0  0  0  0  0  0  0  0  0
   62.2868  -12.2117    8.7737 P   0  0  0  0  0  0  0  0  0  0  0  0
   62.0342  -11.9627   10.2472 O   0  0  0  0  0  0  0  0  0  0  0  0
   61.6065  -11.2455    7.8386 O   0  0  0  0  0  0  0  0  0  0  0  0
   63.7074  -12.4946    8.3705 O   0  0  0  0  0  0  0  0  0  0  0  0
  2  1  2  0  0  0  0
  2  4  1  0  0  0  0
  3  2  1  0  0  0  0
  4  7  1  0  0  0  0
  4  5  2  0  0  0  0
  5  6  1  0  0  0  0
  5  9  1  0  0  0  0
  7  8  2  0  0  0  0
  8  9  1  0  0  0  0
 10  9  1  6  0  0  0
 10 15  1  0  0  0  0
 11 14  1  1  0  0  0
 11 12  1  0  0  0  0
 11 10  1  0  0  0  0
 12 13  1  1  0  0  0
 12 16  1  0  0  0  0
 16 17  1  6  0  0  0
 16 15  1  0  0  0  0
 18 19  1  0  0  0  0
 18 17  1  0  0  0  0
 19 21  1  0  0  0  0
 20 19  1  0  0  0  0
 22 19  2  0  0  0  0
M  END
>  <CHROM.1>
-178.85918648,168.46670082,54.74932000,-56.56282203,117.25662637,60.15891589
-12.42320517,10.05445106,-1.73515340,-0.51901380,-2.84563026

>  <Name>
lig.pdb

>  <RI>
0

>  <Rbt.Current_Directory>
/home/itssahil/PROJECTS/Mol_Feturizer/New_Systems/rnas/4znp

>  <Rbt.Executable>
rbdock ($Id: //depot/dev/client3/rdock/2013.1/src/exe/rbdock.cxx#4 $)

>  <Rbt.Library>
libRbt.so (2013.1, Build901 2013/11/27)

>  <Rbt.Parameter_File>
/export/apps/rDock/src/rDock_2013.1_src/data/scripts/dock_solv.prm

>  <Rbt.Receptor>
prm/pocket_docking_6.prm

>  <SCORE>
-13.727

>  <SCORE.INTER>
-11.6378

>  <SCORE.INTER.CONST>
1

>  <SCORE.INTER.POLAR>
0

>  <SCORE.INTER.ROT>
5

>  <SCORE.INTER.SOLV>
15.8072

>  <SCORE.INTER.VDW>
-19.9609

>  <SCORE.INTER.norm>
-0.528991

>  <SCORE.INTRA>
-2.4787

>  <SCORE.INTRA.DIHEDRAL>
-2.1761

>  <SCORE.INTRA.DIHEDRAL.0>
11.9251

>  <SCORE.INTRA.POLAR>
0

>  <SCORE.INTRA.POLAR.0>
0

>  <SCORE.INTRA.REPUL>
0

>  <SCORE.INTRA.REPUL.0>
0

>  <SCORE.INTRA.SOLV>
3.23607

>  <SCORE.INTRA.SOLV.lig_0>
-40.9823

>  <SCORE.INTRA.VDW>
-3.00869

>  <SCORE.INTRA.VDW.0>
-0.53506

>  <SCORE.INTRA.norm>
-0.112668

>  <SCORE.RESTR>
0.38946

>  <SCORE.RESTR.CAVITY>
0.38946

>  <SCORE.RESTR.norm>
0.0177027

>  <SCORE.SYSTEM>
0

>  <SCORE.SYSTEM.CONST>
0

>  <SCORE.SYSTEM.DIHEDRAL>
0

>  <SCORE.SYSTEM.SOLV>
0

>  <SCORE.SYSTEM.norm>
0

>  <SCORE.heavy>
22

>  <SCORE.norm>
-0.623956

>  <RMSD>
5.788

$$$$
lig.pdb
 OpenBabel11021811523D
libRbt.so/2013.1/901 2013/11/27
 22 23  0  0  0  0  0  0  0  0999 V2000
   59.6008   -7.9894   11.5042 O   0  0  0  0  0  0  0  0  0  0  0  0
   59.5006   -9.0907   11.9918 C   0  0  0  0  0  0  0  0  0  0  0  0
   59.6562   -9.3011   13.2868 N   0  0  0  0  0  0  0  0  0  0  0  0
   59.2411  -10.2559   11.1344 C   0  0  0  0  0  0  0  0  0  0  0  0
   59.1517  -11.6406   11.6034 C   0  0  0  0  0  0  0  0  0  0  0  0
   59.3129  -12.0497   12.8801 N   0  0  0  0  0  0  0  0  0  0  0  0
   59.0378  -10.3392    9.8100 N   0  0  0  0  0  0  0  0  0  0  0  0
   58.8154  -11.6438    9.4886 C   0  0  0  0  0  0  0  0  0  0  0  0
   58.8778  -12.4427   10.5807 N   0  0  0  0  0  0  0  0  0  0  0  0
   58.6848  -13.9186   10.5927 C   0  0  1  0  0  0  0  0  0  0  0  0
   58.3786  -14.3947    9.1893 C   0  0  1  0  0  0  0  0  0  0  0  0
   59.1209  -15.7015    9.0829 C   0  0  2  0  0  0  0  0  0  0  0  0
   58.2679  -16.7792    9.4890 O   0  0  0  0  0  0  0  0  0  0  0  0
   56.9645  -14.5530    8.9943 O   0  0  0  0  0  0  0  0  0  0  0  0
   59.8928  -14.5716   10.9748 O   0  0  0  0  0  0  0  0  0  0  0  0
   60.2536  -15.5873   10.0698 C   0  0  2  0  0  0  0  0  0  0  0  0
   61.5960  -15.1801    9.4982 C   0  0  0  0  0  0  0  0  0  0  0  0
   61.8407  -13.7995    9.6720 O   0  0  0  0  0  0  0  0  0  0  0  0
   62.7258  -13.0378    8.5815 P   0  0  0  0  0  0  0  0  0  0  0  0
   63.5131  -12.0071    9.3655 O   0  0  0  0  0  0  0  0  0  0  0  0
   61.6764  -12.4720    7.6599 O   0  0  0  0  0  0  0  0  0  0  0  0
   63.5148  -14.1450    7.9394 O   0  0  0  0  0  0  0  0  0  0  0  0
  2  1  2  0  0  0  0
  2  4  1  0  0  0  0
  3  2  1  0  0  0  0
  4  7  1  0  0  0  0
  4  5  2  0  0  0  0
  5  6  1  0  0  0  0
  5  9  1  0  0  0  0
  7  8  2  0  0  0  0
  8  9  1  0  0  0  0
 10  9  1  6  0  0  0
 10 15  1  0  0  0  0
 11 14  1  1  0  0  0
 11 12  1  0  0  0  0
 11 10  1  0  0  0  0
 12 13  1  1  0  0  0
 12 16  1  0  0  0  0
 16 17  1  6  0  0  0
 16 15  1  0  0  0  0
 18 19  1  0  0  0  0
 18 17  1  0  0  0  0
 19 21  1  0  0  0  0
 20 19  1  0  0  0  0
 22 19  2  0  0  0  0
M  END
>  <CHROM.1>
177.52384373,179.49521202,98.43296576,-144.93185074,-149.04283753,60.18299620
-12.82947124,10.02042974,-1.79644966,-0.39641493,-2.75093684

>  <Name>
lig.pdb

>  <RI>
0

>  <Rbt.Current_Directory>
/home/itssahil/PROJECTS/Mol_Feturizer/New_Systems/rnas/4znp

>  <Rbt.Executable>
rbdock ($Id: //depot/dev/client3/rdock/2013.1/src/exe/rbdock.cxx#4 $)

>  <Rbt.Library>
libRbt.so (2013.1, Build901 2013/11/27)

>  <Rbt.Parameter_File>
/export/apps/rDock/src/rDock_2013.1_src/data/scripts/dock_solv.prm

>  <Rbt.Receptor>
prm/pocket_docking_4.prm

>  <SCORE>
-7.79509

>  <SCORE.INTER>
-8.10482

>  <SCORE.INTER.CONST>
1

>  <SCORE.INTER.POLAR>
0

>  <SCORE.INTER.ROT>
5

>  <SCORE.INTER.SOLV>
18.2077

>  <SCORE.INTER.VDW>
-18.4058

>  <SCORE.INTER.norm>
-0.368401

>  <SCORE.INTRA>
0.259047

>  <SCORE.INTRA.DIHEDRAL>
-0.417978

>  <SCORE.INTRA.DIHEDRAL.0>
11.9251

>  <SCORE.INTRA.POLAR>
0

>  <SCORE.INTRA.POLAR.0>
0

>  <SCORE.INTRA.REPUL>
0

>  <SCORE.INTRA.REPUL.0>
0

>  <SCORE.INTRA.SOLV>
1.23581

>  <SCORE.INTRA.SOLV.lig_0>
-40.9823

>  <SCORE.INTRA.VDW>
-0.14987

>  <SCORE.INTRA.VDW.0>
-0.53506

>  <SCORE.INTRA.norm>
0.0117748

>  <SCORE.RESTR>
0.0506853

>  <SCORE.RESTR.CAVITY>
0.0506853

>  <SCORE.RESTR.norm>
0.00230388

>  <SCORE.SYSTEM>
0

>  <SCORE.SYSTEM.CONST>
0

>  <SCORE.SYSTEM.DIHEDRAL>
0

>  <SCORE.SYSTEM.SOLV>
0

>  <SCORE.SYSTEM.norm>
0

>  <SCORE.heavy>
22

>  <SCORE.norm>
-0.354322

>  <RMSD>
5.958

$$$$
lig.pdb
 OpenBabel11021811523D
libRbt.so/2013.1/901 2013/11/27
 22 23  0  0  0  0  0  0  0  0999 V2000
   60.7600   -6.9887    8.9876 O   0  0  0  0  0  0  0  0  0  0  0  0
   61.8306   -7.4290    8.6409 C   0  0  0  0  0  0  0  0  0  0  0  0
   62.8301   -6.6422    8.2835 N   0  0  0  0  0  0  0  0  0  0  0  0
   62.0406   -8.8817    8.5637 C   0  0  0  0  0  0  0  0  0  0  0  0
   61.0276   -9.8943    8.8699 C   0  0  0  0  0  0  0  0  0  0  0  0
   59.7670   -9.6443    9.2842 N   0  0  0  0  0  0  0  0  0  0  0  0
   63.1278   -9.5912    8.2215 N   0  0  0  0  0  0  0  0  0  0  0  0
   62.8154  -10.9154    8.2810 C   0  0  0  0  0  0  0  0  0  0  0  0
   61.5322  -11.1067    8.6707 N   0  0  0  0  0  0  0  0  0  0  0  0
   60.8609  -12.4241    8.8418 C   0  0  1  0  0  0  0  0  0  0  0  0
   61.8313  -13.4030    9.4664 C   0  0  1  0  0  0  0  0  0  0  0  0
   60.9767  -14.1981   10.4192 C   0  0  2  0  0  0  0  0  0  0  0  0
   60.4514  -15.3530    9.7524 O   0  0  0  0  0  0  0  0  0  0  0  0
   62.4472  -14.2294    8.4663 O   0  0  0  0  0  0  0  0  0  0  0  0
   59.7740  -12.3096    9.7568 O   0  0  0  0  0  0  0  0  0  0  0  0
   59.8317  -13.2841   10.7706 C   0  0  2  0  0  0  0  0  0  0  0  0
   59.9628  -12.5237   12.0741 C   0  0  0  0  0  0  0  0  0  0  0  0
   58.7999  -11.7746   12.3612 O   0  0  0  0  0  0  0  0  0  0  0  0
   58.7131  -11.0048   13.7585 P   0  0  0  0  0  0  0  0  0  0  0  0
   58.9515  -12.0705   14.8093 O   0  0  0  0  0  0  0  0  0  0  0  0
   57.3149  -10.4440   13.7257 O   0  0  0  0  0  0  0  0  0  0  0  0
   59.7621   -9.9351   13.6315 O   0  0  0  0  0  0  0  0  0  0  0  0
  2  1  2  0  0  0  0
  2  4  1  0  0  0  0
  3  2  1  0  0  0  0
  4  7  1  0  0  0  0
  4  5  2  0  0  0  0
  5  6  1  0  0  0  0
  5  9  1  0  0  0  0
  7  8  2  0  0  0  0
  8  9  1  0  0  0  0
 10  9  1  1  0  0  0
 10 15  1  0  0  0  0
 11 14  1  6  0  0  0
 11 12  1  0  0  0  0
 11 10  1  0  0  0  0
 12 13  1  6  0  0  0
 12 16  1  0  0  0  0
 16 17  1  1  0  0  0
 16 15  1  0  0  0  0
 18 19  1  0  0  0  0
 18 17  1  0  0  0  0
 19 21  1  0  0  0  0
 20 19  1  0  0  0  0
 22 19  2  0  0  0  0
M  END
>  <CHROM.1>
0.55418183,-139.96591130,-175.59263087,-55.12039076,175.01417263,60.52858035
-11.13148418,10.53215921,0.42281987,0.99020488,0.01520186

>  <Name>
lig.pdb

>  <RI>
0

>  <Rbt.Current_Directory>
/home/itssahil/PROJECTS/Mol_Feturizer/New_Systems/rnas/4znp

>  <Rbt.Executable>
rbdock ($Id: //depot/dev/client3/rdock/2013.1/src/exe/rbdock.cxx#4 $)

>  <Rbt.Library>
libRbt.so (2013.1, Build901 2013/11/27)

>  <Rbt.Parameter_File>
/export/apps/rDock/src/rDock_2013.1_src/data/scripts/dock_solv.prm

>  <Rbt.Receptor>
prm/pocket_docking_7.prm

>  <SCORE>
-12.8148

>  <SCORE.INTER>
-7.39415

>  <SCORE.INTER.CONST>
1

>  <SCORE.INTER.POLAR>
0

>  <SCORE.INTER.ROT>
5

>  <SCORE.INTER.SOLV>
9.98221

>  <SCORE.INTER.VDW>
-15.1902

>  <SCORE.INTER.norm>
-0.336098

>  <SCORE.INTRA>
-5.42069

>  <SCORE.INTRA.DIHEDRAL>
-9.28997

>  <SCORE.INTRA.DIHEDRAL.0>
11.9251

>  <SCORE.INTRA.POLAR>
0

>  <SCORE.INTRA.POLAR.0>
0

>  <SCORE.INTRA.REPUL>
0

>  <SCORE.INTRA.REPUL.0>
0

>  <SCORE.INTRA.SOLV>
0.501157

>  <SCORE.INTRA.SOLV.lig_0>
-40.9823

>  <SCORE.INTRA.VDW>
-1.02628

>  <SCORE.INTRA.VDW.0>
-0.53506

>  <SCORE.INTRA.norm>
-0.246395

>  <SCORE.RESTR>
0

>  <SCORE.RESTR.CAVITY>
0

>  <SCORE.RESTR.norm>
0

>  <SCORE.SYSTEM>
0

>  <SCORE.SYSTEM.CONST>
0

>  <SCORE.SYSTEM.DIHEDRAL>
0

>  <SCORE.SYSTEM.SOLV>
0

>  <SCORE.SYSTEM.norm>
0

>  <SCORE.heavy>
22

>  <SCORE.norm>
-0.582493

>  <RMSD>
6.163

$$$$
lig.pdb
 OpenBabel11021811523D
libRbt.so/2013.1/901 2013/11/27
 22 23  0  0  0  0  0  0  0  0999 V2000
   59.6832  -12.9237   10.6374 O   0  0  0  0  0  0  0  0  0  0  0  0
   60.8064  -13.3343   10.4635 C   0  0  0  0  0  0  0  0  0  0  0  0
   61.0462  -14.5597   10.0318 N   0  0  0  0  0  0  0  0  0  0  0  0
   61.9606  -12.4794   10.7755 C   0  0  0  0  0  0  0  0  0  0  0  0
   61.8790  -11.0811   11.2035 C   0  0  0  0  0  0  0  0  0  0  0  0
   60.7406  -10.3708   11.3544 N   0  0  0  0  0  0  0  0  0  0  0  0
   63.2768  -12.7429   10.7479 N   0  0  0  0  0  0  0  0  0  0  0  0
   63.9487  -11.6274   11.1467 C   0  0  0  0  0  0  0  0  0  0  0  0
   63.1001  -10.6110   11.4322 N   0  0  0  0  0  0  0  0  0  0  0  0
   63.4929   -9.2518   11.8945 C   0  0  1  0  0  0  0  0  0  0  0  0
   64.8656   -8.9162   11.3529 C   0  0  1  0  0  0  0  0  0  0  0  0
   64.7656   -7.4546   11.0004 C   0  0  2  0  0  0  0  0  0  0  0  0
   65.1620   -6.6561   12.1226 O   0  0  0  0  0  0  0  0  0  0  0  0
   65.8844   -9.1729   12.3319 O   0  0  0  0  0  0  0  0  0  0  0  0
   62.6078   -8.2722   11.3574 O   0  0  0  0  0  0  0  0  0  0  0  0
   63.3015   -7.2175   10.7353 C   0  0  2  0  0  0  0  0  0  0  0  0
   62.8765   -7.2377    9.2816 C   0  0  0  0  0  0  0  0  0  0  0  0
   63.3362   -6.0966    8.5868 O   0  0  0  0  0  0  0  0  0  0  0  0
   62.8832   -5.8933    7.0683 P   0  0  0  0  0  0  0  0  0  0  0  0
   63.4392   -7.0936    6.3287 O   0  0  0  0  0  0  0  0  0  0  0  0
   63.5261   -4.5759    6.7190 O   0  0  0  0  0  0  0  0  0  0  0  0
   61.3860   -5.7924    7.1628 O   0  0  0  0  0  0  0  0  0  0  0  0
  2  1  2  0  0  0  0
  2  4  1  0  0  0  0
  3  2  1  0  0  0  0
  4  7  1  0  0  0  0
  4  5  2  0  0  0  0
  5  6  1  0  0  0  0
  5  9  1  0  0  0  0
  7  8  2  0  0  0  0
  8  9  1  0  0  0  0
 10  9  1  6  0  0  0
 10 15  1  0  0  0  0
 11 14  1  1  0  0  0
 11 12  1  0  0  0  0
 11 10  1  0  0  0  0
 12 13  1  1  0  0  0
 12 16  1  0  0  0  0
 16 17  1  6  0  0  0
 16 15  1  0  0  0  0
 18 19  1  0  0  0  0
 18 17  1  0  0  0  0
 19 21  1  0  0  0  0
 20 19  1  0  0  0  0
 22 19  2  0  0  0  0
M  END
>  <CHROM.1>
-4.92931289,-150.65645734,-71.48569405,-61.55261928,-175.24643765,62.92424131
-8.94053545,9.94594853,1.84915255,0.79315234,2.49799369

>  <Name>
lig.pdb

>  <RI>
0

>  <Rbt.Current_Directory>
/home/itssahil/PROJECTS/Mol_Feturizer/New_Systems/rnas/4znp

>  <Rbt.Executable>
rbdock ($Id: //depot/dev/client3/rdock/2013.1/src/exe/rbdock.cxx#4 $)

>  <Rbt.Library>
libRbt.so (2013.1, Build901 2013/11/27)

>  <Rbt.Parameter_File>
/export/apps/rDock/src/rDock_2013.1_src/data/scripts/dock_solv.prm

>  <Rbt.Receptor>
prm/pocket_docking_7.prm

>  <SCORE>
-14.3431

>  <SCORE.INTER>
-9.28318

>  <SCORE.INTER.CONST>
1

>  <SCORE.INTER.POLAR>
0

>  <SCORE.INTER.ROT>
5

>  <SCORE.INTER.SOLV>
12.1624

>  <SCORE.INTER.VDW>
-17.1763

>  <SCORE.INTER.norm>
-0.421963

>  <SCORE.INTRA>
-5.05993

>  <SCORE.INTRA.DIHEDRAL>
-8.9107

>  <SCORE.INTRA.DIHEDRAL.0>
11.9251

>  <SCORE.INTRA.POLAR>
0

>  <SCORE.INTRA.POLAR.0>
0

>  <SCORE.INTRA.REPUL>
0

>  <SCORE.INTRA.REPUL.0>
0

>  <SCORE.INTRA.SOLV>
0.297701

>  <SCORE.INTRA.SOLV.lig_0>
-40.9823

>  <SCORE.INTRA.VDW>
-0.75343

>  <SCORE.INTRA.VDW.0>
-0.53506

>  <SCORE.INTRA.norm>
-0.229997

>  <SCORE.RESTR>
0

>  <SCORE.RESTR.CAVITY>
0

>  <SCORE.RESTR.norm>
0

>  <SCORE.SYSTEM>
0

>  <SCORE.SYSTEM.CONST>
0

>  <SCORE.SYSTEM.DIHEDRAL>
0

>  <SCORE.SYSTEM.SOLV>
0

>  <SCORE.SYSTEM.norm>
0

>  <SCORE.heavy>
22

>  <SCORE.norm>
-0.65196

>  <RMSD>
6.177

$$$$
lig.pdb
 OpenBabel11021811523D
libRbt.so/2013.1/901 2013/11/27
 22 23  0  0  0  0  0  0  0  0999 V2000
   60.0396  -11.9281   13.8240 O   0  0  0  0  0  0  0  0  0  0  0  0
   59.0198  -11.3182   13.6039 C   0  0  0  0  0  0  0  0  0  0  0  0
   57.9817  -11.3700   14.4196 N   0  0  0  0  0  0  0  0  0  0  0  0
   58.8875  -10.5210   12.3762 C   0  0  0  0  0  0  0  0  0  0  0  0
   59.9254  -10.3760   11.3529 C   0  0  0  0  0  0  0  0  0  0  0  0
   61.1546  -10.9332   11.3961 N   0  0  0  0  0  0  0  0  0  0  0  0
   57.8640   -9.7821   11.9193 N   0  0  0  0  0  0  0  0  0  0  0  0
   58.2181   -9.2513   10.7161 C   0  0  0  0  0  0  0  0  0  0  0  0
   59.4739   -9.6155   10.3620 N   0  0  0  0  0  0  0  0  0  0  0  0
   60.1774   -9.2153    9.1129 C   0  0  1  0  0  0  0  0  0  0  0  0
   61.4896   -8.5507    9.4685 C   0  0  1  0  0  0  0  0  0  0  0  0
   62.4441   -9.0536    8.4167 C   0  0  2  0  0  0  0  0  0  0  0  0
   62.4496   -8.1581    7.2977 O   0  0  0  0  0  0  0  0  0  0  0  0
   61.3651   -7.1200    9.4531 O   0  0  0  0  0  0  0  0  0  0  0  0
   60.5155  -10.3679    8.3455 O   0  0  0  0  0  0  0  0  0  0  0  0
   61.8724  -10.3747    7.9720 C   0  0  2  0  0  0  0  0  0  0  0  0
   62.4752  -11.6093    8.6099 C   0  0  0  0  0  0  0  0  0  0  0  0
   61.6402  -12.7383    8.4544 O   0  0  0  0  0  0  0  0  0  0  0  0
   62.0475  -14.0966    9.1904 P   0  0  0  0  0  0  0  0  0  0  0  0
   62.6967  -13.6602   10.4885 O   0  0  0  0  0  0  0  0  0  0  0  0
   62.9818  -14.7306    8.1925 O   0  0  0  0  0  0  0  0  0  0  0  0
   60.7429  -14.8355    9.3029 O   0  0  0  0  0  0  0  0  0  0  0  0
  2  1  2  0  0  0  0
  2  4  1  0  0  0  0
  3  2  1  0  0  0  0
  4  7  1  0  0  0  0
  4  5  2  0  0  0  0
  5  6  1  0  0  0  0
  5  9  1  0  0  0  0
  7  8  2  0  0  0  0
  8  9  1  0  0  0  0
 10  9  1  1  0  0  0
 10 15  1  0  0  0  0
 11 14  1  6  0  0  0
 11 12  1  0  0  0  0
 11 10  1  0  0  0  0
 12 13  1  6  0  0  0
 12 16  1  0  0  0  0
 16 17  1  1  0  0  0
 16 15  1  0  0  0  0
 18 19  1  0  0  0  0
 18 17  1  0  0  0  0
 19 21  1  0  0  0  0
 20 19  1  0  0  0  0
 22 19  2  0  0  0  0
M  END
>  <CHROM.1>
-0.71758189,-55.14581379,162.27051219,34.24348458,-173.99261857,60.83694828
-11.12139230,10.08024634,2.83563143,0.93477614,-0.32783660

>  <Name>
lig.pdb

>  <RI>
0

>  <Rbt.Current_Directory>
/home/itssahil/PROJECTS/Mol_Feturizer/New_Systems/rnas/4znp

>  <Rbt.Executable>
rbdock ($Id: //depot/dev/client3/rdock/2013.1/src/exe/rbdock.cxx#4 $)

>  <Rbt.Library>
libRbt.so (2013.1, Build901 2013/11/27)

>  <Rbt.Parameter_File>
/export/apps/rDock/src/rDock_2013.1_src/data/scripts/dock_solv.prm

>  <Rbt.Receptor>
prm/pocket_docking_5.prm

>  <SCORE>
-12.0996

>  <SCORE.INTER>
-7.42182

>  <SCORE.INTER.CONST>
1

>  <SCORE.INTER.POLAR>
0

>  <SCORE.INTER.ROT>
5

>  <SCORE.INTER.SOLV>
12.4162

>  <SCORE.INTER.VDW>
-16.02

>  <SCORE.INTER.norm>
-0.337355

>  <SCORE.INTRA>
-4.67777

>  <SCORE.INTRA.DIHEDRAL>
-7.39154

>  <SCORE.INTRA.DIHEDRAL.0>
11.9251

>  <SCORE.INTRA.POLAR>
0

>  <SCORE.INTRA.POLAR.0>
0

>  <SCORE.INTRA.REPUL>
0

>  <SCORE.INTRA.REPUL.0>
0

>  <SCORE.INTRA.SOLV>
1.62853

>  <SCORE.INTRA.SOLV.lig_0>
-40.9823

>  <SCORE.INTRA.VDW>
-1.79626

>  <SCORE.INTRA.VDW.0>
-0.53506

>  <SCORE.INTRA.norm>
-0.212626

>  <SCORE.RESTR>
0

>  <SCORE.RESTR.CAVITY>
0

>  <SCORE.RESTR.norm>
0

>  <SCORE.SYSTEM>
0

>  <SCORE.SYSTEM.CONST>
0

>  <SCORE.SYSTEM.DIHEDRAL>
0

>  <SCORE.SYSTEM.SOLV>
0

>  <SCORE.SYSTEM.norm>
0

>  <SCORE.heavy>
22

>  <SCORE.norm>
-0.549981

>  <RMSD>
6.204

$$$$
lig.pdb
 OpenBabel11021811523D
libRbt.so/2013.1/901 2013/11/27
 22 23  0  0  0  0  0  0  0  0999 V2000
   61.1118   -6.9335    8.2571 O   0  0  0  0  0  0  0  0  0  0  0  0
   62.1189   -7.5673    8.0460 C   0  0  0  0  0  0  0  0  0  0  0  0
   63.2248   -6.9987    7.5995 N   0  0  0  0  0  0  0  0  0  0  0  0
   62.1283   -9.0239    8.2425 C   0  0  0  0  0  0  0  0  0  0  0  0
   60.9953   -9.8129    8.7314 C   0  0  0  0  0  0  0  0  0  0  0  0
   59.7906   -9.3195    9.0898 N   0  0  0  0  0  0  0  0  0  0  0  0
   63.1008   -9.9272    8.0407 N   0  0  0  0  0  0  0  0  0  0  0  0
   62.6135  -11.1616    8.3467 C   0  0  0  0  0  0  0  0  0  0  0  0
   61.3261  -11.0989    8.7634 N   0  0  0  0  0  0  0  0  0  0  0  0
   60.4870  -12.2566    9.1771 C   0  0  1  0  0  0  0  0  0  0  0  0
   61.2238  -13.0587   10.2278 C   0  0  1  0  0  0  0  0  0  0  0  0
   60.1406  -13.4707   11.1908 C   0  0  2  0  0  0  0  0  0  0  0  0
   59.5980  -14.7378   10.7984 O   0  0  0  0  0  0  0  0  0  0  0  0
   61.8914  -14.1874    9.6422 O   0  0  0  0  0  0  0  0  0  0  0  0
   59.2884  -11.8006    9.7992 O   0  0  0  0  0  0  0  0  0  0  0  0
   59.0687  -12.4224   11.0426 C   0  0  2  0  0  0  0  0  0  0  0  0
   59.0769  -11.3116   12.0725 C   0  0  0  0  0  0  0  0  0  0  0  0
   58.8866  -11.8105   13.3805 O   0  0  0  0  0  0  0  0  0  0  0  0
   58.8900  -10.7779   14.5996 P   0  0  0  0  0  0  0  0  0  0  0  0
   60.3038  -10.2345   14.6499 O   0  0  0  0  0  0  0  0  0  0  0  0
   58.5036  -11.6568   15.7611 O   0  0  0  0  0  0  0  0  0  0  0  0
   57.8047   -9.8040   14.2329 O   0  0  0  0  0  0  0  0  0  0  0  0
  2  1  2  0  0  0  0
  2  4  1  0  0  0  0
  3  2  1  0  0  0  0
  4  7  1  0  0  0  0
  4  5  2  0  0  0  0
  5  6  1  0  0  0  0
  5  9  1  0  0  0  0
  7  8  2  0  0  0  0
  8  9  1  0  0  0  0
 10  9  1  1  0  0  0
 10 15  1  0  0  0  0
 11 14  1  6  0  0  0
 11 12  1  0  0  0  0
 11 10  1  0  0  0  0
 12 13  1  6  0  0  0
 12 16  1  0  0  0  0
 16 17  1  1  0  0  0
 16 15  1  0  0  0  0
 18 19  1  0  0  0  0
 18 17  1  0  0  0  0
 19 21  1  0  0  0  0
 20 19  1  0  0  0  0
 22 19  2  0  0  0  0
M  END
>  <CHROM.1>
-2.09071743,-127.04204132,-61.09074649,-65.97913037,179.06192357,60.37587470
-10.91408695,10.86240678,0.22115369,1.09742544,0.13916929

>  <Name>
lig.pdb

>  <RI>
0

>  <Rbt.Current_Directory>
/home/itssahil/PROJECTS/Mol_Feturizer/New_Systems/rnas/4znp

>  <Rbt.Executable>
rbdock ($Id: //depot/dev/client3/rdock/2013.1/src/exe/rbdock.cxx#4 $)

>  <Rbt.Library>
libRbt.so (2013.1, Build901 2013/11/27)

>  <Rbt.Parameter_File>
/export/apps/rDock/src/rDock_2013.1_src/data/scripts/dock_solv.prm

>  <Rbt.Receptor>
prm/pocket_docking_8.prm

>  <SCORE>
-11.4512

>  <SCORE.INTER>
-6.03968

>  <SCORE.INTER.CONST>
1

>  <SCORE.INTER.POLAR>
0

>  <SCORE.INTER.ROT>
5

>  <SCORE.INTER.SOLV>
11.0243

>  <SCORE.INTER.VDW>
-14.6345

>  <SCORE.INTER.norm>
-0.274531

>  <SCORE.INTRA>
-5.41154

>  <SCORE.INTRA.DIHEDRAL>
-9.46464

>  <SCORE.INTRA.DIHEDRAL.0>
11.9251

>  <SCORE.INTRA.POLAR>
0

>  <SCORE.INTRA.POLAR.0>
0

>  <SCORE.INTRA.REPUL>
0

>  <SCORE.INTRA.REPUL.0>
0

>  <SCORE.INTRA.SOLV>
0.73797

>  <SCORE.INTRA.SOLV.lig_0>
-40.9823

>  <SCORE.INTRA.VDW>
-1.0482

>  <SCORE.INTRA.VDW.0>
-0.53506

>  <SCORE.INTRA.norm>
-0.245979

>  <SCORE.RESTR>
0

>  <SCORE.RESTR.CAVITY>
0

>  <SCORE.RESTR.norm>
0

>  <SCORE.SYSTEM>
0

>  <SCORE.SYSTEM.CONST>
0

>  <SCORE.SYSTEM.DIHEDRAL>
0

>  <SCORE.SYSTEM.SOLV>
0

>  <SCORE.SYSTEM.norm>
0

>  <SCORE.heavy>
22

>  <SCORE.norm>
-0.52051

>  <RMSD>
6.206

$$$$
lig.pdb
 OpenBabel11021811523D
libRbt.so/2013.1/901 2013/11/27
 22 23  0  0  0  0  0  0  0  0999 V2000
   63.3795   -6.7184    7.8220 O   0  0  0  0  0  0  0  0  0  0  0  0
   62.5500   -7.5449    7.5232 C   0  0  0  0  0  0  0  0  0  0  0  0
   61.6603   -7.3328    6.5697 N   0  0  0  0  0  0  0  0  0  0  0  0
   62.4788   -8.8167    8.2565 C   0  0  0  0  0  0  0  0  0  0  0  0
   61.5352   -9.8998    7.9701 C   0  0  0  0  0  0  0  0  0  0  0  0
   60.5858   -9.8813    7.0101 N   0  0  0  0  0  0  0  0  0  0  0  0
   63.2020   -9.2706    9.2925 N   0  0  0  0  0  0  0  0  0  0  0  0
   62.7710  -10.5245    9.6034 C   0  0  0  0  0  0  0  0  0  0  0  0
   61.7571  -10.9166    8.7953 N   0  0  0  0  0  0  0  0  0  0  0  0
   61.0505  -12.2252    8.8566 C   0  0  1  0  0  0  0  0  0  0  0  0
   61.9702  -13.2628    9.4629 C   0  0  1  0  0  0  0  0  0  0  0  0
   61.0564  -14.0923   10.3272 C   0  0  2  0  0  0  0  0  0  0  0  0
   60.5372  -15.1923    9.5693 O   0  0  0  0  0  0  0  0  0  0  0  0
   62.6130  -14.0428    8.4426 O   0  0  0  0  0  0  0  0  0  0  0  0
   59.9259  -12.1391    9.7281 O   0  0  0  0  0  0  0  0  0  0  0  0
   59.9166  -13.1733   10.6826 C   0  0  2  0  0  0  0  0  0  0  0  0
   60.0048  -12.4953   12.0343 C   0  0  0  0  0  0  0  0  0  0  0  0
   58.8628  -11.7067   12.2987 O   0  0  0  0  0  0  0  0  0  0  0  0
   58.7191  -11.0295   13.7386 P   0  0  0  0  0  0  0  0  0  0  0  0
   59.9570  -10.1689   13.8929 O   0  0  0  0  0  0  0  0  0  0  0  0
   58.6597  -12.2289   14.6489 O   0  0  0  0  0  0  0  0  0  0  0  0
   57.4021  -10.3092   13.6540 O   0  0  0  0  0  0  0  0  0  0  0  0
  2  1  2  0  0  0  0
  2  4  1  0  0  0  0
  3  2  1  0  0  0  0
  4  7  1  0  0  0  0
  4  5  2  0  0  0  0
  5  6  1  0  0  0  0
  5  9  1  0  0  0  0
  7  8  2  0  0  0  0
  8  9  1  0  0  0  0
 10  9  1  1  0  0  0
 10 15  1  0  0  0  0
 11 14  1  6  0  0  0
 11 12  1  0  0  0  0
 11 10  1  0  0  0  0
 12 13  1  6  0  0  0
 12 16  1  0  0  0  0
 16 17  1  1  0  0  0
 16 15  1  0  0  0  0
 18 19  1  0  0  0  0
 18 17  1  0  0  0  0
 19 21  1  0  0  0  0
 20 19  1  0  0  0  0
 22 19  2  0  0  0  0
M  END
>  <CHROM.1>
-178.86037157,154.81526664,-177.24347857,58.13124812,174.21153711,60.75606388
-11.08601842,10.30155391,0.37759749,1.02363400,0.06610555

>  <Name>
lig.pdb

>  <RI>
0

>  <Rbt.Current_Directory>
/home/itssahil/PROJECTS/Mol_Feturizer/New_Systems/rnas/4znp

>  <Rbt.Executable>
rbdock ($Id: //depot/dev/client3/rdock/2013.1/src/exe/rbdock.cxx#4 $)

>  <Rbt.Library>
libRbt.so (2013.1, Build901 2013/11/27)

>  <Rbt.Parameter_File>
/export/apps/rDock/src/rDock_2013.1_src/data/scripts/dock_solv.prm

>  <Rbt.Receptor>
prm/pocket_docking_6.prm

>  <SCORE>
-13.4461

>  <SCORE.INTER>
-8.14739

>  <SCORE.INTER.CONST>
1

>  <SCORE.INTER.POLAR>
0

>  <SCORE.INTER.ROT>
5

>  <SCORE.INTER.SOLV>
13.9271

>  <SCORE.INTER.VDW>
-17.0073

>  <SCORE.INTER.norm>
-0.370336

>  <SCORE.INTRA>
-5.31499

>  <SCORE.INTRA.DIHEDRAL>
-9.26505

>  <SCORE.INTRA.DIHEDRAL.0>
11.9251

>  <SCORE.INTRA.POLAR>
0

>  <SCORE.INTRA.POLAR.0>
0

>  <SCORE.INTRA.REPUL>
0

>  <SCORE.INTRA.REPUL.0>
0

>  <SCORE.INTRA.SOLV>
-0.177254

>  <SCORE.INTRA.SOLV.lig_0>
-40.9823

>  <SCORE.INTRA.VDW>
-0.593843

>  <SCORE.INTRA.VDW.0>
-0.53506

>  <SCORE.INTRA.norm>
-0.241591

>  <SCORE.RESTR>
0.0163254

>  <SCORE.RESTR.CAVITY>
0.0163254

>  <SCORE.RESTR.norm>
0.000742065

>  <SCORE.SYSTEM>
0

>  <SCORE.SYSTEM.CONST>
0

>  <SCORE.SYSTEM.DIHEDRAL>
0

>  <SCORE.SYSTEM.SOLV>
0

>  <SCORE.SYSTEM.norm>
0

>  <SCORE.heavy>
22

>  <SCORE.norm>
-0.611185

>  <RMSD>
6.218

$$$$
lig.pdb
 OpenBabel11021811523D
libRbt.so/2013.1/901 2013/11/27
 22 23  0  0  0  0  0  0  0  0999 V2000
   61.6899   -7.2071    6.7786 O   0  0  0  0  0  0  0  0  0  0  0  0
   62.4733   -7.4547    7.6648 C   0  0  0  0  0  0  0  0  0  0  0  0
   63.4104   -6.5987    8.0321 N   0  0  0  0  0  0  0  0  0  0  0  0
   62.4323   -8.7583    8.3424 C   0  0  0  0  0  0  0  0  0  0  0  0
   61.5072   -9.8460    8.0161 C   0  0  0  0  0  0  0  0  0  0  0  0
   60.5496   -9.8041    7.0649 N   0  0  0  0  0  0  0  0  0  0  0  0
   63.1727   -9.2428    9.3522 N   0  0  0  0  0  0  0  0  0  0  0  0
   62.7682  -10.5171    9.6113 C   0  0  0  0  0  0  0  0  0  0  0  0
   61.7552  -10.8933    8.7944 N   0  0  0  0  0  0  0  0  0  0  0  0
   61.0741  -12.2167    8.8038 C   0  0  1  0  0  0  0  0  0  0  0  0
   61.8927  -13.1951    9.6179 C   0  0  1  0  0  0  0  0  0  0  0  0
   60.8572  -14.0052   10.3540 C   0  0  2  0  0  0  0  0  0  0  0  0
   60.5006  -15.1570    9.5793 O   0  0  0  0  0  0  0  0  0  0  0  0
   62.7197  -14.0076    8.7704 O   0  0  0  0  0  0  0  0  0  0  0  0
   59.8124  -12.1183    9.4595 O   0  0  0  0  0  0  0  0  0  0  0  0
   59.6552  -13.1022   10.4535 C   0  0  2  0  0  0  0  0  0  0  0  0
   59.4912  -12.3537   11.7601 C   0  0  0  0  0  0  0  0  0  0  0  0
   60.6105  -11.5379   12.0389 O   0  0  0  0  0  0  0  0  0  0  0  0
   60.5849  -10.6293   13.3528 P   0  0  0  0  0  0  0  0  0  0  0  0
   60.1780  -11.5676   14.4712 O   0  0  0  0  0  0  0  0  0  0  0  0
   59.5613   -9.5828   12.9951 O   0  0  0  0  0  0  0  0  0  0  0  0
   61.9787  -10.0689   13.4149 O   0  0  0  0  0  0  0  0  0  0  0  0
  2  1  2  0  0  0  0
  2  4  1  0  0  0  0
  3  2  1  0  0  0  0
  4  7  1  0  0  0  0
  4  5  2  0  0  0  0
  5  6  1  0  0  0  0
  5  9  1  0  0  0  0
  7  8  2  0  0  0  0
  8  9  1  0  0  0  0
 10  9  1  1  0  0  0
 10 15  1  0  0  0  0
 11 14  1  6  0  0  0
 11 12  1  0  0  0  0
 11 10  1  0  0  0  0
 12 13  1  6  0  0  0
 12 16  1  0  0  0  0
 16 17  1  1  0  0  0
 16 15  1  0  0  0  0
 18 19  1  0  0  0  0
 18 17  1  0  0  0  0
 19 21  1  0  0  0  0
 20 19  1  0  0  0  0
 22 19  2  0  0  0  0
M  END
>  <CHROM.1>
1.23791759,166.74741723,58.54602286,49.73187109,177.61923577,61.23168941
-10.92794973,10.20337791,0.05110736,1.26355155,0.67053875

>  <Name>
lig.pdb

>  <RI>
0

>  <Rbt.Current_Directory>
/home/itssahil/PROJECTS/Mol_Feturizer/New_Systems/rnas/4znp

>  <Rbt.Executable>
rbdock ($Id: //depot/dev/client3/rdock/2013.1/src/exe/rbdock.cxx#4 $)

>  <Rbt.Library>
libRbt.so (2013.1, Build901 2013/11/27)

>  <Rbt.Parameter_File>
/export/apps/rDock/src/rDock_2013.1_src/data/scripts/dock_solv.prm

>  <Rbt.Receptor>
prm/pocket_docking_8.prm

>  <SCORE>
-13.1644

>  <SCORE.INTER>
-7.43245

>  <SCORE.INTER.CONST>
1

>  <SCORE.INTER.POLAR>
0

>  <SCORE.INTER.ROT>
5

>  <SCORE.INTER.SOLV>
13.7046

>  <SCORE.INTER.VDW>
-16.4565

>  <SCORE.INTER.norm>
-0.337839

>  <SCORE.INTRA>
-5.7319

>  <SCORE.INTRA.DIHEDRAL>
-9.28633

>  <SCORE.INTRA.DIHEDRAL.0>
11.9251

>  <SCORE.INTRA.POLAR>
0

>  <SCORE.INTRA.POLAR.0>
0

>  <SCORE.INTRA.REPUL>
0

>  <SCORE.INTRA.REPUL.0>
0

>  <SCORE.INTRA.SOLV>
0.223566

>  <SCORE.INTRA.SOLV.lig_0>
-40.9823

>  <SCORE.INTRA.VDW>
-1.20052

>  <SCORE.INTRA.VDW.0>
-0.53506

>  <SCORE.INTRA.norm>
-0.260541

>  <SCORE.RESTR>
0

>  <SCORE.RESTR.CAVITY>
0

>  <SCORE.RESTR.norm>
0

>  <SCORE.SYSTEM>
0

>  <SCORE.SYSTEM.CONST>
0

>  <SCORE.SYSTEM.DIHEDRAL>
0

>  <SCORE.SYSTEM.SOLV>
0

>  <SCORE.SYSTEM.norm>
0

>  <SCORE.heavy>
22

>  <SCORE.norm>
-0.59838

>  <RMSD>
6.231

$$$$
lig.pdb
 OpenBabel11021811523D
libRbt.so/2013.1/901 2013/11/27
 22 23  0  0  0  0  0  0  0  0999 V2000
   55.8885   -9.8215   11.2901 O   0  0  0  0  0  0  0  0  0  0  0  0
   56.5524   -8.8932   10.8926 C   0  0  0  0  0  0  0  0  0  0  0  0
   56.0763   -7.6619   10.8403 N   0  0  0  0  0  0  0  0  0  0  0  0
   57.9205   -9.1202   10.4055 C   0  0  0  0  0  0  0  0  0  0  0  0
   58.5940  -10.4203   10.3684 C   0  0  0  0  0  0  0  0  0  0  0  0
   58.0683  -11.5899   10.7914 N   0  0  0  0  0  0  0  0  0  0  0  0
   58.8268   -8.2615    9.9121 N   0  0  0  0  0  0  0  0  0  0  0  0
   59.9452   -8.9612    9.5741 C   0  0  0  0  0  0  0  0  0  0  0  0
   59.8068  -10.2813    9.8449 N   0  0  0  0  0  0  0  0  0  0  0  0
   60.8323  -11.3325    9.6025 C   0  0  1  0  0  0  0  0  0  0  0  0
   61.3834  -11.8094   10.9288 C   0  0  1  0  0  0  0  0  0  0  0  0
   61.5557  -13.2935   10.7339 C   0  0  2  0  0  0  0  0  0  0  0  0
   62.8732  -13.5690   10.2415 O   0  0  0  0  0  0  0  0  0  0  0  0
   62.6220  -11.1524   11.2399 O   0  0  0  0  0  0  0  0  0  0  0  0
   60.2352  -12.4735    8.9915 O   0  0  0  0  0  0  0  0  0  0  0  0
   60.5573  -13.6647    9.6684 C   0  0  2  0  0  0  0  0  0  0  0  0
   59.2425  -14.2357   10.1581 C   0  0  0  0  0  0  0  0  0  0  0  0
   59.3992  -15.5428   10.6708 O   0  0  0  0  0  0  0  0  0  0  0  0
   59.6740  -16.7372    9.6459 P   0  0  0  0  0  0  0  0  0  0  0  0
   59.6859  -17.9906   10.4979 O   0  0  0  0  0  0  0  0  0  0  0  0
   61.0079  -16.3524    9.0601 O   0  0  0  0  0  0  0  0  0  0  0  0
   58.5533  -16.6069    8.6520 O   0  0  0  0  0  0  0  0  0  0  0  0
  2  1  2  0  0  0  0
  2  4  1  0  0  0  0
  3  2  1  0  0  0  0
  4  7  1  0  0  0  0
  4  5  2  0  0  0  0
  5  6  1  0  0  0  0
  5  9  1  0  0  0  0
  7  8  2  0  0  0  0
  8  9  1  0  0  0  0
 10  9  1  1  0  0  0
 10 15  1  0  0  0  0
 11 14  1  6  0  0  0
 11 12  1  0  0  0  0
 11 10  1  0  0  0  0
 12 13  1  6  0  0  0
 12 16  1  0  0  0  0
 16 17  1  1  0  0  0
 16 15  1  0  0  0  0
 18 19  1  0  0  0  0
 18 17  1  0  0  0  0
 19 21  1  0  0  0  0
 20 19  1  0  0  0  0
 22 19  2  0  0  0  0
M  END
>  <CHROM.1>
-0.80907773,-70.22174873,-71.50681064,-175.89157270,-72.04377855,59.55999770
-12.64268731,10.14426068,1.86456037,0.02688785,0.09425807

>  <Name>
lig.pdb

>  <RI>
0

>  <Rbt.Current_Directory>
/home/itssahil/PROJECTS/Mol_Feturizer/New_Systems/rnas/4znp

>  <Rbt.Executable>
rbdock ($Id: //depot/dev/client3/rdock/2013.1/src/exe/rbdock.cxx#4 $)

>  <Rbt.Library>
libRbt.so (2013.1, Build901 2013/11/27)

>  <Rbt.Parameter_File>
/export/apps/rDock/src/rDock_2013.1_src/data/scripts/dock_solv.prm

>  <Rbt.Receptor>
prm/pocket_docking_7.prm

>  <SCORE>
-16.9647

>  <SCORE.INTER>
-12.3441

>  <SCORE.INTER.CONST>
1

>  <SCORE.INTER.POLAR>
0

>  <SCORE.INTER.ROT>
5

>  <SCORE.INTER.SOLV>
16.66

>  <SCORE.INTER.VDW>
-20.7161

>  <SCORE.INTER.norm>
-0.561095

>  <SCORE.INTRA>
-4.70225

>  <SCORE.INTRA.DIHEDRAL>
-8.28654

>  <SCORE.INTRA.DIHEDRAL.0>
11.9251

>  <SCORE.INTRA.POLAR>
0

>  <SCORE.INTRA.POLAR.0>
0

>  <SCORE.INTRA.REPUL>
0

>  <SCORE.INTRA.REPUL.0>
0

>  <SCORE.INTRA.SOLV>
2.02216

>  <SCORE.INTRA.SOLV.lig_0>
-40.9823

>  <SCORE.INTRA.VDW>
-1.57006

>  <SCORE.INTRA.VDW.0>
-0.53506

>  <SCORE.INTRA.norm>
-0.213738

>  <SCORE.RESTR>
0.0816496

>  <SCORE.RESTR.CAVITY>
0.0816496

>  <SCORE.RESTR.norm>
0.00371135

>  <SCORE.SYSTEM>
0

>  <SCORE.SYSTEM.CONST>
0

>  <SCORE.SYSTEM.DIHEDRAL>
0

>  <SCORE.SYSTEM.SOLV>
0

>  <SCORE.SYSTEM.norm>
0

>  <SCORE.heavy>
22

>  <SCORE.norm>
-0.771123

>  <RMSD>
6.293

$$$$
lig.pdb
 OpenBabel11021811523D
libRbt.so/2013.1/901 2013/11/27
 22 23  0  0  0  0  0  0  0  0999 V2000
   56.1832   -8.2331   11.9141 O   0  0  0  0  0  0  0  0  0  0  0  0
   56.4552   -9.4093   11.9701 C   0  0  0  0  0  0  0  0  0  0  0  0
   55.7904  -10.2467   12.7464 N   0  0  0  0  0  0  0  0  0  0  0  0
   57.5834   -9.9430   11.1940 C   0  0  0  0  0  0  0  0  0  0  0  0
   58.4210   -9.1602   10.2824 C   0  0  0  0  0  0  0  0  0  0  0  0
   58.2687   -7.8469   10.0078 N   0  0  0  0  0  0  0  0  0  0  0  0
   58.0903  -11.1845   11.1286 N   0  0  0  0  0  0  0  0  0  0  0  0
   59.1566  -11.1713   10.2815 C   0  0  0  0  0  0  0  0  0  0  0  0
   59.3672   -9.9364    9.7661 N   0  0  0  0  0  0  0  0  0  0  0  0
   60.4440   -9.5641    8.8083 C   0  0  1  0  0  0  0  0  0  0  0  0
   61.6356   -9.0343    9.5761 C   0  0  1  0  0  0  0  0  0  0  0  0
   62.8205   -9.5900    8.8293 C   0  0  2  0  0  0  0  0  0  0  0  0
   63.2335   -8.6646    7.8159 O   0  0  0  0  0  0  0  0  0  0  0  0
   61.6341   -7.5985    9.6061 O   0  0  0  0  0  0  0  0  0  0  0  0
   60.9065  -10.7186    8.1118 O   0  0  0  0  0  0  0  0  0  0  0  0
   62.3079  -10.8386    8.1598 C   0  0  2  0  0  0  0  0  0  0  0  0
   62.5913  -12.1426    8.8765 C   0  0  0  0  0  0  0  0  0  0  0  0
   61.6059  -13.1162    8.5990 O   0  0  0  0  0  0  0  0  0  0  0  0
   61.4782  -14.3736    9.5763 P   0  0  0  0  0  0  0  0  0  0  0  0
   62.6335  -15.2804    9.2023 O   0  0  0  0  0  0  0  0  0  0  0  0
   60.1119  -14.9069    9.2306 O   0  0  0  0  0  0  0  0  0  0  0  0
   61.5214  -13.7548   10.9460 O   0  0  0  0  0  0  0  0  0  0  0  0
  2  1  2  0  0  0  0
  2  4  1  0  0  0  0
  3  2  1  0  0  0  0
  4  7  1  0  0  0  0
  4  5  2  0  0  0  0
  5  6  1  0  0  0  0
  5  9  1  0  0  0  0
  7  8  2  0  0  0  0
  8  9  1  0  0  0  0
 10  9  1  1  0  0  0
 10 15  1  0  0  0  0
 11 14  1  6  0  0  0
 11 12  1  0  0  0  0
 11 10  1  0  0  0  0
 12 13  1  6  0  0  0
 12 16  1  0  0  0  0
 16 17  1  1  0  0  0
 16 15  1  0  0  0  0
 18 19  1  0  0  0  0
 18 17  1  0  0  0  0
 19 21  1  0  0  0  0
 20 19  1  0  0  0  0
 22 19  2  0  0  0  0
M  END
>  <CHROM.1>
-2.26986177,86.46699275,151.46164535,-76.73690569,-161.79538182,60.24497190
-11.01650309,9.79968361,2.47327855,0.51639521,-0.10402268

>  <Name>
lig.pdb

>  <RI>
0

>  <Rbt.Current_Directory>
/home/itssahil/PROJECTS/Mol_Feturizer/New_Systems/rnas/4znp

>  <Rbt.Executable>
rbdock ($Id: //depot/dev/client3/rdock/2013.1/src/exe/rbdock.cxx#4 $)

>  <Rbt.Library>
libRbt.so (2013.1, Build901 2013/11/27)

>  <Rbt.Parameter_File>
/export/apps/rDock/src/rDock_2013.1_src/data/scripts/dock_solv.prm

>  <Rbt.Receptor>
prm/pocket_docking_8.prm

>  <SCORE>
-11.7777

>  <SCORE.INTER>
-8.04865

>  <SCORE.INTER.CONST>
1

>  <SCORE.INTER.POLAR>
0

>  <SCORE.INTER.ROT>
5

>  <SCORE.INTER.SOLV>
13.4176

>  <SCORE.INTER.VDW>
-16.7716

>  <SCORE.INTER.norm>
-0.365848

>  <SCORE.INTRA>
-3.72906

>  <SCORE.INTRA.DIHEDRAL>
-5.18897

>  <SCORE.INTRA.DIHEDRAL.0>
11.9251

>  <SCORE.INTRA.POLAR>
0

>  <SCORE.INTRA.POLAR.0>
0

>  <SCORE.INTRA.REPUL>
0

>  <SCORE.INTRA.REPUL.0>
0

>  <SCORE.INTRA.SOLV>
1.06694

>  <SCORE.INTRA.SOLV.lig_0>
-40.9823

>  <SCORE.INTRA.VDW>
-1.66805

>  <SCORE.INTRA.VDW.0>
-0.53506

>  <SCORE.INTRA.norm>
-0.169503

>  <SCORE.RESTR>
0

>  <SCORE.RESTR.CAVITY>
0

>  <SCORE.RESTR.norm>
0

>  <SCORE.SYSTEM>
0

>  <SCORE.SYSTEM.CONST>
0

>  <SCORE.SYSTEM.DIHEDRAL>
0

>  <SCORE.SYSTEM.SOLV>
0

>  <SCORE.SYSTEM.norm>
0

>  <SCORE.heavy>
22

>  <SCORE.norm>
-0.535351

>  <RMSD>
6.303

$$$$
lig.pdb
 OpenBabel11021811523D
libRbt.so/2013.1/901 2013/11/27
 22 23  0  0  0  0  0  0  0  0999 V2000
   61.0728   -9.1399   10.7579 O   0  0  0  0  0  0  0  0  0  0  0  0
   60.1210   -9.8844   10.7454 C   0  0  0  0  0  0  0  0  0  0  0  0
   58.8799   -9.4374   10.8199 N   0  0  0  0  0  0  0  0  0  0  0  0
   60.3233  -11.3392   10.6900 C   0  0  0  0  0  0  0  0  0  0  0  0
   59.2505  -12.3353   10.6428 C   0  0  0  0  0  0  0  0  0  0  0  0
   57.9274  -12.0665   10.6630 N   0  0  0  0  0  0  0  0  0  0  0  0
   61.4526  -12.0650   10.6714 N   0  0  0  0  0  0  0  0  0  0  0  0
   61.1176  -13.3826   10.5918 C   0  0  0  0  0  0  0  0  0  0  0  0
   59.7741  -13.5537   10.5680 N   0  0  0  0  0  0  0  0  0  0  0  0
   59.0634  -14.8589   10.4860 C   0  0  1  0  0  0  0  0  0  0  0  0
   58.4932  -15.0319    9.0949 C   0  0  1  0  0  0  0  0  0  0  0  0
   58.7029  -16.4944    8.7996 C   0  0  2  0  0  0  0  0  0  0  0  0
   57.5545  -17.2437    9.2165 O   0  0  0  0  0  0  0  0  0  0  0  0
   57.1065  -14.6605    9.0550 O   0  0  0  0  0  0  0  0  0  0  0  0
   59.9812  -15.9337   10.6713 O   0  0  0  0  0  0  0  0  0  0  0  0
   59.8766  -16.8995    9.6530 C   0  0  2  0  0  0  0  0  0  0  0  0
   61.2244  -16.9259    8.9621 C   0  0  0  0  0  0  0  0  0  0  0  0
   61.6910  -15.6231    8.6772 O   0  0  0  0  0  0  0  0  0  0  0  0
   63.0682  -15.4619    7.8836 P   0  0  0  0  0  0  0  0  0  0  0  0
   64.0334  -16.4023    8.5771 O   0  0  0  0  0  0  0  0  0  0  0  0
   63.3679  -13.9959    8.0623 O   0  0  0  0  0  0  0  0  0  0  0  0
   62.6948  -15.8013    6.4672 O   0  0  0  0  0  0  0  0  0  0  0  0
  2  1  2  0  0  0  0
  2  4  1  0  0  0  0
  3  2  1  0  0  0  0
  4  7  1  0  0  0  0
  4  5  2  0  0  0  0
  5  6  1  0  0  0  0
  5  9  1  0  0  0  0
  7  8  2  0  0  0  0
  8  9  1  0  0  0  0
 10  9  1  6  0  0  0
 10 15  1  0  0  0  0
 11 14  1  1  0  0  0
 11 12  1  0  0  0  0
 11 10  1  0  0  0  0
 12 13  1  1  0  0  0
 12 16  1  0  0  0  0
 16 17  1  6  0  0  0
 16 15  1  0  0  0  0
 18 19  1  0  0  0  0
 18 17  1  0  0  0  0
 19 21  1  0  0  0  0
 20 19  1  0  0  0  0
 22 19  2  0  0  0  0
M  END
>  <CHROM.1>
-178.69245516,74.60066783,71.32158613,-47.06947779,-177.05567431,60.50063397
-14.17021843,9.48156206,-1.92483414,-0.29391953,-2.83285787

>  <Name>
lig.pdb

>  <RI>
0

>  <Rbt.Current_Directory>
/home/itssahil/PROJECTS/Mol_Feturizer/New_Systems/rnas/4znp

>  <Rbt.Executable>
rbdock ($Id: //depot/dev/client3/rdock/2013.1/src/exe/rbdock.cxx#4 $)

>  <Rbt.Library>
libRbt.so (2013.1, Build901 2013/11/27)

>  <Rbt.Parameter_File>
/export/apps/rDock/src/rDock_2013.1_src/data/scripts/dock_solv.prm

>  <Rbt.Receptor>
prm/pocket_docking_4.prm

>  <SCORE>
-15.8985

>  <SCORE.INTER>
-10.0198

>  <SCORE.INTER.CONST>
1

>  <SCORE.INTER.POLAR>
0

>  <SCORE.INTER.ROT>
5

>  <SCORE.INTER.SOLV>
22.0324

>  <SCORE.INTER.VDW>
-20.9574

>  <SCORE.INTER.norm>
-0.455447

>  <SCORE.INTRA>
-5.88615

>  <SCORE.INTRA.DIHEDRAL>
-8.73362

>  <SCORE.INTRA.DIHEDRAL.0>
11.9251

>  <SCORE.INTRA.POLAR>
0

>  <SCORE.INTRA.POLAR.0>
0

>  <SCORE.INTRA.REPUL>
0

>  <SCORE.INTRA.REPUL.0>
0

>  <SCORE.INTRA.SOLV>
1.13241

>  <SCORE.INTRA.SOLV.lig_0>
-40.9823

>  <SCORE.INTRA.VDW>
-2.08554

>  <SCORE.INTRA.VDW.0>
-0.53506

>  <SCORE.INTRA.norm>
-0.267552

>  <SCORE.RESTR>
0.00751194

>  <SCORE.RESTR.CAVITY>
0.00751194

>  <SCORE.RESTR.norm>
0.000341452

>  <SCORE.SYSTEM>
0

>  <SCORE.SYSTEM.CONST>
0

>  <SCORE.SYSTEM.DIHEDRAL>
0

>  <SCORE.SYSTEM.SOLV>
0

>  <SCORE.SYSTEM.norm>
0

>  <SCORE.heavy>
22

>  <SCORE.norm>
-0.722658

>  <RMSD>
6.419

$$$$
lig.pdb
 OpenBabel11021811523D
libRbt.so/2013.1/901 2013/11/27
 22 23  0  0  0  0  0  0  0  0999 V2000
   59.2863  -12.3276    9.9885 O   0  0  0  0  0  0  0  0  0  0  0  0
   60.3973  -12.5293    9.5579 C   0  0  0  0  0  0  0  0  0  0  0  0
   60.9371  -13.7352    9.5472 N   0  0  0  0  0  0  0  0  0  0  0  0
   61.2117  -11.4095    9.0649 C   0  0  0  0  0  0  0  0  0  0  0  0
   60.8158  -10.0000    9.1082 C   0  0  0  0  0  0  0  0  0  0  0  0
   59.6447   -9.5271    9.5859 N   0  0  0  0  0  0  0  0  0  0  0  0
   62.4269  -11.3966    8.4944 N   0  0  0  0  0  0  0  0  0  0  0  0
   62.7676  -10.1041    8.2335 C   0  0  0  0  0  0  0  0  0  0  0  0
   61.7901   -9.2460    8.6117 N   0  0  0  0  0  0  0  0  0  0  0  0
   61.8295   -7.7646    8.4725 C   0  0  1  0  0  0  0  0  0  0  0  0
   61.5499   -7.3895    7.0334 C   0  0  1  0  0  0  0  0  0  0  0  0
   60.6972   -6.1520    7.1434 C   0  0  2  0  0  0  0  0  0  0  0  0
   61.5308   -4.9862    7.1435 O   0  0  0  0  0  0  0  0  0  0  0  0
   62.7704   -7.1490    6.3156 O   0  0  0  0  0  0  0  0  0  0  0  0
   60.7896   -7.1682    9.2436 O   0  0  0  0  0  0  0  0  0  0  0  0
   60.0242   -6.2614    8.4869 C   0  0  2  0  0  0  0  0  0  0  0  0
   58.6120   -6.8094    8.4814 C   0  0  0  0  0  0  0  0  0  0  0  0
   57.7518   -6.0289    7.6772 O   0  0  0  0  0  0  0  0  0  0  0  0
   57.3335   -4.5759    8.1934 P   0  0  0  0  0  0  0  0  0  0  0  0
   56.7327   -4.8049    9.5659 O   0  0  0  0  0  0  0  0  0  0  0  0
   56.3558   -4.1326    7.1359 O   0  0  0  0  0  0  0  0  0  0  0  0
   58.6227   -3.8040    8.1408 O   0  0  0  0  0  0  0  0  0  0  0  0
  2  1  2  0  0  0  0
  2  4  1  0  0  0  0
  3  2  1  0  0  0  0
  4  7  1  0  0  0  0
  4  5  2  0  0  0  0
  5  6  1  0  0  0  0
  5  9  1  0  0  0  0
  7  8  2  0  0  0  0
  8  9  1  0  0  0  0
 10  9  1  6  0  0  0
 10 15  1  0  0  0  0
 11 14  1  6  0  0  0
 11 12  1  0  0  0  0
 11 10  1  0  0  0  0
 12 13  1  1  0  0  0
 12 16  1  0  0  0  0
 16 17  1  6  0  0  0
 16 15  1  0  0  0  0
 18 19  1  0  0  0  0
 18 17  1  0  0  0  0
 19 21  1  0  0  0  0
 20 19  1  0  0  0  0
 22 19  2  0  0  0  0
M  END
>  <CHROM.1>
3.37898350,-102.14780652,-58.32952570,-55.43229091,-71.20965504,59.95499016
-7.74399859,8.38801518,1.10407127,-0.33017065,2.82012747

>  <Name>
lig.pdb

>  <RI>
0

>  <Rbt.Current_Directory>
/home/itssahil/PROJECTS/Mol_Feturizer/New_Systems/rnas/4znp

>  <Rbt.Executable>
rbdock ($Id: //depot/dev/client3/rdock/2013.1/src/exe/rbdock.cxx#4 $)

>  <Rbt.Library>
libRbt.so (2013.1, Build901 2013/11/27)

>  <Rbt.Parameter_File>
/export/apps/rDock/src/rDock_2013.1_src/data/scripts/dock_solv.prm

>  <Rbt.Receptor>
prm/pocket_docking_8.prm

>  <SCORE>
-11.929

>  <SCORE.INTER>
-7.25314

>  <SCORE.INTER.CONST>
1

>  <SCORE.INTER.POLAR>
0

>  <SCORE.INTER.ROT>
5

>  <SCORE.INTER.SOLV>
11.8685

>  <SCORE.INTER.VDW>
-15.7249

>  <SCORE.INTER.norm>
-0.329688

>  <SCORE.INTRA>
-4.67586

>  <SCORE.INTRA.DIHEDRAL>
-8.75377

>  <SCORE.INTRA.DIHEDRAL.0>
11.9251

>  <SCORE.INTRA.POLAR>
0

>  <SCORE.INTRA.POLAR.0>
0

>  <SCORE.INTRA.REPUL>
0

>  <SCORE.INTRA.REPUL.0>
0

>  <SCORE.INTRA.SOLV>
2.63757

>  <SCORE.INTRA.SOLV.lig_0>
-40.9823

>  <SCORE.INTRA.VDW>
-1.61777

>  <SCORE.INTRA.VDW.0>
-0.53506

>  <SCORE.INTRA.norm>
-0.212539

>  <SCORE.RESTR>
0

>  <SCORE.RESTR.CAVITY>
0

>  <SCORE.RESTR.norm>
0

>  <SCORE.SYSTEM>
0

>  <SCORE.SYSTEM.CONST>
0

>  <SCORE.SYSTEM.DIHEDRAL>
0

>  <SCORE.SYSTEM.SOLV>
0

>  <SCORE.SYSTEM.norm>
0

>  <SCORE.heavy>
22

>  <SCORE.norm>
-0.542228

>  <RMSD>
6.451

$$$$
lig.pdb
 OpenBabel11021811523D
libRbt.so/2013.1/901 2013/11/27
 22 23  0  0  0  0  0  0  0  0999 V2000
   61.4333   -7.0415    6.3231 O   0  0  0  0  0  0  0  0  0  0  0  0
   62.2549   -7.1747    7.1993 C   0  0  0  0  0  0  0  0  0  0  0  0
   63.1328   -6.2302    7.4871 N   0  0  0  0  0  0  0  0  0  0  0  0
   62.3299   -8.4332    7.9548 C   0  0  0  0  0  0  0  0  0  0  0  0
   61.4545   -9.5895    7.7498 C   0  0  0  0  0  0  0  0  0  0  0  0
   60.4443   -9.6615    6.8566 N   0  0  0  0  0  0  0  0  0  0  0  0
   63.1533   -8.8106    8.9457 N   0  0  0  0  0  0  0  0  0  0  0  0
   62.8409  -10.0868    9.3041 C   0  0  0  0  0  0  0  0  0  0  0  0
   61.8079  -10.5700    8.5731 N   0  0  0  0  0  0  0  0  0  0  0  0
   61.2087  -11.9263    8.7021 C   0  0  1  0  0  0  0  0  0  0  0  0
   62.2563  -12.8894    9.2170 C   0  0  1  0  0  0  0  0  0  0  0  0
   61.4932  -13.7776   10.1653 C   0  0  2  0  0  0  0  0  0  0  0  0
   60.9860  -14.9180    9.4610 O   0  0  0  0  0  0  0  0  0  0  0  0
   62.8537  -13.6275    8.1396 O   0  0  0  0  0  0  0  0  0  0  0  0
   60.1697  -11.9167    9.6779 O   0  0  0  0  0  0  0  0  0  0  0  0
   60.3282  -12.9420   10.6288 C   0  0  2  0  0  0  0  0  0  0  0  0
   60.4957  -12.2498   11.9657 C   0  0  0  0  0  0  0  0  0  0  0  0
   59.2543  -11.8387   12.5003 O   0  0  0  0  0  0  0  0  0  0  0  0
   59.2079  -11.3177   14.0099 P   0  0  0  0  0  0  0  0  0  0  0  0
   59.6668  -12.4955   14.8460 O   0  0  0  0  0  0  0  0  0  0  0  0
   57.7564  -10.9474   14.1735 O   0  0  0  0  0  0  0  0  0  0  0  0
   60.1072  -10.1129   13.9894 O   0  0  0  0  0  0  0  0  0  0  0  0
  2  1  2  0  0  0  0
  2  4  1  0  0  0  0
  3  2  1  0  0  0  0
  4  7  1  0  0  0  0
  4  5  2  0  0  0  0
  5  6  1  0  0  0  0
  5  9  1  0  0  0  0
  7  8  2  0  0  0  0
  8  9  1  0  0  0  0
 10  9  1  1  0  0  0
 10 15  1  0  0  0  0
 11 14  1  6  0  0  0
 11 12  1  0  0  0  0
 11 10  1  0  0  0  0
 12 13  1  6  0  0  0
 12 16  1  0  0  0  0
 16 17  1  1  0  0  0
 16 15  1  0  0  0  0
 18 19  1  0  0  0  0
 18 17  1  0  0  0  0
 19 21  1  0  0  0  0
 20 19  1  0  0  0  0
 22 19  2  0  0  0  0
M  END
>  <CHROM.1>
-0.80128647,152.98173757,-162.21397142,-61.30935920,169.71602903,60.95711343
-10.92727124,10.21967404,0.53899640,1.12561402,-0.06567385

>  <Name>
lig.pdb

>  <RI>
0

>  <Rbt.Current_Directory>
/home/itssahil/PROJECTS/Mol_Feturizer/New_Systems/rnas/4znp

>  <Rbt.Executable>
rbdock ($Id: //depot/dev/client3/rdock/2013.1/src/exe/rbdock.cxx#4 $)

>  <Rbt.Library>
libRbt.so (2013.1, Build901 2013/11/27)

>  <Rbt.Parameter_File>
/export/apps/rDock/src/rDock_2013.1_src/data/scripts/dock_solv.prm

>  <Rbt.Receptor>
prm/pocket_docking_7.prm

>  <SCORE>
-14.1305

>  <SCORE.INTER>
-9.31431

>  <SCORE.INTER.CONST>
1

>  <SCORE.INTER.POLAR>
0

>  <SCORE.INTER.ROT>
5

>  <SCORE.INTER.SOLV>
15.8403

>  <SCORE.INTER.VDW>
-18.423

>  <SCORE.INTER.norm>
-0.423378

>  <SCORE.INTRA>
-4.81619

>  <SCORE.INTRA.DIHEDRAL>
-7.91203

>  <SCORE.INTRA.DIHEDRAL.0>
11.9251

>  <SCORE.INTRA.POLAR>
0

>  <SCORE.INTRA.POLAR.0>
0

>  <SCORE.INTRA.REPUL>
0

>  <SCORE.INTRA.REPUL.0>
0

>  <SCORE.INTRA.SOLV>
-0.285187

>  <SCORE.INTRA.SOLV.lig_0>
-40.9823

>  <SCORE.INTRA.VDW>
-0.717584

>  <SCORE.INTRA.VDW.0>
-0.53506

>  <SCORE.INTRA.norm>
-0.218918

>  <SCORE.RESTR>
0

>  <SCORE.RESTR.CAVITY>
0

>  <SCORE.RESTR.norm>
0

>  <SCORE.SYSTEM>
0

>  <SCORE.SYSTEM.CONST>
0

>  <SCORE.SYSTEM.DIHEDRAL>
0

>  <SCORE.SYSTEM.SOLV>
0

>  <SCORE.SYSTEM.norm>
0

>  <SCORE.heavy>
22

>  <SCORE.norm>
-0.642296

>  <RMSD>
6.460

$$$$
lig.pdb
 OpenBabel11021811523D
libRbt.so/2013.1/901 2013/11/27
 22 23  0  0  0  0  0  0  0  0999 V2000
   56.0846   -7.1150   11.2677 O   0  0  0  0  0  0  0  0  0  0  0  0
   56.2012   -8.3080   11.4210 C   0  0  0  0  0  0  0  0  0  0  0  0
   55.3364   -9.0119   12.1298 N   0  0  0  0  0  0  0  0  0  0  0  0
   57.3551   -9.0158   10.8485 C   0  0  0  0  0  0  0  0  0  0  0  0
   58.3907   -8.3989   10.0165 C   0  0  0  0  0  0  0  0  0  0  0  0
   58.4268   -7.1028    9.6393 N   0  0  0  0  0  0  0  0  0  0  0  0
   57.7218  -10.3044   10.9355 N   0  0  0  0  0  0  0  0  0  0  0  0
   58.8864  -10.4691   10.2490 C   0  0  0  0  0  0  0  0  0  0  0  0
   59.3031   -9.3075    9.6904 N   0  0  0  0  0  0  0  0  0  0  0  0
   60.5336   -9.1261    8.8730 C   0  0  1  0  0  0  0  0  0  0  0  0
   61.7484   -9.2123    9.7712 C   0  0  1  0  0  0  0  0  0  0  0  0
   62.7573   -9.9625    8.9407 C   0  0  2  0  0  0  0  0  0  0  0  0
   63.5494   -9.0371    8.1857 O   0  0  0  0  0  0  0  0  0  0  0  0
   62.2112   -7.9041   10.1415 O   0  0  0  0  0  0  0  0  0  0  0  0
   60.6634  -10.1895    7.9328 O   0  0  0  0  0  0  0  0  0  0  0  0
   61.9370  -10.7863    7.9824 C   0  0  2  0  0  0  0  0  0  0  0  0
   61.7064  -12.2310    8.3750 C   0  0  0  0  0  0  0  0  0  0  0  0
   61.0647  -12.3355    9.6293 O   0  0  0  0  0  0  0  0  0  0  0  0
   60.5914  -13.7780   10.1271 P   0  0  0  0  0  0  0  0  0  0  0  0
   61.8264  -14.6511   10.0311 O   0  0  0  0  0  0  0  0  0  0  0  0
   59.4985  -14.1102    9.1442 O   0  0  0  0  0  0  0  0  0  0  0  0
   60.0583  -13.5115   11.5075 O   0  0  0  0  0  0  0  0  0  0  0  0
  2  1  2  0  0  0  0
  2  4  1  0  0  0  0
  3  2  1  0  0  0  0
  4  7  1  0  0  0  0
  4  5  2  0  0  0  0
  5  6  1  0  0  0  0
  5  9  1  0  0  0  0
  7  8  2  0  0  0  0
  8  9  1  0  0  0  0
 10  9  1  1  0  0  0
 10 15  1  0  0  0  0
 11 14  1  6  0  0  0
 11 12  1  0  0  0  0
 11 10  1  0  0  0  0
 12 13  1  6  0  0  0
 12 16  1  0  0  0  0
 16 17  1  1  0  0  0
 16 15  1  0  0  0  0
 18 19  1  0  0  0  0
 18 17  1  0  0  0  0
 19 21  1  0  0  0  0
 20 19  1  0  0  0  0
 22 19  2  0  0  0  0
M  END
>  <CHROM.1>
-3.31670632,108.88580768,58.22490432,53.25495692,173.10231005,59.91556384
-10.52389145,9.85800139,2.41246183,0.43506622,-0.11575346

>  <Name>
lig.pdb

>  <RI>
0

>  <Rbt.Current_Directory>
/home/itssahil/PROJECTS/Mol_Feturizer/New_Systems/rnas/4znp

>  <Rbt.Executable>
rbdock ($Id: //depot/dev/client3/rdock/2013.1/src/exe/rbdock.cxx#4 $)

>  <Rbt.Library>
libRbt.so (2013.1, Build901 2013/11/27)

>  <Rbt.Parameter_File>
/export/apps/rDock/src/rDock_2013.1_src/data/scripts/dock_solv.prm

>  <Rbt.Receptor>
prm/pocket_docking_6.prm

>  <SCORE>
-13.0515

>  <SCORE.INTER>
-6.55763

>  <SCORE.INTER.CONST>
1

>  <SCORE.INTER.POLAR>
0

>  <SCORE.INTER.ROT>
5

>  <SCORE.INTER.SOLV>
11.5034

>  <SCORE.INTER.VDW>
-15.1396

>  <SCORE.INTER.norm>
-0.298074

>  <SCORE.INTRA>
-6.49383

>  <SCORE.INTRA.DIHEDRAL>
-9.2079

>  <SCORE.INTRA.DIHEDRAL.0>
11.9251

>  <SCORE.INTRA.POLAR>
0

>  <SCORE.INTRA.POLAR.0>
0

>  <SCORE.INTRA.REPUL>
0

>  <SCORE.INTRA.REPUL.0>
0

>  <SCORE.INTRA.SOLV>
0.710432

>  <SCORE.INTRA.SOLV.lig_0>
-40.9823

>  <SCORE.INTRA.VDW>
-2.2451

>  <SCORE.INTRA.VDW.0>
-0.53506

>  <SCORE.INTRA.norm>
-0.295174

>  <SCORE.RESTR>
0

>  <SCORE.RESTR.CAVITY>
0

>  <SCORE.RESTR.norm>
0

>  <SCORE.SYSTEM>
0

>  <SCORE.SYSTEM.CONST>
0

>  <SCORE.SYSTEM.DIHEDRAL>
0

>  <SCORE.SYSTEM.SOLV>
0

>  <SCORE.SYSTEM.norm>
0

>  <SCORE.heavy>
22

>  <SCORE.norm>
-0.593248

>  <RMSD>
6.468

$$$$
lig.pdb
 OpenBabel11021811523D
libRbt.so/2013.1/901 2013/11/27
 22 23  0  0  0  0  0  0  0  0999 V2000
   59.0282   -9.4255   10.6968 O   0  0  0  0  0  0  0  0  0  0  0  0
   60.1408   -9.8884   10.7871 C   0  0  0  0  0  0  0  0  0  0  0  0
   61.2134   -9.1228   10.8826 N   0  0  0  0  0  0  0  0  0  0  0  0
   60.3393  -11.3442   10.7483 C   0  0  0  0  0  0  0  0  0  0  0  0
   59.2654  -12.3364   10.6613 C   0  0  0  0  0  0  0  0  0  0  0  0
   57.9437  -12.0624   10.6242 N   0  0  0  0  0  0  0  0  0  0  0  0
   61.4653  -12.0745   10.7814 N   0  0  0  0  0  0  0  0  0  0  0  0
   61.1286  -13.3912   10.6951 C   0  0  0  0  0  0  0  0  0  0  0  0
   59.7866  -13.5572   10.6154 N   0  0  0  0  0  0  0  0  0  0  0  0
   59.0746  -14.8601   10.5107 C   0  0  1  0  0  0  0  0  0  0  0  0
   58.5081  -15.0102    9.1154 C   0  0  1  0  0  0  0  0  0  0  0  0
   58.7170  -16.4682    8.7974 C   0  0  2  0  0  0  0  0  0  0  0  0
   57.5665  -17.2226    9.1992 O   0  0  0  0  0  0  0  0  0  0  0  0
   57.1220  -14.6366    9.0775 O   0  0  0  0  0  0  0  0  0  0  0  0
   59.9906  -15.9388   10.6814 O   0  0  0  0  0  0  0  0  0  0  0  0
   59.8878  -16.8882    9.6476 C   0  0  2  0  0  0  0  0  0  0  0  0
   61.2374  -16.9052    8.9602 C   0  0  0  0  0  0  0  0  0  0  0  0
   61.7140  -15.5985    8.7122 O   0  0  0  0  0  0  0  0  0  0  0  0
   63.0636  -15.4239    7.8752 P   0  0  0  0  0  0  0  0  0  0  0  0
   62.7049  -15.8362    6.4616 O   0  0  0  0  0  0  0  0  0  0  0  0
   64.0046  -16.3577    8.5917 O   0  0  0  0  0  0  0  0  0  0  0  0
   63.4195  -13.9786    8.0873 O   0  0  0  0  0  0  0  0  0  0  0  0
  2  1  2  0  0  0  0
  2  4  1  0  0  0  0
  3  2  1  0  0  0  0
  4  7  1  0  0  0  0
  4  5  2  0  0  0  0
  5  6  1  0  0  0  0
  5  9  1  0  0  0  0
  7  8  2  0  0  0  0
  8  9  1  0  0  0  0
 10  9  1  6  0  0  0
 10 15  1  0  0  0  0
 11 14  1  1  0  0  0
 11 12  1  0  0  0  0
 11 10  1  0  0  0  0
 12 13  1  1  0  0  0
 12 16  1  0  0  0  0
 16 17  1  6  0  0  0
 16 15  1  0  0  0  0
 18 19  1  0  0  0  0
 18 17  1  0  0  0  0
 19 21  1  0  0  0  0
 20 19  1  0  0  0  0
 22 19  2  0  0  0  0
M  END
>  <CHROM.1>
-2.74308986,72.02366442,72.04502297,69.90633365,-174.57663933,60.51121280
-14.16063880,9.49937513,-1.92255104,-0.29004389,-2.82574177

>  <Name>
lig.pdb

>  <RI>
0

>  <Rbt.Current_Directory>
/home/itssahil/PROJECTS/Mol_Feturizer/New_Systems/rnas/4znp

>  <Rbt.Executable>
rbdock ($Id: //depot/dev/client3/rdock/2013.1/src/exe/rbdock.cxx#4 $)

>  <Rbt.Library>
libRbt.so (2013.1, Build901 2013/11/27)

>  <Rbt.Parameter_File>
/export/apps/rDock/src/rDock_2013.1_src/data/scripts/dock_solv.prm

>  <Rbt.Receptor>
prm/pocket_docking_5.prm

>  <SCORE>
-15.4222

>  <SCORE.INTER>
-9.61042

>  <SCORE.INTER.CONST>
1

>  <SCORE.INTER.POLAR>
0

>  <SCORE.INTER.ROT>
5

>  <SCORE.INTER.SOLV>
21.567

>  <SCORE.INTER.VDW>
-20.5293

>  <SCORE.INTER.norm>
-0.436837

>  <SCORE.INTRA>
-5.81182

>  <SCORE.INTRA.DIHEDRAL>
-8.69276

>  <SCORE.INTRA.DIHEDRAL.0>
11.9251

>  <SCORE.INTRA.POLAR>
0

>  <SCORE.INTRA.POLAR.0>
0

>  <SCORE.INTRA.REPUL>
0

>  <SCORE.INTRA.REPUL.0>
0

>  <SCORE.INTRA.SOLV>
1.02932

>  <SCORE.INTRA.SOLV.lig_0>
-40.9823

>  <SCORE.INTRA.VDW>
-1.9801

>  <SCORE.INTRA.VDW.0>
-0.53506

>  <SCORE.INTRA.norm>
-0.264174

>  <SCORE.RESTR>
0

>  <SCORE.RESTR.CAVITY>
0

>  <SCORE.RESTR.norm>
0

>  <SCORE.SYSTEM>
0

>  <SCORE.SYSTEM.CONST>
0

>  <SCORE.SYSTEM.DIHEDRAL>
0

>  <SCORE.SYSTEM.SOLV>
0

>  <SCORE.SYSTEM.norm>
0

>  <SCORE.heavy>
22

>  <SCORE.norm>
-0.701011

>  <RMSD>
6.476

$$$$
lig.pdb
 OpenBabel11021811523D
libRbt.so/2013.1/901 2013/11/27
 22 23  0  0  0  0  0  0  0  0999 V2000
   60.0383  -12.2896   10.1619 O   0  0  0  0  0  0  0  0  0  0  0  0
   61.0734  -12.9017   10.2809 C   0  0  0  0  0  0  0  0  0  0  0  0
   61.1507  -14.2004   10.0503 N   0  0  0  0  0  0  0  0  0  0  0  0
   62.2892  -12.2131   10.7370 C   0  0  0  0  0  0  0  0  0  0  0  0
   62.3692  -10.7930   11.0866 C   0  0  0  0  0  0  0  0  0  0  0  0
   61.3500   -9.9096   11.0230 N   0  0  0  0  0  0  0  0  0  0  0  0
   63.5348  -12.6746   10.9316 N   0  0  0  0  0  0  0  0  0  0  0  0
   64.3089  -11.6499   11.3850 C   0  0  0  0  0  0  0  0  0  0  0  0
   63.6011  -10.4995   11.4875 N   0  0  0  0  0  0  0  0  0  0  0  0
   64.1324   -9.1879   11.9486 C   0  0  1  0  0  0  0  0  0  0  0  0
   65.6233   -9.1345   11.6944 C   0  0  1  0  0  0  0  0  0  0  0  0
   65.8618   -7.7146   11.2500 C   0  0  2  0  0  0  0  0  0  0  0  0
   66.1631   -6.8943   12.3859 O   0  0  0  0  0  0  0  0  0  0  0  0
   66.3619   -9.4664   12.8805 O   0  0  0  0  0  0  0  0  0  0  0  0
   63.5647   -8.1281   11.1829 O   0  0  0  0  0  0  0  0  0  0  0  0
   64.5479   -7.2635   10.6666 C   0  0  2  0  0  0  0  0  0  0  0  0
   64.4261   -7.3449    9.1590 C   0  0  0  0  0  0  0  0  0  0  0  0
   63.2313   -6.7480    8.6984 O   0  0  0  0  0  0  0  0  0  0  0  0
   63.0917   -6.4221    7.1406 P   0  0  0  0  0  0  0  0  0  0  0  0
   63.8654   -7.5202    6.4389 O   0  0  0  0  0  0  0  0  0  0  0  0
   63.7069   -5.0497    7.0470 O   0  0  0  0  0  0  0  0  0  0  0  0
   61.6042   -6.3987    6.9224 O   0  0  0  0  0  0  0  0  0  0  0  0
  2  1  2  0  0  0  0
  2  4  1  0  0  0  0
  3  2  1  0  0  0  0
  4  7  1  0  0  0  0
  4  5  2  0  0  0  0
  5  6  1  0  0  0  0
  5  9  1  0  0  0  0
  7  8  2  0  0  0  0
  8  9  1  0  0  0  0
 10  9  1  6  0  0  0
 10 15  1  0  0  0  0
 11 14  1  1  0  0  0
 11 12  1  0  0  0  0
 11 10  1  0  0  0  0
 12 13  1  1  0  0  0
 12 16  1  0  0  0  0
 16 17  1  6  0  0  0
 16 15  1  0  0  0  0
 18 19  1  0  0  0  0
 18 17  1  0  0  0  0
 19 21  1  0  0  0  0
 20 19  1  0  0  0  0
 22 19  2  0  0  0  0
M  END
>  <CHROM.1>
0.48911967,-153.99165380,-172.63025713,33.09619595,165.41076778,63.44344142
-9.02803866,9.98707197,1.83599313,0.73310587,2.48234549

>  <Name>
lig.pdb

>  <RI>
0

>  <Rbt.Current_Directory>
/home/itssahil/PROJECTS/Mol_Feturizer/New_Systems/rnas/4znp

>  <Rbt.Executable>
rbdock ($Id: //depot/dev/client3/rdock/2013.1/src/exe/rbdock.cxx#4 $)

>  <Rbt.Library>
libRbt.so (2013.1, Build901 2013/11/27)

>  <Rbt.Parameter_File>
/export/apps/rDock/src/rDock_2013.1_src/data/scripts/dock_solv.prm

>  <Rbt.Receptor>
prm/pocket_docking_8.prm

>  <SCORE>
-12.9776

>  <SCORE.INTER>
-8.90478

>  <SCORE.INTER.CONST>
1

>  <SCORE.INTER.POLAR>
0

>  <SCORE.INTER.ROT>
5

>  <SCORE.INTER.SOLV>
13.7672

>  <SCORE.INTER.VDW>
-17.4589

>  <SCORE.INTER.norm>
-0.404763

>  <SCORE.INTRA>
-4.07285

>  <SCORE.INTRA.DIHEDRAL>
-7.39332

>  <SCORE.INTRA.DIHEDRAL.0>
11.9251

>  <SCORE.INTRA.POLAR>
0

>  <SCORE.INTRA.POLAR.0>
0

>  <SCORE.INTRA.REPUL>
0

>  <SCORE.INTRA.REPUL.0>
0

>  <SCORE.INTRA.SOLV>
-0.0276646

>  <SCORE.INTRA.SOLV.lig_0>
-40.9823

>  <SCORE.INTRA.VDW>
-0.362354

>  <SCORE.INTRA.VDW.0>
-0.53506

>  <SCORE.INTRA.norm>
-0.185129

>  <SCORE.RESTR>
0

>  <SCORE.RESTR.CAVITY>
0

>  <SCORE.RESTR.norm>
0

>  <SCORE.SYSTEM>
0

>  <SCORE.SYSTEM.CONST>
0

>  <SCORE.SYSTEM.DIHEDRAL>
0

>  <SCORE.SYSTEM.SOLV>
0

>  <SCORE.SYSTEM.norm>
0

>  <SCORE.heavy>
22

>  <SCORE.norm>
-0.589892

>  <RMSD>
6.494

$$$$
lig.pdb
 OpenBabel11021811523D
libRbt.so/2013.1/901 2013/11/27
 22 23  0  0  0  0  0  0  0  0999 V2000
   58.1261   -7.9424   11.9560 O   0  0  0  0  0  0  0  0  0  0  0  0
   58.5725   -9.0646   11.9993 C   0  0  0  0  0  0  0  0  0  0  0  0
   58.4267   -9.8368   13.0615 N   0  0  0  0  0  0  0  0  0  0  0  0
   59.3428   -9.5962   10.8661 C   0  0  0  0  0  0  0  0  0  0  0  0
   59.8390  -10.9701   10.7583 C   0  0  0  0  0  0  0  0  0  0  0  0
   59.6799  -11.9379   11.6864 N   0  0  0  0  0  0  0  0  0  0  0  0
   59.7547   -9.0037    9.7340 N   0  0  0  0  0  0  0  0  0  0  0  0
   60.4180   -9.9248    8.9814 C   0  0  0  0  0  0  0  0  0  0  0  0
   60.4676  -11.1293    9.5991 N   0  0  0  0  0  0  0  0  0  0  0  0
   61.1146  -12.3576    9.0625 C   0  0  1  0  0  0  0  0  0  0  0  0
   62.0461  -12.9304   10.1085 C   0  0  1  0  0  0  0  0  0  0  0  0
   61.8645  -14.4202    9.9748 C   0  0  2  0  0  0  0  0  0  0  0  0
   62.8145  -14.9432    9.0377 O   0  0  0  0  0  0  0  0  0  0  0  0
   63.4026  -12.5227    9.8714 O   0  0  0  0  0  0  0  0  0  0  0  0
   60.1357  -13.3635    8.8144 O   0  0  0  0  0  0  0  0  0  0  0  0
   60.4811  -14.5939    9.4040 C   0  0  2  0  0  0  0  0  0  0  0  0
   59.3834  -14.9022   10.4012 C   0  0  0  0  0  0  0  0  0  0  0  0
   59.0624  -16.2780   10.4162 O   0  0  0  0  0  0  0  0  0  0  0  0
   58.7002  -16.9927    9.0340 P   0  0  0  0  0  0  0  0  0  0  0  0
   60.0137  -17.5517    8.5250 O   0  0  0  0  0  0  0  0  0  0  0  0
   58.1369  -15.8528    8.2252 O   0  0  0  0  0  0  0  0  0  0  0  0
   57.6472  -17.9922    9.4252 O   0  0  0  0  0  0  0  0  0  0  0  0
  2  1  2  0  0  0  0
  2  4  1  0  0  0  0
  3  2  1  0  0  0  0
  4  7  1  0  0  0  0
  4  5  2  0  0  0  0
  5  6  1  0  0  0  0
  5  9  1  0  0  0  0
  7  8  2  0  0  0  0
  8  9  1  0  0  0  0
 10  9  1  1  0  0  0
 10 15  1  0  0  0  0
 11 14  1  6  0  0  0
 11 12  1  0  0  0  0
 11 10  1  0  0  0  0
 12 13  1  6  0  0  0
 12 16  1  0  0  0  0
 16 17  1  1  0  0  0
 16 15  1  0  0  0  0
 18 19  1  0  0  0  0
 18 17  1  0  0  0  0
 19 21  1  0  0  0  0
 20 19  1  0  0  0  0
 22 19  2  0  0  0  0
M  END
>  <CHROM.1>
-174.83578568,-50.48968684,-100.65829395,92.35801859,-53.01746789,59.90084245
-13.25907910,9.95332356,1.55281351,0.29827684,0.27457536

>  <Name>
lig.pdb

>  <RI>
0

>  <Rbt.Current_Directory>
/home/itssahil/PROJECTS/Mol_Feturizer/New_Systems/rnas/4znp

>  <Rbt.Executable>
rbdock ($Id: //depot/dev/client3/rdock/2013.1/src/exe/rbdock.cxx#4 $)

>  <Rbt.Library>
libRbt.so (2013.1, Build901 2013/11/27)

>  <Rbt.Parameter_File>
/export/apps/rDock/src/rDock_2013.1_src/data/scripts/dock_solv.prm

>  <Rbt.Receptor>
prm/pocket_docking_2.prm

>  <SCORE>
-6.94468

>  <SCORE.INTER>
-5.39884

>  <SCORE.INTER.CONST>
1

>  <SCORE.INTER.POLAR>
0

>  <SCORE.INTER.ROT>
5

>  <SCORE.INTER.SOLV>
16.0639

>  <SCORE.INTER.VDW>
-15.8872

>  <SCORE.INTER.norm>
-0.245402

>  <SCORE.INTRA>
-1.55684

>  <SCORE.INTRA.DIHEDRAL>
-3.7282

>  <SCORE.INTRA.DIHEDRAL.0>
11.9251

>  <SCORE.INTRA.POLAR>
0

>  <SCORE.INTRA.POLAR.0>
0

>  <SCORE.INTRA.REPUL>
0

>  <SCORE.INTRA.REPUL.0>
0

>  <SCORE.INTRA.SOLV>
2.11798

>  <SCORE.INTRA.SOLV.lig_0>
-40.9823

>  <SCORE.INTRA.VDW>
-0.751724

>  <SCORE.INTRA.VDW.0>
-0.53506

>  <SCORE.INTRA.norm>
-0.0707652

>  <SCORE.RESTR>
0.0109869

>  <SCORE.RESTR.CAVITY>
0.0109869

>  <SCORE.RESTR.norm>
0.000499407

>  <SCORE.SYSTEM>
0

>  <SCORE.SYSTEM.CONST>
0

>  <SCORE.SYSTEM.DIHEDRAL>
0

>  <SCORE.SYSTEM.SOLV>
0

>  <SCORE.SYSTEM.norm>
0

>  <SCORE.heavy>
22

>  <SCORE.norm>
-0.315667

>  <RMSD>
6.495

$$$$
lig.pdb
 OpenBabel11021811523D
libRbt.so/2013.1/901 2013/11/27
 22 23  0  0  0  0  0  0  0  0999 V2000
   58.0437  -10.5719   13.6003 O   0  0  0  0  0  0  0  0  0  0  0  0
   58.2170   -9.6387   12.8522 C   0  0  0  0  0  0  0  0  0  0  0  0
   57.7051   -8.4442   13.0906 N   0  0  0  0  0  0  0  0  0  0  0  0
   58.9807   -9.8215   11.6097 C   0  0  0  0  0  0  0  0  0  0  0  0
   59.6204  -11.0715   11.1931 C   0  0  0  0  0  0  0  0  0  0  0  0
   59.6194  -12.2260   11.8934 N   0  0  0  0  0  0  0  0  0  0  0  0
   59.2635   -8.9574   10.6219 N   0  0  0  0  0  0  0  0  0  0  0  0
   59.9844   -9.6115    9.6695 C   0  0  0  0  0  0  0  0  0  0  0  0
   60.2005  -10.9047   10.0099 N   0  0  0  0  0  0  0  0  0  0  0  0
   60.9509  -11.9045    9.2021 C   0  0  1  0  0  0  0  0  0  0  0  0
   62.1124  -12.4344   10.0147 C   0  0  1  0  0  0  0  0  0  0  0  0
   62.1596  -13.8986    9.6621 C   0  0  2  0  0  0  0  0  0  0  0  0
   63.0284  -14.1003    8.5403 O   0  0  0  0  0  0  0  0  0  0  0  0
   63.3312  -11.7529    9.6794 O   0  0  0  0  0  0  0  0  0  0  0  0
   60.1243  -13.0302    8.9171 O   0  0  0  0  0  0  0  0  0  0  0  0
   60.7529  -14.2450    9.2487 C   0  0  2  0  0  0  0  0  0  0  0  0
   59.8858  -14.8877   10.3115 C   0  0  0  0  0  0  0  0  0  0  0  0
   59.0978  -15.9334    9.7809 O   0  0  0  0  0  0  0  0  0  0  0  0
   59.8089  -17.3181    9.4208 P   0  0  0  0  0  0  0  0  0  0  0  0
   61.1562  -16.9296    8.8458 O   0  0  0  0  0  0  0  0  0  0  0  0
   58.8449  -17.9225    8.4328 O   0  0  0  0  0  0  0  0  0  0  0  0
   59.8211  -18.0538   10.7321 O   0  0  0  0  0  0  0  0  0  0  0  0
  2  1  2  0  0  0  0
  2  4  1  0  0  0  0
  3  2  1  0  0  0  0
  4  7  1  0  0  0  0
  4  5  2  0  0  0  0
  5  6  1  0  0  0  0
  5  9  1  0  0  0  0
  7  8  2  0  0  0  0
  8  9  1  0  0  0  0
 10  9  1  1  0  0  0
 10 15  1  0  0  0  0
 11 14  1  6  0  0  0
 11 12  1  0  0  0  0
 11 10  1  0  0  0  0
 12 13  1  6  0  0  0
 12 16  1  0  0  0  0
 16 17  1  1  0  0  0
 16 15  1  0  0  0  0
 18 19  1  0  0  0  0
 18 17  1  0  0  0  0
 19 21  1  0  0  0  0
 20 19  1  0  0  0  0
 22 19  2  0  0  0  0
M  END
>  <CHROM.1>
-2.30632818,-58.06528449,-139.16847868,-38.18442380,74.21809134,60.12731626
-13.26886205,10.24469652,1.74767638,0.59410717,0.22990688

>  <Name>
lig.pdb

>  <RI>
0

>  <Rbt.Current_Directory>
/home/itssahil/PROJECTS/Mol_Feturizer/New_Systems/rnas/4znp

>  <Rbt.Executable>
rbdock ($Id: //depot/dev/client3/rdock/2013.1/src/exe/rbdock.cxx#4 $)

>  <Rbt.Library>
libRbt.so (2013.1, Build901 2013/11/27)

>  <Rbt.Parameter_File>
/export/apps/rDock/src/rDock_2013.1_src/data/scripts/dock_solv.prm

>  <Rbt.Receptor>
prm/pocket_docking_3.prm

>  <SCORE>
-14.0098

>  <SCORE.INTER>
-11.9318

>  <SCORE.INTER.CONST>
1

>  <SCORE.INTER.POLAR>
0

>  <SCORE.INTER.ROT>
5

>  <SCORE.INTER.SOLV>
17.0749

>  <SCORE.INTER.VDW>
-20.5795

>  <SCORE.INTER.norm>
-0.542356

>  <SCORE.INTRA>
-2.47082

>  <SCORE.INTRA.DIHEDRAL>
-3.77577

>  <SCORE.INTRA.DIHEDRAL.0>
11.9251

>  <SCORE.INTRA.POLAR>
0

>  <SCORE.INTRA.POLAR.0>
0

>  <SCORE.INTRA.REPUL>
0

>  <SCORE.INTRA.REPUL.0>
0

>  <SCORE.INTRA.SOLV>
1.77116

>  <SCORE.INTRA.SOLV.lig_0>
-40.9823

>  <SCORE.INTRA.VDW>
-1.46852

>  <SCORE.INTRA.VDW.0>
-0.53506

>  <SCORE.INTRA.norm>
-0.11231

>  <SCORE.RESTR>
0.392832

>  <SCORE.RESTR.CAVITY>
0.392832

>  <SCORE.RESTR.norm>
0.017856

>  <SCORE.SYSTEM>
0

>  <SCORE.SYSTEM.CONST>
0

>  <SCORE.SYSTEM.DIHEDRAL>
0

>  <SCORE.SYSTEM.SOLV>
0

>  <SCORE.SYSTEM.norm>
0

>  <SCORE.heavy>
22

>  <SCORE.norm>
-0.63681

>  <RMSD>
6.501

$$$$
lig.pdb
 OpenBabel11021811523D
libRbt.so/2013.1/901 2013/11/27
 22 23  0  0  0  0  0  0  0  0999 V2000
   61.7750  -12.7619    7.6898 O   0  0  0  0  0  0  0  0  0  0  0  0
   62.2473  -13.2594    8.6847 C   0  0  0  0  0  0  0  0  0  0  0  0
   62.2484  -14.5657    8.8830 N   0  0  0  0  0  0  0  0  0  0  0  0
   62.8054  -12.4052    9.7426 C   0  0  0  0  0  0  0  0  0  0  0  0
   62.9135  -10.9461    9.6746 C   0  0  0  0  0  0  0  0  0  0  0  0
   62.5374  -10.1783    8.6294 N   0  0  0  0  0  0  0  0  0  0  0  0
   63.3175  -12.7213   10.9428 N   0  0  0  0  0  0  0  0  0  0  0  0
   63.6830  -11.5706   11.5728 C   0  0  0  0  0  0  0  0  0  0  0  0
   63.4332  -10.4825   10.8056 N   0  0  0  0  0  0  0  0  0  0  0  0
   63.7093   -9.0692   11.1820 C   0  0  1  0  0  0  0  0  0  0  0  0
   65.2050   -8.8399   11.2030 C   0  0  1  0  0  0  0  0  0  0  0  0
   65.3648   -7.4559   10.6291 C   0  0  2  0  0  0  0  0  0  0  0  0
   65.3380   -6.4864   11.6843 O   0  0  0  0  0  0  0  0  0  0  0  0
   65.7245   -8.9403   12.5381 O   0  0  0  0  0  0  0  0  0  0  0  0
   63.1895   -8.1840   10.1931 O   0  0  0  0  0  0  0  0  0  0  0  0
   64.1515   -7.2528    9.7592 C   0  0  2  0  0  0  0  0  0  0  0  0
   64.3434   -7.5093    8.2788 C   0  0  0  0  0  0  0  0  0  0  0  0
   64.4444   -6.3041    7.5485 O   0  0  0  0  0  0  0  0  0  0  0  0
   63.1352   -5.4051    7.3738 P   0  0  0  0  0  0  0  0  0  0  0  0
   63.5735   -4.2361    6.5147 O   0  0  0  0  0  0  0  0  0  0  0  0
   62.7973   -5.0559    8.8002 O   0  0  0  0  0  0  0  0  0  0  0  0
   62.1404   -6.3545    6.7658 O   0  0  0  0  0  0  0  0  0  0  0  0
  2  1  2  0  0  0  0
  2  4  1  0  0  0  0
  3  2  1  0  0  0  0
  4  7  1  0  0  0  0
  4  5  2  0  0  0  0
  5  6  1  0  0  0  0
  5  9  1  0  0  0  0
  7  8  2  0  0  0  0
  8  9  1  0  0  0  0
 10  9  1  6  0  0  0
 10 15  1  0  0  0  0
 11 14  1  1  0  0  0
 11 12  1  0  0  0  0
 11 10  1  0  0  0  0
 12 13  1  1  0  0  0
 12 16  1  0  0  0  0
 16 17  1  6  0  0  0
 16 15  1  0  0  0  0
 18 19  1  0  0  0  0
 18 17  1  0  0  0  0
 19 21  1  0  0  0  0
 20 19  1  0  0  0  0
 22 19  2  0  0  0  0
M  END
>  <CHROM.1>
-3.55070136,-109.43450883,-103.39627870,-178.02611363,-70.75607314,63.53447141
-8.76111284,9.35091152,1.76613399,1.01273164,2.72115093

>  <Name>
lig.pdb

>  <RI>
0

>  <Rbt.Current_Directory>
/home/itssahil/PROJECTS/Mol_Feturizer/New_Systems/rnas/4znp

>  <Rbt.Executable>
rbdock ($Id: //depot/dev/client3/rdock/2013.1/src/exe/rbdock.cxx#4 $)

>  <Rbt.Library>
libRbt.so (2013.1, Build901 2013/11/27)

>  <Rbt.Parameter_File>
/export/apps/rDock/src/rDock_2013.1_src/data/scripts/dock_solv.prm

>  <Rbt.Receptor>
prm/pocket_docking_7.prm

>  <SCORE>
-15.5457

>  <SCORE.INTER>
-13.0665

>  <SCORE.INTER.CONST>
1

>  <SCORE.INTER.POLAR>
0

>  <SCORE.INTER.ROT>
5

>  <SCORE.INTER.SOLV>
16.8991

>  <SCORE.INTER.VDW>
-21.2773

>  <SCORE.INTER.norm>
-0.59393

>  <SCORE.INTRA>
-2.47922

>  <SCORE.INTRA.DIHEDRAL>
-4.56197

>  <SCORE.INTRA.DIHEDRAL.0>
11.9251

>  <SCORE.INTRA.POLAR>
0

>  <SCORE.INTRA.POLAR.0>
0

>  <SCORE.INTRA.REPUL>
0

>  <SCORE.INTRA.REPUL.0>
0

>  <SCORE.INTRA.SOLV>
1.7976

>  <SCORE.INTRA.SOLV.lig_0>
-40.9823

>  <SCORE.INTRA.VDW>
-1.09703

>  <SCORE.INTRA.VDW.0>
-0.53506

>  <SCORE.INTRA.norm>
-0.112692

>  <SCORE.RESTR>
0

>  <SCORE.RESTR.CAVITY>
0

>  <SCORE.RESTR.norm>
0

>  <SCORE.SYSTEM>
0

>  <SCORE.SYSTEM.CONST>
0

>  <SCORE.SYSTEM.DIHEDRAL>
0

>  <SCORE.SYSTEM.SOLV>
0

>  <SCORE.SYSTEM.norm>
0

>  <SCORE.heavy>
22

>  <SCORE.norm>
-0.706622

>  <RMSD>
6.504

$$$$
lig.pdb
 OpenBabel11021811523D
libRbt.so/2013.1/901 2013/11/27
 22 23  0  0  0  0  0  0  0  0999 V2000
   57.1227   -9.9295   13.6883 O   0  0  0  0  0  0  0  0  0  0  0  0
   57.3614   -9.0187   12.9307 C   0  0  0  0  0  0  0  0  0  0  0  0
   56.7708   -7.8419   13.0406 N   0  0  0  0  0  0  0  0  0  0  0  0
   58.3012   -9.2126   11.8174 C   0  0  0  0  0  0  0  0  0  0  0  0
   59.0385  -10.4487   11.5460 C   0  0  0  0  0  0  0  0  0  0  0  0
   58.9788  -11.5774   12.2848 N   0  0  0  0  0  0  0  0  0  0  0  0
   58.6913   -8.3721   10.8459 N   0  0  0  0  0  0  0  0  0  0  0  0
   59.5643   -9.0283   10.0322 C   0  0  0  0  0  0  0  0  0  0  0  0
   59.7757  -10.2990   10.4514 N   0  0  0  0  0  0  0  0  0  0  0  0
   60.6696  -11.2942    9.7988 C   0  0  1  0  0  0  0  0  0  0  0  0
   61.5072  -11.9827   10.8545 C   0  0  1  0  0  0  0  0  0  0  0  0
   61.5688  -13.4140   10.3877 C   0  0  2  0  0  0  0  0  0  0  0  0
   62.7154  -13.6024    9.5488 O   0  0  0  0  0  0  0  0  0  0  0  0
   62.8090  -11.3843   10.9527 O   0  0  0  0  0  0  0  0  0  0  0  0
   59.8979  -12.3196    9.1786 O   0  0  0  0  0  0  0  0  0  0  0  0
   60.3278  -13.6057    9.5552 C   0  0  2  0  0  0  0  0  0  0  0  0
   59.1499  -14.2517   10.2551 C   0  0  0  0  0  0  0  0  0  0  0  0
   59.4608  -15.5535   10.7075 O   0  0  0  0  0  0  0  0  0  0  0  0
   59.6988  -16.7022    9.6229 P   0  0  0  0  0  0  0  0  0  0  0  0
   58.5193  -16.5993    8.6768 O   0  0  0  0  0  0  0  0  0  0  0  0
   59.7246  -17.9440   10.4761 O   0  0  0  0  0  0  0  0  0  0  0  0
   61.0508  -16.3694    9.0553 O   0  0  0  0  0  0  0  0  0  0  0  0
  2  1  2  0  0  0  0
  2  4  1  0  0  0  0
  3  2  1  0  0  0  0
  4  7  1  0  0  0  0
  4  5  2  0  0  0  0
  5  6  1  0  0  0  0
  5  9  1  0  0  0  0
  7  8  2  0  0  0  0
  8  9  1  0  0  0  0
 10  9  1  1  0  0  0
 10 15  1  0  0  0  0
 11 14  1  6  0  0  0
 11 12  1  0  0  0  0
 11 10  1  0  0  0  0
 12 13  1  6  0  0  0
 12 16  1  0  0  0  0
 16 17  1  1  0  0  0
 16 15  1  0  0  0  0
 18 19  1  0  0  0  0
 18 17  1  0  0  0  0
 19 21  1  0  0  0  0
 20 19  1  0  0  0  0
 22 19  2  0  0  0  0
M  END
>  <CHROM.1>
-1.84486429,-45.00497322,-61.09108991,-48.92167819,-68.46090085,59.70397001
-12.68135817,10.62088732,1.82617548,0.42836095,0.21413232

>  <Name>
lig.pdb

>  <RI>
0

>  <Rbt.Current_Directory>
/home/itssahil/PROJECTS/Mol_Feturizer/New_Systems/rnas/4znp

>  <Rbt.Executable>
rbdock ($Id: //depot/dev/client3/rdock/2013.1/src/exe/rbdock.cxx#4 $)

>  <Rbt.Library>
libRbt.so (2013.1, Build901 2013/11/27)

>  <Rbt.Parameter_File>
/export/apps/rDock/src/rDock_2013.1_src/data/scripts/dock_solv.prm

>  <Rbt.Receptor>
prm/pocket_docking_8.prm

>  <SCORE>
-16.2045

>  <SCORE.INTER>
-11.3591

>  <SCORE.INTER.CONST>
1

>  <SCORE.INTER.POLAR>
0

>  <SCORE.INTER.ROT>
5

>  <SCORE.INTER.SOLV>
13.0945

>  <SCORE.INTER.VDW>
-18.8709

>  <SCORE.INTER.norm>
-0.516321

>  <SCORE.INTRA>
-4.93534

>  <SCORE.INTRA.DIHEDRAL>
-8.954

>  <SCORE.INTRA.DIHEDRAL.0>
11.9251

>  <SCORE.INTRA.POLAR>
0

>  <SCORE.INTRA.POLAR.0>
0

>  <SCORE.INTRA.REPUL>
0

>  <SCORE.INTRA.REPUL.0>
0

>  <SCORE.INTRA.SOLV>
2.78847

>  <SCORE.INTRA.SOLV.lig_0>
-40.9823

>  <SCORE.INTRA.VDW>
-1.85258

>  <SCORE.INTRA.VDW.0>
-0.53506

>  <SCORE.INTRA.norm>
-0.224334

>  <SCORE.RESTR>
0.0899464

>  <SCORE.RESTR.CAVITY>
0.0899464

>  <SCORE.RESTR.norm>
0.00408847

>  <SCORE.SYSTEM>
0

>  <SCORE.SYSTEM.CONST>
0

>  <SCORE.SYSTEM.DIHEDRAL>
0

>  <SCORE.SYSTEM.SOLV>
0

>  <SCORE.SYSTEM.norm>
0

>  <SCORE.heavy>
22

>  <SCORE.norm>
-0.736566

>  <RMSD>
6.544

$$$$
lig.pdb
 OpenBabel11021811523D
libRbt.so/2013.1/901 2013/11/27
 22 23  0  0  0  0  0  0  0  0999 V2000
   58.4998  -11.2900   14.6772 O   0  0  0  0  0  0  0  0  0  0  0  0
   59.0663  -10.2499   14.4371 C   0  0  0  0  0  0  0  0  0  0  0  0
   58.9302   -9.1836   15.2053 N   0  0  0  0  0  0  0  0  0  0  0  0
   59.9043  -10.1268   13.2359 C   0  0  0  0  0  0  0  0  0  0  0  0
   60.1741  -11.2080   12.2854 C   0  0  0  0  0  0  0  0  0  0  0  0
   59.7120  -12.4731   12.3826 N   0  0  0  0  0  0  0  0  0  0  0  0
   60.5816   -9.0762   12.7460 N   0  0  0  0  0  0  0  0  0  0  0  0
   61.1906   -9.4568   11.5889 C   0  0  0  0  0  0  0  0  0  0  0  0
   60.9405  -10.7562   11.2992 N   0  0  0  0  0  0  0  0  0  0  0  0
   61.4486  -11.4976   10.1128 C   0  0  1  0  0  0  0  0  0  0  0  0
   62.1920  -12.7322   10.5747 C   0  0  1  0  0  0  0  0  0  0  0  0
   61.8100  -13.7815    9.5631 C   0  0  2  0  0  0  0  0  0  0  0  0
   62.7536  -13.7825    8.4844 O   0  0  0  0  0  0  0  0  0  0  0  0
   63.6086  -12.4991   10.6107 O   0  0  0  0  0  0  0  0  0  0  0  0
   60.3606  -11.9671    9.3205 O   0  0  0  0  0  0  0  0  0  0  0  0
   60.4718  -13.3397    9.0304 C   0  0  2  0  0  0  0  0  0  0  0  0
   59.2575  -13.9979    9.6523 C   0  0  0  0  0  0  0  0  0  0  0  0
   58.9307  -15.2100    9.0041 O   0  0  0  0  0  0  0  0  0  0  0  0
   59.6764  -16.5464    9.4627 P   0  0  0  0  0  0  0  0  0  0  0  0
   59.5413  -16.5732   10.9720 O   0  0  0  0  0  0  0  0  0  0  0  0
   61.0761  -16.3200    8.9523 O   0  0  0  0  0  0  0  0  0  0  0  0
   58.9568  -17.6247    8.7010 O   0  0  0  0  0  0  0  0  0  0  0  0
  2  1  2  0  0  0  0
  2  4  1  0  0  0  0
  3  2  1  0  0  0  0
  4  7  1  0  0  0  0
  4  5  2  0  0  0  0
  5  6  1  0  0  0  0
  5  9  1  0  0  0  0
  7  8  2  0  0  0  0
  8  9  1  0  0  0  0
 10  9  1  1  0  0  0
 10 15  1  0  0  0  0
 11 14  1  6  0  0  0
 11 12  1  0  0  0  0
 11 10  1  0  0  0  0
 12 13  1  6  0  0  0
 12 16  1  0  0  0  0
 16 17  1  1  0  0  0
 16 15  1  0  0  0  0
 18 19  1  0  0  0  0
 18 17  1  0  0  0  0
 19 21  1  0  0  0  0
 20 19  1  0  0  0  0
 22 19  2  0  0  0  0
M  END
>  <CHROM.1>
-2.64512055,-54.94902481,-86.81592920,50.03492293,85.10869493,60.37508259
-13.04010195,10.85994202,1.60286671,0.68038845,0.59275742

>  <Name>
lig.pdb

>  <RI>
0

>  <Rbt.Current_Directory>
/home/itssahil/PROJECTS/Mol_Feturizer/New_Systems/rnas/4znp

>  <Rbt.Executable>
rbdock ($Id: //depot/dev/client3/rdock/2013.1/src/exe/rbdock.cxx#4 $)

>  <Rbt.Library>
libRbt.so (2013.1, Build901 2013/11/27)

>  <Rbt.Parameter_File>
/export/apps/rDock/src/rDock_2013.1_src/data/scripts/dock_solv.prm

>  <Rbt.Receptor>
prm/pocket_docking_4.prm

>  <SCORE>
-12.7682

>  <SCORE.INTER>
-9.58773

>  <SCORE.INTER.CONST>
1

>  <SCORE.INTER.POLAR>
0

>  <SCORE.INTER.ROT>
5

>  <SCORE.INTER.SOLV>
15.0299

>  <SCORE.INTER.VDW>
-18.3351

>  <SCORE.INTER.norm>
-0.435806

>  <SCORE.INTRA>
-3.1857

>  <SCORE.INTRA.DIHEDRAL>
-4.4788

>  <SCORE.INTRA.DIHEDRAL.0>
11.9251

>  <SCORE.INTRA.POLAR>
0

>  <SCORE.INTRA.POLAR.0>
0

>  <SCORE.INTRA.REPUL>
0

>  <SCORE.INTRA.REPUL.0>
0

>  <SCORE.INTRA.SOLV>
1.9317

>  <SCORE.INTRA.SOLV.lig_0>
-40.9823

>  <SCORE.INTRA.VDW>
-1.91215

>  <SCORE.INTRA.VDW.0>
-0.53506

>  <SCORE.INTRA.norm>
-0.144804

>  <SCORE.RESTR>
0.0052642

>  <SCORE.RESTR.CAVITY>
0.0052642

>  <SCORE.RESTR.norm>
0.000239282

>  <SCORE.SYSTEM>
0

>  <SCORE.SYSTEM.CONST>
0

>  <SCORE.SYSTEM.DIHEDRAL>
0

>  <SCORE.SYSTEM.SOLV>
0

>  <SCORE.SYSTEM.norm>
0

>  <SCORE.heavy>
22

>  <SCORE.norm>
-0.580371

>  <RMSD>
6.547

$$$$
lig.pdb
 OpenBabel11021811523D
libRbt.so/2013.1/901 2013/11/27
 22 23  0  0  0  0  0  0  0  0999 V2000
   61.8648  -12.2597    7.5628 O   0  0  0  0  0  0  0  0  0  0  0  0
   62.3816  -12.8756    8.4651 C   0  0  0  0  0  0  0  0  0  0  0  0
   62.4557  -14.1948    8.4615 N   0  0  0  0  0  0  0  0  0  0  0  0
   62.9134  -12.1625    9.6350 C   0  0  0  0  0  0  0  0  0  0  0  0
   62.9158  -10.7074    9.8023 C   0  0  0  0  0  0  0  0  0  0  0  0
   62.4510   -9.8125    8.9043 N   0  0  0  0  0  0  0  0  0  0  0  0
   63.4871  -12.6275   10.7563 N   0  0  0  0  0  0  0  0  0  0  0  0
   63.7915  -11.5684   11.5566 C   0  0  0  0  0  0  0  0  0  0  0  0
   63.4394  -10.3933   10.9819 N   0  0  0  0  0  0  0  0  0  0  0  0
   63.6276   -9.0419   11.5765 C   0  0  1  0  0  0  0  0  0  0  0  0
   64.9194   -8.4443   11.0625 C   0  0  1  0  0  0  0  0  0  0  0  0
   64.5868   -6.9887   10.8601 C   0  0  2  0  0  0  0  0  0  0  0  0
   64.8798   -6.2528   12.0545 O   0  0  0  0  0  0  0  0  0  0  0  0
   65.9872   -8.6341   12.0039 O   0  0  0  0  0  0  0  0  0  0  0  0
   62.5898   -8.1643   11.1469 O   0  0  0  0  0  0  0  0  0  0  0  0
   63.0981   -6.9580   10.6299 C   0  0  2  0  0  0  0  0  0  0  0  0
   62.6491   -6.9008    9.1844 C   0  0  0  0  0  0  0  0  0  0  0  0
   63.1262   -5.7405    8.5346 O   0  0  0  0  0  0  0  0  0  0  0  0
   62.7244   -5.5010    7.0069 P   0  0  0  0  0  0  0  0  0  0  0  0
   63.1363   -6.7706    6.2890 O   0  0  0  0  0  0  0  0  0  0  0  0
   63.5323   -4.2789    6.6540 O   0  0  0  0  0  0  0  0  0  0  0  0
   61.2504   -5.2124    7.0765 O   0  0  0  0  0  0  0  0  0  0  0  0
  2  1  2  0  0  0  0
  2  4  1  0  0  0  0
  3  2  1  0  0  0  0
  4  7  1  0  0  0  0
  4  5  2  0  0  0  0
  5  6  1  0  0  0  0
  5  9  1  0  0  0  0
  7  8  2  0  0  0  0
  8  9  1  0  0  0  0
 10  9  1  6  0  0  0
 10 15  1  0  0  0  0
 11 14  1  1  0  0  0
 11 12  1  0  0  0  0
 11 10  1  0  0  0  0
 12 13  1  1  0  0  0
 12 16  1  0  0  0  0
 16 17  1  6  0  0  0
 16 15  1  0  0  0  0
 18 19  1  0  0  0  0
 18 17  1  0  0  0  0
 19 21  1  0  0  0  0
 20 19  1  0  0  0  0
 22 19  2  0  0  0  0
M  END
>  <CHROM.1>
-2.12329032,-84.06958120,-60.64036932,-53.71329815,-178.84241003,63.23622469
-8.57803444,9.37388933,1.54423320,1.09763574,2.86308267

>  <Name>
lig.pdb

>  <RI>
0

>  <Rbt.Current_Directory>
/home/itssahil/PROJECTS/Mol_Feturizer/New_Systems/rnas/4znp

>  <Rbt.Executable>
rbdock ($Id: //depot/dev/client3/rdock/2013.1/src/exe/rbdock.cxx#4 $)

>  <Rbt.Library>
libRbt.so (2013.1, Build901 2013/11/27)

>  <Rbt.Parameter_File>
/export/apps/rDock/src/rDock_2013.1_src/data/scripts/dock_solv.prm

>  <Rbt.Receptor>
prm/pocket_docking_7.prm

>  <SCORE>
-16.6335

>  <SCORE.INTER>
-10.9101

>  <SCORE.INTER.CONST>
1

>  <SCORE.INTER.POLAR>
0

>  <SCORE.INTER.ROT>
5

>  <SCORE.INTER.SOLV>
15.1644

>  <SCORE.INTER.VDW>
-19.2616

>  <SCORE.INTER.norm>
-0.495916

>  <SCORE.INTRA>
-5.7234

>  <SCORE.INTRA.DIHEDRAL>
-9.37854

>  <SCORE.INTRA.DIHEDRAL.0>
11.9251

>  <SCORE.INTRA.POLAR>
0

>  <SCORE.INTRA.POLAR.0>
0

>  <SCORE.INTRA.REPUL>
0

>  <SCORE.INTRA.REPUL.0>
0

>  <SCORE.INTRA.SOLV>
1.15988

>  <SCORE.INTRA.SOLV.lig_0>
-40.9823

>  <SCORE.INTRA.VDW>
-1.61408

>  <SCORE.INTRA.VDW.0>
-0.53506

>  <SCORE.INTRA.norm>
-0.260155

>  <SCORE.RESTR>
0

>  <SCORE.RESTR.CAVITY>
0

>  <SCORE.RESTR.norm>
0

>  <SCORE.SYSTEM>
0

>  <SCORE.SYSTEM.CONST>
0

>  <SCORE.SYSTEM.DIHEDRAL>
0

>  <SCORE.SYSTEM.SOLV>
0

>  <SCORE.SYSTEM.norm>
0

>  <SCORE.heavy>
22

>  <SCORE.norm>
-0.75607

>  <RMSD>
6.559

$$$$
lig.pdb
 OpenBabel11021811523D
libRbt.so/2013.1/901 2013/11/27
 22 23  0  0  0  0  0  0  0  0999 V2000
   57.9109   -8.8066   13.0155 O   0  0  0  0  0  0  0  0  0  0  0  0
   58.3274   -9.1173   11.9245 C   0  0  0  0  0  0  0  0  0  0  0  0
   58.2575   -8.3004   10.8883 N   0  0  0  0  0  0  0  0  0  0  0  0
   58.8948  -10.4553   11.7052 C   0  0  0  0  0  0  0  0  0  0  0  0
   59.4995  -10.9165   10.4534 C   0  0  0  0  0  0  0  0  0  0  0  0
   59.6060  -10.1923    9.3187 N   0  0  0  0  0  0  0  0  0  0  0  0
   58.9933  -11.5094   12.5307 N   0  0  0  0  0  0  0  0  0  0  0  0
   59.6228  -12.5192   11.8683 C   0  0  0  0  0  0  0  0  0  0  0  0
   59.9398  -12.1610   10.6009 N   0  0  0  0  0  0  0  0  0  0  0  0
   60.6311  -13.0188    9.6002 C   0  0  1  0  0  0  0  0  0  0  0  0
   61.8223  -13.6873   10.2517 C   0  0  1  0  0  0  0  0  0  0  0  0
   61.8261  -15.0725    9.6590 C   0  0  2  0  0  0  0  0  0  0  0  0
   62.6340  -15.0922    8.4754 O   0  0  0  0  0  0  0  0  0  0  0  0
   63.0346  -12.9704    9.9710 O   0  0  0  0  0  0  0  0  0  0  0  0
   59.7716  -14.0737    9.1759 O   0  0  0  0  0  0  0  0  0  0  0  0
   60.3945  -15.3324    9.2678 C   0  0  2  0  0  0  0  0  0  0  0  0
   59.5705  -16.1354   10.2531 C   0  0  0  0  0  0  0  0  0  0  0  0
   58.2264  -16.2552    9.8346 O   0  0  0  0  0  0  0  0  0  0  0  0
   57.8830  -17.2711    8.6503 P   0  0  0  0  0  0  0  0  0  0  0  0
   59.2172  -17.8613    8.2401 O   0  0  0  0  0  0  0  0  0  0  0  0
   57.2465  -16.3643    7.6288 O   0  0  0  0  0  0  0  0  0  0  0  0
   56.8919  -18.2125    9.2766 O   0  0  0  0  0  0  0  0  0  0  0  0
  2  1  2  0  0  0  0
  2  4  1  0  0  0  0
  3  2  1  0  0  0  0
  4  7  1  0  0  0  0
  4  5  2  0  0  0  0
  5  6  1  0  0  0  0
  5  9  1  0  0  0  0
  7  8  2  0  0  0  0
  8  9  1  0  0  0  0
 10  9  1  1  0  0  0
 10 15  1  0  0  0  0
 11 14  1  6  0  0  0
 11 12  1  0  0  0  0
 11 10  1  0  0  0  0
 12 13  1  6  0  0  0
 12 16  1  0  0  0  0
 16 17  1  1  0  0  0
 16 15  1  0  0  0  0
 18 19  1  0  0  0  0
 18 17  1  0  0  0  0
 19 21  1  0  0  0  0
 20 19  1  0  0  0  0
 22 19  2  0  0  0  0
M  END
>  <CHROM.1>
-176.23259703,134.32465993,176.43293648,-1.31125118,75.46249138,59.45185861
-13.74729253,9.98746506,1.52229402,0.14213152,0.37461902

>  <Name>
lig.pdb

>  <RI>
0

>  <Rbt.Current_Directory>
/home/itssahil/PROJECTS/Mol_Feturizer/New_Systems/rnas/4znp

>  <Rbt.Executable>
rbdock ($Id: //depot/dev/client3/rdock/2013.1/src/exe/rbdock.cxx#4 $)

>  <Rbt.Library>
libRbt.so (2013.1, Build901 2013/11/27)

>  <Rbt.Parameter_File>
/export/apps/rDock/src/rDock_2013.1_src/data/scripts/dock_solv.prm

>  <Rbt.Receptor>
prm/pocket_docking_2.prm

>  <SCORE>
-10.148

>  <SCORE.INTER>
-7.21928

>  <SCORE.INTER.CONST>
1

>  <SCORE.INTER.POLAR>
0

>  <SCORE.INTER.ROT>
5

>  <SCORE.INTER.SOLV>
17.5184

>  <SCORE.INTER.VDW>
-17.5857

>  <SCORE.INTER.norm>
-0.328149

>  <SCORE.INTRA>
-3.05086

>  <SCORE.INTRA.DIHEDRAL>
-5.84659

>  <SCORE.INTRA.DIHEDRAL.0>
11.9251

>  <SCORE.INTRA.POLAR>
0

>  <SCORE.INTRA.POLAR.0>
0

>  <SCORE.INTRA.REPUL>
0

>  <SCORE.INTRA.REPUL.0>
0

>  <SCORE.INTRA.SOLV>
0.585502

>  <SCORE.INTRA.SOLV.lig_0>
-40.9823

>  <SCORE.INTRA.VDW>
-0.420317

>  <SCORE.INTRA.VDW.0>
-0.53506

>  <SCORE.INTRA.norm>
-0.138675

>  <SCORE.RESTR>
0.1221

>  <SCORE.RESTR.CAVITY>
0.1221

>  <SCORE.RESTR.norm>
0.00554999

>  <SCORE.SYSTEM>
0

>  <SCORE.SYSTEM.CONST>
0

>  <SCORE.SYSTEM.DIHEDRAL>
0

>  <SCORE.SYSTEM.SOLV>
0

>  <SCORE.SYSTEM.norm>
0

>  <SCORE.heavy>
22

>  <SCORE.norm>
-0.461275

>  <RMSD>
6.591

$$$$
lig.pdb
 OpenBabel11021811523D
libRbt.so/2013.1/901 2013/11/27
 22 23  0  0  0  0  0  0  0  0999 V2000
   58.0579   -9.3205   14.7665 O   0  0  0  0  0  0  0  0  0  0  0  0
   57.9944   -9.9420   13.7320 C   0  0  0  0  0  0  0  0  0  0  0  0
   56.8395  -10.2888   13.1919 N   0  0  0  0  0  0  0  0  0  0  0  0
   59.2250  -10.3759   13.0556 C   0  0  0  0  0  0  0  0  0  0  0  0
   59.2728  -11.1295   11.8006 C   0  0  0  0  0  0  0  0  0  0  0  0
   58.2008  -11.5506   11.0957 N   0  0  0  0  0  0  0  0  0  0  0  0
   60.5138  -10.2058   13.3910 N   0  0  0  0  0  0  0  0  0  0  0  0
   61.2895  -10.7727   12.4258 C   0  0  0  0  0  0  0  0  0  0  0  0
   60.5373  -11.3333   11.4487 N   0  0  0  0  0  0  0  0  0  0  0  0
   61.0570  -12.0375   10.2448 C   0  0  1  0  0  0  0  0  0  0  0  0
   62.0905  -13.0582   10.6692 C   0  0  1  0  0  0  0  0  0  0  0  0
   61.8301  -14.2324    9.7616 C   0  0  2  0  0  0  0  0  0  0  0  0
   62.6284  -14.1170    8.5769 O   0  0  0  0  0  0  0  0  0  0  0  0
   63.4212  -12.5387   10.5211 O   0  0  0  0  0  0  0  0  0  0  0  0
   60.0125  -12.7742    9.6139 O   0  0  0  0  0  0  0  0  0  0  0  0
   60.3785  -14.1122    9.3764 C   0  0  2  0  0  0  0  0  0  0  0  0
   59.4064  -14.9589   10.1718 C   0  0  0  0  0  0  0  0  0  0  0  0
   58.9213  -16.0483    9.4143 O   0  0  0  0  0  0  0  0  0  0  0  0
   59.8015  -17.3797    9.3413 P   0  0  0  0  0  0  0  0  0  0  0  0
   59.8203  -17.9161   10.7586 O   0  0  0  0  0  0  0  0  0  0  0  0
   61.1236  -16.8591    8.8396 O   0  0  0  0  0  0  0  0  0  0  0  0
   59.0869  -18.2126    8.3134 O   0  0  0  0  0  0  0  0  0  0  0  0
  2  1  2  0  0  0  0
  2  4  1  0  0  0  0
  3  2  1  0  0  0  0
  4  7  1  0  0  0  0
  4  5  2  0  0  0  0
  5  6  1  0  0  0  0
  5  9  1  0  0  0  0
  7  8  2  0  0  0  0
  8  9  1  0  0  0  0
 10  9  1  1  0  0  0
 10 15  1  0  0  0  0
 11 14  1  6  0  0  0
 11 12  1  0  0  0  0
 11 10  1  0  0  0  0
 12 13  1  6  0  0  0
 12 16  1  0  0  0  0
 16 17  1  1  0  0  0
 16 15  1  0  0  0  0
 18 19  1  0  0  0  0
 18 17  1  0  0  0  0
 19 21  1  0  0  0  0
 20 19  1  0  0  0  0
 22 19  2  0  0  0  0
M  END
>  <CHROM.1>
-179.87208394,-129.81920675,-106.98981540,65.14879877,83.77151882,60.07366459
-13.49066911,10.78184955,1.73027467,0.37414315,0.47394901

>  <Name>
lig.pdb

>  <RI>
0

>  <Rbt.Current_Directory>
/home/itssahil/PROJECTS/Mol_Feturizer/New_Systems/rnas/4znp

>  <Rbt.Executable>
rbdock ($Id: //depot/dev/client3/rdock/2013.1/src/exe/rbdock.cxx#4 $)

>  <Rbt.Library>
libRbt.so (2013.1, Build901 2013/11/27)

>  <Rbt.Parameter_File>
/export/apps/rDock/src/rDock_2013.1_src/data/scripts/dock_solv.prm

>  <Rbt.Receptor>
prm/pocket_docking_8.prm

>  <SCORE>
-15.106

>  <SCORE.INTER>
-13.9082

>  <SCORE.INTER.CONST>
1

>  <SCORE.INTER.POLAR>
0

>  <SCORE.INTER.ROT>
5

>  <SCORE.INTER.SOLV>
17.2467

>  <SCORE.INTER.VDW>
-21.9544

>  <SCORE.INTER.norm>
-0.632191

>  <SCORE.INTRA>
-1.54218

>  <SCORE.INTRA.DIHEDRAL>
-2.33728

>  <SCORE.INTRA.DIHEDRAL.0>
11.9251

>  <SCORE.INTRA.POLAR>
0

>  <SCORE.INTRA.POLAR.0>
0

>  <SCORE.INTRA.REPUL>
0

>  <SCORE.INTRA.REPUL.0>
0

>  <SCORE.INTRA.SOLV>
1.46145

>  <SCORE.INTRA.SOLV.lig_0>
-40.9823

>  <SCORE.INTRA.VDW>
-1.10427

>  <SCORE.INTRA.VDW.0>
-0.53506

>  <SCORE.INTRA.norm>
-0.070099

>  <SCORE.RESTR>
0.344379

>  <SCORE.RESTR.CAVITY>
0.344379

>  <SCORE.RESTR.norm>
0.0156536

>  <SCORE.SYSTEM>
0

>  <SCORE.SYSTEM.CONST>
0

>  <SCORE.SYSTEM.DIHEDRAL>
0

>  <SCORE.SYSTEM.SOLV>
0

>  <SCORE.SYSTEM.norm>
0

>  <SCORE.heavy>
22

>  <SCORE.norm>
-0.686637

>  <RMSD>
6.612

$$$$
lig.pdb
 OpenBabel11021811523D
libRbt.so/2013.1/901 2013/11/27
 22 23  0  0  0  0  0  0  0  0999 V2000
   56.8483  -10.2546   13.2826 O   0  0  0  0  0  0  0  0  0  0  0  0
   57.9183  -10.0343   13.7995 C   0  0  0  0  0  0  0  0  0  0  0  0
   58.0221   -9.3999   14.9539 N   0  0  0  0  0  0  0  0  0  0  0  0
   59.1603  -10.4350   13.1236 C   0  0  0  0  0  0  0  0  0  0  0  0
   59.2289  -11.1544   11.8495 C   0  0  0  0  0  0  0  0  0  0  0  0
   58.1687  -11.5695   11.1236 N   0  0  0  0  0  0  0  0  0  0  0  0
   60.4438  -10.2583   13.4756 N   0  0  0  0  0  0  0  0  0  0  0  0
   61.2353  -10.7899   12.5032 C   0  0  0  0  0  0  0  0  0  0  0  0
   60.4990  -11.3334   11.5044 N   0  0  0  0  0  0  0  0  0  0  0  0
   61.0385  -11.9989   10.2873 C   0  0  1  0  0  0  0  0  0  0  0  0
   62.0663  -13.0319   10.6956 C   0  0  1  0  0  0  0  0  0  0  0  0
   61.8216  -14.1771    9.7475 C   0  0  2  0  0  0  0  0  0  0  0  0
   62.6383  -14.0239    8.5797 O   0  0  0  0  0  0  0  0  0  0  0  0
   63.3985  -12.5070   10.5850 O   0  0  0  0  0  0  0  0  0  0  0  0
   60.0049  -12.7161    9.6172 O   0  0  0  0  0  0  0  0  0  0  0  0
   60.3761  -14.0457    9.3434 C   0  0  2  0  0  0  0  0  0  0  0  0
   59.3926  -14.9176   10.0963 C   0  0  0  0  0  0  0  0  0  0  0  0
   58.9698  -16.0193    9.3194 O   0  0  0  0  0  0  0  0  0  0  0  0
   59.8885  -17.3258    9.2834 P   0  0  0  0  0  0  0  0  0  0  0  0
   61.2438  -16.8398    8.8104 O   0  0  0  0  0  0  0  0  0  0  0  0
   59.1510  -18.2057    8.3073 O   0  0  0  0  0  0  0  0  0  0  0  0
   59.8111  -17.8439   10.6928 O   0  0  0  0  0  0  0  0  0  0  0  0
  2  1  2  0  0  0  0
  2  4  1  0  0  0  0
  3  2  1  0  0  0  0
  4  7  1  0  0  0  0
  4  5  2  0  0  0  0
  5  6  1  0  0  0  0
  5  9  1  0  0  0  0
  7  8  2  0  0  0  0
  8  9  1  0  0  0  0
 10  9  1  1  0  0  0
 10 15  1  0  0  0  0
 11 14  1  6  0  0  0
 11 12  1  0  0  0  0
 11 10  1  0  0  0  0
 12 13  1  6  0  0  0
 12 16  1  0  0  0  0
 16 17  1  1  0  0  0
 16 15  1  0  0  0  0
 18 19  1  0  0  0  0
 18 17  1  0  0  0  0
 19 21  1  0  0  0  0
 20 19  1  0  0  0  0
 22 19  2  0  0  0  0
M  END
>  <CHROM.1>
-2.58186897,-129.02121410,-104.16074235,-56.37108920,83.62727692,60.06571552
-13.47914484,10.78770517,1.75002889,0.37283971,0.48574737

>  <Name>
lig.pdb

>  <RI>
0

>  <Rbt.Current_Directory>
/home/itssahil/PROJECTS/Mol_Feturizer/New_Systems/rnas/4znp

>  <Rbt.Executable>
rbdock ($Id: //depot/dev/client3/rdock/2013.1/src/exe/rbdock.cxx#4 $)

>  <Rbt.Library>
libRbt.so (2013.1, Build901 2013/11/27)

>  <Rbt.Parameter_File>
/export/apps/rDock/src/rDock_2013.1_src/data/scripts/dock_solv.prm

>  <Rbt.Receptor>
prm/pocket_docking_8.prm

>  <SCORE>
-15.5083

>  <SCORE.INTER>
-13.8667

>  <SCORE.INTER.CONST>
1

>  <SCORE.INTER.POLAR>
0

>  <SCORE.INTER.ROT>
5

>  <SCORE.INTER.SOLV>
17.3824

>  <SCORE.INTER.VDW>
-21.9719

>  <SCORE.INTER.norm>
-0.630305

>  <SCORE.INTRA>
-1.89996

>  <SCORE.INTRA.DIHEDRAL>
-2.64852

>  <SCORE.INTRA.DIHEDRAL.0>
11.9251

>  <SCORE.INTRA.POLAR>
0

>  <SCORE.INTRA.POLAR.0>
0

>  <SCORE.INTRA.REPUL>
0

>  <SCORE.INTRA.REPUL.0>
0

>  <SCORE.INTRA.SOLV>
1.5999

>  <SCORE.INTRA.SOLV.lig_0>
-40.9823

>  <SCORE.INTRA.VDW>
-1.37565

>  <SCORE.INTRA.VDW.0>
-0.53506

>  <SCORE.INTRA.norm>
-0.0863616

>  <SCORE.RESTR>
0.258419

>  <SCORE.RESTR.CAVITY>
0.258419

>  <SCORE.RESTR.norm>
0.0117463

>  <SCORE.SYSTEM>
0

>  <SCORE.SYSTEM.CONST>
0

>  <SCORE.SYSTEM.DIHEDRAL>
0

>  <SCORE.SYSTEM.SOLV>
0

>  <SCORE.SYSTEM.norm>
0

>  <SCORE.heavy>
22

>  <SCORE.norm>
-0.704921

>  <RMSD>
6.661

$$$$
lig.pdb
 OpenBabel11021811523D
libRbt.so/2013.1/901 2013/11/27
 22 23  0  0  0  0  0  0  0  0999 V2000
   58.5928   -8.1565   14.1410 O   0  0  0  0  0  0  0  0  0  0  0  0
   58.8730   -9.2656   13.7514 C   0  0  0  0  0  0  0  0  0  0  0  0
   58.5581  -10.3502   14.4371 N   0  0  0  0  0  0  0  0  0  0  0  0
   59.6253   -9.4398   12.5008 C   0  0  0  0  0  0  0  0  0  0  0  0
   60.0146  -10.7302   11.9275 C   0  0  0  0  0  0  0  0  0  0  0  0
   59.7588  -11.9401   12.4698 N   0  0  0  0  0  0  0  0  0  0  0  0
   60.1084   -8.5325   11.6372 N   0  0  0  0  0  0  0  0  0  0  0  0
   60.7147   -9.1926   10.6119 C   0  0  0  0  0  0  0  0  0  0  0  0
   60.6554  -10.5353   10.7805 N   0  0  0  0  0  0  0  0  0  0  0  0
   61.2164  -11.5554    9.8532 C   0  0  1  0  0  0  0  0  0  0  0  0
   62.0884  -12.5152   10.6332 C   0  0  1  0  0  0  0  0  0  0  0  0
   61.7982  -13.8547   10.0072 C   0  0  2  0  0  0  0  0  0  0  0  0
   62.7193  -14.1005    8.9370 O   0  0  0  0  0  0  0  0  0  0  0  0
   63.4746  -12.1539   10.5307 O   0  0  0  0  0  0  0  0  0  0  0  0
   60.1688  -12.3428    9.2925 O   0  0  0  0  0  0  0  0  0  0  0  0
   60.4136  -13.7220    9.4283 C   0  0  2  0  0  0  0  0  0  0  0  0
   59.2825  -14.2656   10.2767 C   0  0  0  0  0  0  0  0  0  0  0  0
   59.5477  -15.5804   10.7205 O   0  0  0  0  0  0  0  0  0  0  0  0
   59.6785  -16.7422    9.6316 P   0  0  0  0  0  0  0  0  0  0  0  0
   59.6504  -18.0314   10.4277 O   0  0  0  0  0  0  0  0  0  0  0  0
   61.0008  -16.4223    8.9835 O   0  0  0  0  0  0  0  0  0  0  0  0
   58.5150  -16.4901    8.7132 O   0  0  0  0  0  0  0  0  0  0  0  0
  2  1  2  0  0  0  0
  2  4  1  0  0  0  0
  3  2  1  0  0  0  0
  4  7  1  0  0  0  0
  4  5  2  0  0  0  0
  5  6  1  0  0  0  0
  5  9  1  0  0  0  0
  7  8  2  0  0  0  0
  8  9  1  0  0  0  0
 10  9  1  1  0  0  0
 10 15  1  0  0  0  0
 11 14  1  6  0  0  0
 11 12  1  0  0  0  0
 11 10  1  0  0  0  0
 12 13  1  6  0  0  0
 12 16  1  0  0  0  0
 16 17  1  1  0  0  0
 16 15  1  0  0  0  0
 18 19  1  0  0  0  0
 18 17  1  0  0  0  0
 19 21  1  0  0  0  0
 20 19  1  0  0  0  0
 22 19  2  0  0  0  0
M  END
>  <CHROM.1>
-179.66592371,-51.12752210,-49.89324224,-167.86644295,-63.92947666,60.26978381
-12.89099802,10.77603679,1.64210158,0.62184437,0.38450072

>  <Name>
lig.pdb

>  <RI>
0

>  <Rbt.Current_Directory>
/home/itssahil/PROJECTS/Mol_Feturizer/New_Systems/rnas/4znp

>  <Rbt.Executable>
rbdock ($Id: //depot/dev/client3/rdock/2013.1/src/exe/rbdock.cxx#4 $)

>  <Rbt.Library>
libRbt.so (2013.1, Build901 2013/11/27)

>  <Rbt.Parameter_File>
/export/apps/rDock/src/rDock_2013.1_src/data/scripts/dock_solv.prm

>  <Rbt.Receptor>
prm/pocket_docking_5.prm

>  <SCORE>
-16.2556

>  <SCORE.INTER>
-12.0274

>  <SCORE.INTER.CONST>
1

>  <SCORE.INTER.POLAR>
0

>  <SCORE.INTER.ROT>
5

>  <SCORE.INTER.SOLV>
14.0545

>  <SCORE.INTER.VDW>
-19.6365

>  <SCORE.INTER.norm>
-0.546702

>  <SCORE.INTRA>
-4.28352

>  <SCORE.INTRA.DIHEDRAL>
-8.8241

>  <SCORE.INTRA.DIHEDRAL.0>
11.9251

>  <SCORE.INTRA.POLAR>
0

>  <SCORE.INTRA.POLAR.0>
0

>  <SCORE.INTRA.REPUL>
0

>  <SCORE.INTRA.REPUL.0>
0

>  <SCORE.INTRA.SOLV>
2.85809

>  <SCORE.INTRA.SOLV.lig_0>
-40.9823

>  <SCORE.INTRA.VDW>
-1.30052

>  <SCORE.INTRA.VDW.0>
-0.53506

>  <SCORE.INTRA.norm>
-0.194706

>  <SCORE.RESTR>
0.0553679

>  <SCORE.RESTR.CAVITY>
0.0553679

>  <SCORE.RESTR.norm>
0.00251672

>  <SCORE.SYSTEM>
0

>  <SCORE.SYSTEM.CONST>
0

>  <SCORE.SYSTEM.DIHEDRAL>
0

>  <SCORE.SYSTEM.SOLV>
0

>  <SCORE.SYSTEM.norm>
0

>  <SCORE.heavy>
22

>  <SCORE.norm>
-0.738891

>  <RMSD>
6.662

$$$$
lig.pdb
 OpenBabel11021811523D
libRbt.so/2013.1/901 2013/11/27
 22 23  0  0  0  0  0  0  0  0999 V2000
   62.1369   -9.8489   14.4098 O   0  0  0  0  0  0  0  0  0  0  0  0
   61.0008  -10.2578   14.4623 C   0  0  0  0  0  0  0  0  0  0  0  0
   60.4549  -10.6686   15.5932 N   0  0  0  0  0  0  0  0  0  0  0  0
   60.1937  -10.3524   13.2376 C   0  0  0  0  0  0  0  0  0  0  0  0
   60.6767  -10.0518   11.8879 C   0  0  0  0  0  0  0  0  0  0  0  0
   61.9198   -9.6276   11.5747 N   0  0  0  0  0  0  0  0  0  0  0  0
   58.9115  -10.7086   13.0606 N   0  0  0  0  0  0  0  0  0  0  0  0
   58.6304  -10.6621   11.7289 C   0  0  0  0  0  0  0  0  0  0  0  0
   59.7064  -10.2674   11.0069 N   0  0  0  0  0  0  0  0  0  0  0  0
   59.7519  -10.1073    9.5278 C   0  0  1  0  0  0  0  0  0  0  0  0
   60.6145   -8.9135    9.1799 C   0  0  1  0  0  0  0  0  0  0  0  0
   61.3618   -9.3564    7.9487 C   0  0  2  0  0  0  0  0  0  0  0  0
   60.6231   -8.9934    6.7754 O   0  0  0  0  0  0  0  0  0  0  0  0
   59.8109   -7.7475    8.9406 O   0  0  0  0  0  0  0  0  0  0  0  0
   60.3823  -11.2362    8.9279 O   0  0  0  0  0  0  0  0  0  0  0  0
   61.4083  -10.8594    8.0413 C   0  0  2  0  0  0  0  0  0  0  0  0
   62.6841  -11.4527    8.6023 C   0  0  0  0  0  0  0  0  0  0  0  0
   62.7624  -12.8431    8.3647 O   0  0  0  0  0  0  0  0  0  0  0  0
   62.0203  -13.8335    9.3753 P   0  0  0  0  0  0  0  0  0  0  0  0
   60.5489  -13.7138    9.0328 O   0  0  0  0  0  0  0  0  0  0  0  0
   62.4101  -13.2687   10.7169 O   0  0  0  0  0  0  0  0  0  0  0  0
   62.6715  -15.1608    9.1019 O   0  0  0  0  0  0  0  0  0  0  0  0
  2  1  2  0  0  0  0
  2  4  1  0  0  0  0
  3  2  1  0  0  0  0
  4  7  1  0  0  0  0
  4  5  2  0  0  0  0
  5  6  1  0  0  0  0
  5  9  1  0  0  0  0
  7  8  2  0  0  0  0
  8  9  1  0  0  0  0
 10  9  1  1  0  0  0
 10 15  1  0  0  0  0
 11 14  1  6  0  0  0
 11 12  1  0  0  0  0
 11 10  1  0  0  0  0
 12 13  1  6  0  0  0
 12 16  1  0  0  0  0
 16 17  1  1  0  0  0
 16 15  1  0  0  0  0
 18 19  1  0  0  0  0
 18 17  1  0  0  0  0
 19 21  1  0  0  0  0
 20 19  1  0  0  0  0
 22 19  2  0  0  0  0
M  END
>  <CHROM.1>
3.53529410,-36.34754419,-166.26995483,75.15958568,-83.60619113,61.03328476
-11.11633254,10.38581037,-2.21734928,1.17764958,-1.38778527

>  <Name>
lig.pdb

>  <RI>
0

>  <Rbt.Current_Directory>
/home/itssahil/PROJECTS/Mol_Feturizer/New_Systems/rnas/4znp

>  <Rbt.Executable>
rbdock ($Id: //depot/dev/client3/rdock/2013.1/src/exe/rbdock.cxx#4 $)

>  <Rbt.Library>
libRbt.so (2013.1, Build901 2013/11/27)

>  <Rbt.Parameter_File>
/export/apps/rDock/src/rDock_2013.1_src/data/scripts/dock_solv.prm

>  <Rbt.Receptor>
prm/pocket_docking_5.prm

>  <SCORE>
-10.8305

>  <SCORE.INTER>
-7.24566

>  <SCORE.INTER.CONST>
1

>  <SCORE.INTER.POLAR>
0

>  <SCORE.INTER.ROT>
5

>  <SCORE.INTER.SOLV>
13.6193

>  <SCORE.INTER.VDW>
-16.3035

>  <SCORE.INTER.norm>
-0.329348

>  <SCORE.INTRA>
-3.58488

>  <SCORE.INTRA.DIHEDRAL>
-6.017

>  <SCORE.INTRA.DIHEDRAL.0>
11.9251

>  <SCORE.INTRA.POLAR>
0

>  <SCORE.INTRA.POLAR.0>
0

>  <SCORE.INTRA.REPUL>
0

>  <SCORE.INTRA.REPUL.0>
0

>  <SCORE.INTRA.SOLV>
2.04835

>  <SCORE.INTRA.SOLV.lig_0>
-40.9823

>  <SCORE.INTRA.VDW>
-1.60056

>  <SCORE.INTRA.VDW.0>
-0.53506

>  <SCORE.INTRA.norm>
-0.162949

>  <SCORE.RESTR>
0

>  <SCORE.RESTR.CAVITY>
0

>  <SCORE.RESTR.norm>
0

>  <SCORE.SYSTEM>
0

>  <SCORE.SYSTEM.CONST>
0

>  <SCORE.SYSTEM.DIHEDRAL>
0

>  <SCORE.SYSTEM.SOLV>
0

>  <SCORE.SYSTEM.norm>
0

>  <SCORE.heavy>
22

>  <SCORE.norm>
-0.492297

>  <RMSD>
6.677

$$$$
lig.pdb
 OpenBabel11021811523D
libRbt.so/2013.1/901 2013/11/27
 22 23  0  0  0  0  0  0  0  0999 V2000
   55.9624   -7.8284   11.4016 O   0  0  0  0  0  0  0  0  0  0  0  0
   57.0207   -8.0052   10.8454 C   0  0  0  0  0  0  0  0  0  0  0  0
   57.6636   -7.0264   10.2336 N   0  0  0  0  0  0  0  0  0  0  0  0
   57.6122   -9.3498   10.7957 C   0  0  0  0  0  0  0  0  0  0  0  0
   58.8640   -9.6923   10.1168 C   0  0  0  0  0  0  0  0  0  0  0  0
   59.6430   -8.8333    9.4249 N   0  0  0  0  0  0  0  0  0  0  0  0
   57.1878  -10.5117   11.3175 N   0  0  0  0  0  0  0  0  0  0  0  0
   58.0993  -11.4781   11.0177 C   0  0  0  0  0  0  0  0  0  0  0  0
   59.1284  -10.9824   10.2895 N   0  0  0  0  0  0  0  0  0  0  0  0
   60.2964  -11.7588    9.7910 C   0  0  1  0  0  0  0  0  0  0  0  0
   61.1525  -12.1836   10.9643 C   0  0  1  0  0  0  0  0  0  0  0  0
   61.5988  -13.5756   10.5985 C   0  0  2  0  0  0  0  0  0  0  0  0
   62.8416  -13.5161    9.8872 O   0  0  0  0  0  0  0  0  0  0  0  0
   62.2589  -11.2867   11.1482 O   0  0  0  0  0  0  0  0  0  0  0  0
   59.8589  -12.9632    9.1668 O   0  0  0  0  0  0  0  0  0  0  0  0
   60.5352  -14.0925    9.6649 C   0  0  2  0  0  0  0  0  0  0  0  0
   59.4732  -14.9742   10.2886 C   0  0  0  0  0  0  0  0  0  0  0  0
   59.0335  -15.9752    9.3937 O   0  0  0  0  0  0  0  0  0  0  0  0
   59.8858  -17.3213    9.2750 P   0  0  0  0  0  0  0  0  0  0  0  0
   59.1442  -18.1673    8.2596 O   0  0  0  0  0  0  0  0  0  0  0  0
   59.8507  -17.8449   10.6876 O   0  0  0  0  0  0  0  0  0  0  0  0
   61.2519  -16.8338    8.8790 O   0  0  0  0  0  0  0  0  0  0  0  0
  2  1  2  0  0  0  0
  2  4  1  0  0  0  0
  3  2  1  0  0  0  0
  4  7  1  0  0  0  0
  4  5  2  0  0  0  0
  5  6  1  0  0  0  0
  5  9  1  0  0  0  0
  7  8  2  0  0  0  0
  8  9  1  0  0  0  0
 10  9  1  1  0  0  0
 10 15  1  0  0  0  0
 11 14  1  6  0  0  0
 11 12  1  0  0  0  0
 11 10  1  0  0  0  0
 12 13  1  6  0  0  0
 12 16  1  0  0  0  0
 16 17  1  1  0  0  0
 16 15  1  0  0  0  0
 18 19  1  0  0  0  0
 18 17  1  0  0  0  0
 19 21  1  0  0  0  0
 20 19  1  0  0  0  0
 22 19  2  0  0  0  0
M  END
>  <CHROM.1>
177.98934144,112.31323579,-146.10578590,179.46106618,83.60474478,59.53589414
-12.86245001,10.08518751,1.84538731,0.00801054,0.15358408

>  <Name>
lig.pdb

>  <RI>
0

>  <Rbt.Current_Directory>
/home/itssahil/PROJECTS/Mol_Feturizer/New_Systems/rnas/4znp

>  <Rbt.Executable>
rbdock ($Id: //depot/dev/client3/rdock/2013.1/src/exe/rbdock.cxx#4 $)

>  <Rbt.Library>
libRbt.so (2013.1, Build901 2013/11/27)

>  <Rbt.Parameter_File>
/export/apps/rDock/src/rDock_2013.1_src/data/scripts/dock_solv.prm

>  <Rbt.Receptor>
prm/pocket_docking_8.prm

>  <SCORE>
-15.7856

>  <SCORE.INTER>
-13.271

>  <SCORE.INTER.CONST>
1

>  <SCORE.INTER.POLAR>
0

>  <SCORE.INTER.ROT>
5

>  <SCORE.INTER.SOLV>
16.9399

>  <SCORE.INTER.VDW>
-21.4273

>  <SCORE.INTER.norm>
-0.603228

>  <SCORE.INTRA>
-2.79091

>  <SCORE.INTRA.DIHEDRAL>
-3.95302

>  <SCORE.INTRA.DIHEDRAL.0>
11.9251

>  <SCORE.INTRA.POLAR>
0

>  <SCORE.INTRA.POLAR.0>
0

>  <SCORE.INTRA.REPUL>
0

>  <SCORE.INTRA.REPUL.0>
0

>  <SCORE.INTRA.SOLV>
1.22845

>  <SCORE.INTRA.SOLV.lig_0>
-40.9823

>  <SCORE.INTRA.VDW>
-1.42863

>  <SCORE.INTRA.VDW.0>
-0.53506

>  <SCORE.INTRA.norm>
-0.12686

>  <SCORE.RESTR>
0.276337

>  <SCORE.RESTR.CAVITY>
0.276337

>  <SCORE.RESTR.norm>
0.0125608

>  <SCORE.SYSTEM>
0

>  <SCORE.SYSTEM.CONST>
0

>  <SCORE.SYSTEM.DIHEDRAL>
0

>  <SCORE.SYSTEM.SOLV>
0

>  <SCORE.SYSTEM.norm>
0

>  <SCORE.heavy>
22

>  <SCORE.norm>
-0.717527

>  <RMSD>
6.724

$$$$
lig.pdb
 OpenBabel11021811523D
libRbt.so/2013.1/901 2013/11/27
 22 23  0  0  0  0  0  0  0  0999 V2000
   58.4840   -7.5348   13.3385 O   0  0  0  0  0  0  0  0  0  0  0  0
   58.4013   -8.3045   12.4106 C   0  0  0  0  0  0  0  0  0  0  0  0
   57.2637   -8.5132   11.7717 N   0  0  0  0  0  0  0  0  0  0  0  0
   59.5772   -9.0778   11.9868 C   0  0  0  0  0  0  0  0  0  0  0  0
   59.5862  -10.0705   10.9098 C   0  0  0  0  0  0  0  0  0  0  0  0
   58.5188  -10.4330   10.1664 N   0  0  0  0  0  0  0  0  0  0  0  0
   60.8394   -9.0712   12.4441 N   0  0  0  0  0  0  0  0  0  0  0  0
   61.5704   -9.9523   11.7065 C   0  0  0  0  0  0  0  0  0  0  0  0
   60.8118  -10.5613   10.7638 N   0  0  0  0  0  0  0  0  0  0  0  0
   61.2869  -11.5788    9.7869 C   0  0  1  0  0  0  0  0  0  0  0  0
   62.2060  -12.5552   10.4883 C   0  0  1  0  0  0  0  0  0  0  0  0
   61.8524  -13.8856    9.8755 C   0  0  2  0  0  0  0  0  0  0  0  0
   62.6843  -14.1314    8.7346 O   0  0  0  0  0  0  0  0  0  0  0  0
   63.5840  -12.2080   10.2809 O   0  0  0  0  0  0  0  0  0  0  0  0
   60.1897  -12.3494    9.3031 O   0  0  0  0  0  0  0  0  0  0  0  0
   60.4285  -13.7325    9.4077 C   0  0  2  0  0  0  0  0  0  0  0  0
   59.3608  -14.2716   10.3371 C   0  0  0  0  0  0  0  0  0  0  0  0
   59.6343  -15.6003   10.7320 O   0  0  0  0  0  0  0  0  0  0  0  0
   59.7109  -16.7311    9.6060 P   0  0  0  0  0  0  0  0  0  0  0  0
   58.4993  -16.4930    8.7273 O   0  0  0  0  0  0  0  0  0  0  0  0
   59.6665  -17.9964   10.4232 O   0  0  0  0  0  0  0  0  0  0  0  0
   61.0571  -16.5035    8.9760 O   0  0  0  0  0  0  0  0  0  0  0  0
  2  1  2  0  0  0  0
  2  4  1  0  0  0  0
  3  2  1  0  0  0  0
  4  7  1  0  0  0  0
  4  5  2  0  0  0  0
  5  6  1  0  0  0  0
  5  9  1  0  0  0  0
  7  8  2  0  0  0  0
  8  9  1  0  0  0  0
 10  9  1  1  0  0  0
 10 15  1  0  0  0  0
 11 14  1  6  0  0  0
 11 12  1  0  0  0  0
 11 10  1  0  0  0  0
 12 13  1  6  0  0  0
 12 16  1  0  0  0  0
 16 17  1  1  0  0  0
 16 15  1  0  0  0  0
 18 19  1  0  0  0  0
 18 17  1  0  0  0  0
 19 21  1  0  0  0  0
 20 19  1  0  0  0  0
 22 19  2  0  0  0  0
M  END
>  <CHROM.1>
177.79960128,-137.12921089,-50.76985524,-46.09196962,-61.36854613,60.22197249
-12.71190826,10.46361643,1.67802780,0.20571926,0.29467403

>  <Name>
lig.pdb

>  <RI>
0

>  <Rbt.Current_Directory>
/home/itssahil/PROJECTS/Mol_Feturizer/New_Systems/rnas/4znp

>  <Rbt.Executable>
rbdock ($Id: //depot/dev/client3/rdock/2013.1/src/exe/rbdock.cxx#4 $)

>  <Rbt.Library>
libRbt.so (2013.1, Build901 2013/11/27)

>  <Rbt.Parameter_File>
/export/apps/rDock/src/rDock_2013.1_src/data/scripts/dock_solv.prm

>  <Rbt.Receptor>
prm/pocket_docking_3.prm

>  <SCORE>
-16.1222

>  <SCORE.INTER>
-12.4477

>  <SCORE.INTER.CONST>
1

>  <SCORE.INTER.POLAR>
0

>  <SCORE.INTER.ROT>
5

>  <SCORE.INTER.SOLV>
13.5138

>  <SCORE.INTER.VDW>
-19.7364

>  <SCORE.INTER.norm>
-0.565806

>  <SCORE.INTRA>
-3.71437

>  <SCORE.INTRA.DIHEDRAL>
-8.88951

>  <SCORE.INTRA.DIHEDRAL.0>
11.9251

>  <SCORE.INTRA.POLAR>
0

>  <SCORE.INTRA.POLAR.0>
0

>  <SCORE.INTRA.REPUL>
0

>  <SCORE.INTRA.REPUL.0>
0

>  <SCORE.INTRA.SOLV>
2.97863

>  <SCORE.INTRA.SOLV.lig_0>
-40.9823

>  <SCORE.INTRA.VDW>
-0.758929

>  <SCORE.INTRA.VDW.0>
-0.53506

>  <SCORE.INTRA.norm>
-0.168835

>  <SCORE.RESTR>
0.0398629

>  <SCORE.RESTR.CAVITY>
0.0398629

>  <SCORE.RESTR.norm>
0.00181195

>  <SCORE.SYSTEM>
0

>  <SCORE.SYSTEM.CONST>
0

>  <SCORE.SYSTEM.DIHEDRAL>
0

>  <SCORE.SYSTEM.SOLV>
0

>  <SCORE.SYSTEM.norm>
0

>  <SCORE.heavy>
22

>  <SCORE.norm>
-0.732829

>  <RMSD>
6.766

$$$$
lig.pdb
 OpenBabel11021811523D
libRbt.so/2013.1/901 2013/11/27
 22 23  0  0  0  0  0  0  0  0999 V2000
   63.6727   -6.6514    9.4159 O   0  0  0  0  0  0  0  0  0  0  0  0
   62.8398   -6.5948    8.5421 C   0  0  0  0  0  0  0  0  0  0  0  0
   62.5215   -5.4578    7.9490 N   0  0  0  0  0  0  0  0  0  0  0  0
   62.1121   -7.8060    8.1374 C   0  0  0  0  0  0  0  0  0  0  0  0
   62.3517   -9.1482    8.6726 C   0  0  0  0  0  0  0  0  0  0  0  0
   63.2829   -9.4713    9.5956 N   0  0  0  0  0  0  0  0  0  0  0  0
   61.1236   -7.9751    7.2449 N   0  0  0  0  0  0  0  0  0  0  0  0
   60.7627   -9.2883    7.2440 C   0  0  0  0  0  0  0  0  0  0  0  0
   61.5052  -10.0087    8.1184 N   0  0  0  0  0  0  0  0  0  0  0  0
   61.3783  -11.4699    8.3718 C   0  0  1  0  0  0  0  0  0  0  0  0
   62.4999  -11.9191    9.2831 C   0  0  1  0  0  0  0  0  0  0  0  0
   61.8434  -12.9254   10.1923 C   0  0  2  0  0  0  0  0  0  0  0  0
   61.9586  -14.2378    9.6279 O   0  0  0  0  0  0  0  0  0  0  0  0
   63.5815  -12.4888    8.5293 O   0  0  0  0  0  0  0  0  0  0  0  0
   60.1680  -11.7466    9.0720 O   0  0  0  0  0  0  0  0  0  0  0  0
   60.3876  -12.5382   10.2147 C   0  0  2  0  0  0  0  0  0  0  0  0
   59.9395  -11.7014   11.3952 C   0  0  0  0  0  0  0  0  0  0  0  0
   59.9382  -12.4481   12.5945 O   0  0  0  0  0  0  0  0  0  0  0  0
   59.4562  -11.7324   13.9391 P   0  0  0  0  0  0  0  0  0  0  0  0
   59.4490  -12.8281   14.9862 O   0  0  0  0  0  0  0  0  0  0  0  0
   58.0959  -11.2125   13.5519 O   0  0  0  0  0  0  0  0  0  0  0  0
   60.4598  -10.6282   14.1239 O   0  0  0  0  0  0  0  0  0  0  0  0
  2  1  2  0  0  0  0
  2  4  1  0  0  0  0
  3  2  1  0  0  0  0
  4  7  1  0  0  0  0
  4  5  2  0  0  0  0
  5  6  1  0  0  0  0
  5  9  1  0  0  0  0
  7  8  2  0  0  0  0
  8  9  1  0  0  0  0
 10  9  1  1  0  0  0
 10 15  1  0  0  0  0
 11 14  1  6  0  0  0
 11 12  1  0  0  0  0
 11 10  1  0  0  0  0
 12 13  1  6  0  0  0
 12 16  1  0  0  0  0
 16 17  1  1  0  0  0
 16 15  1  0  0  0  0
 18 19  1  0  0  0  0
 18 17  1  0  0  0  0
 19 21  1  0  0  0  0
 20 19  1  0  0  0  0
 22 19  2  0  0  0  0
M  END
>  <CHROM.1>
-3.04576948,-6.56144804,-70.04584878,174.72423253,-178.48660190,61.19578873
-10.61372248,10.35052197,0.51810174,1.11493593,0.11566626

>  <Name>
lig.pdb

>  <RI>
0

>  <Rbt.Current_Directory>
/home/itssahil/PROJECTS/Mol_Feturizer/New_Systems/rnas/4znp

>  <Rbt.Executable>
rbdock ($Id: //depot/dev/client3/rdock/2013.1/src/exe/rbdock.cxx#4 $)

>  <Rbt.Library>
libRbt.so (2013.1, Build901 2013/11/27)

>  <Rbt.Parameter_File>
/export/apps/rDock/src/rDock_2013.1_src/data/scripts/dock_solv.prm

>  <Rbt.Receptor>
prm/pocket_docking_8.prm

>  <SCORE>
-11.9669

>  <SCORE.INTER>
-8.20481

>  <SCORE.INTER.CONST>
1

>  <SCORE.INTER.POLAR>
0

>  <SCORE.INTER.ROT>
5

>  <SCORE.INTER.SOLV>
14.0692

>  <SCORE.INTER.VDW>
-17.0929

>  <SCORE.INTER.norm>
-0.372946

>  <SCORE.INTRA>
-3.76205

>  <SCORE.INTRA.DIHEDRAL>
-9.10058

>  <SCORE.INTRA.DIHEDRAL.0>
11.9251

>  <SCORE.INTRA.POLAR>
0

>  <SCORE.INTRA.POLAR.0>
0

>  <SCORE.INTRA.REPUL>
0

>  <SCORE.INTRA.REPUL.0>
0

>  <SCORE.INTRA.SOLV>
0.897127

>  <SCORE.INTRA.SOLV.lig_0>
-40.9823

>  <SCORE.INTRA.VDW>
0.339677

>  <SCORE.INTRA.VDW.0>
-0.53506

>  <SCORE.INTRA.norm>
-0.171002

>  <SCORE.RESTR>
0

>  <SCORE.RESTR.CAVITY>
0

>  <SCORE.RESTR.norm>
0

>  <SCORE.SYSTEM>
0

>  <SCORE.SYSTEM.CONST>
0

>  <SCORE.SYSTEM.DIHEDRAL>
0

>  <SCORE.SYSTEM.SOLV>
0

>  <SCORE.SYSTEM.norm>
0

>  <SCORE.heavy>
22

>  <SCORE.norm>
-0.543948

>  <RMSD>
6.766

$$$$
lig.pdb
 OpenBabel11021811523D
libRbt.so/2013.1/901 2013/11/27
 22 23  0  0  0  0  0  0  0  0999 V2000
   58.2072   -6.5320    9.9589 O   0  0  0  0  0  0  0  0  0  0  0  0
   57.5155   -7.3636   10.4978 C   0  0  0  0  0  0  0  0  0  0  0  0
   56.3730   -7.0525   11.0840 N   0  0  0  0  0  0  0  0  0  0  0  0
   57.9561   -8.7645   10.5553 C   0  0  0  0  0  0  0  0  0  0  0  0
   59.2037   -9.2769    9.9841 C   0  0  0  0  0  0  0  0  0  0  0  0
   60.1166   -8.5466    9.3083 N   0  0  0  0  0  0  0  0  0  0  0  0
   57.3723   -9.8432   11.1014 N   0  0  0  0  0  0  0  0  0  0  0  0
   58.1886  -10.9171   10.9140 C   0  0  0  0  0  0  0  0  0  0  0  0
   59.3116  -10.5763   10.2374 N   0  0  0  0  0  0  0  0  0  0  0  0
   60.4161  -11.5002    9.8611 C   0  0  1  0  0  0  0  0  0  0  0  0
   60.9630  -12.1607   11.1081 C   0  0  1  0  0  0  0  0  0  0  0  0
   61.2467  -13.5745   10.6712 C   0  0  2  0  0  0  0  0  0  0  0  0
   62.5937  -13.6738   10.1919 O   0  0  0  0  0  0  0  0  0  0  0  0
   62.1421  -11.4868   11.5750 O   0  0  0  0  0  0  0  0  0  0  0  0
   59.9197  -12.5561    9.0423 O   0  0  0  0  0  0  0  0  0  0  0  0
   60.3075  -13.8220    9.5195 C   0  0  2  0  0  0  0  0  0  0  0  0
   59.0239  -14.5541    9.8527 C   0  0  0  0  0  0  0  0  0  0  0  0
   59.2770  -15.7848   10.4987 O   0  0  0  0  0  0  0  0  0  0  0  0
   59.7575  -17.0263    9.6153 P   0  0  0  0  0  0  0  0  0  0  0  0
   59.8503  -18.1864   10.5861 O   0  0  0  0  0  0  0  0  0  0  0  0
   61.0777  -16.5399    9.0757 O   0  0  0  0  0  0  0  0  0  0  0  0
   58.7030  -17.1218    8.5477 O   0  0  0  0  0  0  0  0  0  0  0  0
  2  1  2  0  0  0  0
  2  4  1  0  0  0  0
  3  2  1  0  0  0  0
  4  7  1  0  0  0  0
  4  5  2  0  0  0  0
  5  6  1  0  0  0  0
  5  9  1  0  0  0  0
  7  8  2  0  0  0  0
  8  9  1  0  0  0  0
 10  9  1  1  0  0  0
 10 15  1  0  0  0  0
 11 14  1  6  0  0  0
 11 12  1  0  0  0  0
 11 10  1  0  0  0  0
 12 13  1  6  0  0  0
 12 16  1  0  0  0  0
 16 17  1  1  0  0  0
 16 15  1  0  0  0  0
 18 19  1  0  0  0  0
 18 17  1  0  0  0  0
 19 21  1  0  0  0  0
 20 19  1  0  0  0  0
 22 19  2  0  0  0  0
M  END
>  <CHROM.1>
-0.70070959,123.46719299,-54.83521342,-176.54156357,-77.42816235,59.58250475
-12.53380599,10.12521452,1.78447820,-0.07357624,0.09945942

>  <Name>
lig.pdb

>  <RI>
0

>  <Rbt.Current_Directory>
/home/itssahil/PROJECTS/Mol_Feturizer/New_Systems/rnas/4znp

>  <Rbt.Executable>
rbdock ($Id: //depot/dev/client3/rdock/2013.1/src/exe/rbdock.cxx#4 $)

>  <Rbt.Library>
libRbt.so (2013.1, Build901 2013/11/27)

>  <Rbt.Parameter_File>
/export/apps/rDock/src/rDock_2013.1_src/data/scripts/dock_solv.prm

>  <Rbt.Receptor>
prm/pocket_docking_4.prm

>  <SCORE>
-17.9437

>  <SCORE.INTER>
-13.3664

>  <SCORE.INTER.CONST>
1

>  <SCORE.INTER.POLAR>
0

>  <SCORE.INTER.ROT>
5

>  <SCORE.INTER.SOLV>
16.211

>  <SCORE.INTER.VDW>
-21.2479

>  <SCORE.INTER.norm>
-0.607562

>  <SCORE.INTRA>
-4.98047

>  <SCORE.INTRA.DIHEDRAL>
-7.98201

>  <SCORE.INTRA.DIHEDRAL.0>
11.9251

>  <SCORE.INTRA.POLAR>
0

>  <SCORE.INTRA.POLAR.0>
0

>  <SCORE.INTRA.REPUL>
0

>  <SCORE.INTRA.REPUL.0>
0

>  <SCORE.INTRA.SOLV>
0.690032

>  <SCORE.INTRA.SOLV.lig_0>
-40.9823

>  <SCORE.INTRA.VDW>
-1.33448

>  <SCORE.INTRA.VDW.0>
-0.53506

>  <SCORE.INTRA.norm>
-0.226385

>  <SCORE.RESTR>
0.403136

>  <SCORE.RESTR.CAVITY>
0.403136

>  <SCORE.RESTR.norm>
0.0183244

>  <SCORE.SYSTEM>
0

>  <SCORE.SYSTEM.CONST>
0

>  <SCORE.SYSTEM.DIHEDRAL>
0

>  <SCORE.SYSTEM.SOLV>
0

>  <SCORE.SYSTEM.norm>
0

>  <SCORE.heavy>
22

>  <SCORE.norm>
-0.815622

>  <RMSD>
6.799

$$$$
lig.pdb
 OpenBabel11021811523D
libRbt.so/2013.1/901 2013/11/27
 22 23  0  0  0  0  0  0  0  0999 V2000
   56.0689   -6.2698   10.5745 O   0  0  0  0  0  0  0  0  0  0  0  0
   56.1621   -7.3273   11.1519 C   0  0  0  0  0  0  0  0  0  0  0  0
   55.3223   -7.6803   12.1089 N   0  0  0  0  0  0  0  0  0  0  0  0
   57.2603   -8.2494   10.8293 C   0  0  0  0  0  0  0  0  0  0  0  0
   58.2847   -8.0117    9.8099 C   0  0  0  0  0  0  0  0  0  0  0  0
   58.3590   -6.9274    9.0085 N   0  0  0  0  0  0  0  0  0  0  0  0
   57.5761   -9.4478   11.3456 N   0  0  0  0  0  0  0  0  0  0  0  0
   58.7028   -9.9002   10.7287 C   0  0  0  0  0  0  0  0  0  0  0  0
   59.1437   -9.0246    9.7938 N   0  0  0  0  0  0  0  0  0  0  0  0
   60.3452   -9.2008    8.9331 C   0  0  1  0  0  0  0  0  0  0  0  0
   61.5922   -9.0128    9.7697 C   0  0  1  0  0  0  0  0  0  0  0  0
   62.5429  -10.0533    9.2370 C   0  0  2  0  0  0  0  0  0  0  0  0
   63.3321   -9.4941    8.1793 O   0  0  0  0  0  0  0  0  0  0  0  0
   62.1097   -7.6801    9.6336 O   0  0  0  0  0  0  0  0  0  0  0  0
   60.4039  -10.5346    8.4338 O   0  0  0  0  0  0  0  0  0  0  0  0
   61.6595  -11.1288    8.6601 C   0  0  2  0  0  0  0  0  0  0  0  0
   61.4005  -12.3263    9.5508 C   0  0  0  0  0  0  0  0  0  0  0  0
   60.3992  -13.1678    9.0168 O   0  0  0  0  0  0  0  0  0  0  0  0
   59.9405  -14.4420    9.8645 P   0  0  0  0  0  0  0  0  0  0  0  0
   59.6540  -13.9070   11.2533 O   0  0  0  0  0  0  0  0  0  0  0  0
   61.1458  -15.3408    9.7642 O   0  0  0  0  0  0  0  0  0  0  0  0
   58.7659  -14.9708    9.0890 O   0  0  0  0  0  0  0  0  0  0  0  0
  2  1  2  0  0  0  0
  2  4  1  0  0  0  0
  3  2  1  0  0  0  0
  4  7  1  0  0  0  0
  4  5  2  0  0  0  0
  5  6  1  0  0  0  0
  5  9  1  0  0  0  0
  7  8  2  0  0  0  0
  8  9  1  0  0  0  0
 10  9  1  1  0  0  0
 10 15  1  0  0  0  0
 11 14  1  6  0  0  0
 11 12  1  0  0  0  0
 11 10  1  0  0  0  0
 12 13  1  6  0  0  0
 12 16  1  0  0  0  0
 16 17  1  1  0  0  0
 16 15  1  0  0  0  0
 18 19  1  0  0  0  0
 18 17  1  0  0  0  0
 19 21  1  0  0  0  0
 20 19  1  0  0  0  0
 22 19  2  0  0  0  0
M  END
>  <CHROM.1>
-1.35302870,107.81495214,170.44151778,49.90214859,-176.78445140,59.62702099
-10.51171944,9.82723766,2.07615071,0.38235946,-0.04364740

>  <Name>
lig.pdb

>  <RI>
0

>  <Rbt.Current_Directory>
/home/itssahil/PROJECTS/Mol_Feturizer/New_Systems/rnas/4znp

>  <Rbt.Executable>
rbdock ($Id: //depot/dev/client3/rdock/2013.1/src/exe/rbdock.cxx#4 $)

>  <Rbt.Library>
libRbt.so (2013.1, Build901 2013/11/27)

>  <Rbt.Parameter_File>
/export/apps/rDock/src/rDock_2013.1_src/data/scripts/dock_solv.prm

>  <Rbt.Receptor>
prm/pocket_docking_5.prm

>  <SCORE>
-12.3145

>  <SCORE.INTER>
-6.19588

>  <SCORE.INTER.CONST>
1

>  <SCORE.INTER.POLAR>
0

>  <SCORE.INTER.ROT>
5

>  <SCORE.INTER.SOLV>
11.2895

>  <SCORE.INTER.VDW>
-14.8271

>  <SCORE.INTER.norm>
-0.281631

>  <SCORE.INTRA>
-6.11864

>  <SCORE.INTRA.DIHEDRAL>
-9.01136

>  <SCORE.INTRA.DIHEDRAL.0>
11.9251

>  <SCORE.INTRA.POLAR>
0

>  <SCORE.INTRA.POLAR.0>
0

>  <SCORE.INTRA.REPUL>
0

>  <SCORE.INTRA.REPUL.0>
0

>  <SCORE.INTRA.SOLV>
-0.248557

>  <SCORE.INTRA.SOLV.lig_0>
-40.9823

>  <SCORE.INTRA.VDW>
-1.48869

>  <SCORE.INTRA.VDW.0>
-0.53506

>  <SCORE.INTRA.norm>
-0.27812

>  <SCORE.RESTR>
0

>  <SCORE.RESTR.CAVITY>
0

>  <SCORE.RESTR.norm>
0

>  <SCORE.SYSTEM>
0

>  <SCORE.SYSTEM.CONST>
0

>  <SCORE.SYSTEM.DIHEDRAL>
0

>  <SCORE.SYSTEM.SOLV>
0

>  <SCORE.SYSTEM.norm>
0

>  <SCORE.heavy>
22

>  <SCORE.norm>
-0.559751

>  <RMSD>
6.815

$$$$
lig.pdb
 OpenBabel11021811523D
libRbt.so/2013.1/901 2013/11/27
 22 23  0  0  0  0  0  0  0  0999 V2000
   60.6945   -8.5295    6.7110 O   0  0  0  0  0  0  0  0  0  0  0  0
   61.5281   -7.9412    7.3586 C   0  0  0  0  0  0  0  0  0  0  0  0
   62.2620   -6.9715    6.8419 N   0  0  0  0  0  0  0  0  0  0  0  0
   61.7842   -8.3252    8.7540 C   0  0  0  0  0  0  0  0  0  0  0  0
   61.1149   -9.4199    9.4604 C   0  0  0  0  0  0  0  0  0  0  0  0
   60.1569  -10.2189    8.9435 N   0  0  0  0  0  0  0  0  0  0  0  0
   62.6282   -7.8100    9.6621 N   0  0  0  0  0  0  0  0  0  0  0  0
   62.5168   -8.5302   10.8126 C   0  0  0  0  0  0  0  0  0  0  0  0
   61.5983   -9.5187   10.6936 N   0  0  0  0  0  0  0  0  0  0  0  0
   61.2240  -10.4925   11.7552 C   0  0  1  0  0  0  0  0  0  0  0  0
   59.7510  -10.3474   12.0705 C   0  0  1  0  0  0  0  0  0  0  0  0
   59.2885  -11.7649   12.2879 C   0  0  2  0  0  0  0  0  0  0  0  0
   59.4126  -12.1092   13.6736 O   0  0  0  0  0  0  0  0  0  0  0  0
   59.5493   -9.5239   13.2297 O   0  0  0  0  0  0  0  0  0  0  0  0
   61.3960  -11.8269   11.2845 O   0  0  0  0  0  0  0  0  0  0  0  0
   60.2479  -12.6134   11.4944 C   0  0  2  0  0  0  0  0  0  0  0  0
   59.7776  -13.0413   10.1196 C   0  0  0  0  0  0  0  0  0  0  0  0
   60.5230  -14.1371    9.6301 O   0  0  0  0  0  0  0  0  0  0  0  0
   62.0249  -13.8842    9.1474 P   0  0  0  0  0  0  0  0  0  0  0  0
   62.8028  -13.6008   10.4168 O   0  0  0  0  0  0  0  0  0  0  0  0
   61.8666  -12.7064    8.2209 O   0  0  0  0  0  0  0  0  0  0  0  0
   62.3710  -15.1489    8.4115 O   0  0  0  0  0  0  0  0  0  0  0  0
  2  1  2  0  0  0  0
  2  4  1  0  0  0  0
  3  2  1  0  0  0  0
  4  7  1  0  0  0  0
  4  5  2  0  0  0  0
  5  6  1  0  0  0  0
  5  9  1  0  0  0  0
  7  8  2  0  0  0  0
  8  9  1  0  0  0  0
 10  9  1  6  0  0  0
 10 15  1  0  0  0  0
 11 14  1  1  0  0  0
 11 12  1  0  0  0  0
 11 10  1  0  0  0  0
 12 13  1  1  0  0  0
 12 16  1  0  0  0  0
 16 17  1  6  0  0  0
 16 15  1  0  0  0  0
 18 19  1  0  0  0  0
 18 17  1  0  0  0  0
 19 21  1  0  0  0  0
 20 19  1  0  0  0  0
 22 19  2  0  0  0  0
M  END
>  <CHROM.1>
1.34662986,-59.79444734,-161.77936435,70.13636066,-72.96103979,61.16045654
-11.10405562,10.00885473,-1.30372633,-1.17540863,3.02756583

>  <Name>
lig.pdb

>  <RI>
0

>  <Rbt.Current_Directory>
/home/itssahil/PROJECTS/Mol_Feturizer/New_Systems/rnas/4znp

>  <Rbt.Executable>
rbdock ($Id: //depot/dev/client3/rdock/2013.1/src/exe/rbdock.cxx#4 $)

>  <Rbt.Library>
libRbt.so (2013.1, Build901 2013/11/27)

>  <Rbt.Parameter_File>
/export/apps/rDock/src/rDock_2013.1_src/data/scripts/dock_solv.prm

>  <Rbt.Receptor>
prm/pocket_docking_6.prm

>  <SCORE>
-11.2805

>  <SCORE.INTER>
-7.2002

>  <SCORE.INTER.CONST>
1

>  <SCORE.INTER.POLAR>
0

>  <SCORE.INTER.ROT>
5

>  <SCORE.INTER.SOLV>
12.7633

>  <SCORE.INTER.VDW>
-15.9879

>  <SCORE.INTER.norm>
-0.327282

>  <SCORE.INTRA>
-4.08154

>  <SCORE.INTRA.DIHEDRAL>
-7.40169

>  <SCORE.INTRA.DIHEDRAL.0>
11.9251

>  <SCORE.INTRA.POLAR>
0

>  <SCORE.INTRA.POLAR.0>
0

>  <SCORE.INTRA.REPUL>
0

>  <SCORE.INTRA.REPUL.0>
0

>  <SCORE.INTRA.SOLV>
2.68196

>  <SCORE.INTRA.SOLV.lig_0>
-40.9823

>  <SCORE.INTRA.VDW>
-1.72168

>  <SCORE.INTRA.VDW.0>
-0.53506

>  <SCORE.INTRA.norm>
-0.185524

>  <SCORE.RESTR>
0.00123234

>  <SCORE.RESTR.CAVITY>
0.00123234

>  <SCORE.RESTR.norm>
5.60154e-05

>  <SCORE.SYSTEM>
0

>  <SCORE.SYSTEM.CONST>
0

>  <SCORE.SYSTEM.DIHEDRAL>
0

>  <SCORE.SYSTEM.SOLV>
0

>  <SCORE.SYSTEM.norm>
0

>  <SCORE.heavy>
22

>  <SCORE.norm>
-0.51275

>  <RMSD>
6.837

$$$$
lig.pdb
 OpenBabel11021811523D
libRbt.so/2013.1/901 2013/11/27
 22 23  0  0  0  0  0  0  0  0999 V2000
   58.0731   -6.1318    7.9154 O   0  0  0  0  0  0  0  0  0  0  0  0
   58.5302   -7.0373    8.5724 C   0  0  0  0  0  0  0  0  0  0  0  0
   57.8751   -7.5648    9.5913 N   0  0  0  0  0  0  0  0  0  0  0  0
   59.8728   -7.5577    8.2775 C   0  0  0  0  0  0  0  0  0  0  0  0
   60.5389   -8.6314    9.0183 C   0  0  0  0  0  0  0  0  0  0  0  0
   60.0293   -9.2829   10.0856 N   0  0  0  0  0  0  0  0  0  0  0  0
   60.7580   -7.2075    7.3309 N   0  0  0  0  0  0  0  0  0  0  0  0
   61.8565   -8.0034    7.4515 C   0  0  0  0  0  0  0  0  0  0  0  0
   61.7261   -8.8792    8.4766 N   0  0  0  0  0  0  0  0  0  0  0  0
   62.7349   -9.8922    8.8907 C   0  0  1  0  0  0  0  0  0  0  0  0
   62.6014  -10.1538   10.3753 C   0  0  1  0  0  0  0  0  0  0  0  0
   62.8279  -11.6381   10.5007 C   0  0  2  0  0  0  0  0  0  0  0  0
   64.2202  -11.9004   10.7174 O   0  0  0  0  0  0  0  0  0  0  0  0
   63.5609   -9.3902   11.1228 O   0  0  0  0  0  0  0  0  0  0  0  0
   62.4773  -11.1377    8.2472 O   0  0  0  0  0  0  0  0  0  0  0  0
   62.4347  -12.2064    9.1620 C   0  0  2  0  0  0  0  0  0  0  0  0
   61.0366  -12.7816    9.0677 C   0  0  0  0  0  0  0  0  0  0  0  0
   60.9684  -14.0816    9.6167 O   0  0  0  0  0  0  0  0  0  0  0  0
   59.5634  -14.6046   10.1688 P   0  0  0  0  0  0  0  0  0  0  0  0
   59.7589  -16.0904   10.3949 O   0  0  0  0  0  0  0  0  0  0  0  0
   58.6275  -14.2493    9.0425 O   0  0  0  0  0  0  0  0  0  0  0  0
   59.3344  -13.7599   11.3915 O   0  0  0  0  0  0  0  0  0  0  0  0
  2  1  2  0  0  0  0
  2  4  1  0  0  0  0
  3  2  1  0  0  0  0
  4  7  1  0  0  0  0
  4  5  2  0  0  0  0
  5  6  1  0  0  0  0
  5  9  1  0  0  0  0
  7  8  2  0  0  0  0
  8  9  1  0  0  0  0
 10  9  1  6  0  0  0
 10 15  1  0  0  0  0
 11 14  1  1  0  0  0
 11 12  1  0  0  0  0
 11 10  1  0  0  0  0
 12 13  1  6  0  0  0
 12 16  1  0  0  0  0
 16 17  1  1  0  0  0
 16 15  1  0  0  0  0
 18 19  1  0  0  0  0
 18 17  1  0  0  0  0
 19 21  1  0  0  0  0
 20 19  1  0  0  0  0
 22 19  2  0  0  0  0
M  END
>  <CHROM.1>
178.81480398,-28.44247266,-79.77679459,168.04544472,154.68817316,60.81244418
-10.88999052,9.41640487,1.61219914,-0.12883054,-0.23673137

>  <Name>
lig.pdb

>  <RI>
0

>  <Rbt.Current_Directory>
/home/itssahil/PROJECTS/Mol_Feturizer/New_Systems/rnas/4znp

>  <Rbt.Executable>
rbdock ($Id: //depot/dev/client3/rdock/2013.1/src/exe/rbdock.cxx#4 $)

>  <Rbt.Library>
libRbt.so (2013.1, Build901 2013/11/27)

>  <Rbt.Parameter_File>
/export/apps/rDock/src/rDock_2013.1_src/data/scripts/dock_solv.prm

>  <Rbt.Receptor>
prm/pocket_docking_4.prm

>  <SCORE>
-14.3712

>  <SCORE.INTER>
-11.7296

>  <SCORE.INTER.CONST>
1

>  <SCORE.INTER.POLAR>
0

>  <SCORE.INTER.ROT>
5

>  <SCORE.INTER.SOLV>
15.6979

>  <SCORE.INTER.VDW>
-19.9857

>  <SCORE.INTER.norm>
-0.533165

>  <SCORE.INTRA>
-2.64158

>  <SCORE.INTRA.DIHEDRAL>
-5.32173

>  <SCORE.INTRA.DIHEDRAL.0>
11.9251

>  <SCORE.INTRA.POLAR>
0

>  <SCORE.INTRA.POLAR.0>
0

>  <SCORE.INTRA.REPUL>
0

>  <SCORE.INTRA.REPUL.0>
0

>  <SCORE.INTRA.SOLV>
1.49133

>  <SCORE.INTRA.SOLV.lig_0>
-40.9823

>  <SCORE.INTRA.VDW>
-0.72638

>  <SCORE.INTRA.VDW.0>
-0.53506

>  <SCORE.INTRA.norm>
-0.120072

>  <SCORE.RESTR>
0

>  <SCORE.RESTR.CAVITY>
0

>  <SCORE.RESTR.norm>
0

>  <SCORE.SYSTEM>
0

>  <SCORE.SYSTEM.CONST>
0

>  <SCORE.SYSTEM.DIHEDRAL>
0

>  <SCORE.SYSTEM.SOLV>
0

>  <SCORE.SYSTEM.norm>
0

>  <SCORE.heavy>
22

>  <SCORE.norm>
-0.653236

>  <RMSD>
6.856

$$$$
lig.pdb
 OpenBabel11021811523D
libRbt.so/2013.1/901 2013/11/27
 22 23  0  0  0  0  0  0  0  0999 V2000
   58.9082   -6.0672    7.4924 O   0  0  0  0  0  0  0  0  0  0  0  0
   59.8328   -6.3529    8.2163 C   0  0  0  0  0  0  0  0  0  0  0  0
   60.3283   -5.4967    9.0921 N   0  0  0  0  0  0  0  0  0  0  0  0
   60.4725   -7.6718    8.1099 C   0  0  0  0  0  0  0  0  0  0  0  0
   61.5271   -8.1680    8.9970 C   0  0  0  0  0  0  0  0  0  0  0  0
   62.0766   -7.4841   10.0235 N   0  0  0  0  0  0  0  0  0  0  0  0
   60.2691   -8.6749    7.2410 N   0  0  0  0  0  0  0  0  0  0  0  0
   61.0953   -9.7060    7.5709 C   0  0  0  0  0  0  0  0  0  0  0  0
   61.8619   -9.4046    8.6463 N   0  0  0  0  0  0  0  0  0  0  0  0
   62.8730  -10.2989    9.2736 C   0  0  1  0  0  0  0  0  0  0  0  0
   62.3580  -10.7732   10.6152 C   0  0  1  0  0  0  0  0  0  0  0  0
   62.8085  -12.2093   10.6861 C   0  0  2  0  0  0  0  0  0  0  0  0
   64.0980  -12.2837   11.3071 O   0  0  0  0  0  0  0  0  0  0  0  0
   62.8950   -9.9794   11.6848 O   0  0  0  0  0  0  0  0  0  0  0  0
   63.0525  -11.4720    8.4841 O   0  0  0  0  0  0  0  0  0  0  0  0
   62.9406  -12.6471    9.2505 C   0  0  2  0  0  0  0  0  0  0  0  0
   61.7647  -13.4100    8.6764 C   0  0  0  0  0  0  0  0  0  0  0  0
   60.5500  -12.7118    8.8579 O   0  0  0  0  0  0  0  0  0  0  0  0
   59.4923  -13.2806    9.9115 P   0  0  0  0  0  0  0  0  0  0  0  0
   60.2933  -13.5379   11.1720 O   0  0  0  0  0  0  0  0  0  0  0  0
   58.9847  -14.5172    9.2157 O   0  0  0  0  0  0  0  0  0  0  0  0
   58.4535  -12.1959    9.9812 O   0  0  0  0  0  0  0  0  0  0  0  0
  2  1  2  0  0  0  0
  2  4  1  0  0  0  0
  3  2  1  0  0  0  0
  4  7  1  0  0  0  0
  4  5  2  0  0  0  0
  5  6  1  0  0  0  0
  5  9  1  0  0  0  0
  7  8  2  0  0  0  0
  8  9  1  0  0  0  0
 10  9  1  6  0  0  0
 10 15  1  0  0  0  0
 11 14  1  1  0  0  0
 11 12  1  0  0  0  0
 11 10  1  0  0  0  0
 12 13  1  6  0  0  0
 12 16  1  0  0  0  0
 16 17  1  6  0  0  0
 16 15  1  0  0  0  0
 18 19  1  0  0  0  0
 18 17  1  0  0  0  0
 19 21  1  0  0  0  0
 20 19  1  0  0  0  0
 22 19  2  0  0  0  0
M  END
>  <CHROM.1>
-175.04217102,71.68319461,52.85984435,49.11388449,-109.06445844,61.11323570
-10.63016196,9.36319019,1.64886814,-0.36986527,-0.21945179

>  <Name>
lig.pdb

>  <RI>
0

>  <Rbt.Current_Directory>
/home/itssahil/PROJECTS/Mol_Feturizer/New_Systems/rnas/4znp

>  <Rbt.Executable>
rbdock ($Id: //depot/dev/client3/rdock/2013.1/src/exe/rbdock.cxx#4 $)

>  <Rbt.Library>
libRbt.so (2013.1, Build901 2013/11/27)

>  <Rbt.Parameter_File>
/export/apps/rDock/src/rDock_2013.1_src/data/scripts/dock_solv.prm

>  <Rbt.Receptor>
prm/pocket_docking_4.prm

>  <SCORE>
-12.6871

>  <SCORE.INTER>
-10.0082

>  <SCORE.INTER.CONST>
1

>  <SCORE.INTER.POLAR>
0

>  <SCORE.INTER.ROT>
5

>  <SCORE.INTER.SOLV>
12.782

>  <SCORE.INTER.VDW>
-17.8662

>  <SCORE.INTER.norm>
-0.454919

>  <SCORE.INTRA>
-2.67893

>  <SCORE.INTRA.DIHEDRAL>
-2.43053

>  <SCORE.INTRA.DIHEDRAL.0>
11.9251

>  <SCORE.INTRA.POLAR>
0

>  <SCORE.INTRA.POLAR.0>
0

>  <SCORE.INTRA.REPUL>
0

>  <SCORE.INTRA.REPUL.0>
0

>  <SCORE.INTRA.SOLV>
2.02815

>  <SCORE.INTRA.SOLV.lig_0>
-40.9823

>  <SCORE.INTRA.VDW>
-2.47774

>  <SCORE.INTRA.VDW.0>
-0.53506

>  <SCORE.INTRA.norm>
-0.121769

>  <SCORE.RESTR>
0

>  <SCORE.RESTR.CAVITY>
0

>  <SCORE.RESTR.norm>
0

>  <SCORE.SYSTEM>
0

>  <SCORE.SYSTEM.CONST>
0

>  <SCORE.SYSTEM.DIHEDRAL>
0

>  <SCORE.SYSTEM.SOLV>
0

>  <SCORE.SYSTEM.norm>
0

>  <SCORE.heavy>
22

>  <SCORE.norm>
-0.576688

>  <RMSD>
6.878

$$$$
lig.pdb
 OpenBabel11021811523D
libRbt.so/2013.1/901 2013/11/27
 22 23  0  0  0  0  0  0  0  0999 V2000
   56.9833   -6.5592   10.4516 O   0  0  0  0  0  0  0  0  0  0  0  0
   58.0109   -6.9846    9.9788 C   0  0  0  0  0  0  0  0  0  0  0  0
   58.8304   -6.2200    9.2792 N   0  0  0  0  0  0  0  0  0  0  0  0
   58.3628   -8.4031   10.1350 C   0  0  0  0  0  0  0  0  0  0  0  0
   59.5833   -9.0275    9.6194 C   0  0  0  0  0  0  0  0  0  0  0  0
   60.5483   -8.4007    8.9128 N   0  0  0  0  0  0  0  0  0  0  0  0
   57.7062   -9.4055   10.7403 N   0  0  0  0  0  0  0  0  0  0  0  0
   58.4565  -10.5374   10.6371 C   0  0  0  0  0  0  0  0  0  0  0  0
   59.6070  -10.3114    9.9587 N   0  0  0  0  0  0  0  0  0  0  0  0
   60.6566  -11.3241    9.6620 C   0  0  1  0  0  0  0  0  0  0  0  0
   61.2331  -11.8429   10.9614 C   0  0  1  0  0  0  0  0  0  0  0  0
   61.4417  -13.3123   10.7010 C   0  0  2  0  0  0  0  0  0  0  0  0
   62.7608  -13.5318   10.1854 O   0  0  0  0  0  0  0  0  0  0  0  0
   62.4575  -11.1678   11.2896 O   0  0  0  0  0  0  0  0  0  0  0  0
   60.0830  -12.4531    9.0076 O   0  0  0  0  0  0  0  0  0  0  0  0
   60.4424  -13.6634    9.6294 C   0  0  2  0  0  0  0  0  0  0  0  0
   59.1478  -14.2890   10.1057 C   0  0  0  0  0  0  0  0  0  0  0  0
   59.3553  -15.5847   10.6294 O   0  0  0  0  0  0  0  0  0  0  0  0
   59.7295  -16.7653    9.6201 P   0  0  0  0  0  0  0  0  0  0  0  0
   61.0855  -16.3868    9.0588 O   0  0  0  0  0  0  0  0  0  0  0  0
   58.5931  -16.7104    8.6319 O   0  0  0  0  0  0  0  0  0  0  0  0
   59.6760  -17.9930   10.4864 O   0  0  0  0  0  0  0  0  0  0  0  0
  2  1  2  0  0  0  0
  2  4  1  0  0  0  0
  3  2  1  0  0  0  0
  4  7  1  0  0  0  0
  4  5  2  0  0  0  0
  5  6  1  0  0  0  0
  5  9  1  0  0  0  0
  7  8  2  0  0  0  0
  8  9  1  0  0  0  0
 10  9  1  1  0  0  0
 10 15  1  0  0  0  0
 11 14  1  6  0  0  0
 11 12  1  0  0  0  0
 11 10  1  0  0  0  0
 12 13  1  6  0  0  0
 12 16  1  0  0  0  0
 16 17  1  1  0  0  0
 16 15  1  0  0  0  0
 18 19  1  0  0  0  0
 18 17  1  0  0  0  0
 19 21  1  0  0  0  0
 20 19  1  0  0  0  0
 22 19  2  0  0  0  0
M  END
>  <CHROM.1>
-179.34420191,118.42657889,-68.20709824,64.99031149,-70.65175959,59.78713112
-12.26725553,9.96226543,1.73037902,-0.10220122,0.04106861

>  <Name>
lig.pdb

>  <RI>
0

>  <Rbt.Current_Directory>
/home/itssahil/PROJECTS/Mol_Feturizer/New_Systems/rnas/4znp

>  <Rbt.Executable>
rbdock ($Id: //depot/dev/client3/rdock/2013.1/src/exe/rbdock.cxx#4 $)

>  <Rbt.Library>
libRbt.so (2013.1, Build901 2013/11/27)

>  <Rbt.Parameter_File>
/export/apps/rDock/src/rDock_2013.1_src/data/scripts/dock_solv.prm

>  <Rbt.Receptor>
prm/pocket_docking_3.prm

>  <SCORE>
-16.8132

>  <SCORE.INTER>
-11.5024

>  <SCORE.INTER.CONST>
1

>  <SCORE.INTER.POLAR>
0

>  <SCORE.INTER.ROT>
5

>  <SCORE.INTER.SOLV>
16.4175

>  <SCORE.INTER.VDW>
-20.0741

>  <SCORE.INTER.norm>
-0.522837

>  <SCORE.INTRA>
-5.37961

>  <SCORE.INTRA.DIHEDRAL>
-8.65718

>  <SCORE.INTRA.DIHEDRAL.0>
11.9251

>  <SCORE.INTRA.POLAR>
0

>  <SCORE.INTRA.POLAR.0>
0

>  <SCORE.INTRA.REPUL>
0

>  <SCORE.INTRA.REPUL.0>
0

>  <SCORE.INTRA.SOLV>
0.65225

>  <SCORE.INTRA.SOLV.lig_0>
-40.9823

>  <SCORE.INTRA.VDW>
-1.37715

>  <SCORE.INTRA.VDW.0>
-0.53506

>  <SCORE.INTRA.norm>
-0.244528

>  <SCORE.RESTR>
0.0688296

>  <SCORE.RESTR.CAVITY>
0.0688296

>  <SCORE.RESTR.norm>
0.00312862

>  <SCORE.SYSTEM>
0

>  <SCORE.SYSTEM.CONST>
0

>  <SCORE.SYSTEM.DIHEDRAL>
0

>  <SCORE.SYSTEM.SOLV>
0

>  <SCORE.SYSTEM.norm>
0

>  <SCORE.heavy>
22

>  <SCORE.norm>
-0.764237

>  <RMSD>
6.906

$$$$
lig.pdb
 OpenBabel11021811523D
libRbt.so/2013.1/901 2013/11/27
 22 23  0  0  0  0  0  0  0  0999 V2000
   60.8866   -9.7657   15.6435 O   0  0  0  0  0  0  0  0  0  0  0  0
   60.0003  -10.5556   15.4175 C   0  0  0  0  0  0  0  0  0  0  0  0
   59.0807  -10.8544   16.3179 N   0  0  0  0  0  0  0  0  0  0  0  0
   59.9454  -11.2522   14.1245 C   0  0  0  0  0  0  0  0  0  0  0  0
   60.6969  -10.8642   12.9286 C   0  0  0  0  0  0  0  0  0  0  0  0
   61.5295   -9.8054   12.8331 N   0  0  0  0  0  0  0  0  0  0  0  0
   59.2471  -12.3334   13.7426 N   0  0  0  0  0  0  0  0  0  0  0  0
   59.5544  -12.6095   12.4448 C   0  0  0  0  0  0  0  0  0  0  0  0
   60.4439  -11.7191   11.9440 N   0  0  0  0  0  0  0  0  0  0  0  0
   60.9953  -11.7221   10.5615 C   0  0  1  0  0  0  0  0  0  0  0  0
   62.4713  -12.0524   10.6120 C   0  0  1  0  0  0  0  0  0  0  0  0
   62.6840  -12.9334    9.4083 C   0  0  2  0  0  0  0  0  0  0  0  0
   63.0408  -12.1307    8.2758 O   0  0  0  0  0  0  0  0  0  0  0  0
   63.2696  -10.8596   10.5631 O   0  0  0  0  0  0  0  0  0  0  0  0
   60.3874  -12.7547    9.7895 O   0  0  0  0  0  0  0  0  0  0  0  0
   61.3415  -13.5647    9.1458 C   0  0  2  0  0  0  0  0  0  0  0  0
   61.1436  -14.9617    9.6970 C   0  0  0  0  0  0  0  0  0  0  0  0
   59.9330  -15.5343    9.2468 O   0  0  0  0  0  0  0  0  0  0  0  0
   59.7623  -17.1208    9.3274 P   0  0  0  0  0  0  0  0  0  0  0  0
   59.7907  -17.4440   10.8078 O   0  0  0  0  0  0  0  0  0  0  0  0
   60.9548  -17.6085    8.5459 O   0  0  0  0  0  0  0  0  0  0  0  0
   58.4659  -17.3678    8.6070 O   0  0  0  0  0  0  0  0  0  0  0  0
  2  1  2  0  0  0  0
  2  4  1  0  0  0  0
  3  2  1  0  0  0  0
  4  7  1  0  0  0  0
  4  5  2  0  0  0  0
  5  6  1  0  0  0  0
  5  9  1  0  0  0  0
  7  8  2  0  0  0  0
  8  9  1  0  0  0  0
 10  9  1  1  0  0  0
 10 15  1  0  0  0  0
 11 14  1  6  0  0  0
 11 12  1  0  0  0  0
 11 10  1  0  0  0  0
 12 13  1  6  0  0  0
 12 16  1  0  0  0  0
 16 17  1  1  0  0  0
 16 15  1  0  0  0  0
 18 19  1  0  0  0  0
 18 17  1  0  0  0  0
 19 21  1  0  0  0  0
 20 19  1  0  0  0  0
 22 19  2  0  0  0  0
M  END
>  <CHROM.1>
-14.99504027,68.22603603,-171.95963165,64.54485037,160.93730437,60.66639455
-13.30573698,11.16456090,1.49840988,0.85739441,0.76060916

>  <Name>
lig.pdb

>  <RI>
0

>  <Rbt.Current_Directory>
/home/itssahil/PROJECTS/Mol_Feturizer/New_Systems/rnas/4znp

>  <Rbt.Executable>
rbdock ($Id: //depot/dev/client3/rdock/2013.1/src/exe/rbdock.cxx#4 $)

>  <Rbt.Library>
libRbt.so (2013.1, Build901 2013/11/27)

>  <Rbt.Parameter_File>
/export/apps/rDock/src/rDock_2013.1_src/data/scripts/dock_solv.prm

>  <Rbt.Receptor>
prm/pocket_docking_6.prm

>  <SCORE>
-17.3979

>  <SCORE.INTER>
-12.9249

>  <SCORE.INTER.CONST>
1

>  <SCORE.INTER.POLAR>
0

>  <SCORE.INTER.ROT>
5

>  <SCORE.INTER.SOLV>
19.177

>  <SCORE.INTER.VDW>
-21.9422

>  <SCORE.INTER.norm>
-0.587494

>  <SCORE.INTRA>
-4.68939

>  <SCORE.INTRA.DIHEDRAL>
-6.93738

>  <SCORE.INTRA.DIHEDRAL.0>
11.9251

>  <SCORE.INTRA.POLAR>
0

>  <SCORE.INTRA.POLAR.0>
0

>  <SCORE.INTRA.REPUL>
0

>  <SCORE.INTRA.REPUL.0>
0

>  <SCORE.INTRA.SOLV>
0.0647221

>  <SCORE.INTRA.SOLV.lig_0>
-40.9823

>  <SCORE.INTRA.VDW>
-1.25306

>  <SCORE.INTRA.VDW.0>
-0.53506

>  <SCORE.INTRA.norm>
-0.213154

>  <SCORE.RESTR>
0.216369

>  <SCORE.RESTR.CAVITY>
0.216369

>  <SCORE.RESTR.norm>
0.00983496

>  <SCORE.SYSTEM>
0

>  <SCORE.SYSTEM.CONST>
0

>  <SCORE.SYSTEM.DIHEDRAL>
0

>  <SCORE.SYSTEM.SOLV>
0

>  <SCORE.SYSTEM.norm>
0

>  <SCORE.heavy>
22

>  <SCORE.norm>
-0.790813

>  <RMSD>
6.914

$$$$
lig.pdb
 OpenBabel11021811523D
libRbt.so/2013.1/901 2013/11/27
 22 23  0  0  0  0  0  0  0  0999 V2000
   60.9337   -9.7569   15.6658 O   0  0  0  0  0  0  0  0  0  0  0  0
   60.0571  -10.5574   15.4394 C   0  0  0  0  0  0  0  0  0  0  0  0
   59.1540  -10.8839   16.3468 N   0  0  0  0  0  0  0  0  0  0  0  0
   59.9965  -11.2359   14.1370 C   0  0  0  0  0  0  0  0  0  0  0  0
   60.7599  -10.8449   12.9497 C   0  0  0  0  0  0  0  0  0  0  0  0
   61.6105   -9.7991   12.8718 N   0  0  0  0  0  0  0  0  0  0  0  0
   59.2821  -12.3002   13.7378 N   0  0  0  0  0  0  0  0  0  0  0  0
   59.5906  -12.5643   12.4379 C   0  0  0  0  0  0  0  0  0  0  0  0
   60.4972  -11.6824   11.9528 N   0  0  0  0  0  0  0  0  0  0  0  0
   61.0548  -11.6766   10.5728 C   0  0  1  0  0  0  0  0  0  0  0  0
   62.5230  -12.0394   10.6246 C   0  0  1  0  0  0  0  0  0  0  0  0
   62.7223  -12.9066    9.4086 C   0  0  2  0  0  0  0  0  0  0  0  0
   63.1016  -12.0948    8.2900 O   0  0  0  0  0  0  0  0  0  0  0  0
   63.3472  -10.8636   10.5973 O   0  0  0  0  0  0  0  0  0  0  0  0
   60.4283  -12.6839    9.7826 O   0  0  0  0  0  0  0  0  0  0  0  0
   61.3677  -13.5046    9.1308 C   0  0  2  0  0  0  0  0  0  0  0  0
   61.1371  -14.9052    9.6598 C   0  0  0  0  0  0  0  0  0  0  0  0
   59.8954  -15.4269    9.2334 O   0  0  0  0  0  0  0  0  0  0  0  0
   59.6411  -16.9985    9.3667 P   0  0  0  0  0  0  0  0  0  0  0  0
   58.2475  -17.2191    8.8134 O   0  0  0  0  0  0  0  0  0  0  0  0
   59.7792  -17.2176   10.8512 O   0  0  0  0  0  0  0  0  0  0  0  0
   60.7791  -17.6016    8.5908 O   0  0  0  0  0  0  0  0  0  0  0  0
  2  1  2  0  0  0  0
  2  4  1  0  0  0  0
  3  2  1  0  0  0  0
  4  7  1  0  0  0  0
  4  5  2  0  0  0  0
  5  6  1  0  0  0  0
  5  9  1  0  0  0  0
  7  8  2  0  0  0  0
  8  9  1  0  0  0  0
 10  9  1  1  0  0  0
 10 15  1  0  0  0  0
 11 14  1  6  0  0  0
 11 12  1  0  0  0  0
 11 10  1  0  0  0  0
 12 13  1  6  0  0  0
 12 16  1  0  0  0  0
 16 17  1  1  0  0  0
 16 15  1  0  0  0  0
 18 19  1  0  0  0  0
 18 17  1  0  0  0  0
 19 21  1  0  0  0  0
 20 19  1  0  0  0  0
 22 19  2  0  0  0  0
M  END
>  <CHROM.1>
-12.88253817,68.52770326,-173.99761502,-179.28761186,164.43021475,60.66909895
-13.25202049,11.18853434,1.46769447,0.83848724,0.78852080

>  <Name>
lig.pdb

>  <RI>
0

>  <Rbt.Current_Directory>
/home/itssahil/PROJECTS/Mol_Feturizer/New_Systems/rnas/4znp

>  <Rbt.Executable>
rbdock ($Id: //depot/dev/client3/rdock/2013.1/src/exe/rbdock.cxx#4 $)

>  <Rbt.Library>
libRbt.so (2013.1, Build901 2013/11/27)

>  <Rbt.Parameter_File>
/export/apps/rDock/src/rDock_2013.1_src/data/scripts/dock_solv.prm

>  <Rbt.Receptor>
prm/pocket_docking_8.prm

>  <SCORE>
-17.4964

>  <SCORE.INTER>
-12.8129

>  <SCORE.INTER.CONST>
1

>  <SCORE.INTER.POLAR>
0

>  <SCORE.INTER.ROT>
5

>  <SCORE.INTER.SOLV>
19.3305

>  <SCORE.INTER.VDW>
-21.9187

>  <SCORE.INTER.norm>
-0.582404

>  <SCORE.INTRA>
-4.93639

>  <SCORE.INTRA.DIHEDRAL>
-7.78113

>  <SCORE.INTRA.DIHEDRAL.0>
11.9251

>  <SCORE.INTRA.POLAR>
0

>  <SCORE.INTRA.POLAR.0>
0

>  <SCORE.INTRA.REPUL>
0

>  <SCORE.INTRA.REPUL.0>
0

>  <SCORE.INTRA.SOLV>
0.351606

>  <SCORE.INTRA.SOLV.lig_0>
-40.9823

>  <SCORE.INTRA.VDW>
-1.22163

>  <SCORE.INTRA.VDW.0>
-0.53506

>  <SCORE.INTRA.norm>
-0.224382

>  <SCORE.RESTR>
0.252863

>  <SCORE.RESTR.CAVITY>
0.252863

>  <SCORE.RESTR.norm>
0.0114938

>  <SCORE.SYSTEM>
0

>  <SCORE.SYSTEM.CONST>
0

>  <SCORE.SYSTEM.DIHEDRAL>
0

>  <SCORE.SYSTEM.SOLV>
0

>  <SCORE.SYSTEM.norm>
0

>  <SCORE.heavy>
22

>  <SCORE.norm>
-0.795292

>  <RMSD>
6.934

$$$$
lig.pdb
 OpenBabel11021811523D
libRbt.so/2013.1/901 2013/11/27
 22 23  0  0  0  0  0  0  0  0999 V2000
   59.6180   -7.5753    9.9051 O   0  0  0  0  0  0  0  0  0  0  0  0
   59.1881   -8.1791   10.8596 C   0  0  0  0  0  0  0  0  0  0  0  0
   58.8872   -7.5739   11.9949 N   0  0  0  0  0  0  0  0  0  0  0  0
   59.0261   -9.6386   10.7971 C   0  0  0  0  0  0  0  0  0  0  0  0
   59.8063  -10.5345    9.9403 C   0  0  0  0  0  0  0  0  0  0  0  0
   60.7684  -10.1521    9.0735 N   0  0  0  0  0  0  0  0  0  0  0  0
   58.1881  -10.4545   11.4562 N   0  0  0  0  0  0  0  0  0  0  0  0
   58.4399  -11.7358   11.0696 C   0  0  0  0  0  0  0  0  0  0  0  0
   59.4314  -11.7916   10.1483 N   0  0  0  0  0  0  0  0  0  0  0  0
   59.9597  -13.0285    9.5109 C   0  0  1  0  0  0  0  0  0  0  0  0
   60.2701  -14.0506   10.5828 C   0  0  1  0  0  0  0  0  0  0  0  0
   59.8436  -15.3581    9.9674 C   0  0  2  0  0  0  0  0  0  0  0  0
   60.9479  -15.9512    9.2727 O   0  0  0  0  0  0  0  0  0  0  0  0
   61.6657  -14.0366   10.9216 O   0  0  0  0  0  0  0  0  0  0  0  0
   58.9641  -13.6201    8.6799 O   0  0  0  0  0  0  0  0  0  0  0  0
   58.7858  -14.9876    8.9605 C   0  0  2  0  0  0  0  0  0  0  0  0
   57.3496  -15.1364    9.4185 C   0  0  0  0  0  0  0  0  0  0  0  0
   56.5074  -15.5624    8.3672 O   0  0  0  0  0  0  0  0  0  0  0  0
   56.5770  -17.0899    7.9043 P   0  0  0  0  0  0  0  0  0  0  0  0
   58.0332  -17.4808    8.0582 O   0  0  0  0  0  0  0  0  0  0  0  0
   56.0848  -17.0134    6.4821 O   0  0  0  0  0  0  0  0  0  0  0  0
   55.5945  -17.7738    8.8141 O   0  0  0  0  0  0  0  0  0  0  0  0
  2  1  2  0  0  0  0
  2  4  1  0  0  0  0
  3  2  1  0  0  0  0
  4  7  1  0  0  0  0
  4  5  2  0  0  0  0
  5  6  1  0  0  0  0
  5  9  1  0  0  0  0
  7  8  2  0  0  0  0
  8  9  1  0  0  0  0
 10  9  1  1  0  0  0
 10 15  1  0  0  0  0
 11 14  1  6  0  0  0
 11 12  1  0  0  0  0
 11 10  1  0  0  0  0
 12 13  1  6  0  0  0
 12 16  1  0  0  0  0
 16 17  1  1  0  0  0
 16 15  1  0  0  0  0
 18 19  1  0  0  0  0
 18 17  1  0  0  0  0
 19 21  1  0  0  0  0
 20 19  1  0  0  0  0
 22 19  2  0  0  0  0
M  END
>  <CHROM.1>
26.57921789,131.13470701,-144.46285411,-35.07570700,74.96042708,58.66228036
-13.46846921,9.49343963,1.26763049,-0.27606247,0.23585605

>  <Name>
lig.pdb

>  <RI>
0

>  <Rbt.Current_Directory>
/home/itssahil/PROJECTS/Mol_Feturizer/New_Systems/rnas/4znp

>  <Rbt.Executable>
rbdock ($Id: //depot/dev/client3/rdock/2013.1/src/exe/rbdock.cxx#4 $)

>  <Rbt.Library>
libRbt.so (2013.1, Build901 2013/11/27)

>  <Rbt.Parameter_File>
/export/apps/rDock/src/rDock_2013.1_src/data/scripts/dock_solv.prm

>  <Rbt.Receptor>
prm/pocket_docking_2.prm

>  <SCORE>
-8.86829

>  <SCORE.INTER>
-7.34299

>  <SCORE.INTER.CONST>
1

>  <SCORE.INTER.POLAR>
0

>  <SCORE.INTER.ROT>
5

>  <SCORE.INTER.SOLV>
19.5544

>  <SCORE.INTER.VDW>
-18.3468

>  <SCORE.INTER.norm>
-0.333772

>  <SCORE.INTRA>
-1.53718

>  <SCORE.INTRA.DIHEDRAL>
-1.69703

>  <SCORE.INTRA.DIHEDRAL.0>
11.9251

>  <SCORE.INTRA.POLAR>
0

>  <SCORE.INTRA.POLAR.0>
0

>  <SCORE.INTRA.REPUL>
0

>  <SCORE.INTRA.REPUL.0>
0

>  <SCORE.INTRA.SOLV>
0.366265

>  <SCORE.INTRA.SOLV.lig_0>
-40.9823

>  <SCORE.INTRA.VDW>
-0.871798

>  <SCORE.INTRA.VDW.0>
-0.53506

>  <SCORE.INTRA.norm>
-0.0698719

>  <SCORE.RESTR>
0.0118802

>  <SCORE.RESTR.CAVITY>
0.0118802

>  <SCORE.RESTR.norm>
0.00054001

>  <SCORE.SYSTEM>
0

>  <SCORE.SYSTEM.CONST>
0

>  <SCORE.SYSTEM.DIHEDRAL>
0

>  <SCORE.SYSTEM.SOLV>
0

>  <SCORE.SYSTEM.norm>
0

>  <SCORE.heavy>
22

>  <SCORE.norm>
-0.403104

>  <RMSD>
6.973

$$$$
lig.pdb
 OpenBabel11021811523D
libRbt.so/2013.1/901 2013/11/27
 22 23  0  0  0  0  0  0  0  0999 V2000
   57.5933   -6.9756   10.8250 O   0  0  0  0  0  0  0  0  0  0  0  0
   58.4590   -7.6484   10.3167 C   0  0  0  0  0  0  0  0  0  0  0  0
   59.4388   -7.1135    9.6098 N   0  0  0  0  0  0  0  0  0  0  0  0
   58.4207   -9.1128   10.4364 C   0  0  0  0  0  0  0  0  0  0  0  0
   59.3562  -10.0335    9.7865 C   0  0  0  0  0  0  0  0  0  0  0  0
   60.3720   -9.6761    8.9718 N   0  0  0  0  0  0  0  0  0  0  0  0
   57.5843   -9.9130   11.1165 N   0  0  0  0  0  0  0  0  0  0  0  0
   57.9766  -11.2040   10.9319 C   0  0  0  0  0  0  0  0  0  0  0  0
   59.0620  -11.2836   10.1253 N   0  0  0  0  0  0  0  0  0  0  0  0
   59.7515  -12.5369    9.7137 C   0  0  1  0  0  0  0  0  0  0  0  0
   59.7893  -13.4949   10.8845 C   0  0  1  0  0  0  0  0  0  0  0  0
   59.5512  -14.8427   10.2542 C   0  0  2  0  0  0  0  0  0  0  0  0
   60.8041  -15.4408    9.8987 O   0  0  0  0  0  0  0  0  0  0  0  0
   61.0511  -13.4271   11.5672 O   0  0  0  0  0  0  0  0  0  0  0  0
   59.0098  -13.1956    8.6902 O   0  0  0  0  0  0  0  0  0  0  0  0
   58.7825  -14.5514    8.9916 C   0  0  2  0  0  0  0  0  0  0  0  0
   57.2789  -14.7146    9.0751 C   0  0  0  0  0  0  0  0  0  0  0  0
   56.9144  -16.0409    9.3975 O   0  0  0  0  0  0  0  0  0  0  0  0
   57.0556  -17.1666    8.2725 P   0  0  0  0  0  0  0  0  0  0  0  0
   58.5449  -17.4240    8.1595 O   0  0  0  0  0  0  0  0  0  0  0  0
   56.4320  -16.4981    7.0745 O   0  0  0  0  0  0  0  0  0  0  0  0
   56.2136  -18.2943    8.8017 O   0  0  0  0  0  0  0  0  0  0  0  0
  2  1  2  0  0  0  0
  2  4  1  0  0  0  0
  3  2  1  0  0  0  0
  4  7  1  0  0  0  0
  4  5  2  0  0  0  0
  5  6  1  0  0  0  0
  5  9  1  0  0  0  0
  7  8  2  0  0  0  0
  8  9  1  0  0  0  0
 10  9  1  1  0  0  0
 10 15  1  0  0  0  0
 11 14  1  6  0  0  0
 11 12  1  0  0  0  0
 11 10  1  0  0  0  0
 12 13  1  6  0  0  0
 12 16  1  0  0  0  0
 16 17  1  1  0  0  0
 16 15  1  0  0  0  0
 18 19  1  0  0  0  0
 18 17  1  0  0  0  0
 19 21  1  0  0  0  0
 20 19  1  0  0  0  0
 22 19  2  0  0  0  0
M  END
>  <CHROM.1>
175.44546991,141.87121787,-61.08422139,73.92720847,-73.81711397,58.50613490
-13.13381247,9.57067358,1.40270363,-0.36429189,0.14940251

>  <Name>
lig.pdb

>  <RI>
0

>  <Rbt.Current_Directory>
/home/itssahil/PROJECTS/Mol_Feturizer/New_Systems/rnas/4znp

>  <Rbt.Executable>
rbdock ($Id: //depot/dev/client3/rdock/2013.1/src/exe/rbdock.cxx#4 $)

>  <Rbt.Library>
libRbt.so (2013.1, Build901 2013/11/27)

>  <Rbt.Parameter_File>
/export/apps/rDock/src/rDock_2013.1_src/data/scripts/dock_solv.prm

>  <Rbt.Receptor>
prm/pocket_docking_8.prm

>  <SCORE>
-11.2568

>  <SCORE.INTER>
-6.44324

>  <SCORE.INTER.CONST>
1

>  <SCORE.INTER.POLAR>
0

>  <SCORE.INTER.ROT>
5

>  <SCORE.INTER.SOLV>
19.385

>  <SCORE.INTER.VDW>
-17.6905

>  <SCORE.INTER.norm>
-0.292875

>  <SCORE.INTRA>
-4.8136

>  <SCORE.INTRA.DIHEDRAL>
-8.18577

>  <SCORE.INTRA.DIHEDRAL.0>
11.9251

>  <SCORE.INTRA.POLAR>
0

>  <SCORE.INTRA.POLAR.0>
0

>  <SCORE.INTRA.REPUL>
0

>  <SCORE.INTRA.REPUL.0>
0

>  <SCORE.INTRA.SOLV>
0.603663

>  <SCORE.INTRA.SOLV.lig_0>
-40.9823

>  <SCORE.INTRA.VDW>
-1.02255

>  <SCORE.INTRA.VDW.0>
-0.53506

>  <SCORE.INTRA.norm>
-0.2188

>  <SCORE.RESTR>
0

>  <SCORE.RESTR.CAVITY>
0

>  <SCORE.RESTR.norm>
0

>  <SCORE.SYSTEM>
0

>  <SCORE.SYSTEM.CONST>
0

>  <SCORE.SYSTEM.DIHEDRAL>
0

>  <SCORE.SYSTEM.SOLV>
0

>  <SCORE.SYSTEM.norm>
0

>  <SCORE.heavy>
22

>  <SCORE.norm>
-0.511675

>  <RMSD>
7.028

$$$$
lig.pdb
 OpenBabel11021811523D
libRbt.so/2013.1/901 2013/11/27
 22 23  0  0  0  0  0  0  0  0999 V2000
   60.8036   -7.9982   13.8109 O   0  0  0  0  0  0  0  0  0  0  0  0
   59.7681   -8.6177   13.7457 C   0  0  0  0  0  0  0  0  0  0  0  0
   58.7693   -8.4047   14.5841 N   0  0  0  0  0  0  0  0  0  0  0  0
   59.6043   -9.6767   12.7397 C   0  0  0  0  0  0  0  0  0  0  0  0
   60.6322  -10.0923   11.7826 C   0  0  0  0  0  0  0  0  0  0  0  0
   61.8657   -9.5542   11.6713 N   0  0  0  0  0  0  0  0  0  0  0  0
   58.5544  -10.4669   12.4647 N   0  0  0  0  0  0  0  0  0  0  0  0
   58.9026  -11.3114   11.4546 C   0  0  0  0  0  0  0  0  0  0  0  0
   60.1726  -11.0914   11.0378 N   0  0  0  0  0  0  0  0  0  0  0  0
   60.8741  -11.8313    9.9535 C   0  0  1  0  0  0  0  0  0  0  0  0
   62.0798  -12.5408   10.5307 C   0  0  1  0  0  0  0  0  0  0  0  0
   62.1050  -13.8588    9.8009 C   0  0  2  0  0  0  0  0  0  0  0  0
   62.9076  -13.7444    8.6190 O   0  0  0  0  0  0  0  0  0  0  0  0
   63.2781  -11.7777   10.3203 O   0  0  0  0  0  0  0  0  0  0  0  0
   60.0311  -12.8531    9.4272 O   0  0  0  0  0  0  0  0  0  0  0  0
   60.6763  -14.1033    9.3896 C   0  0  2  0  0  0  0  0  0  0  0  0
   59.8711  -15.0163   10.2910 C   0  0  0  0  0  0  0  0  0  0  0  0
   59.1786  -16.0016    9.5523 O   0  0  0  0  0  0  0  0  0  0  0  0
   59.8914  -17.4092    9.3012 P   0  0  0  0  0  0  0  0  0  0  0  0
   61.2729  -17.0628    8.7833 O   0  0  0  0  0  0  0  0  0  0  0  0
   58.9758  -18.0532    8.2923 O   0  0  0  0  0  0  0  0  0  0  0  0
   59.8224  -18.0784   10.6459 O   0  0  0  0  0  0  0  0  0  0  0  0
  2  1  2  0  0  0  0
  2  4  1  0  0  0  0
  3  2  1  0  0  0  0
  4  7  1  0  0  0  0
  4  5  2  0  0  0  0
  5  6  1  0  0  0  0
  5  9  1  0  0  0  0
  7  8  2  0  0  0  0
  8  9  1  0  0  0  0
 10  9  1  1  0  0  0
 10 15  1  0  0  0  0
 11 14  1  6  0  0  0
 11 12  1  0  0  0  0
 11 10  1  0  0  0  0
 12 13  1  6  0  0  0
 12 16  1  0  0  0  0
 16 17  1  1  0  0  0
 16 15  1  0  0  0  0
 18 19  1  0  0  0  0
 18 17  1  0  0  0  0
 19 21  1  0  0  0  0
 20 19  1  0  0  0  0
 22 19  2  0  0  0  0
M  END
>  <CHROM.1>
1.42424315,62.53458536,-131.97681924,-49.46483114,91.65533429,60.44417688
-13.09090730,10.67949579,1.56757097,0.49040890,0.44453152

>  <Name>
lig.pdb

>  <RI>
0

>  <Rbt.Current_Directory>
/home/itssahil/PROJECTS/Mol_Feturizer/New_Systems/rnas/4znp

>  <Rbt.Executable>
rbdock ($Id: //depot/dev/client3/rdock/2013.1/src/exe/rbdock.cxx#4 $)

>  <Rbt.Library>
libRbt.so (2013.1, Build901 2013/11/27)

>  <Rbt.Parameter_File>
/export/apps/rDock/src/rDock_2013.1_src/data/scripts/dock_solv.prm

>  <Rbt.Receptor>
prm/pocket_docking_3.prm

>  <SCORE>
-13.9286

>  <SCORE.INTER>
-12.817

>  <SCORE.INTER.CONST>
1

>  <SCORE.INTER.POLAR>
0

>  <SCORE.INTER.ROT>
5

>  <SCORE.INTER.SOLV>
15.5034

>  <SCORE.INTER.VDW>
-20.6458

>  <SCORE.INTER.norm>
-0.582592

>  <SCORE.INTRA>
-1.46736

>  <SCORE.INTRA.DIHEDRAL>
-0.624076

>  <SCORE.INTRA.DIHEDRAL.0>
11.9251

>  <SCORE.INTRA.POLAR>
0

>  <SCORE.INTRA.POLAR.0>
0

>  <SCORE.INTRA.REPUL>
0

>  <SCORE.INTRA.REPUL.0>
0

>  <SCORE.INTRA.SOLV>
0.886118

>  <SCORE.INTRA.SOLV.lig_0>
-40.9823

>  <SCORE.INTRA.VDW>
-1.59838

>  <SCORE.INTRA.VDW.0>
-0.53506

>  <SCORE.INTRA.norm>
-0.0666981

>  <SCORE.RESTR>
0.355792

>  <SCORE.RESTR.CAVITY>
0.355792

>  <SCORE.RESTR.norm>
0.0161724

>  <SCORE.SYSTEM>
0

>  <SCORE.SYSTEM.CONST>
0

>  <SCORE.SYSTEM.DIHEDRAL>
0

>  <SCORE.SYSTEM.SOLV>
0

>  <SCORE.SYSTEM.norm>
0

>  <SCORE.heavy>
22

>  <SCORE.norm>
-0.633118

>  <RMSD>
7.077

$$$$
lig.pdb
 OpenBabel11021811523D
libRbt.so/2013.1/901 2013/11/27
 22 23  0  0  0  0  0  0  0  0999 V2000
   62.0475   -8.7398   14.4350 O   0  0  0  0  0  0  0  0  0  0  0  0
   61.0354   -8.4389   13.8471 C   0  0  0  0  0  0  0  0  0  0  0  0
   60.2088   -7.5139   14.3019 N   0  0  0  0  0  0  0  0  0  0  0  0
   60.6666   -9.1382   12.6081 C   0  0  0  0  0  0  0  0  0  0  0  0
   61.5178  -10.0962   11.8989 C   0  0  0  0  0  0  0  0  0  0  0  0
   62.7654  -10.4604   12.2656 N   0  0  0  0  0  0  0  0  0  0  0  0
   59.5460   -9.0794   11.8711 N   0  0  0  0  0  0  0  0  0  0  0  0
   59.6743   -9.9374   10.8213 C   0  0  0  0  0  0  0  0  0  0  0  0
   60.8742  -10.5658   10.8362 N   0  0  0  0  0  0  0  0  0  0  0  0
   61.3463  -11.5658    9.8400 C   0  0  1  0  0  0  0  0  0  0  0  0
   62.2375  -12.5764   10.5290 C   0  0  1  0  0  0  0  0  0  0  0  0
   61.8701  -13.8838    9.8762 C   0  0  2  0  0  0  0  0  0  0  0  0
   62.7149  -14.1146    8.7417 O   0  0  0  0  0  0  0  0  0  0  0  0
   63.6243  -12.2485   10.3511 O   0  0  0  0  0  0  0  0  0  0  0  0
   60.2434  -12.3039    9.3200 O   0  0  0  0  0  0  0  0  0  0  0  0
   60.4563  -13.6932    9.3916 C   0  0  2  0  0  0  0  0  0  0  0  0
   59.3654  -14.2373   10.2907 C   0  0  0  0  0  0  0  0  0  0  0  0
   59.6477  -15.5546   10.7164 O   0  0  0  0  0  0  0  0  0  0  0  0
   59.6863  -16.7187    9.6228 P   0  0  0  0  0  0  0  0  0  0  0  0
   59.6275  -18.0071   10.4187 O   0  0  0  0  0  0  0  0  0  0  0  0
   60.9979  -16.4583    8.9281 O   0  0  0  0  0  0  0  0  0  0  0  0
   58.5036  -16.4116    8.7466 O   0  0  0  0  0  0  0  0  0  0  0  0
  2  1  2  0  0  0  0
  2  4  1  0  0  0  0
  3  2  1  0  0  0  0
  4  7  1  0  0  0  0
  4  5  2  0  0  0  0
  5  6  1  0  0  0  0
  5  9  1  0  0  0  0
  7  8  2  0  0  0  0
  8  9  1  0  0  0  0
 10  9  1  1  0  0  0
 10 15  1  0  0  0  0
 11 14  1  6  0  0  0
 11 12  1  0  0  0  0
 11 10  1  0  0  0  0
 12 13  1  6  0  0  0
 12 16  1  0  0  0  0
 16 17  1  1  0  0  0
 16 15  1  0  0  0  0
 18 19  1  0  0  0  0
 18 17  1  0  0  0  0
 19 21  1  0  0  0  0
 20 19  1  0  0  0  0
 22 19  2  0  0  0  0
M  END
>  <CHROM.1>
-7.92906419,33.43236483,-47.40168904,-164.94368056,-65.48116881,60.78390820
-12.72422776,10.77275595,1.42568965,0.32461076,0.48192683

>  <Name>
lig.pdb

>  <RI>
0

>  <Rbt.Current_Directory>
/home/itssahil/PROJECTS/Mol_Feturizer/New_Systems/rnas/4znp

>  <Rbt.Executable>
rbdock ($Id: //depot/dev/client3/rdock/2013.1/src/exe/rbdock.cxx#4 $)

>  <Rbt.Library>
libRbt.so (2013.1, Build901 2013/11/27)

>  <Rbt.Parameter_File>
/export/apps/rDock/src/rDock_2013.1_src/data/scripts/dock_solv.prm

>  <Rbt.Receptor>
prm/pocket_docking_5.prm

>  <SCORE>
-15.2499

>  <SCORE.INTER>
-11.9513

>  <SCORE.INTER.CONST>
1

>  <SCORE.INTER.POLAR>
0

>  <SCORE.INTER.ROT>
5

>  <SCORE.INTER.SOLV>
13.7489

>  <SCORE.INTER.VDW>
-19.4838

>  <SCORE.INTER.norm>
-0.54324

>  <SCORE.INTRA>
-3.31153

>  <SCORE.INTRA.DIHEDRAL>
-8.22598

>  <SCORE.INTRA.DIHEDRAL.0>
11.9251

>  <SCORE.INTRA.POLAR>
0

>  <SCORE.INTRA.POLAR.0>
0

>  <SCORE.INTRA.REPUL>
0

>  <SCORE.INTRA.REPUL.0>
0

>  <SCORE.INTRA.SOLV>
2.19375

>  <SCORE.INTRA.SOLV.lig_0>
-40.9823

>  <SCORE.INTRA.VDW>
-0.295419

>  <SCORE.INTRA.VDW.0>
-0.53506

>  <SCORE.INTRA.norm>
-0.150524

>  <SCORE.RESTR>
0.0129229

>  <SCORE.RESTR.CAVITY>
0.0129229

>  <SCORE.RESTR.norm>
0.000587403

>  <SCORE.SYSTEM>
0

>  <SCORE.SYSTEM.CONST>
0

>  <SCORE.SYSTEM.DIHEDRAL>
0

>  <SCORE.SYSTEM.SOLV>
0

>  <SCORE.SYSTEM.norm>
0

>  <SCORE.heavy>
22

>  <SCORE.norm>
-0.693177

>  <RMSD>
7.081

$$$$
lig.pdb
 OpenBabel11021811523D
libRbt.so/2013.1/901 2013/11/27
 22 23  0  0  0  0  0  0  0  0999 V2000
   57.9932   -6.8718   13.0025 O   0  0  0  0  0  0  0  0  0  0  0  0
   58.8235   -7.1987   12.1875 C   0  0  0  0  0  0  0  0  0  0  0  0
   59.5428   -6.3109   11.5241 N   0  0  0  0  0  0  0  0  0  0  0  0
   59.0294   -8.6198   11.8738 C   0  0  0  0  0  0  0  0  0  0  0  0
   60.0126   -9.1353   10.9183 C   0  0  0  0  0  0  0  0  0  0  0  0
   60.8548   -8.3851   10.1759 N   0  0  0  0  0  0  0  0  0  0  0  0
   58.4162   -9.7172   12.3452 N   0  0  0  0  0  0  0  0  0  0  0  0
   58.9806  -10.8110   11.7624 C   0  0  0  0  0  0  0  0  0  0  0  0
   59.9604  -10.4623   10.8944 N   0  0  0  0  0  0  0  0  0  0  0  0
   60.7830  -11.4027   10.0856 C   0  0  1  0  0  0  0  0  0  0  0  0
   61.5986  -12.2782   11.0121 C   0  0  1  0  0  0  0  0  0  0  0  0
   61.5687  -13.6304   10.3480 C   0  0  2  0  0  0  0  0  0  0  0  0
   62.6869  -13.7608    9.4610 O   0  0  0  0  0  0  0  0  0  0  0  0
   62.9345  -11.7718   11.1587 O   0  0  0  0  0  0  0  0  0  0  0  0
   59.9420  -12.2864    9.3484 O   0  0  0  0  0  0  0  0  0  0  0  0
   60.3036  -13.6344    9.5299 C   0  0  2  0  0  0  0  0  0  0  0  0
   59.1034  -14.3074   10.1632 C   0  0  0  0  0  0  0  0  0  0  0  0
   59.4236  -15.5932   10.6533 O   0  0  0  0  0  0  0  0  0  0  0  0
   59.7601  -16.7489    9.6028 P   0  0  0  0  0  0  0  0  0  0  0  0
   61.1007  -16.3630    9.0106 O   0  0  0  0  0  0  0  0  0  0  0  0
   58.5947  -16.6621    8.6513 O   0  0  0  0  0  0  0  0  0  0  0  0
   59.7252  -17.9986   10.4380 O   0  0  0  0  0  0  0  0  0  0  0  0
  2  1  2  0  0  0  0
  2  4  1  0  0  0  0
  3  2  1  0  0  0  0
  4  7  1  0  0  0  0
  4  5  2  0  0  0  0
  5  6  1  0  0  0  0
  5  9  1  0  0  0  0
  7  8  2  0  0  0  0
  8  9  1  0  0  0  0
 10  9  1  1  0  0  0
 10 15  1  0  0  0  0
 11 14  1  6  0  0  0
 11 12  1  0  0  0  0
 11 10  1  0  0  0  0
 12 13  1  6  0  0  0
 12 16  1  0  0  0  0
 16 17  1  1  0  0  0
 16 15  1  0  0  0  0
 18 19  1  0  0  0  0
 18 17  1  0  0  0  0
 19 21  1  0  0  0  0
 20 19  1  0  0  0  0
 22 19  2  0  0  0  0
M  END
>  <CHROM.1>
-179.29816226,117.39364040,-49.78814963,69.97460794,-68.64671936,60.05363838
-12.39600491,10.55189360,1.65825644,0.26726876,0.22886249

>  <Name>
lig.pdb

>  <RI>
0

>  <Rbt.Current_Directory>
/home/itssahil/PROJECTS/Mol_Feturizer/New_Systems/rnas/4znp

>  <Rbt.Executable>
rbdock ($Id: //depot/dev/client3/rdock/2013.1/src/exe/rbdock.cxx#4 $)

>  <Rbt.Library>
libRbt.so (2013.1, Build901 2013/11/27)

>  <Rbt.Parameter_File>
/export/apps/rDock/src/rDock_2013.1_src/data/scripts/dock_solv.prm

>  <Rbt.Receptor>
prm/pocket_docking_8.prm

>  <SCORE>
-15.9239

>  <SCORE.INTER>
-10.8527

>  <SCORE.INTER.CONST>
1

>  <SCORE.INTER.POLAR>
0

>  <SCORE.INTER.ROT>
5

>  <SCORE.INTER.SOLV>
13.752

>  <SCORE.INTER.VDW>
-18.7524

>  <SCORE.INTER.norm>
-0.493303

>  <SCORE.INTRA>
-5.16802

>  <SCORE.INTRA.DIHEDRAL>
-8.59451

>  <SCORE.INTRA.DIHEDRAL.0>
11.9251

>  <SCORE.INTRA.POLAR>
0

>  <SCORE.INTRA.POLAR.0>
0

>  <SCORE.INTRA.REPUL>
0

>  <SCORE.INTRA.REPUL.0>
0

>  <SCORE.INTRA.SOLV>
0.980826

>  <SCORE.INTRA.SOLV.lig_0>
-40.9823

>  <SCORE.INTRA.VDW>
-1.36118

>  <SCORE.INTRA.VDW.0>
-0.53506

>  <SCORE.INTRA.norm>
-0.23491

>  <SCORE.RESTR>
0.0967764

>  <SCORE.RESTR.CAVITY>
0.0967764

>  <SCORE.RESTR.norm>
0.00439893

>  <SCORE.SYSTEM>
0

>  <SCORE.SYSTEM.CONST>
0

>  <SCORE.SYSTEM.DIHEDRAL>
0

>  <SCORE.SYSTEM.SOLV>
0

>  <SCORE.SYSTEM.norm>
0

>  <SCORE.heavy>
22

>  <SCORE.norm>
-0.723814

>  <RMSD>
7.081

$$$$
lig.pdb
 OpenBabel11021811523D
libRbt.so/2013.1/901 2013/11/27
 22 23  0  0  0  0  0  0  0  0999 V2000
   61.6216   -7.4155   13.3511 O   0  0  0  0  0  0  0  0  0  0  0  0
   60.4734   -7.6620   13.0663 C   0  0  0  0  0  0  0  0  0  0  0  0
   59.4601   -7.0175   13.6174 N   0  0  0  0  0  0  0  0  0  0  0  0
   60.1645   -8.7370   12.1127 C   0  0  0  0  0  0  0  0  0  0  0  0
   61.1609   -9.5552   11.4176 C   0  0  0  0  0  0  0  0  0  0  0  0
   62.5003   -9.4301   11.5347 N   0  0  0  0  0  0  0  0  0  0  0  0
   58.9851   -9.2027   11.6718 N   0  0  0  0  0  0  0  0  0  0  0  0
   59.2217  -10.2291   10.8084 C   0  0  0  0  0  0  0  0  0  0  0  0
   60.5487  -10.4530   10.6537 N   0  0  0  0  0  0  0  0  0  0  0  0
   61.1609  -11.4955    9.7855 C   0  0  1  0  0  0  0  0  0  0  0  0
   62.0324  -12.4007   10.6289 C   0  0  1  0  0  0  0  0  0  0  0  0
   61.7927  -13.7713   10.0508 C   0  0  2  0  0  0  0  0  0  0  0  0
   62.7504  -14.0372    9.0181 O   0  0  0  0  0  0  0  0  0  0  0  0
   63.4119  -12.0091   10.5508 O   0  0  0  0  0  0  0  0  0  0  0  0
   60.1492  -12.3309    9.2285 O   0  0  0  0  0  0  0  0  0  0  0  0
   60.4229  -13.6970    9.4280 C   0  0  2  0  0  0  0  0  0  0  0  0
   59.2807  -14.2339   10.2657 C   0  0  0  0  0  0  0  0  0  0  0  0
   59.5353  -15.5491   10.7145 O   0  0  0  0  0  0  0  0  0  0  0  0
   59.6816  -16.7117    9.6284 P   0  0  0  0  0  0  0  0  0  0  0  0
   59.6595  -17.9997   10.4267 O   0  0  0  0  0  0  0  0  0  0  0  0
   61.0048  -16.3823    8.9870 O   0  0  0  0  0  0  0  0  0  0  0  0
   58.5212  -16.4707    8.7031 O   0  0  0  0  0  0  0  0  0  0  0  0
  2  1  2  0  0  0  0
  2  4  1  0  0  0  0
  3  2  1  0  0  0  0
  4  7  1  0  0  0  0
  4  5  2  0  0  0  0
  5  6  1  0  0  0  0
  5  9  1  0  0  0  0
  7  8  2  0  0  0  0
  8  9  1  0  0  0  0
 10  9  1  1  0  0  0
 10 15  1  0  0  0  0
 11 14  1  6  0  0  0
 11 12  1  0  0  0  0
 11 10  1  0  0  0  0
 12 13  1  6  0  0  0
 12 16  1  0  0  0  0
 16 17  1  1  0  0  0
 16 15  1  0  0  0  0
 18 19  1  0  0  0  0
 18 17  1  0  0  0  0
 19 21  1  0  0  0  0
 20 19  1  0  0  0  0
 22 19  2  0  0  0  0
M  END
>  <CHROM.1>
-1.61027996,58.56228189,-52.88820162,-168.74530605,-63.52675452,60.57345302
-12.51440734,10.60879433,-1.48452842,-0.23016237,-2.78390312

>  <Name>
lig.pdb

>  <RI>
0

>  <Rbt.Current_Directory>
/home/itssahil/PROJECTS/Mol_Feturizer/New_Systems/rnas/4znp

>  <Rbt.Executable>
rbdock ($Id: //depot/dev/client3/rdock/2013.1/src/exe/rbdock.cxx#4 $)

>  <Rbt.Library>
libRbt.so (2013.1, Build901 2013/11/27)

>  <Rbt.Parameter_File>
/export/apps/rDock/src/rDock_2013.1_src/data/scripts/dock_solv.prm

>  <Rbt.Receptor>
prm/pocket_docking_3.prm

>  <SCORE>
-15.6806

>  <SCORE.INTER>
-11.3453

>  <SCORE.INTER.CONST>
1

>  <SCORE.INTER.POLAR>
0

>  <SCORE.INTER.ROT>
5

>  <SCORE.INTER.SOLV>
12.9005

>  <SCORE.INTER.VDW>
-18.7971

>  <SCORE.INTER.norm>
-0.515698

>  <SCORE.INTRA>
-4.37128

>  <SCORE.INTRA.DIHEDRAL>
-9.03581

>  <SCORE.INTRA.DIHEDRAL.0>
11.9251

>  <SCORE.INTRA.POLAR>
0

>  <SCORE.INTRA.POLAR.0>
0

>  <SCORE.INTRA.REPUL>
0

>  <SCORE.INTRA.REPUL.0>
0

>  <SCORE.INTRA.SOLV>
1.93723

>  <SCORE.INTRA.SOLV.lig_0>
-40.9823

>  <SCORE.INTRA.VDW>
-0.821988

>  <SCORE.INTRA.VDW.0>
-0.53506

>  <SCORE.INTRA.norm>
-0.198694

>  <SCORE.RESTR>
0.0359998

>  <SCORE.RESTR.CAVITY>
0.0359998

>  <SCORE.RESTR.norm>
0.00163636

>  <SCORE.SYSTEM>
0

>  <SCORE.SYSTEM.CONST>
0

>  <SCORE.SYSTEM.DIHEDRAL>
0

>  <SCORE.SYSTEM.SOLV>
0

>  <SCORE.SYSTEM.norm>
0

>  <SCORE.heavy>
22

>  <SCORE.norm>
-0.712756

>  <RMSD>
7.109

$$$$
lig.pdb
 OpenBabel11021811523D
libRbt.so/2013.1/901 2013/11/27
 22 23  0  0  0  0  0  0  0  0999 V2000
   58.2437   -4.9871    7.7255 O   0  0  0  0  0  0  0  0  0  0  0  0
   58.4383   -6.0644    8.2375 C   0  0  0  0  0  0  0  0  0  0  0  0
   57.6019   -6.5834    9.1189 N   0  0  0  0  0  0  0  0  0  0  0  0
   59.6571   -6.8222    7.9205 C   0  0  0  0  0  0  0  0  0  0  0  0
   60.0888   -8.0433    8.6045 C   0  0  0  0  0  0  0  0  0  0  0  0
   59.4455   -8.6373    9.6325 N   0  0  0  0  0  0  0  0  0  0  0  0
   60.6078   -6.6034    6.9982 N   0  0  0  0  0  0  0  0  0  0  0  0
   61.5271   -7.6049    7.0799 C   0  0  0  0  0  0  0  0  0  0  0  0
   61.2123   -8.4907    8.0552 N   0  0  0  0  0  0  0  0  0  0  0  0
   61.9968   -9.7025    8.4177 C   0  0  1  0  0  0  0  0  0  0  0  0
   62.3367   -9.6563    9.8916 C   0  0  1  0  0  0  0  0  0  0  0  0
   62.1928  -11.0879   10.3390 C   0  0  2  0  0  0  0  0  0  0  0  0
   63.4487  -11.7660   10.2092 O   0  0  0  0  0  0  0  0  0  0  0  0
   63.6645   -9.1504   10.1001 O   0  0  0  0  0  0  0  0  0  0  0  0
   61.2080  -10.8753    8.2326 O   0  0  0  0  0  0  0  0  0  0  0  0
   61.2136  -11.7013    9.3721 C   0  0  2  0  0  0  0  0  0  0  0  0
   59.7749  -11.7773    9.8400 C   0  0  0  0  0  0  0  0  0  0  0  0
   59.1044  -12.8920    9.2886 O   0  0  0  0  0  0  0  0  0  0  0  0
   59.4775  -14.3498    9.8254 P   0  0  0  0  0  0  0  0  0  0  0  0
   60.8819  -14.6077    9.3175 O   0  0  0  0  0  0  0  0  0  0  0  0
   58.4062  -15.2032    9.1972 O   0  0  0  0  0  0  0  0  0  0  0  0
   59.3102  -14.2251   11.3145 O   0  0  0  0  0  0  0  0  0  0  0  0
  2  1  2  0  0  0  0
  2  4  1  0  0  0  0
  3  2  1  0  0  0  0
  4  7  1  0  0  0  0
  4  5  2  0  0  0  0
  5  6  1  0  0  0  0
  5  9  1  0  0  0  0
  7  8  2  0  0  0  0
  8  9  1  0  0  0  0
 10  9  1  1  0  0  0
 10 15  1  0  0  0  0
 11 14  1  6  0  0  0
 11 12  1  0  0  0  0
 11 10  1  0  0  0  0
 12 13  1  6  0  0  0
 12 16  1  0  0  0  0
 16 17  1  1  0  0  0
 16 15  1  0  0  0  0
 18 19  1  0  0  0  0
 18 17  1  0  0  0  0
 19 21  1  0  0  0  0
 20 19  1  0  0  0  0
 22 19  2  0  0  0  0
M  END
>  <CHROM.1>
171.43215223,-54.72273254,-149.29489643,-69.39633046,72.24332078,60.39955275
-10.39723364,9.10660544,1.60735195,-0.09859064,-0.23614406

>  <Name>
lig.pdb

>  <RI>
0

>  <Rbt.Current_Directory>
/home/itssahil/PROJECTS/Mol_Feturizer/New_Systems/rnas/4znp

>  <Rbt.Executable>
rbdock ($Id: //depot/dev/client3/rdock/2013.1/src/exe/rbdock.cxx#4 $)

>  <Rbt.Library>
libRbt.so (2013.1, Build901 2013/11/27)

>  <Rbt.Parameter_File>
/export/apps/rDock/src/rDock_2013.1_src/data/scripts/dock_solv.prm

>  <Rbt.Receptor>
prm/pocket_docking_5.prm

>  <SCORE>
-13.8847

>  <SCORE.INTER>
-10.2647

>  <SCORE.INTER.CONST>
1

>  <SCORE.INTER.POLAR>
0

>  <SCORE.INTER.ROT>
5

>  <SCORE.INTER.SOLV>
14.2293

>  <SCORE.INTER.VDW>
-18.5196

>  <SCORE.INTER.norm>
-0.466577

>  <SCORE.INTRA>
-3.61997

>  <SCORE.INTRA.DIHEDRAL>
-5.77306

>  <SCORE.INTRA.DIHEDRAL.0>
11.9251

>  <SCORE.INTRA.POLAR>
0

>  <SCORE.INTRA.POLAR.0>
0

>  <SCORE.INTRA.REPUL>
0

>  <SCORE.INTRA.REPUL.0>
0

>  <SCORE.INTRA.SOLV>
2.22576

>  <SCORE.INTRA.SOLV.lig_0>
-40.9823

>  <SCORE.INTRA.VDW>
-1.84632

>  <SCORE.INTRA.VDW.0>
-0.53506

>  <SCORE.INTRA.norm>
-0.164544

>  <SCORE.RESTR>
0

>  <SCORE.RESTR.CAVITY>
0

>  <SCORE.RESTR.norm>
0

>  <SCORE.SYSTEM>
0

>  <SCORE.SYSTEM.CONST>
0

>  <SCORE.SYSTEM.DIHEDRAL>
0

>  <SCORE.SYSTEM.SOLV>
0

>  <SCORE.SYSTEM.norm>
0

>  <SCORE.heavy>
22

>  <SCORE.norm>
-0.631121

>  <RMSD>
7.148

$$$$
lig.pdb
 OpenBabel11021811523D
libRbt.so/2013.1/901 2013/11/27
 22 23  0  0  0  0  0  0  0  0999 V2000
   61.8063   -9.0268   15.1630 O   0  0  0  0  0  0  0  0  0  0  0  0
   60.9273   -9.8488   15.2729 C   0  0  0  0  0  0  0  0  0  0  0  0
   60.2740  -10.0297   16.4071 N   0  0  0  0  0  0  0  0  0  0  0  0
   60.5837  -10.7174   14.1381 C   0  0  0  0  0  0  0  0  0  0  0  0
   61.2754  -10.7257   12.8471 C   0  0  0  0  0  0  0  0  0  0  0  0
   62.3102   -9.9285   12.5050 N   0  0  0  0  0  0  0  0  0  0  0  0
   59.6247  -11.6479   14.0080 N   0  0  0  0  0  0  0  0  0  0  0  0
   59.7261  -12.2018   12.7680 C   0  0  0  0  0  0  0  0  0  0  0  0
   60.7363  -11.6468   12.0564 N   0  0  0  0  0  0  0  0  0  0  0  0
   61.1268  -12.0122   10.6674 C   0  0  1  0  0  0  0  0  0  0  0  0
   62.1821  -13.0959   10.7129 C   0  0  1  0  0  0  0  0  0  0  0  0
   61.8184  -14.0006    9.5641 C   0  0  2  0  0  0  0  0  0  0  0  0
   62.4994  -13.5757    8.3768 O   0  0  0  0  0  0  0  0  0  0  0  0
   63.4993  -12.5407   10.5741 O   0  0  0  0  0  0  0  0  0  0  0  0
   60.0158  -12.5741    9.9734 O   0  0  0  0  0  0  0  0  0  0  0  0
   60.3381  -13.8020    9.3659 C   0  0  2  0  0  0  0  0  0  0  0  0
   59.4360  -14.8355   10.0082 C   0  0  0  0  0  0  0  0  0  0  0  0
   59.1446  -15.8971    9.1228 O   0  0  0  0  0  0  0  0  0  0  0  0
   59.9307  -17.2767    9.2997 P   0  0  0  0  0  0  0  0  0  0  0  0
   59.8533  -17.5853   10.7815 O   0  0  0  0  0  0  0  0  0  0  0  0
   61.3059  -16.9257    8.7932 O   0  0  0  0  0  0  0  0  0  0  0  0
   59.2020  -18.2128    8.3760 O   0  0  0  0  0  0  0  0  0  0  0  0
  2  1  2  0  0  0  0
  2  4  1  0  0  0  0
  3  2  1  0  0  0  0
  4  7  1  0  0  0  0
  4  5  2  0  0  0  0
  5  6  1  0  0  0  0
  5  9  1  0  0  0  0
  7  8  2  0  0  0  0
  8  9  1  0  0  0  0
 10  9  1  1  0  0  0
 10 15  1  0  0  0  0
 11 14  1  6  0  0  0
 11 12  1  0  0  0  0
 11 10  1  0  0  0  0
 12 13  1  6  0  0  0
 12 16  1  0  0  0  0
 16 17  1  1  0  0  0
 16 15  1  0  0  0  0
 18 19  1  0  0  0  0
 18 17  1  0  0  0  0
 19 21  1  0  0  0  0
 20 19  1  0  0  0  0
 22 19  2  0  0  0  0
M  END
>  <CHROM.1>
3.06706611,89.29405285,-91.61458155,47.51856567,101.75740314,60.75563086
-13.43005985,11.19361184,1.40788893,0.78304709,0.78625044

>  <Name>
lig.pdb

>  <RI>
0

>  <Rbt.Current_Directory>
/home/itssahil/PROJECTS/Mol_Feturizer/New_Systems/rnas/4znp

>  <Rbt.Executable>
rbdock ($Id: //depot/dev/client3/rdock/2013.1/src/exe/rbdock.cxx#4 $)

>  <Rbt.Library>
libRbt.so (2013.1, Build901 2013/11/27)

>  <Rbt.Parameter_File>
/export/apps/rDock/src/rDock_2013.1_src/data/scripts/dock_solv.prm

>  <Rbt.Receptor>
prm/pocket_docking_7.prm

>  <SCORE>
-17.0185

>  <SCORE.INTER>
-15.2893

>  <SCORE.INTER.CONST>
1

>  <SCORE.INTER.POLAR>
0

>  <SCORE.INTER.ROT>
5

>  <SCORE.INTER.SOLV>
19.3611

>  <SCORE.INTER.VDW>
-23.5799

>  <SCORE.INTER.norm>
-0.694967

>  <SCORE.INTRA>
-1.96595

>  <SCORE.INTRA.DIHEDRAL>
-0.727011

>  <SCORE.INTRA.DIHEDRAL.0>
11.9251

>  <SCORE.INTRA.POLAR>
0

>  <SCORE.INTRA.POLAR.0>
0

>  <SCORE.INTRA.REPUL>
0

>  <SCORE.INTRA.REPUL.0>
0

>  <SCORE.INTRA.SOLV>
0.515

>  <SCORE.INTRA.SOLV.lig_0>
-40.9823

>  <SCORE.INTRA.VDW>
-1.85994

>  <SCORE.INTRA.VDW.0>
-0.53506

>  <SCORE.INTRA.norm>
-0.0893612

>  <SCORE.RESTR>
0.236701

>  <SCORE.RESTR.CAVITY>
0.236701

>  <SCORE.RESTR.norm>
0.0107591

>  <SCORE.SYSTEM>
0

>  <SCORE.SYSTEM.CONST>
0

>  <SCORE.SYSTEM.DIHEDRAL>
0

>  <SCORE.SYSTEM.SOLV>
0

>  <SCORE.SYSTEM.norm>
0

>  <SCORE.heavy>
22

>  <SCORE.norm>
-0.773569

>  <RMSD>
7.161

$$$$
lig.pdb
 OpenBabel11021811523D
libRbt.so/2013.1/901 2013/11/27
 22 23  0  0  0  0  0  0  0  0999 V2000
   60.0178   -7.1826   13.9764 O   0  0  0  0  0  0  0  0  0  0  0  0
   60.8379   -7.6918   13.2495 C   0  0  0  0  0  0  0  0  0  0  0  0
   62.0694   -7.2245   13.1457 N   0  0  0  0  0  0  0  0  0  0  0  0
   60.4681   -8.8410   12.4113 C   0  0  0  0  0  0  0  0  0  0  0  0
   61.3787   -9.5515   11.5105 C   0  0  0  0  0  0  0  0  0  0  0  0
   62.6775   -9.2450   11.3043 N   0  0  0  0  0  0  0  0  0  0  0  0
   59.2951   -9.4786   12.2696 N   0  0  0  0  0  0  0  0  0  0  0  0
   59.4644  -10.5034   11.3888 C   0  0  0  0  0  0  0  0  0  0  0  0
   60.7365  -10.5567   10.9263 N   0  0  0  0  0  0  0  0  0  0  0  0
   61.2684  -11.5480    9.9517 C   0  0  1  0  0  0  0  0  0  0  0  0
   62.1377  -12.5496   10.6805 C   0  0  1  0  0  0  0  0  0  0  0  0
   61.8183  -13.8596   10.0080 C   0  0  2  0  0  0  0  0  0  0  0  0
   62.7194  -14.0769    8.9149 O   0  0  0  0  0  0  0  0  0  0  0  0
   63.5274  -12.2043   10.5704 O   0  0  0  0  0  0  0  0  0  0  0  0
   60.2008  -12.2981    9.3776 O   0  0  0  0  0  0  0  0  0  0  0  0
   60.4272  -13.6849    9.4564 C   0  0  2  0  0  0  0  0  0  0  0  0
   59.3011  -14.2447   10.3007 C   0  0  0  0  0  0  0  0  0  0  0  0
   59.5722  -15.5651   10.7241 O   0  0  0  0  0  0  0  0  0  0  0  0
   59.6737  -16.7154    9.6200 P   0  0  0  0  0  0  0  0  0  0  0  0
   59.6312  -18.0137   10.4006 O   0  0  0  0  0  0  0  0  0  0  0  0
   60.9953  -16.4097    8.9636 O   0  0  0  0  0  0  0  0  0  0  0  0
   58.5063  -16.4328    8.7155 O   0  0  0  0  0  0  0  0  0  0  0  0
  2  1  2  0  0  0  0
  2  4  1  0  0  0  0
  3  2  1  0  0  0  0
  4  7  1  0  0  0  0
  4  5  2  0  0  0  0
  5  6  1  0  0  0  0
  5  9  1  0  0  0  0
  7  8  2  0  0  0  0
  8  9  1  0  0  0  0
 10  9  1  1  0  0  0
 10 15  1  0  0  0  0
 11 14  1  6  0  0  0
 11 12  1  0  0  0  0
 11 10  1  0  0  0  0
 12 13  1  6  0  0  0
 12 16  1  0  0  0  0
 16 17  1  1  0  0  0
 16 15  1  0  0  0  0
 18 19  1  0  0  0  0
 18 17  1  0  0  0  0
 19 21  1  0  0  0  0
 20 19  1  0  0  0  0
 22 19  2  0  0  0  0
M  END
>  <CHROM.1>
-178.97924828,74.85673683,-48.06130539,-166.73676289,-65.14156501,60.69239671
-12.55819288,10.70059293,1.44203738,0.33242408,0.40415381

>  <Name>
lig.pdb

>  <RI>
0

>  <Rbt.Current_Directory>
/home/itssahil/PROJECTS/Mol_Feturizer/New_Systems/rnas/4znp

>  <Rbt.Executable>
rbdock ($Id: //depot/dev/client3/rdock/2013.1/src/exe/rbdock.cxx#4 $)

>  <Rbt.Library>
libRbt.so (2013.1, Build901 2013/11/27)

>  <Rbt.Parameter_File>
/export/apps/rDock/src/rDock_2013.1_src/data/scripts/dock_solv.prm

>  <Rbt.Receptor>
prm/pocket_docking_4.prm

>  <SCORE>
-15.726

>  <SCORE.INTER>
-11.518

>  <SCORE.INTER.CONST>
1

>  <SCORE.INTER.POLAR>
0

>  <SCORE.INTER.ROT>
5

>  <SCORE.INTER.SOLV>
12.961

>  <SCORE.INTER.VDW>
-18.9323

>  <SCORE.INTER.norm>
-0.523545

>  <SCORE.INTRA>
-4.22512

>  <SCORE.INTRA.DIHEDRAL>
-8.58919

>  <SCORE.INTRA.DIHEDRAL.0>
11.9251

>  <SCORE.INTRA.POLAR>
0

>  <SCORE.INTRA.POLAR.0>
0

>  <SCORE.INTRA.REPUL>
0

>  <SCORE.INTRA.REPUL.0>
0

>  <SCORE.INTRA.SOLV>
2.03525

>  <SCORE.INTRA.SOLV.lig_0>
-40.9823

>  <SCORE.INTRA.VDW>
-0.94815

>  <SCORE.INTRA.VDW.0>
-0.53506

>  <SCORE.INTRA.norm>
-0.192051

>  <SCORE.RESTR>
0.0171479

>  <SCORE.RESTR.CAVITY>
0.0171479

>  <SCORE.RESTR.norm>
0.00077945

>  <SCORE.SYSTEM>
0

>  <SCORE.SYSTEM.CONST>
0

>  <SCORE.SYSTEM.DIHEDRAL>
0

>  <SCORE.SYSTEM.SOLV>
0

>  <SCORE.SYSTEM.norm>
0

>  <SCORE.heavy>
22

>  <SCORE.norm>
-0.714817

>  <RMSD>
7.209

$$$$
lig.pdb
 OpenBabel11021811523D
libRbt.so/2013.1/901 2013/11/27
 22 23  0  0  0  0  0  0  0  0999 V2000
   60.8964   -5.4080    8.6394 O   0  0  0  0  0  0  0  0  0  0  0  0
   60.2504   -6.2306    8.0340 C   0  0  0  0  0  0  0  0  0  0  0  0
   59.1090   -5.9283    7.4411 N   0  0  0  0  0  0  0  0  0  0  0  0
   60.7036   -7.6276    7.9765 C   0  0  0  0  0  0  0  0  0  0  0  0
   61.8104   -8.1845    8.7576 C   0  0  0  0  0  0  0  0  0  0  0  0
   62.5844   -7.4968    9.6245 N   0  0  0  0  0  0  0  0  0  0  0  0
   60.2543   -8.6636    7.2503 N   0  0  0  0  0  0  0  0  0  0  0  0
   60.9899   -9.7647    7.5681 C   0  0  0  0  0  0  0  0  0  0  0  0
   61.9381   -9.4798    8.4926 N   0  0  0  0  0  0  0  0  0  0  0  0
   62.9157  -10.4456    9.0642 C   0  0  1  0  0  0  0  0  0  0  0  0
   62.6001  -10.6706   10.5271 C   0  0  1  0  0  0  0  0  0  0  0  0
   62.8540  -12.1423   10.7275 C   0  0  2  0  0  0  0  0  0  0  0  0
   64.2141  -12.3504   11.1286 O   0  0  0  0  0  0  0  0  0  0  0  0
   63.4316   -9.8542   11.3666 O   0  0  0  0  0  0  0  0  0  0  0  0
   62.7813  -11.7165    8.4329 O   0  0  0  0  0  0  0  0  0  0  0  0
   62.6540  -12.7604    9.3682 C   0  0  2  0  0  0  0  0  0  0  0  0
   61.2980  -13.3858    9.1143 C   0  0  0  0  0  0  0  0  0  0  0  0
   61.1383  -14.5947    9.8278 O   0  0  0  0  0  0  0  0  0  0  0  0
   59.6596  -15.0746   10.1958 P   0  0  0  0  0  0  0  0  0  0  0  0
   59.7964  -16.5463   10.5310 O   0  0  0  0  0  0  0  0  0  0  0  0
   58.9043  -14.7780    8.9260 O   0  0  0  0  0  0  0  0  0  0  0  0
   59.2675  -14.1591   11.3223 O   0  0  0  0  0  0  0  0  0  0  0  0
  2  1  2  0  0  0  0
  2  4  1  0  0  0  0
  3  2  1  0  0  0  0
  4  7  1  0  0  0  0
  4  5  2  0  0  0  0
  5  6  1  0  0  0  0
  5  9  1  0  0  0  0
  7  8  2  0  0  0  0
  8  9  1  0  0  0  0
 10  9  1  6  0  0  0
 10 15  1  0  0  0  0
 11 14  1  1  0  0  0
 11 12  1  0  0  0  0
 11 10  1  0  0  0  0
 12 13  1  6  0  0  0
 12 16  1  0  0  0  0
 16 17  1  1  0  0  0
 16 15  1  0  0  0  0
 18 19  1  0  0  0  0
 18 17  1  0  0  0  0
 19 21  1  0  0  0  0
 20 19  1  0  0  0  0
 22 19  2  0  0  0  0
M  END
>  <CHROM.1>
8.92173012,68.40165237,-72.41738894,162.37340341,154.60549743,61.26781648
-11.14131535,9.38552622,1.47712674,-0.41888246,-0.27097226

>  <Name>
lig.pdb

>  <RI>
0

>  <Rbt.Current_Directory>
/home/itssahil/PROJECTS/Mol_Feturizer/New_Systems/rnas/4znp

>  <Rbt.Executable>
rbdock ($Id: //depot/dev/client3/rdock/2013.1/src/exe/rbdock.cxx#4 $)

>  <Rbt.Library>
libRbt.so (2013.1, Build901 2013/11/27)

>  <Rbt.Parameter_File>
/export/apps/rDock/src/rDock_2013.1_src/data/scripts/dock_solv.prm

>  <Rbt.Receptor>
prm/pocket_docking_4.prm

>  <SCORE>
-15.441

>  <SCORE.INTER>
-11.9606

>  <SCORE.INTER.CONST>
1

>  <SCORE.INTER.POLAR>
0

>  <SCORE.INTER.ROT>
5

>  <SCORE.INTER.SOLV>
16.8552

>  <SCORE.INTER.VDW>
-20.5254

>  <SCORE.INTER.norm>
-0.543662

>  <SCORE.INTRA>
-3.48042

>  <SCORE.INTRA.DIHEDRAL>
-5.46507

>  <SCORE.INTRA.DIHEDRAL.0>
11.9251

>  <SCORE.INTRA.POLAR>
0

>  <SCORE.INTRA.POLAR.0>
0

>  <SCORE.INTRA.REPUL>
0

>  <SCORE.INTRA.REPUL.0>
0

>  <SCORE.INTRA.SOLV>
0.589214

>  <SCORE.INTRA.SOLV.lig_0>
-40.9823

>  <SCORE.INTRA.VDW>
-1.04249

>  <SCORE.INTRA.VDW.0>
-0.53506

>  <SCORE.INTRA.norm>
-0.158201

>  <SCORE.RESTR>
0

>  <SCORE.RESTR.CAVITY>
0

>  <SCORE.RESTR.norm>
0

>  <SCORE.SYSTEM>
0

>  <SCORE.SYSTEM.CONST>
0

>  <SCORE.SYSTEM.DIHEDRAL>
0

>  <SCORE.SYSTEM.SOLV>
0

>  <SCORE.SYSTEM.norm>
0

>  <SCORE.heavy>
22

>  <SCORE.norm>
-0.701863

>  <RMSD>
7.220

$$$$
lig.pdb
 OpenBabel11021811523D
libRbt.so/2013.1/901 2013/11/27
 22 23  0  0  0  0  0  0  0  0999 V2000
   62.3282   -7.2129    6.0539 O   0  0  0  0  0  0  0  0  0  0  0  0
   61.5533   -7.3473    6.9715 C   0  0  0  0  0  0  0  0  0  0  0  0
   60.5832   -6.4807    7.2029 N   0  0  0  0  0  0  0  0  0  0  0  0
   61.6986   -8.4775    7.8998 C   0  0  0  0  0  0  0  0  0  0  0  0
   60.9562   -8.6365    9.1524 C   0  0  0  0  0  0  0  0  0  0  0  0
   60.0500   -7.7648    9.6447 N   0  0  0  0  0  0  0  0  0  0  0  0
   62.4867   -9.5627    7.8399 N   0  0  0  0  0  0  0  0  0  0  0  0
   62.2397  -10.3365    8.9331 C   0  0  0  0  0  0  0  0  0  0  0  0
   61.3015   -9.7789    9.7354 N   0  0  0  0  0  0  0  0  0  0  0  0
   60.7933  -10.3532   11.0111 C   0  0  1  0  0  0  0  0  0  0  0  0
   59.3082  -10.6155   10.8854 C   0  0  1  0  0  0  0  0  0  0  0  0
   59.1094  -11.9164   11.6191 C   0  0  2  0  0  0  0  0  0  0  0  0
   58.8093  -11.6565   12.9963 O   0  0  0  0  0  0  0  0  0  0  0  0
   58.5438   -9.5434   11.4587 O   0  0  0  0  0  0  0  0  0  0  0  0
   61.3971  -11.6207   11.2574 O   0  0  0  0  0  0  0  0  0  0  0  0
   60.4421  -12.6147   11.5414 C   0  0  2  0  0  0  0  0  0  0  0  0
   60.5855  -13.6557   10.4504 C   0  0  0  0  0  0  0  0  0  0  0  0
   59.9102  -14.8526   10.7783 O   0  0  0  0  0  0  0  0  0  0  0  0
   59.8740  -16.0294    9.6983 P   0  0  0  0  0  0  0  0  0  0  0  0
   58.6640  -15.7330    8.8352 O   0  0  0  0  0  0  0  0  0  0  0  0
   59.7519  -17.2543   10.5674 O   0  0  0  0  0  0  0  0  0  0  0  0
   61.2186  -15.9315    9.0326 O   0  0  0  0  0  0  0  0  0  0  0  0
  2  1  2  0  0  0  0
  2  4  1  0  0  0  0
  3  2  1  0  0  0  0
  4  7  1  0  0  0  0
  4  5  2  0  0  0  0
  5  6  1  0  0  0  0
  5  9  1  0  0  0  0
  7  8  2  0  0  0  0
  8  9  1  0  0  0  0
 10  9  1  6  0  0  0
 10 15  1  0  0  0  0
 11 14  1  1  0  0  0
 11 12  1  0  0  0  0
 11 10  1  0  0  0  0
 12 13  1  1  0  0  0
 12 16  1  0  0  0  0
 16 17  1  6  0  0  0
 16 15  1  0  0  0  0
 18 19  1  0  0  0  0
 18 17  1  0  0  0  0
 19 21  1  0  0  0  0
 20 19  1  0  0  0  0
 22 19  2  0  0  0  0
M  END
>  <CHROM.1>
170.36905553,62.04529233,-75.80523086,-87.29788660,176.04117458,60.45854938
-11.63117530,9.74163071,-1.17415912,-1.08710393,-3.06112075

>  <Name>
lig.pdb

>  <RI>
0

>  <Rbt.Current_Directory>
/home/itssahil/PROJECTS/Mol_Feturizer/New_Systems/rnas/4znp

>  <Rbt.Executable>
rbdock ($Id: //depot/dev/client3/rdock/2013.1/src/exe/rbdock.cxx#4 $)

>  <Rbt.Library>
libRbt.so (2013.1, Build901 2013/11/27)

>  <Rbt.Parameter_File>
/export/apps/rDock/src/rDock_2013.1_src/data/scripts/dock_solv.prm

>  <Rbt.Receptor>
prm/pocket_docking_7.prm

>  <SCORE>
-14.8159

>  <SCORE.INTER>
-10.7041

>  <SCORE.INTER.CONST>
1

>  <SCORE.INTER.POLAR>
0

>  <SCORE.INTER.ROT>
5

>  <SCORE.INTER.SOLV>
15.3797

>  <SCORE.INTER.VDW>
-19.196

>  <SCORE.INTER.norm>
-0.48655

>  <SCORE.INTRA>
-4.11183

>  <SCORE.INTRA.DIHEDRAL>
-7.34064

>  <SCORE.INTRA.DIHEDRAL.0>
11.9251

>  <SCORE.INTRA.POLAR>
0

>  <SCORE.INTRA.POLAR.0>
0

>  <SCORE.INTRA.REPUL>
0

>  <SCORE.INTRA.REPUL.0>
0

>  <SCORE.INTRA.SOLV>
0.7583

>  <SCORE.INTRA.SOLV.lig_0>
-40.9823

>  <SCORE.INTRA.VDW>
-0.820657

>  <SCORE.INTRA.VDW.0>
-0.53506

>  <SCORE.INTRA.norm>
-0.186901

>  <SCORE.RESTR>
0

>  <SCORE.RESTR.CAVITY>
0

>  <SCORE.RESTR.norm>
0

>  <SCORE.SYSTEM>
0

>  <SCORE.SYSTEM.CONST>
0

>  <SCORE.SYSTEM.DIHEDRAL>
0

>  <SCORE.SYSTEM.SOLV>
0

>  <SCORE.SYSTEM.norm>
0

>  <SCORE.heavy>
22

>  <SCORE.norm>
-0.673451

>  <RMSD>
7.291

$$$$
lig.pdb
 OpenBabel11021811523D
libRbt.so/2013.1/901 2013/11/27
 22 23  0  0  0  0  0  0  0  0999 V2000
   62.9948   -7.3763   12.5945 O   0  0  0  0  0  0  0  0  0  0  0  0
   61.9038   -7.8954   12.5653 C   0  0  0  0  0  0  0  0  0  0  0  0
   60.8101   -7.2500   12.9300 N   0  0  0  0  0  0  0  0  0  0  0  0
   61.7664   -9.3005   12.1569 C   0  0  0  0  0  0  0  0  0  0  0  0
   60.4957   -9.9745   11.8804 C   0  0  0  0  0  0  0  0  0  0  0  0
   59.2713   -9.4138   11.9785 N   0  0  0  0  0  0  0  0  0  0  0  0
   62.6966  -10.2466   11.9515 N   0  0  0  0  0  0  0  0  0  0  0  0
   62.0700  -11.3900   11.5583 C   0  0  0  0  0  0  0  0  0  0  0  0
   60.7260  -11.2283   11.5072 N   0  0  0  0  0  0  0  0  0  0  0  0
   59.7373  -12.2708   11.1184 C   0  0  1  0  0  0  0  0  0  0  0  0
   59.5179  -12.2191    9.6219 C   0  0  1  0  0  0  0  0  0  0  0  0
   59.3965  -13.6679    9.2261 C   0  0  2  0  0  0  0  0  0  0  0  0
   58.0224  -14.0719    9.2771 O   0  0  0  0  0  0  0  0  0  0  0  0
   58.3396  -11.4645    9.2982 O   0  0  0  0  0  0  0  0  0  0  0  0
   60.2543  -13.5698   11.3955 O   0  0  0  0  0  0  0  0  0  0  0  0
   60.1594  -14.4251   10.2818 C   0  0  2  0  0  0  0  0  0  0  0  0
   61.5811  -14.8102    9.9283 C   0  0  0  0  0  0  0  0  0  0  0  0
   61.6584  -15.4056    8.6494 O   0  0  0  0  0  0  0  0  0  0  0  0
   63.0364  -15.3133    7.8462 P   0  0  0  0  0  0  0  0  0  0  0  0
   62.6920  -15.7206    6.4277 O   0  0  0  0  0  0  0  0  0  0  0  0
   63.9066  -16.2890    8.5957 O   0  0  0  0  0  0  0  0  0  0  0  0
   63.4650  -13.8872    8.0543 O   0  0  0  0  0  0  0  0  0  0  0  0
  2  1  2  0  0  0  0
  2  4  1  0  0  0  0
  3  2  1  0  0  0  0
  4  7  1  0  0  0  0
  4  5  2  0  0  0  0
  5  6  1  0  0  0  0
  5  9  1  0  0  0  0
  7  8  2  0  0  0  0
  8  9  1  0  0  0  0
 10  9  1  6  0  0  0
 10 15  1  0  0  0  0
 11 14  1  1  0  0  0
 11 12  1  0  0  0  0
 11 10  1  0  0  0  0
 12 13  1  1  0  0  0
 12 16  1  0  0  0  0
 16 17  1  6  0  0  0
 16 15  1  0  0  0  0
 18 19  1  0  0  0  0
 18 17  1  0  0  0  0
 19 21  1  0  0  0  0
 20 19  1  0  0  0  0
 22 19  2  0  0  0  0
M  END
>  <CHROM.1>
-169.88496170,91.21073360,-48.10683556,-166.30875091,154.31028734,61.23622031
-12.41842775,10.18471018,-1.70731543,-0.07255847,-2.59035605

>  <Name>
lig.pdb

>  <RI>
0

>  <Rbt.Current_Directory>
/home/itssahil/PROJECTS/Mol_Feturizer/New_Systems/rnas/4znp

>  <Rbt.Executable>
rbdock ($Id: //depot/dev/client3/rdock/2013.1/src/exe/rbdock.cxx#4 $)

>  <Rbt.Library>
libRbt.so (2013.1, Build901 2013/11/27)

>  <Rbt.Parameter_File>
/export/apps/rDock/src/rDock_2013.1_src/data/scripts/dock_solv.prm

>  <Rbt.Receptor>
prm/pocket_docking_4.prm

>  <SCORE>
-7.6477

>  <SCORE.INTER>
-4.01678

>  <SCORE.INTER.CONST>
1

>  <SCORE.INTER.POLAR>
0

>  <SCORE.INTER.ROT>
5

>  <SCORE.INTER.SOLV>
16.6236

>  <SCORE.INTER.VDW>
-15.1524

>  <SCORE.INTER.norm>
-0.182581

>  <SCORE.INTRA>
-3.63092

>  <SCORE.INTRA.DIHEDRAL>
-5.51162

>  <SCORE.INTRA.DIHEDRAL.0>
11.9251

>  <SCORE.INTRA.POLAR>
0

>  <SCORE.INTRA.POLAR.0>
0

>  <SCORE.INTRA.REPUL>
0

>  <SCORE.INTRA.REPUL.0>
0

>  <SCORE.INTRA.SOLV>
0.74649

>  <SCORE.INTRA.SOLV.lig_0>
-40.9823

>  <SCORE.INTRA.VDW>
-1.24836

>  <SCORE.INTRA.VDW.0>
-0.53506

>  <SCORE.INTRA.norm>
-0.165042

>  <SCORE.RESTR>
0

>  <SCORE.RESTR.CAVITY>
0

>  <SCORE.RESTR.norm>
0

>  <SCORE.SYSTEM>
0

>  <SCORE.SYSTEM.CONST>
0

>  <SCORE.SYSTEM.DIHEDRAL>
0

>  <SCORE.SYSTEM.SOLV>
0

>  <SCORE.SYSTEM.norm>
0

>  <SCORE.heavy>
22

>  <SCORE.norm>
-0.347623

>  <RMSD>
7.330

$$$$
lig.pdb
 OpenBabel11021811523D
libRbt.so/2013.1/901 2013/11/27
 22 23  0  0  0  0  0  0  0  0999 V2000
   61.0150  -12.1720    9.9606 O   0  0  0  0  0  0  0  0  0  0  0  0
   61.7163  -11.6492    9.1267 C   0  0  0  0  0  0  0  0  0  0  0  0
   62.8115  -12.2288    8.6681 N   0  0  0  0  0  0  0  0  0  0  0  0
   61.3875  -10.3087    8.6218 C   0  0  0  0  0  0  0  0  0  0  0  0
   60.1939   -9.5426    8.9876 C   0  0  0  0  0  0  0  0  0  0  0  0
   59.2172   -9.9604    9.8212 N   0  0  0  0  0  0  0  0  0  0  0  0
   62.0451   -9.5113    7.7649 N   0  0  0  0  0  0  0  0  0  0  0  0
   61.3451   -8.3508    7.6312 C   0  0  0  0  0  0  0  0  0  0  0  0
   60.2165   -8.3616    8.3803 N   0  0  0  0  0  0  0  0  0  0  0  0
   59.2204   -7.2593    8.4707 C   0  0  1  0  0  0  0  0  0  0  0  0
   59.4806   -6.4509    9.7232 C   0  0  1  0  0  0  0  0  0  0  0  0
   59.2231   -5.0297    9.2939 C   0  0  2  0  0  0  0  0  0  0  0  0
   57.8493   -4.6937    9.5256 O   0  0  0  0  0  0  0  0  0  0  0  0
   58.6157   -6.8629   10.7931 O   0  0  0  0  0  0  0  0  0  0  0  0
   59.3819   -6.3568    7.3793 O   0  0  0  0  0  0  0  0  0  0  0  0
   59.4762   -5.0198    7.8087 C   0  0  2  0  0  0  0  0  0  0  0  0
   60.8425   -4.5353    7.3696 C   0  0  0  0  0  0  0  0  0  0  0  0
   61.8458   -5.4955    7.6296 O   0  0  0  0  0  0  0  0  0  0  0  0
   63.3727   -5.0253    7.6232 P   0  0  0  0  0  0  0  0  0  0  0  0
   63.4784   -4.0500    6.4680 O   0  0  0  0  0  0  0  0  0  0  0  0
   64.1050   -6.3275    7.4265 O   0  0  0  0  0  0  0  0  0  0  0  0
   63.5683   -4.4613    9.0032 O   0  0  0  0  0  0  0  0  0  0  0  0
  2  1  2  0  0  0  0
  2  4  1  0  0  0  0
  3  2  1  0  0  0  0
  4  7  1  0  0  0  0
  4  5  2  0  0  0  0
  5  6  1  0  0  0  0
  5  9  1  0  0  0  0
  7  8  2  0  0  0  0
  8  9  1  0  0  0  0
 10  9  1  6  0  0  0
 10 15  1  0  0  0  0
 11 14  1  1  0  0  0
 11 12  1  0  0  0  0
 11 10  1  0  0  0  0
 12 13  1  6  0  0  0
 12 16  1  0  0  0  0
 16 17  1  1  0  0  0
 16 15  1  0  0  0  0
 18 19  1  0  0  0  0
 18 17  1  0  0  0  0
 19 21  1  0  0  0  0
 20 19  1  0  0  0  0
 22 19  2  0  0  0  0
M  END
>  <CHROM.1>
-4.08096882,81.82526250,74.06639948,-39.78687213,-163.03416315,61.08252604
-7.21940048,8.46749749,-1.70291137,0.36018045,-0.16165381

>  <Name>
lig.pdb

>  <RI>
0

>  <Rbt.Current_Directory>
/home/itssahil/PROJECTS/Mol_Feturizer/New_Systems/rnas/4znp

>  <Rbt.Executable>
rbdock ($Id: //depot/dev/client3/rdock/2013.1/src/exe/rbdock.cxx#4 $)

>  <Rbt.Library>
libRbt.so (2013.1, Build901 2013/11/27)

>  <Rbt.Parameter_File>
/export/apps/rDock/src/rDock_2013.1_src/data/scripts/dock_solv.prm

>  <Rbt.Receptor>
prm/pocket_docking_8.prm

>  <SCORE>
-13.8358

>  <SCORE.INTER>
-8.93339

>  <SCORE.INTER.CONST>
1

>  <SCORE.INTER.POLAR>
0

>  <SCORE.INTER.ROT>
5

>  <SCORE.INTER.SOLV>
14.5542

>  <SCORE.INTER.VDW>
-17.7403

>  <SCORE.INTER.norm>
-0.406063

>  <SCORE.INTRA>
-4.9039

>  <SCORE.INTRA.DIHEDRAL>
-6.85134

>  <SCORE.INTRA.DIHEDRAL.0>
11.9251

>  <SCORE.INTRA.POLAR>
0

>  <SCORE.INTRA.POLAR.0>
0

>  <SCORE.INTRA.REPUL>
0

>  <SCORE.INTRA.REPUL.0>
0

>  <SCORE.INTRA.SOLV>
0.980418

>  <SCORE.INTRA.SOLV.lig_0>
-40.9823

>  <SCORE.INTRA.VDW>
-1.96844

>  <SCORE.INTRA.VDW.0>
-0.53506

>  <SCORE.INTRA.norm>
-0.222905

>  <SCORE.RESTR>
0.00147516

>  <SCORE.RESTR.CAVITY>
0.00147516

>  <SCORE.RESTR.norm>
6.70525e-05

>  <SCORE.SYSTEM>
0

>  <SCORE.SYSTEM.CONST>
0

>  <SCORE.SYSTEM.DIHEDRAL>
0

>  <SCORE.SYSTEM.SOLV>
0

>  <SCORE.SYSTEM.norm>
0

>  <SCORE.heavy>
22

>  <SCORE.norm>
-0.628901

>  <RMSD>
7.360

$$$$
lig.pdb
 OpenBabel11021811523D
libRbt.so/2013.1/901 2013/11/27
 22 23  0  0  0  0  0  0  0  0999 V2000
   62.6500   -5.1962    6.6757 O   0  0  0  0  0  0  0  0  0  0  0  0
   61.8556   -6.0560    6.9761 C   0  0  0  0  0  0  0  0  0  0  0  0
   60.5519   -5.8806    6.8521 N   0  0  0  0  0  0  0  0  0  0  0  0
   62.3253   -7.3295    7.5399 C   0  0  0  0  0  0  0  0  0  0  0  0
   61.4584   -8.3814    8.0759 C   0  0  0  0  0  0  0  0  0  0  0  0
   60.1111   -8.3281    8.1484 N   0  0  0  0  0  0  0  0  0  0  0  0
   63.5687   -7.8115    7.6951 N   0  0  0  0  0  0  0  0  0  0  0  0
   63.4843   -9.0535    8.2473 C   0  0  0  0  0  0  0  0  0  0  0  0
   62.1976   -9.4096    8.4767 N   0  0  0  0  0  0  0  0  0  0  0  0
   61.7423  -10.6963    9.0703 C   0  0  1  0  0  0  0  0  0  0  0  0
   62.4364  -11.8441    8.3697 C   0  0  1  0  0  0  0  0  0  0  0  0
   62.7258  -12.8209    9.4799 C   0  0  2  0  0  0  0  0  0  0  0  0
   61.6349  -13.7407    9.6143 O   0  0  0  0  0  0  0  0  0  0  0  0
   61.5982  -12.4098    7.3499 O   0  0  0  0  0  0  0  0  0  0  0  0
   62.1348  -10.7755   10.4383 O   0  0  0  0  0  0  0  0  0  0  0  0
   62.8020  -11.9803   10.7279 C   0  0  2  0  0  0  0  0  0  0  0  0
   64.1927  -11.5889   11.1829 C   0  0  0  0  0  0  0  0  0  0  0  0
   64.1523  -10.6695   12.2549 O   0  0  0  0  0  0  0  0  0  0  0  0
   65.4325   -9.7521   12.5229 P   0  0  0  0  0  0  0  0  0  0  0  0
   65.2571   -9.2368   13.9373 O   0  0  0  0  0  0  0  0  0  0  0  0
   65.3060   -8.7076   11.4441 O   0  0  0  0  0  0  0  0  0  0  0  0
   66.5859  -10.6864   12.2827 O   0  0  0  0  0  0  0  0  0  0  0  0
  2  1  2  0  0  0  0
  2  4  1  0  0  0  0
  3  2  1  0  0  0  0
  4  7  1  0  0  0  0
  4  5  2  0  0  0  0
  5  6  1  0  0  0  0
  5  9  1  0  0  0  0
  7  8  2  0  0  0  0
  8  9  1  0  0  0  0
 10  9  1  6  0  0  0
 10 15  1  0  0  0  0
 11 14  1  6  0  0  0
 11 12  1  0  0  0  0
 11 10  1  0  0  0  0
 12 13  1  1  0  0  0
 12 16  1  0  0  0  0
 16 17  1  6  0  0  0
 16 15  1  0  0  0  0
 18 19  1  0  0  0  0
 18 17  1  0  0  0  0
 19 21  1  0  0  0  0
 20 19  1  0  0  0  0
 22 19  2  0  0  0  0
M  END
>  <CHROM.1>
172.90776669,132.21385259,172.59583619,-162.45164213,-158.20120748,63.10672506
-9.70225362,9.67476022,-2.34607199,0.84796894,2.82850004

>  <Name>
lig.pdb

>  <RI>
0

>  <Rbt.Current_Directory>
/home/itssahil/PROJECTS/Mol_Feturizer/New_Systems/rnas/4znp

>  <Rbt.Executable>
rbdock ($Id: //depot/dev/client3/rdock/2013.1/src/exe/rbdock.cxx#4 $)

>  <Rbt.Library>
libRbt.so (2013.1, Build901 2013/11/27)

>  <Rbt.Parameter_File>
/export/apps/rDock/src/rDock_2013.1_src/data/scripts/dock_solv.prm

>  <Rbt.Receptor>
prm/pocket_docking_8.prm

>  <SCORE>
-12.7752

>  <SCORE.INTER>
-8.53139

>  <SCORE.INTER.CONST>
1

>  <SCORE.INTER.POLAR>
0

>  <SCORE.INTER.ROT>
5

>  <SCORE.INTER.SOLV>
17.1942

>  <SCORE.INTER.VDW>
-18.3523

>  <SCORE.INTER.norm>
-0.387791

>  <SCORE.INTRA>
-4.24384

>  <SCORE.INTRA.DIHEDRAL>
-6.54599

>  <SCORE.INTRA.DIHEDRAL.0>
11.9251

>  <SCORE.INTRA.POLAR>
0

>  <SCORE.INTRA.POLAR.0>
0

>  <SCORE.INTRA.REPUL>
0

>  <SCORE.INTRA.REPUL.0>
0

>  <SCORE.INTRA.SOLV>
0.225002

>  <SCORE.INTRA.SOLV.lig_0>
-40.9823

>  <SCORE.INTRA.VDW>
-1.08335

>  <SCORE.INTRA.VDW.0>
-0.53506

>  <SCORE.INTRA.norm>
-0.192902

>  <SCORE.RESTR>
0

>  <SCORE.RESTR.CAVITY>
0

>  <SCORE.RESTR.norm>
0

>  <SCORE.SYSTEM>
0

>  <SCORE.SYSTEM.CONST>
0

>  <SCORE.SYSTEM.DIHEDRAL>
0

>  <SCORE.SYSTEM.SOLV>
0

>  <SCORE.SYSTEM.norm>
0

>  <SCORE.heavy>
22

>  <SCORE.norm>
-0.580693

>  <RMSD>
7.365

$$$$
lig.pdb
 OpenBabel11021811523D
libRbt.so/2013.1/901 2013/11/27
 22 23  0  0  0  0  0  0  0  0999 V2000
   63.6551   -9.0802   16.0753 O   0  0  0  0  0  0  0  0  0  0  0  0
   62.4985   -9.3929   15.9172 C   0  0  0  0  0  0  0  0  0  0  0  0
   61.6305   -9.3969   16.9134 N   0  0  0  0  0  0  0  0  0  0  0  0
   62.0264   -9.8282   14.5952 C   0  0  0  0  0  0  0  0  0  0  0  0
   62.8583   -9.9150   13.3928 C   0  0  0  0  0  0  0  0  0  0  0  0
   64.1671   -9.5913   13.3178 N   0  0  0  0  0  0  0  0  0  0  0  0
   60.8099  -10.2237   14.1876 N   0  0  0  0  0  0  0  0  0  0  0  0
   60.8823  -10.5518   12.8678 C   0  0  0  0  0  0  0  0  0  0  0  0
   62.1324  -10.3710   12.3782 N   0  0  0  0  0  0  0  0  0  0  0  0
   62.5655  -10.6302   10.9780 C   0  0  1  0  0  0  0  0  0  0  0  0
   63.1192  -12.0350   10.8772 C   0  0  1  0  0  0  0  0  0  0  0  0
   62.6240  -12.5216    9.5399 C   0  0  2  0  0  0  0  0  0  0  0  0
   63.5874  -12.2146    8.5242 O   0  0  0  0  0  0  0  0  0  0  0  0
   64.5529  -12.0325   10.9603 O   0  0  0  0  0  0  0  0  0  0  0  0
   61.4452  -10.5849   10.0979 O   0  0  0  0  0  0  0  0  0  0  0  0
   61.3742  -11.7235    9.2737 C   0  0  2  0  0  0  0  0  0  0  0  0
   60.0645  -12.4044    9.6136 C   0  0  0  0  0  0  0  0  0  0  0  0
   60.0005  -13.7105    9.0788 O   0  0  0  0  0  0  0  0  0  0  0  0
   58.9871  -14.7561    9.7364 P   0  0  0  0  0  0  0  0  0  0  0  0
   59.3307  -16.0885    9.1011 O   0  0  0  0  0  0  0  0  0  0  0  0
   57.6472  -14.1896    9.3434 O   0  0  0  0  0  0  0  0  0  0  0  0
   59.2559  -14.6210   11.2095 O   0  0  0  0  0  0  0  0  0  0  0  0
  2  1  2  0  0  0  0
  2  4  1  0  0  0  0
  3  2  1  0  0  0  0
  4  7  1  0  0  0  0
  4  5  2  0  0  0  0
  5  6  1  0  0  0  0
  5  9  1  0  0  0  0
  7  8  2  0  0  0  0
  8  9  1  0  0  0  0
 10  9  1  1  0  0  0
 10 15  1  0  0  0  0
 11 14  1  6  0  0  0
 11 12  1  0  0  0  0
 11 10  1  0  0  0  0
 12 13  1  6  0  0  0
 12 16  1  0  0  0  0
 16 17  1  1  0  0  0
 16 15  1  0  0  0  0
 18 19  1  0  0  0  0
 18 17  1  0  0  0  0
 19 21  1  0  0  0  0
 20 19  1  0  0  0  0
 22 19  2  0  0  0  0
M  END
>  <CHROM.1>
-0.46637311,87.27708325,-48.98011723,-170.73825610,158.28740402,61.42288752
-11.88492432,11.52956843,1.08949573,0.50038079,1.10104374

>  <Name>
lig.pdb

>  <RI>
0

>  <Rbt.Current_Directory>
/home/itssahil/PROJECTS/Mol_Feturizer/New_Systems/rnas/4znp

>  <Rbt.Executable>
rbdock ($Id: //depot/dev/client3/rdock/2013.1/src/exe/rbdock.cxx#4 $)

>  <Rbt.Library>
libRbt.so (2013.1, Build901 2013/11/27)

>  <Rbt.Parameter_File>
/export/apps/rDock/src/rDock_2013.1_src/data/scripts/dock_solv.prm

>  <Rbt.Receptor>
prm/pocket_docking_8.prm

>  <SCORE>
-13.5967

>  <SCORE.INTER>
-9.11809

>  <SCORE.INTER.CONST>
1

>  <SCORE.INTER.POLAR>
0

>  <SCORE.INTER.ROT>
5

>  <SCORE.INTER.SOLV>
15.1862

>  <SCORE.INTER.VDW>
-18.0741

>  <SCORE.INTER.norm>
-0.414459

>  <SCORE.INTRA>
-4.47864

>  <SCORE.INTRA.DIHEDRAL>
-6.87541

>  <SCORE.INTRA.DIHEDRAL.0>
11.9251

>  <SCORE.INTRA.POLAR>
0

>  <SCORE.INTRA.POLAR.0>
0

>  <SCORE.INTRA.REPUL>
0

>  <SCORE.INTRA.REPUL.0>
0

>  <SCORE.INTRA.SOLV>
0.494854

>  <SCORE.INTRA.SOLV.lig_0>
-40.9823

>  <SCORE.INTRA.VDW>
-1.28836

>  <SCORE.INTRA.VDW.0>
-0.53506

>  <SCORE.INTRA.norm>
-0.203575

>  <SCORE.RESTR>
0

>  <SCORE.RESTR.CAVITY>
0

>  <SCORE.RESTR.norm>
0

>  <SCORE.SYSTEM>
0

>  <SCORE.SYSTEM.CONST>
0

>  <SCORE.SYSTEM.DIHEDRAL>
0

>  <SCORE.SYSTEM.SOLV>
0

>  <SCORE.SYSTEM.norm>
0

>  <SCORE.heavy>
22

>  <SCORE.norm>
-0.618034

>  <RMSD>
7.382

$$$$
lig.pdb
 OpenBabel11021811523D
libRbt.so/2013.1/901 2013/11/27
 22 23  0  0  0  0  0  0  0  0999 V2000
   62.8172   -7.1782    6.2501 O   0  0  0  0  0  0  0  0  0  0  0  0
   62.1596   -7.1824    7.2640 C   0  0  0  0  0  0  0  0  0  0  0  0
   61.5586   -6.0955    7.7148 N   0  0  0  0  0  0  0  0  0  0  0  0
   62.0440   -8.4107    8.0629 C   0  0  0  0  0  0  0  0  0  0  0  0
   61.3628   -8.5110    9.3557 C   0  0  0  0  0  0  0  0  0  0  0  0
   60.7624   -7.4928   10.0084 N   0  0  0  0  0  0  0  0  0  0  0  0
   62.4984   -9.6522    7.8288 N   0  0  0  0  0  0  0  0  0  0  0  0
   62.1142  -10.4541    8.8603 C   0  0  0  0  0  0  0  0  0  0  0  0
   61.4151   -9.7641    9.7931 N   0  0  0  0  0  0  0  0  0  0  0  0
   60.8460  -10.3268   11.0481 C   0  0  1  0  0  0  0  0  0  0  0  0
   59.3649  -10.5733   10.8595 C   0  0  1  0  0  0  0  0  0  0  0  0
   59.1201  -11.8686   11.5894 C   0  0  2  0  0  0  0  0  0  0  0  0
   58.7639  -11.5990   12.9512 O   0  0  0  0  0  0  0  0  0  0  0  0
   58.5885   -9.4902   11.3948 O   0  0  0  0  0  0  0  0  0  0  0  0
   61.4245  -11.5997   11.3255 O   0  0  0  0  0  0  0  0  0  0  0  0
   60.4471  -12.5819   11.5722 C   0  0  2  0  0  0  0  0  0  0  0  0
   60.6258  -13.6294   10.4928 C   0  0  0  0  0  0  0  0  0  0  0  0
   59.9083  -14.8104   10.7870 O   0  0  0  0  0  0  0  0  0  0  0  0
   59.9339  -16.0040    9.7252 P   0  0  0  0  0  0  0  0  0  0  0  0
   61.2897  -15.9044    9.0553 O   0  0  0  0  0  0  0  0  0  0  0  0
   58.7605  -15.6680    8.8415 O   0  0  0  0  0  0  0  0  0  0  0  0
   59.6850  -17.2240   10.5680 O   0  0  0  0  0  0  0  0  0  0  0  0
  2  1  2  0  0  0  0
  2  4  1  0  0  0  0
  3  2  1  0  0  0  0
  4  7  1  0  0  0  0
  4  5  2  0  0  0  0
  5  6  1  0  0  0  0
  5  9  1  0  0  0  0
  7  8  2  0  0  0  0
  8  9  1  0  0  0  0
 10  9  1  6  0  0  0
 10 15  1  0  0  0  0
 11 14  1  1  0  0  0
 11 12  1  0  0  0  0
 11 10  1  0  0  0  0
 12 13  1  1  0  0  0
 12 16  1  0  0  0  0
 16 17  1  6  0  0  0
 16 15  1  0  0  0  0
 18 19  1  0  0  0  0
 18 17  1  0  0  0  0
 19 21  1  0  0  0  0
 20 19  1  0  0  0  0
 22 19  2  0  0  0  0
M  END
>  <CHROM.1>
175.12301853,79.84034151,-74.96917329,31.28475506,177.53574992,60.62198793
-11.57267990,9.81604749,-1.11350769,-1.02035486,-2.98840573

>  <Name>
lig.pdb

>  <RI>
0

>  <Rbt.Current_Directory>
/home/itssahil/PROJECTS/Mol_Feturizer/New_Systems/rnas/4znp

>  <Rbt.Executable>
rbdock ($Id: //depot/dev/client3/rdock/2013.1/src/exe/rbdock.cxx#4 $)

>  <Rbt.Library>
libRbt.so (2013.1, Build901 2013/11/27)

>  <Rbt.Parameter_File>
/export/apps/rDock/src/rDock_2013.1_src/data/scripts/dock_solv.prm

>  <Rbt.Receptor>
prm/pocket_docking_7.prm

>  <SCORE>
-14.666

>  <SCORE.INTER>
-9.97699

>  <SCORE.INTER.CONST>
1

>  <SCORE.INTER.POLAR>
0

>  <SCORE.INTER.ROT>
5

>  <SCORE.INTER.SOLV>
14.3263

>  <SCORE.INTER.VDW>
-18.3601

>  <SCORE.INTER.norm>
-0.4535

>  <SCORE.INTRA>
-4.68906

>  <SCORE.INTRA.DIHEDRAL>
-7.61529

>  <SCORE.INTRA.DIHEDRAL.0>
11.9251

>  <SCORE.INTRA.POLAR>
0

>  <SCORE.INTRA.POLAR.0>
0

>  <SCORE.INTRA.REPUL>
0

>  <SCORE.INTRA.REPUL.0>
0

>  <SCORE.INTRA.SOLV>
0.258846

>  <SCORE.INTRA.SOLV.lig_0>
-40.9823

>  <SCORE.INTRA.VDW>
-1.01083

>  <SCORE.INTRA.VDW.0>
-0.53506

>  <SCORE.INTRA.norm>
-0.213139

>  <SCORE.RESTR>
0

>  <SCORE.RESTR.CAVITY>
0

>  <SCORE.RESTR.norm>
0

>  <SCORE.SYSTEM>
0

>  <SCORE.SYSTEM.CONST>
0

>  <SCORE.SYSTEM.DIHEDRAL>
0

>  <SCORE.SYSTEM.SOLV>
0

>  <SCORE.SYSTEM.norm>
0

>  <SCORE.heavy>
22

>  <SCORE.norm>
-0.666638

>  <RMSD>
7.418

$$$$
lig.pdb
 OpenBabel11021811523D
libRbt.so/2013.1/901 2013/11/27
 22 23  0  0  0  0  0  0  0  0999 V2000
   62.2352   -5.2269    6.9831 O   0  0  0  0  0  0  0  0  0  0  0  0
   61.2059   -5.8529    7.0786 C   0  0  0  0  0  0  0  0  0  0  0  0
   60.0234   -5.2887    6.9082 N   0  0  0  0  0  0  0  0  0  0  0  0
   61.2400   -7.2778    7.4374 C   0  0  0  0  0  0  0  0  0  0  0  0
   62.4112   -7.9844    7.9612 C   0  0  0  0  0  0  0  0  0  0  0  0
   63.6286   -7.4393    8.1714 N   0  0  0  0  0  0  0  0  0  0  0  0
   60.2829   -8.2175    7.3791 N   0  0  0  0  0  0  0  0  0  0  0  0
   60.7981   -9.3881    7.8470 C   0  0  0  0  0  0  0  0  0  0  0  0
   62.0960   -9.2505    8.2097 N   0  0  0  0  0  0  0  0  0  0  0  0
   62.9653  -10.3259    8.7605 C   0  0  1  0  0  0  0  0  0  0  0  0
   62.6895  -10.4838   10.2400 C   0  0  1  0  0  0  0  0  0  0  0  0
   62.7598  -11.9724   10.4621 C   0  0  2  0  0  0  0  0  0  0  0  0
   64.0982  -12.3491   10.8094 O   0  0  0  0  0  0  0  0  0  0  0  0
   63.6565   -9.7688   11.0251 O   0  0  0  0  0  0  0  0  0  0  0  0
   62.6395  -11.5787    8.1637 O   0  0  0  0  0  0  0  0  0  0  0  0
   62.4206  -12.5816    9.1265 C   0  0  2  0  0  0  0  0  0  0  0  0
   60.9850  -13.0294    8.9444 C   0  0  0  0  0  0  0  0  0  0  0  0
   60.7735  -14.3280    9.4589 O   0  0  0  0  0  0  0  0  0  0  0  0
   59.3329  -14.6914   10.0464 P   0  0  0  0  0  0  0  0  0  0  0  0
   59.2225  -13.8988   11.3334 O   0  0  0  0  0  0  0  0  0  0  0  0
   59.4300  -16.1846   10.2242 O   0  0  0  0  0  0  0  0  0  0  0  0
   58.3971  -14.3070    8.9341 O   0  0  0  0  0  0  0  0  0  0  0  0
  2  1  2  0  0  0  0
  2  4  1  0  0  0  0
  3  2  1  0  0  0  0
  4  7  1  0  0  0  0
  4  5  2  0  0  0  0
  5  6  1  0  0  0  0
  5  9  1  0  0  0  0
  7  8  2  0  0  0  0
  8  9  1  0  0  0  0
 10  9  1  6  0  0  0
 10 15  1  0  0  0  0
 11 14  1  1  0  0  0
 11 12  1  0  0  0  0
 11 10  1  0  0  0  0
 12 13  1  6  0  0  0
 12 16  1  0  0  0  0
 16 17  1  1  0  0  0
 16 15  1  0  0  0  0
 18 19  1  0  0  0  0
 18 17  1  0  0  0  0
 19 21  1  0  0  0  0
 20 19  1  0  0  0  0
 22 19  2  0  0  0  0
M  END
>  <CHROM.1>
12.93284332,99.38533966,-84.50262179,-70.41347873,149.17418236,61.37710432
-10.87199653,9.00071242,1.33592807,-0.36507318,-0.39735015

>  <Name>
lig.pdb

>  <RI>
0

>  <Rbt.Current_Directory>
/home/itssahil/PROJECTS/Mol_Feturizer/New_Systems/rnas/4znp

>  <Rbt.Executable>
rbdock ($Id: //depot/dev/client3/rdock/2013.1/src/exe/rbdock.cxx#4 $)

>  <Rbt.Library>
libRbt.so (2013.1, Build901 2013/11/27)

>  <Rbt.Parameter_File>
/export/apps/rDock/src/rDock_2013.1_src/data/scripts/dock_solv.prm

>  <Rbt.Receptor>
prm/pocket_docking_6.prm

>  <SCORE>
-16.7171

>  <SCORE.INTER>
-13.7554

>  <SCORE.INTER.CONST>
1

>  <SCORE.INTER.POLAR>
0

>  <SCORE.INTER.ROT>
5

>  <SCORE.INTER.SOLV>
18.424

>  <SCORE.INTER.VDW>
-22.2449

>  <SCORE.INTER.norm>
-0.625245

>  <SCORE.INTRA>
-2.96167

>  <SCORE.INTRA.DIHEDRAL>
-3.08034

>  <SCORE.INTRA.DIHEDRAL.0>
11.9251

>  <SCORE.INTRA.POLAR>
0

>  <SCORE.INTRA.POLAR.0>
0

>  <SCORE.INTRA.REPUL>
0

>  <SCORE.INTRA.REPUL.0>
0

>  <SCORE.INTRA.SOLV>
0.166224

>  <SCORE.INTRA.SOLV.lig_0>
-40.9823

>  <SCORE.INTRA.VDW>
-1.50462

>  <SCORE.INTRA.VDW.0>
-0.53506

>  <SCORE.INTRA.norm>
-0.134622

>  <SCORE.RESTR>
0

>  <SCORE.RESTR.CAVITY>
0

>  <SCORE.RESTR.norm>
0

>  <SCORE.SYSTEM>
0

>  <SCORE.SYSTEM.CONST>
0

>  <SCORE.SYSTEM.DIHEDRAL>
0

>  <SCORE.SYSTEM.SOLV>
0

>  <SCORE.SYSTEM.norm>
0

>  <SCORE.heavy>
22

>  <SCORE.norm>
-0.759866

>  <RMSD>
7.439

$$$$
lig.pdb
 OpenBabel11021811523D
libRbt.so/2013.1/901 2013/11/27
 22 23  0  0  0  0  0  0  0  0999 V2000
   61.6025   -4.9683    7.7242 O   0  0  0  0  0  0  0  0  0  0  0  0
   60.6729   -5.7320    7.6104 C   0  0  0  0  0  0  0  0  0  0  0  0
   59.4375   -5.3083    7.4105 N   0  0  0  0  0  0  0  0  0  0  0  0
   60.8885   -7.1803    7.7375 C   0  0  0  0  0  0  0  0  0  0  0  0
   62.1088   -7.8059    8.2521 C   0  0  0  0  0  0  0  0  0  0  0  0
   63.2147   -7.1496    8.6640 N   0  0  0  0  0  0  0  0  0  0  0  0
   60.0860   -8.2137    7.4368 N   0  0  0  0  0  0  0  0  0  0  0  0
   60.7311   -9.3692    7.7585 C   0  0  0  0  0  0  0  0  0  0  0  0
   61.9647   -9.1263    8.2626 N   0  0  0  0  0  0  0  0  0  0  0  0
   62.9391  -10.1564    8.7153 C   0  0  1  0  0  0  0  0  0  0  0  0
   62.7947  -10.3602   10.2079 C   0  0  1  0  0  0  0  0  0  0  0  0
   62.9723  -11.8458   10.3867 C   0  0  2  0  0  0  0  0  0  0  0  0
   64.3548  -12.1456   10.6165 O   0  0  0  0  0  0  0  0  0  0  0  0
   63.7776   -9.6023   10.9304 O   0  0  0  0  0  0  0  0  0  0  0  0
   62.6418  -11.4149    8.1158 O   0  0  0  0  0  0  0  0  0  0  0  0
   62.5628  -12.4483    9.0680 C   0  0  2  0  0  0  0  0  0  0  0  0
   61.1467  -12.9805    8.9903 C   0  0  0  0  0  0  0  0  0  0  0  0
   61.0165  -14.2185    9.6585 O   0  0  0  0  0  0  0  0  0  0  0  0
   59.5634  -14.6785   10.1377 P   0  0  0  0  0  0  0  0  0  0  0  0
   58.6418  -14.3301    8.9862 O   0  0  0  0  0  0  0  0  0  0  0  0
   59.3648  -13.8553   11.3841 O   0  0  0  0  0  0  0  0  0  0  0  0
   59.7438  -16.1403   10.4398 O   0  0  0  0  0  0  0  0  0  0  0  0
  2  1  2  0  0  0  0
  2  4  1  0  0  0  0
  3  2  1  0  0  0  0
  4  7  1  0  0  0  0
  4  5  2  0  0  0  0
  5  6  1  0  0  0  0
  5  9  1  0  0  0  0
  7  8  2  0  0  0  0
  8  9  1  0  0  0  0
 10  9  1  6  0  0  0
 10 15  1  0  0  0  0
 11 14  1  1  0  0  0
 11 12  1  0  0  0  0
 11 10  1  0  0  0  0
 12 13  1  6  0  0  0
 12 16  1  0  0  0  0
 16 17  1  1  0  0  0
 16 15  1  0  0  0  0
 18 19  1  0  0  0  0
 18 17  1  0  0  0  0
 19 21  1  0  0  0  0
 20 19  1  0  0  0  0
 22 19  2  0  0  0  0
M  END
>  <CHROM.1>
12.51442928,85.91522900,-76.06561833,42.19792331,158.48609663,61.35403344
-10.76798706,9.13191852,1.42269929,-0.30421969,-0.31455948

>  <Name>
lig.pdb

>  <RI>
0

>  <Rbt.Current_Directory>
/home/itssahil/PROJECTS/Mol_Feturizer/New_Systems/rnas/4znp

>  <Rbt.Executable>
rbdock ($Id: //depot/dev/client3/rdock/2013.1/src/exe/rbdock.cxx#4 $)

>  <Rbt.Library>
libRbt.so (2013.1, Build901 2013/11/27)

>  <Rbt.Parameter_File>
/export/apps/rDock/src/rDock_2013.1_src/data/scripts/dock_solv.prm

>  <Rbt.Receptor>
prm/pocket_docking_5.prm

>  <SCORE>
-16.4312

>  <SCORE.INTER>
-12.311

>  <SCORE.INTER.CONST>
1

>  <SCORE.INTER.POLAR>
0

>  <SCORE.INTER.ROT>
5

>  <SCORE.INTER.SOLV>
16.7995

>  <SCORE.INTER.VDW>
-20.7405

>  <SCORE.INTER.norm>
-0.55959

>  <SCORE.INTRA>
-4.12026

>  <SCORE.INTRA.DIHEDRAL>
-5.53881

>  <SCORE.INTRA.DIHEDRAL.0>
11.9251

>  <SCORE.INTRA.POLAR>
0

>  <SCORE.INTRA.POLAR.0>
0

>  <SCORE.INTRA.REPUL>
0

>  <SCORE.INTRA.REPUL.0>
0

>  <SCORE.INTRA.SOLV>
0.0373517

>  <SCORE.INTRA.SOLV.lig_0>
-40.9823

>  <SCORE.INTRA.VDW>
-1.36953

>  <SCORE.INTRA.VDW.0>
-0.53506

>  <SCORE.INTRA.norm>
-0.187284

>  <SCORE.RESTR>
0

>  <SCORE.RESTR.CAVITY>
0

>  <SCORE.RESTR.norm>
0

>  <SCORE.SYSTEM>
0

>  <SCORE.SYSTEM.CONST>
0

>  <SCORE.SYSTEM.DIHEDRAL>
0

>  <SCORE.SYSTEM.SOLV>
0

>  <SCORE.SYSTEM.norm>
0

>  <SCORE.heavy>
22

>  <SCORE.norm>
-0.746875

>  <RMSD>
7.443

$$$$
lig.pdb
 OpenBabel11021811523D
libRbt.so/2013.1/901 2013/11/27
 22 23  0  0  0  0  0  0  0  0999 V2000
   62.2816   -5.3048    6.8915 O   0  0  0  0  0  0  0  0  0  0  0  0
   61.2469   -5.9171    7.0141 C   0  0  0  0  0  0  0  0  0  0  0  0
   60.0682   -5.3410    6.8572 N   0  0  0  0  0  0  0  0  0  0  0  0
   61.2706   -7.3374    7.3916 C   0  0  0  0  0  0  0  0  0  0  0  0
   62.4380   -8.0466    7.9202 C   0  0  0  0  0  0  0  0  0  0  0  0
   63.6607   -7.5089    8.1186 N   0  0  0  0  0  0  0  0  0  0  0  0
   60.3056   -8.2697    7.3494 N   0  0  0  0  0  0  0  0  0  0  0  0
   60.8130   -9.4383    7.8309 C   0  0  0  0  0  0  0  0  0  0  0  0
   62.1133   -9.3067    8.1867 N   0  0  0  0  0  0  0  0  0  0  0  0
   62.9759  -10.3818    8.7484 C   0  0  1  0  0  0  0  0  0  0  0  0
   62.7295  -10.4946   10.2373 C   0  0  1  0  0  0  0  0  0  0  0  0
   62.7792  -11.9777   10.4987 C   0  0  2  0  0  0  0  0  0  0  0  0
   64.1182  -12.3683   10.8280 O   0  0  0  0  0  0  0  0  0  0  0  0
   63.7253   -9.7757   10.9817 O   0  0  0  0  0  0  0  0  0  0  0  0
   62.6160  -11.6444    8.1934 O   0  0  0  0  0  0  0  0  0  0  0  0
   62.4009  -12.6168    9.1879 C   0  0  2  0  0  0  0  0  0  0  0  0
   60.9543  -13.0440    9.0485 C   0  0  0  0  0  0  0  0  0  0  0  0
   60.7608  -14.3787    9.4695 O   0  0  0  0  0  0  0  0  0  0  0  0
   59.3089  -14.8184    9.9707 P   0  0  0  0  0  0  0  0  0  0  0  0
   58.3584  -14.3329    8.8948 O   0  0  0  0  0  0  0  0  0  0  0  0
   59.1976  -14.0999   11.2906 O   0  0  0  0  0  0  0  0  0  0  0  0
   59.4354  -16.3073   10.1383 O   0  0  0  0  0  0  0  0  0  0  0  0
  2  1  2  0  0  0  0
  2  4  1  0  0  0  0
  3  2  1  0  0  0  0
  4  7  1  0  0  0  0
  4  5  2  0  0  0  0
  5  6  1  0  0  0  0
  5  9  1  0  0  0  0
  7  8  2  0  0  0  0
  8  9  1  0  0  0  0
 10  9  1  6  0  0  0
 10 15  1  0  0  0  0
 11 14  1  1  0  0  0
 11 12  1  0  0  0  0
 11 10  1  0  0  0  0
 12 13  1  6  0  0  0
 12 16  1  0  0  0  0
 16 17  1  1  0  0  0
 16 15  1  0  0  0  0
 18 19  1  0  0  0  0
 18 17  1  0  0  0  0
 19 21  1  0  0  0  0
 20 19  1  0  0  0  0
 22 19  2  0  0  0  0
M  END
>  <CHROM.1>
13.77455757,97.99521755,-90.92121968,49.40017409,155.03516830,61.38663506
-10.93491681,8.97671485,1.32514848,-0.38105153,-0.40480447

>  <Name>
lig.pdb

>  <RI>
0

>  <Rbt.Current_Directory>
/home/itssahil/PROJECTS/Mol_Feturizer/New_Systems/rnas/4znp

>  <Rbt.Executable>
rbdock ($Id: //depot/dev/client3/rdock/2013.1/src/exe/rbdock.cxx#4 $)

>  <Rbt.Library>
libRbt.so (2013.1, Build901 2013/11/27)

>  <Rbt.Parameter_File>
/export/apps/rDock/src/rDock_2013.1_src/data/scripts/dock_solv.prm

>  <Rbt.Receptor>
prm/pocket_docking_6.prm

>  <SCORE>
-17.2009

>  <SCORE.INTER>
-14.0736

>  <SCORE.INTER.CONST>
1

>  <SCORE.INTER.POLAR>
0

>  <SCORE.INTER.ROT>
5

>  <SCORE.INTER.SOLV>
18.63

>  <SCORE.INTER.VDW>
-22.5257

>  <SCORE.INTER.norm>
-0.639708

>  <SCORE.INTRA>
-3.1273

>  <SCORE.INTRA.DIHEDRAL>
-3.2154

>  <SCORE.INTRA.DIHEDRAL.0>
11.9251

>  <SCORE.INTRA.POLAR>
0

>  <SCORE.INTRA.POLAR.0>
0

>  <SCORE.INTRA.REPUL>
0

>  <SCORE.INTRA.REPUL.0>
0

>  <SCORE.INTRA.SOLV>
-0.158448

>  <SCORE.INTRA.SOLV.lig_0>
-40.9823

>  <SCORE.INTRA.VDW>
-1.44038

>  <SCORE.INTRA.VDW.0>
-0.53506

>  <SCORE.INTRA.norm>
-0.14215

>  <SCORE.RESTR>
0

>  <SCORE.RESTR.CAVITY>
0

>  <SCORE.RESTR.norm>
0

>  <SCORE.SYSTEM>
0

>  <SCORE.SYSTEM.CONST>
0

>  <SCORE.SYSTEM.DIHEDRAL>
0

>  <SCORE.SYSTEM.SOLV>
0

>  <SCORE.SYSTEM.norm>
0

>  <SCORE.heavy>
22

>  <SCORE.norm>
-0.781858

>  <RMSD>
7.454

$$$$
lig.pdb
 OpenBabel11021811523D
libRbt.so/2013.1/901 2013/11/27
 22 23  0  0  0  0  0  0  0  0999 V2000
   60.1787   -5.4711    6.5811 O   0  0  0  0  0  0  0  0  0  0  0  0
   61.2138   -5.9735    6.9507 C   0  0  0  0  0  0  0  0  0  0  0  0
   62.3466   -5.2947    6.9943 N   0  0  0  0  0  0  0  0  0  0  0  0
   61.2509   -7.3936    7.3277 C   0  0  0  0  0  0  0  0  0  0  0  0
   62.4121   -8.0816    7.8967 C   0  0  0  0  0  0  0  0  0  0  0  0
   63.6166   -7.5214    8.1385 N   0  0  0  0  0  0  0  0  0  0  0  0
   60.3056   -8.3438    7.2508 N   0  0  0  0  0  0  0  0  0  0  0  0
   60.8176   -9.5033    7.7490 C   0  0  0  0  0  0  0  0  0  0  0  0
   62.1019   -9.3479    8.1506 N   0  0  0  0  0  0  0  0  0  0  0  0
   62.9641  -10.4075    8.7416 C   0  0  1  0  0  0  0  0  0  0  0  0
   62.6778  -10.5170   10.2235 C   0  0  1  0  0  0  0  0  0  0  0  0
   62.7420  -11.9980   10.4937 C   0  0  2  0  0  0  0  0  0  0  0  0
   64.0769  -12.3672   10.8622 O   0  0  0  0  0  0  0  0  0  0  0  0
   63.6417   -9.7800   10.9919 O   0  0  0  0  0  0  0  0  0  0  0  0
   62.6385  -11.6779    8.1832 O   0  0  0  0  0  0  0  0  0  0  0  0
   62.4100  -12.6488    9.1761 C   0  0  2  0  0  0  0  0  0  0  0  0
   60.9743  -13.0980    8.9986 C   0  0  0  0  0  0  0  0  0  0  0  0
   60.7737  -14.4098    9.4833 O   0  0  0  0  0  0  0  0  0  0  0  0
   59.3188  -14.8179   10.0022 P   0  0  0  0  0  0  0  0  0  0  0  0
   58.3706  -14.3617    8.9115 O   0  0  0  0  0  0  0  0  0  0  0  0
   59.2169  -14.0523   11.2961 O   0  0  0  0  0  0  0  0  0  0  0  0
   59.4317  -16.3011   10.2221 O   0  0  0  0  0  0  0  0  0  0  0  0
  2  1  2  0  0  0  0
  2  4  1  0  0  0  0
  3  2  1  0  0  0  0
  4  7  1  0  0  0  0
  4  5  2  0  0  0  0
  5  6  1  0  0  0  0
  5  9  1  0  0  0  0
  7  8  2  0  0  0  0
  8  9  1  0  0  0  0
 10  9  1  6  0  0  0
 10 15  1  0  0  0  0
 11 14  1  1  0  0  0
 11 12  1  0  0  0  0
 11 10  1  0  0  0  0
 12 13  1  6  0  0  0
 12 16  1  0  0  0  0
 16 17  1  1  0  0  0
 16 15  1  0  0  0  0
 18 19  1  0  0  0  0
 18 17  1  0  0  0  0
 19 21  1  0  0  0  0
 20 19  1  0  0  0  0
 22 19  2  0  0  0  0
M  END
>  <CHROM.1>
-174.48322500,97.40979384,-87.92686777,48.57247305,152.51982691,61.37153379
-10.96263634,8.96072319,1.33068441,-0.39964731,-0.41968165

>  <Name>
lig.pdb

>  <RI>
0

>  <Rbt.Current_Directory>
/home/itssahil/PROJECTS/Mol_Feturizer/New_Systems/rnas/4znp

>  <Rbt.Executable>
rbdock ($Id: //depot/dev/client3/rdock/2013.1/src/exe/rbdock.cxx#4 $)

>  <Rbt.Library>
libRbt.so (2013.1, Build901 2013/11/27)

>  <Rbt.Parameter_File>
/export/apps/rDock/src/rDock_2013.1_src/data/scripts/dock_solv.prm

>  <Rbt.Receptor>
prm/pocket_docking_6.prm

>  <SCORE>
-17.7578

>  <SCORE.INTER>
-14.5517

>  <SCORE.INTER.CONST>
1

>  <SCORE.INTER.POLAR>
0

>  <SCORE.INTER.ROT>
5

>  <SCORE.INTER.SOLV>
18.7305

>  <SCORE.INTER.VDW>
-22.878

>  <SCORE.INTER.norm>
-0.66144

>  <SCORE.INTRA>
-3.20611

>  <SCORE.INTRA.DIHEDRAL>
-3.7308

>  <SCORE.INTRA.DIHEDRAL.0>
11.9251

>  <SCORE.INTRA.POLAR>
0

>  <SCORE.INTRA.POLAR.0>
0

>  <SCORE.INTRA.REPUL>
0

>  <SCORE.INTRA.REPUL.0>
0

>  <SCORE.INTRA.SOLV>
0.129252

>  <SCORE.INTRA.SOLV.lig_0>
-40.9823

>  <SCORE.INTRA.VDW>
-1.40534

>  <SCORE.INTRA.VDW.0>
-0.53506

>  <SCORE.INTRA.norm>
-0.145732

>  <SCORE.RESTR>
0

>  <SCORE.RESTR.CAVITY>
0

>  <SCORE.RESTR.norm>
0

>  <SCORE.SYSTEM>
0

>  <SCORE.SYSTEM.CONST>
0

>  <SCORE.SYSTEM.DIHEDRAL>
0

>  <SCORE.SYSTEM.SOLV>
0

>  <SCORE.SYSTEM.norm>
0

>  <SCORE.heavy>
22

>  <SCORE.norm>
-0.807173

>  <RMSD>
7.457

$$$$
lig.pdb
 OpenBabel11021811523D
libRbt.so/2013.1/901 2013/11/27
 22 23  0  0  0  0  0  0  0  0999 V2000
   63.8596   -6.8840    8.7064 O   0  0  0  0  0  0  0  0  0  0  0  0
   64.0061   -8.0104    8.2937 C   0  0  0  0  0  0  0  0  0  0  0  0
   64.8994   -8.3071    7.3665 N   0  0  0  0  0  0  0  0  0  0  0  0
   63.1474   -9.0951    8.7901 C   0  0  0  0  0  0  0  0  0  0  0  0
   62.1807   -8.9679    9.8831 C   0  0  0  0  0  0  0  0  0  0  0  0
   61.9518   -7.8489   10.6033 N   0  0  0  0  0  0  0  0  0  0  0  0
   63.0415  -10.3751    8.3992 N   0  0  0  0  0  0  0  0  0  0  0  0
   62.0831  -10.9793    9.1549 C   0  0  0  0  0  0  0  0  0  0  0  0
   61.5494  -10.1232   10.0590 N   0  0  0  0  0  0  0  0  0  0  0  0
   60.4813  -10.4496   11.0429 C   0  0  1  0  0  0  0  0  0  0  0  0
   59.1282  -10.1878   10.4179 C   0  0  1  0  0  0  0  0  0  0  0  0
   58.2722  -11.3185   10.9270 C   0  0  2  0  0  0  0  0  0  0  0  0
   57.6317  -10.9308   12.1491 O   0  0  0  0  0  0  0  0  0  0  0  0
   58.6201   -8.9017   10.8054 O   0  0  0  0  0  0  0  0  0  0  0  0
   60.5072  -11.8397   11.3571 O   0  0  0  0  0  0  0  0  0  0  0  0
   59.2389  -12.4352   11.2245 C   0  0  2  0  0  0  0  0  0  0  0  0
   59.3844  -13.4934   10.1505 C   0  0  0  0  0  0  0  0  0  0  0  0
   59.7676  -14.7400   10.6939 O   0  0  0  0  0  0  0  0  0  0  0  0
   59.9217  -15.9878    9.7081 P   0  0  0  0  0  0  0  0  0  0  0  0
   61.2436  -15.7680    9.0002 O   0  0  0  0  0  0  0  0  0  0  0  0
   58.7012  -15.8546    8.8343 O   0  0  0  0  0  0  0  0  0  0  0  0
   59.8385  -17.1720   10.6309 O   0  0  0  0  0  0  0  0  0  0  0  0
  2  1  2  0  0  0  0
  2  4  1  0  0  0  0
  3  2  1  0  0  0  0
  4  7  1  0  0  0  0
  4  5  2  0  0  0  0
  5  6  1  0  0  0  0
  5  9  1  0  0  0  0
  7  8  2  0  0  0  0
  8  9  1  0  0  0  0
 10  9  1  6  0  0  0
 10 15  1  0  0  0  0
 11 14  1  1  0  0  0
 11 12  1  0  0  0  0
 11 10  1  0  0  0  0
 12 13  1  1  0  0  0
 12 16  1  0  0  0  0
 16 17  1  6  0  0  0
 16 15  1  0  0  0  0
 18 19  1  0  0  0  0
 18 17  1  0  0  0  0
 19 21  1  0  0  0  0
 20 19  1  0  0  0  0
 22 19  2  0  0  0  0
M  END
>  <CHROM.1>
-6.90337555,91.15943687,-152.66323699,76.71874677,178.02006692,60.76831652
-11.70771220,9.93176217,-1.04361180,-0.56255902,-2.98008486

>  <Name>
lig.pdb

>  <RI>
0

>  <Rbt.Current_Directory>
/home/itssahil/PROJECTS/Mol_Feturizer/New_Systems/rnas/4znp

>  <Rbt.Executable>
rbdock ($Id: //depot/dev/client3/rdock/2013.1/src/exe/rbdock.cxx#4 $)

>  <Rbt.Library>
libRbt.so (2013.1, Build901 2013/11/27)

>  <Rbt.Parameter_File>
/export/apps/rDock/src/rDock_2013.1_src/data/scripts/dock_solv.prm

>  <Rbt.Receptor>
prm/pocket_docking_7.prm

>  <SCORE>
-14.6076

>  <SCORE.INTER>
-10.0669

>  <SCORE.INTER.CONST>
1

>  <SCORE.INTER.POLAR>
0

>  <SCORE.INTER.ROT>
5

>  <SCORE.INTER.SOLV>
16.179

>  <SCORE.INTER.VDW>
-19.0376

>  <SCORE.INTER.norm>
-0.457586

>  <SCORE.INTRA>
-4.57243

>  <SCORE.INTRA.DIHEDRAL>
-6.6843

>  <SCORE.INTRA.DIHEDRAL.0>
11.9251

>  <SCORE.INTRA.POLAR>
0

>  <SCORE.INTRA.POLAR.0>
0

>  <SCORE.INTRA.REPUL>
0

>  <SCORE.INTRA.REPUL.0>
0

>  <SCORE.INTRA.SOLV>
-0.234635

>  <SCORE.INTRA.SOLV.lig_0>
-40.9823

>  <SCORE.INTRA.VDW>
-1.11297

>  <SCORE.INTRA.VDW.0>
-0.53506

>  <SCORE.INTRA.norm>
-0.207838

>  <SCORE.RESTR>
0.03172

>  <SCORE.RESTR.CAVITY>
0.03172

>  <SCORE.RESTR.norm>
0.00144182

>  <SCORE.SYSTEM>
0

>  <SCORE.SYSTEM.CONST>
0

>  <SCORE.SYSTEM.DIHEDRAL>
0

>  <SCORE.SYSTEM.SOLV>
0

>  <SCORE.SYSTEM.norm>
0

>  <SCORE.heavy>
22

>  <SCORE.norm>
-0.663982

>  <RMSD>
7.524

$$$$
lig.pdb
 OpenBabel11021811523D
libRbt.so/2013.1/901 2013/11/27
 22 23  0  0  0  0  0  0  0  0999 V2000
   63.2219   -5.0584    6.8654 O   0  0  0  0  0  0  0  0  0  0  0  0
   62.3514   -5.8646    7.0951 C   0  0  0  0  0  0  0  0  0  0  0  0
   61.1088   -5.6924    6.6803 N   0  0  0  0  0  0  0  0  0  0  0  0
   62.6471   -7.0612    7.8956 C   0  0  0  0  0  0  0  0  0  0  0  0
   61.7190   -8.1718    8.1206 C   0  0  0  0  0  0  0  0  0  0  0  0
   60.4574   -8.2499    7.6456 N   0  0  0  0  0  0  0  0  0  0  0  0
   63.7540   -7.4105    8.5703 N   0  0  0  0  0  0  0  0  0  0  0  0
   63.5469   -8.6315    9.1369 C   0  0  0  0  0  0  0  0  0  0  0  0
   62.3079   -9.1043    8.8608 N   0  0  0  0  0  0  0  0  0  0  0  0
   61.7492  -10.4049    9.3208 C   0  0  1  0  0  0  0  0  0  0  0  0
   62.6115  -11.5331    8.7974 C   0  0  1  0  0  0  0  0  0  0  0  0
   62.6476  -12.5170    9.9381 C   0  0  2  0  0  0  0  0  0  0  0  0
   61.5737  -13.4564    9.8034 O   0  0  0  0  0  0  0  0  0  0  0  0
   62.0501  -12.1017    7.6041 O   0  0  0  0  0  0  0  0  0  0  0  0
   61.8073  -10.4924   10.7423 O   0  0  0  0  0  0  0  0  0  0  0  0
   62.4095  -11.6890   11.1740 C   0  0  2  0  0  0  0  0  0  0  0  0
   63.6448  -11.2791   11.9489 C   0  0  0  0  0  0  0  0  0  0  0  0
   64.3742  -10.2738   11.2756 O   0  0  0  0  0  0  0  0  0  0  0  0
   65.7133   -9.7210   11.9494 P   0  0  0  0  0  0  0  0  0  0  0  0
   66.6832  -10.8848   11.9075 O   0  0  0  0  0  0  0  0  0  0  0  0
   65.2397   -9.3356   13.3270 O   0  0  0  0  0  0  0  0  0  0  0  0
   66.0577   -8.5243   11.1068 O   0  0  0  0  0  0  0  0  0  0  0  0
  2  1  2  0  0  0  0
  2  4  1  0  0  0  0
  3  2  1  0  0  0  0
  4  7  1  0  0  0  0
  4  5  2  0  0  0  0
  5  6  1  0  0  0  0
  5  9  1  0  0  0  0
  7  8  2  0  0  0  0
  8  9  1  0  0  0  0
 10  9  1  1  0  0  0
 10 15  1  0  0  0  0
 11 14  1  6  0  0  0
 11 12  1  0  0  0  0
 11 10  1  0  0  0  0
 12 13  1  6  0  0  0
 12 16  1  0  0  0  0
 16 17  1  6  0  0  0
 16 15  1  0  0  0  0
 18 19  1  0  0  0  0
 18 17  1  0  0  0  0
 19 21  1  0  0  0  0
 20 19  1  0  0  0  0
 22 19  2  0  0  0  0
M  END
>  <CHROM.1>
-173.22874742,120.71516904,73.00015137,67.35468975,-179.89493268,63.27278508
-9.49392078,9.72852798,-2.10627348,0.70158391,2.70300493

>  <Name>
lig.pdb

>  <RI>
0

>  <Rbt.Current_Directory>
/home/itssahil/PROJECTS/Mol_Feturizer/New_Systems/rnas/4znp

>  <Rbt.Executable>
rbdock ($Id: //depot/dev/client3/rdock/2013.1/src/exe/rbdock.cxx#4 $)

>  <Rbt.Library>
libRbt.so (2013.1, Build901 2013/11/27)

>  <Rbt.Parameter_File>
/export/apps/rDock/src/rDock_2013.1_src/data/scripts/dock_solv.prm

>  <Rbt.Receptor>
prm/pocket_docking_8.prm

>  <SCORE>
-13.7177

>  <SCORE.INTER>
-8.07624

>  <SCORE.INTER.CONST>
1

>  <SCORE.INTER.POLAR>
0

>  <SCORE.INTER.ROT>
5

>  <SCORE.INTER.SOLV>
16.8332

>  <SCORE.INTER.VDW>
-17.9286

>  <SCORE.INTER.norm>
-0.367102

>  <SCORE.INTRA>
-5.64143

>  <SCORE.INTRA.DIHEDRAL>
-8.61296

>  <SCORE.INTRA.DIHEDRAL.0>
11.9251

>  <SCORE.INTRA.POLAR>
0

>  <SCORE.INTRA.POLAR.0>
0

>  <SCORE.INTRA.REPUL>
0

>  <SCORE.INTRA.REPUL.0>
0

>  <SCORE.INTRA.SOLV>
0.965754

>  <SCORE.INTRA.SOLV.lig_0>
-40.9823

>  <SCORE.INTRA.VDW>
-1.81782

>  <SCORE.INTRA.VDW.0>
-0.53506

>  <SCORE.INTRA.norm>
-0.256429

>  <SCORE.RESTR>
0

>  <SCORE.RESTR.CAVITY>
0

>  <SCORE.RESTR.norm>
0

>  <SCORE.SYSTEM>
0

>  <SCORE.SYSTEM.CONST>
0

>  <SCORE.SYSTEM.DIHEDRAL>
0

>  <SCORE.SYSTEM.SOLV>
0

>  <SCORE.SYSTEM.norm>
0

>  <SCORE.heavy>
22

>  <SCORE.norm>
-0.62353

>  <RMSD>
7.543

$$$$
lig.pdb
 OpenBabel11021811523D
libRbt.so/2013.1/901 2013/11/27
 22 23  0  0  0  0  0  0  0  0999 V2000
   62.3028   -4.9811    6.9837 O   0  0  0  0  0  0  0  0  0  0  0  0
   61.2715   -5.6067    7.0565 C   0  0  0  0  0  0  0  0  0  0  0  0
   60.0944   -5.0460    6.8421 N   0  0  0  0  0  0  0  0  0  0  0  0
   61.2954   -7.0264    7.4362 C   0  0  0  0  0  0  0  0  0  0  0  0
   62.4800   -7.7520    7.9004 C   0  0  0  0  0  0  0  0  0  0  0  0
   63.7197   -7.2322    8.0282 N   0  0  0  0  0  0  0  0  0  0  0  0
   60.3157   -7.9443    7.4510 N   0  0  0  0  0  0  0  0  0  0  0  0
   60.8320   -9.1193    7.9065 C   0  0  0  0  0  0  0  0  0  0  0  0
   62.1521   -9.0065    8.1884 N   0  0  0  0  0  0  0  0  0  0  0  0
   63.0289  -10.0933    8.7038 C   0  0  1  0  0  0  0  0  0  0  0  0
   62.8020  -10.2564   10.1911 C   0  0  1  0  0  0  0  0  0  0  0  0
   62.8649  -11.7469   10.4031 C   0  0  2  0  0  0  0  0  0  0  0  0
   64.2105  -12.1386   10.7027 O   0  0  0  0  0  0  0  0  0  0  0  0
   63.8022   -9.5552   10.9463 O   0  0  0  0  0  0  0  0  0  0  0  0
   62.6705  -11.3396    8.1122 O   0  0  0  0  0  0  0  0  0  0  0  0
   62.4744  -12.3455    9.0768 C   0  0  2  0  0  0  0  0  0  0  0  0
   61.0290  -12.7781    8.9414 C   0  0  0  0  0  0  0  0  0  0  0  0
   60.8063  -14.0456    9.5245 O   0  0  0  0  0  0  0  0  0  0  0  0
   59.3475  -14.3843   10.0810 P   0  0  0  0  0  0  0  0  0  0  0  0
   59.3900  -15.8606   10.4209 O   0  0  0  0  0  0  0  0  0  0  0  0
   58.4697  -14.0254    8.9099 O   0  0  0  0  0  0  0  0  0  0  0  0
   59.1845  -13.4307   11.2320 O   0  0  0  0  0  0  0  0  0  0  0  0
  2  1  2  0  0  0  0
  2  4  1  0  0  0  0
  3  2  1  0  0  0  0
  4  7  1  0  0  0  0
  4  5  2  0  0  0  0
  5  6  1  0  0  0  0
  5  9  1  0  0  0  0
  7  8  2  0  0  0  0
  8  9  1  0  0  0  0
 10  9  1  6  0  0  0
 10 15  1  0  0  0  0
 11 14  1  1  0  0  0
 11 12  1  0  0  0  0
 11 10  1  0  0  0  0
 12 13  1  6  0  0  0
 12 16  1  0  0  0  0
 16 17  1  1  0  0  0
 16 15  1  0  0  0  0
 18 19  1  0  0  0  0
 18 17  1  0  0  0  0
 19 21  1  0  0  0  0
 20 19  1  0  0  0  0
 22 19  2  0  0  0  0
M  END
>  <CHROM.1>
7.56164865,101.44680863,-81.14027571,171.11529036,152.50457711,61.43105051
-10.60822403,8.98309201,1.33261276,-0.32322728,-0.39825092

>  <Name>
lig.pdb

>  <RI>
0

>  <Rbt.Current_Directory>
/home/itssahil/PROJECTS/Mol_Feturizer/New_Systems/rnas/4znp

>  <Rbt.Executable>
rbdock ($Id: //depot/dev/client3/rdock/2013.1/src/exe/rbdock.cxx#4 $)

>  <Rbt.Library>
libRbt.so (2013.1, Build901 2013/11/27)

>  <Rbt.Parameter_File>
/export/apps/rDock/src/rDock_2013.1_src/data/scripts/dock_solv.prm

>  <Rbt.Receptor>
prm/pocket_docking_7.prm

>  <SCORE>
-16.6621

>  <SCORE.INTER>
-13.1475

>  <SCORE.INTER.CONST>
1

>  <SCORE.INTER.POLAR>
0

>  <SCORE.INTER.ROT>
5

>  <SCORE.INTER.SOLV>
17.4122

>  <SCORE.INTER.VDW>
-21.5024

>  <SCORE.INTER.norm>
-0.597613

>  <SCORE.INTRA>
-3.51465

>  <SCORE.INTRA.DIHEDRAL>
-4.5864

>  <SCORE.INTRA.DIHEDRAL.0>
11.9251

>  <SCORE.INTRA.POLAR>
0

>  <SCORE.INTRA.POLAR.0>
0

>  <SCORE.INTRA.REPUL>
0

>  <SCORE.INTRA.REPUL.0>
0

>  <SCORE.INTRA.SOLV>
0.232127

>  <SCORE.INTRA.SOLV.lig_0>
-40.9823

>  <SCORE.INTRA.VDW>
-1.33751

>  <SCORE.INTRA.VDW.0>
-0.53506

>  <SCORE.INTRA.norm>
-0.159757

>  <SCORE.RESTR>
0

>  <SCORE.RESTR.CAVITY>
0

>  <SCORE.RESTR.norm>
0

>  <SCORE.SYSTEM>
0

>  <SCORE.SYSTEM.CONST>
0

>  <SCORE.SYSTEM.DIHEDRAL>
0

>  <SCORE.SYSTEM.SOLV>
0

>  <SCORE.SYSTEM.norm>
0

>  <SCORE.heavy>
22

>  <SCORE.norm>
-0.75737

>  <RMSD>
7.557

$$$$
lig.pdb
 OpenBabel11021811523D
libRbt.so/2013.1/901 2013/11/27
 22 23  0  0  0  0  0  0  0  0999 V2000
   62.4076   -4.9920    7.0815 O   0  0  0  0  0  0  0  0  0  0  0  0
   61.3646   -5.6020    7.1027 C   0  0  0  0  0  0  0  0  0  0  0  0
   60.2040   -5.0150    6.8702 N   0  0  0  0  0  0  0  0  0  0  0  0
   61.3539   -7.0331    7.4376 C   0  0  0  0  0  0  0  0  0  0  0  0
   62.5066   -7.7883    7.9339 C   0  0  0  0  0  0  0  0  0  0  0  0
   63.7448   -7.2891    8.1365 N   0  0  0  0  0  0  0  0  0  0  0  0
   60.3641   -7.9380    7.3768 N   0  0  0  0  0  0  0  0  0  0  0  0
   60.8445   -9.1334    7.8185 C   0  0  0  0  0  0  0  0  0  0  0  0
   62.1509   -9.0468    8.1658 N   0  0  0  0  0  0  0  0  0  0  0  0
   62.9894  -10.1606    8.6871 C   0  0  1  0  0  0  0  0  0  0  0  0
   62.7787  -10.2893   10.1802 C   0  0  1  0  0  0  0  0  0  0  0  0
   62.7827  -11.7774   10.4169 C   0  0  2  0  0  0  0  0  0  0  0  0
   64.1154  -12.2200   10.7037 O   0  0  0  0  0  0  0  0  0  0  0  0
   63.8186   -9.6181   10.9086 O   0  0  0  0  0  0  0  0  0  0  0  0
   62.5705  -11.4005    8.1224 O   0  0  0  0  0  0  0  0  0  0  0  0
   62.3475  -12.3811    9.1069 C   0  0  2  0  0  0  0  0  0  0  0  0
   60.8836  -12.7551    9.0001 C   0  0  0  0  0  0  0  0  0  0  0  0
   60.6583  -14.0976    9.3783 O   0  0  0  0  0  0  0  0  0  0  0  0
   59.2028  -14.5130    9.8895 P   0  0  0  0  0  0  0  0  0  0  0  0
   58.2467  -13.9282    8.8693 O   0  0  0  0  0  0  0  0  0  0  0  0
   59.1502  -13.8723   11.2524 O   0  0  0  0  0  0  0  0  0  0  0  0
   59.2758  -16.0129    9.9645 O   0  0  0  0  0  0  0  0  0  0  0  0
  2  1  2  0  0  0  0
  2  4  1  0  0  0  0
  3  2  1  0  0  0  0
  4  7  1  0  0  0  0
  4  5  2  0  0  0  0
  5  6  1  0  0  0  0
  5  9  1  0  0  0  0
  7  8  2  0  0  0  0
  8  9  1  0  0  0  0
 10  9  1  6  0  0  0
 10 15  1  0  0  0  0
 11 14  1  1  0  0  0
 11 12  1  0  0  0  0
 11 10  1  0  0  0  0
 12 13  1  6  0  0  0
 12 16  1  0  0  0  0
 16 17  1  1  0  0  0
 16 15  1  0  0  0  0
 18 19  1  0  0  0  0
 18 17  1  0  0  0  0
 19 21  1  0  0  0  0
 20 19  1  0  0  0  0
 22 19  2  0  0  0  0
M  END
>  <CHROM.1>
8.53072395,96.61835187,-92.16877199,47.78531328,155.96769599,61.38651758
-10.66743276,8.94270707,1.30115937,-0.35517080,-0.39061558

>  <Name>
lig.pdb

>  <RI>
0

>  <Rbt.Current_Directory>
/home/itssahil/PROJECTS/Mol_Feturizer/New_Systems/rnas/4znp

>  <Rbt.Executable>
rbdock ($Id: //depot/dev/client3/rdock/2013.1/src/exe/rbdock.cxx#4 $)

>  <Rbt.Library>
libRbt.so (2013.1, Build901 2013/11/27)

>  <Rbt.Parameter_File>
/export/apps/rDock/src/rDock_2013.1_src/data/scripts/dock_solv.prm

>  <Rbt.Receptor>
prm/pocket_docking_6.prm

>  <SCORE>
-17.2228

>  <SCORE.INTER>
-13.9469

>  <SCORE.INTER.CONST>
1

>  <SCORE.INTER.POLAR>
0

>  <SCORE.INTER.ROT>
5

>  <SCORE.INTER.SOLV>
17.778

>  <SCORE.INTER.VDW>
-22.1573

>  <SCORE.INTER.norm>
-0.633951

>  <SCORE.INTRA>
-3.27586

>  <SCORE.INTRA.DIHEDRAL>
-3.58904

>  <SCORE.INTRA.DIHEDRAL.0>
11.9251

>  <SCORE.INTRA.POLAR>
0

>  <SCORE.INTRA.POLAR.0>
0

>  <SCORE.INTRA.REPUL>
0

>  <SCORE.INTRA.REPUL.0>
0

>  <SCORE.INTRA.SOLV>
-0.148276

>  <SCORE.INTRA.SOLV.lig_0>
-40.9823

>  <SCORE.INTRA.VDW>
-1.4072

>  <SCORE.INTRA.VDW.0>
-0.53506

>  <SCORE.INTRA.norm>
-0.148903

>  <SCORE.RESTR>
0

>  <SCORE.RESTR.CAVITY>
0

>  <SCORE.RESTR.norm>
0

>  <SCORE.SYSTEM>
0

>  <SCORE.SYSTEM.CONST>
0

>  <SCORE.SYSTEM.DIHEDRAL>
0

>  <SCORE.SYSTEM.SOLV>
0

>  <SCORE.SYSTEM.norm>
0

>  <SCORE.heavy>
22

>  <SCORE.norm>
-0.782853

>  <RMSD>
7.576

$$$$
lig.pdb
 OpenBabel11021811523D
libRbt.so/2013.1/901 2013/11/27
 22 23  0  0  0  0  0  0  0  0999 V2000
   63.3819   -5.5701    7.1758 O   0  0  0  0  0  0  0  0  0  0  0  0
   63.3092   -6.7037    7.5882 C   0  0  0  0  0  0  0  0  0  0  0  0
   64.0466   -7.6801    7.0897 N   0  0  0  0  0  0  0  0  0  0  0  0
   62.3478   -7.0430    8.6470 C   0  0  0  0  0  0  0  0  0  0  0  0
   62.0619   -8.3998    9.1187 C   0  0  0  0  0  0  0  0  0  0  0  0
   62.6209   -9.5321    8.6403 N   0  0  0  0  0  0  0  0  0  0  0  0
   61.5511   -6.2577    9.3893 N   0  0  0  0  0  0  0  0  0  0  0  0
   60.8575   -7.0445   10.2579 C   0  0  0  0  0  0  0  0  0  0  0  0
   61.1696   -8.3533   10.1015 N   0  0  0  0  0  0  0  0  0  0  0  0
   60.5992   -9.4844   10.8830 C   0  0  1  0  0  0  0  0  0  0  0  0
   59.8958  -10.4383    9.9421 C   0  0  1  0  0  0  0  0  0  0  0  0
   60.2269  -11.7997   10.4965 C   0  0  2  0  0  0  0  0  0  0  0  0
   59.2213  -12.1993   11.4362 O   0  0  0  0  0  0  0  0  0  0  0  0
   58.4817  -10.1892    9.9155 O   0  0  0  0  0  0  0  0  0  0  0  0
   61.6427  -10.2360   11.4977 O   0  0  0  0  0  0  0  0  0  0  0  0
   61.5272  -11.6138   11.2344 C   0  0  2  0  0  0  0  0  0  0  0  0
   62.7822  -12.0016   10.4800 C   0  0  0  0  0  0  0  0  0  0  0  0
   62.9221  -13.4042   10.3848 O   0  0  0  0  0  0  0  0  0  0  0  0
   62.0469  -14.1871    9.3015 P   0  0  0  0  0  0  0  0  0  0  0  0
   61.9252  -13.2323    8.1308 O   0  0  0  0  0  0  0  0  0  0  0  0
   60.7652  -14.4411   10.0522 O   0  0  0  0  0  0  0  0  0  0  0  0
   62.8318  -15.4477    9.0660 O   0  0  0  0  0  0  0  0  0  0  0  0
  2  1  2  0  0  0  0
  2  4  1  0  0  0  0
  3  2  1  0  0  0  0
  4  7  1  0  0  0  0
  4  5  2  0  0  0  0
  5  6  1  0  0  0  0
  5  9  1  0  0  0  0
  7  8  2  0  0  0  0
  8  9  1  0  0  0  0
 10  9  1  6  0  0  0
 10 15  1  0  0  0  0
 11 14  1  1  0  0  0
 11 12  1  0  0  0  0
 11 10  1  0  0  0  0
 12 13  1  1  0  0  0
 12 16  1  0  0  0  0
 16 17  1  6  0  0  0
 16 15  1  0  0  0  0
 18 19  1  0  0  0  0
 18 17  1  0  0  0  0
 19 21  1  0  0  0  0
 20 19  1  0  0  0  0
 22 19  2  0  0  0  0
M  END
>  <CHROM.1>
172.70263738,-59.61733159,-73.81612519,33.78087897,78.16328390,61.65325705
-10.57360952,9.58058878,-1.43241419,-0.66530717,3.03733860

>  <Name>
lig.pdb

>  <RI>
0

>  <Rbt.Current_Directory>
/home/itssahil/PROJECTS/Mol_Feturizer/New_Systems/rnas/4znp

>  <Rbt.Executable>
rbdock ($Id: //depot/dev/client3/rdock/2013.1/src/exe/rbdock.cxx#4 $)

>  <Rbt.Library>
libRbt.so (2013.1, Build901 2013/11/27)

>  <Rbt.Parameter_File>
/export/apps/rDock/src/rDock_2013.1_src/data/scripts/dock_solv.prm

>  <Rbt.Receptor>
prm/pocket_docking_6.prm

>  <SCORE>
-11.0428

>  <SCORE.INTER>
-7.40917

>  <SCORE.INTER.CONST>
1

>  <SCORE.INTER.POLAR>
0

>  <SCORE.INTER.ROT>
5

>  <SCORE.INTER.SOLV>
13.0159

>  <SCORE.INTER.VDW>
-16.2114

>  <SCORE.INTER.norm>
-0.33678

>  <SCORE.INTRA>
-3.63365

>  <SCORE.INTRA.DIHEDRAL>
-6.28354

>  <SCORE.INTRA.DIHEDRAL.0>
11.9251

>  <SCORE.INTRA.POLAR>
0

>  <SCORE.INTRA.POLAR.0>
0

>  <SCORE.INTRA.REPUL>
0

>  <SCORE.INTRA.REPUL.0>
0

>  <SCORE.INTRA.SOLV>
2.65216

>  <SCORE.INTRA.SOLV.lig_0>
-40.9823

>  <SCORE.INTRA.VDW>
-1.81796

>  <SCORE.INTRA.VDW.0>
-0.53506

>  <SCORE.INTRA.norm>
-0.165166

>  <SCORE.RESTR>
0

>  <SCORE.RESTR.CAVITY>
0

>  <SCORE.RESTR.norm>
0

>  <SCORE.SYSTEM>
0

>  <SCORE.SYSTEM.CONST>
0

>  <SCORE.SYSTEM.DIHEDRAL>
0

>  <SCORE.SYSTEM.SOLV>
0

>  <SCORE.SYSTEM.norm>
0

>  <SCORE.heavy>
22

>  <SCORE.norm>
-0.501946

>  <RMSD>
7.578

$$$$
lig.pdb
 OpenBabel11021811523D
libRbt.so/2013.1/901 2013/11/27
 22 23  0  0  0  0  0  0  0  0999 V2000
   60.5777   -5.8679    6.3714 O   0  0  0  0  0  0  0  0  0  0  0  0
   61.5086   -5.9367    7.1390 C   0  0  0  0  0  0  0  0  0  0  0  0
   62.3665   -4.9436    7.2918 N   0  0  0  0  0  0  0  0  0  0  0  0
   61.7419   -7.1682    7.9067 C   0  0  0  0  0  0  0  0  0  0  0  0
   62.6155   -7.2754    9.0774 C   0  0  0  0  0  0  0  0  0  0  0  0
   63.3452   -6.2706    9.6079 N   0  0  0  0  0  0  0  0  0  0  0  0
   61.2532   -8.4076    7.7414 N   0  0  0  0  0  0  0  0  0  0  0  0
   61.7508   -9.2031    8.7285 C   0  0  0  0  0  0  0  0  0  0  0  0
   62.5788   -8.5157    9.5512 N   0  0  0  0  0  0  0  0  0  0  0  0
   63.2947   -9.0734   10.7310 C   0  0  1  0  0  0  0  0  0  0  0  0
   62.3903   -9.0073   11.9425 C   0  0  1  0  0  0  0  0  0  0  0  0
   62.6748  -10.2934   12.6742 C   0  0  2  0  0  0  0  0  0  0  0  0
   63.7317  -10.0902   13.6207 O   0  0  0  0  0  0  0  0  0  0  0  0
   62.6802   -7.8495   12.7412 O   0  0  0  0  0  0  0  0  0  0  0  0
   63.5800  -10.4552   10.5280 O   0  0  0  0  0  0  0  0  0  0  0  0
   63.1578  -11.2468   11.6123 C   0  0  2  0  0  0  0  0  0  0  0  0
   62.1226  -12.2017   11.0544 C   0  0  0  0  0  0  0  0  0  0  0  0
   62.7212  -13.2530   10.3247 O   0  0  0  0  0  0  0  0  0  0  0  0
   61.7873  -14.1865    9.4253 P   0  0  0  0  0  0  0  0  0  0  0  0
   60.7291  -14.7136   10.3736 O   0  0  0  0  0  0  0  0  0  0  0  0
   62.7621  -15.2192    8.9210 O   0  0  0  0  0  0  0  0  0  0  0  0
   61.3181  -13.2623    8.3361 O   0  0  0  0  0  0  0  0  0  0  0  0
  2  1  2  0  0  0  0
  2  4  1  0  0  0  0
  3  2  1  0  0  0  0
  4  7  1  0  0  0  0
  4  5  2  0  0  0  0
  5  6  1  0  0  0  0
  5  9  1  0  0  0  0
  7  8  2  0  0  0  0
  8  9  1  0  0  0  0
 10  9  1  6  0  0  0
 10 15  1  0  0  0  0
 11 14  1  1  0  0  0
 11 12  1  0  0  0  0
 11 10  1  0  0  0  0
 12 13  1  1  0  0  0
 12 16  1  0  0  0  0
 16 17  1  6  0  0  0
 16 15  1  0  0  0  0
 18 19  1  0  0  0  0
 18 17  1  0  0  0  0
 19 21  1  0  0  0  0
 20 19  1  0  0  0  0
 22 19  2  0  0  0  0
M  END
>  <CHROM.1>
-164.70991018,94.37316108,-165.55882050,-55.21897650,-168.02250551,62.27653304
-10.10577913,9.81395881,1.59755581,-1.21462777,-0.21712984

>  <Name>
lig.pdb

>  <RI>
0

>  <Rbt.Current_Directory>
/home/itssahil/PROJECTS/Mol_Feturizer/New_Systems/rnas/4znp

>  <Rbt.Executable>
rbdock ($Id: //depot/dev/client3/rdock/2013.1/src/exe/rbdock.cxx#4 $)

>  <Rbt.Library>
libRbt.so (2013.1, Build901 2013/11/27)

>  <Rbt.Parameter_File>
/export/apps/rDock/src/rDock_2013.1_src/data/scripts/dock_solv.prm

>  <Rbt.Receptor>
prm/pocket_docking_7.prm

>  <SCORE>
-10.9214

>  <SCORE.INTER>
-5.92114

>  <SCORE.INTER.CONST>
1

>  <SCORE.INTER.POLAR>
0

>  <SCORE.INTER.ROT>
5

>  <SCORE.INTER.SOLV>
13.3123

>  <SCORE.INTER.VDW>
-15.3182

>  <SCORE.INTER.norm>
-0.269143

>  <SCORE.INTRA>
-5.00026

>  <SCORE.INTRA.DIHEDRAL>
-7.20334

>  <SCORE.INTRA.DIHEDRAL.0>
11.9251

>  <SCORE.INTRA.POLAR>
0

>  <SCORE.INTRA.POLAR.0>
0

>  <SCORE.INTRA.REPUL>
0

>  <SCORE.INTRA.REPUL.0>
0

>  <SCORE.INTRA.SOLV>
0.386092

>  <SCORE.INTRA.SOLV.lig_0>
-40.9823

>  <SCORE.INTRA.VDW>
-1.59163

>  <SCORE.INTRA.VDW.0>
-0.53506

>  <SCORE.INTRA.norm>
-0.227284

>  <SCORE.RESTR>
0

>  <SCORE.RESTR.CAVITY>
0

>  <SCORE.RESTR.norm>
0

>  <SCORE.SYSTEM>
0

>  <SCORE.SYSTEM.CONST>
0

>  <SCORE.SYSTEM.DIHEDRAL>
0

>  <SCORE.SYSTEM.SOLV>
0

>  <SCORE.SYSTEM.norm>
0

>  <SCORE.heavy>
22

>  <SCORE.norm>
-0.496427

>  <RMSD>
7.859

$$$$
lig.pdb
 OpenBabel11021811523D
libRbt.so/2013.1/901 2013/11/27
 22 23  0  0  0  0  0  0  0  0999 V2000
   63.1509   -6.6628    6.0304 O   0  0  0  0  0  0  0  0  0  0  0  0
   62.7838   -7.2597    7.0150 C   0  0  0  0  0  0  0  0  0  0  0  0
   61.5323   -7.6540    7.1702 N   0  0  0  0  0  0  0  0  0  0  0  0
   63.7282   -7.5305    8.1081 C   0  0  0  0  0  0  0  0  0  0  0  0
   63.4056   -8.2627    9.3349 C   0  0  0  0  0  0  0  0  0  0  0  0
   62.1966   -8.7757    9.6488 N   0  0  0  0  0  0  0  0  0  0  0  0
   65.0220   -7.2004    8.2479 N   0  0  0  0  0  0  0  0  0  0  0  0
   65.4699   -7.7017    9.4323 C   0  0  0  0  0  0  0  0  0  0  0  0
   64.4887   -8.3567   10.0980 N   0  0  0  0  0  0  0  0  0  0  0  0
   64.6293   -9.0245   11.4208 C   0  0  1  0  0  0  0  0  0  0  0  0
   63.4807   -8.6105   12.3150 C   0  0  1  0  0  0  0  0  0  0  0  0
   63.1354   -9.8715   13.0639 C   0  0  2  0  0  0  0  0  0  0  0  0
   63.8852   -9.9328   14.2838 O   0  0  0  0  0  0  0  0  0  0  0  0
   63.8689   -7.5429   13.1938 O   0  0  0  0  0  0  0  0  0  0  0  0
   64.5236  -10.4384   11.2741 O   0  0  0  0  0  0  0  0  0  0  0  0
   63.5868  -10.9937   12.1657 C   0  0  2  0  0  0  0  0  0  0  0  0
   62.5152  -11.6286   11.3037 C   0  0  0  0  0  0  0  0  0  0  0  0
   62.9715  -12.8192   10.6953 O   0  0  0  0  0  0  0  0  0  0  0  0
   61.9835  -13.6025    9.7141 P   0  0  0  0  0  0  0  0  0  0  0  0
   62.6357  -14.9531    9.4963 O   0  0  0  0  0  0  0  0  0  0  0  0
   61.9594  -12.7043    8.5044 O   0  0  0  0  0  0  0  0  0  0  0  0
   60.6771  -13.5956   10.4583 O   0  0  0  0  0  0  0  0  0  0  0  0
  2  1  2  0  0  0  0
  2  4  1  0  0  0  0
  3  2  1  0  0  0  0
  4  7  1  0  0  0  0
  4  5  2  0  0  0  0
  5  6  1  0  0  0  0
  5  9  1  0  0  0  0
  7  8  2  0  0  0  0
  8  9  1  0  0  0  0
 10  9  1  6  0  0  0
 10 15  1  0  0  0  0
 11 14  1  1  0  0  0
 11 12  1  0  0  0  0
 11 10  1  0  0  0  0
 12 13  1  1  0  0  0
 12 16  1  0  0  0  0
 16 17  1  6  0  0  0
 16 15  1  0  0  0  0
 18 19  1  0  0  0  0
 18 17  1  0  0  0  0
 19 21  1  0  0  0  0
 20 19  1  0  0  0  0
 22 19  2  0  0  0  0
M  END
>  <CHROM.1>
-178.86585346,-47.18465033,-168.80838207,-167.43403750,-178.24988464,63.16321103
-10.08385135,10.14373437,0.91834859,-1.17529829,-0.91988041

>  <Name>
lig.pdb

>  <RI>
0

>  <Rbt.Current_Directory>
/home/itssahil/PROJECTS/Mol_Feturizer/New_Systems/rnas/4znp

>  <Rbt.Executable>
rbdock ($Id: //depot/dev/client3/rdock/2013.1/src/exe/rbdock.cxx#4 $)

>  <Rbt.Library>
libRbt.so (2013.1, Build901 2013/11/27)

>  <Rbt.Parameter_File>
/export/apps/rDock/src/rDock_2013.1_src/data/scripts/dock_solv.prm

>  <Rbt.Receptor>
prm/pocket_docking_7.prm

>  <SCORE>
-13.8969

>  <SCORE.INTER>
-8.69162

>  <SCORE.INTER.CONST>
1

>  <SCORE.INTER.POLAR>
0

>  <SCORE.INTER.ROT>
5

>  <SCORE.INTER.SOLV>
14.2946

>  <SCORE.INTER.VDW>
-17.4926

>  <SCORE.INTER.norm>
-0.395074

>  <SCORE.INTRA>
-5.20532

>  <SCORE.INTRA.DIHEDRAL>
-8.78604

>  <SCORE.INTRA.DIHEDRAL.0>
11.9251

>  <SCORE.INTRA.POLAR>
0

>  <SCORE.INTRA.POLAR.0>
0

>  <SCORE.INTRA.REPUL>
0

>  <SCORE.INTRA.REPUL.0>
0

>  <SCORE.INTRA.SOLV>
1.38444

>  <SCORE.INTRA.SOLV.lig_0>
-40.9823

>  <SCORE.INTRA.VDW>
-1.50452

>  <SCORE.INTRA.VDW.0>
-0.53506

>  <SCORE.INTRA.norm>
-0.236605

>  <SCORE.RESTR>
0

>  <SCORE.RESTR.CAVITY>
0

>  <SCORE.RESTR.norm>
0

>  <SCORE.SYSTEM>
0

>  <SCORE.SYSTEM.CONST>
0

>  <SCORE.SYSTEM.DIHEDRAL>
0

>  <SCORE.SYSTEM.SOLV>
0

>  <SCORE.SYSTEM.norm>
0

>  <SCORE.heavy>
22

>  <SCORE.norm>
-0.631679

>  <RMSD>
7.972

$$$$
lig.pdb
 OpenBabel11021811523D
libRbt.so/2013.1/901 2013/11/27
 22 23  0  0  0  0  0  0  0  0999 V2000
   63.4896   -4.9165    8.6627 O   0  0  0  0  0  0  0  0  0  0  0  0
   63.1531   -5.6524    7.7651 C   0  0  0  0  0  0  0  0  0  0  0  0
   63.2716   -5.3089    6.4948 N   0  0  0  0  0  0  0  0  0  0  0  0
   62.5502   -6.9580    8.0686 C   0  0  0  0  0  0  0  0  0  0  0  0
   62.1617   -7.4135    9.4054 C   0  0  0  0  0  0  0  0  0  0  0  0
   62.3175   -6.7141   10.5498 N   0  0  0  0  0  0  0  0  0  0  0  0
   62.2297   -7.9821    7.2617 N   0  0  0  0  0  0  0  0  0  0  0  0
   61.6705   -8.9679    8.0168 C   0  0  0  0  0  0  0  0  0  0  0  0
   61.6208   -8.6241    9.3261 N   0  0  0  0  0  0  0  0  0  0  0  0
   61.0743   -9.4634   10.4271 C   0  0  1  0  0  0  0  0  0  0  0  0
   59.5972   -9.6956   10.1935 C   0  0  1  0  0  0  0  0  0  0  0  0
   59.3863  -11.1255   10.6192 C   0  0  2  0  0  0  0  0  0  0  0  0
   59.0356  -11.1721   12.0081 O   0  0  0  0  0  0  0  0  0  0  0  0
   58.8023   -8.7758   10.9580 O   0  0  0  0  0  0  0  0  0  0  0  0
   61.6821  -10.7526   10.4138 O   0  0  0  0  0  0  0  0  0  0  0  0
   60.7280  -11.7870   10.4401 C   0  0  2  0  0  0  0  0  0  0  0  0
   60.9202  -12.5653    9.1549 C   0  0  0  0  0  0  0  0  0  0  0  0
   59.8676  -13.4821    8.9370 O   0  0  0  0  0  0  0  0  0  0  0  0
   59.7507  -14.7530    9.8981 P   0  0  0  0  0  0  0  0  0  0  0  0
   61.0938  -15.4475    9.7958 O   0  0  0  0  0  0  0  0  0  0  0  0
   58.5960  -15.5061    9.2896 O   0  0  0  0  0  0  0  0  0  0  0  0
   59.4020  -14.1499   11.2306 O   0  0  0  0  0  0  0  0  0  0  0  0
  2  1  2  0  0  0  0
  2  4  1  0  0  0  0
  3  2  1  0  0  0  0
  4  7  1  0  0  0  0
  4  5  2  0  0  0  0
  5  6  1  0  0  0  0
  5  9  1  0  0  0  0
  7  8  2  0  0  0  0
  8  9  1  0  0  0  0
 10  9  1  6  0  0  0
 10 15  1  0  0  0  0
 11 14  1  1  0  0  0
 11 12  1  0  0  0  0
 11 10  1  0  0  0  0
 12 13  1  1  0  0  0
 12 16  1  0  0  0  0
 16 17  1  6  0  0  0
 16 15  1  0  0  0  0
 18 19  1  0  0  0  0
 18 17  1  0  0  0  0
 19 21  1  0  0  0  0
 20 19  1  0  0  0  0
 22 19  2  0  0  0  0
M  END
>  <CHROM.1>
7.57591836,117.46458683,-51.21633757,-55.84866406,-69.35529540,60.89458956
-10.43883165,9.56201610,-0.95656996,-0.93149304,-2.83931243

>  <Name>
lig.pdb

>  <RI>
0

>  <Rbt.Current_Directory>
/home/itssahil/PROJECTS/Mol_Feturizer/New_Systems/rnas/4znp

>  <Rbt.Executable>
rbdock ($Id: //depot/dev/client3/rdock/2013.1/src/exe/rbdock.cxx#4 $)

>  <Rbt.Library>
libRbt.so (2013.1, Build901 2013/11/27)

>  <Rbt.Parameter_File>
/export/apps/rDock/src/rDock_2013.1_src/data/scripts/dock_solv.prm

>  <Rbt.Receptor>
prm/pocket_docking_7.prm

>  <SCORE>
-13.109

>  <SCORE.INTER>
-8.24847

>  <SCORE.INTER.CONST>
1

>  <SCORE.INTER.POLAR>
0

>  <SCORE.INTER.ROT>
5

>  <SCORE.INTER.SOLV>
12.3371

>  <SCORE.INTER.VDW>
-16.5447

>  <SCORE.INTER.norm>
-0.374931

>  <SCORE.INTRA>
-4.86052

>  <SCORE.INTRA.DIHEDRAL>
-8.52875

>  <SCORE.INTRA.DIHEDRAL.0>
11.9251

>  <SCORE.INTRA.POLAR>
0

>  <SCORE.INTRA.POLAR.0>
0

>  <SCORE.INTRA.REPUL>
0

>  <SCORE.INTRA.REPUL.0>
0

>  <SCORE.INTRA.SOLV>
1.75054

>  <SCORE.INTRA.SOLV.lig_0>
-40.9823

>  <SCORE.INTRA.VDW>
-1.47142

>  <SCORE.INTRA.VDW.0>
-0.53506

>  <SCORE.INTRA.norm>
-0.220933

>  <SCORE.RESTR>
0

>  <SCORE.RESTR.CAVITY>
0

>  <SCORE.RESTR.norm>
0

>  <SCORE.SYSTEM>
0

>  <SCORE.SYSTEM.CONST>
0

>  <SCORE.SYSTEM.DIHEDRAL>
0

>  <SCORE.SYSTEM.SOLV>
0

>  <SCORE.SYSTEM.norm>
0

>  <SCORE.heavy>
22

>  <SCORE.norm>
-0.595863

>  <RMSD>
7.981

$$$$
lig.pdb
 OpenBabel11021811523D
libRbt.so/2013.1/901 2013/11/27
 22 23  0  0  0  0  0  0  0  0999 V2000
   62.1559   -4.4009    8.9769 O   0  0  0  0  0  0  0  0  0  0  0  0
   62.2866   -5.3998    8.3094 C   0  0  0  0  0  0  0  0  0  0  0  0
   61.9049   -5.4538    7.0457 N   0  0  0  0  0  0  0  0  0  0  0  0
   62.8445   -6.6200    8.9095 C   0  0  0  0  0  0  0  0  0  0  0  0
   63.4145   -6.7091   10.2558 C   0  0  0  0  0  0  0  0  0  0  0  0
   63.5284   -5.6864   11.1301 N   0  0  0  0  0  0  0  0  0  0  0  0
   62.9645   -7.8621    8.4143 N   0  0  0  0  0  0  0  0  0  0  0  0
   63.5278   -8.6545    9.3680 C   0  0  0  0  0  0  0  0  0  0  0  0
   63.7994   -7.9573   10.4972 N   0  0  0  0  0  0  0  0  0  0  0  0
   64.4159   -8.5088   11.7346 C   0  0  1  0  0  0  0  0  0  0  0  0
   63.3234   -8.9498   12.6844 C   0  0  1  0  0  0  0  0  0  0  0  0
   63.8648  -10.2183   13.2911 C   0  0  2  0  0  0  0  0  0  0  0  0
   64.5937   -9.9124   14.4866 O   0  0  0  0  0  0  0  0  0  0  0  0
   63.0598   -7.9416   13.6726 O   0  0  0  0  0  0  0  0  0  0  0  0
   65.1697   -9.6799   11.4312 O   0  0  0  0  0  0  0  0  0  0  0  0
   64.8277  -10.7597   12.2666 C   0  0  2  0  0  0  0  0  0  0  0  0
   64.2890  -11.8408   11.3526 C   0  0  0  0  0  0  0  0  0  0  0  0
   63.1291  -11.4155   10.6673 O   0  0  0  0  0  0  0  0  0  0  0  0
   62.4630  -12.4063    9.6056 P   0  0  0  0  0  0  0  0  0  0  0  0
   62.2375  -13.6994   10.3631 O   0  0  0  0  0  0  0  0  0  0  0  0
   63.5161  -12.4735    8.5299 O   0  0  0  0  0  0  0  0  0  0  0  0
   61.2351  -11.6623    9.1589 O   0  0  0  0  0  0  0  0  0  0  0  0
  2  1  2  0  0  0  0
  2  4  1  0  0  0  0
  3  2  1  0  0  0  0
  4  7  1  0  0  0  0
  4  5  2  0  0  0  0
  5  6  1  0  0  0  0
  5  9  1  0  0  0  0
  7  8  2  0  0  0  0
  8  9  1  0  0  0  0
 10  9  1  6  0  0  0
 10 15  1  0  0  0  0
 11 14  1  1  0  0  0
 11 12  1  0  0  0  0
 11 10  1  0  0  0  0
 12 13  1  1  0  0  0
 12 16  1  0  0  0  0
 16 17  1  6  0  0  0
 16 15  1  0  0  0  0
 18 19  1  0  0  0  0
 18 17  1  0  0  0  0
 19 21  1  0  0  0  0
 20 19  1  0  0  0  0
 22 19  2  0  0  0  0
M  END
>  <CHROM.1>
-7.16442847,87.97664918,56.09234352,53.80925032,177.17262154,63.24494858
-9.28341074,10.52662165,1.78888303,-1.18946356,-0.06022505

>  <Name>
lig.pdb

>  <RI>
0

>  <Rbt.Current_Directory>
/home/itssahil/PROJECTS/Mol_Feturizer/New_Systems/rnas/4znp

>  <Rbt.Executable>
rbdock ($Id: //depot/dev/client3/rdock/2013.1/src/exe/rbdock.cxx#4 $)

>  <Rbt.Library>
libRbt.so (2013.1, Build901 2013/11/27)

>  <Rbt.Parameter_File>
/export/apps/rDock/src/rDock_2013.1_src/data/scripts/dock_solv.prm

>  <Rbt.Receptor>
prm/pocket_docking_8.prm

>  <SCORE>
-11.5388

>  <SCORE.INTER>
-5.04259

>  <SCORE.INTER.CONST>
1

>  <SCORE.INTER.POLAR>
0

>  <SCORE.INTER.ROT>
5

>  <SCORE.INTER.SOLV>
9.47871

>  <SCORE.INTER.VDW>
-13.4546

>  <SCORE.INTER.norm>
-0.229209

>  <SCORE.INTRA>
-6.49619

>  <SCORE.INTRA.DIHEDRAL>
-9.26924

>  <SCORE.INTRA.DIHEDRAL.0>
11.9251

>  <SCORE.INTRA.POLAR>
0

>  <SCORE.INTRA.POLAR.0>
0

>  <SCORE.INTRA.REPUL>
0

>  <SCORE.INTRA.REPUL.0>
0

>  <SCORE.INTRA.SOLV>
0.754263

>  <SCORE.INTRA.SOLV.lig_0>
-40.9823

>  <SCORE.INTRA.VDW>
-2.2387

>  <SCORE.INTRA.VDW.0>
-0.53506

>  <SCORE.INTRA.norm>
-0.295281

>  <SCORE.RESTR>
0

>  <SCORE.RESTR.CAVITY>
0

>  <SCORE.RESTR.norm>
0

>  <SCORE.SYSTEM>
0

>  <SCORE.SYSTEM.CONST>
0

>  <SCORE.SYSTEM.DIHEDRAL>
0

>  <SCORE.SYSTEM.SOLV>
0

>  <SCORE.SYSTEM.norm>
0

>  <SCORE.heavy>
22

>  <SCORE.norm>
-0.52449

>  <RMSD>
8.399

$$$$
lig.pdb
 OpenBabel11021811523D
libRbt.so/2013.1/901 2013/11/27
 22 23  0  0  0  0  0  0  0  0999 V2000
   59.8474   -3.7429    6.4829 O   0  0  0  0  0  0  0  0  0  0  0  0
   60.3485   -4.2244    7.4715 C   0  0  0  0  0  0  0  0  0  0  0  0
   60.3792   -3.5825    8.6260 N   0  0  0  0  0  0  0  0  0  0  0  0
   60.9893   -5.5455    7.4047 C   0  0  0  0  0  0  0  0  0  0  0  0
   61.7538   -6.1642    8.4901 C   0  0  0  0  0  0  0  0  0  0  0  0
   61.9974   -5.6076    9.6960 N   0  0  0  0  0  0  0  0  0  0  0  0
   61.0335   -6.4468    6.4106 N   0  0  0  0  0  0  0  0  0  0  0  0
   61.7325   -7.5326    6.8431 C   0  0  0  0  0  0  0  0  0  0  0  0
   62.1700   -7.3683    8.1146 N   0  0  0  0  0  0  0  0  0  0  0  0
   62.9641   -8.3546    8.8968 C   0  0  1  0  0  0  0  0  0  0  0  0
   62.1840   -8.7614   10.1282 C   0  0  1  0  0  0  0  0  0  0  0  0
   62.4677  -10.2351   10.2630 C   0  0  2  0  0  0  0  0  0  0  0  0
   63.6192  -10.4342   11.0927 O   0  0  0  0  0  0  0  0  0  0  0  0
   62.6103   -8.0162   11.2795 O   0  0  0  0  0  0  0  0  0  0  0  0
   63.1543   -9.5474    8.1399 O   0  0  0  0  0  0  0  0  0  0  0  0
   62.7955  -10.6977    8.8671 C   0  0  2  0  0  0  0  0  0  0  0  0
   61.6623  -11.3427    8.0963 C   0  0  0  0  0  0  0  0  0  0  0  0
   61.0673  -12.3961    8.8259 O   0  0  0  0  0  0  0  0  0  0  0  0
   61.9611  -13.6667    9.1991 P   0  0  0  0  0  0  0  0  0  0  0  0
   62.7081  -14.0089    7.9256 O   0  0  0  0  0  0  0  0  0  0  0  0
   60.9216  -14.6740    9.6182 O   0  0  0  0  0  0  0  0  0  0  0  0
   62.7879  -13.1816   10.3574 O   0  0  0  0  0  0  0  0  0  0  0  0
  2  1  2  0  0  0  0
  2  4  1  0  0  0  0
  3  2  1  0  0  0  0
  4  7  1  0  0  0  0
  4  5  2  0  0  0  0
  5  6  1  0  0  0  0
  5  9  1  0  0  0  0
  7  8  2  0  0  0  0
  8  9  1  0  0  0  0
 10  9  1  6  0  0  0
 10 15  1  0  0  0  0
 11 14  1  1  0  0  0
 11 12  1  0  0  0  0
 11 10  1  0  0  0  0
 12 13  1  1  0  0  0
 12 16  1  0  0  0  0
 16 17  1  6  0  0  0
 16 15  1  0  0  0  0
 18 19  1  0  0  0  0
 18 17  1  0  0  0  0
 19 21  1  0  0  0  0
 20 19  1  0  0  0  0
 22 19  2  0  0  0  0
M  END
>  <CHROM.1>
172.93429990,61.57778271,-52.87703261,-45.27940207,-62.60716497,61.89276862
-9.28490511,8.79770731,1.88129456,-1.09853958,0.09289348

>  <Name>
lig.pdb

>  <RI>
0

>  <Rbt.Current_Directory>
/home/itssahil/PROJECTS/Mol_Feturizer/New_Systems/rnas/4znp

>  <Rbt.Executable>
rbdock ($Id: //depot/dev/client3/rdock/2013.1/src/exe/rbdock.cxx#4 $)

>  <Rbt.Library>
libRbt.so (2013.1, Build901 2013/11/27)

>  <Rbt.Parameter_File>
/export/apps/rDock/src/rDock_2013.1_src/data/scripts/dock_solv.prm

>  <Rbt.Receptor>
prm/pocket_docking_7.prm

>  <SCORE>
-14.9837

>  <SCORE.INTER>
-10.7619

>  <SCORE.INTER.CONST>
1

>  <SCORE.INTER.POLAR>
0

>  <SCORE.INTER.ROT>
5

>  <SCORE.INTER.SOLV>
14.0158

>  <SCORE.INTER.VDW>
-18.7799

>  <SCORE.INTER.norm>
-0.489177

>  <SCORE.INTRA>
-4.22182

>  <SCORE.INTRA.DIHEDRAL>
-8.79982

>  <SCORE.INTRA.DIHEDRAL.0>
11.9251

>  <SCORE.INTRA.POLAR>
0

>  <SCORE.INTRA.POLAR.0>
0

>  <SCORE.INTRA.REPUL>
0

>  <SCORE.INTRA.REPUL.0>
0

>  <SCORE.INTRA.SOLV>
2.78808

>  <SCORE.INTRA.SOLV.lig_0>
-40.9823

>  <SCORE.INTRA.VDW>
-1.21595

>  <SCORE.INTRA.VDW.0>
-0.53506

>  <SCORE.INTRA.norm>
-0.191901

>  <SCORE.RESTR>
0

>  <SCORE.RESTR.CAVITY>
0

>  <SCORE.RESTR.norm>
0

>  <SCORE.SYSTEM>
0

>  <SCORE.SYSTEM.CONST>
0

>  <SCORE.SYSTEM.DIHEDRAL>
0

>  <SCORE.SYSTEM.SOLV>
0

>  <SCORE.SYSTEM.norm>
0

>  <SCORE.heavy>
22

>  <SCORE.norm>
-0.681078

>  <RMSD>
8.423

$$$$
lig.pdb
 OpenBabel11021811523D
libRbt.so/2013.1/901 2013/11/27
 22 23  0  0  0  0  0  0  0  0999 V2000
   57.5668   -7.0780    9.0111 O   0  0  0  0  0  0  0  0  0  0  0  0
   57.6477   -5.9832    8.5058 C   0  0  0  0  0  0  0  0  0  0  0  0
   56.5994   -5.1885    8.3824 N   0  0  0  0  0  0  0  0  0  0  0  0
   58.9310   -5.5141    7.9642 C   0  0  0  0  0  0  0  0  0  0  0  0
   60.1491   -6.3220    7.8708 C   0  0  0  0  0  0  0  0  0  0  0  0
   60.2770   -7.6012    8.2837 N   0  0  0  0  0  0  0  0  0  0  0  0
   59.2833   -4.3210    7.4594 N   0  0  0  0  0  0  0  0  0  0  0  0
   60.5849   -4.3868    7.0641 C   0  0  0  0  0  0  0  0  0  0  0  0
   61.1174   -5.6084    7.3073 N   0  0  0  0  0  0  0  0  0  0  0  0
   62.5128   -6.0270    7.0023 C   0  0  1  0  0  0  0  0  0  0  0  0
   63.3987   -5.7187    8.1898 C   0  0  1  0  0  0  0  0  0  0  0  0
   64.3382   -6.8950    8.2526 C   0  0  2  0  0  0  0  0  0  0  0  0
   65.5123   -6.6209    7.4777 O   0  0  0  0  0  0  0  0  0  0  0  0
   64.0931   -4.4749    8.0074 O   0  0  0  0  0  0  0  0  0  0  0  0
   62.5764   -7.4393    6.8203 O   0  0  0  0  0  0  0  0  0  0  0  0
   63.5873   -8.0280    7.6027 C   0  0  2  0  0  0  0  0  0  0  0  0
   62.8842   -8.9860    8.5420 C   0  0  0  0  0  0  0  0  0  0  0  0
   62.4709  -10.1615    7.8762 O   0  0  0  0  0  0  0  0  0  0  0  0
   61.9369  -11.3871    8.7511 P   0  0  0  0  0  0  0  0  0  0  0  0
   63.0135  -11.6258    9.7907 O   0  0  0  0  0  0  0  0  0  0  0  0
   61.7952  -12.4759    7.7191 O   0  0  0  0  0  0  0  0  0  0  0  0
   60.6069  -10.9001    9.2558 O   0  0  0  0  0  0  0  0  0  0  0  0
  2  1  2  0  0  0  0
  2  4  1  0  0  0  0
  3  2  1  0  0  0  0
  4  7  1  0  0  0  0
  4  5  2  0  0  0  0
  5  6  1  0  0  0  0
  5  9  1  0  0  0  0
  7  8  2  0  0  0  0
  8  9  1  0  0  0  0
 10  9  1  1  0  0  0
 10 15  1  0  0  0  0
 11 14  1  6  0  0  0
 11 12  1  0  0  0  0
 11 10  1  0  0  0  0
 12 13  1  6  0  0  0
 12 16  1  0  0  0  0
 16 17  1  1  0  0  0
 16 15  1  0  0  0  0
 18 19  1  0  0  0  0
 18 17  1  0  0  0  0
 19 21  1  0  0  0  0
 20 19  1  0  0  0  0
 22 19  2  0  0  0  0
M  END
>  <CHROM.1>
5.68779961,-89.88326552,-166.72757723,-51.87382246,169.76044007,61.49301402
-7.71674171,8.10225990,2.06194255,0.11373566,-0.18022212

>  <Name>
lig.pdb

>  <RI>
0

>  <Rbt.Current_Directory>
/home/itssahil/PROJECTS/Mol_Feturizer/New_Systems/rnas/4znp

>  <Rbt.Executable>
rbdock ($Id: //depot/dev/client3/rdock/2013.1/src/exe/rbdock.cxx#4 $)

>  <Rbt.Library>
libRbt.so (2013.1, Build901 2013/11/27)

>  <Rbt.Parameter_File>
/export/apps/rDock/src/rDock_2013.1_src/data/scripts/dock_solv.prm

>  <Rbt.Receptor>
prm/pocket_docking_8.prm

>  <SCORE>
-16.9134

>  <SCORE.INTER>
-11.9176

>  <SCORE.INTER.CONST>
1

>  <SCORE.INTER.POLAR>
0

>  <SCORE.INTER.ROT>
5

>  <SCORE.INTER.SOLV>
15.1934

>  <SCORE.INTER.VDW>
-19.9429

>  <SCORE.INTER.norm>
-0.541709

>  <SCORE.INTRA>
-4.99578

>  <SCORE.INTRA.DIHEDRAL>
-8.0814

>  <SCORE.INTRA.DIHEDRAL.0>
11.9251

>  <SCORE.INTRA.POLAR>
0

>  <SCORE.INTRA.POLAR.0>
0

>  <SCORE.INTRA.REPUL>
0

>  <SCORE.INTRA.REPUL.0>
0

>  <SCORE.INTRA.SOLV>
1.5837

>  <SCORE.INTRA.SOLV.lig_0>
-40.9823

>  <SCORE.INTRA.VDW>
-1.74693

>  <SCORE.INTRA.VDW.0>
-0.53506

>  <SCORE.INTRA.norm>
-0.227081

>  <SCORE.RESTR>
0

>  <SCORE.RESTR.CAVITY>
0

>  <SCORE.RESTR.norm>
0

>  <SCORE.SYSTEM>
0

>  <SCORE.SYSTEM.CONST>
0

>  <SCORE.SYSTEM.DIHEDRAL>
0

>  <SCORE.SYSTEM.SOLV>
0

>  <SCORE.SYSTEM.norm>
0

>  <SCORE.heavy>
22

>  <SCORE.norm>
-0.76879

>  <RMSD>
8.474

$$$$
lig.pdb
 OpenBabel11021811523D
libRbt.so/2013.1/901 2013/11/27
 22 23  0  0  0  0  0  0  0  0999 V2000
   57.1831   -3.9335    7.5010 O   0  0  0  0  0  0  0  0  0  0  0  0
   57.1341   -4.9623    8.1332 C   0  0  0  0  0  0  0  0  0  0  0  0
   56.0681   -5.3041    8.8349 N   0  0  0  0  0  0  0  0  0  0  0  0
   58.2984   -5.8583    8.1750 C   0  0  0  0  0  0  0  0  0  0  0  0
   59.6146   -5.5523    7.6100 C   0  0  0  0  0  0  0  0  0  0  0  0
   59.9441   -4.4184    6.9549 N   0  0  0  0  0  0  0  0  0  0  0  0
   58.4384   -7.0864    8.6989 N   0  0  0  0  0  0  0  0  0  0  0  0
   59.7230   -7.4947    8.5048 C   0  0  0  0  0  0  0  0  0  0  0  0
   60.4479   -6.5594    7.8455 N   0  0  0  0  0  0  0  0  0  0  0  0
   61.8829   -6.6761    7.4677 C   0  0  1  0  0  0  0  0  0  0  0  0
   62.7446   -6.2725    8.6444 C   0  0  1  0  0  0  0  0  0  0  0  0
   63.8964   -7.2428    8.5962 C   0  0  2  0  0  0  0  0  0  0  0  0
   64.9589   -6.6966    7.8045 O   0  0  0  0  0  0  0  0  0  0  0  0
   63.1756   -4.9077    8.5253 O   0  0  0  0  0  0  0  0  0  0  0  0
   62.2110   -8.0346    7.1875 O   0  0  0  0  0  0  0  0  0  0  0  0
   63.3512   -8.4596    7.8948 C   0  0  2  0  0  0  0  0  0  0  0  0
   62.8903   -9.5925    8.7885 C   0  0  0  0  0  0  0  0  0  0  0  0
   62.6058  -10.7606    8.0465 O   0  0  0  0  0  0  0  0  0  0  0  0
   62.2203  -12.0934    8.8387 P   0  0  0  0  0  0  0  0  0  0  0  0
   63.3706  -12.3268    9.7975 O   0  0  0  0  0  0  0  0  0  0  0  0
   62.1044  -13.1022    7.7253 O   0  0  0  0  0  0  0  0  0  0  0  0
   60.8879  -11.7607    9.4508 O   0  0  0  0  0  0  0  0  0  0  0  0
  2  1  2  0  0  0  0
  2  4  1  0  0  0  0
  3  2  1  0  0  0  0
  4  7  1  0  0  0  0
  4  5  2  0  0  0  0
  5  6  1  0  0  0  0
  5  9  1  0  0  0  0
  7  8  2  0  0  0  0
  8  9  1  0  0  0  0
 10  9  1  1  0  0  0
 10 15  1  0  0  0  0
 11 14  1  6  0  0  0
 11 12  1  0  0  0  0
 11 10  1  0  0  0  0
 12 13  1  6  0  0  0
 12 16  1  0  0  0  0
 16 17  1  1  0  0  0
 16 15  1  0  0  0  0
 18 19  1  0  0  0  0
 18 17  1  0  0  0  0
 19 21  1  0  0  0  0
 20 19  1  0  0  0  0
 22 19  2  0  0  0  0
M  END
>  <CHROM.1>
6.63857331,96.82553595,-170.29472045,-55.41902530,175.07679686,61.19129916
-8.02060148,8.26586215,2.14886909,0.05142709,-0.14638107

>  <Name>
lig.pdb

>  <RI>
0

>  <Rbt.Current_Directory>
/home/itssahil/PROJECTS/Mol_Feturizer/New_Systems/rnas/4znp

>  <Rbt.Executable>
rbdock ($Id: //depot/dev/client3/rdock/2013.1/src/exe/rbdock.cxx#4 $)

>  <Rbt.Library>
libRbt.so (2013.1, Build901 2013/11/27)

>  <Rbt.Parameter_File>
/export/apps/rDock/src/rDock_2013.1_src/data/scripts/dock_solv.prm

>  <Rbt.Receptor>
prm/pocket_docking_7.prm

>  <SCORE>
-16.1975

>  <SCORE.INTER>
-10.2311

>  <SCORE.INTER.CONST>
1

>  <SCORE.INTER.POLAR>
0

>  <SCORE.INTER.ROT>
5

>  <SCORE.INTER.SOLV>
14.4139

>  <SCORE.INTER.VDW>
-18.5587

>  <SCORE.INTER.norm>
-0.465049

>  <SCORE.INTRA>
-5.9664

>  <SCORE.INTRA.DIHEDRAL>
-8.84852

>  <SCORE.INTRA.DIHEDRAL.0>
11.9251

>  <SCORE.INTRA.POLAR>
0

>  <SCORE.INTRA.POLAR.0>
0

>  <SCORE.INTRA.REPUL>
0

>  <SCORE.INTRA.REPUL.0>
0

>  <SCORE.INTRA.SOLV>
-0.0182474

>  <SCORE.INTRA.SOLV.lig_0>
-40.9823

>  <SCORE.INTRA.VDW>
-1.53302

>  <SCORE.INTRA.VDW.0>
-0.53506

>  <SCORE.INTRA.norm>
-0.2712

>  <SCORE.RESTR>
0

>  <SCORE.RESTR.CAVITY>
0

>  <SCORE.RESTR.norm>
0

>  <SCORE.SYSTEM>
0

>  <SCORE.SYSTEM.CONST>
0

>  <SCORE.SYSTEM.DIHEDRAL>
0

>  <SCORE.SYSTEM.SOLV>
0

>  <SCORE.SYSTEM.norm>
0

>  <SCORE.heavy>
22

>  <SCORE.norm>
-0.736249

>  <RMSD>
8.479

$$$$
lig.pdb
 OpenBabel11021811523D
libRbt.so/2013.1/901 2013/11/27
 22 23  0  0  0  0  0  0  0  0999 V2000
   56.6675   -3.6710    8.2523 O   0  0  0  0  0  0  0  0  0  0  0  0
   57.2606   -4.7226    8.3038 C   0  0  0  0  0  0  0  0  0  0  0  0
   56.7181   -5.8090    8.8247 N   0  0  0  0  0  0  0  0  0  0  0  0
   58.6450   -4.8131    7.8186 C   0  0  0  0  0  0  0  0  0  0  0  0
   59.4514   -6.0357    7.8026 C   0  0  0  0  0  0  0  0  0  0  0  0
   59.0512   -7.2466    8.2464 N   0  0  0  0  0  0  0  0  0  0  0  0
   59.4563   -3.8725    7.3091 N   0  0  0  0  0  0  0  0  0  0  0  0
   60.6421   -4.4567    6.9814 C   0  0  0  0  0  0  0  0  0  0  0  0
   60.6430   -5.7791    7.2750 N   0  0  0  0  0  0  0  0  0  0  0  0
   61.7732   -6.7209    7.0490 C   0  0  1  0  0  0  0  0  0  0  0  0
   62.7355   -6.6365    8.2139 C   0  0  1  0  0  0  0  0  0  0  0  0
   63.1673   -8.0641    8.4278 C   0  0  2  0  0  0  0  0  0  0  0  0
   64.3416   -8.3377    7.6530 O   0  0  0  0  0  0  0  0  0  0  0  0
   63.8411   -5.7719    7.9094 O   0  0  0  0  0  0  0  0  0  0  0  0
   61.2994   -8.0650    7.0268 O   0  0  0  0  0  0  0  0  0  0  0  0
   62.0329   -8.8983    7.8918 C   0  0  2  0  0  0  0  0  0  0  0  0
   61.0426   -9.4123    8.9163 C   0  0  0  0  0  0  0  0  0  0  0  0
   61.6505  -10.3020    9.8300 O   0  0  0  0  0  0  0  0  0  0  0  0
   62.0646  -11.7576    9.3179 P   0  0  0  0  0  0  0  0  0  0  0  0
   63.0713  -11.5129    8.2118 O   0  0  0  0  0  0  0  0  0  0  0  0
   60.7434  -12.3220    8.8634 O   0  0  0  0  0  0  0  0  0  0  0  0
   62.5774  -12.4304   10.5610 O   0  0  0  0  0  0  0  0  0  0  0  0
  2  1  2  0  0  0  0
  2  4  1  0  0  0  0
  3  2  1  0  0  0  0
  4  7  1  0  0  0  0
  4  5  2  0  0  0  0
  5  6  1  0  0  0  0
  5  9  1  0  0  0  0
  7  8  2  0  0  0  0
  8  9  1  0  0  0  0
 10  9  1  1  0  0  0
 10 15  1  0  0  0  0
 11 14  1  6  0  0  0
 11 12  1  0  0  0  0
 11 10  1  0  0  0  0
 12 13  1  6  0  0  0
 12 16  1  0  0  0  0
 16 17  1  1  0  0  0
 16 15  1  0  0  0  0
 18 19  1  0  0  0  0
 18 17  1  0  0  0  0
 19 21  1  0  0  0  0
 20 19  1  0  0  0  0
 22 19  2  0  0  0  0
M  END
>  <CHROM.1>
-178.56512515,-95.46858544,-63.84300879,60.97021493,-71.87609756,60.98974816
-7.91336393,8.29733923,2.10067251,0.19765864,-0.30795765

>  <Name>
lig.pdb

>  <RI>
0

>  <Rbt.Current_Directory>
/home/itssahil/PROJECTS/Mol_Feturizer/New_Systems/rnas/4znp

>  <Rbt.Executable>
rbdock ($Id: //depot/dev/client3/rdock/2013.1/src/exe/rbdock.cxx#4 $)

>  <Rbt.Library>
libRbt.so (2013.1, Build901 2013/11/27)

>  <Rbt.Parameter_File>
/export/apps/rDock/src/rDock_2013.1_src/data/scripts/dock_solv.prm

>  <Rbt.Receptor>
prm/pocket_docking_7.prm

>  <SCORE>
-14.7199

>  <SCORE.INTER>
-9.77204

>  <SCORE.INTER.CONST>
1

>  <SCORE.INTER.POLAR>
0

>  <SCORE.INTER.ROT>
5

>  <SCORE.INTER.SOLV>
12.8015

>  <SCORE.INTER.VDW>
-17.7152

>  <SCORE.INTER.norm>
-0.444184

>  <SCORE.INTRA>
-4.94789

>  <SCORE.INTRA.DIHEDRAL>
-8.71769

>  <SCORE.INTRA.DIHEDRAL.0>
11.9251

>  <SCORE.INTRA.POLAR>
0

>  <SCORE.INTRA.POLAR.0>
0

>  <SCORE.INTRA.REPUL>
0

>  <SCORE.INTRA.REPUL.0>
0

>  <SCORE.INTRA.SOLV>
1.86327

>  <SCORE.INTRA.SOLV.lig_0>
-40.9823

>  <SCORE.INTRA.VDW>
-1.52068

>  <SCORE.INTRA.VDW.0>
-0.53506

>  <SCORE.INTRA.norm>
-0.224904

>  <SCORE.RESTR>
0

>  <SCORE.RESTR.CAVITY>
0

>  <SCORE.RESTR.norm>
0

>  <SCORE.SYSTEM>
0

>  <SCORE.SYSTEM.CONST>
0

>  <SCORE.SYSTEM.DIHEDRAL>
0

>  <SCORE.SYSTEM.SOLV>
0

>  <SCORE.SYSTEM.norm>
0

>  <SCORE.heavy>
22

>  <SCORE.norm>
-0.669088

>  <RMSD>
8.491

$$$$
lig.pdb
 OpenBabel11021811523D
libRbt.so/2013.1/901 2013/11/27
 22 23  0  0  0  0  0  0  0  0999 V2000
   56.5351   -5.1876    8.3579 O   0  0  0  0  0  0  0  0  0  0  0  0
   57.5177   -5.8799    8.4829 C   0  0  0  0  0  0  0  0  0  0  0  0
   57.4861   -7.0326    9.1279 N   0  0  0  0  0  0  0  0  0  0  0  0
   58.8104   -5.4291    7.9482 C   0  0  0  0  0  0  0  0  0  0  0  0
   60.0191   -6.2523    7.8673 C   0  0  0  0  0  0  0  0  0  0  0  0
   60.1284   -7.5310    8.2872 N   0  0  0  0  0  0  0  0  0  0  0  0
   59.1809   -4.2428    7.4403 N   0  0  0  0  0  0  0  0  0  0  0  0
   60.4843   -4.3265    7.0545 C   0  0  0  0  0  0  0  0  0  0  0  0
   61.0000   -5.5534    7.3073 N   0  0  0  0  0  0  0  0  0  0  0  0
   62.3923   -5.9904    7.0142 C   0  0  1  0  0  0  0  0  0  0  0  0
   63.2672   -5.7153    8.2180 C   0  0  1  0  0  0  0  0  0  0  0  0
   64.1862   -6.9080    8.2746 C   0  0  2  0  0  0  0  0  0  0  0  0
   65.3749   -6.6416    7.5196 O   0  0  0  0  0  0  0  0  0  0  0  0
   63.9844   -4.4807    8.0642 O   0  0  0  0  0  0  0  0  0  0  0  0
   62.4350   -7.4005    6.8109 O   0  0  0  0  0  0  0  0  0  0  0  0
   63.4255   -8.0181    7.5972 C   0  0  2  0  0  0  0  0  0  0  0  0
   62.6941   -8.9786    8.5120 C   0  0  0  0  0  0  0  0  0  0  0  0
   62.4619  -10.2231    7.8848 O   0  0  0  0  0  0  0  0  0  0  0  0
   61.7683  -11.3872    8.7312 P   0  0  0  0  0  0  0  0  0  0  0  0
   61.7598  -12.5907    7.8100 O   0  0  0  0  0  0  0  0  0  0  0  0
   60.4118  -10.8007    9.0255 O   0  0  0  0  0  0  0  0  0  0  0  0
   62.6293  -11.4835    9.9601 O   0  0  0  0  0  0  0  0  0  0  0  0
  2  1  2  0  0  0  0
  2  4  1  0  0  0  0
  3  2  1  0  0  0  0
  4  7  1  0  0  0  0
  4  5  2  0  0  0  0
  5  6  1  0  0  0  0
  5  9  1  0  0  0  0
  7  8  2  0  0  0  0
  8  9  1  0  0  0  0
 10  9  1  1  0  0  0
 10 15  1  0  0  0  0
 11 14  1  6  0  0  0
 11 12  1  0  0  0  0
 11 10  1  0  0  0  0
 12 13  1  6  0  0  0
 12 16  1  0  0  0  0
 16 17  1  1  0  0  0
 16 15  1  0  0  0  0
 18 19  1  0  0  0  0
 18 17  1  0  0  0  0
 19 21  1  0  0  0  0
 20 19  1  0  0  0  0
 22 19  2  0  0  0  0
M  END
>  <CHROM.1>
-170.80894006,-88.63645822,-157.15006298,-176.07544660,176.80722620,61.35197507
-7.67746215,8.10492911,2.05277437,0.11214190,-0.17637978

>  <Name>
lig.pdb

>  <RI>
0

>  <Rbt.Current_Directory>
/home/itssahil/PROJECTS/Mol_Feturizer/New_Systems/rnas/4znp

>  <Rbt.Executable>
rbdock ($Id: //depot/dev/client3/rdock/2013.1/src/exe/rbdock.cxx#4 $)

>  <Rbt.Library>
libRbt.so (2013.1, Build901 2013/11/27)

>  <Rbt.Parameter_File>
/export/apps/rDock/src/rDock_2013.1_src/data/scripts/dock_solv.prm

>  <Rbt.Receptor>
prm/pocket_docking_8.prm

>  <SCORE>
-16.4309

>  <SCORE.INTER>
-11.987

>  <SCORE.INTER.CONST>
1

>  <SCORE.INTER.POLAR>
0

>  <SCORE.INTER.ROT>
5

>  <SCORE.INTER.SOLV>
14.8344

>  <SCORE.INTER.VDW>
-19.8695

>  <SCORE.INTER.norm>
-0.544865

>  <SCORE.INTRA>
-4.44388

>  <SCORE.INTRA.DIHEDRAL>
-7.37189

>  <SCORE.INTRA.DIHEDRAL.0>
11.9251

>  <SCORE.INTRA.POLAR>
0

>  <SCORE.INTRA.POLAR.0>
0

>  <SCORE.INTRA.REPUL>
0

>  <SCORE.INTRA.REPUL.0>
0

>  <SCORE.INTRA.SOLV>
1.64108

>  <SCORE.INTRA.SOLV.lig_0>
-40.9823

>  <SCORE.INTRA.VDW>
-1.57847

>  <SCORE.INTRA.VDW.0>
-0.53506

>  <SCORE.INTRA.norm>
-0.201994

>  <SCORE.RESTR>
0

>  <SCORE.RESTR.CAVITY>
0

>  <SCORE.RESTR.norm>
0

>  <SCORE.SYSTEM>
0

>  <SCORE.SYSTEM.CONST>
0

>  <SCORE.SYSTEM.DIHEDRAL>
0

>  <SCORE.SYSTEM.SOLV>
0

>  <SCORE.SYSTEM.norm>
0

>  <SCORE.heavy>
22

>  <SCORE.norm>
-0.74686

>  <RMSD>
8.516

$$$$
lig.pdb
 OpenBabel11021811523D
libRbt.so/2013.1/901 2013/11/27
 22 23  0  0  0  0  0  0  0  0999 V2000
   66.4064   -7.9436   12.9580 O   0  0  0  0  0  0  0  0  0  0  0  0
   66.5625   -9.1412   13.0020 C   0  0  0  0  0  0  0  0  0  0  0  0
   67.6039   -9.6913   13.6008 N   0  0  0  0  0  0  0  0  0  0  0  0
   65.6019  -10.0348   12.3396 C   0  0  0  0  0  0  0  0  0  0  0  0
   64.4016   -9.5959   11.6240 C   0  0  0  0  0  0  0  0  0  0  0  0
   63.9934   -8.3162   11.4855 N   0  0  0  0  0  0  0  0  0  0  0  0
   65.5825  -11.3730   12.2325 N   0  0  0  0  0  0  0  0  0  0  0  0
   64.4929  -11.7316   11.4984 C   0  0  0  0  0  0  0  0  0  0  0  0
   63.7710  -10.6501   11.1188 N   0  0  0  0  0  0  0  0  0  0  0  0
   62.5222  -10.6766   10.3094 C   0  0  1  0  0  0  0  0  0  0  0  0
   62.8122  -10.1414    8.9239 C   0  0  1  0  0  0  0  0  0  0  0  0
   61.9887  -11.0208    8.0190 C   0  0  2  0  0  0  0  0  0  0  0  0
   60.6930  -10.4398    7.8248 O   0  0  0  0  0  0  0  0  0  0  0  0
   62.4476   -8.7563    8.8182 O   0  0  0  0  0  0  0  0  0  0  0  0
   62.0797  -12.0193   10.1277 O   0  0  0  0  0  0  0  0  0  0  0  0
   61.8269  -12.3140    8.7749 C   0  0  2  0  0  0  0  0  0  0  0  0
   62.7853  -13.4266    8.4035 C   0  0  0  0  0  0  0  0  0  0  0  0
   62.3546  -14.6758    8.9035 O   0  0  0  0  0  0  0  0  0  0  0  0
   62.8125  -16.0027    8.1404 P   0  0  0  0  0  0  0  0  0  0  0  0
   64.2101  -16.2877    8.6526 O   0  0  0  0  0  0  0  0  0  0  0  0
   62.7373  -15.5801    6.6959 O   0  0  0  0  0  0  0  0  0  0  0  0
   61.7447  -16.9975    8.5021 O   0  0  0  0  0  0  0  0  0  0  0  0
  2  1  2  0  0  0  0
  2  4  1  0  0  0  0
  3  2  1  0  0  0  0
  4  7  1  0  0  0  0
  4  5  2  0  0  0  0
  5  6  1  0  0  0  0
  5  9  1  0  0  0  0
  7  8  2  0  0  0  0
  8  9  1  0  0  0  0
 10  9  1  1  0  0  0
 10 15  1  0  0  0  0
 11 14  1  1  0  0  0
 11 12  1  0  0  0  0
 11 10  1  0  0  0  0
 12 13  1  1  0  0  0
 12 16  1  0  0  0  0
 16 17  1  6  0  0  0
 16 15  1  0  0  0  0
 18 19  1  0  0  0  0
 18 17  1  0  0  0  0
 19 21  1  0  0  0  0
 20 19  1  0  0  0  0
 22 19  2  0  0  0  0
M  END
>  <CHROM.1>
-1.53736275,72.05556741,-165.15839079,81.93746150,153.71564601,63.51046860
-11.99746926,9.90721871,-1.05297542,0.72317592,-2.91108096

>  <Name>
lig.pdb

>  <RI>
0

>  <Rbt.Current_Directory>
/home/itssahil/PROJECTS/Mol_Feturizer/New_Systems/rnas/4znp

>  <Rbt.Executable>
rbdock ($Id: //depot/dev/client3/rdock/2013.1/src/exe/rbdock.cxx#4 $)

>  <Rbt.Library>
libRbt.so (2013.1, Build901 2013/11/27)

>  <Rbt.Parameter_File>
/export/apps/rDock/src/rDock_2013.1_src/data/scripts/dock_solv.prm

>  <Rbt.Receptor>
prm/pocket_docking_8.prm

>  <SCORE>
-14.0757

>  <SCORE.INTER>
-10.8234

>  <SCORE.INTER.CONST>
1

>  <SCORE.INTER.POLAR>
0

>  <SCORE.INTER.ROT>
5

>  <SCORE.INTER.SOLV>
22.3132

>  <SCORE.INTER.VDW>
-21.5866

>  <SCORE.INTER.norm>
-0.491972

>  <SCORE.INTRA>
-3.48138

>  <SCORE.INTRA.DIHEDRAL>
-5.1253

>  <SCORE.INTRA.DIHEDRAL.0>
11.9251

>  <SCORE.INTRA.POLAR>
0

>  <SCORE.INTRA.POLAR.0>
0

>  <SCORE.INTRA.REPUL>
0

>  <SCORE.INTRA.REPUL.0>
0

>  <SCORE.INTRA.SOLV>
0.00565009

>  <SCORE.INTRA.SOLV.lig_0>
-40.9823

>  <SCORE.INTRA.VDW>
-0.921553

>  <SCORE.INTRA.VDW.0>
-0.53506

>  <SCORE.INTRA.norm>
-0.158245

>  <SCORE.RESTR>
0.229057

>  <SCORE.RESTR.CAVITY>
0.229057

>  <SCORE.RESTR.norm>
0.0104117

>  <SCORE.SYSTEM>
0

>  <SCORE.SYSTEM.CONST>
0

>  <SCORE.SYSTEM.DIHEDRAL>
0

>  <SCORE.SYSTEM.SOLV>
0

>  <SCORE.SYSTEM.norm>
0

>  <SCORE.heavy>
22

>  <SCORE.norm>
-0.639805

>  <RMSD>
8.523

$$$$
lig.pdb
 OpenBabel11021811523D
libRbt.so/2013.1/901 2013/11/27
 22 23  0  0  0  0  0  0  0  0999 V2000
   56.3539   -4.8280    8.3683 O   0  0  0  0  0  0  0  0  0  0  0  0
   57.3056   -5.5647    8.4770 C   0  0  0  0  0  0  0  0  0  0  0  0
   57.2222   -6.7327    9.0889 N   0  0  0  0  0  0  0  0  0  0  0  0
   58.6187   -5.1543    7.9597 C   0  0  0  0  0  0  0  0  0  0  0  0
   59.8108   -6.0046    7.9243 C   0  0  0  0  0  0  0  0  0  0  0  0
   59.8835   -7.2749    8.3765 N   0  0  0  0  0  0  0  0  0  0  0  0
   59.0254   -3.9888    7.4320 N   0  0  0  0  0  0  0  0  0  0  0  0
   60.3346   -4.1093    7.0764 C   0  0  0  0  0  0  0  0  0  0  0  0
   60.8182   -5.3403    7.3692 N   0  0  0  0  0  0  0  0  0  0  0  0
   62.2065   -5.8136    7.1164 C   0  0  1  0  0  0  0  0  0  0  0  0
   62.9848   -5.7974    8.4142 C   0  0  1  0  0  0  0  0  0  0  0  0
   63.8326   -7.0409    8.3406 C   0  0  2  0  0  0  0  0  0  0  0  0
   65.0954   -6.7328    7.7368 O   0  0  0  0  0  0  0  0  0  0  0  0
   63.7755   -4.6039    8.5276 O   0  0  0  0  0  0  0  0  0  0  0  0
   62.1943   -7.1712    6.6820 O   0  0  0  0  0  0  0  0  0  0  0  0
   63.0784   -7.9727    7.4280 C   0  0  2  0  0  0  0  0  0  0  0  0
   62.2207   -9.0202    8.1074 C   0  0  0  0  0  0  0  0  0  0  0  0
   63.0068  -10.0098    8.7389 O   0  0  0  0  0  0  0  0  0  0  0  0
   62.2764  -11.2994    9.3355 P   0  0  0  0  0  0  0  0  0  0  0  0
   61.2790  -10.7566   10.3392 O   0  0  0  0  0  0  0  0  0  0  0  0
   63.4268  -12.0681    9.9325 O   0  0  0  0  0  0  0  0  0  0  0  0
   61.7094  -11.9726    8.1165 O   0  0  0  0  0  0  0  0  0  0  0  0
  2  1  2  0  0  0  0
  2  4  1  0  0  0  0
  3  2  1  0  0  0  0
  4  7  1  0  0  0  0
  4  5  2  0  0  0  0
  5  6  1  0  0  0  0
  5  9  1  0  0  0  0
  7  8  2  0  0  0  0
  8  9  1  0  0  0  0
 10  9  1  1  0  0  0
 10 15  1  0  0  0  0
 11 14  1  6  0  0  0
 11 12  1  0  0  0  0
 11 10  1  0  0  0  0
 12 13  1  6  0  0  0
 12 16  1  0  0  0  0
 16 17  1  1  0  0  0
 16 15  1  0  0  0  0
 18 19  1  0  0  0  0
 18 17  1  0  0  0  0
 19 21  1  0  0  0  0
 20 19  1  0  0  0  0
 22 19  2  0  0  0  0
M  END
>  <CHROM.1>
-174.17960242,-76.91110746,-70.50529386,-58.37628936,-171.80641651,61.32989851
-7.55601976,8.30550019,2.15646442,0.11836771,-0.27067108

>  <Name>
lig.pdb

>  <RI>
0

>  <Rbt.Current_Directory>
/home/itssahil/PROJECTS/Mol_Feturizer/New_Systems/rnas/4znp

>  <Rbt.Executable>
rbdock ($Id: //depot/dev/client3/rdock/2013.1/src/exe/rbdock.cxx#4 $)

>  <Rbt.Library>
libRbt.so (2013.1, Build901 2013/11/27)

>  <Rbt.Parameter_File>
/export/apps/rDock/src/rDock_2013.1_src/data/scripts/dock_solv.prm

>  <Rbt.Receptor>
prm/pocket_docking_7.prm

>  <SCORE>
-15.3055

>  <SCORE.INTER>
-10.0109

>  <SCORE.INTER.CONST>
1

>  <SCORE.INTER.POLAR>
0

>  <SCORE.INTER.ROT>
5

>  <SCORE.INTER.SOLV>
13.8677

>  <SCORE.INTER.VDW>
-18.2299

>  <SCORE.INTER.norm>
-0.455043

>  <SCORE.INTRA>
-5.2946

>  <SCORE.INTRA.DIHEDRAL>
-8.58779

>  <SCORE.INTRA.DIHEDRAL.0>
11.9251

>  <SCORE.INTRA.POLAR>
0

>  <SCORE.INTRA.POLAR.0>
0

>  <SCORE.INTRA.REPUL>
0

>  <SCORE.INTRA.REPUL.0>
0

>  <SCORE.INTRA.SOLV>
1.3602

>  <SCORE.INTRA.SOLV.lig_0>
-40.9823

>  <SCORE.INTRA.VDW>
-1.68081

>  <SCORE.INTRA.VDW.0>
-0.53506

>  <SCORE.INTRA.norm>
-0.240664

>  <SCORE.RESTR>
0

>  <SCORE.RESTR.CAVITY>
0

>  <SCORE.RESTR.norm>
0

>  <SCORE.SYSTEM>
0

>  <SCORE.SYSTEM.CONST>
0

>  <SCORE.SYSTEM.DIHEDRAL>
0

>  <SCORE.SYSTEM.SOLV>
0

>  <SCORE.SYSTEM.norm>
0

>  <SCORE.heavy>
22

>  <SCORE.norm>
-0.695707

>  <RMSD>
8.585

$$$$
lig.pdb
 OpenBabel11021811523D
libRbt.so/2013.1/901 2013/11/27
 22 23  0  0  0  0  0  0  0  0999 V2000
   57.2006   -6.6158    9.0113 O   0  0  0  0  0  0  0  0  0  0  0  0
   57.3220   -5.5439    8.4666 C   0  0  0  0  0  0  0  0  0  0  0  0
   56.2957   -4.7341    8.2753 N   0  0  0  0  0  0  0  0  0  0  0  0
   58.6328   -5.1222    7.9526 C   0  0  0  0  0  0  0  0  0  0  0  0
   59.8370   -5.9559    7.9375 C   0  0  0  0  0  0  0  0  0  0  0  0
   59.9245   -7.2184    8.4084 N   0  0  0  0  0  0  0  0  0  0  0  0
   59.0267   -3.9586    7.4111 N   0  0  0  0  0  0  0  0  0  0  0  0
   60.3399   -4.0655    7.0664 C   0  0  0  0  0  0  0  0  0  0  0  0
   60.8388   -5.2852    7.3800 N   0  0  0  0  0  0  0  0  0  0  0  0
   62.2355   -5.7422    7.1437 C   0  0  1  0  0  0  0  0  0  0  0  0
   62.9864   -5.7567    8.4574 C   0  0  1  0  0  0  0  0  0  0  0  0
   63.8444   -6.9920    8.3676 C   0  0  2  0  0  0  0  0  0  0  0  0
   65.1173   -6.6591    7.7993 O   0  0  0  0  0  0  0  0  0  0  0  0
   63.7660   -4.5616    8.6202 O   0  0  0  0  0  0  0  0  0  0  0  0
   62.2420   -7.0873    6.6720 O   0  0  0  0  0  0  0  0  0  0  0  0
   63.1161   -7.9033    7.4142 C   0  0  2  0  0  0  0  0  0  0  0  0
   62.2520   -8.9747    8.0464 C   0  0  0  0  0  0  0  0  0  0  0  0
   63.0313   -9.9661    8.6834 O   0  0  0  0  0  0  0  0  0  0  0  0
   62.3137  -11.3109    9.1621 P   0  0  0  0  0  0  0  0  0  0  0  0
   61.8462  -11.9820    7.8862 O   0  0  0  0  0  0  0  0  0  0  0  0
   61.2122  -10.7856   10.0460 O   0  0  0  0  0  0  0  0  0  0  0  0
   63.3864  -12.0180    9.9431 O   0  0  0  0  0  0  0  0  0  0  0  0
  2  1  2  0  0  0  0
  2  4  1  0  0  0  0
  3  2  1  0  0  0  0
  4  7  1  0  0  0  0
  4  5  2  0  0  0  0
  5  6  1  0  0  0  0
  5  9  1  0  0  0  0
  7  8  2  0  0  0  0
  8  9  1  0  0  0  0
 10  9  1  1  0  0  0
 10 15  1  0  0  0  0
 11 14  1  6  0  0  0
 11 12  1  0  0  0  0
 11 10  1  0  0  0  0
 12 13  1  6  0  0  0
 12 16  1  0  0  0  0
 16 17  1  1  0  0  0
 16 15  1  0  0  0  0
 18 19  1  0  0  0  0
 18 17  1  0  0  0  0
 19 21  1  0  0  0  0
 20 19  1  0  0  0  0
 22 19  2  0  0  0  0
M  END
>  <CHROM.1>
5.49737897,-74.35418265,-69.66290570,64.68405249,-168.56756371,61.35008460
-7.52410962,8.26644282,2.15537475,0.10169530,-0.23955280

>  <Name>
lig.pdb

>  <RI>
0

>  <Rbt.Current_Directory>
/home/itssahil/PROJECTS/Mol_Feturizer/New_Systems/rnas/4znp

>  <Rbt.Executable>
rbdock ($Id: //depot/dev/client3/rdock/2013.1/src/exe/rbdock.cxx#4 $)

>  <Rbt.Library>
libRbt.so (2013.1, Build901 2013/11/27)

>  <Rbt.Parameter_File>
/export/apps/rDock/src/rDock_2013.1_src/data/scripts/dock_solv.prm

>  <Rbt.Receptor>
prm/pocket_docking_7.prm

>  <SCORE>
-15.7555

>  <SCORE.INTER>
-10.4075

>  <SCORE.INTER.CONST>
1

>  <SCORE.INTER.POLAR>
0

>  <SCORE.INTER.ROT>
5

>  <SCORE.INTER.SOLV>
14.2181

>  <SCORE.INTER.VDW>
-18.611

>  <SCORE.INTER.norm>
-0.473069

>  <SCORE.INTRA>
-5.34795

>  <SCORE.INTRA.DIHEDRAL>
-8.32563

>  <SCORE.INTRA.DIHEDRAL.0>
11.9251

>  <SCORE.INTRA.POLAR>
0

>  <SCORE.INTRA.POLAR.0>
0

>  <SCORE.INTRA.REPUL>
0

>  <SCORE.INTRA.REPUL.0>
0

>  <SCORE.INTRA.SOLV>
0.887775

>  <SCORE.INTRA.SOLV.lig_0>
-40.9823

>  <SCORE.INTRA.VDW>
-1.62902

>  <SCORE.INTRA.VDW.0>
-0.53506

>  <SCORE.INTRA.norm>
-0.243089

>  <SCORE.RESTR>
0

>  <SCORE.RESTR.CAVITY>
0

>  <SCORE.RESTR.norm>
0

>  <SCORE.SYSTEM>
0

>  <SCORE.SYSTEM.CONST>
0

>  <SCORE.SYSTEM.DIHEDRAL>
0

>  <SCORE.SYSTEM.SOLV>
0

>  <SCORE.SYSTEM.norm>
0

>  <SCORE.heavy>
22

>  <SCORE.norm>
-0.716158

>  <RMSD>
8.645

$$$$
lig.pdb
 OpenBabel11021811523D
libRbt.so/2013.1/901 2013/11/27
 22 23  0  0  0  0  0  0  0  0999 V2000
   57.1374   -6.7067    9.0434 O   0  0  0  0  0  0  0  0  0  0  0  0
   57.2525   -5.5794    8.6235 C   0  0  0  0  0  0  0  0  0  0  0  0
   56.2385   -4.7326    8.6003 N   0  0  0  0  0  0  0  0  0  0  0  0
   58.5381   -5.1242    8.0755 C   0  0  0  0  0  0  0  0  0  0  0  0
   59.7542   -5.9371    8.0002 C   0  0  0  0  0  0  0  0  0  0  0  0
   59.8777   -7.2085    8.4380 N   0  0  0  0  0  0  0  0  0  0  0  0
   58.8948   -3.9420    7.5486 N   0  0  0  0  0  0  0  0  0  0  0  0
   60.1970   -4.0191    7.1573 C   0  0  0  0  0  0  0  0  0  0  0  0
   60.7255   -5.2372    7.4250 N   0  0  0  0  0  0  0  0  0  0  0  0
   62.1204   -5.6654    7.1309 C   0  0  1  0  0  0  0  0  0  0  0  0
   62.9152   -5.7001    8.4183 C   0  0  1  0  0  0  0  0  0  0  0  0
   63.7888   -6.9186    8.2688 C   0  0  2  0  0  0  0  0  0  0  0  0
   65.0365   -6.5510    7.6670 O   0  0  0  0  0  0  0  0  0  0  0  0
   63.6812   -4.4968    8.5852 O   0  0  0  0  0  0  0  0  0  0  0  0
   62.1319   -6.9981    6.6255 O   0  0  0  0  0  0  0  0  0  0  0  0
   63.0431   -7.8178    7.3173 C   0  0  2  0  0  0  0  0  0  0  0  0
   62.2174   -8.9185    7.9506 C   0  0  0  0  0  0  0  0  0  0  0  0
   63.0306   -9.9604    8.4497 O   0  0  0  0  0  0  0  0  0  0  0  0
   62.3295  -11.3140    8.9281 P   0  0  0  0  0  0  0  0  0  0  0  0
   63.4449  -12.1401    9.5366 O   0  0  0  0  0  0  0  0  0  0  0  0
   61.7680  -11.8537    7.6381 O   0  0  0  0  0  0  0  0  0  0  0  0
   61.2547  -10.8363    9.8647 O   0  0  0  0  0  0  0  0  0  0  0  0
  2  1  2  0  0  0  0
  2  4  1  0  0  0  0
  3  2  1  0  0  0  0
  4  7  1  0  0  0  0
  4  5  2  0  0  0  0
  5  6  1  0  0  0  0
  5  9  1  0  0  0  0
  7  8  2  0  0  0  0
  8  9  1  0  0  0  0
 10  9  1  1  0  0  0
 10 15  1  0  0  0  0
 11 14  1  6  0  0  0
 11 12  1  0  0  0  0
 11 10  1  0  0  0  0
 12 13  1  6  0  0  0
 12 16  1  0  0  0  0
 16 17  1  1  0  0  0
 16 15  1  0  0  0  0
 18 19  1  0  0  0  0
 18 17  1  0  0  0  0
 19 21  1  0  0  0  0
 20 19  1  0  0  0  0
 22 19  2  0  0  0  0
M  END
>  <CHROM.1>
-0.80611285,-74.24717456,-73.97384622,-173.94158435,-169.83105329,61.29289310
-7.49970008,8.20884101,2.17118789,0.13042168,-0.19858351

>  <Name>
lig.pdb

>  <RI>
0

>  <Rbt.Current_Directory>
/home/itssahil/PROJECTS/Mol_Feturizer/New_Systems/rnas/4znp

>  <Rbt.Executable>
rbdock ($Id: //depot/dev/client3/rdock/2013.1/src/exe/rbdock.cxx#4 $)

>  <Rbt.Library>
libRbt.so (2013.1, Build901 2013/11/27)

>  <Rbt.Parameter_File>
/export/apps/rDock/src/rDock_2013.1_src/data/scripts/dock_solv.prm

>  <Rbt.Receptor>
prm/pocket_docking_6.prm

>  <SCORE>
-16.0798

>  <SCORE.INTER>
-11.0165

>  <SCORE.INTER.CONST>
1

>  <SCORE.INTER.POLAR>
0

>  <SCORE.INTER.ROT>
5

>  <SCORE.INTER.SOLV>
13.7022

>  <SCORE.INTER.VDW>
-18.8451

>  <SCORE.INTER.norm>
-0.50075

>  <SCORE.INTRA>
-5.07879

>  <SCORE.INTRA.DIHEDRAL>
-8.22609

>  <SCORE.INTRA.DIHEDRAL.0>
11.9251

>  <SCORE.INTRA.POLAR>
0

>  <SCORE.INTRA.POLAR.0>
0

>  <SCORE.INTRA.REPUL>
0

>  <SCORE.INTRA.REPUL.0>
0

>  <SCORE.INTRA.SOLV>
1.14015

>  <SCORE.INTRA.SOLV.lig_0>
-40.9823

>  <SCORE.INTRA.VDW>
-1.53582

>  <SCORE.INTRA.VDW.0>
-0.53506

>  <SCORE.INTRA.norm>
-0.230854

>  <SCORE.RESTR>
0.0155042

>  <SCORE.RESTR.CAVITY>
0.0155042

>  <SCORE.RESTR.norm>
0.000704736

>  <SCORE.SYSTEM>
0

>  <SCORE.SYSTEM.CONST>
0

>  <SCORE.SYSTEM.DIHEDRAL>
0

>  <SCORE.SYSTEM.SOLV>
0

>  <SCORE.SYSTEM.norm>
0

>  <SCORE.heavy>
22

>  <SCORE.norm>
-0.7309

>  <RMSD>
8.665

$$$$
lig.pdb
 OpenBabel11021811523D
libRbt.so/2013.1/901 2013/11/27
 22 23  0  0  0  0  0  0  0  0999 V2000
   61.1897   -4.3218   13.3836 O   0  0  0  0  0  0  0  0  0  0  0  0
   62.1683   -4.7765   12.8395 C   0  0  0  0  0  0  0  0  0  0  0  0
   63.1398   -4.0052   12.3845 N   0  0  0  0  0  0  0  0  0  0  0  0
   62.2867   -6.2258   12.6256 C   0  0  0  0  0  0  0  0  0  0  0  0
   63.3975   -6.8850   11.9350 C   0  0  0  0  0  0  0  0  0  0  0  0
   64.4586   -6.2611   11.3799 N   0  0  0  0  0  0  0  0  0  0  0  0
   61.4710   -7.2316   12.9798 N   0  0  0  0  0  0  0  0  0  0  0  0
   62.0315   -8.4049   12.5750 C   0  0  0  0  0  0  0  0  0  0  0  0
   63.2112   -8.2001   11.9415 N   0  0  0  0  0  0  0  0  0  0  0  0
   64.0887   -9.2582   11.3706 C   0  0  1  0  0  0  0  0  0  0  0  0
   64.5462  -10.1811   12.4792 C   0  0  1  0  0  0  0  0  0  0  0  0
   64.5190  -11.5472   11.8441 C   0  0  2  0  0  0  0  0  0  0  0  0
   65.7954  -11.8370   11.2604 O   0  0  0  0  0  0  0  0  0  0  0  0
   65.8568   -9.8211   12.9433 O   0  0  0  0  0  0  0  0  0  0  0  0
   63.3532  -10.0717   10.4600 O   0  0  0  0  0  0  0  0  0  0  0  0
   63.4985  -11.4431   10.7406 C   0  0  2  0  0  0  0  0  0  0  0  0
   62.1099  -11.9521   11.0679 C   0  0  0  0  0  0  0  0  0  0  0  0
   62.0069  -13.3482   10.8777 O   0  0  0  0  0  0  0  0  0  0  0  0
   61.7405  -13.9003    9.4023 P   0  0  0  0  0  0  0  0  0  0  0  0
   60.3571  -13.3988    9.0393 O   0  0  0  0  0  0  0  0  0  0  0  0
   61.8470  -15.3908    9.5970 O   0  0  0  0  0  0  0  0  0  0  0  0
   62.8903  -13.3429    8.6099 O   0  0  0  0  0  0  0  0  0  0  0  0
  2  1  2  0  0  0  0
  2  4  1  0  0  0  0
  3  2  1  0  0  0  0
  4  7  1  0  0  0  0
  4  5  2  0  0  0  0
  5  6  1  0  0  0  0
  5  9  1  0  0  0  0
  7  8  2  0  0  0  0
  8  9  1  0  0  0  0
 10  9  1  1  0  0  0
 10 15  1  0  0  0  0
 11 14  1  6  0  0  0
 11 12  1  0  0  0  0
 11 10  1  0  0  0  0
 12 13  1  6  0  0  0
 12 16  1  0  0  0  0
 16 17  1  1  0  0  0
 16 15  1  0  0  0  0
 18 19  1  0  0  0  0
 18 17  1  0  0  0  0
 19 21  1  0  0  0  0
 20 19  1  0  0  0  0
 22 19  2  0  0  0  0
M  END
>  <CHROM.1>
177.54456172,119.08396797,-84.30876109,-65.48873812,-82.44337709,62.92535232
-9.99320583,11.28134936,1.50952327,-0.23578178,0.33284978

>  <Name>
lig.pdb

>  <RI>
0

>  <Rbt.Current_Directory>
/home/itssahil/PROJECTS/Mol_Feturizer/New_Systems/rnas/4znp

>  <Rbt.Executable>
rbdock ($Id: //depot/dev/client3/rdock/2013.1/src/exe/rbdock.cxx#4 $)

>  <Rbt.Library>
libRbt.so (2013.1, Build901 2013/11/27)

>  <Rbt.Parameter_File>
/export/apps/rDock/src/rDock_2013.1_src/data/scripts/dock_solv.prm

>  <Rbt.Receptor>
prm/pocket_docking_8.prm

>  <SCORE>
-8.77471

>  <SCORE.INTER>
-5.21706

>  <SCORE.INTER.CONST>
1

>  <SCORE.INTER.POLAR>
0

>  <SCORE.INTER.ROT>
5

>  <SCORE.INTER.SOLV>
11.8006

>  <SCORE.INTER.VDW>
-14.3449

>  <SCORE.INTER.norm>
-0.237139

>  <SCORE.INTRA>
-3.55765

>  <SCORE.INTRA.DIHEDRAL>
-5.38494

>  <SCORE.INTRA.DIHEDRAL.0>
11.9251

>  <SCORE.INTRA.POLAR>
0

>  <SCORE.INTRA.POLAR.0>
0

>  <SCORE.INTRA.REPUL>
0

>  <SCORE.INTRA.REPUL.0>
0

>  <SCORE.INTRA.SOLV>
1.11243

>  <SCORE.INTRA.SOLV.lig_0>
-40.9823

>  <SCORE.INTRA.VDW>
-1.4214

>  <SCORE.INTRA.VDW.0>
-0.53506

>  <SCORE.INTRA.norm>
-0.161711

>  <SCORE.RESTR>
0

>  <SCORE.RESTR.CAVITY>
0

>  <SCORE.RESTR.norm>
0

>  <SCORE.SYSTEM>
0

>  <SCORE.SYSTEM.CONST>
0

>  <SCORE.SYSTEM.DIHEDRAL>
0

>  <SCORE.SYSTEM.SOLV>
0

>  <SCORE.SYSTEM.norm>
0

>  <SCORE.heavy>
22

>  <SCORE.norm>
-0.398851

>  <RMSD>
8.722

$$$$
lig.pdb
 OpenBabel11021811523D
libRbt.so/2013.1/901 2013/11/27
 22 23  0  0  0  0  0  0  0  0999 V2000
   57.2304   -6.5423    8.9806 O   0  0  0  0  0  0  0  0  0  0  0  0
   57.3529   -5.4623    8.4522 C   0  0  0  0  0  0  0  0  0  0  0  0
   56.3319   -4.6386    8.2951 N   0  0  0  0  0  0  0  0  0  0  0  0
   58.6578   -5.0456    7.9197 C   0  0  0  0  0  0  0  0  0  0  0  0
   59.8614   -5.8801    7.8973 C   0  0  0  0  0  0  0  0  0  0  0  0
   59.9536   -7.1389    8.3772 N   0  0  0  0  0  0  0  0  0  0  0  0
   59.0461   -3.8865    7.3645 N   0  0  0  0  0  0  0  0  0  0  0  0
   60.3551   -3.9970    7.0054 C   0  0  0  0  0  0  0  0  0  0  0  0
   60.8570   -5.2145    7.3229 N   0  0  0  0  0  0  0  0  0  0  0  0
   62.2506   -5.6742    7.0741 C   0  0  1  0  0  0  0  0  0  0  0  0
   63.0085   -5.7060    8.3836 C   0  0  1  0  0  0  0  0  0  0  0  0
   63.8612   -6.9435    8.2756 C   0  0  2  0  0  0  0  0  0  0  0  0
   65.1323   -6.6093    7.7041 O   0  0  0  0  0  0  0  0  0  0  0  0
   63.7935   -4.5157    8.5552 O   0  0  0  0  0  0  0  0  0  0  0  0
   62.2493   -7.0141    6.5878 O   0  0  0  0  0  0  0  0  0  0  0  0
   63.1243   -7.8415    7.3162 C   0  0  2  0  0  0  0  0  0  0  0  0
   62.2593   -8.9165    7.9413 C   0  0  0  0  0  0  0  0  0  0  0  0
   63.0379   -9.9587    8.4924 O   0  0  0  0  0  0  0  0  0  0  0  0
   62.3059  -11.3104    8.9278 P   0  0  0  0  0  0  0  0  0  0  0  0
   61.8096  -11.9226    7.6333 O   0  0  0  0  0  0  0  0  0  0  0  0
   61.2256  -10.8041    9.8484 O   0  0  0  0  0  0  0  0  0  0  0  0
   63.3782  -12.0646    9.6640 O   0  0  0  0  0  0  0  0  0  0  0  0
  2  1  2  0  0  0  0
  2  4  1  0  0  0  0
  3  2  1  0  0  0  0
  4  7  1  0  0  0  0
  4  5  2  0  0  0  0
  5  6  1  0  0  0  0
  5  9  1  0  0  0  0
  7  8  2  0  0  0  0
  8  9  1  0  0  0  0
 10  9  1  1  0  0  0
 10 15  1  0  0  0  0
 11 14  1  6  0  0  0
 11 12  1  0  0  0  0
 11 10  1  0  0  0  0
 12 13  1  6  0  0  0
 12 16  1  0  0  0  0
 16 17  1  1  0  0  0
 16 15  1  0  0  0  0
 18 19  1  0  0  0  0
 18 17  1  0  0  0  0
 19 21  1  0  0  0  0
 20 19  1  0  0  0  0
 22 19  2  0  0  0  0
M  END
>  <CHROM.1>
3.86938164,-73.20069941,-73.23166775,66.41587115,-167.82318079,61.36264839
-7.47602688,8.15844303,2.14649207,0.11049047,-0.21082970

>  <Name>
lig.pdb

>  <RI>
0

>  <Rbt.Current_Directory>
/home/itssahil/PROJECTS/Mol_Feturizer/New_Systems/rnas/4znp

>  <Rbt.Executable>
rbdock ($Id: //depot/dev/client3/rdock/2013.1/src/exe/rbdock.cxx#4 $)

>  <Rbt.Library>
libRbt.so (2013.1, Build901 2013/11/27)

>  <Rbt.Parameter_File>
/export/apps/rDock/src/rDock_2013.1_src/data/scripts/dock_solv.prm

>  <Rbt.Receptor>
prm/pocket_docking_7.prm

>  <SCORE>
-15.8331

>  <SCORE.INTER>
-10.6465

>  <SCORE.INTER.CONST>
1

>  <SCORE.INTER.POLAR>
0

>  <SCORE.INTER.ROT>
5

>  <SCORE.INTER.SOLV>
15.4992

>  <SCORE.INTER.VDW>
-19.1974

>  <SCORE.INTER.norm>
-0.483933

>  <SCORE.INTRA>
-5.18662

>  <SCORE.INTRA.DIHEDRAL>
-7.99558

>  <SCORE.INTRA.DIHEDRAL.0>
11.9251

>  <SCORE.INTRA.POLAR>
0

>  <SCORE.INTRA.POLAR.0>
0

>  <SCORE.INTRA.REPUL>
0

>  <SCORE.INTRA.REPUL.0>
0

>  <SCORE.INTRA.SOLV>
0.866398

>  <SCORE.INTRA.SOLV.lig_0>
-40.9823

>  <SCORE.INTRA.VDW>
-1.62203

>  <SCORE.INTRA.VDW.0>
-0.53506

>  <SCORE.INTRA.norm>
-0.235755

>  <SCORE.RESTR>
0

>  <SCORE.RESTR.CAVITY>
0

>  <SCORE.RESTR.norm>
0

>  <SCORE.SYSTEM>
0

>  <SCORE.SYSTEM.CONST>
0

>  <SCORE.SYSTEM.DIHEDRAL>
0

>  <SCORE.SYSTEM.SOLV>
0

>  <SCORE.SYSTEM.norm>
0

>  <SCORE.heavy>
22

>  <SCORE.norm>
-0.719689

>  <RMSD>
8.724

$$$$
lig.pdb
 OpenBabel11021811523D
libRbt.so/2013.1/901 2013/11/27
 22 23  0  0  0  0  0  0  0  0999 V2000
   54.2700   -8.8529   10.0485 O   0  0  0  0  0  0  0  0  0  0  0  0
   54.3447   -7.7014    9.6895 C   0  0  0  0  0  0  0  0  0  0  0  0
   53.2728   -6.9890    9.3907 N   0  0  0  0  0  0  0  0  0  0  0  0
   55.6586   -7.0624    9.5300 C   0  0  0  0  0  0  0  0  0  0  0  0
   55.8725   -5.6706    9.1270 C   0  0  0  0  0  0  0  0  0  0  0  0
   54.9016   -4.7818    8.8257 N   0  0  0  0  0  0  0  0  0  0  0  0
   56.8965   -7.5541    9.6988 N   0  0  0  0  0  0  0  0  0  0  0  0
   57.7934   -6.5592    9.4529 C   0  0  0  0  0  0  0  0  0  0  0  0
   57.1738   -5.4047    9.1090 N   0  0  0  0  0  0  0  0  0  0  0  0
   57.8477   -4.1207    8.7736 C   0  0  1  0  0  0  0  0  0  0  0  0
   58.8802   -3.8055    9.8342 C   0  0  1  0  0  0  0  0  0  0  0  0
   60.0306   -3.2234    9.0544 C   0  0  2  0  0  0  0  0  0  0  0  0
   59.8861   -1.8003    8.9648 O   0  0  0  0  0  0  0  0  0  0  0  0
   58.3587   -2.8854   10.8058 O   0  0  0  0  0  0  0  0  0  0  0  0
   58.5668   -4.2452    7.5493 O   0  0  0  0  0  0  0  0  0  0  0  0
   59.8988   -3.8076    7.6719 C   0  0  2  0  0  0  0  0  0  0  0  0
   60.7642   -5.0146    7.3740 C   0  0  0  0  0  0  0  0  0  0  0  0
   62.1400   -4.6993    7.4363 O   0  0  0  0  0  0  0  0  0  0  0  0
   63.2001   -5.8937    7.3895 P   0  0  0  0  0  0  0  0  0  0  0  0
   62.8695   -6.7591    8.5889 O   0  0  0  0  0  0  0  0  0  0  0  0
   64.5119   -5.1574    7.4773 O   0  0  0  0  0  0  0  0  0  0  0  0
   62.9759   -6.5042    6.0338 O   0  0  0  0  0  0  0  0  0  0  0  0
  2  1  2  0  0  0  0
  2  4  1  0  0  0  0
  3  2  1  0  0  0  0
  4  7  1  0  0  0  0
  4  5  2  0  0  0  0
  5  6  1  0  0  0  0
  5  9  1  0  0  0  0
  7  8  2  0  0  0  0
  8  9  1  0  0  0  0
 10  9  1  1  0  0  0
 10 15  1  0  0  0  0
 11 14  1  1  0  0  0
 11 12  1  0  0  0  0
 11 10  1  0  0  0  0
 12 13  1  6  0  0  0
 12 16  1  0  0  0  0
 16 17  1  1  0  0  0
 16 15  1  0  0  0  0
 18 19  1  0  0  0  0
 18 17  1  0  0  0  0
 19 21  1  0  0  0  0
 20 19  1  0  0  0  0
 22 19  2  0  0  0  0
M  END
>  <CHROM.1>
-178.76704425,131.99271628,-63.32802908,-59.64122655,170.02748660,59.02019233
-5.38925427,8.61692822,-3.00142259,0.28409359,0.15143583

>  <Name>
lig.pdb

>  <RI>
0

>  <Rbt.Current_Directory>
/home/itssahil/PROJECTS/Mol_Feturizer/New_Systems/rnas/4znp

>  <Rbt.Executable>
rbdock ($Id: //depot/dev/client3/rdock/2013.1/src/exe/rbdock.cxx#4 $)

>  <Rbt.Library>
libRbt.so (2013.1, Build901 2013/11/27)

>  <Rbt.Parameter_File>
/export/apps/rDock/src/rDock_2013.1_src/data/scripts/dock_solv.prm

>  <Rbt.Receptor>
prm/pocket_docking_8.prm

>  <SCORE>
-12.6184

>  <SCORE.INTER>
-7.0074

>  <SCORE.INTER.CONST>
1

>  <SCORE.INTER.POLAR>
0

>  <SCORE.INTER.ROT>
5

>  <SCORE.INTER.SOLV>
13.7584

>  <SCORE.INTER.VDW>
-16.1911

>  <SCORE.INTER.norm>
-0.318518

>  <SCORE.INTRA>
-5.61104

>  <SCORE.INTRA.DIHEDRAL>
-8.94552

>  <SCORE.INTRA.DIHEDRAL.0>
11.9251

>  <SCORE.INTRA.POLAR>
0

>  <SCORE.INTRA.POLAR.0>
0

>  <SCORE.INTRA.REPUL>
0

>  <SCORE.INTRA.REPUL.0>
0

>  <SCORE.INTRA.SOLV>
0.104419

>  <SCORE.INTRA.SOLV.lig_0>
-40.9823

>  <SCORE.INTRA.VDW>
-1.19049

>  <SCORE.INTRA.VDW.0>
-0.53506

>  <SCORE.INTRA.norm>
-0.255047

>  <SCORE.RESTR>
0

>  <SCORE.RESTR.CAVITY>
0

>  <SCORE.RESTR.norm>
0

>  <SCORE.SYSTEM>
0

>  <SCORE.SYSTEM.CONST>
0

>  <SCORE.SYSTEM.DIHEDRAL>
0

>  <SCORE.SYSTEM.SOLV>
0

>  <SCORE.SYSTEM.norm>
0

>  <SCORE.heavy>
22

>  <SCORE.norm>
-0.573566

>  <RMSD>
9.234

$$$$
lig.pdb
 OpenBabel11021811523D
libRbt.so/2013.1/901 2013/11/27
 22 23  0  0  0  0  0  0  0  0999 V2000
   51.3871  -10.0032   10.1053 O   0  0  0  0  0  0  0  0  0  0  0  0
   52.5583   -9.7058   10.1187 C   0  0  0  0  0  0  0  0  0  0  0  0
   53.4814  -10.5133   10.6104 N   0  0  0  0  0  0  0  0  0  0  0  0
   52.9918   -8.3935    9.6186 C   0  0  0  0  0  0  0  0  0  0  0  0
   54.3830   -8.0046    9.3762 C   0  0  0  0  0  0  0  0  0  0  0  0
   55.4654   -8.7820    9.5938 N   0  0  0  0  0  0  0  0  0  0  0  0
   52.2791   -7.3057    9.2852 N   0  0  0  0  0  0  0  0  0  0  0  0
   53.1388   -6.3428    8.8509 C   0  0  0  0  0  0  0  0  0  0  0  0
   54.4247   -6.7659    8.8985 N   0  0  0  0  0  0  0  0  0  0  0  0
   55.6185   -5.9717    8.4993 C   0  0  1  0  0  0  0  0  0  0  0  0
   55.1990   -4.8935    7.5237 C   0  0  1  0  0  0  0  0  0  0  0  0
   56.0350   -3.7044    7.9205 C   0  0  2  0  0  0  0  0  0  0  0  0
   57.2630   -3.7057    7.1815 O   0  0  0  0  0  0  0  0  0  0  0  0
   55.4393   -5.3015    6.1679 O   0  0  0  0  0  0  0  0  0  0  0  0
   56.1594   -5.2911    9.6289 O   0  0  0  0  0  0  0  0  0  0  0  0
   56.3511   -3.9197    9.3778 C   0  0  2  0  0  0  0  0  0  0  0  0
   55.4677   -3.1865   10.3659 C   0  0  0  0  0  0  0  0  0  0  0  0
   55.9887   -1.9133   10.6879 O   0  0  0  0  0  0  0  0  0  0  0  0
   55.8341   -0.7332    9.6221 P   0  0  0  0  0  0  0  0  0  0  0  0
   54.9386   -1.2983    8.5378 O   0  0  0  0  0  0  0  0  0  0  0  0
   57.2623   -0.4913    9.2069 O   0  0  0  0  0  0  0  0  0  0  0  0
   55.2751    0.4000   10.4371 O   0  0  0  0  0  0  0  0  0  0  0  0
  2  1  2  0  0  0  0
  2  4  1  0  0  0  0
  3  2  1  0  0  0  0
  4  7  1  0  0  0  0
  4  5  2  0  0  0  0
  5  6  1  0  0  0  0
  5  9  1  0  0  0  0
  7  8  2  0  0  0  0
  8  9  1  0  0  0  0
 10  9  1  1  0  0  0
 10 15  1  0  0  0  0
 11 14  1  6  0  0  0
 11 12  1  0  0  0  0
 11 10  1  0  0  0  0
 12 13  1  6  0  0  0
 12 16  1  0  0  0  0
 16 17  1  1  0  0  0
 16 15  1  0  0  0  0
 18 19  1  0  0  0  0
 18 17  1  0  0  0  0
 19 21  1  0  0  0  0
 20 19  1  0  0  0  0
 22 19  2  0  0  0  0
M  END
>  <CHROM.1>
-169.29200266,157.13126906,-90.44763512,7.71782079,75.96197101,54.96217173
-4.88637738,9.18081731,2.12860897,-0.84805676,-2.74490813

>  <Name>
lig.pdb

>  <RI>
0

>  <Rbt.Current_Directory>
/home/afrankz/demos/rdock_decoys_rna/rnas/4znp

>  <Rbt.Executable>
rbdock ($Id: //depot/dev/client3/rdock/2013.1/src/exe/rbdock.cxx#4 $)

>  <Rbt.Library>
libRbt.so (2013.1, Build901 2013/11/27)

>  <Rbt.Parameter_File>
/export/apps/rDock/src/rDock_2013.1_src/data/scripts/dock_solv.prm

>  <Rbt.Receptor>
prm/blind_docking_60.prm

>  <SCORE>
6.83377

>  <SCORE.INTER>
2.72033

>  <SCORE.INTER.CONST>
1

>  <SCORE.INTER.POLAR>
0

>  <SCORE.INTER.ROT>
5

>  <SCORE.INTER.SOLV>
17.4697

>  <SCORE.INTER.VDW>
-10.943

>  <SCORE.INTER.norm>
0.123651

>  <SCORE.INTRA>
-0.828529

>  <SCORE.INTRA.DIHEDRAL>
-2.83823

>  <SCORE.INTRA.DIHEDRAL.0>
11.9251

>  <SCORE.INTRA.POLAR>
0

>  <SCORE.INTRA.POLAR.0>
0

>  <SCORE.INTRA.REPUL>
0

>  <SCORE.INTRA.REPUL.0>
0

>  <SCORE.INTRA.SOLV>
1.06699

>  <SCORE.INTRA.SOLV.lig_0>
-40.9823

>  <SCORE.INTRA.VDW>
0.0570909

>  <SCORE.INTRA.VDW.0>
-0.53506

>  <SCORE.INTRA.norm>
-0.0376604

>  <SCORE.RESTR>
4.94197

>  <SCORE.RESTR.CAVITY>
4.94197

>  <SCORE.RESTR.norm>
0.224635

>  <SCORE.SYSTEM>
0

>  <SCORE.SYSTEM.CONST>
0

>  <SCORE.SYSTEM.DIHEDRAL>
0

>  <SCORE.SYSTEM.SOLV>
0

>  <SCORE.SYSTEM.norm>
0

>  <SCORE.heavy>
22

>  <SCORE.norm>
0.310626

>  <RMSD>
9.509

$$$$
lig.pdb
 OpenBabel11021811523D
libRbt.so/2013.1/901 2013/11/27
 22 23  0  0  0  0  0  0  0  0999 V2000
   55.5016   -5.0951    6.7290 O   0  0  0  0  0  0  0  0  0  0  0  0
   56.0386   -4.4221    7.5770 C   0  0  0  0  0  0  0  0  0  0  0  0
   55.4681   -3.3419    8.0805 N   0  0  0  0  0  0  0  0  0  0  0  0
   57.3865   -4.7686    8.0495 C   0  0  0  0  0  0  0  0  0  0  0  0
   58.1698   -3.9819    9.0050 C   0  0  0  0  0  0  0  0  0  0  0  0
   57.7797   -2.8208    9.5732 N   0  0  0  0  0  0  0  0  0  0  0  0
   58.1781   -5.8101    7.7477 N   0  0  0  0  0  0  0  0  0  0  0  0
   59.3300   -5.6991    8.4657 C   0  0  0  0  0  0  0  0  0  0  0  0
   59.3283   -4.5876    9.2400 N   0  0  0  0  0  0  0  0  0  0  0  0
   60.4256   -4.1575   10.1491 C   0  0  1  0  0  0  0  0  0  0  0  0
   60.4368   -5.0449   11.3749 C   0  0  1  0  0  0  0  0  0  0  0  0
   61.9026   -5.2431   11.6620 C   0  0  2  0  0  0  0  0  0  0  0  0
   62.3634   -4.2262   12.5607 O   0  0  0  0  0  0  0  0  0  0  0  0
   59.7456   -4.4230   12.4694 O   0  0  0  0  0  0  0  0  0  0  0  0
   61.6905   -4.3419    9.5185 O   0  0  0  0  0  0  0  0  0  0  0  0
   62.5882   -5.0567   10.3334 C   0  0  2  0  0  0  0  0  0  0  0  0
   62.9240   -6.3236    9.5740 C   0  0  0  0  0  0  0  0  0  0  0  0
   63.2020   -6.0595    8.2143 O   0  0  0  0  0  0  0  0  0  0  0  0
   63.5725   -7.2851    7.2586 P   0  0  0  0  0  0  0  0  0  0  0  0
   65.0522   -7.5241    7.4825 O   0  0  0  0  0  0  0  0  0  0  0  0
   63.2129   -6.7466    5.8979 O   0  0  0  0  0  0  0  0  0  0  0  0
   62.6370   -8.3724    7.7095 O   0  0  0  0  0  0  0  0  0  0  0  0
  2  1  2  0  0  0  0
  2  4  1  0  0  0  0
  3  2  1  0  0  0  0
  4  7  1  0  0  0  0
  4  5  2  0  0  0  0
  5  6  1  0  0  0  0
  5  9  1  0  0  0  0
  7  8  2  0  0  0  0
  8  9  1  0  0  0  0
 10  9  1  6  0  0  0
 10 15  1  0  0  0  0
 11 14  1  1  0  0  0
 11 12  1  0  0  0  0
 11 10  1  0  0  0  0
 12 13  1  1  0  0  0
 12 16  1  0  0  0  0
 16 17  1  6  0  0  0
 16 15  1  0  0  0  0
 18 19  1  0  0  0  0
 18 17  1  0  0  0  0
 19 21  1  0  0  0  0
 20 19  1  0  0  0  0
 22 19  2  0  0  0  0
M  END
>  <CHROM.1>
175.82423473,106.65245551,163.18349518,-83.00157151,-179.80224709,60.59567559
-5.39513541,8.92393590,2.93734466,-0.32597504,1.13197388

>  <Name>
lig.pdb

>  <RI>
0

>  <Rbt.Current_Directory>
/home/itssahil/PROJECTS/Mol_Feturizer/New_Systems/rnas/4znp

>  <Rbt.Executable>
rbdock ($Id: //depot/dev/client3/rdock/2013.1/src/exe/rbdock.cxx#4 $)

>  <Rbt.Library>
libRbt.so (2013.1, Build901 2013/11/27)

>  <Rbt.Parameter_File>
/export/apps/rDock/src/rDock_2013.1_src/data/scripts/dock_solv.prm

>  <Rbt.Receptor>
prm/pocket_docking_8.prm

>  <SCORE>
-10.1056

>  <SCORE.INTER>
-5.25916

>  <SCORE.INTER.CONST>
1

>  <SCORE.INTER.POLAR>
0

>  <SCORE.INTER.ROT>
5

>  <SCORE.INTER.SOLV>
11.8361

>  <SCORE.INTER.VDW>
-14.3848

>  <SCORE.INTER.norm>
-0.239053

>  <SCORE.INTRA>
-4.84644

>  <SCORE.INTRA.DIHEDRAL>
-7.81078

>  <SCORE.INTRA.DIHEDRAL.0>
11.9251

>  <SCORE.INTRA.POLAR>
0

>  <SCORE.INTRA.POLAR.0>
0

>  <SCORE.INTRA.REPUL>
0

>  <SCORE.INTRA.REPUL.0>
0

>  <SCORE.INTRA.SOLV>
0.446461

>  <SCORE.INTRA.SOLV.lig_0>
-40.9823

>  <SCORE.INTRA.VDW>
-1.16428

>  <SCORE.INTRA.VDW.0>
-0.53506

>  <SCORE.INTRA.norm>
-0.220293

>  <SCORE.RESTR>
0

>  <SCORE.RESTR.CAVITY>
0

>  <SCORE.RESTR.norm>
0

>  <SCORE.SYSTEM>
0

>  <SCORE.SYSTEM.CONST>
0

>  <SCORE.SYSTEM.DIHEDRAL>
0

>  <SCORE.SYSTEM.SOLV>
0

>  <SCORE.SYSTEM.norm>
0

>  <SCORE.heavy>
22

>  <SCORE.norm>
-0.459345

>  <RMSD>
9.646

$$$$
lig.pdb
 OpenBabel11021811523D
libRbt.so/2013.1/901 2013/11/27
 22 23  0  0  0  0  0  0  0  0999 V2000
   51.9954   -7.3874    9.5112 O   0  0  0  0  0  0  0  0  0  0  0  0
   52.7804   -8.2968    9.6423 C   0  0  0  0  0  0  0  0  0  0  0  0
   52.3850   -9.5392    9.8563 N   0  0  0  0  0  0  0  0  0  0  0  0
   54.2260   -8.0335    9.6104 C   0  0  0  0  0  0  0  0  0  0  0  0
   54.8366   -6.7276    9.3514 C   0  0  0  0  0  0  0  0  0  0  0  0
   54.1664   -5.5857    9.0861 N   0  0  0  0  0  0  0  0  0  0  0  0
   55.2694   -8.8581    9.7948 N   0  0  0  0  0  0  0  0  0  0  0  0
   56.4170   -8.1324    9.6892 C   0  0  0  0  0  0  0  0  0  0  0  0
   56.1589   -6.8293    9.4244 N   0  0  0  0  0  0  0  0  0  0  0  0
   57.1770   -5.7583    9.2458 C   0  0  1  0  0  0  0  0  0  0  0  0
   57.4475   -5.5660    7.7694 C   0  0  1  0  0  0  0  0  0  0  0  0
   57.6057   -4.0747    7.6240 C   0  0  2  0  0  0  0  0  0  0  0  0
   58.9835   -3.7143    7.7850 O   0  0  0  0  0  0  0  0  0  0  0  0
   58.6241   -6.2818    7.3621 O   0  0  0  0  0  0  0  0  0  0  0  0
   56.6715   -4.5123    9.7186 O   0  0  0  0  0  0  0  0  0  0  0  0
   56.8188   -3.4866    8.7663 C   0  0  2  0  0  0  0  0  0  0  0  0
   55.4166   -3.0178    8.4369 C   0  0  0  0  0  0  0  0  0  0  0  0
   55.3341   -1.6081    8.3919 O   0  0  0  0  0  0  0  0  0  0  0  0
   53.9274   -0.9363    8.0417 P   0  0  0  0  0  0  0  0  0  0  0  0
   52.9083   -1.7169    8.8472 O   0  0  0  0  0  0  0  0  0  0  0  0
   53.8450   -1.1314    6.5498 O   0  0  0  0  0  0  0  0  0  0  0  0
   54.1270    0.5051    8.4204 O   0  0  0  0  0  0  0  0  0  0  0  0
  2  1  2  0  0  0  0
  2  4  1  0  0  0  0
  3  2  1  0  0  0  0
  4  7  1  0  0  0  0
  4  5  2  0  0  0  0
  5  6  1  0  0  0  0
  5  9  1  0  0  0  0
  7  8  2  0  0  0  0
  8  9  1  0  0  0  0
 10  9  1  6  0  0  0
 10 15  1  0  0  0  0
 11 14  1  1  0  0  0
 11 12  1  0  0  0  0
 11 10  1  0  0  0  0
 12 13  1  1  0  0  0
 12 16  1  0  0  0  0
 16 17  1  6  0  0  0
 16 15  1  0  0  0  0
 18 19  1  0  0  0  0
 18 17  1  0  0  0  0
 19 21  1  0  0  0  0
 20 19  1  0  0  0  0
 22 19  2  0  0  0  0
M  END
>  <CHROM.1>
-3.64760622,-83.00772634,-106.23096573,43.50314972,179.36447026,55.24983275
-4.68010322,8.69873848,1.57312720,-0.16502709,2.93067169

>  <Name>
lig.pdb

>  <RI>
0

>  <Rbt.Current_Directory>
/home/afrankz/demos/rdock_decoys_rna/rnas/4znp

>  <Rbt.Executable>
rbdock ($Id: //depot/dev/client3/rdock/2013.1/src/exe/rbdock.cxx#4 $)

>  <Rbt.Library>
libRbt.so (2013.1, Build901 2013/11/27)

>  <Rbt.Parameter_File>
/export/apps/rDock/src/rDock_2013.1_src/data/scripts/dock_solv.prm

>  <Rbt.Receptor>
prm/blind_docking_60.prm

>  <SCORE>
2.7547

>  <SCORE.INTER>
0.831025

>  <SCORE.INTER.CONST>
1

>  <SCORE.INTER.POLAR>
0

>  <SCORE.INTER.ROT>
5

>  <SCORE.INTER.SOLV>
18.4891

>  <SCORE.INTER.VDW>
-12.5424

>  <SCORE.INTER.norm>
0.0377739

>  <SCORE.INTRA>
-3.33932

>  <SCORE.INTRA.DIHEDRAL>
-4.45272

>  <SCORE.INTRA.DIHEDRAL.0>
11.9251

>  <SCORE.INTRA.POLAR>
0

>  <SCORE.INTRA.POLAR.0>
0

>  <SCORE.INTRA.REPUL>
0

>  <SCORE.INTRA.REPUL.0>
0

>  <SCORE.INTRA.SOLV>
0.767013

>  <SCORE.INTRA.SOLV.lig_0>
-40.9823

>  <SCORE.INTRA.VDW>
-1.49647

>  <SCORE.INTRA.VDW.0>
-0.53506

>  <SCORE.INTRA.norm>
-0.151787

>  <SCORE.RESTR>
5.263

>  <SCORE.RESTR.CAVITY>
5.263

>  <SCORE.RESTR.norm>
0.239227

>  <SCORE.SYSTEM>
0

>  <SCORE.SYSTEM.CONST>
0

>  <SCORE.SYSTEM.DIHEDRAL>
0

>  <SCORE.SYSTEM.SOLV>
0

>  <SCORE.SYSTEM.norm>
0

>  <SCORE.heavy>
22

>  <SCORE.norm>
0.125214

>  <RMSD>
9.650

$$$$
lig.pdb
 OpenBabel11021811523D
libRbt.so/2013.1/901 2013/11/27
 22 23  0  0  0  0  0  0  0  0999 V2000
   53.7114  -10.4098   10.6723 O   0  0  0  0  0  0  0  0  0  0  0  0
   52.9763   -9.6948   10.0328 C   0  0  0  0  0  0  0  0  0  0  0  0
   51.7409  -10.0515    9.7287 N   0  0  0  0  0  0  0  0  0  0  0  0
   53.4602   -8.4020    9.5281 C   0  0  0  0  0  0  0  0  0  0  0  0
   54.7002   -7.7465    9.9500 C   0  0  0  0  0  0  0  0  0  0  0  0
   55.5650   -8.2206   10.8724 N   0  0  0  0  0  0  0  0  0  0  0  0
   52.9297   -7.5615    8.6257 N   0  0  0  0  0  0  0  0  0  0  0  0
   53.7700   -6.4999    8.4783 C   0  0  0  0  0  0  0  0  0  0  0  0
   54.8561   -6.6102    9.2802 N   0  0  0  0  0  0  0  0  0  0  0  0
   55.9728   -5.6306    9.3740 C   0  0  1  0  0  0  0  0  0  0  0  0
   56.4206   -5.2470    7.9802 C   0  0  1  0  0  0  0  0  0  0  0  0
   56.7166   -3.7738    8.0904 C   0  0  2  0  0  0  0  0  0  0  0  0
   58.0931   -3.5797    8.4393 O   0  0  0  0  0  0  0  0  0  0  0  0
   57.5719   -6.0065    7.5800 O   0  0  0  0  0  0  0  0  0  0  0  0
   55.5227   -4.4256    9.9881 O   0  0  0  0  0  0  0  0  0  0  0  0
   55.8591   -3.2885    9.2301 C   0  0  2  0  0  0  0  0  0  0  0  0
   54.5457   -2.6393    8.8454 C   0  0  0  0  0  0  0  0  0  0  0  0
   54.7287   -1.6189    7.8855 O   0  0  0  0  0  0  0  0  0  0  0  0
   53.6036   -0.4934    7.7435 P   0  0  0  0  0  0  0  0  0  0  0  0
   52.2962   -1.2546    7.6527 O   0  0  0  0  0  0  0  0  0  0  0  0
   54.0189    0.2127    6.4787 O   0  0  0  0  0  0  0  0  0  0  0  0
   53.8064    0.3569    8.9669 O   0  0  0  0  0  0  0  0  0  0  0  0
  2  1  2  0  0  0  0
  2  4  1  0  0  0  0
  3  2  1  0  0  0  0
  4  7  1  0  0  0  0
  4  5  2  0  0  0  0
  5  6  1  0  0  0  0
  5  9  1  0  0  0  0
  7  8  2  0  0  0  0
  8  9  1  0  0  0  0
 10  9  1  6  0  0  0
 10 15  1  0  0  0  0
 11 14  1  1  0  0  0
 11 12  1  0  0  0  0
 11 10  1  0  0  0  0
 12 13  1  1  0  0  0
 12 16  1  0  0  0  0
 16 17  1  6  0  0  0
 16 15  1  0  0  0  0
 18 19  1  0  0  0  0
 18 17  1  0  0  0  0
 19 21  1  0  0  0  0
 20 19  1  0  0  0  0
 22 19  2  0  0  0  0
M  END
>  <CHROM.1>
-13.01282271,133.62248160,-51.67120451,-48.91712295,-158.30818045,54.63620031
-4.73392660,8.79027905,1.61671574,-0.02232504,2.89884490

>  <Name>
lig.pdb

>  <RI>
0

>  <Rbt.Current_Directory>
/home/afrankz/demos/rdock_decoys_rna/rnas/4znp

>  <Rbt.Executable>
rbdock ($Id: //depot/dev/client3/rdock/2013.1/src/exe/rbdock.cxx#4 $)

>  <Rbt.Library>
libRbt.so (2013.1, Build901 2013/11/27)

>  <Rbt.Parameter_File>
/export/apps/rDock/src/rDock_2013.1_src/data/scripts/dock_solv.prm

>  <Rbt.Receptor>
prm/blind_docking_60.prm

>  <SCORE>
-1.15229

>  <SCORE.INTER>
-0.478274

>  <SCORE.INTER.CONST>
1

>  <SCORE.INTER.POLAR>
0

>  <SCORE.INTER.ROT>
5

>  <SCORE.INTER.SOLV>
17.5721

>  <SCORE.INTER.VDW>
-13.1096

>  <SCORE.INTER.norm>
-0.0217397

>  <SCORE.INTRA>
-4.34284

>  <SCORE.INTRA.DIHEDRAL>
-6.4439

>  <SCORE.INTRA.DIHEDRAL.0>
11.9251

>  <SCORE.INTRA.POLAR>
0

>  <SCORE.INTRA.POLAR.0>
0

>  <SCORE.INTRA.REPUL>
0

>  <SCORE.INTRA.REPUL.0>
0

>  <SCORE.INTRA.SOLV>
-0.170502

>  <SCORE.INTRA.SOLV.lig_0>
-40.9823

>  <SCORE.INTRA.VDW>
-1.03563

>  <SCORE.INTRA.VDW.0>
-0.53506

>  <SCORE.INTRA.norm>
-0.197402

>  <SCORE.RESTR>
3.66882

>  <SCORE.RESTR.CAVITY>
3.66882

>  <SCORE.RESTR.norm>
0.166764

>  <SCORE.SYSTEM>
0

>  <SCORE.SYSTEM.CONST>
0

>  <SCORE.SYSTEM.DIHEDRAL>
0

>  <SCORE.SYSTEM.SOLV>
0

>  <SCORE.SYSTEM.norm>
0

>  <SCORE.heavy>
22

>  <SCORE.norm>
-0.0523769

>  <RMSD>
9.780

$$$$
lig.pdb
 OpenBabel11021811523D
libRbt.so/2013.1/901 2013/11/27
 22 23  0  0  0  0  0  0  0  0999 V2000
   53.6969  -10.3889   10.7058 O   0  0  0  0  0  0  0  0  0  0  0  0
   52.9689   -9.6880   10.0431 C   0  0  0  0  0  0  0  0  0  0  0  0
   51.7426  -10.0584    9.7196 N   0  0  0  0  0  0  0  0  0  0  0  0
   53.4525   -8.3978    9.5316 C   0  0  0  0  0  0  0  0  0  0  0  0
   54.6744   -7.7230    9.9754 C   0  0  0  0  0  0  0  0  0  0  0  0
   55.5198   -8.1740   10.9268 N   0  0  0  0  0  0  0  0  0  0  0  0
   52.9370   -7.5763    8.6033 N   0  0  0  0  0  0  0  0  0  0  0  0
   53.7698   -6.5082    8.4616 C   0  0  0  0  0  0  0  0  0  0  0  0
   54.8360   -6.5951    9.2927 N   0  0  0  0  0  0  0  0  0  0  0  0
   55.9398   -5.6024    9.4005 C   0  0  1  0  0  0  0  0  0  0  0  0
   56.4045   -5.2180    8.0125 C   0  0  1  0  0  0  0  0  0  0  0  0
   56.6819   -3.7411    8.1223 C   0  0  2  0  0  0  0  0  0  0  0  0
   58.0505   -3.5301    8.4917 O   0  0  0  0  0  0  0  0  0  0  0  0
   57.5704   -5.9654    7.6325 O   0  0  0  0  0  0  0  0  0  0  0  0
   55.4664   -4.4008   10.0036 O   0  0  0  0  0  0  0  0  0  0  0  0
   55.8014   -3.2622    9.2472 C   0  0  2  0  0  0  0  0  0  0  0  0
   54.4867   -2.6294    8.8402 C   0  0  0  0  0  0  0  0  0  0  0  0
   54.6635   -1.3028    8.3873 O   0  0  0  0  0  0  0  0  0  0  0  0
   53.4181   -0.5479    7.7304 P   0  0  0  0  0  0  0  0  0  0  0  0
   52.1952   -1.2134    8.3292 O   0  0  0  0  0  0  0  0  0  0  0  0
   53.6289   -0.8067    6.2610 O   0  0  0  0  0  0  0  0  0  0  0  0
   53.6514    0.8915    8.0974 O   0  0  0  0  0  0  0  0  0  0  0  0
  2  1  2  0  0  0  0
  2  4  1  0  0  0  0
  3  2  1  0  0  0  0
  4  7  1  0  0  0  0
  4  5  2  0  0  0  0
  5  6  1  0  0  0  0
  5  9  1  0  0  0  0
  7  8  2  0  0  0  0
  8  9  1  0  0  0  0
 10  9  1  6  0  0  0
 10 15  1  0  0  0  0
 11 14  1  1  0  0  0
 11 12  1  0  0  0  0
 11 10  1  0  0  0  0
 12 13  1  1  0  0  0
 12 16  1  0  0  0  0
 16 17  1  6  0  0  0
 16 15  1  0  0  0  0
 18 19  1  0  0  0  0
 18 17  1  0  0  0  0
 19 21  1  0  0  0  0
 20 19  1  0  0  0  0
 22 19  2  0  0  0  0
M  END
>  <CHROM.1>
-13.42323070,134.52542416,-77.78643709,25.81525831,171.76243917,54.56679133
-4.73097322,8.80721241,1.59735391,-0.01351950,2.89680620

>  <Name>
lig.pdb

>  <RI>
0

>  <Rbt.Current_Directory>
/home/afrankz/demos/rdock_decoys_rna/rnas/4znp

>  <Rbt.Executable>
rbdock ($Id: //depot/dev/client3/rdock/2013.1/src/exe/rbdock.cxx#4 $)

>  <Rbt.Library>
libRbt.so (2013.1, Build901 2013/11/27)

>  <Rbt.Parameter_File>
/export/apps/rDock/src/rDock_2013.1_src/data/scripts/dock_solv.prm

>  <Rbt.Receptor>
prm/blind_docking_60.prm

>  <SCORE>
-0.926314

>  <SCORE.INTER>
-0.676306

>  <SCORE.INTER.CONST>
1

>  <SCORE.INTER.POLAR>
0

>  <SCORE.INTER.ROT>
5

>  <SCORE.INTER.SOLV>
17.37

>  <SCORE.INTER.VDW>
-13.1742

>  <SCORE.INTER.norm>
-0.0307412

>  <SCORE.INTRA>
-3.95608

>  <SCORE.INTRA.DIHEDRAL>
-6.14948

>  <SCORE.INTRA.DIHEDRAL.0>
11.9251

>  <SCORE.INTRA.POLAR>
0

>  <SCORE.INTRA.POLAR.0>
0

>  <SCORE.INTRA.REPUL>
0

>  <SCORE.INTRA.REPUL.0>
0

>  <SCORE.INTRA.SOLV>
-0.427907

>  <SCORE.INTRA.SOLV.lig_0>
-40.9823

>  <SCORE.INTRA.VDW>
-0.667387

>  <SCORE.INTRA.VDW.0>
-0.53506

>  <SCORE.INTRA.norm>
-0.179822

>  <SCORE.RESTR>
3.70607

>  <SCORE.RESTR.CAVITY>
3.70607

>  <SCORE.RESTR.norm>
0.168458

>  <SCORE.SYSTEM>
0

>  <SCORE.SYSTEM.CONST>
0

>  <SCORE.SYSTEM.DIHEDRAL>
0

>  <SCORE.SYSTEM.SOLV>
0

>  <SCORE.SYSTEM.norm>
0

>  <SCORE.heavy>
22

>  <SCORE.norm>
-0.0421052

>  <RMSD>
9.819

$$$$
lig.pdb
 OpenBabel11021811523D
libRbt.so/2013.1/901 2013/11/27
 22 23  0  0  0  0  0  0  0  0999 V2000
   51.8089  -10.0262    9.6520 O   0  0  0  0  0  0  0  0  0  0  0  0
   52.9113   -9.6425    9.9650 C   0  0  0  0  0  0  0  0  0  0  0  0
   53.6880  -10.3314   10.7822 N   0  0  0  0  0  0  0  0  0  0  0  0
   53.4110   -8.3520    9.4700 C   0  0  0  0  0  0  0  0  0  0  0  0
   54.6573   -7.7132    9.8991 C   0  0  0  0  0  0  0  0  0  0  0  0
   55.5144   -8.2029   10.8205 N   0  0  0  0  0  0  0  0  0  0  0  0
   52.8922   -7.4996    8.5718 N   0  0  0  0  0  0  0  0  0  0  0  0
   53.7447   -6.4466    8.4334 C   0  0  0  0  0  0  0  0  0  0  0  0
   54.8276   -6.5743    9.2371 N   0  0  0  0  0  0  0  0  0  0  0  0
   55.9550   -5.6080    9.3401 C   0  0  1  0  0  0  0  0  0  0  0  0
   56.4039   -5.2128    7.9499 C   0  0  1  0  0  0  0  0  0  0  0  0
   56.7161   -3.7442    8.0768 C   0  0  2  0  0  0  0  0  0  0  0  0
   58.0953   -3.5691    8.4250 O   0  0  0  0  0  0  0  0  0  0  0  0
   57.5461   -5.9798    7.5382 O   0  0  0  0  0  0  0  0  0  0  0  0
   55.5191   -4.4056    9.9693 O   0  0  0  0  0  0  0  0  0  0  0  0
   55.8662   -3.2633    9.2241 C   0  0  2  0  0  0  0  0  0  0  0  0
   54.5591   -2.5954    8.8500 C   0  0  0  0  0  0  0  0  0  0  0  0
   54.7455   -1.5938    7.8712 O   0  0  0  0  0  0  0  0  0  0  0  0
   53.5375   -0.5954    7.5606 P   0  0  0  0  0  0  0  0  0  0  0  0
   53.5721   -0.3926    6.0591 O   0  0  0  0  0  0  0  0  0  0  0  0
   53.9093    0.6161    8.3758 O   0  0  0  0  0  0  0  0  0  0  0  0
   52.3403   -1.3147    8.1175 O   0  0  0  0  0  0  0  0  0  0  0  0
  2  1  2  0  0  0  0
  2  4  1  0  0  0  0
  3  2  1  0  0  0  0
  4  7  1  0  0  0  0
  4  5  2  0  0  0  0
  5  6  1  0  0  0  0
  5  9  1  0  0  0  0
  7  8  2  0  0  0  0
  8  9  1  0  0  0  0
 10  9  1  6  0  0  0
 10 15  1  0  0  0  0
 11 14  1  1  0  0  0
 11 12  1  0  0  0  0
 11 10  1  0  0  0  0
 12 13  1  1  0  0  0
 12 16  1  0  0  0  0
 16 17  1  6  0  0  0
 16 15  1  0  0  0  0
 18 19  1  0  0  0  0
 18 17  1  0  0  0  0
 19 21  1  0  0  0  0
 20 19  1  0  0  0  0
 22 19  2  0  0  0  0
M  END
>  <CHROM.1>
172.62229404,134.02517693,-49.84308647,-141.12174572,-168.32744909,54.59318847
-4.73427366,8.71995773,1.62048668,0.00736212,2.88277029

>  <Name>
lig.pdb

>  <RI>
0

>  <Rbt.Current_Directory>
/home/afrankz/demos/rdock_decoys_rna/rnas/4znp

>  <Rbt.Executable>
rbdock ($Id: //depot/dev/client3/rdock/2013.1/src/exe/rbdock.cxx#4 $)

>  <Rbt.Library>
libRbt.so (2013.1, Build901 2013/11/27)

>  <Rbt.Parameter_File>
/export/apps/rDock/src/rDock_2013.1_src/data/scripts/dock_solv.prm

>  <Rbt.Receptor>
prm/blind_docking_60.prm

>  <SCORE>
-1.02381

>  <SCORE.INTER>
-1.47678

>  <SCORE.INTER.CONST>
1

>  <SCORE.INTER.POLAR>
0

>  <SCORE.INTER.ROT>
5

>  <SCORE.INTER.SOLV>
18.9409

>  <SCORE.INTER.VDW>
-14.2315

>  <SCORE.INTER.norm>
-0.0671264

>  <SCORE.INTRA>
-3.21419

>  <SCORE.INTRA.DIHEDRAL>
-6.55749

>  <SCORE.INTRA.DIHEDRAL.0>
11.9251

>  <SCORE.INTRA.POLAR>
0

>  <SCORE.INTRA.POLAR.0>
0

>  <SCORE.INTRA.REPUL>
0

>  <SCORE.INTRA.REPUL.0>
0

>  <SCORE.INTRA.SOLV>
0.189611

>  <SCORE.INTRA.SOLV.lig_0>
-40.9823

>  <SCORE.INTRA.VDW>
-0.0302476

>  <SCORE.INTRA.VDW.0>
-0.53506

>  <SCORE.INTRA.norm>
-0.146099

>  <SCORE.RESTR>
3.66715

>  <SCORE.RESTR.CAVITY>
3.66715

>  <SCORE.RESTR.norm>
0.166689

>  <SCORE.SYSTEM>
0

>  <SCORE.SYSTEM.CONST>
0

>  <SCORE.SYSTEM.DIHEDRAL>
0

>  <SCORE.SYSTEM.SOLV>
0

>  <SCORE.SYSTEM.norm>
0

>  <SCORE.heavy>
22

>  <SCORE.norm>
-0.046537

>  <RMSD>
9.830

$$$$
lig.pdb
 OpenBabel11021811523D
libRbt.so/2013.1/901 2013/11/27
 22 23  0  0  0  0  0  0  0  0999 V2000
   51.8146  -10.0308    9.6533 O   0  0  0  0  0  0  0  0  0  0  0  0
   52.9129   -9.6420    9.9744 C   0  0  0  0  0  0  0  0  0  0  0  0
   53.6843  -10.3245   10.8020 N   0  0  0  0  0  0  0  0  0  0  0  0
   53.4131   -8.3524    9.4776 C   0  0  0  0  0  0  0  0  0  0  0  0
   54.6484   -7.7029    9.9221 C   0  0  0  0  0  0  0  0  0  0  0  0
   55.4931   -8.1803   10.8612 N   0  0  0  0  0  0  0  0  0  0  0  0
   52.9041   -7.5100    8.5645 N   0  0  0  0  0  0  0  0  0  0  0  0
   53.7525   -6.4530    8.4319 C   0  0  0  0  0  0  0  0  0  0  0  0
   54.8228   -6.5681    9.2542 N   0  0  0  0  0  0  0  0  0  0  0  0
   55.9427   -5.5943    9.3681 C   0  0  1  0  0  0  0  0  0  0  0  0
   56.4109   -5.2058    7.9825 C   0  0  1  0  0  0  0  0  0  0  0  0
   56.7123   -3.7345    8.1041 C   0  0  2  0  0  0  0  0  0  0  0  0
   58.0848   -3.5486    8.4726 O   0  0  0  0  0  0  0  0  0  0  0  0
   57.5640   -5.9686    7.5939 O   0  0  0  0  0  0  0  0  0  0  0  0
   55.4898   -4.3903    9.9822 O   0  0  0  0  0  0  0  0  0  0  0  0
   55.8417   -3.2510    9.2346 C   0  0  2  0  0  0  0  0  0  0  0  0
   54.5366   -2.5936    8.8356 C   0  0  0  0  0  0  0  0  0  0  0  0
   54.7357   -1.5785    7.8733 O   0  0  0  0  0  0  0  0  0  0  0  0
   53.6437   -0.4189    7.7495 P   0  0  0  0  0  0  0  0  0  0  0  0
   53.7735    0.3809    9.0303 O   0  0  0  0  0  0  0  0  0  0  0  0
   52.3632   -1.2018    7.6144 O   0  0  0  0  0  0  0  0  0  0  0  0
   54.0237    0.2815    6.4745 O   0  0  0  0  0  0  0  0  0  0  0  0
  2  1  2  0  0  0  0
  2  4  1  0  0  0  0
  3  2  1  0  0  0  0
  4  7  1  0  0  0  0
  4  5  2  0  0  0  0
  5  6  1  0  0  0  0
  5  9  1  0  0  0  0
  7  8  2  0  0  0  0
  8  9  1  0  0  0  0
 10  9  1  6  0  0  0
 10 15  1  0  0  0  0
 11 14  1  1  0  0  0
 11 12  1  0  0  0  0
 11 10  1  0  0  0  0
 12 13  1  1  0  0  0
 12 16  1  0  0  0  0
 16 17  1  6  0  0  0
 16 15  1  0  0  0  0
 18 19  1  0  0  0  0
 18 17  1  0  0  0  0
 19 21  1  0  0  0  0
 20 19  1  0  0  0  0
 22 19  2  0  0  0  0
M  END
>  <CHROM.1>
172.14766531,134.09154037,-51.06824537,68.70495702,-156.34018033,54.61539656
-4.68520921,8.77857736,1.62746578,-0.01302499,2.90354134

>  <Name>
lig.pdb

>  <RI>
0

>  <Rbt.Current_Directory>
/home/afrankz/demos/rdock_decoys_rna/rnas/4znp

>  <Rbt.Executable>
rbdock ($Id: //depot/dev/client3/rdock/2013.1/src/exe/rbdock.cxx#4 $)

>  <Rbt.Library>
libRbt.so (2013.1, Build901 2013/11/27)

>  <Rbt.Parameter_File>
/export/apps/rDock/src/rDock_2013.1_src/data/scripts/dock_solv.prm

>  <Rbt.Receptor>
prm/blind_docking_60.prm

>  <SCORE>
-1.26019

>  <SCORE.INTER>
-0.668445

>  <SCORE.INTER.CONST>
1

>  <SCORE.INTER.POLAR>
0

>  <SCORE.INTER.ROT>
5

>  <SCORE.INTER.SOLV>
18.5514

>  <SCORE.INTER.VDW>
-13.5628

>  <SCORE.INTER.norm>
-0.0303839

>  <SCORE.INTRA>
-4.19003

>  <SCORE.INTRA.DIHEDRAL>
-6.47346

>  <SCORE.INTRA.DIHEDRAL.0>
11.9251

>  <SCORE.INTRA.POLAR>
0

>  <SCORE.INTRA.POLAR.0>
0

>  <SCORE.INTRA.REPUL>
0

>  <SCORE.INTRA.REPUL.0>
0

>  <SCORE.INTRA.SOLV>
-0.158374

>  <SCORE.INTRA.SOLV.lig_0>
-40.9823

>  <SCORE.INTRA.VDW>
-0.874116

>  <SCORE.INTRA.VDW.0>
-0.53506

>  <SCORE.INTRA.norm>
-0.190456

>  <SCORE.RESTR>
3.59829

>  <SCORE.RESTR.CAVITY>
3.59829

>  <SCORE.RESTR.norm>
0.163559

>  <SCORE.SYSTEM>
0

>  <SCORE.SYSTEM.CONST>
0

>  <SCORE.SYSTEM.DIHEDRAL>
0

>  <SCORE.SYSTEM.SOLV>
0

>  <SCORE.SYSTEM.norm>
0

>  <SCORE.heavy>
22

>  <SCORE.norm>
-0.0572814

>  <RMSD>
9.836

$$$$
lig.pdb
 OpenBabel11021811523D
libRbt.so/2013.1/901 2013/11/27
 22 23  0  0  0  0  0  0  0  0999 V2000
   51.8238  -10.0168    9.6558 O   0  0  0  0  0  0  0  0  0  0  0  0
   52.9245   -9.6315    9.9725 C   0  0  0  0  0  0  0  0  0  0  0  0
   53.6950  -10.3139   10.8011 N   0  0  0  0  0  0  0  0  0  0  0  0
   53.4290   -8.3460    9.4693 C   0  0  0  0  0  0  0  0  0  0  0  0
   54.6619   -7.6941    9.9169 C   0  0  0  0  0  0  0  0  0  0  0  0
   55.5001   -8.1651   10.8650 N   0  0  0  0  0  0  0  0  0  0  0  0
   52.9266   -7.5103    8.5465 N   0  0  0  0  0  0  0  0  0  0  0  0
   53.7768   -6.4550    8.4114 C   0  0  0  0  0  0  0  0  0  0  0  0
   54.8416   -6.5646    9.2415 N   0  0  0  0  0  0  0  0  0  0  0  0
   55.9615   -5.5908    9.3552 C   0  0  1  0  0  0  0  0  0  0  0  0
   56.4279   -5.2004    7.9695 C   0  0  1  0  0  0  0  0  0  0  0  0
   56.7293   -3.7292    8.0928 C   0  0  2  0  0  0  0  0  0  0  0  0
   58.1023   -3.5437    8.4597 O   0  0  0  0  0  0  0  0  0  0  0  0
   57.5806   -5.9626    7.5784 O   0  0  0  0  0  0  0  0  0  0  0  0
   55.5094   -4.3878    9.9716 O   0  0  0  0  0  0  0  0  0  0  0  0
   55.8602   -3.2474    9.2252 C   0  0  2  0  0  0  0  0  0  0  0  0
   54.5545   -2.5896    8.8288 C   0  0  0  0  0  0  0  0  0  0  0  0
   54.7531   -1.5683    7.8730 O   0  0  0  0  0  0  0  0  0  0  0  0
   53.6268   -0.4472    7.7082 P   0  0  0  0  0  0  0  0  0  0  0  0
   52.3222   -1.2125    7.6122 O   0  0  0  0  0  0  0  0  0  0  0  0
   54.0529    0.2470    6.4404 O   0  0  0  0  0  0  0  0  0  0  0  0
   53.8153    0.4161    8.9247 O   0  0  0  0  0  0  0  0  0  0  0  0
  2  1  2  0  0  0  0
  2  4  1  0  0  0  0
  3  2  1  0  0  0  0
  4  7  1  0  0  0  0
  4  5  2  0  0  0  0
  5  6  1  0  0  0  0
  5  9  1  0  0  0  0
  7  8  2  0  0  0  0
  8  9  1  0  0  0  0
 10  9  1  6  0  0  0
 10 15  1  0  0  0  0
 11 14  1  1  0  0  0
 11 12  1  0  0  0  0
 11 10  1  0  0  0  0
 12 13  1  1  0  0  0
 12 16  1  0  0  0  0
 16 17  1  6  0  0  0
 16 15  1  0  0  0  0
 18 19  1  0  0  0  0
 18 17  1  0  0  0  0
 19 21  1  0  0  0  0
 20 19  1  0  0  0  0
 22 19  2  0  0  0  0
M  END
>  <CHROM.1>
171.56316374,134.77653539,-51.38226776,-48.06945008,-159.13240850,54.62767812
-4.68357373,8.76136761,1.62704168,-0.00909519,2.89932929

>  <Name>
lig.pdb

>  <RI>
0

>  <Rbt.Current_Directory>
/home/afrankz/demos/rdock_decoys_rna/rnas/4znp

>  <Rbt.Executable>
rbdock ($Id: //depot/dev/client3/rdock/2013.1/src/exe/rbdock.cxx#4 $)

>  <Rbt.Library>
libRbt.so (2013.1, Build901 2013/11/27)

>  <Rbt.Parameter_File>
/export/apps/rDock/src/rDock_2013.1_src/data/scripts/dock_solv.prm

>  <Rbt.Receptor>
prm/blind_docking_60.prm

>  <SCORE>
-1.93891

>  <SCORE.INTER>
-1.11744

>  <SCORE.INTER.CONST>
1

>  <SCORE.INTER.POLAR>
0

>  <SCORE.INTER.ROT>
5

>  <SCORE.INTER.SOLV>
17.3946

>  <SCORE.INTER.VDW>
-13.4765

>  <SCORE.INTER.norm>
-0.0507926

>  <SCORE.INTRA>
-4.34451

>  <SCORE.INTRA.DIHEDRAL>
-6.83507

>  <SCORE.INTRA.DIHEDRAL.0>
11.9251

>  <SCORE.INTRA.POLAR>
0

>  <SCORE.INTRA.POLAR.0>
0

>  <SCORE.INTRA.REPUL>
0

>  <SCORE.INTRA.REPUL.0>
0

>  <SCORE.INTRA.SOLV>
0.0741808

>  <SCORE.INTRA.SOLV.lig_0>
-40.9823

>  <SCORE.INTRA.VDW>
-0.96406

>  <SCORE.INTRA.VDW.0>
-0.53506

>  <SCORE.INTRA.norm>
-0.197478

>  <SCORE.RESTR>
3.52303

>  <SCORE.RESTR.CAVITY>
3.52303

>  <SCORE.RESTR.norm>
0.160138

>  <SCORE.SYSTEM>
0

>  <SCORE.SYSTEM.CONST>
0

>  <SCORE.SYSTEM.DIHEDRAL>
0

>  <SCORE.SYSTEM.SOLV>
0

>  <SCORE.SYSTEM.norm>
0

>  <SCORE.heavy>
22

>  <SCORE.norm>
-0.0881324

>  <RMSD>
9.842

$$$$
lig.pdb
 OpenBabel11021811523D
libRbt.so/2013.1/901 2013/11/27
 22 23  0  0  0  0  0  0  0  0999 V2000
   51.8242  -10.0488    9.6404 O   0  0  0  0  0  0  0  0  0  0  0  0
   52.9176   -9.6540    9.9706 C   0  0  0  0  0  0  0  0  0  0  0  0
   53.6841  -10.3303   10.8077 N   0  0  0  0  0  0  0  0  0  0  0  0
   53.4168   -8.3638    9.4743 C   0  0  0  0  0  0  0  0  0  0  0  0
   54.6396   -7.7025    9.9354 C   0  0  0  0  0  0  0  0  0  0  0  0
   55.4719   -8.1681   10.8915 N   0  0  0  0  0  0  0  0  0  0  0  0
   52.9171   -7.5308    8.5475 N   0  0  0  0  0  0  0  0  0  0  0  0
   53.7600   -6.4684    8.4226 C   0  0  0  0  0  0  0  0  0  0  0  0
   54.8171   -6.5706    9.2635 N   0  0  0  0  0  0  0  0  0  0  0  0
   55.9278   -5.5879    9.3900 C   0  0  1  0  0  0  0  0  0  0  0  0
   56.4090   -5.1959    8.0099 C   0  0  1  0  0  0  0  0  0  0  0  0
   56.6973   -3.7222    8.1346 C   0  0  2  0  0  0  0  0  0  0  0  0
   58.0639   -3.5255    8.5189 O   0  0  0  0  0  0  0  0  0  0  0  0
   57.5725   -5.9497    7.6348 O   0  0  0  0  0  0  0  0  0  0  0  0
   55.4584   -4.3875    9.9986 O   0  0  0  0  0  0  0  0  0  0  0  0
   55.8098   -3.2455    9.2549 C   0  0  2  0  0  0  0  0  0  0  0  0
   54.5043   -2.5986    8.8406 C   0  0  0  0  0  0  0  0  0  0  0  0
   54.7002   -1.2805    8.3712 O   0  0  0  0  0  0  0  0  0  0  0  0
   53.4615   -0.5099    7.7199 P   0  0  0  0  0  0  0  0  0  0  0  0
   53.6269    0.9338    8.1504 O   0  0  0  0  0  0  0  0  0  0  0  0
   52.2850   -1.2262    8.3312 O   0  0  0  0  0  0  0  0  0  0  0  0
   53.6067   -0.7975    6.2512 O   0  0  0  0  0  0  0  0  0  0  0  0
  2  1  2  0  0  0  0
  2  4  1  0  0  0  0
  3  2  1  0  0  0  0
  4  7  1  0  0  0  0
  4  5  2  0  0  0  0
  5  6  1  0  0  0  0
  5  9  1  0  0  0  0
  7  8  2  0  0  0  0
  8  9  1  0  0  0  0
 10  9  1  6  0  0  0
 10 15  1  0  0  0  0
 11 14  1  1  0  0  0
 11 12  1  0  0  0  0
 11 10  1  0  0  0  0
 12 13  1  1  0  0  0
 12 16  1  0  0  0  0
 16 17  1  6  0  0  0
 16 15  1  0  0  0  0
 18 19  1  0  0  0  0
 18 17  1  0  0  0  0
 19 21  1  0  0  0  0
 20 19  1  0  0  0  0
 22 19  2  0  0  0  0
M  END
>  <CHROM.1>
171.67011531,134.54823839,-76.41605175,143.91512442,172.41457530,54.55960456
-4.70571358,8.79082936,1.60779598,-0.00183039,2.90292992

>  <Name>
lig.pdb

>  <RI>
0

>  <Rbt.Current_Directory>
/home/afrankz/demos/rdock_decoys_rna/rnas/4znp

>  <Rbt.Executable>
rbdock ($Id: //depot/dev/client3/rdock/2013.1/src/exe/rbdock.cxx#4 $)

>  <Rbt.Library>
libRbt.so (2013.1, Build901 2013/11/27)

>  <Rbt.Parameter_File>
/export/apps/rDock/src/rDock_2013.1_src/data/scripts/dock_solv.prm

>  <Rbt.Receptor>
prm/blind_docking_60.prm

>  <SCORE>
-0.190632

>  <SCORE.INTER>
-0.406814

>  <SCORE.INTER.CONST>
1

>  <SCORE.INTER.POLAR>
0

>  <SCORE.INTER.ROT>
5

>  <SCORE.INTER.SOLV>
19.1294

>  <SCORE.INTER.VDW>
-13.581

>  <SCORE.INTER.norm>
-0.0184916

>  <SCORE.INTRA>
-3.41543

>  <SCORE.INTRA.DIHEDRAL>
-6.57208

>  <SCORE.INTRA.DIHEDRAL.0>
11.9251

>  <SCORE.INTRA.POLAR>
0

>  <SCORE.INTRA.POLAR.0>
0

>  <SCORE.INTRA.REPUL>
0

>  <SCORE.INTRA.REPUL.0>
0

>  <SCORE.INTRA.SOLV>
-0.0743155

>  <SCORE.INTRA.SOLV.lig_0>
-40.9823

>  <SCORE.INTRA.VDW>
-0.092235

>  <SCORE.INTRA.VDW.0>
-0.53506

>  <SCORE.INTRA.norm>
-0.155247

>  <SCORE.RESTR>
3.63162

>  <SCORE.RESTR.CAVITY>
3.63162

>  <SCORE.RESTR.norm>
0.165073

>  <SCORE.SYSTEM>
0

>  <SCORE.SYSTEM.CONST>
0

>  <SCORE.SYSTEM.DIHEDRAL>
0

>  <SCORE.SYSTEM.SOLV>
0

>  <SCORE.SYSTEM.norm>
0

>  <SCORE.heavy>
22

>  <SCORE.norm>
-0.00866508

>  <RMSD>
9.844

$$$$
lig.pdb
 OpenBabel11021811523D
libRbt.so/2013.1/901 2013/11/27
 22 23  0  0  0  0  0  0  0  0999 V2000
   59.3002   -1.4510   10.5333 O   0  0  0  0  0  0  0  0  0  0  0  0
   59.5190   -2.4367   11.1974 C   0  0  0  0  0  0  0  0  0  0  0  0
   59.3675   -2.4459   12.5099 N   0  0  0  0  0  0  0  0  0  0  0  0
   60.0114   -3.6639   10.5558 C   0  0  0  0  0  0  0  0  0  0  0  0
   60.2645   -3.8185    9.1214 C   0  0  0  0  0  0  0  0  0  0  0  0
   60.0653   -2.8694    8.1817 N   0  0  0  0  0  0  0  0  0  0  0  0
   60.3274   -4.8587   11.0802 N   0  0  0  0  0  0  0  0  0  0  0  0
   60.7617   -5.6697   10.0761 C   0  0  0  0  0  0  0  0  0  0  0  0
   60.7312   -5.0380    8.8781 N   0  0  0  0  0  0  0  0  0  0  0  0
   61.1353   -5.6268    7.5722 C   0  0  1  0  0  0  0  0  0  0  0  0
   62.6225   -5.9066    7.5882 C   0  0  1  0  0  0  0  0  0  0  0  0
   62.7502   -7.2146    6.8512 C   0  0  2  0  0  0  0  0  0  0  0  0
   62.9491   -6.9673    5.4536 O   0  0  0  0  0  0  0  0  0  0  0  0
   63.3543   -4.8478    6.9512 O   0  0  0  0  0  0  0  0  0  0  0  0
   60.4998   -6.8883    7.3813 O   0  0  0  0  0  0  0  0  0  0  0  0
   61.4189   -7.8959    7.0338 C   0  0  2  0  0  0  0  0  0  0  0  0
   61.3454   -8.9279    8.1402 C   0  0  0  0  0  0  0  0  0  0  0  0
   62.1017  -10.0804    7.8306 O   0  0  0  0  0  0  0  0  0  0  0  0
   62.1337  -11.2791    8.8864 P   0  0  0  0  0  0  0  0  0  0  0  0
   62.9495  -12.3682    8.2191 O   0  0  0  0  0  0  0  0  0  0  0  0
   60.6695  -11.5927    9.0551 O   0  0  0  0  0  0  0  0  0  0  0  0
   62.7286  -10.6456   10.1134 O   0  0  0  0  0  0  0  0  0  0  0  0
  2  1  2  0  0  0  0
  2  4  1  0  0  0  0
  3  2  1  0  0  0  0
  4  7  1  0  0  0  0
  4  5  2  0  0  0  0
  5  6  1  0  0  0  0
  5  9  1  0  0  0  0
  7  8  2  0  0  0  0
  8  9  1  0  0  0  0
 10  9  1  1  0  0  0
 10 15  1  0  0  0  0
 11 14  1  6  0  0  0
 11 12  1  0  0  0  0
 11 10  1  0  0  0  0
 12 13  1  6  0  0  0
 12 16  1  0  0  0  0
 16 17  1  1  0  0  0
 16 15  1  0  0  0  0
 18 19  1  0  0  0  0
 18 17  1  0  0  0  0
 19 21  1  0  0  0  0
 20 19  1  0  0  0  0
 22 19  2  0  0  0  0
M  END
>  <CHROM.1>
-0.52959466,114.58599121,-69.42757943,176.73011936,-179.76846717,61.31859194
-6.86023607,8.74605865,2.20043556,1.10308362,-0.34521664

>  <Name>
lig.pdb

>  <RI>
0

>  <Rbt.Current_Directory>
/home/itssahil/PROJECTS/Mol_Feturizer/New_Systems/rnas/4znp

>  <Rbt.Executable>
rbdock ($Id: //depot/dev/client3/rdock/2013.1/src/exe/rbdock.cxx#4 $)

>  <Rbt.Library>
libRbt.so (2013.1, Build901 2013/11/27)

>  <Rbt.Parameter_File>
/export/apps/rDock/src/rDock_2013.1_src/data/scripts/dock_solv.prm

>  <Rbt.Receptor>
prm/pocket_docking_7.prm

>  <SCORE>
-11.7272

>  <SCORE.INTER>
-5.85388

>  <SCORE.INTER.CONST>
1

>  <SCORE.INTER.POLAR>
0

>  <SCORE.INTER.ROT>
5

>  <SCORE.INTER.SOLV>
12.9675

>  <SCORE.INTER.VDW>
-15.1584

>  <SCORE.INTER.norm>
-0.266085

>  <SCORE.INTRA>
-5.87331

>  <SCORE.INTRA.DIHEDRAL>
-9.18769

>  <SCORE.INTRA.DIHEDRAL.0>
11.9251

>  <SCORE.INTRA.POLAR>
0

>  <SCORE.INTRA.POLAR.0>
0

>  <SCORE.INTRA.REPUL>
0

>  <SCORE.INTRA.REPUL.0>
0

>  <SCORE.INTRA.SOLV>
-0.130189

>  <SCORE.INTRA.SOLV.lig_0>
-40.9823

>  <SCORE.INTRA.VDW>
-1.21437

>  <SCORE.INTRA.VDW.0>
-0.53506

>  <SCORE.INTRA.norm>
-0.266969

>  <SCORE.RESTR>
0

>  <SCORE.RESTR.CAVITY>
0

>  <SCORE.RESTR.norm>
0

>  <SCORE.SYSTEM>
0

>  <SCORE.SYSTEM.CONST>
0

>  <SCORE.SYSTEM.DIHEDRAL>
0

>  <SCORE.SYSTEM.SOLV>
0

>  <SCORE.SYSTEM.norm>
0

>  <SCORE.heavy>
22

>  <SCORE.norm>
-0.533054

>  <RMSD>
9.860

$$$$
lig.pdb
 OpenBabel11021811523D
libRbt.so/2013.1/901 2013/11/27
 22 23  0  0  0  0  0  0  0  0999 V2000
   68.9254  -17.1322    5.0061 O   0  0  0  0  0  0  0  0  0  0  0  0
   67.9744  -17.5371    4.3800 C   0  0  0  0  0  0  0  0  0  0  0  0
   67.8028  -18.8205    4.1169 N   0  0  0  0  0  0  0  0  0  0  0  0
   66.9857  -16.5899    3.8457 C   0  0  0  0  0  0  0  0  0  0  0  0
   65.8547  -16.9508    2.9879 C   0  0  0  0  0  0  0  0  0  0  0  0
   65.5673  -18.1950    2.5488 N   0  0  0  0  0  0  0  0  0  0  0  0
   66.8786  -15.2600    3.9958 N   0  0  0  0  0  0  0  0  0  0  0  0
   65.7736  -14.8371    3.3214 C   0  0  0  0  0  0  0  0  0  0  0  0
   65.1406  -15.8662    2.7087 N   0  0  0  0  0  0  0  0  0  0  0  0
   63.9038  -15.7630    1.8871 C   0  0  1  0  0  0  0  0  0  0  0  0
   62.8353  -15.0415    2.6794 C   0  0  1  0  0  0  0  0  0  0  0  0
   62.1465  -14.1800    1.6529 C   0  0  2  0  0  0  0  0  0  0  0  0
   61.0458  -14.8955    1.0780 O   0  0  0  0  0  0  0  0  0  0  0  0
   61.9364  -15.9726    3.3020 O   0  0  0  0  0  0  0  0  0  0  0  0
   64.1437  -14.9637    0.7315 O   0  0  0  0  0  0  0  0  0  0  0  0
   63.1807  -13.9483    0.5821 C   0  0  2  0  0  0  0  0  0  0  0  0
   63.9385  -12.6390    0.6607 C   0  0  0  0  0  0  0  0  0  0  0  0
   64.7029  -12.5481    1.8454 O   0  0  0  0  0  0  0  0  0  0  0  0
   65.3705  -11.1452    2.2177 P   0  0  0  0  0  0  0  0  0  0  0  0
   66.2960  -11.4467    3.3793 O   0  0  0  0  0  0  0  0  0  0  0  0
   64.1690  -10.3034    2.5623 O   0  0  0  0  0  0  0  0  0  0  0  0
   66.0194  -10.7168    0.9307 O   0  0  0  0  0  0  0  0  0  0  0  0
  2  1  2  0  0  0  0
  2  4  1  0  0  0  0
  3  2  1  0  0  0  0
  4  7  1  0  0  0  0
  4  5  2  0  0  0  0
  5  6  1  0  0  0  0
  5  9  1  0  0  0  0
  7  8  2  0  0  0  0
  8  9  1  0  0  0  0
 10  9  1  1  0  0  0
 10 15  1  0  0  0  0
 11 14  1  6  0  0  0
 11 12  1  0  0  0  0
 11 10  1  0  0  0  0
 12 13  1  6  0  0  0
 12 16  1  0  0  0  0
 16 17  1  1  0  0  0
 16 15  1  0  0  0  0
 18 19  1  0  0  0  0
 18 17  1  0  0  0  0
 19 21  1  0  0  0  0
 20 19  1  0  0  0  0
 22 19  2  0  0  0  0
M  END
>  <CHROM.1>
175.00226006,127.78840702,63.13127386,-170.39033385,-169.85759440,65.01368079
-14.47350315,2.52328079,-1.06483607,-0.40067924,-0.17694117

>  <Name>
lig.pdb

>  <RI>
0

>  <Rbt.Current_Directory>
/home/itssahil/PROJECTS/Mol_Feturizer/New_Systems/rnas/4znp

>  <Rbt.Executable>
rbdock ($Id: //depot/dev/client3/rdock/2013.1/src/exe/rbdock.cxx#4 $)

>  <Rbt.Library>
libRbt.so (2013.1, Build901 2013/11/27)

>  <Rbt.Parameter_File>
/export/apps/rDock/src/rDock_2013.1_src/data/scripts/dock_solv.prm

>  <Rbt.Receptor>
prm/blind_docking_100.prm

>  <SCORE>
-18.7859

>  <SCORE.INTER>
-13.019

>  <SCORE.INTER.CONST>
1

>  <SCORE.INTER.POLAR>
0

>  <SCORE.INTER.ROT>
5

>  <SCORE.INTER.SOLV>
22.4818

>  <SCORE.INTER.VDW>
-23.1066

>  <SCORE.INTER.norm>
-0.591772

>  <SCORE.INTRA>
-5.76691

>  <SCORE.INTRA.DIHEDRAL>
-8.73624

>  <SCORE.INTRA.DIHEDRAL.0>
11.9251

>  <SCORE.INTRA.POLAR>
0

>  <SCORE.INTRA.POLAR.0>
0

>  <SCORE.INTRA.REPUL>
0

>  <SCORE.INTRA.REPUL.0>
0

>  <SCORE.INTRA.SOLV>
0.779568

>  <SCORE.INTRA.SOLV.lig_0>
-40.9823

>  <SCORE.INTRA.VDW>
-1.78857

>  <SCORE.INTRA.VDW.0>
-0.53506

>  <SCORE.INTRA.norm>
-0.262132

>  <SCORE.RESTR>
0

>  <SCORE.RESTR.CAVITY>
0

>  <SCORE.RESTR.norm>
0

>  <SCORE.SYSTEM>
0

>  <SCORE.SYSTEM.CONST>
0

>  <SCORE.SYSTEM.DIHEDRAL>
0

>  <SCORE.SYSTEM.SOLV>
0

>  <SCORE.SYSTEM.norm>
0

>  <SCORE.heavy>
22

>  <SCORE.norm>
-0.853904

>  <RMSD>
10.262

$$$$
lig.pdb
 OpenBabel11021811523D
libRbt.so/2013.1/901 2013/11/27
 22 23  0  0  0  0  0  0  0  0999 V2000
   50.5416  -21.5279    3.7379 O   0  0  0  0  0  0  0  0  0  0  0  0
   50.1626  -20.5823    4.3881 C   0  0  0  0  0  0  0  0  0  0  0  0
   49.4855  -19.5851    3.8470 N   0  0  0  0  0  0  0  0  0  0  0  0
   50.4888  -20.4927    5.8184 C   0  0  0  0  0  0  0  0  0  0  0  0
   51.3220  -21.4486    6.5515 C   0  0  0  0  0  0  0  0  0  0  0  0
   51.8926  -22.5555    6.0295 N   0  0  0  0  0  0  0  0  0  0  0  0
   50.1329  -19.5850    6.7414 N   0  0  0  0  0  0  0  0  0  0  0  0
   50.7102  -19.9255    7.9269 C   0  0  0  0  0  0  0  0  0  0  0  0
   51.4427  -21.0596    7.8158 N   0  0  0  0  0  0  0  0  0  0  0  0
   52.2056  -21.7149    8.9131 C   0  0  1  0  0  0  0  0  0  0  0  0
   53.0521  -22.8296    8.3377 C   0  0  1  0  0  0  0  0  0  0  0  0
   54.3370  -22.7460    9.1203 C   0  0  2  0  0  0  0  0  0  0  0  0
   54.2565  -23.5878   10.2775 O   0  0  0  0  0  0  0  0  0  0  0  0
   52.4031  -24.1019    8.4885 O   0  0  0  0  0  0  0  0  0  0  0  0
   53.1183  -20.7910    9.5005 O   0  0  0  0  0  0  0  0  0  0  0  0
   54.4235  -21.3121    9.5745 C   0  0  2  0  0  0  0  0  0  0  0  0
   55.2870  -20.3975    8.7304 C   0  0  0  0  0  0  0  0  0  0  0  0
   55.0413  -19.0360    9.0167 O   0  0  0  0  0  0  0  0  0  0  0  0
   55.9971  -17.9341    8.3650 P   0  0  0  0  0  0  0  0  0  0  0  0
   57.2813  -18.0047    9.1667 O   0  0  0  0  0  0  0  0  0  0  0  0
   55.1981  -16.6702    8.5519 O   0  0  0  0  0  0  0  0  0  0  0  0
   56.0774  -18.3527    6.9231 O   0  0  0  0  0  0  0  0  0  0  0  0
  2  1  2  0  0  0  0
  2  4  1  0  0  0  0
  3  2  1  0  0  0  0
  4  7  1  0  0  0  0
  4  5  2  0  0  0  0
  5  6  1  0  0  0  0
  5  9  1  0  0  0  0
  7  8  2  0  0  0  0
  8  9  1  0  0  0  0
 10  9  1  6  0  0  0
 10 15  1  0  0  0  0
 11 14  1  1  0  0  0
 11 12  1  0  0  0  0
 11 10  1  0  0  0  0
 12 13  1  1  0  0  0
 12 16  1  0  0  0  0
 16 17  1  6  0  0  0
 16 15  1  0  0  0  0
 18 19  1  0  0  0  0
 18 17  1  0  0  0  0
 19 21  1  0  0  0  0
 20 19  1  0  0  0  0
 22 19  2  0  0  0  0
M  END
>  <CHROM.1>
3.30808370,9.12067198,164.89906704,-75.74682771,171.91877596,53.20884486
-20.46975564,7.71409519,3.05257494,0.64697603,2.61963362

>  <Name>
lig.pdb

>  <RI>
0

>  <Rbt.Current_Directory>
/home/afrankz/demos/rdock_decoys_rna/rnas/4znp

>  <Rbt.Executable>
rbdock ($Id: //depot/dev/client3/rdock/2013.1/src/exe/rbdock.cxx#4 $)

>  <Rbt.Library>
libRbt.so (2013.1, Build901 2013/11/27)

>  <Rbt.Parameter_File>
/export/apps/rDock/src/rDock_2013.1_src/data/scripts/dock_solv.prm

>  <Rbt.Receptor>
prm/blind_docking_60.prm

>  <SCORE>
43.0763

>  <SCORE.INTER>
39.8178

>  <SCORE.INTER.CONST>
1

>  <SCORE.INTER.POLAR>
0

>  <SCORE.INTER.ROT>
5

>  <SCORE.INTER.SOLV>
22.9847

>  <SCORE.INTER.VDW>
11.9503

>  <SCORE.INTER.norm>
1.8099

>  <SCORE.INTRA>
-3.11668

>  <SCORE.INTRA.DIHEDRAL>
-7.97269

>  <SCORE.INTRA.DIHEDRAL.0>
11.9251

>  <SCORE.INTRA.POLAR>
0

>  <SCORE.INTRA.POLAR.0>
0

>  <SCORE.INTRA.REPUL>
0

>  <SCORE.INTRA.REPUL.0>
0

>  <SCORE.INTRA.SOLV>
0.923621

>  <SCORE.INTRA.SOLV.lig_0>
-40.9823

>  <SCORE.INTRA.VDW>
0.407851

>  <SCORE.INTRA.VDW.0>
-0.53506

>  <SCORE.INTRA.norm>
-0.141667

>  <SCORE.RESTR>
6.37514

>  <SCORE.RESTR.CAVITY>
6.37514

>  <SCORE.RESTR.norm>
0.289779

>  <SCORE.SYSTEM>
0

>  <SCORE.SYSTEM.CONST>
0

>  <SCORE.SYSTEM.DIHEDRAL>
0

>  <SCORE.SYSTEM.SOLV>
0

>  <SCORE.SYSTEM.norm>
0

>  <SCORE.heavy>
22

>  <SCORE.norm>
1.95801

>  <RMSD>
10.593

$$$$
lig.pdb
 OpenBabel11021811523D
libRbt.so/2013.1/901 2013/11/27
 22 23  0  0  0  0  0  0  0  0999 V2000
   50.6575  -21.4539    3.6594 O   0  0  0  0  0  0  0  0  0  0  0  0
   50.2065  -20.5471    4.3188 C   0  0  0  0  0  0  0  0  0  0  0  0
   49.4779  -19.5844    3.7820 N   0  0  0  0  0  0  0  0  0  0  0  0
   50.4983  -20.4649    5.7570 C   0  0  0  0  0  0  0  0  0  0  0  0
   51.3104  -21.4268    6.5057 C   0  0  0  0  0  0  0  0  0  0  0  0
   51.8898  -22.5333    5.9926 N   0  0  0  0  0  0  0  0  0  0  0  0
   50.1232  -19.5600    6.6751 N   0  0  0  0  0  0  0  0  0  0  0  0
   50.6707  -19.9077    7.8726 C   0  0  0  0  0  0  0  0  0  0  0  0
   51.4018  -21.0438    7.7742 N   0  0  0  0  0  0  0  0  0  0  0  0
   52.1358  -21.7065    8.8866 C   0  0  1  0  0  0  0  0  0  0  0  0
   52.9835  -22.8289    8.3283 C   0  0  1  0  0  0  0  0  0  0  0  0
   54.2527  -22.7576    9.1373 C   0  0  2  0  0  0  0  0  0  0  0  0
   54.1406  -23.5988   10.2921 O   0  0  0  0  0  0  0  0  0  0  0  0
   52.3197  -24.0951    8.4651 O   0  0  0  0  0  0  0  0  0  0  0  0
   53.0448  -20.7913    9.4931 O   0  0  0  0  0  0  0  0  0  0  0  0
   54.3433  -21.3246    9.5937 C   0  0  2  0  0  0  0  0  0  0  0  0
   55.2325  -20.4179    8.7681 C   0  0  0  0  0  0  0  0  0  0  0  0
   55.0487  -19.0582    9.1048 O   0  0  0  0  0  0  0  0  0  0  0  0
   55.9949  -17.9675    8.4210 P   0  0  0  0  0  0  0  0  0  0  0  0
   55.2184  -16.6685    8.5011 O   0  0  0  0  0  0  0  0  0  0  0  0
   56.1660  -18.5227    7.0306 O   0  0  0  0  0  0  0  0  0  0  0  0
   57.2599  -18.0491    9.2296 O   0  0  0  0  0  0  0  0  0  0  0  0
  2  1  2  0  0  0  0
  2  4  1  0  0  0  0
  3  2  1  0  0  0  0
  4  7  1  0  0  0  0
  4  5  2  0  0  0  0
  5  6  1  0  0  0  0
  5  9  1  0  0  0  0
  7  8  2  0  0  0  0
  8  9  1  0  0  0  0
 10  9  1  6  0  0  0
 10 15  1  0  0  0  0
 11 14  1  1  0  0  0
 11 12  1  0  0  0  0
 11 10  1  0  0  0  0
 12 13  1  1  0  0  0
 12 16  1  0  0  0  0
 16 17  1  6  0  0  0
 16 15  1  0  0  0  0
 18 19  1  0  0  0  0
 18 17  1  0  0  0  0
 19 21  1  0  0  0  0
 20 19  1  0  0  0  0
 22 19  2  0  0  0  0
M  END
>  <CHROM.1>
-0.62276825,8.66028012,168.29820475,156.89890016,174.87211286,53.18874341
-20.47587280,7.70898493,3.08271855,0.65480806,2.60136411

>  <Name>
lig.pdb

>  <RI>
0

>  <Rbt.Current_Directory>
/home/afrankz/demos/rdock_decoys_rna/rnas/4znp

>  <Rbt.Executable>
rbdock ($Id: //depot/dev/client3/rdock/2013.1/src/exe/rbdock.cxx#4 $)

>  <Rbt.Library>
libRbt.so (2013.1, Build901 2013/11/27)

>  <Rbt.Parameter_File>
/export/apps/rDock/src/rDock_2013.1_src/data/scripts/dock_solv.prm

>  <Rbt.Receptor>
prm/blind_docking_60.prm

>  <SCORE>
42.5455

>  <SCORE.INTER>
38.971

>  <SCORE.INTER.CONST>
1

>  <SCORE.INTER.POLAR>
0

>  <SCORE.INTER.ROT>
5

>  <SCORE.INTER.SOLV>
22.5221

>  <SCORE.INTER.VDW>
11.5399

>  <SCORE.INTER.norm>
1.77141

>  <SCORE.INTRA>
-2.86645

>  <SCORE.INTRA.DIHEDRAL>
-8.15044

>  <SCORE.INTRA.DIHEDRAL.0>
11.9251

>  <SCORE.INTRA.POLAR>
0

>  <SCORE.INTRA.POLAR.0>
0

>  <SCORE.INTRA.REPUL>
0

>  <SCORE.INTRA.REPUL.0>
0

>  <SCORE.INTRA.SOLV>
0.803449

>  <SCORE.INTRA.SOLV.lig_0>
-40.9823

>  <SCORE.INTRA.VDW>
0.807044

>  <SCORE.INTRA.VDW.0>
-0.53506

>  <SCORE.INTRA.norm>
-0.130293

>  <SCORE.RESTR>
6.44097

>  <SCORE.RESTR.CAVITY>
6.44097

>  <SCORE.RESTR.norm>
0.292771

>  <SCORE.SYSTEM>
0

>  <SCORE.SYSTEM.CONST>
0

>  <SCORE.SYSTEM.DIHEDRAL>
0

>  <SCORE.SYSTEM.SOLV>
0

>  <SCORE.SYSTEM.norm>
0

>  <SCORE.heavy>
22

>  <SCORE.norm>
1.93389

>  <RMSD>
10.645

$$$$
lig.pdb
 OpenBabel11021811523D
libRbt.so/2013.1/901 2013/11/27
 22 23  0  0  0  0  0  0  0  0999 V2000
   68.9620  -16.5270    5.0817 O   0  0  0  0  0  0  0  0  0  0  0  0
   68.5153  -17.6325    4.8853 C   0  0  0  0  0  0  0  0  0  0  0  0
   69.0906  -18.7180    5.3716 N   0  0  0  0  0  0  0  0  0  0  0  0
   67.3207  -17.8070    4.0470 C   0  0  0  0  0  0  0  0  0  0  0  0
   66.4607  -16.7201    3.5734 C   0  0  0  0  0  0  0  0  0  0  0  0
   66.6263  -15.4091    3.8516 N   0  0  0  0  0  0  0  0  0  0  0  0
   66.7597  -18.9184    3.5445 N   0  0  0  0  0  0  0  0  0  0  0  0
   65.6731  -18.5579    2.8068 C   0  0  0  0  0  0  0  0  0  0  0  0
   65.4889  -17.2159    2.8157 N   0  0  0  0  0  0  0  0  0  0  0  0
   64.3997  -16.4814    2.1161 C   0  0  1  0  0  0  0  0  0  0  0  0
   63.5746  -15.7225    3.1327 C   0  0  1  0  0  0  0  0  0  0  0  0
   63.2581  -14.4221    2.4404 C   0  0  2  0  0  0  0  0  0  0  0  0
   62.0213  -14.5406    1.7260 O   0  0  0  0  0  0  0  0  0  0  0  0
   62.3907  -16.4541    3.4872 O   0  0  0  0  0  0  0  0  0  0  0  0
   64.9488  -15.4982    1.2423 O   0  0  0  0  0  0  0  0  0  0  0  0
   64.3719  -14.2305    1.4441 C   0  0  2  0  0  0  0  0  0  0  0  0
   65.5030  -13.3207    1.8770 C   0  0  0  0  0  0  0  0  0  0  0  0
   65.8637  -12.4134    0.8559 O   0  0  0  0  0  0  0  0  0  0  0  0
   64.8801  -11.1963    0.5335 P   0  0  0  0  0  0  0  0  0  0  0  0
   65.5005  -10.4953   -0.6583 O   0  0  0  0  0  0  0  0  0  0  0  0
   64.9116  -10.4132    1.8205 O   0  0  0  0  0  0  0  0  0  0  0  0
   63.5557  -11.8708    0.3060 O   0  0  0  0  0  0  0  0  0  0  0  0
  2  1  2  0  0  0  0
  2  4  1  0  0  0  0
  3  2  1  0  0  0  0
  4  7  1  0  0  0  0
  4  5  2  0  0  0  0
  5  6  1  0  0  0  0
  5  9  1  0  0  0  0
  7  8  2  0  0  0  0
  8  9  1  0  0  0  0
 10  9  1  1  0  0  0
 10 15  1  0  0  0  0
 11 14  1  6  0  0  0
 11 12  1  0  0  0  0
 11 10  1  0  0  0  0
 12 13  1  6  0  0  0
 12 16  1  0  0  0  0
 16 17  1  1  0  0  0
 16 15  1  0  0  0  0
 18 19  1  0  0  0  0
 18 17  1  0  0  0  0
 19 21  1  0  0  0  0
 20 19  1  0  0  0  0
 22 19  2  0  0  0  0
M  END
>  <CHROM.1>
-10.34663104,-59.47832913,-134.58374339,-175.81599115,73.14558802,65.37726569
-14.87045457,2.38845725,-1.18814010,-0.25224777,-0.41943669

>  <Name>
lig.pdb

>  <RI>
0

>  <Rbt.Current_Directory>
/home/itssahil/PROJECTS/Mol_Feturizer/New_Systems/rnas/4znp

>  <Rbt.Executable>
rbdock ($Id: //depot/dev/client3/rdock/2013.1/src/exe/rbdock.cxx#4 $)

>  <Rbt.Library>
libRbt.so (2013.1, Build901 2013/11/27)

>  <Rbt.Parameter_File>
/export/apps/rDock/src/rDock_2013.1_src/data/scripts/dock_solv.prm

>  <Rbt.Receptor>
prm/blind_docking_100.prm

>  <SCORE>
-12.7161

>  <SCORE.INTER>
-10.5414

>  <SCORE.INTER.CONST>
1

>  <SCORE.INTER.POLAR>
0

>  <SCORE.INTER.ROT>
5

>  <SCORE.INTER.SOLV>
21.3973

>  <SCORE.INTER.VDW>
-21.0934

>  <SCORE.INTER.norm>
-0.479157

>  <SCORE.INTRA>
-2.17462

>  <SCORE.INTRA.DIHEDRAL>
-3.82842

>  <SCORE.INTRA.DIHEDRAL.0>
11.9251

>  <SCORE.INTRA.POLAR>
0

>  <SCORE.INTRA.POLAR.0>
0

>  <SCORE.INTRA.REPUL>
0

>  <SCORE.INTRA.REPUL.0>
0

>  <SCORE.INTRA.SOLV>
2.60481

>  <SCORE.INTRA.SOLV.lig_0>
-40.9823

>  <SCORE.INTRA.VDW>
-1.56282

>  <SCORE.INTRA.VDW.0>
-0.53506

>  <SCORE.INTRA.norm>
-0.0988462

>  <SCORE.RESTR>
0

>  <SCORE.RESTR.CAVITY>
0

>  <SCORE.RESTR.norm>
0

>  <SCORE.SYSTEM>
0

>  <SCORE.SYSTEM.CONST>
0

>  <SCORE.SYSTEM.DIHEDRAL>
0

>  <SCORE.SYSTEM.SOLV>
0

>  <SCORE.SYSTEM.norm>
0

>  <SCORE.heavy>
22

>  <SCORE.norm>
-0.578003

>  <RMSD>
10.665

$$$$
lig.pdb
 OpenBabel11021811523D
libRbt.so/2013.1/901 2013/11/27
 22 23  0  0  0  0  0  0  0  0999 V2000
   52.6684   -9.4186    9.3597 O   0  0  0  0  0  0  0  0  0  0  0  0
   53.7436   -8.8941    9.5311 C   0  0  0  0  0  0  0  0  0  0  0  0
   54.7813   -9.5604   10.0054 N   0  0  0  0  0  0  0  0  0  0  0  0
   53.9180   -7.4616    9.2525 C   0  0  0  0  0  0  0  0  0  0  0  0
   54.8482   -6.5761    9.9567 C   0  0  0  0  0  0  0  0  0  0  0  0
   55.6622   -6.9384   10.9713 N   0  0  0  0  0  0  0  0  0  0  0  0
   53.3160   -6.6657    8.3544 N   0  0  0  0  0  0  0  0  0  0  0  0
   53.8393   -5.4135    8.4681 C   0  0  0  0  0  0  0  0  0  0  0  0
   54.7799   -5.3539    9.4410 N   0  0  0  0  0  0  0  0  0  0  0  0
   55.5521   -4.1434    9.8333 C   0  0  1  0  0  0  0  0  0  0  0  0
   56.3499   -3.6518    8.6450 C   0  0  1  0  0  0  0  0  0  0  0  0
   56.2571   -2.1513    8.7455 C   0  0  2  0  0  0  0  0  0  0  0  0
   57.3538   -1.6474    9.5184 O   0  0  0  0  0  0  0  0  0  0  0  0
   57.7064   -4.1198    8.7042 O   0  0  0  0  0  0  0  0  0  0  0  0
   54.6653   -3.0820   10.1779 O   0  0  0  0  0  0  0  0  0  0  0  0
   54.9786   -1.8899    9.4985 C   0  0  2  0  0  0  0  0  0  0  0  0
   53.7650   -1.5585    8.6548 C   0  0  0  0  0  0  0  0  0  0  0  0
   53.9257   -0.3353    7.9663 O   0  0  0  0  0  0  0  0  0  0  0  0
   52.7458    0.1644    7.0119 P   0  0  0  0  0  0  0  0  0  0  0  0
   53.1569   -0.2695    5.6192 O   0  0  0  0  0  0  0  0  0  0  0  0
   52.7581    1.6532    7.2449 O   0  0  0  0  0  0  0  0  0  0  0  0
   51.5261   -0.4958    7.5925 O   0  0  0  0  0  0  0  0  0  0  0  0
  2  1  2  0  0  0  0
  2  4  1  0  0  0  0
  3  2  1  0  0  0  0
  4  7  1  0  0  0  0
  4  5  2  0  0  0  0
  5  6  1  0  0  0  0
  5  9  1  0  0  0  0
  7  8  2  0  0  0  0
  8  9  1  0  0  0  0
 10  9  1  6  0  0  0
 10 15  1  0  0  0  0
 11 14  1  1  0  0  0
 11 12  1  0  0  0  0
 11 10  1  0  0  0  0
 12 13  1  1  0  0  0
 12 16  1  0  0  0  0
 16 17  1  6  0  0  0
 16 15  1  0  0  0  0
 18 19  1  0  0  0  0
 18 17  1  0  0  0  0
 19 21  1  0  0  0  0
 20 19  1  0  0  0  0
 22 19  2  0  0  0  0
M  END
>  <CHROM.1>
149.06887372,120.11707224,-65.02171915,-97.24651825,179.30503030,54.35908257
-3.63367079,8.70533966,1.43459479,0.38114019,2.91401450

>  <Name>
lig.pdb

>  <RI>
0

>  <Rbt.Current_Directory>
/home/afrankz/demos/rdock_decoys_rna/rnas/4znp

>  <Rbt.Executable>
rbdock ($Id: //depot/dev/client3/rdock/2013.1/src/exe/rbdock.cxx#4 $)

>  <Rbt.Library>
libRbt.so (2013.1, Build901 2013/11/27)

>  <Rbt.Parameter_File>
/export/apps/rDock/src/rDock_2013.1_src/data/scripts/dock_solv.prm

>  <Rbt.Receptor>
prm/blind_docking_60.prm

>  <SCORE>
3.00103

>  <SCORE.INTER>
3.27945

>  <SCORE.INTER.CONST>
1

>  <SCORE.INTER.POLAR>
0

>  <SCORE.INTER.ROT>
5

>  <SCORE.INTER.SOLV>
16.1284

>  <SCORE.INTER.VDW>
-10.1232

>  <SCORE.INTER.norm>
0.149066

>  <SCORE.INTRA>
-3.08247

>  <SCORE.INTRA.DIHEDRAL>
-4.9866

>  <SCORE.INTRA.DIHEDRAL.0>
11.9251

>  <SCORE.INTRA.POLAR>
0

>  <SCORE.INTRA.POLAR.0>
0

>  <SCORE.INTRA.REPUL>
0

>  <SCORE.INTRA.REPUL.0>
0

>  <SCORE.INTRA.SOLV>
0.145266

>  <SCORE.INTRA.SOLV.lig_0>
-40.9823

>  <SCORE.INTRA.VDW>
-0.661797

>  <SCORE.INTRA.VDW.0>
-0.53506

>  <SCORE.INTRA.norm>
-0.140112

>  <SCORE.RESTR>
2.80404

>  <SCORE.RESTR.CAVITY>
2.80404

>  <SCORE.RESTR.norm>
0.127456

>  <SCORE.SYSTEM>
0

>  <SCORE.SYSTEM.CONST>
0

>  <SCORE.SYSTEM.DIHEDRAL>
0

>  <SCORE.SYSTEM.SOLV>
0

>  <SCORE.SYSTEM.norm>
0

>  <SCORE.heavy>
22

>  <SCORE.norm>
0.13641

>  <RMSD>
10.952

$$$$
lig.pdb
 OpenBabel11021811523D
libRbt.so/2013.1/901 2013/11/27
 22 23  0  0  0  0  0  0  0  0999 V2000
   65.0691  -19.0825    1.2190 O   0  0  0  0  0  0  0  0  0  0  0  0
   65.2648  -18.1269    1.9324 C   0  0  0  0  0  0  0  0  0  0  0  0
   65.8608  -18.2383    3.1063 N   0  0  0  0  0  0  0  0  0  0  0  0
   64.7967  -16.7945    1.5252 C   0  0  0  0  0  0  0  0  0  0  0  0
   64.8815  -15.5863    2.3488 C   0  0  0  0  0  0  0  0  0  0  0  0
   65.3806  -15.5232    3.6020 N   0  0  0  0  0  0  0  0  0  0  0  0
   64.2180  -16.3811    0.3865 N   0  0  0  0  0  0  0  0  0  0  0  0
   63.9901  -15.0417    0.4795 C   0  0  0  0  0  0  0  0  0  0  0  0
   64.3988  -14.5494    1.6735 N   0  0  0  0  0  0  0  0  0  0  0  0
   64.3000  -13.1300    2.1105 C   0  0  1  0  0  0  0  0  0  0  0  0
   65.6583  -12.4737    1.9904 C   0  0  1  0  0  0  0  0  0  0  0  0
   65.3447  -11.0859    1.4945 C   0  0  2  0  0  0  0  0  0  0  0  0
   65.1660  -10.2011    2.6077 O   0  0  0  0  0  0  0  0  0  0  0  0
   66.3393  -12.4604    3.2548 O   0  0  0  0  0  0  0  0  0  0  0  0
   63.4344  -12.4045    1.2409 O   0  0  0  0  0  0  0  0  0  0  0  0
   64.0299  -11.2191    0.7709 C   0  0  2  0  0  0  0  0  0  0  0  0
   64.1103  -11.3606   -0.7351 C   0  0  0  0  0  0  0  0  0  0  0  0
   62.8274  -11.3943   -1.3260 O   0  0  0  0  0  0  0  0  0  0  0  0
   62.7170  -11.6643   -2.8968 P   0  0  0  0  0  0  0  0  0  0  0  0
   63.2227  -13.0802   -3.0881 O   0  0  0  0  0  0  0  0  0  0  0  0
   63.6046  -10.5884   -3.4670 O   0  0  0  0  0  0  0  0  0  0  0  0
   61.2624  -11.4214   -3.1897 O   0  0  0  0  0  0  0  0  0  0  0  0
  2  1  2  0  0  0  0
  2  4  1  0  0  0  0
  3  2  1  0  0  0  0
  4  7  1  0  0  0  0
  4  5  2  0  0  0  0
  5  6  1  0  0  0  0
  5  9  1  0  0  0  0
  7  8  2  0  0  0  0
  8  9  1  0  0  0  0
 10  9  1  6  0  0  0
 10 15  1  0  0  0  0
 11 14  1  1  0  0  0
 11 12  1  0  0  0  0
 11 10  1  0  0  0  0
 12 13  1  1  0  0  0
 12 16  1  0  0  0  0
 16 17  1  6  0  0  0
 16 15  1  0  0  0  0
 18 19  1  0  0  0  0
 18 17  1  0  0  0  0
 19 21  1  0  0  0  0
 20 19  1  0  0  0  0
 22 19  2  0  0  0  0
M  END
>  <CHROM.1>
174.94596235,78.14526568,-176.30399912,65.51313922,-174.88188263,64.23406304
-13.51814523,0.41699532,0.80420913,1.11986327,-3.11274681

>  <Name>
lig.pdb

>  <RI>
0

>  <Rbt.Current_Directory>
/home/itssahil/PROJECTS/Mol_Feturizer/New_Systems/rnas/4znp

>  <Rbt.Executable>
rbdock ($Id: //depot/dev/client3/rdock/2013.1/src/exe/rbdock.cxx#4 $)

>  <Rbt.Library>
libRbt.so (2013.1, Build901 2013/11/27)

>  <Rbt.Parameter_File>
/export/apps/rDock/src/rDock_2013.1_src/data/scripts/dock_solv.prm

>  <Rbt.Receptor>
prm/blind_docking_80.prm

>  <SCORE>
-18.7494

>  <SCORE.INTER>
-12.8774

>  <SCORE.INTER.CONST>
1

>  <SCORE.INTER.POLAR>
0

>  <SCORE.INTER.ROT>
5

>  <SCORE.INTER.SOLV>
19.8571

>  <SCORE.INTER.VDW>
-22.1373

>  <SCORE.INTER.norm>
-0.585337

>  <SCORE.INTRA>
-5.87204

>  <SCORE.INTRA.DIHEDRAL>
-9.24063

>  <SCORE.INTRA.DIHEDRAL.0>
11.9251

>  <SCORE.INTRA.POLAR>
0

>  <SCORE.INTRA.POLAR.0>
0

>  <SCORE.INTRA.REPUL>
0

>  <SCORE.INTRA.REPUL.0>
0

>  <SCORE.INTRA.SOLV>
0.273877

>  <SCORE.INTRA.SOLV.lig_0>
-40.9823

>  <SCORE.INTRA.VDW>
-1.38866

>  <SCORE.INTRA.VDW.0>
-0.53506

>  <SCORE.INTRA.norm>
-0.266911

>  <SCORE.RESTR>
0

>  <SCORE.RESTR.CAVITY>
0

>  <SCORE.RESTR.norm>
0

>  <SCORE.SYSTEM>
0

>  <SCORE.SYSTEM.CONST>
0

>  <SCORE.SYSTEM.DIHEDRAL>
0

>  <SCORE.SYSTEM.SOLV>
0

>  <SCORE.SYSTEM.norm>
0

>  <SCORE.heavy>
22

>  <SCORE.norm>
-0.852248

>  <RMSD>
11.118

$$$$
lig.pdb
 OpenBabel11021811523D
libRbt.so/2013.1/901 2013/11/27
 22 23  0  0  0  0  0  0  0  0999 V2000
   65.7925  -18.2915    3.0211 O   0  0  0  0  0  0  0  0  0  0  0  0
   65.2208  -18.1580    1.9648 C   0  0  0  0  0  0  0  0  0  0  0  0
   65.0202  -19.1727    1.1427 N   0  0  0  0  0  0  0  0  0  0  0  0
   64.7624  -16.8285    1.5373 C   0  0  0  0  0  0  0  0  0  0  0  0
   64.8487  -15.6101    2.3455 C   0  0  0  0  0  0  0  0  0  0  0  0
   65.3404  -15.5331    3.6008 N   0  0  0  0  0  0  0  0  0  0  0  0
   64.1930  -16.4271    0.3896 N   0  0  0  0  0  0  0  0  0  0  0  0
   63.9718  -15.0854    0.4637 C   0  0  0  0  0  0  0  0  0  0  0  0
   64.3757  -14.5796    1.6537 N   0  0  0  0  0  0  0  0  0  0  0  0
   64.2820  -13.1541    2.0713 C   0  0  1  0  0  0  0  0  0  0  0  0
   65.6411  -12.5025    1.9358 C   0  0  1  0  0  0  0  0  0  0  0  0
   65.3280  -11.1210    1.4222 C   0  0  2  0  0  0  0  0  0  0  0  0
   65.1564  -10.2205    2.5239 O   0  0  0  0  0  0  0  0  0  0  0  0
   66.3281  -12.4731    3.1967 O   0  0  0  0  0  0  0  0  0  0  0  0
   63.4139  -12.4388    1.1958 O   0  0  0  0  0  0  0  0  0  0  0  0
   64.0096  -11.2613    0.7066 C   0  0  2  0  0  0  0  0  0  0  0  0
   64.0827  -11.4239   -0.7976 C   0  0  0  0  0  0  0  0  0  0  0  0
   62.7969  -11.4660   -1.3816 O   0  0  0  0  0  0  0  0  0  0  0  0
   62.6827  -11.6571   -2.9637 P   0  0  0  0  0  0  0  0  0  0  0  0
   63.5564  -10.5688   -3.5546 O   0  0  0  0  0  0  0  0  0  0  0  0
   61.2042  -11.4846   -3.1984 O   0  0  0  0  0  0  0  0  0  0  0  0
   63.1345  -13.0754   -3.1759 O   0  0  0  0  0  0  0  0  0  0  0  0
  2  1  2  0  0  0  0
  2  4  1  0  0  0  0
  3  2  1  0  0  0  0
  4  7  1  0  0  0  0
  4  5  2  0  0  0  0
  5  6  1  0  0  0  0
  5  9  1  0  0  0  0
  7  8  2  0  0  0  0
  8  9  1  0  0  0  0
 10  9  1  6  0  0  0
 10 15  1  0  0  0  0
 11 14  1  1  0  0  0
 11 12  1  0  0  0  0
 11 10  1  0  0  0  0
 12 13  1  1  0  0  0
 12 16  1  0  0  0  0
 16 17  1  6  0  0  0
 16 15  1  0  0  0  0
 18 19  1  0  0  0  0
 18 17  1  0  0  0  0
 19 21  1  0  0  0  0
 20 19  1  0  0  0  0
 22 19  2  0  0  0  0
M  END
>  <CHROM.1>
-4.87182514,78.79595851,-176.43657957,-53.15828908,-179.05919843,64.20479072
-13.54377817,0.38243493,0.81249973,1.11511963,-3.13282975

>  <Name>
lig.pdb

>  <RI>
0

>  <Rbt.Current_Directory>
/home/itssahil/PROJECTS/Mol_Feturizer/New_Systems/rnas/4znp

>  <Rbt.Executable>
rbdock ($Id: //depot/dev/client3/rdock/2013.1/src/exe/rbdock.cxx#4 $)

>  <Rbt.Library>
libRbt.so (2013.1, Build901 2013/11/27)

>  <Rbt.Parameter_File>
/export/apps/rDock/src/rDock_2013.1_src/data/scripts/dock_solv.prm

>  <Rbt.Receptor>
prm/blind_docking_80.prm

>  <SCORE>
-19.9376

>  <SCORE.INTER>
-13.9009

>  <SCORE.INTER.CONST>
1

>  <SCORE.INTER.POLAR>
0

>  <SCORE.INTER.ROT>
5

>  <SCORE.INTER.SOLV>
17.5764

>  <SCORE.INTER.VDW>
-22.0594

>  <SCORE.INTER.norm>
-0.63186

>  <SCORE.INTRA>
-6.03664

>  <SCORE.INTRA.DIHEDRAL>
-9.34405

>  <SCORE.INTRA.DIHEDRAL.0>
11.9251

>  <SCORE.INTRA.POLAR>
0

>  <SCORE.INTRA.POLAR.0>
0

>  <SCORE.INTRA.REPUL>
0

>  <SCORE.INTRA.REPUL.0>
0

>  <SCORE.INTRA.SOLV>
0.284439

>  <SCORE.INTRA.SOLV.lig_0>
-40.9823

>  <SCORE.INTRA.VDW>
-1.50683

>  <SCORE.INTRA.VDW.0>
-0.53506

>  <SCORE.INTRA.norm>
-0.274393

>  <SCORE.RESTR>
0

>  <SCORE.RESTR.CAVITY>
0

>  <SCORE.RESTR.norm>
0

>  <SCORE.SYSTEM>
0

>  <SCORE.SYSTEM.CONST>
0

>  <SCORE.SYSTEM.DIHEDRAL>
0

>  <SCORE.SYSTEM.SOLV>
0

>  <SCORE.SYSTEM.norm>
0

>  <SCORE.heavy>
22

>  <SCORE.norm>
-0.906252

>  <RMSD>
11.145

$$$$
lig.pdb
 OpenBabel11021811523D
libRbt.so/2013.1/901 2013/11/27
 22 23  0  0  0  0  0  0  0  0999 V2000
   53.0038   -8.8270    8.0638 O   0  0  0  0  0  0  0  0  0  0  0  0
   53.8206   -8.3464    8.8137 C   0  0  0  0  0  0  0  0  0  0  0  0
   54.6526   -9.0941    9.5168 N   0  0  0  0  0  0  0  0  0  0  0  0
   53.8829   -6.8899    9.0009 C   0  0  0  0  0  0  0  0  0  0  0  0
   55.0382   -6.1593    9.5271 C   0  0  0  0  0  0  0  0  0  0  0  0
   56.2003   -6.7142    9.9332 N   0  0  0  0  0  0  0  0  0  0  0  0
   52.9691   -5.9370    8.7575 N   0  0  0  0  0  0  0  0  0  0  0  0
   53.5109   -4.7284    9.0741 C   0  0  0  0  0  0  0  0  0  0  0  0
   54.7767   -4.8571    9.5391 N   0  0  0  0  0  0  0  0  0  0  0  0
   55.6615   -3.7432    9.9769 C   0  0  1  0  0  0  0  0  0  0  0  0
   56.3626   -3.1572    8.7705 C   0  0  1  0  0  0  0  0  0  0  0  0
   56.3775   -1.6762    9.0475 C   0  0  2  0  0  0  0  0  0  0  0  0
   57.5782   -1.3248    9.7467 O   0  0  0  0  0  0  0  0  0  0  0  0
   57.6850   -3.6989    8.6277 O   0  0  0  0  0  0  0  0  0  0  0  0
   54.8852   -2.6850   10.5331 O   0  0  0  0  0  0  0  0  0  0  0  0
   55.2029   -1.4392    9.9608 C   0  0  2  0  0  0  0  0  0  0  0  0
   53.9327   -0.9477    9.2978 C   0  0  0  0  0  0  0  0  0  0  0  0
   54.1520   -0.5909    7.9485 O   0  0  0  0  0  0  0  0  0  0  0  0
   52.9583    0.0923    7.1357 P   0  0  0  0  0  0  0  0  0  0  0  0
   51.7202   -0.6908    7.5241 O   0  0  0  0  0  0  0  0  0  0  0  0
   53.4034   -0.0871    5.7072 O   0  0  0  0  0  0  0  0  0  0  0  0
   53.0149    1.5286    7.5768 O   0  0  0  0  0  0  0  0  0  0  0  0
  2  1  2  0  0  0  0
  2  4  1  0  0  0  0
  3  2  1  0  0  0  0
  4  7  1  0  0  0  0
  4  5  2  0  0  0  0
  5  6  1  0  0  0  0
  5  9  1  0  0  0  0
  7  8  2  0  0  0  0
  8  9  1  0  0  0  0
 10  9  1  6  0  0  0
 10 15  1  0  0  0  0
 11 14  1  1  0  0  0
 11 12  1  0  0  0  0
 11 10  1  0  0  0  0
 12 13  1  1  0  0  0
 12 16  1  0  0  0  0
 16 17  1  6  0  0  0
 16 15  1  0  0  0  0
 18 19  1  0  0  0  0
 18 17  1  0  0  0  0
 19 21  1  0  0  0  0
 20 19  1  0  0  0  0
 22 19  2  0  0  0  0
M  END
>  <CHROM.1>
-160.17963245,95.91885939,-9.67508161,-42.46119337,-173.72374225,54.48406441
-3.31358882,8.69247199,1.45567805,0.46848995,2.99873174

>  <Name>
lig.pdb

>  <RI>
0

>  <Rbt.Current_Directory>
/home/afrankz/demos/rdock_decoys_rna/rnas/4znp

>  <Rbt.Executable>
rbdock ($Id: //depot/dev/client3/rdock/2013.1/src/exe/rbdock.cxx#4 $)

>  <Rbt.Library>
libRbt.so (2013.1, Build901 2013/11/27)

>  <Rbt.Parameter_File>
/export/apps/rDock/src/rDock_2013.1_src/data/scripts/dock_solv.prm

>  <Rbt.Receptor>
prm/blind_docking_60.prm

>  <SCORE>
2.77573

>  <SCORE.INTER>
2.51902

>  <SCORE.INTER.CONST>
1

>  <SCORE.INTER.POLAR>
0

>  <SCORE.INTER.ROT>
5

>  <SCORE.INTER.SOLV>
17.1416

>  <SCORE.INTER.VDW>
-10.9679

>  <SCORE.INTER.norm>
0.114501

>  <SCORE.INTRA>
-2.12143

>  <SCORE.INTRA.DIHEDRAL>
-2.47729

>  <SCORE.INTRA.DIHEDRAL.0>
11.9251

>  <SCORE.INTRA.POLAR>
0

>  <SCORE.INTRA.POLAR.0>
0

>  <SCORE.INTRA.REPUL>
0

>  <SCORE.INTRA.REPUL.0>
0

>  <SCORE.INTRA.SOLV>
0.360772

>  <SCORE.INTRA.SOLV.lig_0>
-40.9823

>  <SCORE.INTRA.VDW>
-1.06318

>  <SCORE.INTRA.VDW.0>
-0.53506

>  <SCORE.INTRA.norm>
-0.0964289

>  <SCORE.RESTR>
2.37815

>  <SCORE.RESTR.CAVITY>
2.37815

>  <SCORE.RESTR.norm>
0.108098

>  <SCORE.SYSTEM>
0

>  <SCORE.SYSTEM.CONST>
0

>  <SCORE.SYSTEM.DIHEDRAL>
0

>  <SCORE.SYSTEM.SOLV>
0

>  <SCORE.SYSTEM.norm>
0

>  <SCORE.heavy>
22

>  <SCORE.norm>
0.12617

>  <RMSD>
11.155

$$$$
lig.pdb
 OpenBabel11021811523D
libRbt.so/2013.1/901 2013/11/27
 22 23  0  0  0  0  0  0  0  0999 V2000
   65.0034  -19.1524    1.2595 O   0  0  0  0  0  0  0  0  0  0  0  0
   65.2415  -18.1844    1.9427 C   0  0  0  0  0  0  0  0  0  0  0  0
   65.8737  -18.2802    3.0989 N   0  0  0  0  0  0  0  0  0  0  0  0
   64.7867  -16.8526    1.5186 C   0  0  0  0  0  0  0  0  0  0  0  0
   64.8783  -15.6361    2.3292 C   0  0  0  0  0  0  0  0  0  0  0  0
   65.3725  -15.5633    3.5837 N   0  0  0  0  0  0  0  0  0  0  0  0
   64.2164  -16.4471    0.3729 N   0  0  0  0  0  0  0  0  0  0  0  0
   63.9996  -15.1048    0.4501 C   0  0  0  0  0  0  0  0  0  0  0  0
   64.4074  -14.6027    1.6403 N   0  0  0  0  0  0  0  0  0  0  0  0
   64.3190  -13.1777    2.0610 C   0  0  1  0  0  0  0  0  0  0  0  0
   65.6689  -12.5179    1.8804 C   0  0  1  0  0  0  0  0  0  0  0  0
   65.3305  -11.1384    1.3777 C   0  0  2  0  0  0  0  0  0  0  0  0
   65.1902  -10.2388    2.4845 O   0  0  0  0  0  0  0  0  0  0  0  0
   66.3972  -12.4842    3.1178 O   0  0  0  0  0  0  0  0  0  0  0  0
   63.4179  -12.4678    1.2149 O   0  0  0  0  0  0  0  0  0  0  0  0
   63.9899  -11.2868    0.7063 C   0  0  2  0  0  0  0  0  0  0  0  0
   64.0139  -11.4490   -0.7995 C   0  0  0  0  0  0  0  0  0  0  0  0
   62.7119  -11.4311   -1.3477 O   0  0  0  0  0  0  0  0  0  0  0  0
   62.5410  -11.6725   -2.9178 P   0  0  0  0  0  0  0  0  0  0  0  0
   61.0676  -11.4466   -3.1916 O   0  0  0  0  0  0  0  0  0  0  0  0
   63.0065  -13.0973   -3.0725 O   0  0  0  0  0  0  0  0  0  0  0  0
   63.4999  -10.6876   -3.5271 O   0  0  0  0  0  0  0  0  0  0  0  0
  2  1  2  0  0  0  0
  2  4  1  0  0  0  0
  3  2  1  0  0  0  0
  4  7  1  0  0  0  0
  4  5  2  0  0  0  0
  5  6  1  0  0  0  0
  5  9  1  0  0  0  0
  7  8  2  0  0  0  0
  8  9  1  0  0  0  0
 10  9  1  6  0  0  0
 10 15  1  0  0  0  0
 11 14  1  1  0  0  0
 11 12  1  0  0  0  0
 11 10  1  0  0  0  0
 12 13  1  1  0  0  0
 12 16  1  0  0  0  0
 16 17  1  6  0  0  0
 16 15  1  0  0  0  0
 18 19  1  0  0  0  0
 18 17  1  0  0  0  0
 19 21  1  0  0  0  0
 20 19  1  0  0  0  0
 22 19  2  0  0  0  0
M  END
>  <CHROM.1>
172.59247389,80.67791430,-173.45727519,-174.23830581,-176.60401854,64.18143924
-13.56615308,0.37881768,0.82041284,1.08546390,-3.13927566

>  <Name>
lig.pdb

>  <RI>
0

>  <Rbt.Current_Directory>
/home/itssahil/PROJECTS/Mol_Feturizer/New_Systems/rnas/4znp

>  <Rbt.Executable>
rbdock ($Id: //depot/dev/client3/rdock/2013.1/src/exe/rbdock.cxx#4 $)

>  <Rbt.Library>
libRbt.so (2013.1, Build901 2013/11/27)

>  <Rbt.Parameter_File>
/export/apps/rDock/src/rDock_2013.1_src/data/scripts/dock_solv.prm

>  <Rbt.Receptor>
prm/blind_docking_80.prm

>  <SCORE>
-19.3976

>  <SCORE.INTER>
-13.7598

>  <SCORE.INTER.CONST>
1

>  <SCORE.INTER.POLAR>
0

>  <SCORE.INTER.ROT>
5

>  <SCORE.INTER.SOLV>
18.4698

>  <SCORE.INTER.VDW>
-22.2631

>  <SCORE.INTER.norm>
-0.625445

>  <SCORE.INTRA>
-5.63783

>  <SCORE.INTRA.DIHEDRAL>
-9.12321

>  <SCORE.INTRA.DIHEDRAL.0>
11.9251

>  <SCORE.INTRA.POLAR>
0

>  <SCORE.INTRA.POLAR.0>
0

>  <SCORE.INTRA.REPUL>
0

>  <SCORE.INTRA.REPUL.0>
0

>  <SCORE.INTRA.SOLV>
0.482624

>  <SCORE.INTRA.SOLV.lig_0>
-40.9823

>  <SCORE.INTRA.VDW>
-1.31753

>  <SCORE.INTRA.VDW.0>
-0.53506

>  <SCORE.INTRA.norm>
-0.256265

>  <SCORE.RESTR>
0

>  <SCORE.RESTR.CAVITY>
0

>  <SCORE.RESTR.norm>
0

>  <SCORE.SYSTEM>
0

>  <SCORE.SYSTEM.CONST>
0

>  <SCORE.SYSTEM.DIHEDRAL>
0

>  <SCORE.SYSTEM.SOLV>
0

>  <SCORE.SYSTEM.norm>
0

>  <SCORE.heavy>
22

>  <SCORE.norm>
-0.88171

>  <RMSD>
11.155

$$$$
lig.pdb
 OpenBabel11021811523D
libRbt.so/2013.1/901 2013/11/27
 22 23  0  0  0  0  0  0  0  0999 V2000
   63.8735  -18.6498    2.3623 O   0  0  0  0  0  0  0  0  0  0  0  0
   64.4193  -18.3039    1.3411 C   0  0  0  0  0  0  0  0  0  0  0  0
   64.8601  -19.1756    0.4514 N   0  0  0  0  0  0  0  0  0  0  0  0
   64.6517  -16.8771    1.0759 C   0  0  0  0  0  0  0  0  0  0  0  0
   64.2089  -15.7793    1.9386 C   0  0  0  0  0  0  0  0  0  0  0  0
   63.5099  -15.9146    3.0859 N   0  0  0  0  0  0  0  0  0  0  0  0
   65.2777  -16.2676    0.0565 N   0  0  0  0  0  0  0  0  0  0  0  0
   65.2526  -14.9238    0.2759 C   0  0  0  0  0  0  0  0  0  0  0  0
   64.6064  -14.6198    1.4270 N   0  0  0  0  0  0  0  0  0  0  0  0
   64.3934  -13.2508    1.9711 C   0  0  1  0  0  0  0  0  0  0  0  0
   65.6914  -12.4761    1.8989 C   0  0  1  0  0  0  0  0  0  0  0  0
   65.2592  -11.0857    1.5109 C   0  0  2  0  0  0  0  0  0  0  0  0
   65.0167  -10.3060    2.6887 O   0  0  0  0  0  0  0  0  0  0  0  0
   66.3793  -12.5018    3.1593 O   0  0  0  0  0  0  0  0  0  0  0  0
   63.4633  -12.5364    1.1610 O   0  0  0  0  0  0  0  0  0  0  0  0
   63.9542  -11.2731    0.7817 C   0  0  2  0  0  0  0  0  0  0  0  0
   64.0336  -11.2927   -0.7309 C   0  0  0  0  0  0  0  0  0  0  0  0
   62.7521  -11.3711   -1.3204 O   0  0  0  0  0  0  0  0  0  0  0  0
   62.6500  -11.6167   -2.8958 P   0  0  0  0  0  0  0  0  0  0  0  0
   61.1806  -11.4462   -3.2253 O   0  0  0  0  0  0  0  0  0  0  0  0
   63.1745  -13.0227   -3.0325 O   0  0  0  0  0  0  0  0  0  0  0  0
   63.5934  -10.5955   -3.4684 O   0  0  0  0  0  0  0  0  0  0  0  0
  2  1  2  0  0  0  0
  2  4  1  0  0  0  0
  3  2  1  0  0  0  0
  4  7  1  0  0  0  0
  4  5  2  0  0  0  0
  5  6  1  0  0  0  0
  5  9  1  0  0  0  0
  7  8  2  0  0  0  0
  8  9  1  0  0  0  0
 10  9  1  6  0  0  0
 10 15  1  0  0  0  0
 11 14  1  1  0  0  0
 11 12  1  0  0  0  0
 11 10  1  0  0  0  0
 12 13  1  1  0  0  0
 12 16  1  0  0  0  0
 16 17  1  6  0  0  0
 16 15  1  0  0  0  0
 18 19  1  0  0  0  0
 18 17  1  0  0  0  0
 19 21  1  0  0  0  0
 20 19  1  0  0  0  0
 22 19  2  0  0  0  0
M  END
>  <CHROM.1>
-3.22462799,134.25858253,-175.53760242,-172.00076833,-171.19348997,64.07204022
-13.57428236,0.24143581,1.02507461,1.13887053,3.06909524

>  <Name>
lig.pdb

>  <RI>
0

>  <Rbt.Current_Directory>
/home/itssahil/PROJECTS/Mol_Feturizer/New_Systems/rnas/4znp

>  <Rbt.Executable>
rbdock ($Id: //depot/dev/client3/rdock/2013.1/src/exe/rbdock.cxx#4 $)

>  <Rbt.Library>
libRbt.so (2013.1, Build901 2013/11/27)

>  <Rbt.Parameter_File>
/export/apps/rDock/src/rDock_2013.1_src/data/scripts/dock_solv.prm

>  <Rbt.Receptor>
prm/blind_docking_80.prm

>  <SCORE>
-19.4523

>  <SCORE.INTER>
-13.9095

>  <SCORE.INTER.CONST>
1

>  <SCORE.INTER.POLAR>
0

>  <SCORE.INTER.ROT>
5

>  <SCORE.INTER.SOLV>
19.9596

>  <SCORE.INTER.VDW>
-22.8595

>  <SCORE.INTER.norm>
-0.632251

>  <SCORE.INTRA>
-5.54278

>  <SCORE.INTRA.DIHEDRAL>
-8.89709

>  <SCORE.INTRA.DIHEDRAL.0>
11.9251

>  <SCORE.INTRA.POLAR>
0

>  <SCORE.INTRA.POLAR.0>
0

>  <SCORE.INTRA.REPUL>
0

>  <SCORE.INTRA.REPUL.0>
0

>  <SCORE.INTRA.SOLV>
-0.143735

>  <SCORE.INTRA.SOLV.lig_0>
-40.9823

>  <SCORE.INTRA.VDW>
-1.02237

>  <SCORE.INTRA.VDW.0>
-0.53506

>  <SCORE.INTRA.norm>
-0.251945

>  <SCORE.RESTR>
0

>  <SCORE.RESTR.CAVITY>
0

>  <SCORE.RESTR.norm>
0

>  <SCORE.SYSTEM>
0

>  <SCORE.SYSTEM.CONST>
0

>  <SCORE.SYSTEM.DIHEDRAL>
0

>  <SCORE.SYSTEM.SOLV>
0

>  <SCORE.SYSTEM.norm>
0

>  <SCORE.heavy>
22

>  <SCORE.norm>
-0.884195

>  <RMSD>
11.163

$$$$
lig.pdb
 OpenBabel11021811523D
libRbt.so/2013.1/901 2013/11/27
 22 23  0  0  0  0  0  0  0  0999 V2000
   54.7343   -8.9713    9.3570 O   0  0  0  0  0  0  0  0  0  0  0  0
   53.9080   -8.2924    8.7943 C   0  0  0  0  0  0  0  0  0  0  0  0
   53.0244   -8.8110    7.9599 N   0  0  0  0  0  0  0  0  0  0  0  0
   53.8908   -6.8362    8.9927 C   0  0  0  0  0  0  0  0  0  0  0  0
   54.9465   -6.0660    9.6542 C   0  0  0  0  0  0  0  0  0  0  0  0
   56.0734   -6.5791   10.1927 N   0  0  0  0  0  0  0  0  0  0  0  0
   52.9753   -5.9172    8.6465 N   0  0  0  0  0  0  0  0  0  0  0  0
   53.4284   -4.6912    9.0291 C   0  0  0  0  0  0  0  0  0  0  0  0
   54.6346   -4.7749    9.6398 N   0  0  0  0  0  0  0  0  0  0  0  0
   55.4174   -3.6314   10.1829 C   0  0  1  0  0  0  0  0  0  0  0  0
   56.6667   -3.4398    9.3506 C   0  0  1  0  0  0  0  0  0  0  0  0
   56.8171   -1.9429    9.2672 C   0  0  2  0  0  0  0  0  0  0  0  0
   57.6306   -1.4753   10.3505 O   0  0  0  0  0  0  0  0  0  0  0  0
   57.8006   -4.0685    9.9683 O   0  0  0  0  0  0  0  0  0  0  0  0
   54.6739   -2.4214   10.0607 O   0  0  0  0  0  0  0  0  0  0  0  0
   55.4226   -1.4010    9.4450 C   0  0  2  0  0  0  0  0  0  0  0  0
   54.6791   -1.0463    8.1739 C   0  0  0  0  0  0  0  0  0  0  0  0
   53.3375   -0.6889    8.4357 O   0  0  0  0  0  0  0  0  0  0  0  0
   52.5027    0.0394    7.2845 P   0  0  0  0  0  0  0  0  0  0  0  0
   51.0688   -0.4006    7.5011 O   0  0  0  0  0  0  0  0  0  0  0  0
   53.1516   -0.4963    6.0344 O   0  0  0  0  0  0  0  0  0  0  0  0
   52.8030    1.4960    7.5062 O   0  0  0  0  0  0  0  0  0  0  0  0
  2  1  2  0  0  0  0
  2  4  1  0  0  0  0
  3  2  1  0  0  0  0
  4  7  1  0  0  0  0
  4  5  2  0  0  0  0
  5  6  1  0  0  0  0
  5  9  1  0  0  0  0
  7  8  2  0  0  0  0
  8  9  1  0  0  0  0
 10  9  1  6  0  0  0
 10 15  1  0  0  0  0
 11 14  1  1  0  0  0
 11 12  1  0  0  0  0
 11 10  1  0  0  0  0
 12 13  1  1  0  0  0
 12 16  1  0  0  0  0
 16 17  1  6  0  0  0
 16 15  1  0  0  0  0
 18 19  1  0  0  0  0
 18 17  1  0  0  0  0
 19 21  1  0  0  0  0
 20 19  1  0  0  0  0
 22 19  2  0  0  0  0
M  END
>  <CHROM.1>
11.03520086,68.66228012,173.51683505,149.06108675,165.78728860,54.40629811
-3.33917083,8.79331173,1.34572423,0.48364730,3.03263248

>  <Name>
lig.pdb

>  <RI>
0

>  <Rbt.Current_Directory>
/home/afrankz/demos/rdock_decoys_rna/rnas/4znp

>  <Rbt.Executable>
rbdock ($Id: //depot/dev/client3/rdock/2013.1/src/exe/rbdock.cxx#4 $)

>  <Rbt.Library>
libRbt.so (2013.1, Build901 2013/11/27)

>  <Rbt.Parameter_File>
/export/apps/rDock/src/rDock_2013.1_src/data/scripts/dock_solv.prm

>  <Rbt.Receptor>
prm/blind_docking_60.prm

>  <SCORE>
5.39444

>  <SCORE.INTER>
5.63716

>  <SCORE.INTER.CONST>
1

>  <SCORE.INTER.POLAR>
0

>  <SCORE.INTER.ROT>
5

>  <SCORE.INTER.SOLV>
16.7544

>  <SCORE.INTER.VDW>
-8.76002

>  <SCORE.INTER.norm>
0.256235

>  <SCORE.INTRA>
-3.73493

>  <SCORE.INTRA.DIHEDRAL>
-6.71685

>  <SCORE.INTRA.DIHEDRAL.0>
11.9251

>  <SCORE.INTRA.POLAR>
0

>  <SCORE.INTRA.POLAR.0>
0

>  <SCORE.INTRA.REPUL>
0

>  <SCORE.INTRA.REPUL.0>
0

>  <SCORE.INTRA.SOLV>
0.28846

>  <SCORE.INTRA.SOLV.lig_0>
-40.9823

>  <SCORE.INTRA.VDW>
-0.520733

>  <SCORE.INTRA.VDW.0>
-0.53506

>  <SCORE.INTRA.norm>
-0.169769

>  <SCORE.RESTR>
3.4922

>  <SCORE.RESTR.CAVITY>
3.4922

>  <SCORE.RESTR.norm>
0.158737

>  <SCORE.SYSTEM>
0

>  <SCORE.SYSTEM.CONST>
0

>  <SCORE.SYSTEM.DIHEDRAL>
0

>  <SCORE.SYSTEM.SOLV>
0

>  <SCORE.SYSTEM.norm>
0

>  <SCORE.heavy>
22

>  <SCORE.norm>
0.245202

>  <RMSD>
11.170

$$$$
lig.pdb
 OpenBabel11021811523D
libRbt.so/2013.1/901 2013/11/27
 22 23  0  0  0  0  0  0  0  0999 V2000
   63.9699  -17.5729   -0.5223 O   0  0  0  0  0  0  0  0  0  0  0  0
   64.4506  -17.7665    0.5694 C   0  0  0  0  0  0  0  0  0  0  0  0
   64.7292  -18.9814    1.0077 N   0  0  0  0  0  0  0  0  0  0  0  0
   64.7028  -16.6367    1.4750 C   0  0  0  0  0  0  0  0  0  0  0  0
   64.4031  -15.2351    1.1733 C   0  0  0  0  0  0  0  0  0  0  0  0
   63.8730  -14.7758    0.0194 N   0  0  0  0  0  0  0  0  0  0  0  0
   65.2309  -16.6060    2.7090 N   0  0  0  0  0  0  0  0  0  0  0  0
   65.2342  -15.3158    3.1452 C   0  0  0  0  0  0  0  0  0  0  0  0
   64.7242  -14.4746    2.2139 N   0  0  0  0  0  0  0  0  0  0  0  0
   64.5794  -13.0003    2.3577 C   0  0  1  0  0  0  0  0  0  0  0  0
   65.8567  -12.3256    1.9068 C   0  0  1  0  0  0  0  0  0  0  0  0
   65.3769  -11.0922    1.1864 C   0  0  2  0  0  0  0  0  0  0  0  0
   65.2835   -9.9975    2.1066 O   0  0  0  0  0  0  0  0  0  0  0  0
   66.6979  -12.0103    3.0273 O   0  0  0  0  0  0  0  0  0  0  0  0
   63.5535  -12.5180    1.4936 O   0  0  0  0  0  0  0  0  0  0  0  0
   63.9907  -11.4362    0.7066 C   0  0  2  0  0  0  0  0  0  0  0  0
   63.8791  -11.8946   -0.7328 C   0  0  0  0  0  0  0  0  0  0  0  0
   62.7105  -11.3960   -1.3507 O   0  0  0  0  0  0  0  0  0  0  0  0
   62.1642  -12.1336   -2.6584 P   0  0  0  0  0  0  0  0  0  0  0  0
   61.0478  -11.2465   -3.1719 O   0  0  0  0  0  0  0  0  0  0  0  0
   61.7190  -13.4645   -2.1096 O   0  0  0  0  0  0  0  0  0  0  0  0
   63.3861  -12.2521   -3.5265 O   0  0  0  0  0  0  0  0  0  0  0  0
  2  1  2  0  0  0  0
  2  4  1  0  0  0  0
  3  2  1  0  0  0  0
  4  7  1  0  0  0  0
  4  5  2  0  0  0  0
  5  6  1  0  0  0  0
  5  9  1  0  0  0  0
  7  8  2  0  0  0  0
  8  9  1  0  0  0  0
 10  9  1  6  0  0  0
 10 15  1  0  0  0  0
 11 14  1  1  0  0  0
 11 12  1  0  0  0  0
 11 10  1  0  0  0  0
 12 13  1  1  0  0  0
 12 16  1  0  0  0  0
 16 17  1  6  0  0  0
 16 15  1  0  0  0  0
 18 19  1  0  0  0  0
 18 17  1  0  0  0  0
 19 21  1  0  0  0  0
 20 19  1  0  0  0  0
 22 19  2  0  0  0  0
M  END
>  <CHROM.1>
0.60851719,-91.62840455,-141.94953028,-172.03966290,-159.80554901,64.01041325
-13.55959776,0.25933957,0.79275893,0.99982084,3.11976536

>  <Name>
lig.pdb

>  <RI>
0

>  <Rbt.Current_Directory>
/home/itssahil/PROJECTS/Mol_Feturizer/New_Systems/rnas/4znp

>  <Rbt.Executable>
rbdock ($Id: //depot/dev/client3/rdock/2013.1/src/exe/rbdock.cxx#4 $)

>  <Rbt.Library>
libRbt.so (2013.1, Build901 2013/11/27)

>  <Rbt.Parameter_File>
/export/apps/rDock/src/rDock_2013.1_src/data/scripts/dock_solv.prm

>  <Rbt.Receptor>
prm/blind_docking_100.prm

>  <SCORE>
-15.2617

>  <SCORE.INTER>
-13.2688

>  <SCORE.INTER.CONST>
1

>  <SCORE.INTER.POLAR>
0

>  <SCORE.INTER.ROT>
5

>  <SCORE.INTER.SOLV>
16.3057

>  <SCORE.INTER.VDW>
-21.2144

>  <SCORE.INTER.norm>
-0.603127

>  <SCORE.INTRA>
-2.74375

>  <SCORE.INTRA.DIHEDRAL>
-3.81326

>  <SCORE.INTRA.DIHEDRAL.0>
11.9251

>  <SCORE.INTRA.POLAR>
0

>  <SCORE.INTRA.POLAR.0>
0

>  <SCORE.INTRA.REPUL>
0

>  <SCORE.INTRA.REPUL.0>
0

>  <SCORE.INTRA.SOLV>
1.49566

>  <SCORE.INTRA.SOLV.lig_0>
-40.9823

>  <SCORE.INTRA.VDW>
-1.58495

>  <SCORE.INTRA.VDW.0>
-0.53506

>  <SCORE.INTRA.norm>
-0.124716

>  <SCORE.RESTR>
0.750878

>  <SCORE.RESTR.CAVITY>
0.750878

>  <SCORE.RESTR.norm>
0.0341308

>  <SCORE.SYSTEM>
0

>  <SCORE.SYSTEM.CONST>
0

>  <SCORE.SYSTEM.DIHEDRAL>
0

>  <SCORE.SYSTEM.SOLV>
0

>  <SCORE.SYSTEM.norm>
0

>  <SCORE.heavy>
22

>  <SCORE.norm>
-0.693712

>  <RMSD>
11.171

$$$$
lig.pdb
 OpenBabel11021811523D
libRbt.so/2013.1/901 2013/11/27
 22 23  0  0  0  0  0  0  0  0999 V2000
   65.0714  -19.1174    1.2323 O   0  0  0  0  0  0  0  0  0  0  0  0
   65.2971  -18.1885    1.9716 C   0  0  0  0  0  0  0  0  0  0  0  0
   65.9225  -18.3457    3.1248 N   0  0  0  0  0  0  0  0  0  0  0  0
   64.8341  -16.8381    1.6217 C   0  0  0  0  0  0  0  0  0  0  0  0
   64.9883  -15.6519    2.4668 C   0  0  0  0  0  0  0  0  0  0  0  0
   65.5567  -15.6282    3.6914 N   0  0  0  0  0  0  0  0  0  0  0  0
   64.2020  -16.3868    0.5266 N   0  0  0  0  0  0  0  0  0  0  0  0
   64.0064  -15.0459    0.6629 C   0  0  0  0  0  0  0  0  0  0  0  0
   64.4900  -14.5902    1.8433 N   0  0  0  0  0  0  0  0  0  0  0  0
   64.4439  -13.1801    2.3175 C   0  0  1  0  0  0  0  0  0  0  0  0
   65.8414  -12.5998    2.2986 C   0  0  1  0  0  0  0  0  0  0  0  0
   65.6362  -11.1831    1.8283 C   0  0  2  0  0  0  0  0  0  0  0  0
   65.4395  -10.3206    2.9559 O   0  0  0  0  0  0  0  0  0  0  0  0
   66.4438  -12.6605    3.6009 O   0  0  0  0  0  0  0  0  0  0  0  0
   63.6746  -12.3823    1.4211 O   0  0  0  0  0  0  0  0  0  0  0  0
   64.3627  -11.2205    1.0242 C   0  0  2  0  0  0  0  0  0  0  0  0
   64.5267  -11.3247   -0.4780 C   0  0  0  0  0  0  0  0  0  0  0  0
   65.5324  -10.4547   -0.9553 O   0  0  0  0  0  0  0  0  0  0  0  0
   65.8775  -10.4694   -2.5152 P   0  0  0  0  0  0  0  0  0  0  0  0
   67.0801   -9.5585   -2.6598 O   0  0  0  0  0  0  0  0  0  0  0  0
   64.6041   -9.9451   -3.1270 O   0  0  0  0  0  0  0  0  0  0  0  0
   66.0957  -11.9277   -2.8091 O   0  0  0  0  0  0  0  0  0  0  0  0
  2  1  2  0  0  0  0
  2  4  1  0  0  0  0
  3  2  1  0  0  0  0
  4  7  1  0  0  0  0
  4  5  2  0  0  0  0
  5  6  1  0  0  0  0
  5  9  1  0  0  0  0
  7  8  2  0  0  0  0
  8  9  1  0  0  0  0
 10  9  1  6  0  0  0
 10 15  1  0  0  0  0
 11 14  1  1  0  0  0
 11 12  1  0  0  0  0
 11 10  1  0  0  0  0
 12 13  1  1  0  0  0
 12 16  1  0  0  0  0
 16 17  1  6  0  0  0
 16 15  1  0  0  0  0
 18 19  1  0  0  0  0
 18 17  1  0  0  0  0
 19 21  1  0  0  0  0
 20 19  1  0  0  0  0
 22 19  2  0  0  0  0
M  END
>  <CHROM.1>
176.74797957,71.18518582,-44.11263894,-173.74961529,177.88244730,65.23686661
-13.22597145,0.65803734,2.90843929,1.50060184,1.26101356

>  <Name>
lig.pdb

>  <RI>
0

>  <Rbt.Current_Directory>
/home/itssahil/PROJECTS/Mol_Feturizer/New_Systems/rnas/4znp

>  <Rbt.Executable>
rbdock ($Id: //depot/dev/client3/rdock/2013.1/src/exe/rbdock.cxx#4 $)

>  <Rbt.Library>
libRbt.so (2013.1, Build901 2013/11/27)

>  <Rbt.Parameter_File>
/export/apps/rDock/src/rDock_2013.1_src/data/scripts/dock_solv.prm

>  <Rbt.Receptor>
prm/blind_docking_80.prm

>  <SCORE>
-16.2754

>  <SCORE.INTER>
-11.3298

>  <SCORE.INTER.CONST>
1

>  <SCORE.INTER.POLAR>
0

>  <SCORE.INTER.ROT>
5

>  <SCORE.INTER.SOLV>
18.1015

>  <SCORE.INTER.VDW>
-20.5204

>  <SCORE.INTER.norm>
-0.514991

>  <SCORE.INTRA>
-4.94557

>  <SCORE.INTRA.DIHEDRAL>
-8.55837

>  <SCORE.INTRA.DIHEDRAL.0>
11.9251

>  <SCORE.INTRA.POLAR>
0

>  <SCORE.INTRA.POLAR.0>
0

>  <SCORE.INTRA.REPUL>
0

>  <SCORE.INTRA.REPUL.0>
0

>  <SCORE.INTRA.SOLV>
0.730542

>  <SCORE.INTRA.SOLV.lig_0>
-40.9823

>  <SCORE.INTRA.VDW>
-1.03166

>  <SCORE.INTRA.VDW.0>
-0.53506

>  <SCORE.INTRA.norm>
-0.224799

>  <SCORE.RESTR>
0

>  <SCORE.RESTR.CAVITY>
0

>  <SCORE.RESTR.norm>
0

>  <SCORE.SYSTEM>
0

>  <SCORE.SYSTEM.CONST>
0

>  <SCORE.SYSTEM.DIHEDRAL>
0

>  <SCORE.SYSTEM.SOLV>
0

>  <SCORE.SYSTEM.norm>
0

>  <SCORE.heavy>
22

>  <SCORE.norm>
-0.739789

>  <RMSD>
11.188

$$$$
lig.pdb
 OpenBabel11021811523D
libRbt.so/2013.1/901 2013/11/27
 22 23  0  0  0  0  0  0  0  0999 V2000
   52.7705   -9.2994    9.2466 O   0  0  0  0  0  0  0  0  0  0  0  0
   53.8006   -8.6805    9.3745 C   0  0  0  0  0  0  0  0  0  0  0  0
   54.9479   -9.2767    9.6466 N   0  0  0  0  0  0  0  0  0  0  0  0
   53.7975   -7.2143    9.2723 C   0  0  0  0  0  0  0  0  0  0  0  0
   54.8226   -6.3310    9.8330 C   0  0  0  0  0  0  0  0  0  0  0  0
   55.9029   -6.7296   10.5383 N   0  0  0  0  0  0  0  0  0  0  0  0
   52.9234   -6.3803    8.6868 N   0  0  0  0  0  0  0  0  0  0  0  0
   53.3735   -5.1044    8.8425 C   0  0  0  0  0  0  0  0  0  0  0  0
   54.5362   -5.0683    9.5367 N   0  0  0  0  0  0  0  0  0  0  0  0
   55.3034   -3.8422    9.8879 C   0  0  1  0  0  0  0  0  0  0  0  0
   56.1108   -3.3961    8.6883 C   0  0  1  0  0  0  0  0  0  0  0  0
   56.0153   -1.8929    8.7292 C   0  0  2  0  0  0  0  0  0  0  0  0
   57.1047   -1.3576    9.4912 O   0  0  0  0  0  0  0  0  0  0  0  0
   57.4673   -3.8592    8.7773 O   0  0  0  0  0  0  0  0  0  0  0  0
   54.4123   -2.7695   10.1832 O   0  0  0  0  0  0  0  0  0  0  0  0
   54.7300   -1.6044    9.4605 C   0  0  2  0  0  0  0  0  0  0  0  0
   53.5233   -1.3080    8.5942 C   0  0  0  0  0  0  0  0  0  0  0  0
   53.8737   -0.5580    7.4493 O   0  0  0  0  0  0  0  0  0  0  0  0
   52.7319    0.2731    6.7021 P   0  0  0  0  0  0  0  0  0  0  0  0
   51.4283   -0.3406    7.1721 O   0  0  0  0  0  0  0  0  0  0  0  0
   53.0624    0.0332    5.2516 O   0  0  0  0  0  0  0  0  0  0  0  0
   53.0017    1.6908    7.1238 O   0  0  0  0  0  0  0  0  0  0  0  0
  2  1  2  0  0  0  0
  2  4  1  0  0  0  0
  3  2  1  0  0  0  0
  4  7  1  0  0  0  0
  4  5  2  0  0  0  0
  5  6  1  0  0  0  0
  5  9  1  0  0  0  0
  7  8  2  0  0  0  0
  8  9  1  0  0  0  0
 10  9  1  6  0  0  0
 10 15  1  0  0  0  0
 11 14  1  1  0  0  0
 11 12  1  0  0  0  0
 11 10  1  0  0  0  0
 12 13  1  1  0  0  0
 12 16  1  0  0  0  0
 16 17  1  6  0  0  0
 16 15  1  0  0  0  0
 18 19  1  0  0  0  0
 18 17  1  0  0  0  0
 19 21  1  0  0  0  0
 20 19  1  0  0  0  0
 22 19  2  0  0  0  0
M  END
>  <CHROM.1>
158.23595040,100.67273648,-37.09842231,-18.75062754,-158.98023909,54.24661455
-3.42560563,8.59316926,1.42790879,0.44075182,2.90000414

>  <Name>
lig.pdb

>  <RI>
0

>  <Rbt.Current_Directory>
/home/afrankz/demos/rdock_decoys_rna/rnas/4znp

>  <Rbt.Executable>
rbdock ($Id: //depot/dev/client3/rdock/2013.1/src/exe/rbdock.cxx#4 $)

>  <Rbt.Library>
libRbt.so (2013.1, Build901 2013/11/27)

>  <Rbt.Parameter_File>
/export/apps/rDock/src/rDock_2013.1_src/data/scripts/dock_solv.prm

>  <Rbt.Receptor>
prm/blind_docking_60.prm

>  <SCORE>
2.46628

>  <SCORE.INTER>
1.43373

>  <SCORE.INTER.CONST>
1

>  <SCORE.INTER.POLAR>
0

>  <SCORE.INTER.ROT>
5

>  <SCORE.INTER.SOLV>
16.502

>  <SCORE.INTER.VDW>
-11.4782

>  <SCORE.INTER.norm>
0.0651695

>  <SCORE.INTRA>
-1.87309

>  <SCORE.INTRA.DIHEDRAL>
-2.57489

>  <SCORE.INTRA.DIHEDRAL.0>
11.9251

>  <SCORE.INTRA.POLAR>
0

>  <SCORE.INTRA.POLAR.0>
0

>  <SCORE.INTRA.REPUL>
0

>  <SCORE.INTRA.REPUL.0>
0

>  <SCORE.INTRA.SOLV>
0.210865

>  <SCORE.INTRA.SOLV.lig_0>
-40.9823

>  <SCORE.INTRA.VDW>
-0.691075

>  <SCORE.INTRA.VDW.0>
-0.53506

>  <SCORE.INTRA.norm>
-0.0851403

>  <SCORE.RESTR>
2.90563

>  <SCORE.RESTR.CAVITY>
2.90563

>  <SCORE.RESTR.norm>
0.132074

>  <SCORE.SYSTEM>
0

>  <SCORE.SYSTEM.CONST>
0

>  <SCORE.SYSTEM.DIHEDRAL>
0

>  <SCORE.SYSTEM.SOLV>
0

>  <SCORE.SYSTEM.norm>
0

>  <SCORE.heavy>
22

>  <SCORE.norm>
0.112103

>  <RMSD>
11.213

$$$$
lig.pdb
 OpenBabel11021811523D
libRbt.so/2013.1/901 2013/11/27
 22 23  0  0  0  0  0  0  0  0999 V2000
   64.0923  -18.6947    2.2866 O   0  0  0  0  0  0  0  0  0  0  0  0
   64.6145  -18.3240    1.2617 C   0  0  0  0  0  0  0  0  0  0  0  0
   65.0908  -19.1744    0.3697 N   0  0  0  0  0  0  0  0  0  0  0  0
   64.7765  -16.8879    0.9941 C   0  0  0  0  0  0  0  0  0  0  0  0
   64.3349  -15.8124    1.8849 C   0  0  0  0  0  0  0  0  0  0  0  0
   63.7009  -15.9803    3.0652 N   0  0  0  0  0  0  0  0  0  0  0  0
   65.3254  -16.2497   -0.0517 N   0  0  0  0  0  0  0  0  0  0  0  0
   65.2583  -14.9088    0.1772 C   0  0  0  0  0  0  0  0  0  0  0  0
   64.6597  -14.6357    1.3613 N   0  0  0  0  0  0  0  0  0  0  0  0
   64.4207  -13.2787    1.9241 C   0  0  1  0  0  0  0  0  0  0  0  0
   65.7064  -12.4822    1.8732 C   0  0  1  0  0  0  0  0  0  0  0  0
   65.2546  -11.0933    1.5026 C   0  0  2  0  0  0  0  0  0  0  0  0
   64.9909  -10.3353    2.6901 O   0  0  0  0  0  0  0  0  0  0  0  0
   66.3855  -12.5157    3.1382 O   0  0  0  0  0  0  0  0  0  0  0  0
   63.4851  -12.5673    1.1177 O   0  0  0  0  0  0  0  0  0  0  0  0
   63.9581  -11.2907    0.7609 C   0  0  2  0  0  0  0  0  0  0  0  0
   64.0489  -11.2863   -0.7511 C   0  0  0  0  0  0  0  0  0  0  0  0
   62.7796  -11.4433   -1.3512 O   0  0  0  0  0  0  0  0  0  0  0  0
   62.7018  -11.6263   -2.9364 P   0  0  0  0  0  0  0  0  0  0  0  0
   63.5529  -10.5076   -3.5030 O   0  0  0  0  0  0  0  0  0  0  0  0
   61.2235  -11.4974   -3.1987 O   0  0  0  0  0  0  0  0  0  0  0  0
   63.2008  -13.0286   -3.1492 O   0  0  0  0  0  0  0  0  0  0  0  0
  2  1  2  0  0  0  0
  2  4  1  0  0  0  0
  3  2  1  0  0  0  0
  4  7  1  0  0  0  0
  4  5  2  0  0  0  0
  5  6  1  0  0  0  0
  5  9  1  0  0  0  0
  7  8  2  0  0  0  0
  8  9  1  0  0  0  0
 10  9  1  6  0  0  0
 10 15  1  0  0  0  0
 11 14  1  1  0  0  0
 11 12  1  0  0  0  0
 11 10  1  0  0  0  0
 12 13  1  1  0  0  0
 12 16  1  0  0  0  0
 16 17  1  6  0  0  0
 16 15  1  0  0  0  0
 18 19  1  0  0  0  0
 18 17  1  0  0  0  0
 19 21  1  0  0  0  0
 20 19  1  0  0  0  0
 22 19  2  0  0  0  0
M  END
>  <CHROM.1>
-0.62424193,130.62800381,-178.46552072,-49.44673386,-173.23492903,64.13124047
-13.58940590,0.19505893,0.95642285,1.15011537,3.14035833

>  <Name>
lig.pdb

>  <RI>
0

>  <Rbt.Current_Directory>
/home/itssahil/PROJECTS/Mol_Feturizer/New_Systems/rnas/4znp

>  <Rbt.Executable>
rbdock ($Id: //depot/dev/client3/rdock/2013.1/src/exe/rbdock.cxx#4 $)

>  <Rbt.Library>
libRbt.so (2013.1, Build901 2013/11/27)

>  <Rbt.Parameter_File>
/export/apps/rDock/src/rDock_2013.1_src/data/scripts/dock_solv.prm

>  <Rbt.Receptor>
prm/blind_docking_80.prm

>  <SCORE>
-20.0051

>  <SCORE.INTER>
-14.1164

>  <SCORE.INTER.CONST>
1

>  <SCORE.INTER.POLAR>
0

>  <SCORE.INTER.ROT>
5

>  <SCORE.INTER.SOLV>
18.7596

>  <SCORE.INTER.VDW>
-22.5975

>  <SCORE.INTER.norm>
-0.641655

>  <SCORE.INTRA>
-5.88866

>  <SCORE.INTRA.DIHEDRAL>
-9.0521

>  <SCORE.INTRA.DIHEDRAL.0>
11.9251

>  <SCORE.INTRA.POLAR>
0

>  <SCORE.INTRA.POLAR.0>
0

>  <SCORE.INTRA.REPUL>
0

>  <SCORE.INTRA.REPUL.0>
0

>  <SCORE.INTRA.SOLV>
-0.156365

>  <SCORE.INTRA.SOLV.lig_0>
-40.9823

>  <SCORE.INTRA.VDW>
-1.28443

>  <SCORE.INTRA.VDW.0>
-0.53506

>  <SCORE.INTRA.norm>
-0.267666

>  <SCORE.RESTR>
0

>  <SCORE.RESTR.CAVITY>
0

>  <SCORE.RESTR.norm>
0

>  <SCORE.SYSTEM>
0

>  <SCORE.SYSTEM.CONST>
0

>  <SCORE.SYSTEM.DIHEDRAL>
0

>  <SCORE.SYSTEM.SOLV>
0

>  <SCORE.SYSTEM.norm>
0

>  <SCORE.heavy>
22

>  <SCORE.norm>
-0.909321

>  <RMSD>
11.228

$$$$
lig.pdb
 OpenBabel11021811523D
libRbt.so/2013.1/901 2013/11/27
 22 23  0  0  0  0  0  0  0  0999 V2000
   52.9980   -8.9064    8.2228 O   0  0  0  0  0  0  0  0  0  0  0  0
   53.8839   -8.3840    8.8575 C   0  0  0  0  0  0  0  0  0  0  0  0
   54.8325   -9.0885    9.4487 N   0  0  0  0  0  0  0  0  0  0  0  0
   53.9063   -6.9245    9.0292 C   0  0  0  0  0  0  0  0  0  0  0  0
   55.0298   -6.1601    9.5758 C   0  0  0  0  0  0  0  0  0  0  0  0
   56.1942   -6.6820   10.0176 N   0  0  0  0  0  0  0  0  0  0  0  0
   52.9762   -5.9969    8.7517 N   0  0  0  0  0  0  0  0  0  0  0  0
   53.4805   -4.7719    9.0676 C   0  0  0  0  0  0  0  0  0  0  0  0
   54.7367   -4.8646    9.5659 N   0  0  0  0  0  0  0  0  0  0  0  0
   55.5829   -3.7247   10.0129 C   0  0  1  0  0  0  0  0  0  0  0  0
   56.3902   -3.2108    8.8405 C   0  0  1  0  0  0  0  0  0  0  0  0
   56.3855   -1.7158    9.0284 C   0  0  2  0  0  0  0  0  0  0  0  0
   57.5206   -1.3207    9.8090 O   0  0  0  0  0  0  0  0  0  0  0  0
   57.7182   -3.7574    8.8484 O   0  0  0  0  0  0  0  0  0  0  0  0
   54.7639   -2.6366   10.4335 O   0  0  0  0  0  0  0  0  0  0  0  0
   55.1353   -1.4267    9.8180 C   0  0  2  0  0  0  0  0  0  0  0  0
   53.9306   -0.9785    9.0166 C   0  0  0  0  0  0  0  0  0  0  0  0
   54.2173    0.1646    8.2373 O   0  0  0  0  0  0  0  0  0  0  0  0
   53.1320    0.6542    7.1720 P   0  0  0  0  0  0  0  0  0  0  0  0
   51.7913    0.3888    7.8269 O   0  0  0  0  0  0  0  0  0  0  0  0
   53.4421   -0.2148    5.9806 O   0  0  0  0  0  0  0  0  0  0  0  0
   53.4974    2.0943    6.9407 O   0  0  0  0  0  0  0  0  0  0  0  0
  2  1  2  0  0  0  0
  2  4  1  0  0  0  0
  3  2  1  0  0  0  0
  4  7  1  0  0  0  0
  4  5  2  0  0  0  0
  5  6  1  0  0  0  0
  5  9  1  0  0  0  0
  7  8  2  0  0  0  0
  8  9  1  0  0  0  0
 10  9  1  6  0  0  0
 10 15  1  0  0  0  0
 11 14  1  1  0  0  0
 11 12  1  0  0  0  0
 11 10  1  0  0  0  0
 12 13  1  1  0  0  0
 12 16  1  0  0  0  0
 16 17  1  6  0  0  0
 16 15  1  0  0  0  0
 18 19  1  0  0  0  0
 18 17  1  0  0  0  0
 19 21  1  0  0  0  0
 20 19  1  0  0  0  0
 22 19  2  0  0  0  0
M  END
>  <CHROM.1>
-169.21573704,91.11670641,-56.16298555,36.34326802,171.40983951,54.52806429
-3.16423985,8.71513962,1.46231950,0.44808634,2.99351282

>  <Name>
lig.pdb

>  <RI>
0

>  <Rbt.Current_Directory>
/home/afrankz/demos/rdock_decoys_rna/rnas/4znp

>  <Rbt.Executable>
rbdock ($Id: //depot/dev/client3/rdock/2013.1/src/exe/rbdock.cxx#4 $)

>  <Rbt.Library>
libRbt.so (2013.1, Build901 2013/11/27)

>  <Rbt.Parameter_File>
/export/apps/rDock/src/rDock_2013.1_src/data/scripts/dock_solv.prm

>  <Rbt.Receptor>
prm/blind_docking_60.prm

>  <SCORE>
1.59893

>  <SCORE.INTER>
3.61846

>  <SCORE.INTER.CONST>
1

>  <SCORE.INTER.POLAR>
0

>  <SCORE.INTER.ROT>
5

>  <SCORE.INTER.SOLV>
15.1746

>  <SCORE.INTER.VDW>
-9.57922

>  <SCORE.INTER.norm>
0.164476

>  <SCORE.INTRA>
-5.00468

>  <SCORE.INTRA.DIHEDRAL>
-7.90159

>  <SCORE.INTRA.DIHEDRAL.0>
11.9251

>  <SCORE.INTRA.POLAR>
0

>  <SCORE.INTRA.POLAR.0>
0

>  <SCORE.INTRA.REPUL>
0

>  <SCORE.INTRA.REPUL.0>
0

>  <SCORE.INTRA.SOLV>
0.219797

>  <SCORE.INTRA.SOLV.lig_0>
-40.9823

>  <SCORE.INTRA.VDW>
-1.16378

>  <SCORE.INTRA.VDW.0>
-0.53506

>  <SCORE.INTRA.norm>
-0.227485

>  <SCORE.RESTR>
2.98515

>  <SCORE.RESTR.CAVITY>
2.98515

>  <SCORE.RESTR.norm>
0.135688

>  <SCORE.SYSTEM>
0

>  <SCORE.SYSTEM.CONST>
0

>  <SCORE.SYSTEM.DIHEDRAL>
0

>  <SCORE.SYSTEM.SOLV>
0

>  <SCORE.SYSTEM.norm>
0

>  <SCORE.heavy>
22

>  <SCORE.norm>
0.0726788

>  <RMSD>
11.231

$$$$
lig.pdb
 OpenBabel11021811523D
libRbt.so/2013.1/901 2013/11/27
 22 23  0  0  0  0  0  0  0  0999 V2000
   52.9755   -8.8582    8.2078 O   0  0  0  0  0  0  0  0  0  0  0  0
   53.6698   -8.3008    9.0250 C   0  0  0  0  0  0  0  0  0  0  0  0
   54.0101   -8.8754   10.1650 N   0  0  0  0  0  0  0  0  0  0  0  0
   54.1275   -6.9244    8.7878 C   0  0  0  0  0  0  0  0  0  0  0  0
   54.7924   -6.0774    9.7807 C   0  0  0  0  0  0  0  0  0  0  0  0
   55.0629   -6.4268   11.0566 N   0  0  0  0  0  0  0  0  0  0  0  0
   54.0564   -6.1562    7.6890 N   0  0  0  0  0  0  0  0  0  0  0  0
   54.6443   -4.9583    7.9610 C   0  0  0  0  0  0  0  0  0  0  0  0
   55.1011   -4.9063    9.2352 N   0  0  0  0  0  0  0  0  0  0  0  0
   55.7936   -3.7496    9.8659 C   0  0  1  0  0  0  0  0  0  0  0  0
   56.6349   -3.0421    8.8258 C   0  0  1  0  0  0  0  0  0  0  0  0
   56.4683   -1.5825    9.1606 C   0  0  2  0  0  0  0  0  0  0  0  0
   57.4950   -1.1732   10.0730 O   0  0  0  0  0  0  0  0  0  0  0  0
   58.0057   -3.4648    8.8952 O   0  0  0  0  0  0  0  0  0  0  0  0
   54.8412   -2.7911   10.3197 O   0  0  0  0  0  0  0  0  0  0  0  0
   55.1383   -1.4936    9.8627 C   0  0  2  0  0  0  0  0  0  0  0  0
   53.9611   -1.0719    9.0078 C   0  0  0  0  0  0  0  0  0  0  0  0
   54.2376    0.1096    8.2841 O   0  0  0  0  0  0  0  0  0  0  0  0
   53.1789    0.6026    7.1939 P   0  0  0  0  0  0  0  0  0  0  0  0
   53.4090   -0.2904    5.9912 O   0  0  0  0  0  0  0  0  0  0  0  0
   53.5704    2.0449    7.0007 O   0  0  0  0  0  0  0  0  0  0  0  0
   51.8595    0.4573    7.9003 O   0  0  0  0  0  0  0  0  0  0  0  0
  2  1  2  0  0  0  0
  2  4  1  0  0  0  0
  3  2  1  0  0  0  0
  4  7  1  0  0  0  0
  4  5  2  0  0  0  0
  5  6  1  0  0  0  0
  5  9  1  0  0  0  0
  7  8  2  0  0  0  0
  8  9  1  0  0  0  0
 10  9  1  6  0  0  0
 10 15  1  0  0  0  0
 11 14  1  1  0  0  0
 11 12  1  0  0  0  0
 11 10  1  0  0  0  0
 12 13  1  1  0  0  0
 12 16  1  0  0  0  0
 16 17  1  6  0  0  0
 16 15  1  0  0  0  0
 18 19  1  0  0  0  0
 18 17  1  0  0  0  0
 19 21  1  0  0  0  0
 20 19  1  0  0  0  0
 22 19  2  0  0  0  0
M  END
>  <CHROM.1>
170.13091715,146.63279982,-51.05537274,-77.72582388,172.57810399,54.59259350
-3.14395789,8.71197700,1.49591237,0.52243560,2.97777022

>  <Name>
lig.pdb

>  <RI>
0

>  <Rbt.Current_Directory>
/home/afrankz/demos/rdock_decoys_rna/rnas/4znp

>  <Rbt.Executable>
rbdock ($Id: //depot/dev/client3/rdock/2013.1/src/exe/rbdock.cxx#4 $)

>  <Rbt.Library>
libRbt.so (2013.1, Build901 2013/11/27)

>  <Rbt.Parameter_File>
/export/apps/rDock/src/rDock_2013.1_src/data/scripts/dock_solv.prm

>  <Rbt.Receptor>
prm/blind_docking_60.prm

>  <SCORE>
3.84522

>  <SCORE.INTER>
4.61853

>  <SCORE.INTER.CONST>
1

>  <SCORE.INTER.POLAR>
0

>  <SCORE.INTER.ROT>
5

>  <SCORE.INTER.SOLV>
14.1382

>  <SCORE.INTER.VDW>
-8.56705

>  <SCORE.INTER.norm>
0.209933

>  <SCORE.INTRA>
-4.63542

>  <SCORE.INTRA.DIHEDRAL>
-8.21667

>  <SCORE.INTRA.DIHEDRAL.0>
11.9251

>  <SCORE.INTRA.POLAR>
0

>  <SCORE.INTRA.POLAR.0>
0

>  <SCORE.INTRA.REPUL>
0

>  <SCORE.INTRA.REPUL.0>
0

>  <SCORE.INTRA.SOLV>
0.211804

>  <SCORE.INTRA.SOLV.lig_0>
-40.9823

>  <SCORE.INTRA.VDW>
-0.632988

>  <SCORE.INTRA.VDW.0>
-0.53506

>  <SCORE.INTRA.norm>
-0.210701

>  <SCORE.RESTR>
3.86211

>  <SCORE.RESTR.CAVITY>
3.86211

>  <SCORE.RESTR.norm>
0.175551

>  <SCORE.SYSTEM>
0

>  <SCORE.SYSTEM.CONST>
0

>  <SCORE.SYSTEM.DIHEDRAL>
0

>  <SCORE.SYSTEM.SOLV>
0

>  <SCORE.SYSTEM.norm>
0

>  <SCORE.heavy>
22

>  <SCORE.norm>
0.174783

>  <RMSD>
11.237

$$$$
lig.pdb
 OpenBabel11021811523D
libRbt.so/2013.1/901 2013/11/27
 22 23  0  0  0  0  0  0  0  0999 V2000
   65.1321  -18.9700    0.1848 O   0  0  0  0  0  0  0  0  0  0  0  0
   65.1729  -18.2233    1.1342 C   0  0  0  0  0  0  0  0  0  0  0  0
   65.4717  -18.6489    2.3489 N   0  0  0  0  0  0  0  0  0  0  0  0
   64.8417  -16.8010    0.9686 C   0  0  0  0  0  0  0  0  0  0  0  0
   64.9157  -15.7923    2.0280 C   0  0  0  0  0  0  0  0  0  0  0  0
   65.2774  -16.0228    3.3084 N   0  0  0  0  0  0  0  0  0  0  0  0
   64.4201  -16.1210   -0.1095 N   0  0  0  0  0  0  0  0  0  0  0  0
   64.2728  -14.8120    0.2361 C   0  0  0  0  0  0  0  0  0  0  0  0
   64.5798  -14.6040    1.5390 N   0  0  0  0  0  0  0  0  0  0  0  0
   64.5281  -13.2964    2.2481 C   0  0  1  0  0  0  0  0  0  0  0  0
   65.8823  -12.6264    2.1619 C   0  0  1  0  0  0  0  0  0  0  0  0
   65.5510  -11.1694    1.9673 C   0  0  2  0  0  0  0  0  0  0  0  0
   65.4605  -10.5176    3.2404 O   0  0  0  0  0  0  0  0  0  0  0  0
   66.6497  -12.8569    3.3537 O   0  0  0  0  0  0  0  0  0  0  0  0
   63.6126  -12.4179    1.5986 O   0  0  0  0  0  0  0  0  0  0  0  0
   64.1877  -11.1626    1.3260 C   0  0  2  0  0  0  0  0  0  0  0  0
   64.1615  -11.0093   -0.1807 C   0  0  0  0  0  0  0  0  0  0  0  0
   65.0888  -11.8699   -0.8096 O   0  0  0  0  0  0  0  0  0  0  0  0
   65.3777  -11.6730   -2.3686 P   0  0  0  0  0  0  0  0  0  0  0  0
   66.4371  -12.7034   -2.7047 O   0  0  0  0  0  0  0  0  0  0  0  0
   65.8411  -10.2404   -2.4271 O   0  0  0  0  0  0  0  0  0  0  0  0
   64.0261  -11.8637   -2.9992 O   0  0  0  0  0  0  0  0  0  0  0  0
  2  1  2  0  0  0  0
  2  4  1  0  0  0  0
  3  2  1  0  0  0  0
  4  7  1  0  0  0  0
  4  5  2  0  0  0  0
  5  6  1  0  0  0  0
  5  9  1  0  0  0  0
  7  8  2  0  0  0  0
  8  9  1  0  0  0  0
 10  9  1  6  0  0  0
 10 15  1  0  0  0  0
 11 14  1  1  0  0  0
 11 12  1  0  0  0  0
 11 10  1  0  0  0  0
 12 13  1  1  0  0  0
 12 16  1  0  0  0  0
 16 17  1  6  0  0  0
 16 15  1  0  0  0  0
 18 19  1  0  0  0  0
 18 17  1  0  0  0  0
 19 21  1  0  0  0  0
 20 19  1  0  0  0  0
 22 19  2  0  0  0  0
M  END
>  <CHROM.1>
-177.01556246,88.91058399,46.94764324,177.91957026,-169.79661111,65.07276601
-13.58887108,0.50683204,1.86822942,1.53838658,2.42082190

>  <Name>
lig.pdb

>  <RI>
0

>  <Rbt.Current_Directory>
/home/itssahil/PROJECTS/Mol_Feturizer/New_Systems/rnas/4znp

>  <Rbt.Executable>
rbdock ($Id: //depot/dev/client3/rdock/2013.1/src/exe/rbdock.cxx#4 $)

>  <Rbt.Library>
libRbt.so (2013.1, Build901 2013/11/27)

>  <Rbt.Parameter_File>
/export/apps/rDock/src/rDock_2013.1_src/data/scripts/dock_solv.prm

>  <Rbt.Receptor>
prm/blind_docking_80.prm

>  <SCORE>
-15.0571

>  <SCORE.INTER>
-9.48025

>  <SCORE.INTER.CONST>
1

>  <SCORE.INTER.POLAR>
0

>  <SCORE.INTER.ROT>
5

>  <SCORE.INTER.SOLV>
14.9632

>  <SCORE.INTER.VDW>
-18.2412

>  <SCORE.INTER.norm>
-0.43092

>  <SCORE.INTRA>
-5.57681

>  <SCORE.INTRA.DIHEDRAL>
-8.38618

>  <SCORE.INTRA.DIHEDRAL.0>
11.9251

>  <SCORE.INTRA.POLAR>
0

>  <SCORE.INTRA.POLAR.0>
0

>  <SCORE.INTRA.REPUL>
0

>  <SCORE.INTRA.REPUL.0>
0

>  <SCORE.INTRA.SOLV>
0.964747

>  <SCORE.INTRA.SOLV.lig_0>
-40.9823

>  <SCORE.INTRA.VDW>
-1.8661

>  <SCORE.INTRA.VDW.0>
-0.53506

>  <SCORE.INTRA.norm>
-0.253491

>  <SCORE.RESTR>
0

>  <SCORE.RESTR.CAVITY>
0

>  <SCORE.RESTR.norm>
0

>  <SCORE.SYSTEM>
0

>  <SCORE.SYSTEM.CONST>
0

>  <SCORE.SYSTEM.DIHEDRAL>
0

>  <SCORE.SYSTEM.SOLV>
0

>  <SCORE.SYSTEM.norm>
0

>  <SCORE.heavy>
22

>  <SCORE.norm>
-0.684412

>  <RMSD>
11.238

$$$$
lig.pdb
 OpenBabel11021811523D
libRbt.so/2013.1/901 2013/11/27
 22 23  0  0  0  0  0  0  0  0999 V2000
   54.7395   -9.0037    9.3597 O   0  0  0  0  0  0  0  0  0  0  0  0
   53.9048   -8.3323    8.8002 C   0  0  0  0  0  0  0  0  0  0  0  0
   53.0137   -8.8609    7.9803 N   0  0  0  0  0  0  0  0  0  0  0  0
   53.8852   -6.8744    8.9860 C   0  0  0  0  0  0  0  0  0  0  0  0
   54.9544   -6.0928    9.6116 C   0  0  0  0  0  0  0  0  0  0  0  0
   56.0983   -6.5953   10.1238 N   0  0  0  0  0  0  0  0  0  0  0  0
   52.9559   -5.9633    8.6566 N   0  0  0  0  0  0  0  0  0  0  0  0
   53.4126   -4.7315    9.0157 C   0  0  0  0  0  0  0  0  0  0  0  0
   54.6354   -4.8036    9.5941 N   0  0  0  0  0  0  0  0  0  0  0  0
   55.4265   -3.6512   10.1054 C   0  0  1  0  0  0  0  0  0  0  0  0
   56.6051   -3.4069    9.1882 C   0  0  1  0  0  0  0  0  0  0  0  0
   56.7102   -1.9049    9.1300 C   0  0  2  0  0  0  0  0  0  0  0  0
   57.5896   -1.4391   10.1613 O   0  0  0  0  0  0  0  0  0  0  0  0
   57.7976   -4.0176    9.7053 O   0  0  0  0  0  0  0  0  0  0  0  0
   54.6450   -2.4598   10.0675 O   0  0  0  0  0  0  0  0  0  0  0  0
   55.3192   -1.4058    9.4231 C   0  0  2  0  0  0  0  0  0  0  0  0
   54.4744   -1.0437    8.2191 C   0  0  0  0  0  0  0  0  0  0  0  0
   53.5834    0.0147    8.5052 O   0  0  0  0  0  0  0  0  0  0  0  0
   52.6514    0.5670    7.3309 P   0  0  0  0  0  0  0  0  0  0  0  0
   52.3108    1.9874    7.7351 O   0  0  0  0  0  0  0  0  0  0  0  0
   51.4952   -0.3989    7.3623 O   0  0  0  0  0  0  0  0  0  0  0  0
   53.5036    0.4001    6.1035 O   0  0  0  0  0  0  0  0  0  0  0  0
  2  1  2  0  0  0  0
  2  4  1  0  0  0  0
  3  2  1  0  0  0  0
  4  7  1  0  0  0  0
  4  5  2  0  0  0  0
  5  6  1  0  0  0  0
  5  9  1  0  0  0  0
  7  8  2  0  0  0  0
  8  9  1  0  0  0  0
 10  9  1  6  0  0  0
 10 15  1  0  0  0  0
 11 14  1  1  0  0  0
 11 12  1  0  0  0  0
 11 10  1  0  0  0  0
 12 13  1  1  0  0  0
 12 16  1  0  0  0  0
 16 17  1  6  0  0  0
 16 15  1  0  0  0  0
 18 19  1  0  0  0  0
 18 17  1  0  0  0  0
 19 21  1  0  0  0  0
 20 19  1  0  0  0  0
 22 19  2  0  0  0  0
M  END
>  <CHROM.1>
11.96203053,72.14488180,-147.94402326,-155.83698701,177.68138862,54.42285611
-3.19686912,8.76781069,1.37527133,0.45126667,3.03265826

>  <Name>
lig.pdb

>  <RI>
0

>  <Rbt.Current_Directory>
/home/afrankz/demos/rdock_decoys_rna/rnas/4znp

>  <Rbt.Executable>
rbdock ($Id: //depot/dev/client3/rdock/2013.1/src/exe/rbdock.cxx#4 $)

>  <Rbt.Library>
libRbt.so (2013.1, Build901 2013/11/27)

>  <Rbt.Parameter_File>
/export/apps/rDock/src/rDock_2013.1_src/data/scripts/dock_solv.prm

>  <Rbt.Receptor>
prm/blind_docking_60.prm

>  <SCORE>
7.23003

>  <SCORE.INTER>
6.91333

>  <SCORE.INTER.CONST>
1

>  <SCORE.INTER.POLAR>
0

>  <SCORE.INTER.ROT>
5

>  <SCORE.INTER.SOLV>
16.6314

>  <SCORE.INTER.VDW>
-7.86824

>  <SCORE.INTER.norm>
0.314242

>  <SCORE.INTRA>
-3.26325

>  <SCORE.INTRA.DIHEDRAL>
-5.14474

>  <SCORE.INTRA.DIHEDRAL.0>
11.9251

>  <SCORE.INTRA.POLAR>
0

>  <SCORE.INTRA.POLAR.0>
0

>  <SCORE.INTRA.REPUL>
0

>  <SCORE.INTRA.REPUL.0>
0

>  <SCORE.INTRA.SOLV>
0.286084

>  <SCORE.INTRA.SOLV.lig_0>
-40.9823

>  <SCORE.INTRA.VDW>
-0.833917

>  <SCORE.INTRA.VDW.0>
-0.53506

>  <SCORE.INTRA.norm>
-0.148329

>  <SCORE.RESTR>
3.57995

>  <SCORE.RESTR.CAVITY>
3.57995

>  <SCORE.RESTR.norm>
0.162725

>  <SCORE.SYSTEM>
0

>  <SCORE.SYSTEM.CONST>
0

>  <SCORE.SYSTEM.DIHEDRAL>
0

>  <SCORE.SYSTEM.SOLV>
0

>  <SCORE.SYSTEM.norm>
0

>  <SCORE.heavy>
22

>  <SCORE.norm>
0.328638

>  <RMSD>
11.245

$$$$
lig.pdb
 OpenBabel11021811523D
libRbt.so/2013.1/901 2013/11/27
 22 23  0  0  0  0  0  0  0  0999 V2000
   52.9992   -8.8783    8.0889 O   0  0  0  0  0  0  0  0  0  0  0  0
   53.8320   -8.3721    8.8035 C   0  0  0  0  0  0  0  0  0  0  0  0
   54.7135   -9.0933    9.4732 N   0  0  0  0  0  0  0  0  0  0  0  0
   53.8598   -6.9139    8.9852 C   0  0  0  0  0  0  0  0  0  0  0  0
   54.9893   -6.1565    9.5293 C   0  0  0  0  0  0  0  0  0  0  0  0
   56.1552   -6.6847    9.9592 N   0  0  0  0  0  0  0  0  0  0  0  0
   52.9305   -5.9818    8.7207 N   0  0  0  0  0  0  0  0  0  0  0  0
   53.4404   -4.7604    9.0417 C   0  0  0  0  0  0  0  0  0  0  0  0
   54.6999   -4.8602    9.5305 N   0  0  0  0  0  0  0  0  0  0  0  0
   55.5525   -3.7257    9.9794 C   0  0  1  0  0  0  0  0  0  0  0  0
   56.3656   -3.2170    8.8089 C   0  0  1  0  0  0  0  0  0  0  0  0
   56.3701   -1.7220    8.9969 C   0  0  2  0  0  0  0  0  0  0  0  0
   57.5061   -1.3343    9.7800 O   0  0  0  0  0  0  0  0  0  0  0  0
   57.6901   -3.7722    8.8196 O   0  0  0  0  0  0  0  0  0  0  0  0
   54.7396   -2.6324   10.3984 O   0  0  0  0  0  0  0  0  0  0  0  0
   55.1202   -1.4249    9.7838 C   0  0  2  0  0  0  0  0  0  0  0  0
   53.9201   -0.9688    8.9799 C   0  0  0  0  0  0  0  0  0  0  0  0
   54.2197    0.1644    8.1911 O   0  0  0  0  0  0  0  0  0  0  0  0
   53.1446    0.6509    7.1140 P   0  0  0  0  0  0  0  0  0  0  0  0
   53.3890   -0.2170    5.8958 O   0  0  0  0  0  0  0  0  0  0  0  0
   53.5025    2.1046    6.9426 O   0  0  0  0  0  0  0  0  0  0  0  0
   51.8325    0.4642    7.8240 O   0  0  0  0  0  0  0  0  0  0  0  0
  2  1  2  0  0  0  0
  2  4  1  0  0  0  0
  3  2  1  0  0  0  0
  4  7  1  0  0  0  0
  4  5  2  0  0  0  0
  5  6  1  0  0  0  0
  5  9  1  0  0  0  0
  7  8  2  0  0  0  0
  8  9  1  0  0  0  0
 10  9  1  6  0  0  0
 10 15  1  0  0  0  0
 11 14  1  1  0  0  0
 11 12  1  0  0  0  0
 11 10  1  0  0  0  0
 12 13  1  1  0  0  0
 12 16  1  0  0  0  0
 16 17  1  6  0  0  0
 16 15  1  0  0  0  0
 18 19  1  0  0  0  0
 18 17  1  0  0  0  0
 19 21  1  0  0  0  0
 20 19  1  0  0  0  0
 22 19  2  0  0  0  0
M  END
>  <CHROM.1>
-163.62761294,90.42590043,-55.57104480,-83.21863498,170.89535369,54.50518981
-3.15845931,8.67507606,1.46825674,0.45750216,2.99327796

>  <Name>
lig.pdb

>  <RI>
0

>  <Rbt.Current_Directory>
/home/afrankz/demos/rdock_decoys_rna/rnas/4znp

>  <Rbt.Executable>
rbdock ($Id: //depot/dev/client3/rdock/2013.1/src/exe/rbdock.cxx#4 $)

>  <Rbt.Library>
libRbt.so (2013.1, Build901 2013/11/27)

>  <Rbt.Parameter_File>
/export/apps/rDock/src/rDock_2013.1_src/data/scripts/dock_solv.prm

>  <Rbt.Receptor>
prm/blind_docking_60.prm

>  <SCORE>
2.26062

>  <SCORE.INTER>
3.95914

>  <SCORE.INTER.CONST>
1

>  <SCORE.INTER.POLAR>
0

>  <SCORE.INTER.ROT>
5

>  <SCORE.INTER.SOLV>
15.5157

>  <SCORE.INTER.VDW>
-9.4658

>  <SCORE.INTER.norm>
0.179961

>  <SCORE.INTRA>
-4.52466

>  <SCORE.INTRA.DIHEDRAL>
-7.32618

>  <SCORE.INTRA.DIHEDRAL.0>
11.9251

>  <SCORE.INTRA.POLAR>
0

>  <SCORE.INTRA.POLAR.0>
0

>  <SCORE.INTRA.REPUL>
0

>  <SCORE.INTRA.REPUL.0>
0

>  <SCORE.INTRA.SOLV>
0.517261

>  <SCORE.INTRA.SOLV.lig_0>
-40.9823

>  <SCORE.INTRA.VDW>
-1.1202

>  <SCORE.INTRA.VDW.0>
-0.53506

>  <SCORE.INTRA.norm>
-0.205666

>  <SCORE.RESTR>
2.82615

>  <SCORE.RESTR.CAVITY>
2.82615

>  <SCORE.RESTR.norm>
0.128461

>  <SCORE.SYSTEM>
0

>  <SCORE.SYSTEM.CONST>
0

>  <SCORE.SYSTEM.DIHEDRAL>
0

>  <SCORE.SYSTEM.SOLV>
0

>  <SCORE.SYSTEM.norm>
0

>  <SCORE.heavy>
22

>  <SCORE.norm>
0.102756

>  <RMSD>
11.252

$$$$
lig.pdb
 OpenBabel11021811523D
libRbt.so/2013.1/901 2013/11/27
 22 23  0  0  0  0  0  0  0  0999 V2000
   64.2609  -17.6194   -0.3859 O   0  0  0  0  0  0  0  0  0  0  0  0
   64.7581  -17.7895    0.7024 C   0  0  0  0  0  0  0  0  0  0  0  0
   65.0669  -18.9929    1.1521 N   0  0  0  0  0  0  0  0  0  0  0  0
   64.9974  -16.6435    1.5911 C   0  0  0  0  0  0  0  0  0  0  0  0
   64.5904  -15.2645    1.3118 C   0  0  0  0  0  0  0  0  0  0  0  0
   63.9577  -14.8428    0.1959 N   0  0  0  0  0  0  0  0  0  0  0  0
   65.6024  -16.5762    2.7877 N   0  0  0  0  0  0  0  0  0  0  0  0
   65.5527  -15.2873    3.2246 C   0  0  0  0  0  0  0  0  0  0  0  0
   64.9305  -14.4825    2.3301 N   0  0  0  0  0  0  0  0  0  0  0  0
   64.7024  -13.0198    2.4854 C   0  0  1  0  0  0  0  0  0  0  0  0
   65.8854  -12.2658    1.9176 C   0  0  1  0  0  0  0  0  0  0  0  0
   65.2608  -11.0718    1.2435 C   0  0  2  0  0  0  0  0  0  0  0  0
   65.1805   -9.9791    2.1674 O   0  0  0  0  0  0  0  0  0  0  0  0
   66.8037  -11.8881    2.9552 O   0  0  0  0  0  0  0  0  0  0  0  0
   63.5717  -12.6121    1.7193 O   0  0  0  0  0  0  0  0  0  0  0  0
   63.8620  -11.5095    0.8943 C   0  0  2  0  0  0  0  0  0  0  0  0
   63.6487  -11.9843   -0.5282 C   0  0  0  0  0  0  0  0  0  0  0  0
   63.8184  -10.9360   -1.4599 O   0  0  0  0  0  0  0  0  0  0  0  0
   63.4957  -11.2219   -2.9983 P   0  0  0  0  0  0  0  0  0  0  0  0
   63.8354   -9.9317   -3.7172 O   0  0  0  0  0  0  0  0  0  0  0  0
   62.0279  -11.5608   -2.9572 O   0  0  0  0  0  0  0  0  0  0  0  0
   64.3504  -12.4174   -3.3162 O   0  0  0  0  0  0  0  0  0  0  0  0
  2  1  2  0  0  0  0
  2  4  1  0  0  0  0
  3  2  1  0  0  0  0
  4  7  1  0  0  0  0
  4  5  2  0  0  0  0
  5  6  1  0  0  0  0
  5  9  1  0  0  0  0
  7  8  2  0  0  0  0
  8  9  1  0  0  0  0
 10  9  1  6  0  0  0
 10 15  1  0  0  0  0
 11 14  1  1  0  0  0
 11 12  1  0  0  0  0
 11 10  1  0  0  0  0
 12 13  1  1  0  0  0
 12 16  1  0  0  0  0
 16 17  1  6  0  0  0
 16 15  1  0  0  0  0
 18 19  1  0  0  0  0
 18 17  1  0  0  0  0
 19 21  1  0  0  0  0
 20 19  1  0  0  0  0
 22 19  2  0  0  0  0
M  END
>  <CHROM.1>
4.61549706,-90.07880128,-66.20549204,-177.58947112,-174.28224821,64.47117642
-13.31155119,0.24476834,0.95038459,1.20985893,3.09786794

>  <Name>
lig.pdb

>  <RI>
0

>  <Rbt.Current_Directory>
/home/itssahil/PROJECTS/Mol_Feturizer/New_Systems/rnas/4znp

>  <Rbt.Executable>
rbdock ($Id: //depot/dev/client3/rdock/2013.1/src/exe/rbdock.cxx#4 $)

>  <Rbt.Library>
libRbt.so (2013.1, Build901 2013/11/27)

>  <Rbt.Parameter_File>
/export/apps/rDock/src/rDock_2013.1_src/data/scripts/dock_solv.prm

>  <Rbt.Receptor>
prm/blind_docking_80.prm

>  <SCORE>
-16.9689

>  <SCORE.INTER>
-11.577

>  <SCORE.INTER.CONST>
1

>  <SCORE.INTER.POLAR>
0

>  <SCORE.INTER.ROT>
5

>  <SCORE.INTER.SOLV>
14.303

>  <SCORE.INTER.VDW>
-19.419

>  <SCORE.INTER.norm>
-0.526229

>  <SCORE.INTRA>
-5.39184

>  <SCORE.INTRA.DIHEDRAL>
-9.04329

>  <SCORE.INTRA.DIHEDRAL.0>
11.9251

>  <SCORE.INTRA.POLAR>
0

>  <SCORE.INTRA.POLAR.0>
0

>  <SCORE.INTRA.REPUL>
0

>  <SCORE.INTRA.REPUL.0>
0

>  <SCORE.INTRA.SOLV>
1.0827

>  <SCORE.INTRA.SOLV.lig_0>
-40.9823

>  <SCORE.INTRA.VDW>
-1.41155

>  <SCORE.INTRA.VDW.0>
-0.53506

>  <SCORE.INTRA.norm>
-0.245084

>  <SCORE.RESTR>
0

>  <SCORE.RESTR.CAVITY>
0

>  <SCORE.RESTR.norm>
0

>  <SCORE.SYSTEM>
0

>  <SCORE.SYSTEM.CONST>
0

>  <SCORE.SYSTEM.DIHEDRAL>
0

>  <SCORE.SYSTEM.SOLV>
0

>  <SCORE.SYSTEM.norm>
0

>  <SCORE.heavy>
22

>  <SCORE.norm>
-0.771312

>  <RMSD>
11.282

$$$$
lig.pdb
 OpenBabel11021811523D
libRbt.so/2013.1/901 2013/11/27
 22 23  0  0  0  0  0  0  0  0999 V2000
   65.0665  -18.9265    0.9400 O   0  0  0  0  0  0  0  0  0  0  0  0
   64.8375  -17.7923    0.5911 C   0  0  0  0  0  0  0  0  0  0  0  0
   64.4690  -17.4992   -0.6434 N   0  0  0  0  0  0  0  0  0  0  0  0
   65.0084  -16.6809    1.5375 C   0  0  0  0  0  0  0  0  0  0  0  0
   64.7345  -15.2734    1.2386 C   0  0  0  0  0  0  0  0  0  0  0  0
   64.3067  -14.7910    0.0521 N   0  0  0  0  0  0  0  0  0  0  0  0
   65.4265  -16.6750    2.8132 N   0  0  0  0  0  0  0  0  0  0  0  0
   65.3901  -15.3938    3.2736 C   0  0  0  0  0  0  0  0  0  0  0  0
   64.9625  -14.5340    2.3182 N   0  0  0  0  0  0  0  0  0  0  0  0
   64.8039  -13.0627    2.4781 C   0  0  1  0  0  0  0  0  0  0  0  0
   65.9737  -12.3593    1.8247 C   0  0  1  0  0  0  0  0  0  0  0  0
   65.3518  -11.1442    1.1864 C   0  0  2  0  0  0  0  0  0  0  0  0
   65.3790  -10.0450    2.1057 O   0  0  0  0  0  0  0  0  0  0  0  0
   66.9758  -12.0139    2.7937 O   0  0  0  0  0  0  0  0  0  0  0  0
   63.6400  -12.6134    1.7888 O   0  0  0  0  0  0  0  0  0  0  0  0
   63.9160  -11.5271    0.9377 C   0  0  2  0  0  0  0  0  0  0  0  0
   63.5862  -11.9995   -0.4632 C   0  0  0  0  0  0  0  0  0  0  0  0
   63.7883  -10.9795   -1.4196 O   0  0  0  0  0  0  0  0  0  0  0  0
   63.4236  -11.2806   -2.9457 P   0  0  0  0  0  0  0  0  0  0  0  0
   63.8045  -10.0203   -3.6964 O   0  0  0  0  0  0  0  0  0  0  0  0
   61.9438  -11.5546   -2.8704 O   0  0  0  0  0  0  0  0  0  0  0  0
   64.2198  -12.5179   -3.2556 O   0  0  0  0  0  0  0  0  0  0  0  0
  2  1  2  0  0  0  0
  2  4  1  0  0  0  0
  3  2  1  0  0  0  0
  4  7  1  0  0  0  0
  4  5  2  0  0  0  0
  5  6  1  0  0  0  0
  5  9  1  0  0  0  0
  7  8  2  0  0  0  0
  8  9  1  0  0  0  0
 10  9  1  6  0  0  0
 10 15  1  0  0  0  0
 11 14  1  1  0  0  0
 11 12  1  0  0  0  0
 11 10  1  0  0  0  0
 12 13  1  1  0  0  0
 12 16  1  0  0  0  0
 16 17  1  6  0  0  0
 16 15  1  0  0  0  0
 18 19  1  0  0  0  0
 18 17  1  0  0  0  0
 19 21  1  0  0  0  0
 20 19  1  0  0  0  0
 22 19  2  0  0  0  0
M  END
>  <CHROM.1>
-178.60137758,-77.19019041,-63.64221658,-177.87131089,-177.16924866,64.50738274
-13.35709964,0.22645544,0.92948601,1.19355711,3.12478835

>  <Name>
lig.pdb

>  <RI>
0

>  <Rbt.Current_Directory>
/home/itssahil/PROJECTS/Mol_Feturizer/New_Systems/rnas/4znp

>  <Rbt.Executable>
rbdock ($Id: //depot/dev/client3/rdock/2013.1/src/exe/rbdock.cxx#4 $)

>  <Rbt.Library>
libRbt.so (2013.1, Build901 2013/11/27)

>  <Rbt.Parameter_File>
/export/apps/rDock/src/rDock_2013.1_src/data/scripts/dock_solv.prm

>  <Rbt.Receptor>
prm/blind_docking_80.prm

>  <SCORE>
-16.7998

>  <SCORE.INTER>
-11.3678

>  <SCORE.INTER.CONST>
1

>  <SCORE.INTER.POLAR>
0

>  <SCORE.INTER.ROT>
5

>  <SCORE.INTER.SOLV>
13.9418

>  <SCORE.INTER.VDW>
-19.1591

>  <SCORE.INTER.norm>
-0.516718

>  <SCORE.INTRA>
-5.43198

>  <SCORE.INTRA.DIHEDRAL>
-9.35519

>  <SCORE.INTRA.DIHEDRAL.0>
11.9251

>  <SCORE.INTRA.POLAR>
0

>  <SCORE.INTRA.POLAR.0>
0

>  <SCORE.INTRA.REPUL>
0

>  <SCORE.INTRA.REPUL.0>
0

>  <SCORE.INTRA.SOLV>
1.47807

>  <SCORE.INTRA.SOLV.lig_0>
-40.9823

>  <SCORE.INTRA.VDW>
-1.49342

>  <SCORE.INTRA.VDW.0>
-0.53506

>  <SCORE.INTRA.norm>
-0.246908

>  <SCORE.RESTR>
0

>  <SCORE.RESTR.CAVITY>
0

>  <SCORE.RESTR.norm>
0

>  <SCORE.SYSTEM>
0

>  <SCORE.SYSTEM.CONST>
0

>  <SCORE.SYSTEM.DIHEDRAL>
0

>  <SCORE.SYSTEM.SOLV>
0

>  <SCORE.SYSTEM.norm>
0

>  <SCORE.heavy>
22

>  <SCORE.norm>
-0.763626

>  <RMSD>
11.296

$$$$
lig.pdb
 OpenBabel11021811523D
libRbt.so/2013.1/901 2013/11/27
 22 23  0  0  0  0  0  0  0  0999 V2000
   64.8051  -18.7745    0.1805 O   0  0  0  0  0  0  0  0  0  0  0  0
   65.0294  -17.6030   -0.0132 C   0  0  0  0  0  0  0  0  0  0  0  0
   65.6485  -17.1777   -1.1002 N   0  0  0  0  0  0  0  0  0  0  0  0
   64.6514  -16.6031    0.9956 C   0  0  0  0  0  0  0  0  0  0  0  0
   64.8424  -15.1574    0.8582 C   0  0  0  0  0  0  0  0  0  0  0  0
   65.4079  -14.5366   -0.1992 N   0  0  0  0  0  0  0  0  0  0  0  0
   64.0818  -16.7505    2.2024 N   0  0  0  0  0  0  0  0  0  0  0  0
   63.9088  -15.5163    2.7517 C   0  0  0  0  0  0  0  0  0  0  0  0
   64.3660  -14.5389    1.9328 N   0  0  0  0  0  0  0  0  0  0  0  0
   64.3350  -13.0783    2.2178 C   0  0  1  0  0  0  0  0  0  0  0  0
   65.7026  -12.4874    1.9518 C   0  0  1  0  0  0  0  0  0  0  0  0
   65.4011  -11.1502    1.3263 C   0  0  2  0  0  0  0  0  0  0  0  0
   65.3146  -10.1458    2.3451 O   0  0  0  0  0  0  0  0  0  0  0  0
   66.4573  -12.3635    3.1673 O   0  0  0  0  0  0  0  0  0  0  0  0
   63.4412  -12.4194    1.3241 O   0  0  0  0  0  0  0  0  0  0  0  0
   64.0425  -11.3129    0.6957 C   0  0  2  0  0  0  0  0  0  0  0  0
   64.0295  -11.6171   -0.7882 C   0  0  0  0  0  0  0  0  0  0  0  0
   62.7426  -11.4452   -1.3454 O   0  0  0  0  0  0  0  0  0  0  0  0
   62.5465  -11.7073   -2.9092 P   0  0  0  0  0  0  0  0  0  0  0  0
   61.1000  -11.3516   -3.1885 O   0  0  0  0  0  0  0  0  0  0  0  0
   62.8767  -13.1727   -3.0293 O   0  0  0  0  0  0  0  0  0  0  0  0
   63.5917  -10.8312   -3.5421 O   0  0  0  0  0  0  0  0  0  0  0  0
  2  1  2  0  0  0  0
  2  4  1  0  0  0  0
  3  2  1  0  0  0  0
  4  7  1  0  0  0  0
  4  5  2  0  0  0  0
  5  6  1  0  0  0  0
  5  9  1  0  0  0  0
  7  8  2  0  0  0  0
  8  9  1  0  0  0  0
 10  9  1  6  0  0  0
 10 15  1  0  0  0  0
 11 14  1  1  0  0  0
 11 12  1  0  0  0  0
 11 10  1  0  0  0  0
 12 13  1  1  0  0  0
 12 16  1  0  0  0  0
 16 17  1  6  0  0  0
 16 15  1  0  0  0  0
 18 19  1  0  0  0  0
 18 17  1  0  0  0  0
 19 21  1  0  0  0  0
 20 19  1  0  0  0  0
 22 19  2  0  0  0  0
M  END
>  <CHROM.1>
-178.44034012,-48.66833417,-166.28177059,-176.43463583,179.30879726,64.15805865
-13.43704057,0.03537457,0.71365062,1.13171932,-2.95189851

>  <Name>
lig.pdb

>  <RI>
0

>  <Rbt.Current_Directory>
/home/itssahil/PROJECTS/Mol_Feturizer/New_Systems/rnas/4znp

>  <Rbt.Executable>
rbdock ($Id: //depot/dev/client3/rdock/2013.1/src/exe/rbdock.cxx#4 $)

>  <Rbt.Library>
libRbt.so (2013.1, Build901 2013/11/27)

>  <Rbt.Parameter_File>
/export/apps/rDock/src/rDock_2013.1_src/data/scripts/dock_solv.prm

>  <Rbt.Receptor>
prm/blind_docking_80.prm

>  <SCORE>
-19.0727

>  <SCORE.INTER>
-13.694

>  <SCORE.INTER.CONST>
1

>  <SCORE.INTER.POLAR>
0

>  <SCORE.INTER.ROT>
5

>  <SCORE.INTER.SOLV>
16.8045

>  <SCORE.INTER.VDW>
-21.6642

>  <SCORE.INTER.norm>
-0.622456

>  <SCORE.INTRA>
-5.37862

>  <SCORE.INTRA.DIHEDRAL>
-8.83033

>  <SCORE.INTRA.DIHEDRAL.0>
11.9251

>  <SCORE.INTRA.POLAR>
0

>  <SCORE.INTRA.POLAR.0>
0

>  <SCORE.INTRA.REPUL>
0

>  <SCORE.INTRA.REPUL.0>
0

>  <SCORE.INTRA.SOLV>
1.33791

>  <SCORE.INTRA.SOLV.lig_0>
-40.9823

>  <SCORE.INTRA.VDW>
-1.6324

>  <SCORE.INTRA.VDW.0>
-0.53506

>  <SCORE.INTRA.norm>
-0.244483

>  <SCORE.RESTR>
0

>  <SCORE.RESTR.CAVITY>
0

>  <SCORE.RESTR.norm>
0

>  <SCORE.SYSTEM>
0

>  <SCORE.SYSTEM.CONST>
0

>  <SCORE.SYSTEM.DIHEDRAL>
0

>  <SCORE.SYSTEM.SOLV>
0

>  <SCORE.SYSTEM.norm>
0

>  <SCORE.heavy>
22

>  <SCORE.norm>
-0.866939

>  <RMSD>
11.373

$$$$
lig.pdb
 OpenBabel11021811523D
libRbt.so/2013.1/901 2013/11/27
 22 23  0  0  0  0  0  0  0  0999 V2000
   65.6481  -17.2162   -1.0292 O   0  0  0  0  0  0  0  0  0  0  0  0
   65.1280  -17.5768    0.0003 C   0  0  0  0  0  0  0  0  0  0  0  0
   64.8770  -18.8495    0.2510 N   0  0  0  0  0  0  0  0  0  0  0  0
   64.7122  -16.5858    1.0030 C   0  0  0  0  0  0  0  0  0  0  0  0
   64.8796  -15.1367    0.8716 C   0  0  0  0  0  0  0  0  0  0  0  0
   65.4543  -14.5038   -0.1736 N   0  0  0  0  0  0  0  0  0  0  0  0
   64.1219  -16.7457    2.1982 N   0  0  0  0  0  0  0  0  0  0  0  0
   63.9157  -15.5160    2.7458 C   0  0  0  0  0  0  0  0  0  0  0  0
   64.3710  -14.5289    1.9375 N   0  0  0  0  0  0  0  0  0  0  0  0
   64.3080  -13.0697    2.2240 C   0  0  1  0  0  0  0  0  0  0  0  0
   65.6734  -12.4564    2.0011 C   0  0  1  0  0  0  0  0  0  0  0  0
   65.3698  -11.1227    1.3691 C   0  0  2  0  0  0  0  0  0  0  0  0
   65.2361  -10.1222    2.3866 O   0  0  0  0  0  0  0  0  0  0  0  0
   66.3884  -12.3232    3.2395 O   0  0  0  0  0  0  0  0  0  0  0  0
   63.4315  -12.4231    1.3046 O   0  0  0  0  0  0  0  0  0  0  0  0
   64.0339  -11.3057    0.6969 C   0  0  2  0  0  0  0  0  0  0  0  0
   64.0712  -11.6066   -0.7872 C   0  0  0  0  0  0  0  0  0  0  0  0
   62.7901  -11.5024   -1.3738 O   0  0  0  0  0  0  0  0  0  0  0  0
   62.6568  -11.6893   -2.9549 P   0  0  0  0  0  0  0  0  0  0  0  0
   63.5740  -10.6414   -3.5528 O   0  0  0  0  0  0  0  0  0  0  0  0
   61.1859  -11.4513   -3.1797 O   0  0  0  0  0  0  0  0  0  0  0  0
   63.0434  -13.1264   -3.1687 O   0  0  0  0  0  0  0  0  0  0  0  0
  2  1  2  0  0  0  0
  2  4  1  0  0  0  0
  3  2  1  0  0  0  0
  4  7  1  0  0  0  0
  4  5  2  0  0  0  0
  5  6  1  0  0  0  0
  5  9  1  0  0  0  0
  7  8  2  0  0  0  0
  8  9  1  0  0  0  0
 10  9  1  6  0  0  0
 10 15  1  0  0  0  0
 11 14  1  1  0  0  0
 11 12  1  0  0  0  0
 11 10  1  0  0  0  0
 12 13  1  1  0  0  0
 12 16  1  0  0  0  0
 16 17  1  6  0  0  0
 16 15  1  0  0  0  0
 18 19  1  0  0  0  0
 18 17  1  0  0  0  0
 19 21  1  0  0  0  0
 20 19  1  0  0  0  0
 22 19  2  0  0  0  0
M  END
>  <CHROM.1>
-0.26374216,-49.31312431,-168.47318867,-57.34444191,175.89073007,64.19188898
-13.41624569,0.03223446,0.66472161,1.15702675,-2.90660934

>  <Name>
lig.pdb

>  <RI>
0

>  <Rbt.Current_Directory>
/home/itssahil/PROJECTS/Mol_Feturizer/New_Systems/rnas/4znp

>  <Rbt.Executable>
rbdock ($Id: //depot/dev/client3/rdock/2013.1/src/exe/rbdock.cxx#4 $)

>  <Rbt.Library>
libRbt.so (2013.1, Build901 2013/11/27)

>  <Rbt.Parameter_File>
/export/apps/rDock/src/rDock_2013.1_src/data/scripts/dock_solv.prm

>  <Rbt.Receptor>
prm/blind_docking_80.prm

>  <SCORE>
-19.5648

>  <SCORE.INTER>
-13.7995

>  <SCORE.INTER.CONST>
1

>  <SCORE.INTER.POLAR>
0

>  <SCORE.INTER.ROT>
5

>  <SCORE.INTER.SOLV>
16.4863

>  <SCORE.INTER.VDW>
-21.6285

>  <SCORE.INTER.norm>
-0.627252

>  <SCORE.INTRA>
-5.7653

>  <SCORE.INTRA.DIHEDRAL>
-8.96511

>  <SCORE.INTRA.DIHEDRAL.0>
11.9251

>  <SCORE.INTRA.POLAR>
0

>  <SCORE.INTRA.POLAR.0>
0

>  <SCORE.INTRA.REPUL>
0

>  <SCORE.INTRA.REPUL.0>
0

>  <SCORE.INTRA.SOLV>
1.10115

>  <SCORE.INTRA.SOLV.lig_0>
-40.9823

>  <SCORE.INTRA.VDW>
-1.83332

>  <SCORE.INTRA.VDW.0>
-0.53506

>  <SCORE.INTRA.norm>
-0.262059

>  <SCORE.RESTR>
0

>  <SCORE.RESTR.CAVITY>
0

>  <SCORE.RESTR.norm>
0

>  <SCORE.SYSTEM>
0

>  <SCORE.SYSTEM.CONST>
0

>  <SCORE.SYSTEM.DIHEDRAL>
0

>  <SCORE.SYSTEM.SOLV>
0

>  <SCORE.SYSTEM.norm>
0

>  <SCORE.heavy>
22

>  <SCORE.norm>
-0.889311

>  <RMSD>
11.381

$$$$
lig.pdb
 OpenBabel11021811523D
libRbt.so/2013.1/901 2013/11/27
 22 23  0  0  0  0  0  0  0  0999 V2000
   65.4852  -18.8979    0.1550 O   0  0  0  0  0  0  0  0  0  0  0  0
   65.5546  -17.7037   -0.0170 C   0  0  0  0  0  0  0  0  0  0  0  0
   66.0107  -17.1825   -1.1422 N   0  0  0  0  0  0  0  0  0  0  0  0
   65.1668  -16.7799    1.0584 C   0  0  0  0  0  0  0  0  0  0  0  0
   65.1334  -15.3203    0.9407 C   0  0  0  0  0  0  0  0  0  0  0  0
   65.4705  -14.6129   -0.1590 N   0  0  0  0  0  0  0  0  0  0  0  0
   64.7775  -17.0211    2.3204 N   0  0  0  0  0  0  0  0  0  0  0  0
   64.5012  -15.8309    2.9219 C   0  0  0  0  0  0  0  0  0  0  0  0
   64.7110  -14.7888    2.0823 N   0  0  0  0  0  0  0  0  0  0  0  0
   64.5097  -13.3511    2.4109 C   0  0  1  0  0  0  0  0  0  0  0  0
   65.7665  -12.5794    2.0717 C   0  0  1  0  0  0  0  0  0  0  0  0
   65.2502  -11.2816    1.5067 C   0  0  2  0  0  0  0  0  0  0  0  0
   65.1047  -10.3180    2.5576 O   0  0  0  0  0  0  0  0  0  0  0  0
   66.5815  -12.3811    3.2375 O   0  0  0  0  0  0  0  0  0  0  0  0
   63.4774  -12.7984    1.5981 O   0  0  0  0  0  0  0  0  0  0  0  0
   63.8838  -11.6098    0.9634 C   0  0  2  0  0  0  0  0  0  0  0  0
   63.8071  -11.8834   -0.5245 C   0  0  0  0  0  0  0  0  0  0  0  0
   64.1186  -10.7334   -1.2838 O   0  0  0  0  0  0  0  0  0  0  0  0
   64.1589  -10.8577   -2.8761 P   0  0  0  0  0  0  0  0  0  0  0  0
   65.2808  -11.8346   -3.1654 O   0  0  0  0  0  0  0  0  0  0  0  0
   64.4270   -9.4363   -3.2988 O   0  0  0  0  0  0  0  0  0  0  0  0
   62.7666  -11.3057   -3.2250 O   0  0  0  0  0  0  0  0  0  0  0  0
  2  1  2  0  0  0  0
  2  4  1  0  0  0  0
  3  2  1  0  0  0  0
  4  7  1  0  0  0  0
  4  5  2  0  0  0  0
  5  6  1  0  0  0  0
  5  9  1  0  0  0  0
  7  8  2  0  0  0  0
  8  9  1  0  0  0  0
 10  9  1  6  0  0  0
 10 15  1  0  0  0  0
 11 14  1  1  0  0  0
 11 12  1  0  0  0  0
 11 10  1  0  0  0  0
 12 13  1  1  0  0  0
 12 16  1  0  0  0  0
 16 17  1  6  0  0  0
 16 15  1  0  0  0  0
 18 19  1  0  0  0  0
 18 17  1  0  0  0  0
 19 21  1  0  0  0  0
 20 19  1  0  0  0  0
 22 19  2  0  0  0  0
M  END
>  <CHROM.1>
-176.21510688,-51.86972508,-65.50530186,-63.19298185,176.98456542,64.76604614
-13.31823313,0.13498663,0.28292214,1.40708460,-2.37281071

>  <Name>
lig.pdb

>  <RI>
0

>  <Rbt.Current_Directory>
/home/itssahil/PROJECTS/Mol_Feturizer/New_Systems/rnas/4znp

>  <Rbt.Executable>
rbdock ($Id: //depot/dev/client3/rdock/2013.1/src/exe/rbdock.cxx#4 $)

>  <Rbt.Library>
libRbt.so (2013.1, Build901 2013/11/27)

>  <Rbt.Parameter_File>
/export/apps/rDock/src/rDock_2013.1_src/data/scripts/dock_solv.prm

>  <Rbt.Receptor>
prm/blind_docking_80.prm

>  <SCORE>
-16.6175

>  <SCORE.INTER>
-10.8516

>  <SCORE.INTER.CONST>
1

>  <SCORE.INTER.POLAR>
0

>  <SCORE.INTER.ROT>
5

>  <SCORE.INTER.SOLV>
16.8381

>  <SCORE.INTER.VDW>
-19.7805

>  <SCORE.INTER.norm>
-0.493256

>  <SCORE.INTRA>
-5.76591

>  <SCORE.INTRA.DIHEDRAL>
-9.27677

>  <SCORE.INTRA.DIHEDRAL.0>
11.9251

>  <SCORE.INTRA.POLAR>
0

>  <SCORE.INTRA.POLAR.0>
0

>  <SCORE.INTRA.REPUL>
0

>  <SCORE.INTRA.REPUL.0>
0

>  <SCORE.INTRA.SOLV>
1.39514

>  <SCORE.INTRA.SOLV.lig_0>
-40.9823

>  <SCORE.INTRA.VDW>
-1.8251

>  <SCORE.INTRA.VDW.0>
-0.53506

>  <SCORE.INTRA.norm>
-0.262087

>  <SCORE.RESTR>
0

>  <SCORE.RESTR.CAVITY>
0

>  <SCORE.RESTR.norm>
0

>  <SCORE.SYSTEM>
0

>  <SCORE.SYSTEM.CONST>
0

>  <SCORE.SYSTEM.DIHEDRAL>
0

>  <SCORE.SYSTEM.SOLV>
0

>  <SCORE.SYSTEM.norm>
0

>  <SCORE.heavy>
22

>  <SCORE.norm>
-0.755343

>  <RMSD>
11.458

$$$$
lig.pdb
 OpenBabel11021811523D
libRbt.so/2013.1/901 2013/11/27
 22 23  0  0  0  0  0  0  0  0999 V2000
   65.5199  -18.8938   -0.2151 O   0  0  0  0  0  0  0  0  0  0  0  0
   65.1659  -18.2163    0.7210 C   0  0  0  0  0  0  0  0  0  0  0  0
   64.7147  -18.7501    1.8422 N   0  0  0  0  0  0  0  0  0  0  0  0
   65.1867  -16.7502    0.6198 C   0  0  0  0  0  0  0  0  0  0  0  0
   64.8160  -15.8285    1.6961 C   0  0  0  0  0  0  0  0  0  0  0  0
   64.3848  -16.1876    2.9243 N   0  0  0  0  0  0  0  0  0  0  0  0
   65.5229  -15.9489   -0.4036 N   0  0  0  0  0  0  0  0  0  0  0  0
   65.4010  -14.6549    0.0032 C   0  0  0  0  0  0  0  0  0  0  0  0
   64.9754  -14.5750    1.2867 N   0  0  0  0  0  0  0  0  0  0  0  0
   64.7345  -13.3190    2.0481 C   0  0  1  0  0  0  0  0  0  0  0  0
   65.9971  -12.4847    2.0497 C   0  0  1  0  0  0  0  0  0  0  0  0
   65.4947  -11.0717    1.9031 C   0  0  2  0  0  0  0  0  0  0  0  0
   65.2754  -10.4974    3.1977 O   0  0  0  0  0  0  0  0  0  0  0  0
   66.7413  -12.6761    3.2630 O   0  0  0  0  0  0  0  0  0  0  0  0
   63.7422  -12.5294    1.3972 O   0  0  0  0  0  0  0  0  0  0  0  0
   64.1665  -11.2015    1.2038 C   0  0  2  0  0  0  0  0  0  0  0  0
   64.1788  -10.9808   -0.2947 C   0  0  0  0  0  0  0  0  0  0  0  0
   65.2146  -11.7090   -0.9215 O   0  0  0  0  0  0  0  0  0  0  0  0
   65.4955  -11.4548   -2.4736 P   0  0  0  0  0  0  0  0  0  0  0  0
   64.1948  -11.8014   -3.1699 O   0  0  0  0  0  0  0  0  0  0  0  0
   66.6367  -12.3998   -2.7486 O   0  0  0  0  0  0  0  0  0  0  0  0
   65.9222  -10.0138   -2.5180 O   0  0  0  0  0  0  0  0  0  0  0  0
  2  1  2  0  0  0  0
  2  4  1  0  0  0  0
  3  2  1  0  0  0  0
  4  7  1  0  0  0  0
  4  5  2  0  0  0  0
  5  6  1  0  0  0  0
  5  9  1  0  0  0  0
  7  8  2  0  0  0  0
  8  9  1  0  0  0  0
 10  9  1  6  0  0  0
 10 15  1  0  0  0  0
 11 14  1  1  0  0  0
 11 12  1  0  0  0  0
 11 10  1  0  0  0  0
 12 13  1  1  0  0  0
 12 16  1  0  0  0  0
 16 17  1  6  0  0  0
 16 15  1  0  0  0  0
 18 19  1  0  0  0  0
 18 17  1  0  0  0  0
 19 21  1  0  0  0  0
 20 19  1  0  0  0  0
 22 19  2  0  0  0  0
M  END
>  <CHROM.1>
-178.30367848,124.07669720,47.99143389,-59.43901073,-172.39422610,65.18932518
-13.51140792,0.30669028,-2.14927196,1.51496565,0.21455267

>  <Name>
lig.pdb

>  <RI>
0

>  <Rbt.Current_Directory>
/home/itssahil/PROJECTS/Mol_Feturizer/New_Systems/rnas/4znp

>  <Rbt.Executable>
rbdock ($Id: //depot/dev/client3/rdock/2013.1/src/exe/rbdock.cxx#4 $)

>  <Rbt.Library>
libRbt.so (2013.1, Build901 2013/11/27)

>  <Rbt.Parameter_File>
/export/apps/rDock/src/rDock_2013.1_src/data/scripts/dock_solv.prm

>  <Rbt.Receptor>
prm/blind_docking_80.prm

>  <SCORE>
-15.3705

>  <SCORE.INTER>
-9.32931

>  <SCORE.INTER.CONST>
1

>  <SCORE.INTER.POLAR>
0

>  <SCORE.INTER.ROT>
5

>  <SCORE.INTER.SOLV>
17.1671

>  <SCORE.INTER.VDW>
-18.8752

>  <SCORE.INTER.norm>
-0.42406

>  <SCORE.INTRA>
-6.04115

>  <SCORE.INTRA.DIHEDRAL>
-8.68013

>  <SCORE.INTRA.DIHEDRAL.0>
11.9251

>  <SCORE.INTRA.POLAR>
0

>  <SCORE.INTRA.POLAR.0>
0

>  <SCORE.INTRA.REPUL>
0

>  <SCORE.INTRA.REPUL.0>
0

>  <SCORE.INTRA.SOLV>
0.692721

>  <SCORE.INTRA.SOLV.lig_0>
-40.9823

>  <SCORE.INTRA.VDW>
-2.04745

>  <SCORE.INTRA.VDW.0>
-0.53506

>  <SCORE.INTRA.norm>
-0.274598

>  <SCORE.RESTR>
0

>  <SCORE.RESTR.CAVITY>
0

>  <SCORE.RESTR.norm>
0

>  <SCORE.SYSTEM>
0

>  <SCORE.SYSTEM.CONST>
0

>  <SCORE.SYSTEM.DIHEDRAL>
0

>  <SCORE.SYSTEM.SOLV>
0

>  <SCORE.SYSTEM.norm>
0

>  <SCORE.heavy>
22

>  <SCORE.norm>
-0.698657

>  <RMSD>
11.461

$$$$
lig.pdb
 OpenBabel11021811523D
libRbt.so/2013.1/901 2013/11/27
 22 23  0  0  0  0  0  0  0  0999 V2000
   66.6766  -11.7905    3.4866 O   0  0  0  0  0  0  0  0  0  0  0  0
   65.6605  -11.4975    2.9017 C   0  0  0  0  0  0  0  0  0  0  0  0
   65.2535  -10.2457    2.7866 N   0  0  0  0  0  0  0  0  0  0  0  0
   64.8097  -12.5501    2.3286 C   0  0  0  0  0  0  0  0  0  0  0  0
   65.0321  -13.9891    2.4871 C   0  0  0  0  0  0  0  0  0  0  0  0
   66.0551  -14.5564    3.1616 N   0  0  0  0  0  0  0  0  0  0  0  0
   63.7025  -12.4655    1.5740 N   0  0  0  0  0  0  0  0  0  0  0  0
   63.2617  -13.7270    1.3113 C   0  0  0  0  0  0  0  0  0  0  0  0
   64.0663  -14.6618    1.8715 N   0  0  0  0  0  0  0  0  0  0  0  0
   63.8812  -16.1360    1.7839 C   0  0  1  0  0  0  0  0  0  0  0  0
   64.5229  -16.6463    0.5119 C   0  0  1  0  0  0  0  0  0  0  0  0
   65.1400  -17.9584    0.9218 C   0  0  2  0  0  0  0  0  0  0  0  0
   64.2021  -19.0221    0.7147 O   0  0  0  0  0  0  0  0  0  0  0  0
   63.5485  -16.8039   -0.5313 O   0  0  0  0  0  0  0  0  0  0  0  0
   64.5622  -16.7840    2.8554 O   0  0  0  0  0  0  0  0  0  0  0  0
   65.3947  -17.8236    2.4006 C   0  0  2  0  0  0  0  0  0  0  0  0
   66.8033  -17.4364    2.8009 C   0  0  0  0  0  0  0  0  0  0  0  0
   67.1349  -17.9256    4.0842 O   0  0  0  0  0  0  0  0  0  0  0  0
   68.5728  -17.5759    4.6866 P   0  0  0  0  0  0  0  0  0  0  0  0
   69.5540  -17.9142    3.5823 O   0  0  0  0  0  0  0  0  0  0  0  0
   68.6381  -18.4748    5.8943 O   0  0  0  0  0  0  0  0  0  0  0  0
   68.4496  -16.1245    5.0593 O   0  0  0  0  0  0  0  0  0  0  0  0
  2  1  2  0  0  0  0
  2  4  1  0  0  0  0
  3  2  1  0  0  0  0
  4  7  1  0  0  0  0
  4  5  2  0  0  0  0
  5  6  1  0  0  0  0
  5  9  1  0  0  0  0
  7  8  2  0  0  0  0
  8  9  1  0  0  0  0
 10  9  1  1  0  0  0
 10 15  1  0  0  0  0
 11 14  1  6  0  0  0
 11 12  1  0  0  0  0
 11 10  1  0  0  0  0
 12 13  1  1  0  0  0
 12 16  1  0  0  0  0
 16 17  1  6  0  0  0
 16 15  1  0  0  0  0
 18 19  1  0  0  0  0
 18 17  1  0  0  0  0
 19 21  1  0  0  0  0
 20 19  1  0  0  0  0
 22 19  2  0  0  0  0
M  END
>  <CHROM.1>
4.87588868,-93.65010197,-152.11921312,-49.01975548,-178.31383503,65.89920061
-15.75613359,2.72981724,-2.36861081,0.71050641,-2.97876160

>  <Name>
lig.pdb

>  <RI>
0

>  <Rbt.Current_Directory>
/home/itssahil/PROJECTS/Mol_Feturizer/New_Systems/rnas/4znp

>  <Rbt.Executable>
rbdock ($Id: //depot/dev/client3/rdock/2013.1/src/exe/rbdock.cxx#4 $)

>  <Rbt.Library>
libRbt.so (2013.1, Build901 2013/11/27)

>  <Rbt.Parameter_File>
/export/apps/rDock/src/rDock_2013.1_src/data/scripts/dock_solv.prm

>  <Rbt.Receptor>
prm/blind_docking_100.prm

>  <SCORE>
-15.0598

>  <SCORE.INTER>
-10.7106

>  <SCORE.INTER.CONST>
1

>  <SCORE.INTER.POLAR>
0

>  <SCORE.INTER.ROT>
5

>  <SCORE.INTER.SOLV>
20.6779

>  <SCORE.INTER.VDW>
-20.9664

>  <SCORE.INTER.norm>
-0.486848

>  <SCORE.INTRA>
-4.34911

>  <SCORE.INTRA.DIHEDRAL>
-6.79224

>  <SCORE.INTRA.DIHEDRAL.0>
11.9251

>  <SCORE.INTRA.POLAR>
0

>  <SCORE.INTRA.POLAR.0>
0

>  <SCORE.INTRA.REPUL>
0

>  <SCORE.INTRA.REPUL.0>
0

>  <SCORE.INTRA.SOLV>
1.46885

>  <SCORE.INTRA.SOLV.lig_0>
-40.9823

>  <SCORE.INTRA.VDW>
-1.68741

>  <SCORE.INTRA.VDW.0>
-0.53506

>  <SCORE.INTRA.norm>
-0.197687

>  <SCORE.RESTR>
0

>  <SCORE.RESTR.CAVITY>
0

>  <SCORE.RESTR.norm>
0

>  <SCORE.SYSTEM>
0

>  <SCORE.SYSTEM.CONST>
0

>  <SCORE.SYSTEM.DIHEDRAL>
0

>  <SCORE.SYSTEM.SOLV>
0

>  <SCORE.SYSTEM.norm>
0

>  <SCORE.heavy>
22

>  <SCORE.norm>
-0.684534

>  <RMSD>
11.513

$$$$
lig.pdb
 OpenBabel11021811523D
libRbt.so/2013.1/901 2013/11/27
 22 23  0  0  0  0  0  0  0  0999 V2000
   65.3912  -18.3148    2.7551 O   0  0  0  0  0  0  0  0  0  0  0  0
   64.9700  -18.1345    1.6368 C   0  0  0  0  0  0  0  0  0  0  0  0
   64.8214  -19.1250    0.7751 N   0  0  0  0  0  0  0  0  0  0  0  0
   64.6464  -16.7752    1.1809 C   0  0  0  0  0  0  0  0  0  0  0  0
   64.6575  -15.5802    2.0278 C   0  0  0  0  0  0  0  0  0  0  0  0
   64.9454  -15.5547    3.3469 N   0  0  0  0  0  0  0  0  0  0  0  0
   64.2862  -16.3215   -0.0302 N   0  0  0  0  0  0  0  0  0  0  0  0
   64.1169  -14.9724    0.0470 C   0  0  0  0  0  0  0  0  0  0  0  0
   64.3481  -14.5130    1.3002 N   0  0  0  0  0  0  0  0  0  0  0  0
   64.2534  -13.0939    1.7391 C   0  0  1  0  0  0  0  0  0  0  0  0
   65.6445  -12.5544    1.9921 C   0  0  1  0  0  0  0  0  0  0  0  0
   65.5818  -11.1410    1.4738 C   0  0  2  0  0  0  0  0  0  0  0  0
   65.1924  -10.2533    2.5294 O   0  0  0  0  0  0  0  0  0  0  0  0
   65.9738  -12.6092    3.3889 O   0  0  0  0  0  0  0  0  0  0  0  0
   63.7033  -12.2905    0.6981 O   0  0  0  0  0  0  0  0  0  0  0  0
   64.4929  -11.1561    0.4326 C   0  0  2  0  0  0  0  0  0  0  0  0
   64.9488  -11.2917   -1.0055 C   0  0  0  0  0  0  0  0  0  0  0  0
   65.9257  -10.3265   -1.3371 O   0  0  0  0  0  0  0  0  0  0  0  0
   66.6746  -10.4497   -2.7430 P   0  0  0  0  0  0  0  0  0  0  0  0
   67.2350  -11.8576   -2.7672 O   0  0  0  0  0  0  0  0  0  0  0  0
   67.7060   -9.3550   -2.6503 O   0  0  0  0  0  0  0  0  0  0  0  0
   65.5944  -10.1356   -3.7407 O   0  0  0  0  0  0  0  0  0  0  0  0
  2  1  2  0  0  0  0
  2  4  1  0  0  0  0
  3  2  1  0  0  0  0
  4  7  1  0  0  0  0
  4  5  2  0  0  0  0
  5  6  1  0  0  0  0
  5  9  1  0  0  0  0
  7  8  2  0  0  0  0
  8  9  1  0  0  0  0
 10  9  1  6  0  0  0
 10 15  1  0  0  0  0
 11 14  1  1  0  0  0
 11 12  1  0  0  0  0
 11 10  1  0  0  0  0
 12 13  1  1  0  0  0
 12 16  1  0  0  0  0
 16 17  1  6  0  0  0
 16 15  1  0  0  0  0
 18 19  1  0  0  0  0
 18 17  1  0  0  0  0
 19 21  1  0  0  0  0
 20 19  1  0  0  0  0
 22 19  2  0  0  0  0
M  END
>  <CHROM.1>
-6.74017599,72.39505287,-52.59155761,-53.97399757,171.28483867,65.35052721
-13.16812393,0.27467509,-2.54104196,1.33405111,0.42195205

>  <Name>
lig.pdb

>  <RI>
0

>  <Rbt.Current_Directory>
/home/itssahil/PROJECTS/Mol_Feturizer/New_Systems/rnas/4znp

>  <Rbt.Executable>
rbdock ($Id: //depot/dev/client3/rdock/2013.1/src/exe/rbdock.cxx#4 $)

>  <Rbt.Library>
libRbt.so (2013.1, Build901 2013/11/27)

>  <Rbt.Parameter_File>
/export/apps/rDock/src/rDock_2013.1_src/data/scripts/dock_solv.prm

>  <Rbt.Receptor>
prm/blind_docking_80.prm

>  <SCORE>
-16.4057

>  <SCORE.INTER>
-10.8528

>  <SCORE.INTER.CONST>
1

>  <SCORE.INTER.POLAR>
0

>  <SCORE.INTER.ROT>
5

>  <SCORE.INTER.SOLV>
16.2636

>  <SCORE.INTER.VDW>
-19.5897

>  <SCORE.INTER.norm>
-0.493309

>  <SCORE.INTRA>
-5.5529

>  <SCORE.INTRA.DIHEDRAL>
-8.7814

>  <SCORE.INTRA.DIHEDRAL.0>
11.9251

>  <SCORE.INTRA.POLAR>
0

>  <SCORE.INTRA.POLAR.0>
0

>  <SCORE.INTRA.REPUL>
0

>  <SCORE.INTRA.REPUL.0>
0

>  <SCORE.INTRA.SOLV>
0.420001

>  <SCORE.INTRA.SOLV.lig_0>
-40.9823

>  <SCORE.INTRA.VDW>
-1.3722

>  <SCORE.INTRA.VDW.0>
-0.53506

>  <SCORE.INTRA.norm>
-0.252405

>  <SCORE.RESTR>
0

>  <SCORE.RESTR.CAVITY>
0

>  <SCORE.RESTR.norm>
0

>  <SCORE.SYSTEM>
0

>  <SCORE.SYSTEM.CONST>
0

>  <SCORE.SYSTEM.DIHEDRAL>
0

>  <SCORE.SYSTEM.SOLV>
0

>  <SCORE.SYSTEM.norm>
0

>  <SCORE.heavy>
22

>  <SCORE.norm>
-0.745713

>  <RMSD>
11.522

$$$$
lig.pdb
 OpenBabel11021811523D
libRbt.so/2013.1/901 2013/11/27
 22 23  0  0  0  0  0  0  0  0999 V2000
   66.0195  -16.8695   -1.4975 O   0  0  0  0  0  0  0  0  0  0  0  0
   65.6602  -17.3782   -0.4618 C   0  0  0  0  0  0  0  0  0  0  0  0
   65.6012  -18.6892   -0.3078 N   0  0  0  0  0  0  0  0  0  0  0  0
   65.2285  -16.5360    0.6627 C   0  0  0  0  0  0  0  0  0  0  0  0
   65.1765  -15.0724    0.6445 C   0  0  0  0  0  0  0  0  0  0  0  0
   65.5337  -14.2864   -0.3938 N   0  0  0  0  0  0  0  0  0  0  0  0
   64.8074  -16.8688    1.8933 N   0  0  0  0  0  0  0  0  0  0  0  0
   64.4965  -15.7266    2.5667 C   0  0  0  0  0  0  0  0  0  0  0  0
   64.7141  -14.6264    1.8070 N   0  0  0  0  0  0  0  0  0  0  0  0
   64.4821  -13.2176    2.2275 C   0  0  1  0  0  0  0  0  0  0  0  0
   65.7706  -12.4358    2.0909 C   0  0  1  0  0  0  0  0  0  0  0  0
   65.3227  -11.0907    1.5804 C   0  0  2  0  0  0  0  0  0  0  0  0
   65.0659  -10.2132    2.6840 O   0  0  0  0  0  0  0  0  0  0  0  0
   66.4538  -12.3414    3.3506 O   0  0  0  0  0  0  0  0  0  0  0  0
   63.5464  -12.5893    1.3549 O   0  0  0  0  0  0  0  0  0  0  0  0
   64.0230  -11.3583    0.8668 C   0  0  2  0  0  0  0  0  0  0  0  0
   64.1087  -11.5104   -0.6378 C   0  0  0  0  0  0  0  0  0  0  0  0
   62.8305  -11.4861   -1.2391 O   0  0  0  0  0  0  0  0  0  0  0  0
   62.7290  -11.6549   -2.8246 P   0  0  0  0  0  0  0  0  0  0  0  0
   63.6562  -10.5988   -3.3919 O   0  0  0  0  0  0  0  0  0  0  0  0
   61.2625  -11.4165   -3.0760 O   0  0  0  0  0  0  0  0  0  0  0  0
   63.1223  -13.0889   -3.0472 O   0  0  0  0  0  0  0  0  0  0  0  0
  2  1  2  0  0  0  0
  2  4  1  0  0  0  0
  3  2  1  0  0  0  0
  4  7  1  0  0  0  0
  4  5  2  0  0  0  0
  5  6  1  0  0  0  0
  5  9  1  0  0  0  0
  7  8  2  0  0  0  0
  8  9  1  0  0  0  0
 10  9  1  6  0  0  0
 10 15  1  0  0  0  0
 11 14  1  1  0  0  0
 11 12  1  0  0  0  0
 11 10  1  0  0  0  0
 12 13  1  1  0  0  0
 12 16  1  0  0  0  0
 16 17  1  6  0  0  0
 16 15  1  0  0  0  0
 18 19  1  0  0  0  0
 18 17  1  0  0  0  0
 19 21  1  0  0  0  0
 20 19  1  0  0  0  0
 22 19  2  0  0  0  0
M  END
>  <CHROM.1>
0.67119417,-56.70179047,-168.04383995,-53.37930794,-179.15083144,64.39021353
-13.39521748,-0.00174414,0.42632373,1.12858468,-2.61079292

>  <Name>
lig.pdb

>  <RI>
0

>  <Rbt.Current_Directory>
/home/itssahil/PROJECTS/Mol_Feturizer/New_Systems/rnas/4znp

>  <Rbt.Executable>
rbdock ($Id: //depot/dev/client3/rdock/2013.1/src/exe/rbdock.cxx#4 $)

>  <Rbt.Library>
libRbt.so (2013.1, Build901 2013/11/27)

>  <Rbt.Parameter_File>
/export/apps/rDock/src/rDock_2013.1_src/data/scripts/dock_solv.prm

>  <Rbt.Receptor>
prm/blind_docking_80.prm

>  <SCORE>
-19.7264

>  <SCORE.INTER>
-13.9176

>  <SCORE.INTER.CONST>
1

>  <SCORE.INTER.POLAR>
0

>  <SCORE.INTER.ROT>
5

>  <SCORE.INTER.SOLV>
17.2941

>  <SCORE.INTER.VDW>
-21.9764

>  <SCORE.INTER.norm>
-0.632619

>  <SCORE.INTRA>
-5.80873

>  <SCORE.INTRA.DIHEDRAL>
-8.91988

>  <SCORE.INTRA.DIHEDRAL.0>
11.9251

>  <SCORE.INTRA.POLAR>
0

>  <SCORE.INTRA.POLAR.0>
0

>  <SCORE.INTRA.REPUL>
0

>  <SCORE.INTRA.REPUL.0>
0

>  <SCORE.INTRA.SOLV>
1.22612

>  <SCORE.INTRA.SOLV.lig_0>
-40.9823

>  <SCORE.INTRA.VDW>
-1.96185

>  <SCORE.INTRA.VDW.0>
-0.53506

>  <SCORE.INTRA.norm>
-0.264033

>  <SCORE.RESTR>
0

>  <SCORE.RESTR.CAVITY>
0

>  <SCORE.RESTR.norm>
0

>  <SCORE.SYSTEM>
0

>  <SCORE.SYSTEM.CONST>
0

>  <SCORE.SYSTEM.DIHEDRAL>
0

>  <SCORE.SYSTEM.SOLV>
0

>  <SCORE.SYSTEM.norm>
0

>  <SCORE.heavy>
22

>  <SCORE.norm>
-0.896653

>  <RMSD>
11.536

$$$$
lig.pdb
 OpenBabel11021811523D
libRbt.so/2013.1/901 2013/11/27
 22 23  0  0  0  0  0  0  0  0999 V2000
   66.0887  -16.8533   -1.4756 O   0  0  0  0  0  0  0  0  0  0  0  0
   65.6714  -17.3607   -0.4612 C   0  0  0  0  0  0  0  0  0  0  0  0
   65.5631  -18.6704   -0.3253 N   0  0  0  0  0  0  0  0  0  0  0  0
   65.2228  -16.5164    0.6551 C   0  0  0  0  0  0  0  0  0  0  0  0
   65.2021  -15.0519    0.6452 C   0  0  0  0  0  0  0  0  0  0  0  0
   65.6078  -14.2673   -0.3761 N   0  0  0  0  0  0  0  0  0  0  0  0
   64.7568  -16.8477    1.8698 N   0  0  0  0  0  0  0  0  0  0  0  0
   64.4492  -15.7034    2.5411 C   0  0  0  0  0  0  0  0  0  0  0  0
   64.7134  -14.6034    1.7960 N   0  0  0  0  0  0  0  0  0  0  0  0
   64.4980  -13.1926    2.2186 C   0  0  1  0  0  0  0  0  0  0  0  0
   65.7923  -12.4226    2.0706 C   0  0  1  0  0  0  0  0  0  0  0  0
   65.3523  -11.0734    1.5642 C   0  0  2  0  0  0  0  0  0  0  0  0
   65.1134  -10.1938    2.6702 O   0  0  0  0  0  0  0  0  0  0  0  0
   66.4876  -12.3347    3.3242 O   0  0  0  0  0  0  0  0  0  0  0  0
   63.5604  -12.5556    1.3544 O   0  0  0  0  0  0  0  0  0  0  0  0
   64.0439  -11.3289    0.8623 C   0  0  2  0  0  0  0  0  0  0  0  0
   64.1148  -11.4815   -0.6431 C   0  0  0  0  0  0  0  0  0  0  0  0
   62.8296  -11.4781   -1.2297 O   0  0  0  0  0  0  0  0  0  0  0  0
   62.7116  -11.6693   -2.8115 P   0  0  0  0  0  0  0  0  0  0  0  0
   61.2454  -11.4488   -3.1253 O   0  0  0  0  0  0  0  0  0  0  0  0
   63.1972  -13.0836   -2.9974 O   0  0  0  0  0  0  0  0  0  0  0  0
   63.6788  -10.6555   -3.3571 O   0  0  0  0  0  0  0  0  0  0  0  0
  2  1  2  0  0  0  0
  2  4  1  0  0  0  0
  3  2  1  0  0  0  0
  4  7  1  0  0  0  0
  4  5  2  0  0  0  0
  5  6  1  0  0  0  0
  5  9  1  0  0  0  0
  7  8  2  0  0  0  0
  8  9  1  0  0  0  0
 10  9  1  6  0  0  0
 10 15  1  0  0  0  0
 11 14  1  1  0  0  0
 11 12  1  0  0  0  0
 11 10  1  0  0  0  0
 12 13  1  1  0  0  0
 12 16  1  0  0  0  0
 16 17  1  6  0  0  0
 16 15  1  0  0  0  0
 18 19  1  0  0  0  0
 18 17  1  0  0  0  0
 19 21  1  0  0  0  0
 20 19  1  0  0  0  0
 22 19  2  0  0  0  0
M  END
>  <CHROM.1>
1.58406685,-54.29047298,-169.47945997,-173.31536205,-178.37231023,64.40274533
-13.38548789,-0.00415126,0.44170495,1.12290858,-2.62384150

>  <Name>
lig.pdb

>  <RI>
0

>  <Rbt.Current_Directory>
/home/itssahil/PROJECTS/Mol_Feturizer/New_Systems/rnas/4znp

>  <Rbt.Executable>
rbdock ($Id: //depot/dev/client3/rdock/2013.1/src/exe/rbdock.cxx#4 $)

>  <Rbt.Library>
libRbt.so (2013.1, Build901 2013/11/27)

>  <Rbt.Parameter_File>
/export/apps/rDock/src/rDock_2013.1_src/data/scripts/dock_solv.prm

>  <Rbt.Receptor>
prm/blind_docking_80.prm

>  <SCORE>
-19.2603

>  <SCORE.INTER>
-13.5867

>  <SCORE.INTER.CONST>
1

>  <SCORE.INTER.POLAR>
0

>  <SCORE.INTER.ROT>
5

>  <SCORE.INTER.SOLV>
18.0208

>  <SCORE.INTER.VDW>
-21.9981

>  <SCORE.INTER.norm>
-0.617579

>  <SCORE.INTRA>
-5.67356

>  <SCORE.INTRA.DIHEDRAL>
-9.00871

>  <SCORE.INTRA.DIHEDRAL.0>
11.9251

>  <SCORE.INTRA.POLAR>
0

>  <SCORE.INTRA.POLAR.0>
0

>  <SCORE.INTRA.REPUL>
0

>  <SCORE.INTRA.REPUL.0>
0

>  <SCORE.INTRA.SOLV>
1.1772

>  <SCORE.INTRA.SOLV.lig_0>
-40.9823

>  <SCORE.INTRA.VDW>
-1.75781

>  <SCORE.INTRA.VDW.0>
-0.53506

>  <SCORE.INTRA.norm>
-0.257889

>  <SCORE.RESTR>
0

>  <SCORE.RESTR.CAVITY>
0

>  <SCORE.RESTR.norm>
0

>  <SCORE.SYSTEM>
0

>  <SCORE.SYSTEM.CONST>
0

>  <SCORE.SYSTEM.DIHEDRAL>
0

>  <SCORE.SYSTEM.SOLV>
0

>  <SCORE.SYSTEM.norm>
0

>  <SCORE.heavy>
22

>  <SCORE.norm>
-0.875469

>  <RMSD>
11.551

$$$$
lig.pdb
 OpenBabel11021811523D
libRbt.so/2013.1/901 2013/11/27
 22 23  0  0  0  0  0  0  0  0999 V2000
   64.9500  -19.4265    0.5471 O   0  0  0  0  0  0  0  0  0  0  0  0
   64.5221  -18.5614    1.2743 C   0  0  0  0  0  0  0  0  0  0  0  0
   63.8077  -18.8396    2.3504 N   0  0  0  0  0  0  0  0  0  0  0  0
   64.7518  -17.1461    0.9513 C   0  0  0  0  0  0  0  0  0  0  0  0
   64.3015  -16.0148    1.7654 C   0  0  0  0  0  0  0  0  0  0  0  0
   63.5969  -16.1045    2.9139 N   0  0  0  0  0  0  0  0  0  0  0  0
   65.3813  -16.5776   -0.0893 N   0  0  0  0  0  0  0  0  0  0  0  0
   65.3513  -15.2259    0.0740 C   0  0  0  0  0  0  0  0  0  0  0  0
   64.6983  -14.8763    1.2082 N   0  0  0  0  0  0  0  0  0  0  0  0
   64.4787  -13.4866    1.6939 C   0  0  1  0  0  0  0  0  0  0  0  0
   65.8152  -12.8470    2.0019 C   0  0  1  0  0  0  0  0  0  0  0  0
   65.6501  -11.4249    1.5320 C   0  0  2  0  0  0  0  0  0  0  0  0
   65.1656  -10.6110    2.6076 O   0  0  0  0  0  0  0  0  0  0  0  0
   66.1154  -12.9269    3.4041 O   0  0  0  0  0  0  0  0  0  0  0  0
   63.8895  -12.6919    0.6678 O   0  0  0  0  0  0  0  0  0  0  0  0
   64.5904  -11.4888    0.4629 C   0  0  2  0  0  0  0  0  0  0  0  0
   65.0890  -11.5340   -0.9667 C   0  0  0  0  0  0  0  0  0  0  0  0
   66.0199  -10.5039   -1.2282 O   0  0  0  0  0  0  0  0  0  0  0  0
   66.8056  -10.5198   -2.6193 P   0  0  0  0  0  0  0  0  0  0  0  0
   67.4941  -11.8691   -2.6660 O   0  0  0  0  0  0  0  0  0  0  0  0
   67.7293   -9.3379   -2.4756 O   0  0  0  0  0  0  0  0  0  0  0  0
   65.7217  -10.2792   -3.6332 O   0  0  0  0  0  0  0  0  0  0  0  0
  2  1  2  0  0  0  0
  2  4  1  0  0  0  0
  3  2  1  0  0  0  0
  4  7  1  0  0  0  0
  4  5  2  0  0  0  0
  5  6  1  0  0  0  0
  5  9  1  0  0  0  0
  7  8  2  0  0  0  0
  8  9  1  0  0  0  0
 10  9  1  6  0  0  0
 10 15  1  0  0  0  0
 11 14  1  1  0  0  0
 11 12  1  0  0  0  0
 11 10  1  0  0  0  0
 12 13  1  1  0  0  0
 12 16  1  0  0  0  0
 16 17  1  6  0  0  0
 16 15  1  0  0  0  0
 18 19  1  0  0  0  0
 18 17  1  0  0  0  0
 19 21  1  0  0  0  0
 20 19  1  0  0  0  0
 22 19  2  0  0  0  0
M  END
>  <CHROM.1>
-178.97613273,116.95814379,-50.97245311,-56.52716581,171.50310768,65.39291862
-13.45003138,0.22196605,-2.48034106,1.25134629,0.41882556

>  <Name>
lig.pdb

>  <RI>
0

>  <Rbt.Current_Directory>
/home/itssahil/PROJECTS/Mol_Feturizer/New_Systems/rnas/4znp

>  <Rbt.Executable>
rbdock ($Id: //depot/dev/client3/rdock/2013.1/src/exe/rbdock.cxx#4 $)

>  <Rbt.Library>
libRbt.so (2013.1, Build901 2013/11/27)

>  <Rbt.Parameter_File>
/export/apps/rDock/src/rDock_2013.1_src/data/scripts/dock_solv.prm

>  <Rbt.Receptor>
prm/blind_docking_80.prm

>  <SCORE>
-16.6176

>  <SCORE.INTER>
-10.902

>  <SCORE.INTER.CONST>
1

>  <SCORE.INTER.POLAR>
0

>  <SCORE.INTER.ROT>
5

>  <SCORE.INTER.SOLV>
18.8566

>  <SCORE.INTER.VDW>
-20.4869

>  <SCORE.INTER.norm>
-0.495547

>  <SCORE.INTRA>
-5.7156

>  <SCORE.INTRA.DIHEDRAL>
-8.83718

>  <SCORE.INTRA.DIHEDRAL.0>
11.9251

>  <SCORE.INTRA.POLAR>
0

>  <SCORE.INTRA.POLAR.0>
0

>  <SCORE.INTRA.REPUL>
0

>  <SCORE.INTRA.REPUL.0>
0

>  <SCORE.INTRA.SOLV>
0.195763

>  <SCORE.INTRA.SOLV.lig_0>
-40.9823

>  <SCORE.INTRA.VDW>
-1.39489

>  <SCORE.INTRA.VDW.0>
-0.53506

>  <SCORE.INTRA.norm>
-0.2598

>  <SCORE.RESTR>
0

>  <SCORE.RESTR.CAVITY>
0

>  <SCORE.RESTR.norm>
0

>  <SCORE.SYSTEM>
0

>  <SCORE.SYSTEM.CONST>
0

>  <SCORE.SYSTEM.DIHEDRAL>
0

>  <SCORE.SYSTEM.SOLV>
0

>  <SCORE.SYSTEM.norm>
0

>  <SCORE.heavy>
22

>  <SCORE.norm>
-0.755347

>  <RMSD>
11.553

$$$$
lig.pdb
 OpenBabel11021811523D
libRbt.so/2013.1/901 2013/11/27
 22 23  0  0  0  0  0  0  0  0999 V2000
   64.2066  -12.3732    1.7379 O   0  0  0  0  0  0  0  0  0  0  0  0
   65.1908  -11.7581    2.0747 C   0  0  0  0  0  0  0  0  0  0  0  0
   65.3708  -10.4902    1.7497 N   0  0  0  0  0  0  0  0  0  0  0  0
   66.2563  -12.4293    2.8327 C   0  0  0  0  0  0  0  0  0  0  0  0
   66.2283  -13.8297    3.2610 C   0  0  0  0  0  0  0  0  0  0  0  0
   65.2183  -14.6985    3.0411 N   0  0  0  0  0  0  0  0  0  0  0  0
   67.4304  -11.9650    3.2891 N   0  0  0  0  0  0  0  0  0  0  0  0
   68.0830  -12.9829    3.9156 C   0  0  0  0  0  0  0  0  0  0  0  0
   67.3564  -14.1260    3.8964 N   0  0  0  0  0  0  0  0  0  0  0  0
   67.7661  -15.4288    4.4884 C   0  0  1  0  0  0  0  0  0  0  0  0
   66.6048  -16.0141    5.2624 C   0  0  1  0  0  0  0  0  0  0  0  0
   66.6863  -17.4902    4.9715 C   0  0  2  0  0  0  0  0  0  0  0  0
   67.4961  -18.1365    5.9617 O   0  0  0  0  0  0  0  0  0  0  0  0
   66.7215  -15.7271    6.6648 O   0  0  0  0  0  0  0  0  0  0  0  0
   68.0650  -16.3673    3.4582 O   0  0  0  0  0  0  0  0  0  0  0  0
   67.3862  -17.5866    3.6408 C   0  0  2  0  0  0  0  0  0  0  0  0
   66.4926  -17.7529    2.4291 C   0  0  0  0  0  0  0  0  0  0  0  0
   65.5460  -18.7849    2.6157 O   0  0  0  0  0  0  0  0  0  0  0  0
   64.5155  -19.0985    1.4357 P   0  0  0  0  0  0  0  0  0  0  0  0
   65.3407  -19.7854    0.3661 O   0  0  0  0  0  0  0  0  0  0  0  0
   64.0204  -17.7224    1.0726 O   0  0  0  0  0  0  0  0  0  0  0  0
   63.4579  -19.9281    2.1094 O   0  0  0  0  0  0  0  0  0  0  0  0
  2  1  2  0  0  0  0
  2  4  1  0  0  0  0
  3  2  1  0  0  0  0
  4  7  1  0  0  0  0
  4  5  2  0  0  0  0
  5  6  1  0  0  0  0
  5  9  1  0  0  0  0
  7  8  2  0  0  0  0
  8  9  1  0  0  0  0
 10  9  1  6  0  0  0
 10 15  1  0  0  0  0
 11 14  1  1  0  0  0
 11 12  1  0  0  0  0
 11 10  1  0  0  0  0
 12 13  1  1  0  0  0
 12 16  1  0  0  0  0
 16 17  1  6  0  0  0
 16 15  1  0  0  0  0
 18 19  1  0  0  0  0
 18 17  1  0  0  0  0
 19 21  1  0  0  0  0
 20 19  1  0  0  0  0
 22 19  2  0  0  0  0
M  END
>  <CHROM.1>
-1.25616151,-44.82409735,-49.34349485,72.80854232,179.87382363,66.03311980
-15.96730680,3.08409058,1.25963892,-0.91574806,-0.10058100

>  <Name>
lig.pdb

>  <RI>
0

>  <Rbt.Current_Directory>
/home/itssahil/PROJECTS/Mol_Feturizer/New_Systems/rnas/4znp

>  <Rbt.Executable>
rbdock ($Id: //depot/dev/client3/rdock/2013.1/src/exe/rbdock.cxx#4 $)

>  <Rbt.Library>
libRbt.so (2013.1, Build901 2013/11/27)

>  <Rbt.Parameter_File>
/export/apps/rDock/src/rDock_2013.1_src/data/scripts/dock_solv.prm

>  <Rbt.Receptor>
prm/blind_docking_80.prm

>  <SCORE>
-16.2575

>  <SCORE.INTER>
-10.8499

>  <SCORE.INTER.CONST>
1

>  <SCORE.INTER.POLAR>
0

>  <SCORE.INTER.ROT>
5

>  <SCORE.INTER.SOLV>
25.5817

>  <SCORE.INTER.VDW>
-22.6938

>  <SCORE.INTER.norm>
-0.493176

>  <SCORE.INTRA>
-5.40757

>  <SCORE.INTRA.DIHEDRAL>
-8.84987

>  <SCORE.INTRA.DIHEDRAL.0>
11.9251

>  <SCORE.INTRA.POLAR>
0

>  <SCORE.INTRA.POLAR.0>
0

>  <SCORE.INTRA.REPUL>
0

>  <SCORE.INTRA.REPUL.0>
0

>  <SCORE.INTRA.SOLV>
1.00395

>  <SCORE.INTRA.SOLV.lig_0>
-40.9823

>  <SCORE.INTRA.VDW>
-1.48461

>  <SCORE.INTRA.VDW.0>
-0.53506

>  <SCORE.INTRA.norm>
-0.245799

>  <SCORE.RESTR>
0

>  <SCORE.RESTR.CAVITY>
0

>  <SCORE.RESTR.norm>
0

>  <SCORE.SYSTEM>
0

>  <SCORE.SYSTEM.CONST>
0

>  <SCORE.SYSTEM.DIHEDRAL>
0

>  <SCORE.SYSTEM.SOLV>
0

>  <SCORE.SYSTEM.norm>
0

>  <SCORE.heavy>
22

>  <SCORE.norm>
-0.738975

>  <RMSD>
11.587

$$$$
lig.pdb
 OpenBabel11021811523D
libRbt.so/2013.1/901 2013/11/27
 22 23  0  0  0  0  0  0  0  0999 V2000
   65.2207  -10.4320    2.8366 O   0  0  0  0  0  0  0  0  0  0  0  0
   64.7315  -11.2178    2.0596 C   0  0  0  0  0  0  0  0  0  0  0  0
   63.9759  -10.8265    1.0488 N   0  0  0  0  0  0  0  0  0  0  0  0
   64.9315  -12.6618    2.2470 C   0  0  0  0  0  0  0  0  0  0  0  0
   64.2613  -13.7100    1.4740 C   0  0  0  0  0  0  0  0  0  0  0  0
   63.3529  -13.5058    0.4960 N   0  0  0  0  0  0  0  0  0  0  0  0
   65.7157  -13.3318    3.1064 N   0  0  0  0  0  0  0  0  0  0  0  0
   65.5703  -14.6657    2.8735 C   0  0  0  0  0  0  0  0  0  0  0  0
   64.6878  -14.9027    1.8735 N   0  0  0  0  0  0  0  0  0  0  0  0
   64.2916  -16.2427    1.3606 C   0  0  1  0  0  0  0  0  0  0  0  0
   65.3564  -16.7508    0.4129 C   0  0  1  0  0  0  0  0  0  0  0  0
   65.4376  -18.2237    0.7196 C   0  0  2  0  0  0  0  0  0  0  0  0
   64.5329  -18.9464   -0.1250 O   0  0  0  0  0  0  0  0  0  0  0  0
   64.9953  -16.4972   -0.9538 O   0  0  0  0  0  0  0  0  0  0  0  0
   64.2350  -17.1838    2.4296 O   0  0  0  0  0  0  0  0  0  0  0  0
   64.9687  -18.3508    2.1458 C   0  0  2  0  0  0  0  0  0  0  0  0
   66.0546  -18.4281    3.1991 C   0  0  0  0  0  0  0  0  0  0  0  0
   66.8261  -17.2454    3.2419 O   0  0  0  0  0  0  0  0  0  0  0  0
   67.9588  -17.1127    4.3608 P   0  0  0  0  0  0  0  0  0  0  0  0
   68.8808  -18.2928    4.1280 O   0  0  0  0  0  0  0  0  0  0  0  0
   67.1557  -17.1732    5.6344 O   0  0  0  0  0  0  0  0  0  0  0  0
   68.5348  -15.7463    4.1117 O   0  0  0  0  0  0  0  0  0  0  0  0
  2  1  2  0  0  0  0
  2  4  1  0  0  0  0
  3  2  1  0  0  0  0
  4  7  1  0  0  0  0
  4  5  2  0  0  0  0
  5  6  1  0  0  0  0
  5  9  1  0  0  0  0
  7  8  2  0  0  0  0
  8  9  1  0  0  0  0
 10  9  1  1  0  0  0
 10 15  1  0  0  0  0
 11 14  1  6  0  0  0
 11 12  1  0  0  0  0
 11 10  1  0  0  0  0
 12 13  1  6  0  0  0
 12 16  1  0  0  0  0
 16 17  1  1  0  0  0
 16 15  1  0  0  0  0
 18 19  1  0  0  0  0
 18 17  1  0  0  0  0
 19 21  1  0  0  0  0
 20 19  1  0  0  0  0
 22 19  2  0  0  0  0
M  END
>  <CHROM.1>
172.21023593,100.43653633,63.34949589,58.11494942,176.08508586,65.71477660
-15.68115184,2.36076844,-2.21756526,0.86672293,-2.90375406

>  <Name>
lig.pdb

>  <RI>
0

>  <Rbt.Current_Directory>
/home/itssahil/PROJECTS/Mol_Feturizer/New_Systems/rnas/4znp

>  <Rbt.Executable>
rbdock ($Id: //depot/dev/client3/rdock/2013.1/src/exe/rbdock.cxx#4 $)

>  <Rbt.Library>
libRbt.so (2013.1, Build901 2013/11/27)

>  <Rbt.Parameter_File>
/export/apps/rDock/src/rDock_2013.1_src/data/scripts/dock_solv.prm

>  <Rbt.Receptor>
prm/blind_docking_100.prm

>  <SCORE>
-16.4919

>  <SCORE.INTER>
-10.2095

>  <SCORE.INTER.CONST>
1

>  <SCORE.INTER.POLAR>
0

>  <SCORE.INTER.ROT>
5

>  <SCORE.INTER.SOLV>
17.5745

>  <SCORE.INTER.VDW>
-19.5978

>  <SCORE.INTER.norm>
-0.464068

>  <SCORE.INTRA>
-6.28243

>  <SCORE.INTRA.DIHEDRAL>
-9.26538

>  <SCORE.INTRA.DIHEDRAL.0>
11.9251

>  <SCORE.INTRA.POLAR>
0

>  <SCORE.INTRA.POLAR.0>
0

>  <SCORE.INTRA.REPUL>
0

>  <SCORE.INTRA.REPUL.0>
0

>  <SCORE.INTRA.SOLV>
1.06435

>  <SCORE.INTRA.SOLV.lig_0>
-40.9823

>  <SCORE.INTRA.VDW>
-2.18191

>  <SCORE.INTRA.VDW.0>
-0.53506

>  <SCORE.INTRA.norm>
-0.285565

>  <SCORE.RESTR>
0

>  <SCORE.RESTR.CAVITY>
0

>  <SCORE.RESTR.norm>
0

>  <SCORE.SYSTEM>
0

>  <SCORE.SYSTEM.CONST>
0

>  <SCORE.SYSTEM.DIHEDRAL>
0

>  <SCORE.SYSTEM.SOLV>
0

>  <SCORE.SYSTEM.norm>
0

>  <SCORE.heavy>
22

>  <SCORE.norm>
-0.749632

>  <RMSD>
11.589

$$$$
lig.pdb
 OpenBabel11021811523D
libRbt.so/2013.1/901 2013/11/27
 22 23  0  0  0  0  0  0  0  0999 V2000
   64.7908  -10.2356    2.2314 O   0  0  0  0  0  0  0  0  0  0  0  0
   64.4430  -11.1397    1.5088 C   0  0  0  0  0  0  0  0  0  0  0  0
   63.8033  -10.9235    0.3731 N   0  0  0  0  0  0  0  0  0  0  0  0
   64.6882  -12.5344    1.9025 C   0  0  0  0  0  0  0  0  0  0  0  0
   64.1327  -13.7084    1.2255 C   0  0  0  0  0  0  0  0  0  0  0  0
   63.3037  -13.6819    0.1599 N   0  0  0  0  0  0  0  0  0  0  0  0
   65.4237  -13.0442    2.9033 N   0  0  0  0  0  0  0  0  0  0  0  0
   65.3565  -14.4030    2.8396 C   0  0  0  0  0  0  0  0  0  0  0  0
   64.5742  -14.8147    1.8132 N   0  0  0  0  0  0  0  0  0  0  0  0
   64.2816  -16.2292    1.4540 C   0  0  1  0  0  0  0  0  0  0  0  0
   65.2314  -16.6754    0.3637 C   0  0  1  0  0  0  0  0  0  0  0  0
   65.5600  -18.0987    0.7334 C   0  0  2  0  0  0  0  0  0  0  0  0
   64.6323  -18.9909    0.1029 O   0  0  0  0  0  0  0  0  0  0  0  0
   64.6163  -16.5759   -0.9302 O   0  0  0  0  0  0  0  0  0  0  0  0
   64.5314  -17.0835    2.5672 O   0  0  0  0  0  0  0  0  0  0  0  0
   65.3575  -18.1702    2.2246 C   0  0  2  0  0  0  0  0  0  0  0  0
   66.6045  -18.0310    3.0732 C   0  0  0  0  0  0  0  0  0  0  0  0
   66.4025  -18.5207    4.3829 O   0  0  0  0  0  0  0  0  0  0  0  0
   67.4555  -18.1243    5.5172 P   0  0  0  0  0  0  0  0  0  0  0  0
   67.2690  -16.6344    5.7226 O   0  0  0  0  0  0  0  0  0  0  0  0
   68.7655  -18.5215    4.8871 O   0  0  0  0  0  0  0  0  0  0  0  0
   67.0796  -19.0168    6.6674 O   0  0  0  0  0  0  0  0  0  0  0  0
  2  1  2  0  0  0  0
  2  4  1  0  0  0  0
  3  2  1  0  0  0  0
  4  7  1  0  0  0  0
  4  5  2  0  0  0  0
  5  6  1  0  0  0  0
  5  9  1  0  0  0  0
  7  8  2  0  0  0  0
  8  9  1  0  0  0  0
 10  9  1  1  0  0  0
 10 15  1  0  0  0  0
 11 14  1  6  0  0  0
 11 12  1  0  0  0  0
 11 10  1  0  0  0  0
 12 13  1  6  0  0  0
 12 16  1  0  0  0  0
 16 17  1  1  0  0  0
 16 15  1  0  0  0  0
 18 19  1  0  0  0  0
 18 17  1  0  0  0  0
 19 21  1  0  0  0  0
 20 19  1  0  0  0  0
 22 19  2  0  0  0  0
M  END
>  <CHROM.1>
169.80225933,84.62808946,-161.33940617,67.73739497,-164.48144846,65.53551886
-15.91826231,2.58198783,-2.48250001,1.07767033,-2.84657739

>  <Name>
lig.pdb

>  <RI>
0

>  <Rbt.Current_Directory>
/home/itssahil/PROJECTS/Mol_Feturizer/New_Systems/rnas/4znp

>  <Rbt.Executable>
rbdock ($Id: //depot/dev/client3/rdock/2013.1/src/exe/rbdock.cxx#4 $)

>  <Rbt.Library>
libRbt.so (2013.1, Build901 2013/11/27)

>  <Rbt.Parameter_File>
/export/apps/rDock/src/rDock_2013.1_src/data/scripts/dock_solv.prm

>  <Rbt.Receptor>
prm/blind_docking_100.prm

>  <SCORE>
-15.2458

>  <SCORE.INTER>
-10.5033

>  <SCORE.INTER.CONST>
1

>  <SCORE.INTER.POLAR>
0

>  <SCORE.INTER.ROT>
5

>  <SCORE.INTER.SOLV>
19.783

>  <SCORE.INTER.VDW>
-20.5299

>  <SCORE.INTER.norm>
-0.477423

>  <SCORE.INTRA>
-4.74247

>  <SCORE.INTRA.DIHEDRAL>
-6.86259

>  <SCORE.INTRA.DIHEDRAL.0>
11.9251

>  <SCORE.INTRA.POLAR>
0

>  <SCORE.INTRA.POLAR.0>
0

>  <SCORE.INTRA.REPUL>
0

>  <SCORE.INTRA.REPUL.0>
0

>  <SCORE.INTRA.SOLV>
0.198846

>  <SCORE.INTRA.SOLV.lig_0>
-40.9823

>  <SCORE.INTRA.VDW>
-1.4106

>  <SCORE.INTRA.VDW.0>
-0.53506

>  <SCORE.INTRA.norm>
-0.215567

>  <SCORE.RESTR>
0

>  <SCORE.RESTR.CAVITY>
0

>  <SCORE.RESTR.norm>
0

>  <SCORE.SYSTEM>
0

>  <SCORE.SYSTEM.CONST>
0

>  <SCORE.SYSTEM.DIHEDRAL>
0

>  <SCORE.SYSTEM.SOLV>
0

>  <SCORE.SYSTEM.norm>
0

>  <SCORE.heavy>
22

>  <SCORE.norm>
-0.69299

>  <RMSD>
11.592

$$$$
lig.pdb
 OpenBabel11021811523D
libRbt.so/2013.1/901 2013/11/27
 22 23  0  0  0  0  0  0  0  0999 V2000
   66.0172  -16.8447   -1.5125 O   0  0  0  0  0  0  0  0  0  0  0  0
   65.6548  -17.3809   -0.4919 C   0  0  0  0  0  0  0  0  0  0  0  0
   65.5577  -18.6943   -0.3859 N   0  0  0  0  0  0  0  0  0  0  0  0
   65.2623  -16.5689    0.6686 C   0  0  0  0  0  0  0  0  0  0  0  0
   65.2522  -15.1046    0.7046 C   0  0  0  0  0  0  0  0  0  0  0  0
   65.6182  -14.2913   -0.3093 N   0  0  0  0  0  0  0  0  0  0  0  0
   64.8481  -16.9347    1.8922 N   0  0  0  0  0  0  0  0  0  0  0  0
   64.5790  -15.8098    2.6111 C   0  0  0  0  0  0  0  0  0  0  0  0
   64.8182  -14.6889    1.8891 N   0  0  0  0  0  0  0  0  0  0  0  0
   64.6323  -13.2906    2.3639 C   0  0  1  0  0  0  0  0  0  0  0  0
   65.9642  -12.5725    2.3394 C   0  0  1  0  0  0  0  0  0  0  0  0
   65.6153  -11.1837    1.8704 C   0  0  2  0  0  0  0  0  0  0  0  0
   65.3375  -10.3453    2.9991 O   0  0  0  0  0  0  0  0  0  0  0  0
   66.5750  -12.5721    3.6391 O   0  0  0  0  0  0  0  0  0  0  0  0
   63.7828  -12.5745    1.4709 O   0  0  0  0  0  0  0  0  0  0  0  0
   64.3487  -11.3493    1.0716 C   0  0  2  0  0  0  0  0  0  0  0  0
   64.5161  -11.4366   -0.4313 C   0  0  0  0  0  0  0  0  0  0  0  0
   65.4417  -10.4826   -0.9102 O   0  0  0  0  0  0  0  0  0  0  0  0
   65.7918  -10.4738   -2.4690 P   0  0  0  0  0  0  0  0  0  0  0  0
   66.9790   -9.5409   -2.5994 O   0  0  0  0  0  0  0  0  0  0  0  0
   64.5115   -9.9647   -3.0791 O   0  0  0  0  0  0  0  0  0  0  0  0
   66.0360  -11.9249   -2.7784 O   0  0  0  0  0  0  0  0  0  0  0  0
  2  1  2  0  0  0  0
  2  4  1  0  0  0  0
  3  2  1  0  0  0  0
  4  7  1  0  0  0  0
  4  5  2  0  0  0  0
  5  6  1  0  0  0  0
  5  9  1  0  0  0  0
  7  8  2  0  0  0  0
  8  9  1  0  0  0  0
 10  9  1  6  0  0  0
 10 15  1  0  0  0  0
 11 14  1  1  0  0  0
 11 12  1  0  0  0  0
 11 10  1  0  0  0  0
 12 13  1  1  0  0  0
 12 16  1  0  0  0  0
 16 17  1  6  0  0  0
 16 15  1  0  0  0  0
 18 19  1  0  0  0  0
 18 17  1  0  0  0  0
 19 21  1  0  0  0  0
 20 19  1  0  0  0  0
 22 19  2  0  0  0  0
M  END
>  <CHROM.1>
0.80348872,-61.08106181,-43.25537796,-169.51123423,177.32360531,65.36433696
-13.09347452,0.18321238,-2.01450783,1.46018934,0.05273411

>  <Name>
lig.pdb

>  <RI>
0

>  <Rbt.Current_Directory>
/home/itssahil/PROJECTS/Mol_Feturizer/New_Systems/rnas/4znp

>  <Rbt.Executable>
rbdock ($Id: //depot/dev/client3/rdock/2013.1/src/exe/rbdock.cxx#4 $)

>  <Rbt.Library>
libRbt.so (2013.1, Build901 2013/11/27)

>  <Rbt.Parameter_File>
/export/apps/rDock/src/rDock_2013.1_src/data/scripts/dock_solv.prm

>  <Rbt.Receptor>
prm/blind_docking_80.prm

>  <SCORE>
-16.414

>  <SCORE.INTER>
-11.4137

>  <SCORE.INTER.CONST>
1

>  <SCORE.INTER.POLAR>
0

>  <SCORE.INTER.ROT>
5

>  <SCORE.INTER.SOLV>
17.631

>  <SCORE.INTER.VDW>
-20.4195

>  <SCORE.INTER.norm>
-0.518806

>  <SCORE.INTRA>
-5.0003

>  <SCORE.INTRA.DIHEDRAL>
-8.31776

>  <SCORE.INTRA.DIHEDRAL.0>
11.9251

>  <SCORE.INTRA.POLAR>
0

>  <SCORE.INTRA.POLAR.0>
0

>  <SCORE.INTRA.REPUL>
0

>  <SCORE.INTRA.REPUL.0>
0

>  <SCORE.INTRA.SOLV>
1.67537

>  <SCORE.INTRA.SOLV.lig_0>
-40.9823

>  <SCORE.INTRA.VDW>
-1.6791

>  <SCORE.INTRA.VDW.0>
-0.53506

>  <SCORE.INTRA.norm>
-0.227286

>  <SCORE.RESTR>
0

>  <SCORE.RESTR.CAVITY>
0

>  <SCORE.RESTR.norm>
0

>  <SCORE.SYSTEM>
0

>  <SCORE.SYSTEM.CONST>
0

>  <SCORE.SYSTEM.DIHEDRAL>
0

>  <SCORE.SYSTEM.SOLV>
0

>  <SCORE.SYSTEM.norm>
0

>  <SCORE.heavy>
22

>  <SCORE.norm>
-0.746092

>  <RMSD>
11.625

$$$$
lig.pdb
 OpenBabel11021811523D
libRbt.so/2013.1/901 2013/11/27
 22 23  0  0  0  0  0  0  0  0999 V2000
   65.5929  -18.6199   -0.4292 O   0  0  0  0  0  0  0  0  0  0  0  0
   65.6122  -17.4139   -0.5036 C   0  0  0  0  0  0  0  0  0  0  0  0
   65.9924  -16.7850   -1.6017 N   0  0  0  0  0  0  0  0  0  0  0  0
   65.2481  -16.5971    0.6627 C   0  0  0  0  0  0  0  0  0  0  0  0
   65.2175  -15.1329    0.6864 C   0  0  0  0  0  0  0  0  0  0  0  0
   65.5362  -14.3236   -0.3465 N   0  0  0  0  0  0  0  0  0  0  0  0
   64.8817  -16.9578    1.9030 N   0  0  0  0  0  0  0  0  0  0  0  0
   64.6210  -15.8305    2.6211 C   0  0  0  0  0  0  0  0  0  0  0  0
   64.8185  -14.7128    1.8816 N   0  0  0  0  0  0  0  0  0  0  0  0
   64.6284  -13.3130    2.3506 C   0  0  1  0  0  0  0  0  0  0  0  0
   65.9605  -12.5951    2.3360 C   0  0  1  0  0  0  0  0  0  0  0  0
   65.6160  -11.2077    1.8598 C   0  0  2  0  0  0  0  0  0  0  0  0
   65.3280  -10.3659    2.9834 O   0  0  0  0  0  0  0  0  0  0  0  0
   66.5595  -12.5908    3.6413 O   0  0  0  0  0  0  0  0  0  0  0  0
   63.7871  -12.5996    1.4479 O   0  0  0  0  0  0  0  0  0  0  0  0
   64.3567  -11.3756    1.0500 C   0  0  2  0  0  0  0  0  0  0  0  0
   64.5377  -11.4673   -0.4511 C   0  0  0  0  0  0  0  0  0  0  0  0
   65.4580  -10.5063   -0.9260 O   0  0  0  0  0  0  0  0  0  0  0  0
   65.7975  -10.4802   -2.4870 P   0  0  0  0  0  0  0  0  0  0  0  0
   66.9981   -9.5640   -2.6124 O   0  0  0  0  0  0  0  0  0  0  0  0
   64.5210   -9.9425   -3.0805 O   0  0  0  0  0  0  0  0  0  0  0  0
   66.0168  -11.9302   -2.8191 O   0  0  0  0  0  0  0  0  0  0  0  0
  2  1  2  0  0  0  0
  2  4  1  0  0  0  0
  3  2  1  0  0  0  0
  4  7  1  0  0  0  0
  4  5  2  0  0  0  0
  5  6  1  0  0  0  0
  5  9  1  0  0  0  0
  7  8  2  0  0  0  0
  8  9  1  0  0  0  0
 10  9  1  6  0  0  0
 10 15  1  0  0  0  0
 11 14  1  1  0  0  0
 11 12  1  0  0  0  0
 11 10  1  0  0  0  0
 12 13  1  1  0  0  0
 12 16  1  0  0  0  0
 16 17  1  6  0  0  0
 16 15  1  0  0  0  0
 18 19  1  0  0  0  0
 18 17  1  0  0  0  0
 19 21  1  0  0  0  0
 20 19  1  0  0  0  0
 22 19  2  0  0  0  0
M  END
>  <CHROM.1>
-179.14876861,-63.74120482,-43.82192522,-168.47610940,178.61802176,65.36024686
-13.11617256,0.17213063,-2.04485020,1.46310884,0.08120188

>  <Name>
lig.pdb

>  <RI>
0

>  <Rbt.Current_Directory>
/home/itssahil/PROJECTS/Mol_Feturizer/New_Systems/rnas/4znp

>  <Rbt.Executable>
rbdock ($Id: //depot/dev/client3/rdock/2013.1/src/exe/rbdock.cxx#4 $)

>  <Rbt.Library>
libRbt.so (2013.1, Build901 2013/11/27)

>  <Rbt.Parameter_File>
/export/apps/rDock/src/rDock_2013.1_src/data/scripts/dock_solv.prm

>  <Rbt.Receptor>
prm/blind_docking_80.prm

>  <SCORE>
-16.3916

>  <SCORE.INTER>
-11.5423

>  <SCORE.INTER.CONST>
1

>  <SCORE.INTER.POLAR>
0

>  <SCORE.INTER.ROT>
5

>  <SCORE.INTER.SOLV>
17.0289

>  <SCORE.INTER.VDW>
-20.3045

>  <SCORE.INTER.norm>
-0.524649

>  <SCORE.INTRA>
-4.851

>  <SCORE.INTRA.DIHEDRAL>
-8.35934

>  <SCORE.INTRA.DIHEDRAL.0>
11.9251

>  <SCORE.INTRA.POLAR>
0

>  <SCORE.INTRA.POLAR.0>
0

>  <SCORE.INTRA.REPUL>
0

>  <SCORE.INTRA.REPUL.0>
0

>  <SCORE.INTRA.SOLV>
1.88929

>  <SCORE.INTRA.SOLV.lig_0>
-40.9823

>  <SCORE.INTRA.VDW>
-1.61598

>  <SCORE.INTRA.VDW.0>
-0.53506

>  <SCORE.INTRA.norm>
-0.2205

>  <SCORE.RESTR>
0.00167728

>  <SCORE.RESTR.CAVITY>
0.00167728

>  <SCORE.RESTR.norm>
7.62401e-05

>  <SCORE.SYSTEM>
0

>  <SCORE.SYSTEM.CONST>
0

>  <SCORE.SYSTEM.DIHEDRAL>
0

>  <SCORE.SYSTEM.SOLV>
0

>  <SCORE.SYSTEM.norm>
0

>  <SCORE.heavy>
22

>  <SCORE.norm>
-0.745073

>  <RMSD>
11.629

$$$$
lig.pdb
 OpenBabel11021811523D
libRbt.so/2013.1/901 2013/11/27
 22 23  0  0  0  0  0  0  0  0999 V2000
   52.4054   -6.8760    8.1028 O   0  0  0  0  0  0  0  0  0  0  0  0
   53.3779   -7.3956    8.5975 C   0  0  0  0  0  0  0  0  0  0  0  0
   53.4534   -8.7002    8.7920 N   0  0  0  0  0  0  0  0  0  0  0  0
   54.5079   -6.5693    9.0455 C   0  0  0  0  0  0  0  0  0  0  0  0
   54.4301   -5.1421    9.3654 C   0  0  0  0  0  0  0  0  0  0  0  0
   53.3212   -4.3765    9.2775 N   0  0  0  0  0  0  0  0  0  0  0  0
   55.7948   -6.8882    9.2566 N   0  0  0  0  0  0  0  0  0  0  0  0
   56.4491   -5.7761    9.6925 C   0  0  0  0  0  0  0  0  0  0  0  0
   55.6195   -4.7079    9.7667 N   0  0  0  0  0  0  0  0  0  0  0  0
   56.0013   -3.3370   10.2028 C   0  0  1  0  0  0  0  0  0  0  0  0
   56.8246   -2.6776    9.1176 C   0  0  1  0  0  0  0  0  0  0  0  0
   56.3513   -1.2471    9.1263 C   0  0  2  0  0  0  0  0  0  0  0  0
   57.1599   -0.4734   10.0215 O   0  0  0  0  0  0  0  0  0  0  0  0
   58.2293   -2.7893    9.3949 O   0  0  0  0  0  0  0  0  0  0  0  0
   54.8389   -2.5273   10.3614 O   0  0  0  0  0  0  0  0  0  0  0  0
   54.9488   -1.3044    9.6735 C   0  0  2  0  0  0  0  0  0  0  0  0
   53.8336   -1.3000    8.6484 C   0  0  0  0  0  0  0  0  0  0  0  0
   53.5629    0.0039    8.1765 O   0  0  0  0  0  0  0  0  0  0  0  0
   52.4662    0.1884    7.0295 P   0  0  0  0  0  0  0  0  0  0  0  0
   53.1014   -0.3920    5.7819 O   0  0  0  0  0  0  0  0  0  0  0  0
   52.2749    1.6830    7.0106 O   0  0  0  0  0  0  0  0  0  0  0  0
   51.2668   -0.5353    7.5759 O   0  0  0  0  0  0  0  0  0  0  0  0
  2  1  2  0  0  0  0
  2  4  1  0  0  0  0
  3  2  1  0  0  0  0
  4  7  1  0  0  0  0
  4  5  2  0  0  0  0
  5  6  1  0  0  0  0
  5  9  1  0  0  0  0
  7  8  2  0  0  0  0
  8  9  1  0  0  0  0
 10  9  1  6  0  0  0
 10 15  1  0  0  0  0
 11 14  1  1  0  0  0
 11 12  1  0  0  0  0
 11 10  1  0  0  0  0
 12 13  1  1  0  0  0
 12 16  1  0  0  0  0
 16 17  1  6  0  0  0
 16 15  1  0  0  0  0
 18 19  1  0  0  0  0
 18 17  1  0  0  0  0
 19 21  1  0  0  0  0
 20 19  1  0  0  0  0
 22 19  2  0  0  0  0
M  END
>  <CHROM.1>
21.34105001,-106.31330328,-80.30203346,-70.54335470,176.77404199,54.41107411
-2.92197215,8.68763007,1.31785244,0.45851677,3.01324803

>  <Name>
lig.pdb

>  <RI>
0

>  <Rbt.Current_Directory>
/home/afrankz/demos/rdock_decoys_rna/rnas/4znp

>  <Rbt.Executable>
rbdock ($Id: //depot/dev/client3/rdock/2013.1/src/exe/rbdock.cxx#4 $)

>  <Rbt.Library>
libRbt.so (2013.1, Build901 2013/11/27)

>  <Rbt.Parameter_File>
/export/apps/rDock/src/rDock_2013.1_src/data/scripts/dock_solv.prm

>  <Rbt.Receptor>
prm/blind_docking_60.prm

>  <SCORE>
3.60934

>  <SCORE.INTER>
3.97426

>  <SCORE.INTER.CONST>
1

>  <SCORE.INTER.POLAR>
0

>  <SCORE.INTER.ROT>
5

>  <SCORE.INTER.SOLV>
16.4934

>  <SCORE.INTER.VDW>
-9.78162

>  <SCORE.INTER.norm>
0.180648

>  <SCORE.INTRA>
-4.08398

>  <SCORE.INTRA.DIHEDRAL>
-6.27255

>  <SCORE.INTRA.DIHEDRAL.0>
11.9251

>  <SCORE.INTRA.POLAR>
0

>  <SCORE.INTRA.POLAR.0>
0

>  <SCORE.INTRA.REPUL>
0

>  <SCORE.INTRA.REPUL.0>
0

>  <SCORE.INTRA.SOLV>
0.911272

>  <SCORE.INTRA.SOLV.lig_0>
-40.9823

>  <SCORE.INTRA.VDW>
-1.40335

>  <SCORE.INTRA.VDW.0>
-0.53506

>  <SCORE.INTRA.norm>
-0.185636

>  <SCORE.RESTR>
3.71907

>  <SCORE.RESTR.CAVITY>
3.71907

>  <SCORE.RESTR.norm>
0.169049

>  <SCORE.SYSTEM>
0

>  <SCORE.SYSTEM.CONST>
0

>  <SCORE.SYSTEM.DIHEDRAL>
0

>  <SCORE.SYSTEM.SOLV>
0

>  <SCORE.SYSTEM.norm>
0

>  <SCORE.heavy>
22

>  <SCORE.norm>
0.164061

>  <RMSD>
11.630

$$$$
lig.pdb
 OpenBabel11021811523D
libRbt.so/2013.1/901 2013/11/27
 22 23  0  0  0  0  0  0  0  0999 V2000
   59.6690  -23.2392    7.1967 O   0  0  0  0  0  0  0  0  0  0  0  0
   60.8482  -23.4374    7.3714 C   0  0  0  0  0  0  0  0  0  0  0  0
   61.3320  -23.8003    8.5461 N   0  0  0  0  0  0  0  0  0  0  0  0
   61.8012  -23.2336    6.2711 C   0  0  0  0  0  0  0  0  0  0  0  0
   61.4469  -23.1873    4.8507 C   0  0  0  0  0  0  0  0  0  0  0  0
   60.2045  -23.3436    4.3454 N   0  0  0  0  0  0  0  0  0  0  0  0
   63.1315  -23.0540    6.2884 N   0  0  0  0  0  0  0  0  0  0  0  0
   63.5609  -22.8841    5.0072 C   0  0  0  0  0  0  0  0  0  0  0  0
   62.5356  -22.9585    4.1250 N   0  0  0  0  0  0  0  0  0  0  0  0
   62.6460  -22.8191    2.6473 C   0  0  1  0  0  0  0  0  0  0  0  0
   61.6994  -21.7371    2.1745 C   0  0  1  0  0  0  0  0  0  0  0  0
   62.4729  -21.0306    1.0916 C   0  0  2  0  0  0  0  0  0  0  0  0
   62.1971  -21.6374   -0.1772 O   0  0  0  0  0  0  0  0  0  0  0  0
   60.4713  -22.3011    1.6885 O   0  0  0  0  0  0  0  0  0  0  0  0
   63.9542  -22.3814    2.2887 O   0  0  0  0  0  0  0  0  0  0  0  0
   63.9218  -21.2655    1.4317 C   0  0  2  0  0  0  0  0  0  0  0  0
   64.6207  -20.1466    2.1759 C   0  0  0  0  0  0  0  0  0  0  0  0
   64.9065  -19.0536    1.3276 O   0  0  0  0  0  0  0  0  0  0  0  0
   65.4796  -17.7116    1.9781 P   0  0  0  0  0  0  0  0  0  0  0  0
   66.0832  -16.9411    0.8210 O   0  0  0  0  0  0  0  0  0  0  0  0
   66.4744  -18.2429    2.9775 O   0  0  0  0  0  0  0  0  0  0  0  0
   64.2737  -17.1032    2.6387 O   0  0  0  0  0  0  0  0  0  0  0  0
  2  1  2  0  0  0  0
  2  4  1  0  0  0  0
  3  2  1  0  0  0  0
  4  7  1  0  0  0  0
  4  5  2  0  0  0  0
  5  6  1  0  0  0  0
  5  9  1  0  0  0  0
  7  8  2  0  0  0  0
  8  9  1  0  0  0  0
 10  9  1  1  0  0  0
 10 15  1  0  0  0  0
 11 14  1  6  0  0  0
 11 12  1  0  0  0  0
 11 10  1  0  0  0  0
 12 13  1  6  0  0  0
 12 16  1  0  0  0  0
 16 17  1  1  0  0  0
 16 15  1  0  0  0  0
 18 19  1  0  0  0  0
 18 17  1  0  0  0  0
 19 21  1  0  0  0  0
 20 19  1  0  0  0  0
 22 19  2  0  0  0  0
M  END
>  <CHROM.1>
-19.20655127,55.12057589,-74.41780137,162.35811894,172.58938002,63.08730812
-21.13587925,3.33582658,-2.42831161,-0.83124286,-1.42922934

>  <Name>
lig.pdb

>  <RI>
0

>  <Rbt.Current_Directory>
/home/itssahil/PROJECTS/Mol_Feturizer/New_Systems/rnas/4znp

>  <Rbt.Executable>
rbdock ($Id: //depot/dev/client3/rdock/2013.1/src/exe/rbdock.cxx#4 $)

>  <Rbt.Library>
libRbt.so (2013.1, Build901 2013/11/27)

>  <Rbt.Parameter_File>
/export/apps/rDock/src/rDock_2013.1_src/data/scripts/dock_solv.prm

>  <Rbt.Receptor>
prm/blind_docking_100.prm

>  <SCORE>
-19.9094

>  <SCORE.INTER>
-15.8372

>  <SCORE.INTER.CONST>
1

>  <SCORE.INTER.POLAR>
0

>  <SCORE.INTER.ROT>
5

>  <SCORE.INTER.SOLV>
22.616

>  <SCORE.INTER.VDW>
-25.0302

>  <SCORE.INTER.norm>
-0.719874

>  <SCORE.INTRA>
-4.07217

>  <SCORE.INTRA.DIHEDRAL>
-6.96137

>  <SCORE.INTRA.DIHEDRAL.0>
11.9251

>  <SCORE.INTRA.POLAR>
0

>  <SCORE.INTRA.POLAR.0>
0

>  <SCORE.INTRA.REPUL>
0

>  <SCORE.INTRA.REPUL.0>
0

>  <SCORE.INTRA.SOLV>
0.464252

>  <SCORE.INTRA.SOLV.lig_0>
-40.9823

>  <SCORE.INTRA.VDW>
-0.823613

>  <SCORE.INTRA.VDW.0>
-0.53506

>  <SCORE.INTRA.norm>
-0.185099

>  <SCORE.RESTR>
0

>  <SCORE.RESTR.CAVITY>
0

>  <SCORE.RESTR.norm>
0

>  <SCORE.SYSTEM>
0

>  <SCORE.SYSTEM.CONST>
0

>  <SCORE.SYSTEM.DIHEDRAL>
0

>  <SCORE.SYSTEM.SOLV>
0

>  <SCORE.SYSTEM.norm>
0

>  <SCORE.heavy>
22

>  <SCORE.norm>
-0.904973

>  <RMSD>
11.632

$$$$
lig.pdb
 OpenBabel11021811523D
libRbt.so/2013.1/901 2013/11/27
 22 23  0  0  0  0  0  0  0  0999 V2000
   61.5253  -23.8539    8.4570 O   0  0  0  0  0  0  0  0  0  0  0  0
   61.0865  -23.4721    7.3977 C   0  0  0  0  0  0  0  0  0  0  0  0
   59.7960  -23.2612    7.2082 N   0  0  0  0  0  0  0  0  0  0  0  0
   61.9889  -23.2698    6.2554 C   0  0  0  0  0  0  0  0  0  0  0  0
   61.5665  -23.1871    4.8554 C   0  0  0  0  0  0  0  0  0  0  0  0
   60.2972  -23.3035    4.4096 N   0  0  0  0  0  0  0  0  0  0  0  0
   63.3226  -23.1226    6.2099 N   0  0  0  0  0  0  0  0  0  0  0  0
   63.6925  -22.9380    4.9123 C   0  0  0  0  0  0  0  0  0  0  0  0
   62.6236  -22.9704    4.0809 N   0  0  0  0  0  0  0  0  0  0  0  0
   62.6645  -22.8048    2.6023 C   0  0  1  0  0  0  0  0  0  0  0  0
   61.6959  -21.7163    2.1936 C   0  0  1  0  0  0  0  0  0  0  0  0
   62.4174  -20.9894    1.0884 C   0  0  2  0  0  0  0  0  0  0  0  0
   62.0830  -21.5742   -0.1767 O   0  0  0  0  0  0  0  0  0  0  0  0
   60.4470  -22.2737    1.7556 O   0  0  0  0  0  0  0  0  0  0  0  0
   63.9542  -22.3586    2.1908 O   0  0  0  0  0  0  0  0  0  0  0  0
   63.8807  -21.2278    1.3561 C   0  0  2  0  0  0  0  0  0  0  0  0
   64.6127  -20.1210    2.0866 C   0  0  0  0  0  0  0  0  0  0  0  0
   64.8544  -19.0113    1.2463 O   0  0  0  0  0  0  0  0  0  0  0  0
   65.4209  -17.6678    1.8996 P   0  0  0  0  0  0  0  0  0  0  0  0
   66.5475  -18.1177    2.8080 O   0  0  0  0  0  0  0  0  0  0  0  0
   64.2081  -17.1244    2.6100 O   0  0  0  0  0  0  0  0  0  0  0  0
   65.8059  -16.8370    0.7070 O   0  0  0  0  0  0  0  0  0  0  0  0
  2  1  2  0  0  0  0
  2  4  1  0  0  0  0
  3  2  1  0  0  0  0
  4  7  1  0  0  0  0
  4  5  2  0  0  0  0
  5  6  1  0  0  0  0
  5  9  1  0  0  0  0
  7  8  2  0  0  0  0
  8  9  1  0  0  0  0
 10  9  1  1  0  0  0
 10 15  1  0  0  0  0
 11 14  1  6  0  0  0
 11 12  1  0  0  0  0
 11 10  1  0  0  0  0
 12 13  1  6  0  0  0
 12 16  1  0  0  0  0
 16 17  1  1  0  0  0
 16 15  1  0  0  0  0
 18 19  1  0  0  0  0
 18 17  1  0  0  0  0
 19 21  1  0  0  0  0
 20 19  1  0  0  0  0
 22 19  2  0  0  0  0
M  END
>  <CHROM.1>
161.66269313,53.62885522,-74.26472116,46.28483314,171.06174027,63.12154807
-21.12188905,3.29865376,-2.35466105,-0.83174535,-1.36016262

>  <Name>
lig.pdb

>  <RI>
0

>  <Rbt.Current_Directory>
/home/itssahil/PROJECTS/Mol_Feturizer/New_Systems/rnas/4znp

>  <Rbt.Executable>
rbdock ($Id: //depot/dev/client3/rdock/2013.1/src/exe/rbdock.cxx#4 $)

>  <Rbt.Library>
libRbt.so (2013.1, Build901 2013/11/27)

>  <Rbt.Parameter_File>
/export/apps/rDock/src/rDock_2013.1_src/data/scripts/dock_solv.prm

>  <Rbt.Receptor>
prm/blind_docking_80.prm

>  <SCORE>
-20.4394

>  <SCORE.INTER>
-16.0566

>  <SCORE.INTER.CONST>
1

>  <SCORE.INTER.POLAR>
0

>  <SCORE.INTER.ROT>
5

>  <SCORE.INTER.SOLV>
21.6193

>  <SCORE.INTER.VDW>
-24.8442

>  <SCORE.INTER.norm>
-0.729845

>  <SCORE.INTRA>
-4.38284

>  <SCORE.INTRA.DIHEDRAL>
-7.12648

>  <SCORE.INTRA.DIHEDRAL.0>
11.9251

>  <SCORE.INTRA.POLAR>
0

>  <SCORE.INTRA.POLAR.0>
0

>  <SCORE.INTRA.REPUL>
0

>  <SCORE.INTRA.REPUL.0>
0

>  <SCORE.INTRA.SOLV>
0.536436

>  <SCORE.INTRA.SOLV.lig_0>
-40.9823

>  <SCORE.INTRA.VDW>
-1.08782

>  <SCORE.INTRA.VDW.0>
-0.53506

>  <SCORE.INTRA.norm>
-0.19922

>  <SCORE.RESTR>
0

>  <SCORE.RESTR.CAVITY>
0

>  <SCORE.RESTR.norm>
0

>  <SCORE.SYSTEM>
0

>  <SCORE.SYSTEM.CONST>
0

>  <SCORE.SYSTEM.DIHEDRAL>
0

>  <SCORE.SYSTEM.SOLV>
0

>  <SCORE.SYSTEM.norm>
0

>  <SCORE.heavy>
22

>  <SCORE.norm>
-0.929066

>  <RMSD>
11.644

$$$$
lig.pdb
 OpenBabel11021811523D
libRbt.so/2013.1/901 2013/11/27
 22 23  0  0  0  0  0  0  0  0999 V2000
   65.1864  -10.4304    2.8138 O   0  0  0  0  0  0  0  0  0  0  0  0
   64.7139  -11.2228    2.0332 C   0  0  0  0  0  0  0  0  0  0  0  0
   63.9745  -10.8406    1.0070 N   0  0  0  0  0  0  0  0  0  0  0  0
   64.9164  -12.6648    2.2327 C   0  0  0  0  0  0  0  0  0  0  0  0
   64.2527  -13.7205    1.4643 C   0  0  0  0  0  0  0  0  0  0  0  0
   63.3488  -13.5260    0.4801 N   0  0  0  0  0  0  0  0  0  0  0  0
   65.6977  -13.3263    3.1012 N   0  0  0  0  0  0  0  0  0  0  0  0
   65.5566  -14.6623    2.8778 C   0  0  0  0  0  0  0  0  0  0  0  0
   64.6799  -14.9091    1.8752 N   0  0  0  0  0  0  0  0  0  0  0  0
   64.2895  -16.2539    1.3706 C   0  0  1  0  0  0  0  0  0  0  0  0
   65.3346  -16.7442    0.3921 C   0  0  1  0  0  0  0  0  0  0  0  0
   65.4465  -18.2163    0.6931 C   0  0  2  0  0  0  0  0  0  0  0  0
   64.5293  -18.9510   -0.1273 O   0  0  0  0  0  0  0  0  0  0  0  0
   64.9314  -16.4935   -0.9633 O   0  0  0  0  0  0  0  0  0  0  0  0
   64.2771  -17.1978    2.4386 O   0  0  0  0  0  0  0  0  0  0  0  0
   65.0200  -18.3531    2.1316 C   0  0  2  0  0  0  0  0  0  0  0  0
   66.1361  -18.4161    3.1537 C   0  0  0  0  0  0  0  0  0  0  0  0
   66.8795  -17.2152    3.1902 O   0  0  0  0  0  0  0  0  0  0  0  0
   68.1204  -17.1154    4.1916 P   0  0  0  0  0  0  0  0  0  0  0  0
   68.5243  -15.6549    4.1719 O   0  0  0  0  0  0  0  0  0  0  0  0
   69.1125  -18.0594    3.5629 O   0  0  0  0  0  0  0  0  0  0  0  0
   67.5664  -17.6454    5.4851 O   0  0  0  0  0  0  0  0  0  0  0  0
  2  1  2  0  0  0  0
  2  4  1  0  0  0  0
  3  2  1  0  0  0  0
  4  7  1  0  0  0  0
  4  5  2  0  0  0  0
  5  6  1  0  0  0  0
  5  9  1  0  0  0  0
  7  8  2  0  0  0  0
  8  9  1  0  0  0  0
 10  9  1  1  0  0  0
 10 15  1  0  0  0  0
 11 14  1  6  0  0  0
 11 12  1  0  0  0  0
 11 10  1  0  0  0  0
 12 13  1  6  0  0  0
 12 16  1  0  0  0  0
 16 17  1  1  0  0  0
 16 15  1  0  0  0  0
 18 19  1  0  0  0  0
 18 17  1  0  0  0  0
 19 21  1  0  0  0  0
 20 19  1  0  0  0  0
 22 19  2  0  0  0  0
M  END
>  <CHROM.1>
171.49576091,98.31990396,64.14364092,-169.89892870,-178.66565411,65.76176443
-15.68924141,2.30122976,-2.22237781,0.82236614,-2.90331103

>  <Name>
lig.pdb

>  <RI>
0

>  <Rbt.Current_Directory>
/home/itssahil/PROJECTS/Mol_Feturizer/New_Systems/rnas/4znp

>  <Rbt.Executable>
rbdock ($Id: //depot/dev/client3/rdock/2013.1/src/exe/rbdock.cxx#4 $)

>  <Rbt.Library>
libRbt.so (2013.1, Build901 2013/11/27)

>  <Rbt.Parameter_File>
/export/apps/rDock/src/rDock_2013.1_src/data/scripts/dock_solv.prm

>  <Rbt.Receptor>
prm/blind_docking_100.prm

>  <SCORE>
-16.5457

>  <SCORE.INTER>
-10.557

>  <SCORE.INTER.CONST>
1

>  <SCORE.INTER.POLAR>
0

>  <SCORE.INTER.ROT>
5

>  <SCORE.INTER.SOLV>
17.2776

>  <SCORE.INTER.VDW>
-19.7305

>  <SCORE.INTER.norm>
-0.479863

>  <SCORE.INTRA>
-5.98869

>  <SCORE.INTRA.DIHEDRAL>
-9.08992

>  <SCORE.INTRA.DIHEDRAL.0>
11.9251

>  <SCORE.INTRA.POLAR>
0

>  <SCORE.INTRA.POLAR.0>
0

>  <SCORE.INTRA.REPUL>
0

>  <SCORE.INTRA.REPUL.0>
0

>  <SCORE.INTRA.SOLV>
1.04037

>  <SCORE.INTRA.SOLV.lig_0>
-40.9823

>  <SCORE.INTRA.VDW>
-1.96391

>  <SCORE.INTRA.VDW.0>
-0.53506

>  <SCORE.INTRA.norm>
-0.272213

>  <SCORE.RESTR>
0

>  <SCORE.RESTR.CAVITY>
0

>  <SCORE.RESTR.norm>
0

>  <SCORE.SYSTEM>
0

>  <SCORE.SYSTEM.CONST>
0

>  <SCORE.SYSTEM.DIHEDRAL>
0

>  <SCORE.SYSTEM.SOLV>
0

>  <SCORE.SYSTEM.norm>
0

>  <SCORE.heavy>
22

>  <SCORE.norm>
-0.752075

>  <RMSD>
11.659

$$$$
lig.pdb
 OpenBabel11021811523D
libRbt.so/2013.1/901 2013/11/27
 22 23  0  0  0  0  0  0  0  0999 V2000
   64.6141  -10.1349   -1.2400 O   0  0  0  0  0  0  0  0  0  0  0  0
   64.8232  -10.9990   -0.4214 C   0  0  0  0  0  0  0  0  0  0  0  0
   65.5795  -10.7899    0.6416 N   0  0  0  0  0  0  0  0  0  0  0  0
   64.2666  -12.3459   -0.6123 C   0  0  0  0  0  0  0  0  0  0  0  0
   64.6308  -13.5249    0.1768 C   0  0  0  0  0  0  0  0  0  0  0  0
   65.5392  -13.5520    1.1755 N   0  0  0  0  0  0  0  0  0  0  0  0
   63.3572  -12.8001   -1.4892 N   0  0  0  0  0  0  0  0  0  0  0  0
   63.1532  -14.1256   -1.2520 C   0  0  0  0  0  0  0  0  0  0  0  0
   63.9239  -14.5726   -0.2316 N   0  0  0  0  0  0  0  0  0  0  0  0
   63.9547  -15.9658    0.2913 C   0  0  1  0  0  0  0  0  0  0  0  0
   65.3180  -16.5685    0.0299 C   0  0  1  0  0  0  0  0  0  0  0  0
   65.5973  -17.3775    1.2700 C   0  0  2  0  0  0  0  0  0  0  0  0
   65.1209  -18.7176    1.0932 O   0  0  0  0  0  0  0  0  0  0  0  0
   65.3069  -17.3762   -1.1575 O   0  0  0  0  0  0  0  0  0  0  0  0
   63.7894  -15.9659    1.7070 O   0  0  0  0  0  0  0  0  0  0  0  0
   64.7863  -16.7187    2.3554 C   0  0  2  0  0  0  0  0  0  0  0  0
   65.5316  -15.7459    3.2458 C   0  0  0  0  0  0  0  0  0  0  0  0
   66.7438  -16.2953    3.7201 O   0  0  0  0  0  0  0  0  0  0  0  0
   67.5456  -15.5088    4.8563 P   0  0  0  0  0  0  0  0  0  0  0  0
   66.7115  -15.6735    6.1109 O   0  0  0  0  0  0  0  0  0  0  0  0
   67.5915  -14.1086    4.3011 O   0  0  0  0  0  0  0  0  0  0  0  0
   68.8953  -16.1713    4.8509 O   0  0  0  0  0  0  0  0  0  0  0  0
  2  1  2  0  0  0  0
  2  4  1  0  0  0  0
  3  2  1  0  0  0  0
  4  7  1  0  0  0  0
  4  5  2  0  0  0  0
  5  6  1  0  0  0  0
  5  9  1  0  0  0  0
  7  8  2  0  0  0  0
  8  9  1  0  0  0  0
 10  9  1  1  0  0  0
 10 15  1  0  0  0  0
 11 14  1  6  0  0  0
 11 12  1  0  0  0  0
 11 10  1  0  0  0  0
 12 13  1  6  0  0  0
 12 16  1  0  0  0  0
 16 17  1  6  0  0  0
 16 15  1  0  0  0  0
 18 19  1  0  0  0  0
 18 17  1  0  0  0  0
 19 21  1  0  0  0  0
 20 19  1  0  0  0  0
 22 19  2  0  0  0  0
M  END
>  <CHROM.1>
169.06118397,-64.66610090,-48.54792711,71.02737721,-170.25990592,65.48576481
-14.87444740,1.61213061,-2.49512174,1.01261068,3.00451380

>  <Name>
lig.pdb

>  <RI>
0

>  <Rbt.Current_Directory>
/home/itssahil/PROJECTS/Mol_Feturizer/New_Systems/rnas/4znp

>  <Rbt.Executable>
rbdock ($Id: //depot/dev/client3/rdock/2013.1/src/exe/rbdock.cxx#4 $)

>  <Rbt.Library>
libRbt.so (2013.1, Build901 2013/11/27)

>  <Rbt.Parameter_File>
/export/apps/rDock/src/rDock_2013.1_src/data/scripts/dock_solv.prm

>  <Rbt.Receptor>
prm/blind_docking_80.prm

>  <SCORE>
-12.4339

>  <SCORE.INTER>
-7.45314

>  <SCORE.INTER.CONST>
1

>  <SCORE.INTER.POLAR>
0

>  <SCORE.INTER.ROT>
5

>  <SCORE.INTER.SOLV>
16.4036

>  <SCORE.INTER.VDW>
-17.3699

>  <SCORE.INTER.norm>
-0.338779

>  <SCORE.INTRA>
-4.98081

>  <SCORE.INTRA.DIHEDRAL>
-8.02792

>  <SCORE.INTRA.DIHEDRAL.0>
11.9251

>  <SCORE.INTRA.POLAR>
0

>  <SCORE.INTRA.POLAR.0>
0

>  <SCORE.INTRA.REPUL>
0

>  <SCORE.INTRA.REPUL.0>
0

>  <SCORE.INTRA.SOLV>
1.26281

>  <SCORE.INTRA.SOLV.lig_0>
-40.9823

>  <SCORE.INTRA.VDW>
-1.59826

>  <SCORE.INTRA.VDW.0>
-0.53506

>  <SCORE.INTRA.norm>
-0.2264

>  <SCORE.RESTR>
0

>  <SCORE.RESTR.CAVITY>
0

>  <SCORE.RESTR.norm>
0

>  <SCORE.SYSTEM>
0

>  <SCORE.SYSTEM.CONST>
0

>  <SCORE.SYSTEM.DIHEDRAL>
0

>  <SCORE.SYSTEM.SOLV>
0

>  <SCORE.SYSTEM.norm>
0

>  <SCORE.heavy>
22

>  <SCORE.norm>
-0.565179

>  <RMSD>
11.714

$$$$
lig.pdb
 OpenBabel11021811523D
libRbt.so/2013.1/901 2013/11/27
 22 23  0  0  0  0  0  0  0  0999 V2000
   63.1645  -22.0061    3.4191 O   0  0  0  0  0  0  0  0  0  0  0  0
   62.4502  -22.0009    2.4443 C   0  0  0  0  0  0  0  0  0  0  0  0
   61.3733  -22.7617    2.3598 N   0  0  0  0  0  0  0  0  0  0  0  0
   62.7907  -21.1640    1.2851 C   0  0  0  0  0  0  0  0  0  0  0  0
   63.7213  -20.0332    1.3097 C   0  0  0  0  0  0  0  0  0  0  0  0
   64.3835  -19.5842    2.3975 N   0  0  0  0  0  0  0  0  0  0  0  0
   62.3675  -21.2191    0.0122 N   0  0  0  0  0  0  0  0  0  0  0  0
   62.9939  -20.2374   -0.6939 C   0  0  0  0  0  0  0  0  0  0  0  0
   63.8266  -19.5135    0.0919 N   0  0  0  0  0  0  0  0  0  0  0  0
   64.6654  -18.3667   -0.3516 C   0  0  1  0  0  0  0  0  0  0  0  0
   63.9379  -17.0722   -0.0600 C   0  0  1  0  0  0  0  0  0  0  0  0
   65.0309  -16.1400    0.3946 C   0  0  2  0  0  0  0  0  0  0  0  0
   65.5629  -15.4297   -0.7308 O   0  0  0  0  0  0  0  0  0  0  0  0
   63.2580  -16.5871   -1.2283 O   0  0  0  0  0  0  0  0  0  0  0  0
   65.8737  -18.3175    0.4030 O   0  0  0  0  0  0  0  0  0  0  0  0
   66.1057  -17.0402    0.9464 C   0  0  2  0  0  0  0  0  0  0  0  0
   66.1152  -17.2213    2.4502 C   0  0  0  0  0  0  0  0  0  0  0  0
   67.3266  -17.7924    2.9001 O   0  0  0  0  0  0  0  0  0  0  0  0
   67.4646  -18.1708    4.4462 P   0  0  0  0  0  0  0  0  0  0  0  0
   66.8496  -17.0038    5.1924 O   0  0  0  0  0  0  0  0  0  0  0  0
   68.9561  -18.3143    4.6059 O   0  0  0  0  0  0  0  0  0  0  0  0
   66.7486  -19.4892    4.5464 O   0  0  0  0  0  0  0  0  0  0  0  0
  2  1  2  0  0  0  0
  2  4  1  0  0  0  0
  3  2  1  0  0  0  0
  4  7  1  0  0  0  0
  4  5  2  0  0  0  0
  5  6  1  0  0  0  0
  5  9  1  0  0  0  0
  7  8  2  0  0  0  0
  8  9  1  0  0  0  0
 10  9  1  1  0  0  0
 10 15  1  0  0  0  0
 11 14  1  6  0  0  0
 11 12  1  0  0  0  0
 11 10  1  0  0  0  0
 12 13  1  6  0  0  0
 12 16  1  0  0  0  0
 16 17  1  1  0  0  0
 16 15  1  0  0  0  0
 18 19  1  0  0  0  0
 18 17  1  0  0  0  0
 19 21  1  0  0  0  0
 20 19  1  0  0  0  0
 22 19  2  0  0  0  0
M  END
>  <CHROM.1>
-18.10090939,-83.42283832,-165.30934113,-42.42940366,-174.86731825,65.00319011
-18.78804248,1.84607476,3.12117456,-0.73563085,-0.80923148

>  <Name>
lig.pdb

>  <RI>
0

>  <Rbt.Current_Directory>
/home/itssahil/PROJECTS/Mol_Feturizer/New_Systems/rnas/4znp

>  <Rbt.Executable>
rbdock ($Id: //depot/dev/client3/rdock/2013.1/src/exe/rbdock.cxx#4 $)

>  <Rbt.Library>
libRbt.so (2013.1, Build901 2013/11/27)

>  <Rbt.Parameter_File>
/export/apps/rDock/src/rDock_2013.1_src/data/scripts/dock_solv.prm

>  <Rbt.Receptor>
prm/blind_docking_80.prm

>  <SCORE>
-13.5517

>  <SCORE.INTER>
-9.08825

>  <SCORE.INTER.CONST>
1

>  <SCORE.INTER.POLAR>
0

>  <SCORE.INTER.ROT>
5

>  <SCORE.INTER.SOLV>
22.8384

>  <SCORE.INTER.VDW>
-20.605

>  <SCORE.INTER.norm>
-0.413102

>  <SCORE.INTRA>
-4.46535

>  <SCORE.INTRA.DIHEDRAL>
-7.11668

>  <SCORE.INTRA.DIHEDRAL.0>
11.9251

>  <SCORE.INTRA.POLAR>
0

>  <SCORE.INTRA.POLAR.0>
0

>  <SCORE.INTRA.REPUL>
0

>  <SCORE.INTRA.REPUL.0>
0

>  <SCORE.INTRA.SOLV>
1.86536

>  <SCORE.INTRA.SOLV.lig_0>
-40.9823

>  <SCORE.INTRA.VDW>
-1.83969

>  <SCORE.INTRA.VDW.0>
-0.53506

>  <SCORE.INTRA.norm>
-0.20297

>  <SCORE.RESTR>
0.00185242

>  <SCORE.RESTR.CAVITY>
0.00185242

>  <SCORE.RESTR.norm>
8.42011e-05

>  <SCORE.SYSTEM>
0

>  <SCORE.SYSTEM.CONST>
0

>  <SCORE.SYSTEM.DIHEDRAL>
0

>  <SCORE.SYSTEM.SOLV>
0

>  <SCORE.SYSTEM.norm>
0

>  <SCORE.heavy>
22

>  <SCORE.norm>
-0.615989

>  <RMSD>
11.774

$$$$
lig.pdb
 OpenBabel11021811523D
libRbt.so/2013.1/901 2013/11/27
 22 23  0  0  0  0  0  0  0  0999 V2000
   64.2255  -23.4621    7.0409 O   0  0  0  0  0  0  0  0  0  0  0  0
   63.0535  -23.5784    6.7703 C   0  0  0  0  0  0  0  0  0  0  0  0
   62.1768  -24.0509    7.6386 N   0  0  0  0  0  0  0  0  0  0  0  0
   62.5688  -23.2316    5.4268 C   0  0  0  0  0  0  0  0  0  0  0  0
   63.4100  -22.7505    4.3285 C   0  0  0  0  0  0  0  0  0  0  0  0
   64.7418  -22.5374    4.3942 N   0  0  0  0  0  0  0  0  0  0  0  0
   61.3309  -23.2643    4.9082 N   0  0  0  0  0  0  0  0  0  0  0  0
   61.3976  -22.8696    3.6065 C   0  0  0  0  0  0  0  0  0  0  0  0
   62.6658  -22.5601    3.2449 N   0  0  0  0  0  0  0  0  0  0  0  0
   63.0989  -22.0932    1.8996 C   0  0  1  0  0  0  0  0  0  0  0  0
   62.1735  -20.9915    1.4304 C   0  0  1  0  0  0  0  0  0  0  0  0
   63.0934  -20.0199    0.7376 C   0  0  2  0  0  0  0  0  0  0  0  0
   63.1874  -20.3482   -0.6543 O   0  0  0  0  0  0  0  0  0  0  0  0
   61.1613  -21.5063    0.5512 O   0  0  0  0  0  0  0  0  0  0  0  0
   64.3978  -21.5110    1.9733 O   0  0  0  0  0  0  0  0  0  0  0  0
   64.4411  -20.2380    1.3747 C   0  0  2  0  0  0  0  0  0  0  0  0
   64.8207  -19.2707    2.4769 C   0  0  0  0  0  0  0  0  0  0  0  0
   66.1120  -19.5374    2.9843 O   0  0  0  0  0  0  0  0  0  0  0  0
   66.8167  -18.4323    3.8980 P   0  0  0  0  0  0  0  0  0  0  0  0
   66.1539  -17.1246    3.5140 O   0  0  0  0  0  0  0  0  0  0  0  0
   68.2619  -18.5578    3.4902 O   0  0  0  0  0  0  0  0  0  0  0  0
   66.5710  -18.9291    5.2957 O   0  0  0  0  0  0  0  0  0  0  0  0
  2  1  2  0  0  0  0
  2  4  1  0  0  0  0
  3  2  1  0  0  0  0
  4  7  1  0  0  0  0
  4  5  2  0  0  0  0
  5  6  1  0  0  0  0
  5  9  1  0  0  0  0
  7  8  2  0  0  0  0
  8  9  1  0  0  0  0
 10  9  1  1  0  0  0
 10 15  1  0  0  0  0
 11 14  1  6  0  0  0
 11 12  1  0  0  0  0
 11 10  1  0  0  0  0
 12 13  1  6  0  0  0
 12 16  1  0  0  0  0
 16 17  1  1  0  0  0
 16 15  1  0  0  0  0
 18 19  1  0  0  0  0
 18 17  1  0  0  0  0
 19 21  1  0  0  0  0
 20 19  1  0  0  0  0
 22 19  2  0  0  0  0
M  END
>  <CHROM.1>
0.74992514,-131.91994340,-178.48518610,-23.60995426,165.91152362,64.13802800
-20.98865314,3.45787278,-2.49686393,-0.68491687,-1.10276069

>  <Name>
lig.pdb

>  <RI>
0

>  <Rbt.Current_Directory>
/home/itssahil/PROJECTS/Mol_Feturizer/New_Systems/rnas/4znp

>  <Rbt.Executable>
rbdock ($Id: //depot/dev/client3/rdock/2013.1/src/exe/rbdock.cxx#4 $)

>  <Rbt.Library>
libRbt.so (2013.1, Build901 2013/11/27)

>  <Rbt.Parameter_File>
/export/apps/rDock/src/rDock_2013.1_src/data/scripts/dock_solv.prm

>  <Rbt.Receptor>
prm/blind_docking_100.prm

>  <SCORE>
-15.7882

>  <SCORE.INTER>
-11.9881

>  <SCORE.INTER.CONST>
1

>  <SCORE.INTER.POLAR>
0

>  <SCORE.INTER.ROT>
5

>  <SCORE.INTER.SOLV>
24.2871

>  <SCORE.INTER.VDW>
-23.0211

>  <SCORE.INTER.norm>
-0.544912

>  <SCORE.INTRA>
-3.80011

>  <SCORE.INTRA.DIHEDRAL>
-6.93875

>  <SCORE.INTRA.DIHEDRAL.0>
11.9251

>  <SCORE.INTRA.POLAR>
0

>  <SCORE.INTRA.POLAR.0>
0

>  <SCORE.INTRA.REPUL>
0

>  <SCORE.INTRA.REPUL.0>
0

>  <SCORE.INTRA.SOLV>
0.574311

>  <SCORE.INTRA.SOLV.lig_0>
-40.9823

>  <SCORE.INTRA.VDW>
-0.617894

>  <SCORE.INTRA.VDW.0>
-0.53506

>  <SCORE.INTRA.norm>
-0.172732

>  <SCORE.RESTR>
0

>  <SCORE.RESTR.CAVITY>
0

>  <SCORE.RESTR.norm>
0

>  <SCORE.SYSTEM>
0

>  <SCORE.SYSTEM.CONST>
0

>  <SCORE.SYSTEM.DIHEDRAL>
0

>  <SCORE.SYSTEM.SOLV>
0

>  <SCORE.SYSTEM.norm>
0

>  <SCORE.heavy>
22

>  <SCORE.norm>
-0.717645

>  <RMSD>
11.775

$$$$
lig.pdb
 OpenBabel11021811523D
libRbt.so/2013.1/901 2013/11/27
 22 23  0  0  0  0  0  0  0  0999 V2000
   64.9410  -10.2373   -0.6748 O   0  0  0  0  0  0  0  0  0  0  0  0
   64.5412  -11.3642   -0.8504 C   0  0  0  0  0  0  0  0  0  0  0  0
   63.9936  -11.7443   -1.9912 N   0  0  0  0  0  0  0  0  0  0  0  0
   64.6146  -12.3505    0.2367 C   0  0  0  0  0  0  0  0  0  0  0  0
   64.3666  -13.7862    0.0866 C   0  0  0  0  0  0  0  0  0  0  0  0
   64.0172  -14.4075   -1.0603 N   0  0  0  0  0  0  0  0  0  0  0  0
   64.9033  -12.1970    1.5388 N   0  0  0  0  0  0  0  0  0  0  0  0
   64.8668  -13.4203    2.1363 C   0  0  0  0  0  0  0  0  0  0  0  0
   64.5454  -14.3958    1.2531 N   0  0  0  0  0  0  0  0  0  0  0  0
   64.4161  -15.8454    1.5650 C   0  0  1  0  0  0  0  0  0  0  0  0
   65.4186  -16.6256    0.7426 C   0  0  1  0  0  0  0  0  0  0  0  0
   65.9019  -17.6965    1.6860 C   0  0  2  0  0  0  0  0  0  0  0  0
   65.0852  -18.8666    1.5521 O   0  0  0  0  0  0  0  0  0  0  0  0
   64.8063  -17.1724   -0.4358 O   0  0  0  0  0  0  0  0  0  0  0  0
   64.7515  -16.0890    2.9288 O   0  0  0  0  0  0  0  0  0  0  0  0
   65.6970  -17.1227    3.0640 C   0  0  2  0  0  0  0  0  0  0  0  0
   66.9138  -16.4941    3.7110 C   0  0  0  0  0  0  0  0  0  0  0  0
   67.9193  -17.4513    3.9733 O   0  0  0  0  0  0  0  0  0  0  0  0
   67.6303  -18.5832    5.0631 P   0  0  0  0  0  0  0  0  0  0  0  0
   68.9989  -19.0584    5.5079 O   0  0  0  0  0  0  0  0  0  0  0  0
   66.8327  -19.5884    4.2730 O   0  0  0  0  0  0  0  0  0  0  0  0
   66.7957  -17.8708    6.0910 O   0  0  0  0  0  0  0  0  0  0  0  0
  2  1  2  0  0  0  0
  2  4  1  0  0  0  0
  3  2  1  0  0  0  0
  4  7  1  0  0  0  0
  4  5  2  0  0  0  0
  5  6  1  0  0  0  0
  5  9  1  0  0  0  0
  7  8  2  0  0  0  0
  8  9  1  0  0  0  0
 10  9  1  6  0  0  0
 10 15  1  0  0  0  0
 11 14  1  6  0  0  0
 11 12  1  0  0  0  0
 11 10  1  0  0  0  0
 12 13  1  1  0  0  0
 12 16  1  0  0  0  0
 16 17  1  6  0  0  0
 16 15  1  0  0  0  0
 18 19  1  0  0  0  0
 18 17  1  0  0  0  0
 19 21  1  0  0  0  0
 20 19  1  0  0  0  0
 22 19  2  0  0  0  0
M  END
>  <CHROM.1>
-169.67603183,61.25390753,-65.39102235,-157.85367394,-66.55338668,65.70876861
-15.83577520,2.09007604,-2.33077015,1.05213116,-3.13792181

>  <Name>
lig.pdb

>  <RI>
0

>  <Rbt.Current_Directory>
/home/itssahil/PROJECTS/Mol_Feturizer/New_Systems/rnas/4znp

>  <Rbt.Executable>
rbdock ($Id: //depot/dev/client3/rdock/2013.1/src/exe/rbdock.cxx#4 $)

>  <Rbt.Library>
libRbt.so (2013.1, Build901 2013/11/27)

>  <Rbt.Parameter_File>
/export/apps/rDock/src/rDock_2013.1_src/data/scripts/dock_solv.prm

>  <Rbt.Receptor>
prm/blind_docking_80.prm

>  <SCORE>
-13.0238

>  <SCORE.INTER>
-8.93741

>  <SCORE.INTER.CONST>
1

>  <SCORE.INTER.POLAR>
0

>  <SCORE.INTER.ROT>
5

>  <SCORE.INTER.SOLV>
14.9574

>  <SCORE.INTER.VDW>
-17.8774

>  <SCORE.INTER.norm>
-0.406246

>  <SCORE.INTRA>
-4.0864

>  <SCORE.INTRA.DIHEDRAL>
-7.98742

>  <SCORE.INTRA.DIHEDRAL.0>
11.9251

>  <SCORE.INTRA.POLAR>
0

>  <SCORE.INTRA.POLAR.0>
0

>  <SCORE.INTRA.REPUL>
0

>  <SCORE.INTRA.REPUL.0>
0

>  <SCORE.INTRA.SOLV>
1.92789

>  <SCORE.INTRA.SOLV.lig_0>
-40.9823

>  <SCORE.INTRA.VDW>
-1.05664

>  <SCORE.INTRA.VDW.0>
-0.53506

>  <SCORE.INTRA.norm>
-0.185745

>  <SCORE.RESTR>
0

>  <SCORE.RESTR.CAVITY>
0

>  <SCORE.RESTR.norm>
0

>  <SCORE.SYSTEM>
0

>  <SCORE.SYSTEM.CONST>
0

>  <SCORE.SYSTEM.DIHEDRAL>
0

>  <SCORE.SYSTEM.SOLV>
0

>  <SCORE.SYSTEM.norm>
0

>  <SCORE.heavy>
22

>  <SCORE.norm>
-0.591992

>  <RMSD>
11.929

$$$$
lig.pdb
 OpenBabel11021811523D
libRbt.so/2013.1/901 2013/11/27
 22 23  0  0  0  0  0  0  0  0999 V2000
   64.0926  -23.4435    7.0402 O   0  0  0  0  0  0  0  0  0  0  0  0
   62.9119  -23.4688    6.7842 C   0  0  0  0  0  0  0  0  0  0  0  0
   62.0048  -23.7918    7.6890 N   0  0  0  0  0  0  0  0  0  0  0  0
   62.4465  -23.1779    5.4208 C   0  0  0  0  0  0  0  0  0  0  0  0
   63.3056  -22.7564    4.3119 C   0  0  0  0  0  0  0  0  0  0  0  0
   64.6390  -22.5554    4.3836 N   0  0  0  0  0  0  0  0  0  0  0  0
   61.2142  -23.2203    4.8896 N   0  0  0  0  0  0  0  0  0  0  0  0
   61.3002  -22.8857    3.5723 C   0  0  0  0  0  0  0  0  0  0  0  0
   62.5760  -22.6071    3.2121 N   0  0  0  0  0  0  0  0  0  0  0  0
   63.0296  -22.2064    1.8523 C   0  0  1  0  0  0  0  0  0  0  0  0
   62.1081  -21.1339    1.3131 C   0  0  1  0  0  0  0  0  0  0  0  0
   63.0359  -20.1942    0.5874 C   0  0  2  0  0  0  0  0  0  0  0  0
   63.1543  -20.5917   -0.7845 O   0  0  0  0  0  0  0  0  0  0  0  0
   61.1127  -21.6968    0.4444 O   0  0  0  0  0  0  0  0  0  0  0  0
   64.3251  -21.6154    1.9179 O   0  0  0  0  0  0  0  0  0  0  0  0
   64.3736  -20.3739    1.2568 C   0  0  2  0  0  0  0  0  0  0  0  0
   64.7313  -19.3508    2.3150 C   0  0  0  0  0  0  0  0  0  0  0  0
   64.5162  -18.0308    1.8594 O   0  0  0  0  0  0  0  0  0  0  0  0
   65.6296  -17.3504    0.9374 P   0  0  0  0  0  0  0  0  0  0  0  0
   65.0411  -16.0136    0.5331 O   0  0  0  0  0  0  0  0  0  0  0  0
   65.7691  -18.3497   -0.1818 O   0  0  0  0  0  0  0  0  0  0  0  0
   66.8417  -17.3135    1.8263 O   0  0  0  0  0  0  0  0  0  0  0  0
  2  1  2  0  0  0  0
  2  4  1  0  0  0  0
  3  2  1  0  0  0  0
  4  7  1  0  0  0  0
  4  5  2  0  0  0  0
  5  6  1  0  0  0  0
  5  9  1  0  0  0  0
  7  8  2  0  0  0  0
  8  9  1  0  0  0  0
 10  9  1  1  0  0  0
 10 15  1  0  0  0  0
 11 14  1  6  0  0  0
 11 12  1  0  0  0  0
 11 10  1  0  0  0  0
 12 13  1  6  0  0  0
 12 16  1  0  0  0  0
 16 17  1  1  0  0  0
 16 15  1  0  0  0  0
 18 19  1  0  0  0  0
 18 17  1  0  0  0  0
 19 21  1  0  0  0  0
 20 19  1  0  0  0  0
 22 19  2  0  0  0  0
M  END
>  <CHROM.1>
-4.38023812,-132.89468523,-48.56110010,175.17984136,-80.99863023,63.72208556
-20.70762896,2.59476972,-2.06924041,-0.77488951,-1.09124255

>  <Name>
lig.pdb

>  <RI>
0

>  <Rbt.Current_Directory>
/home/itssahil/PROJECTS/Mol_Feturizer/New_Systems/rnas/4znp

>  <Rbt.Executable>
rbdock ($Id: //depot/dev/client3/rdock/2013.1/src/exe/rbdock.cxx#4 $)

>  <Rbt.Library>
libRbt.so (2013.1, Build901 2013/11/27)

>  <Rbt.Parameter_File>
/export/apps/rDock/src/rDock_2013.1_src/data/scripts/dock_solv.prm

>  <Rbt.Receptor>
prm/blind_docking_80.prm

>  <SCORE>
-16.0498

>  <SCORE.INTER>
-12.2542

>  <SCORE.INTER.CONST>
1

>  <SCORE.INTER.POLAR>
0

>  <SCORE.INTER.ROT>
5

>  <SCORE.INTER.SOLV>
21.8939

>  <SCORE.INTER.VDW>
-22.4008

>  <SCORE.INTER.norm>
-0.557011

>  <SCORE.INTRA>
-3.79559

>  <SCORE.INTRA.DIHEDRAL>
-7.04974

>  <SCORE.INTRA.DIHEDRAL.0>
11.9251

>  <SCORE.INTRA.POLAR>
0

>  <SCORE.INTRA.POLAR.0>
0

>  <SCORE.INTRA.REPUL>
0

>  <SCORE.INTRA.REPUL.0>
0

>  <SCORE.INTRA.SOLV>
1.41987

>  <SCORE.INTRA.SOLV.lig_0>
-40.9823

>  <SCORE.INTRA.VDW>
-0.980652

>  <SCORE.INTRA.VDW.0>
-0.53506

>  <SCORE.INTRA.norm>
-0.172527

>  <SCORE.RESTR>
0

>  <SCORE.RESTR.CAVITY>
0

>  <SCORE.RESTR.norm>
0

>  <SCORE.SYSTEM>
0

>  <SCORE.SYSTEM.CONST>
0

>  <SCORE.SYSTEM.DIHEDRAL>
0

>  <SCORE.SYSTEM.SOLV>
0

>  <SCORE.SYSTEM.norm>
0

>  <SCORE.heavy>
22

>  <SCORE.norm>
-0.729537

>  <RMSD>
11.938

$$$$
lig.pdb
 OpenBabel11021811523D
libRbt.so/2013.1/901 2013/11/27
 22 23  0  0  0  0  0  0  0  0999 V2000
   64.1620  -23.3884    7.0520 O   0  0  0  0  0  0  0  0  0  0  0  0
   62.9848  -23.4875    6.7972 C   0  0  0  0  0  0  0  0  0  0  0  0
   62.1037  -23.8876    7.6967 N   0  0  0  0  0  0  0  0  0  0  0  0
   62.4975  -23.2020    5.4402 C   0  0  0  0  0  0  0  0  0  0  0  0
   63.3380  -22.7815    4.3169 C   0  0  0  0  0  0  0  0  0  0  0  0
   64.6718  -22.5767    4.3672 N   0  0  0  0  0  0  0  0  0  0  0  0
   61.2572  -23.2495    4.9285 N   0  0  0  0  0  0  0  0  0  0  0  0
   61.3217  -22.9186    3.6090 C   0  0  0  0  0  0  0  0  0  0  0  0
   62.5910  -22.6376    3.2281 N   0  0  0  0  0  0  0  0  0  0  0  0
   63.0222  -22.2398    1.8602 C   0  0  1  0  0  0  0  0  0  0  0  0
   62.1050  -21.1532    1.3424 C   0  0  1  0  0  0  0  0  0  0  0  0
   63.0307  -20.2247    0.6000 C   0  0  2  0  0  0  0  0  0  0  0  0
   63.1155  -20.6203   -0.7749 O   0  0  0  0  0  0  0  0  0  0  0  0
   61.0842  -21.7000    0.4930 O   0  0  0  0  0  0  0  0  0  0  0  0
   64.3269  -21.6671    1.9005 O   0  0  0  0  0  0  0  0  0  0  0  0
   64.3793  -20.4247    1.2414 C   0  0  2  0  0  0  0  0  0  0  0  0
   64.7727  -19.4094    2.2944 C   0  0  0  0  0  0  0  0  0  0  0  0
   64.5396  -18.0863    1.8572 O   0  0  0  0  0  0  0  0  0  0  0  0
   65.5930  -17.4143    0.8615 P   0  0  0  0  0  0  0  0  0  0  0  0
   65.7030  -18.3785   -0.3027 O   0  0  0  0  0  0  0  0  0  0  0  0
   66.8249  -17.3133    1.7234 O   0  0  0  0  0  0  0  0  0  0  0  0
   64.9865  -16.0698    0.5698 O   0  0  0  0  0  0  0  0  0  0  0  0
  2  1  2  0  0  0  0
  2  4  1  0  0  0  0
  3  2  1  0  0  0  0
  4  7  1  0  0  0  0
  4  5  2  0  0  0  0
  5  6  1  0  0  0  0
  5  9  1  0  0  0  0
  7  8  2  0  0  0  0
  8  9  1  0  0  0  0
 10  9  1  1  0  0  0
 10 15  1  0  0  0  0
 11 14  1  6  0  0  0
 11 12  1  0  0  0  0
 11 10  1  0  0  0  0
 12 13  1  6  0  0  0
 12 16  1  0  0  0  0
 16 17  1  1  0  0  0
 16 15  1  0  0  0  0
 18 19  1  0  0  0  0
 18 17  1  0  0  0  0
 19 21  1  0  0  0  0
 20 19  1  0  0  0  0
 22 19  2  0  0  0  0
M  END
>  <CHROM.1>
-0.41816284,-131.84875060,-47.27733988,54.40175533,-78.92232407,63.72925609
-20.74083644,2.58626992,-2.04873330,-0.76794021,-1.08201938

>  <Name>
lig.pdb

>  <RI>
0

>  <Rbt.Current_Directory>
/home/itssahil/PROJECTS/Mol_Feturizer/New_Systems/rnas/4znp

>  <Rbt.Executable>
rbdock ($Id: //depot/dev/client3/rdock/2013.1/src/exe/rbdock.cxx#4 $)

>  <Rbt.Library>
libRbt.so (2013.1, Build901 2013/11/27)

>  <Rbt.Parameter_File>
/export/apps/rDock/src/rDock_2013.1_src/data/scripts/dock_solv.prm

>  <Rbt.Receptor>
prm/blind_docking_100.prm

>  <SCORE>
-16.847

>  <SCORE.INTER>
-12.626

>  <SCORE.INTER.CONST>
1

>  <SCORE.INTER.POLAR>
0

>  <SCORE.INTER.ROT>
5

>  <SCORE.INTER.SOLV>
21.1085

>  <SCORE.INTER.VDW>
-22.3868

>  <SCORE.INTER.norm>
-0.573907

>  <SCORE.INTRA>
-4.22103

>  <SCORE.INTRA.DIHEDRAL>
-7.30981

>  <SCORE.INTRA.DIHEDRAL.0>
11.9251

>  <SCORE.INTRA.POLAR>
0

>  <SCORE.INTRA.POLAR.0>
0

>  <SCORE.INTRA.REPUL>
0

>  <SCORE.INTRA.REPUL.0>
0

>  <SCORE.INTRA.SOLV>
1.22894

>  <SCORE.INTRA.SOLV.lig_0>
-40.9823

>  <SCORE.INTRA.VDW>
-1.1806

>  <SCORE.INTRA.VDW.0>
-0.53506

>  <SCORE.INTRA.norm>
-0.191865

>  <SCORE.RESTR>
0

>  <SCORE.RESTR.CAVITY>
0

>  <SCORE.RESTR.norm>
0

>  <SCORE.SYSTEM>
0

>  <SCORE.SYSTEM.CONST>
0

>  <SCORE.SYSTEM.DIHEDRAL>
0

>  <SCORE.SYSTEM.SOLV>
0

>  <SCORE.SYSTEM.norm>
0

>  <SCORE.heavy>
22

>  <SCORE.norm>
-0.765772

>  <RMSD>
11.955

$$$$
lig.pdb
 OpenBabel11021811523D
libRbt.so/2013.1/901 2013/11/27
 22 23  0  0  0  0  0  0  0  0999 V2000
   65.3798  -15.1931    2.8522 O   0  0  0  0  0  0  0  0  0  0  0  0
   66.0457  -14.2325    3.1589 C   0  0  0  0  0  0  0  0  0  0  0  0
   66.9534  -14.2855    4.1176 N   0  0  0  0  0  0  0  0  0  0  0  0
   65.8293  -12.9414    2.4907 C   0  0  0  0  0  0  0  0  0  0  0  0
   65.3624  -12.7768    1.1122 C   0  0  0  0  0  0  0  0  0  0  0  0
   65.0829  -13.7797    0.2523 N   0  0  0  0  0  0  0  0  0  0  0  0
   65.9931  -11.6865    2.9388 N   0  0  0  0  0  0  0  0  0  0  0  0
   65.6365  -10.8240    1.9470 C   0  0  0  0  0  0  0  0  0  0  0  0
   65.2446  -11.4841    0.8309 N   0  0  0  0  0  0  0  0  0  0  0  0
   64.7914  -10.8547   -0.4395 C   0  0  1  0  0  0  0  0  0  0  0  0
   65.4562  -11.5502   -1.6076 C   0  0  1  0  0  0  0  0  0  0  0  0
   64.3742  -11.6081   -2.6548 C   0  0  2  0  0  0  0  0  0  0  0  0
   64.4401  -10.4426   -3.4862 O   0  0  0  0  0  0  0  0  0  0  0  0
   66.6098  -10.8210   -2.0548 O   0  0  0  0  0  0  0  0  0  0  0  0
   63.3897  -11.0466   -0.6133 O   0  0  0  0  0  0  0  0  0  0  0  0
   63.0818  -11.5741   -1.8813 C   0  0  2  0  0  0  0  0  0  0  0  0
   62.4224  -12.9140   -1.6275 C   0  0  0  0  0  0  0  0  0  0  0  0
   62.4320  -13.2495   -0.2552 O   0  0  0  0  0  0  0  0  0  0  0  0
   61.6439  -14.5566    0.2169 P   0  0  0  0  0  0  0  0  0  0  0  0
   61.9230  -14.6682    1.7024 O   0  0  0  0  0  0  0  0  0  0  0  0
   62.2734  -15.6308   -0.6320 O   0  0  0  0  0  0  0  0  0  0  0  0
   60.2234  -14.2694   -0.1836 O   0  0  0  0  0  0  0  0  0  0  0  0
  2  1  2  0  0  0  0
  2  4  1  0  0  0  0
  3  2  1  0  0  0  0
  4  7  1  0  0  0  0
  4  5  2  0  0  0  0
  5  6  1  0  0  0  0
  5  9  1  0  0  0  0
  7  8  2  0  0  0  0
  8  9  1  0  0  0  0
 10  9  1  1  0  0  0
 10 15  1  0  0  0  0
 11 14  1  6  0  0  0
 11 12  1  0  0  0  0
 11 10  1  0  0  0  0
 12 13  1  6  0  0  0
 12 16  1  0  0  0  0
 16 17  1  1  0  0  0
 16 15  1  0  0  0  0
 18 19  1  0  0  0  0
 18 17  1  0  0  0  0
 19 21  1  0  0  0  0
 20 19  1  0  0  0  0
 22 19  2  0  0  0  0
M  END
>  <CHROM.1>
-30.10507904,-44.60003087,112.91255121,176.71971298,173.69261828,64.08454572
-12.86988822,0.23028536,1.09305836,0.54286429,2.20088516

>  <Name>
lig.pdb

>  <RI>
0

>  <Rbt.Current_Directory>
/home/itssahil/PROJECTS/Mol_Feturizer/New_Systems/rnas/4znp

>  <Rbt.Executable>
rbdock ($Id: //depot/dev/client3/rdock/2013.1/src/exe/rbdock.cxx#4 $)

>  <Rbt.Library>
libRbt.so (2013.1, Build901 2013/11/27)

>  <Rbt.Parameter_File>
/export/apps/rDock/src/rDock_2013.1_src/data/scripts/dock_solv.prm

>  <Rbt.Receptor>
prm/blind_docking_80.prm

>  <SCORE>
-13.305

>  <SCORE.INTER>
-11.9405

>  <SCORE.INTER.CONST>
1

>  <SCORE.INTER.POLAR>
0

>  <SCORE.INTER.ROT>
5

>  <SCORE.INTER.SOLV>
20.9736

>  <SCORE.INTER.VDW>
-21.8849

>  <SCORE.INTER.norm>
-0.542748

>  <SCORE.INTRA>
-1.36452

>  <SCORE.INTRA.DIHEDRAL>
-1.56178

>  <SCORE.INTRA.DIHEDRAL.0>
11.9251

>  <SCORE.INTRA.POLAR>
0

>  <SCORE.INTRA.POLAR.0>
0

>  <SCORE.INTRA.REPUL>
0

>  <SCORE.INTRA.REPUL.0>
0

>  <SCORE.INTRA.SOLV>
2.63461

>  <SCORE.INTRA.SOLV.lig_0>
-40.9823

>  <SCORE.INTRA.VDW>
-1.90093

>  <SCORE.INTRA.VDW.0>
-0.53506

>  <SCORE.INTRA.norm>
-0.0620236

>  <SCORE.RESTR>
0

>  <SCORE.RESTR.CAVITY>
0

>  <SCORE.RESTR.norm>
0

>  <SCORE.SYSTEM>
0

>  <SCORE.SYSTEM.CONST>
0

>  <SCORE.SYSTEM.DIHEDRAL>
0

>  <SCORE.SYSTEM.SOLV>
0

>  <SCORE.SYSTEM.norm>
0

>  <SCORE.heavy>
22

>  <SCORE.norm>
-0.604772

>  <RMSD>
12.021

$$$$
lig.pdb
 OpenBabel11021811523D
libRbt.so/2013.1/901 2013/11/27
 22 23  0  0  0  0  0  0  0  0999 V2000
   61.7888  -26.5732    6.5250 O   0  0  0  0  0  0  0  0  0  0  0  0
   62.1175  -25.4747    6.9068 C   0  0  0  0  0  0  0  0  0  0  0  0
   62.1093  -25.1455    8.1864 N   0  0  0  0  0  0  0  0  0  0  0  0
   62.5009  -24.4405    5.9355 C   0  0  0  0  0  0  0  0  0  0  0  0
   62.2712  -24.5180    4.4911 C   0  0  0  0  0  0  0  0  0  0  0  0
   61.6953  -25.5524    3.8416 N   0  0  0  0  0  0  0  0  0  0  0  0
   63.1113  -23.2578    6.1125 N   0  0  0  0  0  0  0  0  0  0  0  0
   63.2255  -22.6455    4.9014 C   0  0  0  0  0  0  0  0  0  0  0  0
   62.7088  -23.4078    3.9080 N   0  0  0  0  0  0  0  0  0  0  0  0
   62.6677  -23.0469    2.4645 C   0  0  1  0  0  0  0  0  0  0  0  0
   61.6639  -21.9340    2.2552 C   0  0  1  0  0  0  0  0  0  0  0  0
   62.3148  -21.0524    1.2210 C   0  0  2  0  0  0  0  0  0  0  0  0
   61.9207  -21.4712   -0.0917 O   0  0  0  0  0  0  0  0  0  0  0  0
   60.4008  -22.4540    1.8119 O   0  0  0  0  0  0  0  0  0  0  0  0
   63.9272  -22.5237    2.0501 O   0  0  0  0  0  0  0  0  0  0  0  0
   63.7935  -21.2941    1.3786 C   0  0  2  0  0  0  0  0  0  0  0  0
   64.5489  -20.2790    2.2114 C   0  0  0  0  0  0  0  0  0  0  0  0
   64.3393  -18.9616    1.7460 O   0  0  0  0  0  0  0  0  0  0  0  0
   65.2535  -17.7900    2.3327 P   0  0  0  0  0  0  0  0  0  0  0  0
   64.2840  -16.6897    2.7152 O   0  0  0  0  0  0  0  0  0  0  0  0
   66.1499  -17.4713    1.1640 O   0  0  0  0  0  0  0  0  0  0  0  0
   65.9949  -18.4579    3.4574 O   0  0  0  0  0  0  0  0  0  0  0  0
  2  1  2  0  0  0  0
  2  4  1  0  0  0  0
  3  2  1  0  0  0  0
  4  7  1  0  0  0  0
  4  5  2  0  0  0  0
  5  6  1  0  0  0  0
  5  9  1  0  0  0  0
  7  8  2  0  0  0  0
  8  9  1  0  0  0  0
 10  9  1  1  0  0  0
 10 15  1  0  0  0  0
 11 14  1  6  0  0  0
 11 12  1  0  0  0  0
 11 10  1  0  0  0  0
 12 13  1  6  0  0  0
 12 16  1  0  0  0  0
 16 17  1  1  0  0  0
 16 15  1  0  0  0  0
 18 19  1  0  0  0  0
 18 17  1  0  0  0  0
 19 21  1  0  0  0  0
 20 19  1  0  0  0  0
 22 19  2  0  0  0  0
M  END
>  <CHROM.1>
13.08231976,109.89107218,-53.86648860,-131.74746282,-169.28436124,63.27993742
-21.68256047,3.29977576,-2.16610768,-0.91434765,-1.00778909

>  <Name>
lig.pdb

>  <RI>
0

>  <Rbt.Current_Directory>
/home/itssahil/PROJECTS/Mol_Feturizer/New_Systems/rnas/4znp

>  <Rbt.Executable>
rbdock ($Id: //depot/dev/client3/rdock/2013.1/src/exe/rbdock.cxx#4 $)

>  <Rbt.Library>
libRbt.so (2013.1, Build901 2013/11/27)

>  <Rbt.Parameter_File>
/export/apps/rDock/src/rDock_2013.1_src/data/scripts/dock_solv.prm

>  <Rbt.Receptor>
prm/blind_docking_80.prm

>  <SCORE>
-15.9614

>  <SCORE.INTER>
-12.8298

>  <SCORE.INTER.CONST>
1

>  <SCORE.INTER.POLAR>
0

>  <SCORE.INTER.ROT>
5

>  <SCORE.INTER.SOLV>
21.5521

>  <SCORE.INTER.VDW>
-22.6706

>  <SCORE.INTER.norm>
-0.583173

>  <SCORE.INTRA>
-3.13158

>  <SCORE.INTRA.DIHEDRAL>
-5.96731

>  <SCORE.INTRA.DIHEDRAL.0>
11.9251

>  <SCORE.INTRA.POLAR>
0

>  <SCORE.INTRA.POLAR.0>
0

>  <SCORE.INTRA.REPUL>
0

>  <SCORE.INTRA.REPUL.0>
0

>  <SCORE.INTRA.SOLV>
0.0697722

>  <SCORE.INTRA.SOLV.lig_0>
-40.9823

>  <SCORE.INTRA.VDW>
-0.182812

>  <SCORE.INTRA.VDW.0>
-0.53506

>  <SCORE.INTRA.norm>
-0.142345

>  <SCORE.RESTR>
0

>  <SCORE.RESTR.CAVITY>
0

>  <SCORE.RESTR.norm>
0

>  <SCORE.SYSTEM>
0

>  <SCORE.SYSTEM.CONST>
0

>  <SCORE.SYSTEM.DIHEDRAL>
0

>  <SCORE.SYSTEM.SOLV>
0

>  <SCORE.SYSTEM.norm>
0

>  <SCORE.heavy>
22

>  <SCORE.norm>
-0.725518

>  <RMSD>
12.054

$$$$
lig.pdb
 OpenBabel11021811523D
libRbt.so/2013.1/901 2013/11/27
 22 23  0  0  0  0  0  0  0  0999 V2000
   53.2970   -8.3772    8.1751 O   0  0  0  0  0  0  0  0  0  0  0  0
   53.8833   -7.7517    9.0269 C   0  0  0  0  0  0  0  0  0  0  0  0
   54.1095   -8.2477   10.2304 N   0  0  0  0  0  0  0  0  0  0  0  0
   54.3311   -6.3782    8.7563 C   0  0  0  0  0  0  0  0  0  0  0  0
   54.2675   -5.2703    9.7123 C   0  0  0  0  0  0  0  0  0  0  0  0
   53.7735   -5.3425   10.9669 N   0  0  0  0  0  0  0  0  0  0  0  0
   54.8677   -5.8348    7.6522 N   0  0  0  0  0  0  0  0  0  0  0  0
   55.1383   -4.5241    7.9039 C   0  0  0  0  0  0  0  0  0  0  0  0
   54.7795   -4.1749    9.1625 N   0  0  0  0  0  0  0  0  0  0  0  0
   54.9320   -2.8242    9.7689 C   0  0  1  0  0  0  0  0  0  0  0  0
   55.8610   -1.9925    8.9112 C   0  0  1  0  0  0  0  0  0  0  0  0
   55.2464   -0.6172    8.9446 C   0  0  2  0  0  0  0  0  0  0  0  0
   55.7978    0.1349   10.0329 O   0  0  0  0  0  0  0  0  0  0  0  0
   57.1981   -2.0055    9.4351 O   0  0  0  0  0  0  0  0  0  0  0  0
   53.6816   -2.1399    9.7720 O   0  0  0  0  0  0  0  0  0  0  0  0
   53.7829   -0.8513    9.2153 C   0  0  2  0  0  0  0  0  0  0  0  0
   52.8729   -0.8466    8.0044 C   0  0  0  0  0  0  0  0  0  0  0  0
   52.5339    0.4672    7.6106 O   0  0  0  0  0  0  0  0  0  0  0  0
   52.8429    0.9181    6.1094 P   0  0  0  0  0  0  0  0  0  0  0  0
   52.0141   -0.0086    5.2427 O   0  0  0  0  0  0  0  0  0  0  0  0
   54.3330    0.7138    6.0169 O   0  0  0  0  0  0  0  0  0  0  0  0
   52.4628    2.3728    6.0984 O   0  0  0  0  0  0  0  0  0  0  0  0
  2  1  2  0  0  0  0
  2  4  1  0  0  0  0
  3  2  1  0  0  0  0
  4  7  1  0  0  0  0
  4  5  2  0  0  0  0
  5  6  1  0  0  0  0
  5  9  1  0  0  0  0
  7  8  2  0  0  0  0
  8  9  1  0  0  0  0
 10  9  1  6  0  0  0
 10 15  1  0  0  0  0
 11 14  1  1  0  0  0
 11 12  1  0  0  0  0
 11 10  1  0  0  0  0
 12 13  1  1  0  0  0
 12 16  1  0  0  0  0
 16 17  1  6  0  0  0
 16 15  1  0  0  0  0
 18 19  1  0  0  0  0
 18 17  1  0  0  0  0
 19 21  1  0  0  0  0
 20 19  1  0  0  0  0
 22 19  2  0  0  0  0
M  END
>  <CHROM.1>
139.98633815,166.19120698,-81.45270814,61.72790073,124.23385315,54.08859471
-2.51159865,8.31377373,1.38110648,0.82783256,2.96308126

>  <Name>
lig.pdb

>  <RI>
0

>  <Rbt.Current_Directory>
/home/afrankz/demos/rdock_decoys_rna/rnas/4znp

>  <Rbt.Executable>
rbdock ($Id: //depot/dev/client3/rdock/2013.1/src/exe/rbdock.cxx#4 $)

>  <Rbt.Library>
libRbt.so (2013.1, Build901 2013/11/27)

>  <Rbt.Parameter_File>
/export/apps/rDock/src/rDock_2013.1_src/data/scripts/dock_solv.prm

>  <Rbt.Receptor>
prm/blind_docking_60.prm

>  <SCORE>
7.67722

>  <SCORE.INTER>
1.44772

>  <SCORE.INTER.CONST>
1

>  <SCORE.INTER.POLAR>
0

>  <SCORE.INTER.ROT>
5

>  <SCORE.INTER.SOLV>
13.3115

>  <SCORE.INTER.VDW>
-10.4053

>  <SCORE.INTER.norm>
0.0658053

>  <SCORE.INTRA>
0.945895

>  <SCORE.INTRA.DIHEDRAL>
3.65247

>  <SCORE.INTRA.DIHEDRAL.0>
11.9251

>  <SCORE.INTRA.POLAR>
0

>  <SCORE.INTRA.POLAR.0>
0

>  <SCORE.INTRA.REPUL>
0

>  <SCORE.INTRA.REPUL.0>
0

>  <SCORE.INTRA.SOLV>
0.1677

>  <SCORE.INTRA.SOLV.lig_0>
-40.9823

>  <SCORE.INTRA.VDW>
-0.964188

>  <SCORE.INTRA.VDW.0>
-0.53506

>  <SCORE.INTRA.norm>
0.0429952

>  <SCORE.RESTR>
5.28361

>  <SCORE.RESTR.CAVITY>
5.28361

>  <SCORE.RESTR.norm>
0.240164

>  <SCORE.SYSTEM>
0

>  <SCORE.SYSTEM.CONST>
0

>  <SCORE.SYSTEM.DIHEDRAL>
0

>  <SCORE.SYSTEM.SOLV>
0

>  <SCORE.SYSTEM.norm>
0

>  <SCORE.heavy>
22

>  <SCORE.norm>
0.348965

>  <RMSD>
12.199

$$$$
lig.pdb
 OpenBabel11021811523D
libRbt.so/2013.1/901 2013/11/27
 22 23  0  0  0  0  0  0  0  0999 V2000
   65.4031   -9.9626   -2.7380 O   0  0  0  0  0  0  0  0  0  0  0  0
   64.3204  -10.1490   -3.2414 C   0  0  0  0  0  0  0  0  0  0  0  0
   63.7961   -9.3032   -4.1107 N   0  0  0  0  0  0  0  0  0  0  0  0
   63.5219  -11.3225   -2.8600 C   0  0  0  0  0  0  0  0  0  0  0  0
   63.9830  -12.4048   -1.9874 C   0  0  0  0  0  0  0  0  0  0  0  0
   65.2075  -12.4928   -1.4250 N   0  0  0  0  0  0  0  0  0  0  0  0
   62.2683  -11.6721   -3.1898 N   0  0  0  0  0  0  0  0  0  0  0  0
   61.9672  -12.8425   -2.5621 C   0  0  0  0  0  0  0  0  0  0  0  0
   63.0086  -13.2919   -1.8214 N   0  0  0  0  0  0  0  0  0  0  0  0
   63.0255  -14.5384   -1.0082 C   0  0  1  0  0  0  0  0  0  0  0  0
   64.4560  -14.9966   -0.8241 C   0  0  1  0  0  0  0  0  0  0  0  0
   64.4921  -15.5016    0.5951 C   0  0  2  0  0  0  0  0  0  0  0  0
   64.1834  -16.9009    0.6208 O   0  0  0  0  0  0  0  0  0  0  0  0
   64.7982  -16.0169   -1.7751 O   0  0  0  0  0  0  0  0  0  0  0  0
   62.5233  -14.2811    0.3008 O   0  0  0  0  0  0  0  0  0  0  0  0
   63.3918  -14.7538    1.3024 C   0  0  2  0  0  0  0  0  0  0  0  0
   63.8178  -13.5355    2.0952 C   0  0  0  0  0  0  0  0  0  0  0  0
   64.5230  -12.6106    1.2931 O   0  0  0  0  0  0  0  0  0  0  0  0
   65.0798  -11.2773    1.9749 P   0  0  0  0  0  0  0  0  0  0  0  0
   65.9314  -11.7552    3.1339 O   0  0  0  0  0  0  0  0  0  0  0  0
   63.8099  -10.5676    2.3678 O   0  0  0  0  0  0  0  0  0  0  0  0
   65.7978  -10.5853    0.8496 O   0  0  0  0  0  0  0  0  0  0  0  0
  2  1  2  0  0  0  0
  2  4  1  0  0  0  0
  3  2  1  0  0  0  0
  4  7  1  0  0  0  0
  4  5  2  0  0  0  0
  5  6  1  0  0  0  0
  5  9  1  0  0  0  0
  7  8  2  0  0  0  0
  8  9  1  0  0  0  0
 10  9  1  6  0  0  0
 10 15  1  0  0  0  0
 11 14  1  6  0  0  0
 11 12  1  0  0  0  0
 11 10  1  0  0  0  0
 12 13  1  6  0  0  0
 12 16  1  0  0  0  0
 16 17  1  6  0  0  0
 16 15  1  0  0  0  0
 18 19  1  0  0  0  0
 18 17  1  0  0  0  0
 19 21  1  0  0  0  0
 20 19  1  0  0  0  0
 22 19  2  0  0  0  0
M  END
>  <CHROM.1>
-6.48814069,-23.22429769,55.83354141,55.22884363,-178.59585984,64.14992564
-12.68946207,-0.36948195,-1.84082546,1.23949967,2.49766340

>  <Name>
lig.pdb

>  <RI>
0

>  <Rbt.Current_Directory>
/home/itssahil/PROJECTS/Mol_Feturizer/New_Systems/rnas/4znp

>  <Rbt.Executable>
rbdock ($Id: //depot/dev/client3/rdock/2013.1/src/exe/rbdock.cxx#4 $)

>  <Rbt.Library>
libRbt.so (2013.1, Build901 2013/11/27)

>  <Rbt.Parameter_File>
/export/apps/rDock/src/rDock_2013.1_src/data/scripts/dock_solv.prm

>  <Rbt.Receptor>
prm/blind_docking_80.prm

>  <SCORE>
-15.3789

>  <SCORE.INTER>
-10.2881

>  <SCORE.INTER.CONST>
1

>  <SCORE.INTER.POLAR>
0

>  <SCORE.INTER.ROT>
5

>  <SCORE.INTER.SOLV>
15.0706

>  <SCORE.INTER.VDW>
-18.8156

>  <SCORE.INTER.norm>
-0.467642

>  <SCORE.INTRA>
-5.11195

>  <SCORE.INTRA.DIHEDRAL>
-9.33807

>  <SCORE.INTRA.DIHEDRAL.0>
11.9251

>  <SCORE.INTRA.POLAR>
0

>  <SCORE.INTRA.POLAR.0>
0

>  <SCORE.INTRA.REPUL>
0

>  <SCORE.INTRA.REPUL.0>
0

>  <SCORE.INTRA.SOLV>
2.81326

>  <SCORE.INTRA.SOLV.lig_0>
-40.9823

>  <SCORE.INTRA.VDW>
-1.84954

>  <SCORE.INTRA.VDW.0>
-0.53506

>  <SCORE.INTRA.norm>
-0.232361

>  <SCORE.RESTR>
0.0211756

>  <SCORE.RESTR.CAVITY>
0.0211756

>  <SCORE.RESTR.norm>
0.000962528

>  <SCORE.SYSTEM>
0

>  <SCORE.SYSTEM.CONST>
0

>  <SCORE.SYSTEM.DIHEDRAL>
0

>  <SCORE.SYSTEM.SOLV>
0

>  <SCORE.SYSTEM.norm>
0

>  <SCORE.heavy>
22

>  <SCORE.norm>
-0.69904

>  <RMSD>
12.203

$$$$
lig.pdb
 OpenBabel11021811523D
libRbt.so/2013.1/901 2013/11/27
 22 23  0  0  0  0  0  0  0  0999 V2000
   69.3816  -11.2263    3.6217 O   0  0  0  0  0  0  0  0  0  0  0  0
   69.4573  -12.3772    3.9827 C   0  0  0  0  0  0  0  0  0  0  0  0
   70.5814  -12.8945    4.4458 N   0  0  0  0  0  0  0  0  0  0  0  0
   68.2893  -13.2627    3.8734 C   0  0  0  0  0  0  0  0  0  0  0  0
   67.0314  -12.9157    3.2081 C   0  0  0  0  0  0  0  0  0  0  0  0
   66.7546  -11.7327    2.6187 N   0  0  0  0  0  0  0  0  0  0  0  0
   68.0951  -14.5134    4.3212 N   0  0  0  0  0  0  0  0  0  0  0  0
   66.8493  -14.9171    3.9475 C   0  0  0  0  0  0  0  0  0  0  0  0
   66.1970  -13.9477    3.2621 N   0  0  0  0  0  0  0  0  0  0  0  0
   64.8198  -14.0496    2.7069 C   0  0  1  0  0  0  0  0  0  0  0  0
   64.8772  -13.9260    1.1998 C   0  0  1  0  0  0  0  0  0  0  0  0
   63.8491  -14.9167    0.7182 C   0  0  2  0  0  0  0  0  0  0  0  0
   62.5764  -14.2710    0.5871 O   0  0  0  0  0  0  0  0  0  0  0  0
   64.5813  -12.5849    0.7797 O   0  0  0  0  0  0  0  0  0  0  0  0
   64.2730  -15.3384    2.9753 O   0  0  0  0  0  0  0  0  0  0  0  0
   63.7555  -15.9448    1.8155 C   0  0  2  0  0  0  0  0  0  0  0  0
   64.5608  -17.2115    1.6114 C   0  0  0  0  0  0  0  0  0  0  0  0
   63.9045  -18.3404    2.1507 O   0  0  0  0  0  0  0  0  0  0  0  0
   64.5997  -19.7712    2.0020 P   0  0  0  0  0  0  0  0  0  0  0  0
   63.5649  -20.7634    2.4934 O   0  0  0  0  0  0  0  0  0  0  0  0
   65.8135  -19.6275    2.8833 O   0  0  0  0  0  0  0  0  0  0  0  0
   64.9561  -19.8343    0.5426 O   0  0  0  0  0  0  0  0  0  0  0  0
  2  1  2  0  0  0  0
  2  4  1  0  0  0  0
  3  2  1  0  0  0  0
  4  7  1  0  0  0  0
  4  5  2  0  0  0  0
  5  6  1  0  0  0  0
  5  9  1  0  0  0  0
  7  8  2  0  0  0  0
  8  9  1  0  0  0  0
 10  9  1  1  0  0  0
 10 15  1  0  0  0  0
 11 14  1  1  0  0  0
 11 12  1  0  0  0  0
 11 10  1  0  0  0  0
 12 13  1  1  0  0  0
 12 16  1  0  0  0  0
 16 17  1  6  0  0  0
 16 15  1  0  0  0  0
 18 19  1  0  0  0  0
 18 17  1  0  0  0  0
 19 21  1  0  0  0  0
 20 19  1  0  0  0  0
 22 19  2  0  0  0  0
M  END
>  <CHROM.1>
7.32601240,63.32267704,-145.72321825,-172.07938695,178.90283686,65.71337082
-15.54564499,2.46688541,-0.96108275,0.52438592,3.04652835

>  <Name>
lig.pdb

>  <RI>
0

>  <Rbt.Current_Directory>
/home/itssahil/PROJECTS/Mol_Feturizer/New_Systems/rnas/4znp

>  <Rbt.Executable>
rbdock ($Id: //depot/dev/client3/rdock/2013.1/src/exe/rbdock.cxx#4 $)

>  <Rbt.Library>
libRbt.so (2013.1, Build901 2013/11/27)

>  <Rbt.Parameter_File>
/export/apps/rDock/src/rDock_2013.1_src/data/scripts/dock_solv.prm

>  <Rbt.Receptor>
prm/blind_docking_80.prm

>  <SCORE>
-18.1256

>  <SCORE.INTER>
-14.2085

>  <SCORE.INTER.CONST>
1

>  <SCORE.INTER.POLAR>
0

>  <SCORE.INTER.ROT>
5

>  <SCORE.INTER.SOLV>
22.6344

>  <SCORE.INTER.VDW>
-23.9505

>  <SCORE.INTER.norm>
-0.64584

>  <SCORE.INTRA>
-3.91708

>  <SCORE.INTRA.DIHEDRAL>
-5.94496

>  <SCORE.INTRA.DIHEDRAL.0>
11.9251

>  <SCORE.INTRA.POLAR>
0

>  <SCORE.INTRA.POLAR.0>
0

>  <SCORE.INTRA.REPUL>
0

>  <SCORE.INTRA.REPUL.0>
0

>  <SCORE.INTRA.SOLV>
0.334404

>  <SCORE.INTRA.SOLV.lig_0>
-40.9823

>  <SCORE.INTRA.VDW>
-1.11181

>  <SCORE.INTRA.VDW.0>
-0.53506

>  <SCORE.INTRA.norm>
-0.178049

>  <SCORE.RESTR>
0

>  <SCORE.RESTR.CAVITY>
0

>  <SCORE.RESTR.norm>
0

>  <SCORE.SYSTEM>
0

>  <SCORE.SYSTEM.CONST>
0

>  <SCORE.SYSTEM.DIHEDRAL>
0

>  <SCORE.SYSTEM.SOLV>
0

>  <SCORE.SYSTEM.norm>
0

>  <SCORE.heavy>
22

>  <SCORE.norm>
-0.82389

>  <RMSD>
12.227

$$$$
lig.pdb
 OpenBabel11021811523D
libRbt.so/2013.1/901 2013/11/27
 22 23  0  0  0  0  0  0  0  0999 V2000
   61.2975  -26.5040    6.9758 O   0  0  0  0  0  0  0  0  0  0  0  0
   61.6535  -25.3959    7.3013 C   0  0  0  0  0  0  0  0  0  0  0  0
   61.6016  -24.9826    8.5551 N   0  0  0  0  0  0  0  0  0  0  0  0
   62.1222  -24.4436    6.2846 C   0  0  0  0  0  0  0  0  0  0  0  0
   61.8636  -24.5543    4.8472 C   0  0  0  0  0  0  0  0  0  0  0  0
   61.1784  -25.5510    4.2467 N   0  0  0  0  0  0  0  0  0  0  0  0
   62.8491  -23.3214    6.4066 N   0  0  0  0  0  0  0  0  0  0  0  0
   63.0045  -22.7713    5.1705 C   0  0  0  0  0  0  0  0  0  0  0  0
   62.3997  -23.5167    4.2147 N   0  0  0  0  0  0  0  0  0  0  0  0
   62.3722  -23.2102    2.7584 C   0  0  1  0  0  0  0  0  0  0  0  0
   61.4509  -22.0353    2.5115 C   0  0  1  0  0  0  0  0  0  0  0  0
   62.1553  -21.2450    1.4394 C   0  0  2  0  0  0  0  0  0  0  0  0
   61.7197  -21.6843    0.1466 O   0  0  0  0  0  0  0  0  0  0  0  0
   60.1490  -22.4777    2.0968 O   0  0  0  0  0  0  0  0  0  0  0  0
   63.6628  -22.7977    2.3159 O   0  0  0  0  0  0  0  0  0  0  0  0
   63.6137  -21.5886    1.5973 C   0  0  2  0  0  0  0  0  0  0  0  0
   64.4490  -20.6003    2.3847 C   0  0  0  0  0  0  0  0  0  0  0  0
   65.2099  -19.7661    1.5355 O   0  0  0  0  0  0  0  0  0  0  0  0
   64.5169  -18.4626    0.9247 P   0  0  0  0  0  0  0  0  0  0  0  0
   63.9189  -17.7411    2.1158 O   0  0  0  0  0  0  0  0  0  0  0  0
   63.5134  -19.0548   -0.0309 O   0  0  0  0  0  0  0  0  0  0  0  0
   65.6458  -17.7701    0.2128 O   0  0  0  0  0  0  0  0  0  0  0  0
  2  1  2  0  0  0  0
  2  4  1  0  0  0  0
  3  2  1  0  0  0  0
  4  7  1  0  0  0  0
  4  5  2  0  0  0  0
  5  6  1  0  0  0  0
  5  9  1  0  0  0  0
  7  8  2  0  0  0  0
  8  9  1  0  0  0  0
 10  9  1  1  0  0  0
 10 15  1  0  0  0  0
 11 14  1  6  0  0  0
 11 12  1  0  0  0  0
 11 10  1  0  0  0  0
 12 13  1  6  0  0  0
 12 16  1  0  0  0  0
 16 17  1  1  0  0  0
 16 15  1  0  0  0  0
 18 19  1  0  0  0  0
 18 17  1  0  0  0  0
 19 21  1  0  0  0  0
 20 19  1  0  0  0  0
 22 19  2  0  0  0  0
M  END
>  <CHROM.1>
18.12966467,108.38307125,-101.13233057,51.54539508,84.20634876,62.87249651
-21.94756680,3.12860081,-2.01958960,-0.80134480,-1.06772330

>  <Name>
lig.pdb

>  <RI>
0

>  <Rbt.Current_Directory>
/home/itssahil/PROJECTS/Mol_Feturizer/New_Systems/rnas/4znp

>  <Rbt.Executable>
rbdock ($Id: //depot/dev/client3/rdock/2013.1/src/exe/rbdock.cxx#4 $)

>  <Rbt.Library>
libRbt.so (2013.1, Build901 2013/11/27)

>  <Rbt.Parameter_File>
/export/apps/rDock/src/rDock_2013.1_src/data/scripts/dock_solv.prm

>  <Rbt.Receptor>
prm/blind_docking_100.prm

>  <SCORE>
-15.1128

>  <SCORE.INTER>
-12.7123

>  <SCORE.INTER.CONST>
1

>  <SCORE.INTER.POLAR>
0

>  <SCORE.INTER.ROT>
5

>  <SCORE.INTER.SOLV>
18.3945

>  <SCORE.INTER.VDW>
-21.5397

>  <SCORE.INTER.norm>
-0.57783

>  <SCORE.INTRA>
-2.40056

>  <SCORE.INTRA.DIHEDRAL>
-1.59868

>  <SCORE.INTRA.DIHEDRAL.0>
11.9251

>  <SCORE.INTRA.POLAR>
0

>  <SCORE.INTRA.POLAR.0>
0

>  <SCORE.INTRA.REPUL>
0

>  <SCORE.INTRA.REPUL.0>
0

>  <SCORE.INTRA.SOLV>
0.554063

>  <SCORE.INTRA.SOLV.lig_0>
-40.9823

>  <SCORE.INTRA.VDW>
-1.87826

>  <SCORE.INTRA.VDW.0>
-0.53506

>  <SCORE.INTRA.norm>
-0.109116

>  <SCORE.RESTR>
0

>  <SCORE.RESTR.CAVITY>
0

>  <SCORE.RESTR.norm>
0

>  <SCORE.SYSTEM>
0

>  <SCORE.SYSTEM.CONST>
0

>  <SCORE.SYSTEM.DIHEDRAL>
0

>  <SCORE.SYSTEM.SOLV>
0

>  <SCORE.SYSTEM.norm>
0

>  <SCORE.heavy>
22

>  <SCORE.norm>
-0.686946

>  <RMSD>
12.240

$$$$
lig.pdb
 OpenBabel11021811523D
libRbt.so/2013.1/901 2013/11/27
 22 23  0  0  0  0  0  0  0  0999 V2000
   68.9972  -11.1744    3.6172 O   0  0  0  0  0  0  0  0  0  0  0  0
   69.0503  -12.3727    3.7648 C   0  0  0  0  0  0  0  0  0  0  0  0
   70.1848  -12.9976    4.0260 N   0  0  0  0  0  0  0  0  0  0  0  0
   67.8377  -13.1890    3.6115 C   0  0  0  0  0  0  0  0  0  0  0  0
   66.5943  -12.7366    2.9834 C   0  0  0  0  0  0  0  0  0  0  0  0
   66.3739  -11.5055    2.4743 N   0  0  0  0  0  0  0  0  0  0  0  0
   67.5832  -14.4546    3.9801 N   0  0  0  0  0  0  0  0  0  0  0  0
   66.3156  -14.7698    3.5947 C   0  0  0  0  0  0  0  0  0  0  0  0
   65.7086  -13.7264    2.9801 N   0  0  0  0  0  0  0  0  0  0  0  0
   64.3238  -13.7224    2.4345 C   0  0  1  0  0  0  0  0  0  0  0  0
   64.3380  -13.1412    1.0373 C   0  0  1  0  0  0  0  0  0  0  0  0
   63.3433  -13.9873    0.2857 C   0  0  2  0  0  0  0  0  0  0  0  0
   62.0402  -13.3969    0.3718 O   0  0  0  0  0  0  0  0  0  0  0  0
   63.9724  -11.7524    1.0516 O   0  0  0  0  0  0  0  0  0  0  0  0
   63.8417  -15.0571    2.3004 O   0  0  0  0  0  0  0  0  0  0  0  0
   63.3228  -15.3050    1.0159 C   0  0  2  0  0  0  0  0  0  0  0  0
   64.1782  -16.4067    0.4252 C   0  0  0  0  0  0  0  0  0  0  0  0
   64.1232  -17.5848    1.2030 O   0  0  0  0  0  0  0  0  0  0  0  0
   64.6736  -18.9444    0.5697 P   0  0  0  0  0  0  0  0  0  0  0  0
   63.5608  -19.4348   -0.3349 O   0  0  0  0  0  0  0  0  0  0  0  0
   64.9183  -19.7887    1.7937 O   0  0  0  0  0  0  0  0  0  0  0  0
   65.9521  -18.5231   -0.1001 O   0  0  0  0  0  0  0  0  0  0  0  0
  2  1  2  0  0  0  0
  2  4  1  0  0  0  0
  3  2  1  0  0  0  0
  4  7  1  0  0  0  0
  4  5  2  0  0  0  0
  5  6  1  0  0  0  0
  5  9  1  0  0  0  0
  7  8  2  0  0  0  0
  8  9  1  0  0  0  0
 10  9  1  6  0  0  0
 10 15  1  0  0  0  0
 11 14  1  1  0  0  0
 11 12  1  0  0  0  0
 11 10  1  0  0  0  0
 12 13  1  1  0  0  0
 12 16  1  0  0  0  0
 16 17  1  6  0  0  0
 16 15  1  0  0  0  0
 18 19  1  0  0  0  0
 18 17  1  0  0  0  0
 19 21  1  0  0  0  0
 20 19  1  0  0  0  0
 22 19  2  0  0  0  0
M  END
>  <CHROM.1>
15.22461038,48.08734673,178.17841570,-79.54243803,165.84287022,65.40288476
-15.04026214,1.82933013,-1.01765771,0.47774214,-2.98203022

>  <Name>
lig.pdb

>  <RI>
0

>  <Rbt.Current_Directory>
/home/itssahil/PROJECTS/Mol_Feturizer/New_Systems/rnas/4znp

>  <Rbt.Executable>
rbdock ($Id: //depot/dev/client3/rdock/2013.1/src/exe/rbdock.cxx#4 $)

>  <Rbt.Library>
libRbt.so (2013.1, Build901 2013/11/27)

>  <Rbt.Parameter_File>
/export/apps/rDock/src/rDock_2013.1_src/data/scripts/dock_solv.prm

>  <Rbt.Receptor>
prm/blind_docking_100.prm

>  <SCORE>
-14.3617

>  <SCORE.INTER>
-10.3733

>  <SCORE.INTER.CONST>
1

>  <SCORE.INTER.POLAR>
0

>  <SCORE.INTER.ROT>
5

>  <SCORE.INTER.SOLV>
19.569

>  <SCORE.INTER.VDW>
-20.3719

>  <SCORE.INTER.norm>
-0.471514

>  <SCORE.INTRA>
-4.0934

>  <SCORE.INTRA.DIHEDRAL>
-7.10767

>  <SCORE.INTRA.DIHEDRAL.0>
11.9251

>  <SCORE.INTRA.POLAR>
0

>  <SCORE.INTRA.POLAR.0>
0

>  <SCORE.INTRA.REPUL>
0

>  <SCORE.INTRA.REPUL.0>
0

>  <SCORE.INTRA.SOLV>
0.607876

>  <SCORE.INTRA.SOLV.lig_0>
-40.9823

>  <SCORE.INTRA.VDW>
-0.843507

>  <SCORE.INTRA.VDW.0>
-0.53506

>  <SCORE.INTRA.norm>
-0.186064

>  <SCORE.RESTR>
0.105008

>  <SCORE.RESTR.CAVITY>
0.105008

>  <SCORE.RESTR.norm>
0.00477307

>  <SCORE.SYSTEM>
0

>  <SCORE.SYSTEM.CONST>
0

>  <SCORE.SYSTEM.DIHEDRAL>
0

>  <SCORE.SYSTEM.SOLV>
0

>  <SCORE.SYSTEM.norm>
0

>  <SCORE.heavy>
22

>  <SCORE.norm>
-0.652805

>  <RMSD>
12.293

$$$$
lig.pdb
 OpenBabel11021811523D
libRbt.so/2013.1/901 2013/11/27
 22 23  0  0  0  0  0  0  0  0999 V2000
   63.9860  -10.3707   -3.8102 O   0  0  0  0  0  0  0  0  0  0  0  0
   64.9671  -10.4071   -3.1055 C   0  0  0  0  0  0  0  0  0  0  0  0
   66.1506  -10.0006   -3.5295 N   0  0  0  0  0  0  0  0  0  0  0  0
   64.8780  -10.9564   -1.7452 C   0  0  0  0  0  0  0  0  0  0  0  0
   63.6877  -11.5873   -1.1703 C   0  0  0  0  0  0  0  0  0  0  0  0
   62.4997  -11.7382   -1.7940 N   0  0  0  0  0  0  0  0  0  0  0  0
   65.7919  -11.0132   -0.7634 N   0  0  0  0  0  0  0  0  0  0  0  0
   65.2355  -11.6427    0.3085 C   0  0  0  0  0  0  0  0  0  0  0  0
   63.9523  -12.0011    0.0638 N   0  0  0  0  0  0  0  0  0  0  0  0
   63.0480  -12.7046    1.0139 C   0  0  1  0  0  0  0  0  0  0  0  0
   62.6327  -14.0328    0.4193 C   0  0  1  0  0  0  0  0  0  0  0  0
   62.6284  -14.9696    1.5994 C   0  0  2  0  0  0  0  0  0  0  0  0
   61.3280  -14.9864    2.2016 O   0  0  0  0  0  0  0  0  0  0  0  0
   61.3437  -13.9381   -0.2069 O   0  0  0  0  0  0  0  0  0  0  0  0
   63.7423  -13.0135    2.2199 O   0  0  0  0  0  0  0  0  0  0  0  0
   63.6031  -14.3675    2.5778 C   0  0  2  0  0  0  0  0  0  0  0  0
   65.0020  -14.9485    2.5668 C   0  0  0  0  0  0  0  0  0  0  0  0
   65.0091  -16.3013    2.9740 O   0  0  0  0  0  0  0  0  0  0  0  0
   66.3713  -17.1276    2.8545 P   0  0  0  0  0  0  0  0  0  0  0  0
   66.6658  -17.1862    1.3690 O   0  0  0  0  0  0  0  0  0  0  0  0
   65.9991  -18.4458    3.4826 O   0  0  0  0  0  0  0  0  0  0  0  0
   67.3310  -16.3399    3.7026 O   0  0  0  0  0  0  0  0  0  0  0  0
  2  1  2  0  0  0  0
  2  4  1  0  0  0  0
  3  2  1  0  0  0  0
  4  7  1  0  0  0  0
  4  5  2  0  0  0  0
  5  6  1  0  0  0  0
  5  9  1  0  0  0  0
  7  8  2  0  0  0  0
  8  9  1  0  0  0  0
 10  9  1  6  0  0  0
 10 15  1  0  0  0  0
 11 14  1  1  0  0  0
 11 12  1  0  0  0  0
 11 10  1  0  0  0  0
 12 13  1  1  0  0  0
 12 16  1  0  0  0  0
 16 17  1  6  0  0  0
 16 15  1  0  0  0  0
 18 19  1  0  0  0  0
 18 17  1  0  0  0  0
 19 21  1  0  0  0  0
 20 19  1  0  0  0  0
 22 19  2  0  0  0  0
M  END
>  <CHROM.1>
5.23442422,61.70792999,-64.84307569,-64.27387240,172.71585089,64.47493277
-13.85322598,0.71395301,-1.75033742,-0.11970225,2.40457003

>  <Name>
lig.pdb

>  <RI>
0

>  <Rbt.Current_Directory>
/home/itssahil/PROJECTS/Mol_Feturizer/New_Systems/rnas/4znp

>  <Rbt.Executable>
rbdock ($Id: //depot/dev/client3/rdock/2013.1/src/exe/rbdock.cxx#4 $)

>  <Rbt.Library>
libRbt.so (2013.1, Build901 2013/11/27)

>  <Rbt.Parameter_File>
/export/apps/rDock/src/rDock_2013.1_src/data/scripts/dock_solv.prm

>  <Rbt.Receptor>
prm/blind_docking_80.prm

>  <SCORE>
-13.2336

>  <SCORE.INTER>
-7.7264

>  <SCORE.INTER.CONST>
1

>  <SCORE.INTER.POLAR>
0

>  <SCORE.INTER.ROT>
5

>  <SCORE.INTER.SOLV>
18.4276

>  <SCORE.INTER.VDW>
-18.2268

>  <SCORE.INTER.norm>
-0.3512

>  <SCORE.INTRA>
-5.50722

>  <SCORE.INTRA.DIHEDRAL>
-9.01037

>  <SCORE.INTRA.DIHEDRAL.0>
11.9251

>  <SCORE.INTRA.POLAR>
0

>  <SCORE.INTRA.POLAR.0>
0

>  <SCORE.INTRA.REPUL>
0

>  <SCORE.INTRA.REPUL.0>
0

>  <SCORE.INTRA.SOLV>
0.51835

>  <SCORE.INTRA.SOLV.lig_0>
-40.9823

>  <SCORE.INTRA.VDW>
-1.26121

>  <SCORE.INTRA.VDW.0>
-0.53506

>  <SCORE.INTRA.norm>
-0.250328

>  <SCORE.RESTR>
0

>  <SCORE.RESTR.CAVITY>
0

>  <SCORE.RESTR.norm>
0

>  <SCORE.SYSTEM>
0

>  <SCORE.SYSTEM.CONST>
0

>  <SCORE.SYSTEM.DIHEDRAL>
0

>  <SCORE.SYSTEM.SOLV>
0

>  <SCORE.SYSTEM.norm>
0

>  <SCORE.heavy>
22

>  <SCORE.norm>
-0.601528

>  <RMSD>
12.296

$$$$
lig.pdb
 OpenBabel11021811523D
libRbt.so/2013.1/901 2013/11/27
 22 23  0  0  0  0  0  0  0  0999 V2000
   69.2126  -11.1422    3.4155 O   0  0  0  0  0  0  0  0  0  0  0  0
   69.4081  -12.1996    3.9670 C   0  0  0  0  0  0  0  0  0  0  0  0
   70.5627  -12.4884    4.5409 N   0  0  0  0  0  0  0  0  0  0  0  0
   68.3611  -13.2310    3.9768 C   0  0  0  0  0  0  0  0  0  0  0  0
   67.0917  -13.1462    3.2510 C   0  0  0  0  0  0  0  0  0  0  0  0
   66.6910  -12.1070    2.4875 N   0  0  0  0  0  0  0  0  0  0  0  0
   68.3072  -14.4165    4.6044 N   0  0  0  0  0  0  0  0  0  0  0  0
   67.1323  -15.0239    4.2796 C   0  0  0  0  0  0  0  0  0  0  0  0
   66.3883  -14.2555    3.4484 N   0  0  0  0  0  0  0  0  0  0  0  0
   65.0519  -14.6099    2.8973 C   0  0  1  0  0  0  0  0  0  0  0  0
   65.0413  -14.3529    1.4060 C   0  0  1  0  0  0  0  0  0  0  0  0
   64.2405  -15.5013    0.8488 C   0  0  2  0  0  0  0  0  0  0  0  0
   62.8549  -15.1409    0.7838 O   0  0  0  0  0  0  0  0  0  0  0  0
   64.4502  -13.0790    1.1053 O   0  0  0  0  0  0  0  0  0  0  0  0
   64.8053  -16.0046    3.0578 O   0  0  0  0  0  0  0  0  0  0  0  0
   64.4013  -16.6119    1.8541 C   0  0  2  0  0  0  0  0  0  0  0  0
   65.4568  -17.6506    1.5354 C   0  0  0  0  0  0  0  0  0  0  0  0
   64.9223  -18.7281    0.7943 O   0  0  0  0  0  0  0  0  0  0  0  0
   64.0951  -19.8531    1.5708 P   0  0  0  0  0  0  0  0  0  0  0  0
   62.9315  -19.1175    2.2046 O   0  0  0  0  0  0  0  0  0  0  0  0
   65.1172  -20.3852    2.5419 O   0  0  0  0  0  0  0  0  0  0  0  0
   63.7599  -20.8449    0.4917 O   0  0  0  0  0  0  0  0  0  0  0  0
  2  1  2  0  0  0  0
  2  4  1  0  0  0  0
  3  2  1  0  0  0  0
  4  7  1  0  0  0  0
  4  5  2  0  0  0  0
  5  6  1  0  0  0  0
  5  9  1  0  0  0  0
  7  8  2  0  0  0  0
  8  9  1  0  0  0  0
 10  9  1  6  0  0  0
 10 15  1  0  0  0  0
 11 14  1  1  0  0  0
 11 12  1  0  0  0  0
 11 10  1  0  0  0  0
 12 13  1  1  0  0  0
 12 16  1  0  0  0  0
 16 17  1  6  0  0  0
 16 15  1  0  0  0  0
 18 19  1  0  0  0  0
 18 17  1  0  0  0  0
 19 21  1  0  0  0  0
 20 19  1  0  0  0  0
 22 19  2  0  0  0  0
M  END
>  <CHROM.1>
5.97397389,48.66053919,-90.63962241,60.10446261,-78.91398094,65.74009031
-15.79187341,2.40232018,-0.90719608,0.56126920,3.06661114

>  <Name>
lig.pdb

>  <RI>
0

>  <Rbt.Current_Directory>
/home/itssahil/PROJECTS/Mol_Feturizer/New_Systems/rnas/4znp

>  <Rbt.Executable>
rbdock ($Id: //depot/dev/client3/rdock/2013.1/src/exe/rbdock.cxx#4 $)

>  <Rbt.Library>
libRbt.so (2013.1, Build901 2013/11/27)

>  <Rbt.Parameter_File>
/export/apps/rDock/src/rDock_2013.1_src/data/scripts/dock_solv.prm

>  <Rbt.Receptor>
prm/blind_docking_100.prm

>  <SCORE>
-15.3593

>  <SCORE.INTER>
-12.6699

>  <SCORE.INTER.CONST>
1

>  <SCORE.INTER.POLAR>
0

>  <SCORE.INTER.ROT>
5

>  <SCORE.INTER.SOLV>
22.0955

>  <SCORE.INTER.VDW>
-22.7451

>  <SCORE.INTER.norm>
-0.575902

>  <SCORE.INTRA>
-3.16818

>  <SCORE.INTRA.DIHEDRAL>
-4.96124

>  <SCORE.INTRA.DIHEDRAL.0>
11.9251

>  <SCORE.INTRA.POLAR>
0

>  <SCORE.INTRA.POLAR.0>
0

>  <SCORE.INTRA.REPUL>
0

>  <SCORE.INTRA.REPUL.0>
0

>  <SCORE.INTRA.SOLV>
0.931662

>  <SCORE.INTRA.SOLV.lig_0>
-40.9823

>  <SCORE.INTRA.VDW>
-1.15339

>  <SCORE.INTRA.VDW.0>
-0.53506

>  <SCORE.INTRA.norm>
-0.144008

>  <SCORE.RESTR>
0.478733

>  <SCORE.RESTR.CAVITY>
0.478733

>  <SCORE.RESTR.norm>
0.0217606

>  <SCORE.SYSTEM>
0

>  <SCORE.SYSTEM.CONST>
0

>  <SCORE.SYSTEM.DIHEDRAL>
0

>  <SCORE.SYSTEM.SOLV>
0

>  <SCORE.SYSTEM.norm>
0

>  <SCORE.heavy>
22

>  <SCORE.norm>
-0.69815

>  <RMSD>
12.350

$$$$
lig.pdb
 OpenBabel11021811523D
libRbt.so/2013.1/901 2013/11/27
 22 23  0  0  0  0  0  0  0  0999 V2000
   49.9195  -18.4370    4.3479 O   0  0  0  0  0  0  0  0  0  0  0  0
   49.5045  -18.4570    5.4828 C   0  0  0  0  0  0  0  0  0  0  0  0
   48.7300  -17.5004    5.9633 N   0  0  0  0  0  0  0  0  0  0  0  0
   49.8935  -19.5450    6.3911 C   0  0  0  0  0  0  0  0  0  0  0  0
   50.2454  -20.9037    5.9722 C   0  0  0  0  0  0  0  0  0  0  0  0
   50.2452  -21.3587    4.7008 N   0  0  0  0  0  0  0  0  0  0  0  0
   50.0137  -19.5673    7.7281 N   0  0  0  0  0  0  0  0  0  0  0  0
   50.4272  -20.8093    8.1037 C   0  0  0  0  0  0  0  0  0  0  0  0
   50.5762  -21.6283    7.0351 N   0  0  0  0  0  0  0  0  0  0  0  0
   51.0129  -23.0504    7.0816 C   0  0  1  0  0  0  0  0  0  0  0  0
   52.2625  -23.2180    6.2446 C   0  0  1  0  0  0  0  0  0  0  0  0
   53.0981  -24.1900    7.0365 C   0  0  2  0  0  0  0  0  0  0  0  0
   52.8054  -25.5309    6.6237 O   0  0  0  0  0  0  0  0  0  0  0  0
   51.9445  -23.7129    4.9345 O   0  0  0  0  0  0  0  0  0  0  0  0
   51.3786  -23.4117    8.4111 O   0  0  0  0  0  0  0  0  0  0  0  0
   52.6478  -24.0177    8.4639 C   0  0  2  0  0  0  0  0  0  0  0  0
   53.5053  -23.1166    9.3283 C   0  0  0  0  0  0  0  0  0  0  0  0
   53.6225  -21.8211    8.7771 O   0  0  0  0  0  0  0  0  0  0  0  0
   54.8164  -20.8840    9.2763 P   0  0  0  0  0  0  0  0  0  0  0  0
   54.7826  -20.9773   10.7886 O   0  0  0  0  0  0  0  0  0  0  0  0
   54.4245  -19.5429    8.7119 O   0  0  0  0  0  0  0  0  0  0  0  0
   56.0227  -21.4633    8.5907 O   0  0  0  0  0  0  0  0  0  0  0  0
  2  1  2  0  0  0  0
  2  4  1  0  0  0  0
  3  2  1  0  0  0  0
  4  7  1  0  0  0  0
  4  5  2  0  0  0  0
  5  6  1  0  0  0  0
  5  9  1  0  0  0  0
  7  8  2  0  0  0  0
  8  9  1  0  0  0  0
 10  9  1  1  0  0  0
 10 15  1  0  0  0  0
 11 14  1  6  0  0  0
 11 12  1  0  0  0  0
 11 10  1  0  0  0  0
 12 13  1  6  0  0  0
 12 16  1  0  0  0  0
 16 17  1  1  0  0  0
 16 15  1  0  0  0  0
 18 19  1  0  0  0  0
 18 17  1  0  0  0  0
 19 21  1  0  0  0  0
 20 19  1  0  0  0  0
 22 19  2  0  0  0  0
M  END
>  <CHROM.1>
-28.36897623,59.02401893,57.20723379,-47.66253496,-161.39662693,52.14864765
-21.50253807,7.41600359,-2.80546343,0.69352635,-2.91325416

>  <Name>
lig.pdb

>  <RI>
0

>  <Rbt.Current_Directory>
/home/afrankz/demos/rdock_decoys_rna/rnas/4znp

>  <Rbt.Executable>
rbdock ($Id: //depot/dev/client3/rdock/2013.1/src/exe/rbdock.cxx#4 $)

>  <Rbt.Library>
libRbt.so (2013.1, Build901 2013/11/27)

>  <Rbt.Parameter_File>
/export/apps/rDock/src/rDock_2013.1_src/data/scripts/dock_solv.prm

>  <Rbt.Receptor>
prm/blind_docking_60.prm

>  <SCORE>
1.46174

>  <SCORE.INTER>
-1.0918

>  <SCORE.INTER.CONST>
1

>  <SCORE.INTER.POLAR>
0

>  <SCORE.INTER.ROT>
5

>  <SCORE.INTER.SOLV>
18.2975

>  <SCORE.INTER.VDW>
-13.7604

>  <SCORE.INTER.norm>
-0.0496272

>  <SCORE.INTRA>
-4.12207

>  <SCORE.INTRA.DIHEDRAL>
-5.22124

>  <SCORE.INTRA.DIHEDRAL.0>
11.9251

>  <SCORE.INTRA.POLAR>
0

>  <SCORE.INTRA.POLAR.0>
0

>  <SCORE.INTRA.REPUL>
0

>  <SCORE.INTRA.REPUL.0>
0

>  <SCORE.INTRA.SOLV>
0.931248

>  <SCORE.INTRA.SOLV.lig_0>
-40.9823

>  <SCORE.INTRA.VDW>
-1.97708

>  <SCORE.INTRA.VDW.0>
-0.53506

>  <SCORE.INTRA.norm>
-0.187367

>  <SCORE.RESTR>
6.67561

>  <SCORE.RESTR.CAVITY>
6.67561

>  <SCORE.RESTR.norm>
0.303437

>  <SCORE.SYSTEM>
0

>  <SCORE.SYSTEM.CONST>
0

>  <SCORE.SYSTEM.DIHEDRAL>
0

>  <SCORE.SYSTEM.SOLV>
0

>  <SCORE.SYSTEM.norm>
0

>  <SCORE.heavy>
22

>  <SCORE.norm>
0.0664427

>  <RMSD>
12.369

$$$$
lig.pdb
 OpenBabel11021811523D
libRbt.so/2013.1/901 2013/11/27
 22 23  0  0  0  0  0  0  0  0999 V2000
   53.7659    1.7778    9.4572 O   0  0  0  0  0  0  0  0  0  0  0  0
   53.8003    0.8974    8.6301 C   0  0  0  0  0  0  0  0  0  0  0  0
   53.0936    0.9543    7.5152 N   0  0  0  0  0  0  0  0  0  0  0  0
   54.6117   -0.3052    8.8665 C   0  0  0  0  0  0  0  0  0  0  0  0
   54.7558   -1.4194    7.9267 C   0  0  0  0  0  0  0  0  0  0  0  0
   54.1532   -1.5141    6.7220 N   0  0  0  0  0  0  0  0  0  0  0  0
   55.3649   -0.6588    9.9201 N   0  0  0  0  0  0  0  0  0  0  0  0
   55.9442   -1.8618    9.6522 C   0  0  0  0  0  0  0  0  0  0  0  0
   55.5808   -2.3286    8.4336 N   0  0  0  0  0  0  0  0  0  0  0  0
   56.0262   -3.6111    7.8236 C   0  0  1  0  0  0  0  0  0  0  0  0
   57.2269   -4.1352    8.5811 C   0  0  1  0  0  0  0  0  0  0  0  0
   57.0029   -5.6246    8.6241 C   0  0  2  0  0  0  0  0  0  0  0  0
   57.6207   -6.2418    7.4877 O   0  0  0  0  0  0  0  0  0  0  0  0
   58.4506   -3.7865    7.9151 O   0  0  0  0  0  0  0  0  0  0  0  0
   55.0112   -4.6024    7.9610 O   0  0  0  0  0  0  0  0  0  0  0  0
   55.5104   -5.7972    8.5123 C   0  0  2  0  0  0  0  0  0  0  0  0
   54.7643   -6.0000    9.8149 C   0  0  0  0  0  0  0  0  0  0  0  0
   53.5384   -6.6732    9.6154 O   0  0  0  0  0  0  0  0  0  0  0  0
   53.5728   -8.2178    9.2084 P   0  0  0  0  0  0  0  0  0  0  0  0
   55.0222   -8.6325    9.3638 O   0  0  0  0  0  0  0  0  0  0  0  0
   53.0688   -8.1832    7.7887 O   0  0  0  0  0  0  0  0  0  0  0  0
   52.5853   -8.8477   10.1512 O   0  0  0  0  0  0  0  0  0  0  0  0
  2  1  2  0  0  0  0
  2  4  1  0  0  0  0
  3  2  1  0  0  0  0
  4  7  1  0  0  0  0
  4  5  2  0  0  0  0
  5  6  1  0  0  0  0
  5  9  1  0  0  0  0
  7  8  2  0  0  0  0
  8  9  1  0  0  0  0
 10  9  1  1  0  0  0
 10 15  1  0  0  0  0
 11 14  1  6  0  0  0
 11 12  1  0  0  0  0
 11 10  1  0  0  0  0
 12 13  1  6  0  0  0
 12 16  1  0  0  0  0
 16 17  1  1  0  0  0
 16 15  1  0  0  0  0
 18 19  1  0  0  0  0
 18 17  1  0  0  0  0
 19 21  1  0  0  0  0
 20 19  1  0  0  0  0
 22 19  2  0  0  0  0
M  END
>  <CHROM.1>
-178.47908855,165.10219764,-155.95521403,9.08673306,70.15900548,54.93196492
-4.22568935,8.67142216,1.52605850,0.21091928,-0.05586851

>  <Name>
lig.pdb

>  <RI>
0

>  <Rbt.Current_Directory>
/home/afrankz/demos/rdock_decoys_rna/rnas/4znp

>  <Rbt.Executable>
rbdock ($Id: //depot/dev/client3/rdock/2013.1/src/exe/rbdock.cxx#4 $)

>  <Rbt.Library>
libRbt.so (2013.1, Build901 2013/11/27)

>  <Rbt.Parameter_File>
/export/apps/rDock/src/rDock_2013.1_src/data/scripts/dock_solv.prm

>  <Rbt.Receptor>
prm/blind_docking_60.prm

>  <SCORE>
4.10347

>  <SCORE.INTER>
2.08303

>  <SCORE.INTER.CONST>
1

>  <SCORE.INTER.POLAR>
0

>  <SCORE.INTER.ROT>
5

>  <SCORE.INTER.SOLV>
18.3742

>  <SCORE.INTER.VDW>
-11.6694

>  <SCORE.INTER.norm>
0.0946831

>  <SCORE.INTRA>
-1.99571

>  <SCORE.INTRA.DIHEDRAL>
-4.91545

>  <SCORE.INTRA.DIHEDRAL.0>
11.9251

>  <SCORE.INTRA.POLAR>
0

>  <SCORE.INTRA.POLAR.0>
0

>  <SCORE.INTRA.REPUL>
0

>  <SCORE.INTRA.REPUL.0>
0

>  <SCORE.INTRA.SOLV>
0.645292

>  <SCORE.INTRA.SOLV.lig_0>
-40.9823

>  <SCORE.INTRA.VDW>
0.139367

>  <SCORE.INTRA.VDW.0>
-0.53506

>  <SCORE.INTRA.norm>
-0.0907142

>  <SCORE.RESTR>
4.01616

>  <SCORE.RESTR.CAVITY>
4.01616

>  <SCORE.RESTR.norm>
0.182553

>  <SCORE.SYSTEM>
0

>  <SCORE.SYSTEM.CONST>
0

>  <SCORE.SYSTEM.DIHEDRAL>
0

>  <SCORE.SYSTEM.SOLV>
0

>  <SCORE.SYSTEM.norm>
0

>  <SCORE.heavy>
22

>  <SCORE.norm>
0.186522

>  <RMSD>
12.396

$$$$
lig.pdb
 OpenBabel11021811523D
libRbt.so/2013.1/901 2013/11/27
 22 23  0  0  0  0  0  0  0  0999 V2000
   53.9064  -21.5999    9.4708 O   0  0  0  0  0  0  0  0  0  0  0  0
   54.5242  -22.2283   10.2977 C   0  0  0  0  0  0  0  0  0  0  0  0
   54.2976  -22.0958   11.5927 N   0  0  0  0  0  0  0  0  0  0  0  0
   55.5959  -23.1431    9.8796 C   0  0  0  0  0  0  0  0  0  0  0  0
   56.4414  -23.9184   10.7903 C   0  0  0  0  0  0  0  0  0  0  0  0
   56.3744  -23.8920   12.1386 N   0  0  0  0  0  0  0  0  0  0  0  0
   56.0365  -23.4722    8.6549 N   0  0  0  0  0  0  0  0  0  0  0  0
   57.0391  -24.3842    8.7874 C   0  0  0  0  0  0  0  0  0  0  0  0
   57.2869  -24.6653   10.0892 N   0  0  0  0  0  0  0  0  0  0  0  0
   58.3149  -25.6156   10.5949 C   0  0  1  0  0  0  0  0  0  0  0  0
   58.1334  -26.9564    9.9171 C   0  0  1  0  0  0  0  0  0  0  0  0
   59.5430  -27.4342    9.6821 C   0  0  2  0  0  0  0  0  0  0  0  0
   59.9851  -28.2123   10.8016 O   0  0  0  0  0  0  0  0  0  0  0  0
   57.3830  -27.8573   10.7464 O   0  0  0  0  0  0  0  0  0  0  0  0
   59.6200  -25.1677   10.2376 O   0  0  0  0  0  0  0  0  0  0  0  0
   60.3730  -26.1788    9.6120 C   0  0  2  0  0  0  0  0  0  0  0  0
   60.6878  -25.6658    8.2220 C   0  0  0  0  0  0  0  0  0  0  0  0
   61.4837  -24.4992    8.2634 O   0  0  0  0  0  0  0  0  0  0  0  0
   61.8216  -23.7561    6.8901 P   0  0  0  0  0  0  0  0  0  0  0  0
   62.2127  -24.8625    5.9310 O   0  0  0  0  0  0  0  0  0  0  0  0
   62.9451  -22.8369    7.2945 O   0  0  0  0  0  0  0  0  0  0  0  0
   60.5546  -23.0088    6.5785 O   0  0  0  0  0  0  0  0  0  0  0  0
  2  1  2  0  0  0  0
  2  4  1  0  0  0  0
  3  2  1  0  0  0  0
  4  7  1  0  0  0  0
  4  5  2  0  0  0  0
  5  6  1  0  0  0  0
  5  9  1  0  0  0  0
  7  8  2  0  0  0  0
  8  9  1  0  0  0  0
 10  9  1  6  0  0  0
 10 15  1  0  0  0  0
 11 14  1  1  0  0  0
 11 12  1  0  0  0  0
 11 10  1  0  0  0  0
 12 13  1  1  0  0  0
 12 16  1  0  0  0  0
 16 17  1  6  0  0  0
 16 15  1  0  0  0  0
 18 19  1  0  0  0  0
 18 17  1  0  0  0  0
 19 21  1  0  0  0  0
 20 19  1  0  0  0  0
 22 19  2  0  0  0  0
M  END
>  <CHROM.1>
177.72767256,127.73608383,-179.17244104,-45.00867250,-175.47098766,58.67957161
-24.57946543,9.20007037,3.08154831,-0.47657465,2.61814371

>  <Name>
lig.pdb

>  <RI>
0

>  <Rbt.Current_Directory>
/home/itssahil/PROJECTS/Mol_Feturizer/New_Systems/rnas/4znp

>  <Rbt.Executable>
rbdock ($Id: //depot/dev/client3/rdock/2013.1/src/exe/rbdock.cxx#4 $)

>  <Rbt.Library>
libRbt.so (2013.1, Build901 2013/11/27)

>  <Rbt.Parameter_File>
/export/apps/rDock/src/rDock_2013.1_src/data/scripts/dock_solv.prm

>  <Rbt.Receptor>
prm/blind_docking_100.prm

>  <SCORE>
-15.0037

>  <SCORE.INTER>
-9.30668

>  <SCORE.INTER.CONST>
1

>  <SCORE.INTER.POLAR>
0

>  <SCORE.INTER.ROT>
5

>  <SCORE.INTER.SOLV>
17.9821

>  <SCORE.INTER.VDW>
-19.1318

>  <SCORE.INTER.norm>
-0.423031

>  <SCORE.INTRA>
-5.69704

>  <SCORE.INTRA.DIHEDRAL>
-8.9992

>  <SCORE.INTRA.DIHEDRAL.0>
11.9251

>  <SCORE.INTRA.POLAR>
0

>  <SCORE.INTRA.POLAR.0>
0

>  <SCORE.INTRA.REPUL>
0

>  <SCORE.INTRA.REPUL.0>
0

>  <SCORE.INTRA.SOLV>
0.0489796

>  <SCORE.INTRA.SOLV.lig_0>
-40.9823

>  <SCORE.INTRA.VDW>
-1.22193

>  <SCORE.INTRA.VDW.0>
-0.53506

>  <SCORE.INTRA.norm>
-0.258956

>  <SCORE.RESTR>
0

>  <SCORE.RESTR.CAVITY>
0

>  <SCORE.RESTR.norm>
0

>  <SCORE.SYSTEM>
0

>  <SCORE.SYSTEM.CONST>
0

>  <SCORE.SYSTEM.DIHEDRAL>
0

>  <SCORE.SYSTEM.SOLV>
0

>  <SCORE.SYSTEM.norm>
0

>  <SCORE.heavy>
22

>  <SCORE.norm>
-0.681987

>  <RMSD>
12.442

$$$$
lig.pdb
 OpenBabel11021811523D
libRbt.so/2013.1/901 2013/11/27
 22 23  0  0  0  0  0  0  0  0999 V2000
   53.5911    1.9434    9.3388 O   0  0  0  0  0  0  0  0  0  0  0  0
   53.6480    1.0310    8.5484 C   0  0  0  0  0  0  0  0  0  0  0  0
   52.9155    1.0087    7.4491 N   0  0  0  0  0  0  0  0  0  0  0  0
   54.5186   -0.1227    8.8154 C   0  0  0  0  0  0  0  0  0  0  0  0
   54.6946   -1.2675    7.9189 C   0  0  0  0  0  0  0  0  0  0  0  0
   54.0725   -1.4396    6.7329 N   0  0  0  0  0  0  0  0  0  0  0  0
   55.3086   -0.3977    9.8655 N   0  0  0  0  0  0  0  0  0  0  0  0
   55.9372   -1.5834    9.6341 C   0  0  0  0  0  0  0  0  0  0  0  0
   55.5708   -2.1166    8.4439 N   0  0  0  0  0  0  0  0  0  0  0  0
   56.0622   -3.4021    7.8769 C   0  0  1  0  0  0  0  0  0  0  0  0
   57.0345   -4.0377    8.8469 C   0  0  1  0  0  0  0  0  0  0  0  0
   56.7187   -5.5085    8.7608 C   0  0  2  0  0  0  0  0  0  0  0  0
   57.5327   -6.1220    7.7533 O   0  0  0  0  0  0  0  0  0  0  0  0
   58.3928   -3.7490    8.4806 O   0  0  0  0  0  0  0  0  0  0  0  0
   54.9848   -4.3250    7.7385 O   0  0  0  0  0  0  0  0  0  0  0  0
   55.2793   -5.5723    8.3200 C   0  0  2  0  0  0  0  0  0  0  0  0
   54.2553   -5.7738    9.4178 C   0  0  0  0  0  0  0  0  0  0  0  0
   54.4550   -6.9942   10.1010 O   0  0  0  0  0  0  0  0  0  0  0  0
   54.0174   -8.3522    9.3821 P   0  0  0  0  0  0  0  0  0  0  0  0
   53.2822   -7.9149    8.1310 O   0  0  0  0  0  0  0  0  0  0  0  0
   53.1556   -9.0041   10.4324 O   0  0  0  0  0  0  0  0  0  0  0  0
   55.3207   -9.0748    9.1816 O   0  0  0  0  0  0  0  0  0  0  0  0
  2  1  2  0  0  0  0
  2  4  1  0  0  0  0
  3  2  1  0  0  0  0
  4  7  1  0  0  0  0
  4  5  2  0  0  0  0
  5  6  1  0  0  0  0
  5  9  1  0  0  0  0
  7  8  2  0  0  0  0
  8  9  1  0  0  0  0
 10  9  1  1  0  0  0
 10 15  1  0  0  0  0
 11 14  1  6  0  0  0
 11 12  1  0  0  0  0
 11 10  1  0  0  0  0
 12 13  1  6  0  0  0
 12 16  1  0  0  0  0
 16 17  1  1  0  0  0
 16 15  1  0  0  0  0
 18 19  1  0  0  0  0
 18 17  1  0  0  0  0
 19 21  1  0  0  0  0
 20 19  1  0  0  0  0
 22 19  2  0  0  0  0
M  END
>  <CHROM.1>
-178.39974534,-178.88777888,-61.17358245,-7.67871436,-75.47696505,54.98040352
-4.15209060,8.73985669,1.58997871,0.15206586,-0.09259235

>  <Name>
lig.pdb

>  <RI>
0

>  <Rbt.Current_Directory>
/home/afrankz/demos/rdock_decoys_rna/rnas/4znp

>  <Rbt.Executable>
rbdock ($Id: //depot/dev/client3/rdock/2013.1/src/exe/rbdock.cxx#4 $)

>  <Rbt.Library>
libRbt.so (2013.1, Build901 2013/11/27)

>  <Rbt.Parameter_File>
/export/apps/rDock/src/rDock_2013.1_src/data/scripts/dock_solv.prm

>  <Rbt.Receptor>
prm/blind_docking_60.prm

>  <SCORE>
2.80084

>  <SCORE.INTER>
0.709021

>  <SCORE.INTER.CONST>
1

>  <SCORE.INTER.POLAR>
0

>  <SCORE.INTER.ROT>
5

>  <SCORE.INTER.SOLV>
18.6631

>  <SCORE.INTER.VDW>
-12.6817

>  <SCORE.INTER.norm>
0.0322282

>  <SCORE.INTRA>
-2.28591

>  <SCORE.INTRA.DIHEDRAL>
-6.04455

>  <SCORE.INTRA.DIHEDRAL.0>
11.9251

>  <SCORE.INTRA.POLAR>
0

>  <SCORE.INTRA.POLAR.0>
0

>  <SCORE.INTRA.REPUL>
0

>  <SCORE.INTRA.REPUL.0>
0

>  <SCORE.INTRA.SOLV>
1.14119

>  <SCORE.INTRA.SOLV.lig_0>
-40.9823

>  <SCORE.INTRA.VDW>
0.165774

>  <SCORE.INTRA.VDW.0>
-0.53506

>  <SCORE.INTRA.norm>
-0.103905

>  <SCORE.RESTR>
4.37772

>  <SCORE.RESTR.CAVITY>
4.37772

>  <SCORE.RESTR.norm>
0.198987

>  <SCORE.SYSTEM>
0

>  <SCORE.SYSTEM.CONST>
0

>  <SCORE.SYSTEM.DIHEDRAL>
0

>  <SCORE.SYSTEM.SOLV>
0

>  <SCORE.SYSTEM.norm>
0

>  <SCORE.heavy>
22

>  <SCORE.norm>
0.127311

>  <RMSD>
12.489

$$$$
lig.pdb
 OpenBabel11021811523D
libRbt.so/2013.1/901 2013/11/27
 22 23  0  0  0  0  0  0  0  0999 V2000
   64.8291  -18.7300    1.6852 O   0  0  0  0  0  0  0  0  0  0  0  0
   65.0304  -19.6481    2.4447 C   0  0  0  0  0  0  0  0  0  0  0  0
   66.0600  -19.6607    3.2727 N   0  0  0  0  0  0  0  0  0  0  0  0
   64.1425  -20.8194    2.4375 C   0  0  0  0  0  0  0  0  0  0  0  0
   64.2721  -21.9773    3.3251 C   0  0  0  0  0  0  0  0  0  0  0  0
   65.2311  -22.1467    4.2605 N   0  0  0  0  0  0  0  0  0  0  0  0
   63.0741  -21.1022    1.6753 N   0  0  0  0  0  0  0  0  0  0  0  0
   62.5700  -22.3049    2.0678 C   0  0  0  0  0  0  0  0  0  0  0  0
   63.2939  -22.8415    3.0792 N   0  0  0  0  0  0  0  0  0  0  0  0
   63.0250  -24.1440    3.7474 C   0  0  1  0  0  0  0  0  0  0  0  0
   63.0769  -23.9568    5.2482 C   0  0  1  0  0  0  0  0  0  0  0  0
   61.9640  -24.8348    5.7589 C   0  0  2  0  0  0  0  0  0  0  0  0
   62.4700  -26.1457    6.0410 O   0  0  0  0  0  0  0  0  0  0  0  0
   64.3580  -24.3392    5.7727 O   0  0  0  0  0  0  0  0  0  0  0  0
   61.7029  -24.5873    3.4518 O   0  0  0  0  0  0  0  0  0  0  0  0
   60.9889  -24.9324    4.6145 C   0  0  2  0  0  0  0  0  0  0  0  0
   59.8015  -23.9935    4.6698 C   0  0  0  0  0  0  0  0  0  0  0  0
   59.9516  -23.0204    5.6830 O   0  0  0  0  0  0  0  0  0  0  0  0
   58.6627  -22.2010    6.1517 P   0  0  0  0  0  0  0  0  0  0  0  0
   57.8583  -23.1778    6.9856 O   0  0  0  0  0  0  0  0  0  0  0  0
   58.0345  -21.8180    4.8366 O   0  0  0  0  0  0  0  0  0  0  0  0
   59.2465  -21.0181    6.8733 O   0  0  0  0  0  0  0  0  0  0  0  0
  2  1  2  0  0  0  0
  2  4  1  0  0  0  0
  3  2  1  0  0  0  0
  4  7  1  0  0  0  0
  4  5  2  0  0  0  0
  5  6  1  0  0  0  0
  5  9  1  0  0  0  0
  7  8  2  0  0  0  0
  8  9  1  0  0  0  0
 10  9  1  6  0  0  0
 10 15  1  0  0  0  0
 11 14  1  1  0  0  0
 11 12  1  0  0  0  0
 11 10  1  0  0  0  0
 12 13  1  6  0  0  0
 12 16  1  0  0  0  0
 16 17  1  1  0  0  0
 16 15  1  0  0  0  0
 18 19  1  0  0  0  0
 18 17  1  0  0  0  0
 19 21  1  0  0  0  0
 20 19  1  0  0  0  0
 22 19  2  0  0  0  0
M  END
>  <CHROM.1>
-178.83024431,48.16545213,10.49608237,74.30281694,-163.94389355,61.97236776
-22.61125003,4.44361317,0.52215356,0.38104305,-0.37459329

>  <Name>
lig.pdb

>  <RI>
0

>  <Rbt.Current_Directory>
/home/itssahil/PROJECTS/Mol_Feturizer/New_Systems/rnas/4znp

>  <Rbt.Executable>
rbdock ($Id: //depot/dev/client3/rdock/2013.1/src/exe/rbdock.cxx#4 $)

>  <Rbt.Library>
libRbt.so (2013.1, Build901 2013/11/27)

>  <Rbt.Parameter_File>
/export/apps/rDock/src/rDock_2013.1_src/data/scripts/dock_solv.prm

>  <Rbt.Receptor>
prm/blind_docking_100.prm

>  <SCORE>
-10.179

>  <SCORE.INTER>
-9.08943

>  <SCORE.INTER.CONST>
1

>  <SCORE.INTER.POLAR>
0

>  <SCORE.INTER.ROT>
5

>  <SCORE.INTER.SOLV>
24.7459

>  <SCORE.INTER.VDW>
-21.2416

>  <SCORE.INTER.norm>
-0.413156

>  <SCORE.INTRA>
-1.67322

>  <SCORE.INTRA.DIHEDRAL>
-3.03684

>  <SCORE.INTRA.DIHEDRAL.0>
11.9251

>  <SCORE.INTRA.POLAR>
0

>  <SCORE.INTRA.POLAR.0>
0

>  <SCORE.INTRA.REPUL>
0

>  <SCORE.INTRA.REPUL.0>
0

>  <SCORE.INTRA.SOLV>
0.768666

>  <SCORE.INTRA.SOLV.lig_0>
-40.9823

>  <SCORE.INTRA.VDW>
-0.539136

>  <SCORE.INTRA.VDW.0>
-0.53506

>  <SCORE.INTRA.norm>
-0.0760557

>  <SCORE.RESTR>
0.583652

>  <SCORE.RESTR.CAVITY>
0.583652

>  <SCORE.RESTR.norm>
0.0265297

>  <SCORE.SYSTEM>
0

>  <SCORE.SYSTEM.CONST>
0

>  <SCORE.SYSTEM.DIHEDRAL>
0

>  <SCORE.SYSTEM.SOLV>
0

>  <SCORE.SYSTEM.norm>
0

>  <SCORE.heavy>
22

>  <SCORE.norm>
-0.462682

>  <RMSD>
12.498

$$$$
lig.pdb
 OpenBabel11021811523D
libRbt.so/2013.1/901 2013/11/27
 22 23  0  0  0  0  0  0  0  0999 V2000
   49.5040  -17.6776    4.7747 O   0  0  0  0  0  0  0  0  0  0  0  0
   49.4321  -18.4823    5.6734 C   0  0  0  0  0  0  0  0  0  0  0  0
   48.7237  -18.2532    6.7650 N   0  0  0  0  0  0  0  0  0  0  0  0
   50.1807  -19.7446    5.5947 C   0  0  0  0  0  0  0  0  0  0  0  0
   50.2810  -20.7305    6.6733 C   0  0  0  0  0  0  0  0  0  0  0  0
   49.7207  -20.6164    7.8966 N   0  0  0  0  0  0  0  0  0  0  0  0
   50.9053  -20.2707    4.5944 N   0  0  0  0  0  0  0  0  0  0  0  0
   51.3867  -21.4787    4.9990 C   0  0  0  0  0  0  0  0  0  0  0  0
   51.0037  -21.7678    6.2658 N   0  0  0  0  0  0  0  0  0  0  0  0
   51.3513  -23.0025    7.0207 C   0  0  1  0  0  0  0  0  0  0  0  0
   52.4352  -23.7543    6.2789 C   0  0  1  0  0  0  0  0  0  0  0  0
   53.3252  -24.2778    7.3762 C   0  0  2  0  0  0  0  0  0  0  0  0
   52.8851  -25.5810    7.7785 O   0  0  0  0  0  0  0  0  0  0  0  0
   51.8777  -24.8086    5.4788 O   0  0  0  0  0  0  0  0  0  0  0  0
   51.9046  -22.6659    8.2905 O   0  0  0  0  0  0  0  0  0  0  0  0
   53.1246  -23.3265    8.5272 C   0  0  2  0  0  0  0  0  0  0  0  0
   54.1665  -22.2377    8.6803 C   0  0  0  0  0  0  0  0  0  0  0  0
   53.8370  -21.3419    9.7219 O   0  0  0  0  0  0  0  0  0  0  0  0
   54.0838  -21.8025   11.2317 P   0  0  0  0  0  0  0  0  0  0  0  0
   55.1395  -20.8541   11.7638 O   0  0  0  0  0  0  0  0  0  0  0  0
   54.5381  -23.2288   11.0583 O   0  0  0  0  0  0  0  0  0  0  0  0
   52.7172  -21.7083   11.8516 O   0  0  0  0  0  0  0  0  0  0  0  0
  2  1  2  0  0  0  0
  2  4  1  0  0  0  0
  3  2  1  0  0  0  0
  4  7  1  0  0  0  0
  4  5  2  0  0  0  0
  5  6  1  0  0  0  0
  5  9  1  0  0  0  0
  7  8  2  0  0  0  0
  8  9  1  0  0  0  0
 10  9  1  6  0  0  0
 10 15  1  0  0  0  0
 11 14  1  1  0  0  0
 11 12  1  0  0  0  0
 11 10  1  0  0  0  0
 12 13  1  1  0  0  0
 12 16  1  0  0  0  0
 16 17  1  6  0  0  0
 16 15  1  0  0  0  0
 18 19  1  0  0  0  0
 18 17  1  0  0  0  0
 19 21  1  0  0  0  0
 20 19  1  0  0  0  0
 22 19  2  0  0  0  0
M  END
>  <CHROM.1>
173.45945636,-167.42121068,175.59368571,115.80662393,77.10078816,52.11530808
-21.75520842,7.93378516,3.02788088,0.94821874,-2.48675850

>  <Name>
lig.pdb

>  <RI>
0

>  <Rbt.Current_Directory>
/home/afrankz/demos/rdock_decoys_rna/rnas/4znp

>  <Rbt.Executable>
rbdock ($Id: //depot/dev/client3/rdock/2013.1/src/exe/rbdock.cxx#4 $)

>  <Rbt.Library>
libRbt.so (2013.1, Build901 2013/11/27)

>  <Rbt.Parameter_File>
/export/apps/rDock/src/rDock_2013.1_src/data/scripts/dock_solv.prm

>  <Rbt.Receptor>
prm/blind_docking_60.prm

>  <SCORE>
4.6135

>  <SCORE.INTER>
-0.25764

>  <SCORE.INTER.CONST>
1

>  <SCORE.INTER.POLAR>
0

>  <SCORE.INTER.ROT>
5

>  <SCORE.INTER.SOLV>
16.8735

>  <SCORE.INTER.VDW>
-12.7296

>  <SCORE.INTER.norm>
-0.0117109

>  <SCORE.INTRA>
-1.32738

>  <SCORE.INTRA.DIHEDRAL>
-5.62748

>  <SCORE.INTRA.DIHEDRAL.0>
11.9251

>  <SCORE.INTRA.POLAR>
0

>  <SCORE.INTRA.POLAR.0>
0

>  <SCORE.INTRA.REPUL>
0

>  <SCORE.INTRA.REPUL.0>
0

>  <SCORE.INTRA.SOLV>
1.07123

>  <SCORE.INTRA.SOLV.lig_0>
-40.9823

>  <SCORE.INTRA.VDW>
0.950742

>  <SCORE.INTRA.VDW.0>
-0.53506

>  <SCORE.INTRA.norm>
-0.0603356

>  <SCORE.RESTR>
6.19852

>  <SCORE.RESTR.CAVITY>
6.19852

>  <SCORE.RESTR.norm>
0.281751

>  <SCORE.SYSTEM>
0

>  <SCORE.SYSTEM.CONST>
0

>  <SCORE.SYSTEM.DIHEDRAL>
0

>  <SCORE.SYSTEM.SOLV>
0

>  <SCORE.SYSTEM.norm>
0

>  <SCORE.heavy>
22

>  <SCORE.norm>
0.209704

>  <RMSD>
12.509

$$$$
lig.pdb
 OpenBabel11021811523D
libRbt.so/2013.1/901 2013/11/27
 22 23  0  0  0  0  0  0  0  0999 V2000
   63.3550   -9.1391   -4.9118 O   0  0  0  0  0  0  0  0  0  0  0  0
   63.8894   -9.9350   -4.1760 C   0  0  0  0  0  0  0  0  0  0  0  0
   65.1858   -9.8962   -3.9236 N   0  0  0  0  0  0  0  0  0  0  0  0
   63.1042  -11.0161   -3.5638 C   0  0  0  0  0  0  0  0  0  0  0  0
   63.6364  -12.0237   -2.6436 C   0  0  0  0  0  0  0  0  0  0  0  0
   64.9217  -12.1188   -2.2406 N   0  0  0  0  0  0  0  0  0  0  0  0
   61.8043  -11.3293   -3.6848 N   0  0  0  0  0  0  0  0  0  0  0  0
   61.5451  -12.4086   -2.8957 C   0  0  0  0  0  0  0  0  0  0  0  0
   62.6590  -12.8336   -2.2526 N   0  0  0  0  0  0  0  0  0  0  0  0
   62.7368  -13.9862   -1.3140 C   0  0  1  0  0  0  0  0  0  0  0  0
   64.1854  -14.3818   -1.1262 C   0  0  1  0  0  0  0  0  0  0  0  0
   64.2756  -14.7327    0.3363 C   0  0  2  0  0  0  0  0  0  0  0  0
   64.0116  -16.1296    0.5179 O   0  0  0  0  0  0  0  0  0  0  0  0
   64.5335  -15.4868   -1.9749 O   0  0  0  0  0  0  0  0  0  0  0  0
   62.2625  -13.6062   -0.0247 O   0  0  0  0  0  0  0  0  0  0  0  0
   63.1720  -13.9458    0.9942 C   0  0  2  0  0  0  0  0  0  0  0  0
   63.5811  -12.6389    1.6417 C   0  0  0  0  0  0  0  0  0  0  0  0
   64.8662  -12.7234    2.2226 O   0  0  0  0  0  0  0  0  0  0  0  0
   65.7867  -11.4176    2.2334 P   0  0  0  0  0  0  0  0  0  0  0  0
   67.1003  -11.8683    2.8402 O   0  0  0  0  0  0  0  0  0  0  0  0
   64.9831  -10.4698    3.0858 O   0  0  0  0  0  0  0  0  0  0  0  0
   65.8175  -11.0024    0.7886 O   0  0  0  0  0  0  0  0  0  0  0  0
  2  1  2  0  0  0  0
  2  4  1  0  0  0  0
  3  2  1  0  0  0  0
  4  7  1  0  0  0  0
  4  5  2  0  0  0  0
  5  6  1  0  0  0  0
  5  9  1  0  0  0  0
  7  8  2  0  0  0  0
  8  9  1  0  0  0  0
 10  9  1  6  0  0  0
 10 15  1  0  0  0  0
 11 14  1  6  0  0  0
 11 12  1  0  0  0  0
 11 10  1  0  0  0  0
 12 13  1  6  0  0  0
 12 16  1  0  0  0  0
 16 17  1  6  0  0  0
 16 15  1  0  0  0  0
 18 19  1  0  0  0  0
 18 17  1  0  0  0  0
 19 21  1  0  0  0  0
 20 19  1  0  0  0  0
 22 19  2  0  0  0  0
M  END
>  <CHROM.1>
-179.04049413,-15.70133822,-35.38173299,-176.70346278,147.31328418,64.11716511
-12.37245933,-0.64654205,-2.26197504,1.03805661,2.42389465

>  <Name>
lig.pdb

>  <RI>
0

>  <Rbt.Current_Directory>
/home/itssahil/PROJECTS/Mol_Feturizer/New_Systems/rnas/4znp

>  <Rbt.Executable>
rbdock ($Id: //depot/dev/client3/rdock/2013.1/src/exe/rbdock.cxx#4 $)

>  <Rbt.Library>
libRbt.so (2013.1, Build901 2013/11/27)

>  <Rbt.Parameter_File>
/export/apps/rDock/src/rDock_2013.1_src/data/scripts/dock_solv.prm

>  <Rbt.Receptor>
prm/blind_docking_80.prm

>  <SCORE>
-12.8767

>  <SCORE.INTER>
-11.8282

>  <SCORE.INTER.CONST>
1

>  <SCORE.INTER.POLAR>
0

>  <SCORE.INTER.ROT>
5

>  <SCORE.INTER.SOLV>
15.8931

>  <SCORE.INTER.VDW>
-20.1165

>  <SCORE.INTER.norm>
-0.537647

>  <SCORE.INTRA>
-1.04846

>  <SCORE.INTRA.DIHEDRAL>
-3.50352

>  <SCORE.INTRA.DIHEDRAL.0>
11.9251

>  <SCORE.INTRA.POLAR>
0

>  <SCORE.INTRA.POLAR.0>
0

>  <SCORE.INTRA.REPUL>
0.00130829

>  <SCORE.INTRA.REPUL.0>
0

>  <SCORE.INTRA.SOLV>
2.06167

>  <SCORE.INTRA.SOLV.lig_0>
-40.9823

>  <SCORE.INTRA.VDW>
-0.334073

>  <SCORE.INTRA.VDW.0>
-0.53506

>  <SCORE.INTRA.norm>
-0.0476571

>  <SCORE.RESTR>
0

>  <SCORE.RESTR.CAVITY>
0

>  <SCORE.RESTR.norm>
0

>  <SCORE.SYSTEM>
0

>  <SCORE.SYSTEM.CONST>
0

>  <SCORE.SYSTEM.DIHEDRAL>
0

>  <SCORE.SYSTEM.SOLV>
0

>  <SCORE.SYSTEM.norm>
0

>  <SCORE.heavy>
22

>  <SCORE.norm>
-0.585304

>  <RMSD>
12.512

$$$$
lig.pdb
 OpenBabel11021811523D
libRbt.so/2013.1/901 2013/11/27
 22 23  0  0  0  0  0  0  0  0999 V2000
   52.8837    0.9499    7.4621 O   0  0  0  0  0  0  0  0  0  0  0  0
   53.4727    0.9368    8.5172 C   0  0  0  0  0  0  0  0  0  0  0  0
   53.3456    1.9084    9.4035 N   0  0  0  0  0  0  0  0  0  0  0  0
   54.3989   -0.1604    8.8312 C   0  0  0  0  0  0  0  0  0  0  0  0
   54.6996   -1.2859    7.9435 C   0  0  0  0  0  0  0  0  0  0  0  0
   54.1591   -1.4901    6.7230 N   0  0  0  0  0  0  0  0  0  0  0  0
   55.1433   -0.3906    9.9245 N   0  0  0  0  0  0  0  0  0  0  0  0
   55.8592   -1.5322    9.7268 C   0  0  0  0  0  0  0  0  0  0  0  0
   55.5969   -2.0803    8.5162 N   0  0  0  0  0  0  0  0  0  0  0  0
   56.2019   -3.3281    7.9753 C   0  0  1  0  0  0  0  0  0  0  0  0
   56.7223   -4.1692    9.1206 C   0  0  1  0  0  0  0  0  0  0  0  0
   56.3925   -5.5807    8.7090 C   0  0  2  0  0  0  0  0  0  0  0  0
   57.4893   -6.1420    7.9768 O   0  0  0  0  0  0  0  0  0  0  0  0
   58.1323   -3.9710    9.3084 O   0  0  0  0  0  0  0  0  0  0  0  0
   55.2084   -4.1181    7.3268 O   0  0  0  0  0  0  0  0  0  0  0  0
   55.2125   -5.4500    7.7815 C   0  0  2  0  0  0  0  0  0  0  0  0
   53.8500   -5.6843    8.4006 C   0  0  0  0  0  0  0  0  0  0  0  0
   53.4984   -7.0526    8.3871 O   0  0  0  0  0  0  0  0  0  0  0  0
   53.9349   -7.9654    9.6235 P   0  0  0  0  0  0  0  0  0  0  0  0
   53.8718   -7.0494   10.8293 O   0  0  0  0  0  0  0  0  0  0  0  0
   55.3219   -8.3985    9.2244 O   0  0  0  0  0  0  0  0  0  0  0  0
   52.9477   -9.0989    9.5841 O   0  0  0  0  0  0  0  0  0  0  0  0
  2  1  2  0  0  0  0
  2  4  1  0  0  0  0
  3  2  1  0  0  0  0
  4  7  1  0  0  0  0
  4  5  2  0  0  0  0
  5  6  1  0  0  0  0
  5  9  1  0  0  0  0
  7  8  2  0  0  0  0
  8  9  1  0  0  0  0
 10  9  1  1  0  0  0
 10 15  1  0  0  0  0
 11 14  1  6  0  0  0
 11 12  1  0  0  0  0
 11 10  1  0  0  0  0
 12 13  1  6  0  0  0
 12 16  1  0  0  0  0
 16 17  1  1  0  0  0
 16 15  1  0  0  0  0
 18 19  1  0  0  0  0
 18 17  1  0  0  0  0
 19 21  1  0  0  0  0
 20 19  1  0  0  0  0
 22 19  2  0  0  0  0
M  END
>  <CHROM.1>
0.55657149,-157.84253481,-86.85972377,33.63235337,88.75123681,54.86954715
-4.06041777,8.75146165,1.60225986,0.07533938,-0.09850129

>  <Name>
lig.pdb

>  <RI>
0

>  <Rbt.Current_Directory>
/home/afrankz/demos/rdock_decoys_rna/rnas/4znp

>  <Rbt.Executable>
rbdock ($Id: //depot/dev/client3/rdock/2013.1/src/exe/rbdock.cxx#4 $)

>  <Rbt.Library>
libRbt.so (2013.1, Build901 2013/11/27)

>  <Rbt.Parameter_File>
/export/apps/rDock/src/rDock_2013.1_src/data/scripts/dock_solv.prm

>  <Rbt.Receptor>
prm/blind_docking_60.prm

>  <SCORE>
5.10394

>  <SCORE.INTER>
2.13209

>  <SCORE.INTER.CONST>
1

>  <SCORE.INTER.POLAR>
0

>  <SCORE.INTER.ROT>
5

>  <SCORE.INTER.SOLV>
16.7962

>  <SCORE.INTER.VDW>
-11.1107

>  <SCORE.INTER.norm>
0.0969131

>  <SCORE.INTRA>
-2.02281

>  <SCORE.INTRA.DIHEDRAL>
-3.03515

>  <SCORE.INTRA.DIHEDRAL.0>
11.9251

>  <SCORE.INTRA.POLAR>
0

>  <SCORE.INTRA.POLAR.0>
0

>  <SCORE.INTRA.REPUL>
0

>  <SCORE.INTRA.REPUL.0>
0

>  <SCORE.INTRA.SOLV>
0.915961

>  <SCORE.INTRA.SOLV.lig_0>
-40.9823

>  <SCORE.INTRA.VDW>
-0.963214

>  <SCORE.INTRA.VDW.0>
-0.53506

>  <SCORE.INTRA.norm>
-0.0919459

>  <SCORE.RESTR>
4.99466

>  <SCORE.RESTR.CAVITY>
4.99466

>  <SCORE.RESTR.norm>
0.22703

>  <SCORE.SYSTEM>
0

>  <SCORE.SYSTEM.CONST>
0

>  <SCORE.SYSTEM.DIHEDRAL>
0

>  <SCORE.SYSTEM.SOLV>
0

>  <SCORE.SYSTEM.norm>
0

>  <SCORE.heavy>
22

>  <SCORE.norm>
0.231997

>  <RMSD>
12.520

$$$$
lig.pdb
 OpenBabel11021811523D
libRbt.so/2013.1/901 2013/11/27
 22 23  0  0  0  0  0  0  0  0999 V2000
   53.2911    1.8390    9.3502 O   0  0  0  0  0  0  0  0  0  0  0  0
   53.4847    0.9648    8.5386 C   0  0  0  0  0  0  0  0  0  0  0  0
   52.8566    0.9350    7.3765 N   0  0  0  0  0  0  0  0  0  0  0  0
   54.4101   -0.1350    8.8458 C   0  0  0  0  0  0  0  0  0  0  0  0
   54.7060   -1.2580    7.9533 C   0  0  0  0  0  0  0  0  0  0  0  0
   54.1612   -1.4571    6.7339 N   0  0  0  0  0  0  0  0  0  0  0  0
   55.1575   -0.3702    9.9360 N   0  0  0  0  0  0  0  0  0  0  0  0
   55.8708   -1.5123    9.7321 C   0  0  0  0  0  0  0  0  0  0  0  0
   55.6038   -2.0559    8.5204 N   0  0  0  0  0  0  0  0  0  0  0  0
   56.2049   -3.3028    7.9733 C   0  0  1  0  0  0  0  0  0  0  0  0
   56.7385   -4.1431    9.1132 C   0  0  1  0  0  0  0  0  0  0  0  0
   56.4065   -5.5550    8.7052 C   0  0  2  0  0  0  0  0  0  0  0  0
   57.4964   -6.1148    7.9616 O   0  0  0  0  0  0  0  0  0  0  0  0
   58.1501   -3.9427    9.2862 O   0  0  0  0  0  0  0  0  0  0  0  0
   55.2058   -4.0943    7.3353 O   0  0  0  0  0  0  0  0  0  0  0  0
   55.2166   -5.4261    7.7900 C   0  0  2  0  0  0  0  0  0  0  0  0
   53.8611   -5.6624    8.4234 C   0  0  0  0  0  0  0  0  0  0  0  0
   53.5097   -7.0308    8.4104 O   0  0  0  0  0  0  0  0  0  0  0  0
   54.0088   -7.9587    9.6114 P   0  0  0  0  0  0  0  0  0  0  0  0
   53.0937   -9.1664    9.5808 O   0  0  0  0  0  0  0  0  0  0  0  0
   53.8322   -7.0557   10.8048 O   0  0  0  0  0  0  0  0  0  0  0  0
   55.4566   -8.2001    9.2855 O   0  0  0  0  0  0  0  0  0  0  0  0
  2  1  2  0  0  0  0
  2  4  1  0  0  0  0
  3  2  1  0  0  0  0
  4  7  1  0  0  0  0
  4  5  2  0  0  0  0
  5  6  1  0  0  0  0
  5  9  1  0  0  0  0
  7  8  2  0  0  0  0
  8  9  1  0  0  0  0
 10  9  1  1  0  0  0
 10 15  1  0  0  0  0
 11 14  1  6  0  0  0
 11 12  1  0  0  0  0
 11 10  1  0  0  0  0
 12 13  1  6  0  0  0
 12 16  1  0  0  0  0
 16 17  1  1  0  0  0
 16 15  1  0  0  0  0
 18 19  1  0  0  0  0
 18 17  1  0  0  0  0
 19 21  1  0  0  0  0
 20 19  1  0  0  0  0
 22 19  2  0  0  0  0
M  END
>  <CHROM.1>
178.92026971,-158.33982127,-87.02020270,160.21794879,86.39073213,54.89326201
-4.03510409,8.76095761,1.61024149,0.08472350,-0.09671632

>  <Name>
lig.pdb

>  <RI>
0

>  <Rbt.Current_Directory>
/home/afrankz/demos/rdock_decoys_rna/rnas/4znp

>  <Rbt.Executable>
rbdock ($Id: //depot/dev/client3/rdock/2013.1/src/exe/rbdock.cxx#4 $)

>  <Rbt.Library>
libRbt.so (2013.1, Build901 2013/11/27)

>  <Rbt.Parameter_File>
/export/apps/rDock/src/rDock_2013.1_src/data/scripts/dock_solv.prm

>  <Rbt.Receptor>
prm/blind_docking_60.prm

>  <SCORE>
5.14932

>  <SCORE.INTER>
1.69494

>  <SCORE.INTER.CONST>
1

>  <SCORE.INTER.POLAR>
0

>  <SCORE.INTER.ROT>
5

>  <SCORE.INTER.SOLV>
16.8678

>  <SCORE.INTER.VDW>
-11.426

>  <SCORE.INTER.norm>
0.0770427

>  <SCORE.INTRA>
-1.43164

>  <SCORE.INTRA.DIHEDRAL>
-3.83987

>  <SCORE.INTRA.DIHEDRAL.0>
11.9251

>  <SCORE.INTRA.POLAR>
0

>  <SCORE.INTRA.POLAR.0>
0

>  <SCORE.INTRA.REPUL>
0

>  <SCORE.INTRA.REPUL.0>
0

>  <SCORE.INTRA.SOLV>
2.21839

>  <SCORE.INTRA.SOLV.lig_0>
-40.9823

>  <SCORE.INTRA.VDW>
-0.6209

>  <SCORE.INTRA.VDW.0>
-0.53506

>  <SCORE.INTRA.norm>
-0.0650745

>  <SCORE.RESTR>
4.88602

>  <SCORE.RESTR.CAVITY>
4.88602

>  <SCORE.RESTR.norm>
0.222092

>  <SCORE.SYSTEM>
0

>  <SCORE.SYSTEM.CONST>
0

>  <SCORE.SYSTEM.DIHEDRAL>
0

>  <SCORE.SYSTEM.SOLV>
0

>  <SCORE.SYSTEM.norm>
0

>  <SCORE.heavy>
22

>  <SCORE.norm>
0.23406

>  <RMSD>
12.533

$$$$
lig.pdb
 OpenBabel11021811523D
libRbt.so/2013.1/901 2013/11/27
 22 23  0  0  0  0  0  0  0  0999 V2000
   48.3317  -16.3029    4.9753 O   0  0  0  0  0  0  0  0  0  0  0  0
   48.3026  -17.2168    5.7655 C   0  0  0  0  0  0  0  0  0  0  0  0
   47.5280  -17.1942    6.8357 N   0  0  0  0  0  0  0  0  0  0  0  0
   49.1777  -18.3825    5.5774 C   0  0  0  0  0  0  0  0  0  0  0  0
   49.0933  -19.6286    6.3427 C   0  0  0  0  0  0  0  0  0  0  0  0
   48.2182  -19.8804    7.3398 N   0  0  0  0  0  0  0  0  0  0  0  0
   50.1955  -18.5835    4.7253 N   0  0  0  0  0  0  0  0  0  0  0  0
   50.6799  -19.8413    4.9205 C   0  0  0  0  0  0  0  0  0  0  0  0
   50.0068  -20.4867    5.9030 N   0  0  0  0  0  0  0  0  0  0  0  0
   50.2726  -21.8728    6.3757 C   0  0  1  0  0  0  0  0  0  0  0  0
   51.4657  -22.4346    5.6335 C   0  0  1  0  0  0  0  0  0  0  0  0
   52.2050  -23.2216    6.6844 C   0  0  2  0  0  0  0  0  0  0  0  0
   51.7418  -24.5779    6.6910 O   0  0  0  0  0  0  0  0  0  0  0  0
   51.0489  -23.2544    4.5305 O   0  0  0  0  0  0  0  0  0  0  0  0
   50.6355  -21.8636    7.7541 O   0  0  0  0  0  0  0  0  0  0  0  0
   51.8247  -22.5776    7.9923 C   0  0  2  0  0  0  0  0  0  0  0  0
   52.8108  -21.5727    8.5510 C   0  0  0  0  0  0  0  0  0  0  0  0
   53.2617  -21.9430    9.8377 O   0  0  0  0  0  0  0  0  0  0  0  0
   54.7197  -21.4800   10.2984 P   0  0  0  0  0  0  0  0  0  0  0  0
   54.6528  -21.4202   11.8113 O   0  0  0  0  0  0  0  0  0  0  0  0
   54.8601  -20.1450    9.6137 O   0  0  0  0  0  0  0  0  0  0  0  0
   55.6207  -22.5262    9.7032 O   0  0  0  0  0  0  0  0  0  0  0  0
  2  1  2  0  0  0  0
  2  4  1  0  0  0  0
  3  2  1  0  0  0  0
  4  7  1  0  0  0  0
  4  5  2  0  0  0  0
  5  6  1  0  0  0  0
  5  9  1  0  0  0  0
  7  8  2  0  0  0  0
  8  9  1  0  0  0  0
 10  9  1  6  0  0  0
 10 15  1  0  0  0  0
 11 14  1  6  0  0  0
 11 12  1  0  0  0  0
 11 10  1  0  0  0  0
 12 13  1  1  0  0  0
 12 16  1  0  0  0  0
 16 17  1  6  0  0  0
 16 15  1  0  0  0  0
 18 19  1  0  0  0  0
 18 17  1  0  0  0  0
 19 21  1  0  0  0  0
 20 19  1  0  0  0  0
 22 19  2  0  0  0  0
M  END
>  <CHROM.1>
-170.34652830,-176.57638605,-121.45432265,153.74788593,151.31664595,51.49658349
-20.84392343,7.41746143,-2.99147176,0.77338245,-2.65856785

>  <Name>
lig.pdb

>  <RI>
0

>  <Rbt.Current_Directory>
/home/afrankz/demos/rdock_decoys_rna/rnas/4znp

>  <Rbt.Executable>
rbdock ($Id: //depot/dev/client3/rdock/2013.1/src/exe/rbdock.cxx#4 $)

>  <Rbt.Library>
libRbt.so (2013.1, Build901 2013/11/27)

>  <Rbt.Parameter_File>
/export/apps/rDock/src/rDock_2013.1_src/data/scripts/dock_solv.prm

>  <Rbt.Receptor>
prm/blind_docking_60.prm

>  <SCORE>
3.93232

>  <SCORE.INTER>
-4.03298

>  <SCORE.INTER.CONST>
1

>  <SCORE.INTER.POLAR>
0

>  <SCORE.INTER.ROT>
5

>  <SCORE.INTER.SOLV>
16.2246

>  <SCORE.INTER.VDW>
-15.0302

>  <SCORE.INTER.norm>
-0.183317

>  <SCORE.INTRA>
0.510882

>  <SCORE.INTRA.DIHEDRAL>
0.392086

>  <SCORE.INTRA.DIHEDRAL.0>
11.9251

>  <SCORE.INTRA.POLAR>
0

>  <SCORE.INTRA.POLAR.0>
0

>  <SCORE.INTRA.REPUL>
0

>  <SCORE.INTRA.REPUL.0>
0

>  <SCORE.INTRA.SOLV>
0.100157

>  <SCORE.INTRA.SOLV.lig_0>
-40.9823

>  <SCORE.INTRA.VDW>
0.264761

>  <SCORE.INTRA.VDW.0>
-0.53506

>  <SCORE.INTRA.norm>
0.0232219

>  <SCORE.RESTR>
7.45442

>  <SCORE.RESTR.CAVITY>
7.45442

>  <SCORE.RESTR.norm>
0.338837

>  <SCORE.SYSTEM>
0

>  <SCORE.SYSTEM.CONST>
0

>  <SCORE.SYSTEM.DIHEDRAL>
0

>  <SCORE.SYSTEM.SOLV>
0

>  <SCORE.SYSTEM.norm>
0

>  <SCORE.heavy>
22

>  <SCORE.norm>
0.178742

>  <RMSD>
12.607

$$$$
lig.pdb
 OpenBabel11021811523D
libRbt.so/2013.1/901 2013/11/27
 22 23  0  0  0  0  0  0  0  0999 V2000
   67.8989  -15.8264    4.5978 O   0  0  0  0  0  0  0  0  0  0  0  0
   66.9163  -15.8675    3.8955 C   0  0  0  0  0  0  0  0  0  0  0  0
   66.2935  -14.7729    3.4959 N   0  0  0  0  0  0  0  0  0  0  0  0
   66.3501  -17.1633    3.4945 C   0  0  0  0  0  0  0  0  0  0  0  0
   65.1462  -17.3376    2.6788 C   0  0  0  0  0  0  0  0  0  0  0  0
   64.3737  -16.3412    2.1951 N   0  0  0  0  0  0  0  0  0  0  0  0
   66.7599  -18.4149    3.7550 N   0  0  0  0  0  0  0  0  0  0  0  0
   65.9115  -19.2839    3.1388 C   0  0  0  0  0  0  0  0  0  0  0  0
   64.9272  -18.6317    2.4749 N   0  0  0  0  0  0  0  0  0  0  0  0
   63.8316  -19.2696    1.6950 C   0  0  1  0  0  0  0  0  0  0  0  0
   64.4266  -20.2380    0.6959 C   0  0  1  0  0  0  0  0  0  0  0  0
   63.4674  -21.3999    0.7060 C   0  0  2  0  0  0  0  0  0  0  0  0
   62.4563  -21.2038   -0.2906 O   0  0  0  0  0  0  0  0  0  0  0  0
   64.5403  -19.6356   -0.6029 O   0  0  0  0  0  0  0  0  0  0  0  0
   63.0035  -20.0498    2.5537 O   0  0  0  0  0  0  0  0  0  0  0  0
   62.8176  -21.3563    2.0646 C   0  0  2  0  0  0  0  0  0  0  0  0
   63.4019  -22.2816    3.1120 C   0  0  0  0  0  0  0  0  0  0  0  0
   62.6021  -22.3245    4.2758 O   0  0  0  0  0  0  0  0  0  0  0  0
   63.0972  -23.2097    5.5103 P   0  0  0  0  0  0  0  0  0  0  0  0
   64.4567  -22.6485    5.8756 O   0  0  0  0  0  0  0  0  0  0  0  0
   63.1180  -24.5956    4.9190 O   0  0  0  0  0  0  0  0  0  0  0  0
   62.0004  -23.0363    6.5241 O   0  0  0  0  0  0  0  0  0  0  0  0
  2  1  2  0  0  0  0
  2  4  1  0  0  0  0
  3  2  1  0  0  0  0
  4  7  1  0  0  0  0
  4  5  2  0  0  0  0
  5  6  1  0  0  0  0
  5  9  1  0  0  0  0
  7  8  2  0  0  0  0
  8  9  1  0  0  0  0
 10  9  1  1  0  0  0
 10 15  1  0  0  0  0
 11 14  1  6  0  0  0
 11 12  1  0  0  0  0
 11 10  1  0  0  0  0
 12 13  1  6  0  0  0
 12 16  1  0  0  0  0
 16 17  1  1  0  0  0
 16 15  1  0  0  0  0
 18 19  1  0  0  0  0
 18 17  1  0  0  0  0
 19 21  1  0  0  0  0
 20 19  1  0  0  0  0
 22 19  2  0  0  0  0
M  END
>  <CHROM.1>
178.27692000,127.89629480,-170.69632037,58.42054706,-177.70478054,64.31745901
-20.05810434,3.19829879,-0.60097328,1.00467753,2.01716547

>  <Name>
lig.pdb

>  <RI>
0

>  <Rbt.Current_Directory>
/home/itssahil/PROJECTS/Mol_Feturizer/New_Systems/rnas/4znp

>  <Rbt.Executable>
rbdock ($Id: //depot/dev/client3/rdock/2013.1/src/exe/rbdock.cxx#4 $)

>  <Rbt.Library>
libRbt.so (2013.1, Build901 2013/11/27)

>  <Rbt.Parameter_File>
/export/apps/rDock/src/rDock_2013.1_src/data/scripts/dock_solv.prm

>  <Rbt.Receptor>
prm/blind_docking_100.prm

>  <SCORE>
-17.3612

>  <SCORE.INTER>
-11.4414

>  <SCORE.INTER.CONST>
1

>  <SCORE.INTER.POLAR>
0

>  <SCORE.INTER.ROT>
5

>  <SCORE.INTER.SOLV>
22.0121

>  <SCORE.INTER.VDW>
-21.8983

>  <SCORE.INTER.norm>
-0.520062

>  <SCORE.INTRA>
-5.92044

>  <SCORE.INTRA.DIHEDRAL>
-9.16528

>  <SCORE.INTRA.DIHEDRAL.0>
11.9251

>  <SCORE.INTRA.POLAR>
0

>  <SCORE.INTRA.POLAR.0>
0

>  <SCORE.INTRA.REPUL>
0

>  <SCORE.INTRA.REPUL.0>
0

>  <SCORE.INTRA.SOLV>
-0.209664

>  <SCORE.INTRA.SOLV.lig_0>
-40.9823

>  <SCORE.INTRA.VDW>
-1.23296

>  <SCORE.INTRA.VDW.0>
-0.53506

>  <SCORE.INTRA.norm>
-0.269111

>  <SCORE.RESTR>
0.000648468

>  <SCORE.RESTR.CAVITY>
0.000648468

>  <SCORE.RESTR.norm>
2.94758e-05

>  <SCORE.SYSTEM>
0

>  <SCORE.SYSTEM.CONST>
0

>  <SCORE.SYSTEM.DIHEDRAL>
0

>  <SCORE.SYSTEM.SOLV>
0

>  <SCORE.SYSTEM.norm>
0

>  <SCORE.heavy>
22

>  <SCORE.norm>
-0.789143

>  <RMSD>
12.611

$$$$
lig.pdb
 OpenBabel11021811523D
libRbt.so/2013.1/901 2013/11/27
 22 23  0  0  0  0  0  0  0  0999 V2000
   64.3143  -14.7725    3.0019 O   0  0  0  0  0  0  0  0  0  0  0  0
   63.1593  -14.9839    2.7161 C   0  0  0  0  0  0  0  0  0  0  0  0
   62.3286  -15.5829    3.5508 N   0  0  0  0  0  0  0  0  0  0  0  0
   62.6481  -14.6125    1.3891 C   0  0  0  0  0  0  0  0  0  0  0  0
   63.4503  -14.0232    0.3145 C   0  0  0  0  0  0  0  0  0  0  0  0
   64.7635  -13.7184    0.3911 N   0  0  0  0  0  0  0  0  0  0  0  0
   61.4146  -14.7105    0.8682 N   0  0  0  0  0  0  0  0  0  0  0  0
   61.4500  -14.2537   -0.4143 C   0  0  0  0  0  0  0  0  0  0  0  0
   62.6920  -13.8381   -0.7602 N   0  0  0  0  0  0  0  0  0  0  0  0
   63.0875  -13.2811   -2.0825 C   0  0  1  0  0  0  0  0  0  0  0  0
   62.6422  -11.8375   -2.1710 C   0  0  1  0  0  0  0  0  0  0  0  0
   63.7745  -11.1555   -2.8943 C   0  0  2  0  0  0  0  0  0  0  0  0
   63.5309  -11.1756   -4.3065 O   0  0  0  0  0  0  0  0  0  0  0  0
   61.3966  -11.7233   -2.8766 O   0  0  0  0  0  0  0  0  0  0  0  0
   64.5074  -13.2630   -2.2063 O   0  0  0  0  0  0  0  0  0  0  0  0
   64.9872  -12.0010   -2.6039 C   0  0  2  0  0  0  0  0  0  0  0  0
   65.8801  -11.5201   -1.4788 C   0  0  0  0  0  0  0  0  0  0  0  0
   66.4193  -10.2426   -1.7495 O   0  0  0  0  0  0  0  0  0  0  0  0
   67.4150  -10.0809   -2.9884 P   0  0  0  0  0  0  0  0  0  0  0  0
   66.5174  -10.0204   -4.2081 O   0  0  0  0  0  0  0  0  0  0  0  0
   68.2604  -11.3236   -2.8806 O   0  0  0  0  0  0  0  0  0  0  0  0
   68.1855   -8.8336   -2.6545 O   0  0  0  0  0  0  0  0  0  0  0  0
  2  1  2  0  0  0  0
  2  4  1  0  0  0  0
  3  2  1  0  0  0  0
  4  7  1  0  0  0  0
  4  5  2  0  0  0  0
  5  6  1  0  0  0  0
  5  9  1  0  0  0  0
  7  8  2  0  0  0  0
  8  9  1  0  0  0  0
 10  9  1  1  0  0  0
 10 15  1  0  0  0  0
 11 14  1  6  0  0  0
 11 12  1  0  0  0  0
 11 10  1  0  0  0  0
 12 13  1  6  0  0  0
 12 16  1  0  0  0  0
 16 17  1  1  0  0  0
 16 15  1  0  0  0  0
 18 19  1  0  0  0  0
 18 17  1  0  0  0  0
 19 21  1  0  0  0  0
 20 19  1  0  0  0  0
 22 19  2  0  0  0  0
M  END
>  <CHROM.1>
2.17950259,-101.16016639,-61.38580459,79.15715569,-64.35259496,64.47623043
-12.36923894,-1.27795980,-2.18717311,-0.33380239,-1.03480484

>  <Name>
lig.pdb

>  <RI>
0

>  <Rbt.Current_Directory>
/home/itssahil/PROJECTS/Mol_Feturizer/New_Systems/rnas/4znp

>  <Rbt.Executable>
rbdock ($Id: //depot/dev/client3/rdock/2013.1/src/exe/rbdock.cxx#4 $)

>  <Rbt.Library>
libRbt.so (2013.1, Build901 2013/11/27)

>  <Rbt.Parameter_File>
/export/apps/rDock/src/rDock_2013.1_src/data/scripts/dock_solv.prm

>  <Rbt.Receptor>
prm/blind_docking_80.prm

>  <SCORE>
-14.6618

>  <SCORE.INTER>
-9.88337

>  <SCORE.INTER.CONST>
1

>  <SCORE.INTER.POLAR>
0

>  <SCORE.INTER.ROT>
5

>  <SCORE.INTER.SOLV>
18.12

>  <SCORE.INTER.VDW>
-19.5622

>  <SCORE.INTER.norm>
-0.449244

>  <SCORE.INTRA>
-4.77848

>  <SCORE.INTRA.DIHEDRAL>
-8.74514

>  <SCORE.INTRA.DIHEDRAL.0>
11.9251

>  <SCORE.INTRA.POLAR>
0

>  <SCORE.INTRA.POLAR.0>
0

>  <SCORE.INTRA.REPUL>
0

>  <SCORE.INTRA.REPUL.0>
0

>  <SCORE.INTRA.SOLV>
1.84555

>  <SCORE.INTRA.SOLV.lig_0>
-40.9823

>  <SCORE.INTRA.VDW>
-1.32868

>  <SCORE.INTRA.VDW.0>
-0.53506

>  <SCORE.INTRA.norm>
-0.217203

>  <SCORE.RESTR>
0

>  <SCORE.RESTR.CAVITY>
0

>  <SCORE.RESTR.norm>
0

>  <SCORE.SYSTEM>
0

>  <SCORE.SYSTEM.CONST>
0

>  <SCORE.SYSTEM.DIHEDRAL>
0

>  <SCORE.SYSTEM.SOLV>
0

>  <SCORE.SYSTEM.norm>
0

>  <SCORE.heavy>
22

>  <SCORE.norm>
-0.666448

>  <RMSD>
12.680

$$$$
lig.pdb
 OpenBabel11021811523D
libRbt.so/2013.1/901 2013/11/27
 22 23  0  0  0  0  0  0  0  0999 V2000
   62.5757  -10.3807   -4.3039 O   0  0  0  0  0  0  0  0  0  0  0  0
   62.5631  -11.1545   -3.3758 C   0  0  0  0  0  0  0  0  0  0  0  0
   61.5602  -11.9905   -3.1732 N   0  0  0  0  0  0  0  0  0  0  0  0
   63.6644  -11.1567   -2.4024 C   0  0  0  0  0  0  0  0  0  0  0  0
   63.8363  -12.1401   -1.3307 C   0  0  0  0  0  0  0  0  0  0  0  0
   63.0036  -13.1703   -1.0687 N   0  0  0  0  0  0  0  0  0  0  0  0
   64.7075  -10.3236   -2.2602 N   0  0  0  0  0  0  0  0  0  0  0  0
   65.4703  -10.7605   -1.2200 C   0  0  0  0  0  0  0  0  0  0  0  0
   64.9465  -11.8731   -0.6521 N   0  0  0  0  0  0  0  0  0  0  0  0
   65.5201  -12.6132    0.5049 C   0  0  1  0  0  0  0  0  0  0  0  0
   64.5107  -12.6401    1.6321 C   0  0  1  0  0  0  0  0  0  0  0  0
   64.6610  -14.0208    2.2165 C   0  0  2  0  0  0  0  0  0  0  0  0
   65.6334  -13.9994    3.2692 O   0  0  0  0  0  0  0  0  0  0  0  0
   64.7818  -11.6082    2.5934 O   0  0  0  0  0  0  0  0  0  0  0  0
   65.7539  -13.9747    0.1537 O   0  0  0  0  0  0  0  0  0  0  0  0
   65.1931  -14.8653    1.0880 C   0  0  2  0  0  0  0  0  0  0  0  0
   64.1685  -15.6800    0.3258 C   0  0  0  0  0  0  0  0  0  0  0  0
   64.7818  -16.6189   -0.5334 O   0  0  0  0  0  0  0  0  0  0  0  0
   65.5403  -17.8663    0.1156 P   0  0  0  0  0  0  0  0  0  0  0  0
   66.5487  -17.2593    1.0704 O   0  0  0  0  0  0  0  0  0  0  0  0
   66.1342  -18.5411   -1.0938 O   0  0  0  0  0  0  0  0  0  0  0  0
   64.4269  -18.6688    0.7298 O   0  0  0  0  0  0  0  0  0  0  0  0
  2  1  2  0  0  0  0
  2  4  1  0  0  0  0
  3  2  1  0  0  0  0
  4  7  1  0  0  0  0
  4  5  2  0  0  0  0
  5  6  1  0  0  0  0
  5  9  1  0  0  0  0
  7  8  2  0  0  0  0
  8  9  1  0  0  0  0
 10  9  1  6  0  0  0
 10 15  1  0  0  0  0
 11 14  1  1  0  0  0
 11 12  1  0  0  0  0
 11 10  1  0  0  0  0
 12 13  1  1  0  0  0
 12 16  1  0  0  0  0
 16 17  1  6  0  0  0
 16 15  1  0  0  0  0
 18 19  1  0  0  0  0
 18 17  1  0  0  0  0
 19 21  1  0  0  0  0
 20 19  1  0  0  0  0
 22 19  2  0  0  0  0
M  END
>  <CHROM.1>
-172.73864629,-58.65795404,-168.86688685,-55.19260801,69.75738868,64.63531932
-14.03034670,-0.27961598,2.36711996,-1.16935977,0.32459176

>  <Name>
lig.pdb

>  <RI>
0

>  <Rbt.Current_Directory>
/home/itssahil/PROJECTS/Mol_Feturizer/New_Systems/rnas/4znp

>  <Rbt.Executable>
rbdock ($Id: //depot/dev/client3/rdock/2013.1/src/exe/rbdock.cxx#4 $)

>  <Rbt.Library>
libRbt.so (2013.1, Build901 2013/11/27)

>  <Rbt.Parameter_File>
/export/apps/rDock/src/rDock_2013.1_src/data/scripts/dock_solv.prm

>  <Rbt.Receptor>
prm/blind_docking_80.prm

>  <SCORE>
-13.2541

>  <SCORE.INTER>
-8.60804

>  <SCORE.INTER.CONST>
1

>  <SCORE.INTER.POLAR>
0

>  <SCORE.INTER.ROT>
5

>  <SCORE.INTER.SOLV>
17.4791

>  <SCORE.INTER.VDW>
-18.4984

>  <SCORE.INTER.norm>
-0.391275

>  <SCORE.INTRA>
-4.64601

>  <SCORE.INTRA.DIHEDRAL>
-8.33624

>  <SCORE.INTRA.DIHEDRAL.0>
11.9251

>  <SCORE.INTRA.POLAR>
0

>  <SCORE.INTRA.POLAR.0>
0

>  <SCORE.INTRA.REPUL>
0

>  <SCORE.INTRA.REPUL.0>
0

>  <SCORE.INTRA.SOLV>
2.24309

>  <SCORE.INTRA.SOLV.lig_0>
-40.9823

>  <SCORE.INTRA.VDW>
-1.59944

>  <SCORE.INTRA.VDW.0>
-0.53506

>  <SCORE.INTRA.norm>
-0.211182

>  <SCORE.RESTR>
0

>  <SCORE.RESTR.CAVITY>
0

>  <SCORE.RESTR.norm>
0

>  <SCORE.SYSTEM>
0

>  <SCORE.SYSTEM.CONST>
0

>  <SCORE.SYSTEM.DIHEDRAL>
0

>  <SCORE.SYSTEM.SOLV>
0

>  <SCORE.SYSTEM.norm>
0

>  <SCORE.heavy>
22

>  <SCORE.norm>
-0.602457

>  <RMSD>
12.824

$$$$
lig.pdb
 OpenBabel11021811523D
libRbt.so/2013.1/901 2013/11/27
 22 23  0  0  0  0  0  0  0  0999 V2000
   68.9227  -16.8735    4.9640 O   0  0  0  0  0  0  0  0  0  0  0  0
   67.8981  -16.6522    4.3625 C   0  0  0  0  0  0  0  0  0  0  0  0
   67.4552  -15.4241    4.1596 N   0  0  0  0  0  0  0  0  0  0  0  0
   67.0776  -17.7670    3.8684 C   0  0  0  0  0  0  0  0  0  0  0  0
   65.9134  -17.6285    2.9905 C   0  0  0  0  0  0  0  0  0  0  0  0
   65.4142  -16.4632    2.5255 N   0  0  0  0  0  0  0  0  0  0  0  0
   67.1791  -19.0888    4.0807 N   0  0  0  0  0  0  0  0  0  0  0  0
   66.1925  -19.7153    3.3816 C   0  0  0  0  0  0  0  0  0  0  0  0
   65.4198  -18.8291    2.7088 N   0  0  0  0  0  0  0  0  0  0  0  0
   64.2543  -19.1676    1.8473 C   0  0  1  0  0  0  0  0  0  0  0  0
   64.7169  -20.0376    0.6987 C   0  0  1  0  0  0  0  0  0  0  0  0
   63.6001  -21.0351    0.5306 C   0  0  2  0  0  0  0  0  0  0  0  0
   62.6413  -20.5367   -0.4109 O   0  0  0  0  0  0  0  0  0  0  0  0
   64.9336  -19.2562   -0.4867 O   0  0  0  0  0  0  0  0  0  0  0  0
   63.3109  -19.9483    2.5769 O   0  0  0  0  0  0  0  0  0  0  0  0
   62.9452  -21.1180    1.8849 C   0  0  2  0  0  0  0  0  0  0  0  0
   63.3759  -22.2748    2.7628 C   0  0  0  0  0  0  0  0  0  0  0  0
   62.6724  -22.2910    3.9879 O   0  0  0  0  0  0  0  0  0  0  0  0
   63.0520  -23.4017    5.0718 P   0  0  0  0  0  0  0  0  0  0  0  0
   62.7922  -24.7268    4.3836 O   0  0  0  0  0  0  0  0  0  0  0  0
   62.1112  -23.0761    6.2030 O   0  0  0  0  0  0  0  0  0  0  0  0
   64.4828  -23.0845    5.4079 O   0  0  0  0  0  0  0  0  0  0  0  0
  2  1  2  0  0  0  0
  2  4  1  0  0  0  0
  3  2  1  0  0  0  0
  4  7  1  0  0  0  0
  4  5  2  0  0  0  0
  5  6  1  0  0  0  0
  5  9  1  0  0  0  0
  7  8  2  0  0  0  0
  8  9  1  0  0  0  0
 10  9  1  1  0  0  0
 10 15  1  0  0  0  0
 11 14  1  6  0  0  0
 11 12  1  0  0  0  0
 11 10  1  0  0  0  0
 12 13  1  6  0  0  0
 12 16  1  0  0  0  0
 16 17  1  1  0  0  0
 16 15  1  0  0  0  0
 18 19  1  0  0  0  0
 18 17  1  0  0  0  0
 19 21  1  0  0  0  0
 20 19  1  0  0  0  0
 22 19  2  0  0  0  0
M  END
>  <CHROM.1>
-172.02494860,119.25910110,-177.91908788,-60.15941924,-176.91724025,64.67057613
-20.21089375,3.19240978,-0.51975873,0.85580851,2.09575791

>  <Name>
lig.pdb

>  <RI>
0

>  <Rbt.Current_Directory>
/home/itssahil/PROJECTS/Mol_Feturizer/New_Systems/rnas/4znp

>  <Rbt.Executable>
rbdock ($Id: //depot/dev/client3/rdock/2013.1/src/exe/rbdock.cxx#4 $)

>  <Rbt.Library>
libRbt.so (2013.1, Build901 2013/11/27)

>  <Rbt.Parameter_File>
/export/apps/rDock/src/rDock_2013.1_src/data/scripts/dock_solv.prm

>  <Rbt.Receptor>
prm/blind_docking_100.prm

>  <SCORE>
-17.5385

>  <SCORE.INTER>
-11.5547

>  <SCORE.INTER.CONST>
1

>  <SCORE.INTER.POLAR>
0

>  <SCORE.INTER.ROT>
5

>  <SCORE.INTER.SOLV>
20.5254

>  <SCORE.INTER.VDW>
-21.4783

>  <SCORE.INTER.norm>
-0.525212

>  <SCORE.INTRA>
-5.98379

>  <SCORE.INTRA.DIHEDRAL>
-9.17066

>  <SCORE.INTRA.DIHEDRAL.0>
11.9251

>  <SCORE.INTRA.POLAR>
0

>  <SCORE.INTRA.POLAR.0>
0

>  <SCORE.INTRA.REPUL>
0

>  <SCORE.INTRA.REPUL.0>
0

>  <SCORE.INTRA.SOLV>
0.136991

>  <SCORE.INTRA.SOLV.lig_0>
-40.9823

>  <SCORE.INTRA.VDW>
-1.46695

>  <SCORE.INTRA.VDW.0>
-0.53506

>  <SCORE.INTRA.norm>
-0.27199

>  <SCORE.RESTR>
0

>  <SCORE.RESTR.CAVITY>
0

>  <SCORE.RESTR.norm>
0

>  <SCORE.SYSTEM>
0

>  <SCORE.SYSTEM.CONST>
0

>  <SCORE.SYSTEM.DIHEDRAL>
0

>  <SCORE.SYSTEM.SOLV>
0

>  <SCORE.SYSTEM.norm>
0

>  <SCORE.heavy>
22

>  <SCORE.norm>
-0.797203

>  <RMSD>
12.852

$$$$
lig.pdb
 OpenBabel11021811523D
libRbt.so/2013.1/901 2013/11/27
 22 23  0  0  0  0  0  0  0  0999 V2000
   65.8043   -9.1650   -4.4737 O   0  0  0  0  0  0  0  0  0  0  0  0
   64.7088   -9.6065   -4.2178 C   0  0  0  0  0  0  0  0  0  0  0  0
   63.6710   -9.4114   -5.0118 N   0  0  0  0  0  0  0  0  0  0  0  0
   64.4866  -10.3503   -2.9697 C   0  0  0  0  0  0  0  0  0  0  0  0
   65.5034  -10.5923   -1.9436 C   0  0  0  0  0  0  0  0  0  0  0  0
   66.7903  -10.1876   -2.0020 N   0  0  0  0  0  0  0  0  0  0  0  0
   63.3837  -10.9494   -2.4933 N   0  0  0  0  0  0  0  0  0  0  0  0
   63.6760  -11.4876   -1.2769 C   0  0  0  0  0  0  0  0  0  0  0  0
   64.9677  -11.2676   -0.9331 N   0  0  0  0  0  0  0  0  0  0  0  0
   65.6228  -11.7169    0.3256 C   0  0  1  0  0  0  0  0  0  0  0  0
   64.8352  -11.2025    1.5110 C   0  0  1  0  0  0  0  0  0  0  0  0
   64.8840  -12.3411    2.4967 C   0  0  2  0  0  0  0  0  0  0  0  0
   66.0196  -12.1898    3.3578 O   0  0  0  0  0  0  0  0  0  0  0  0
   65.4190  -10.0003    2.0368 O   0  0  0  0  0  0  0  0  0  0  0  0
   65.5904  -13.1389    0.4190 O   0  0  0  0  0  0  0  0  0  0  0  0
   65.0800  -13.5758    1.6557 C   0  0  2  0  0  0  0  0  0  0  0  0
   63.8295  -14.3682    1.3351 C   0  0  0  0  0  0  0  0  0  0  0  0
   64.1366  -15.6821    0.9162 O   0  0  0  0  0  0  0  0  0  0  0  0
   64.6089  -16.7427    2.0138 P   0  0  0  0  0  0  0  0  0  0  0  0
   65.8891  -16.1698    2.5879 O   0  0  0  0  0  0  0  0  0  0  0  0
   64.7831  -17.9937    1.1920 O   0  0  0  0  0  0  0  0  0  0  0  0
   63.4306  -16.8282    2.9439 O   0  0  0  0  0  0  0  0  0  0  0  0
  2  1  2  0  0  0  0
  2  4  1  0  0  0  0
  3  2  1  0  0  0  0
  4  7  1  0  0  0  0
  4  5  2  0  0  0  0
  5  6  1  0  0  0  0
  5  9  1  0  0  0  0
  7  8  2  0  0  0  0
  8  9  1  0  0  0  0
 10  9  1  6  0  0  0
 10 15  1  0  0  0  0
 11 14  1  1  0  0  0
 11 12  1  0  0  0  0
 11 10  1  0  0  0  0
 12 13  1  1  0  0  0
 12 16  1  0  0  0  0
 16 17  1  6  0  0  0
 16 15  1  0  0  0  0
 18 19  1  0  0  0  0
 18 17  1  0  0  0  0
 19 21  1  0  0  0  0
 20 19  1  0  0  0  0
 22 19  2  0  0  0  0
M  END
>  <CHROM.1>
1.60053014,125.30586095,-161.90803174,-61.56203202,74.44106320,64.86867158
-12.83272497,0.09153769,1.48138910,-1.25178600,-0.79026748

>  <Name>
lig.pdb

>  <RI>
0

>  <Rbt.Current_Directory>
/home/itssahil/PROJECTS/Mol_Feturizer/New_Systems/rnas/4znp

>  <Rbt.Executable>
rbdock ($Id: //depot/dev/client3/rdock/2013.1/src/exe/rbdock.cxx#4 $)

>  <Rbt.Library>
libRbt.so (2013.1, Build901 2013/11/27)

>  <Rbt.Parameter_File>
/export/apps/rDock/src/rDock_2013.1_src/data/scripts/dock_solv.prm

>  <Rbt.Receptor>
prm/blind_docking_100.prm

>  <SCORE>
-13.6003

>  <SCORE.INTER>
-8.81103

>  <SCORE.INTER.CONST>
1

>  <SCORE.INTER.POLAR>
0

>  <SCORE.INTER.ROT>
5

>  <SCORE.INTER.SOLV>
20.1074

>  <SCORE.INTER.VDW>
-19.5098

>  <SCORE.INTER.norm>
-0.400502

>  <SCORE.INTRA>
-4.80421

>  <SCORE.INTRA.DIHEDRAL>
-7.40929

>  <SCORE.INTRA.DIHEDRAL.0>
11.9251

>  <SCORE.INTRA.POLAR>
0

>  <SCORE.INTRA.POLAR.0>
0

>  <SCORE.INTRA.REPUL>
0

>  <SCORE.INTRA.REPUL.0>
0

>  <SCORE.INTRA.SOLV>
0.577998

>  <SCORE.INTRA.SOLV.lig_0>
-40.9823

>  <SCORE.INTRA.VDW>
-1.38856

>  <SCORE.INTRA.VDW.0>
-0.53506

>  <SCORE.INTRA.norm>
-0.218373

>  <SCORE.RESTR>
0.0149378

>  <SCORE.RESTR.CAVITY>
0.0149378

>  <SCORE.RESTR.norm>
0.000678989

>  <SCORE.SYSTEM>
0

>  <SCORE.SYSTEM.CONST>
0

>  <SCORE.SYSTEM.DIHEDRAL>
0

>  <SCORE.SYSTEM.SOLV>
0

>  <SCORE.SYSTEM.norm>
0

>  <SCORE.heavy>
22

>  <SCORE.norm>
-0.618196

>  <RMSD>
12.870

$$$$
lig.pdb
 OpenBabel11021811523D
libRbt.so/2013.1/901 2013/11/27
 22 23  0  0  0  0  0  0  0  0999 V2000
   66.6015  -25.8157    6.9816 O   0  0  0  0  0  0  0  0  0  0  0  0
   65.4669  -26.1826    6.7851 C   0  0  0  0  0  0  0  0  0  0  0  0
   65.1253  -27.4582    6.8258 N   0  0  0  0  0  0  0  0  0  0  0  0
   64.4239  -25.2043    6.4455 C   0  0  0  0  0  0  0  0  0  0  0  0
   63.0139  -25.5260    6.2136 C   0  0  0  0  0  0  0  0  0  0  0  0
   62.4725  -26.7623    6.2578 N   0  0  0  0  0  0  0  0  0  0  0  0
   64.4944  -23.8745    6.2745 N   0  0  0  0  0  0  0  0  0  0  0  0
   63.2463  -23.4089    5.9916 C   0  0  0  0  0  0  0  0  0  0  0  0
   62.3367  -24.4121    5.9589 N   0  0  0  0  0  0  0  0  0  0  0  0
   60.8826  -24.2609    5.6791 C   0  0  1  0  0  0  0  0  0  0  0  0
   60.4340  -22.8771    6.0960 C   0  0  1  0  0  0  0  0  0  0  0  0
   59.4550  -22.4778    5.0224 C   0  0  2  0  0  0  0  0  0  0  0  0
   58.1306  -22.8736    5.4011 O   0  0  0  0  0  0  0  0  0  0  0  0
   59.8339  -22.8995    7.4006 O   0  0  0  0  0  0  0  0  0  0  0  0
   60.6375  -24.3484    4.2777 O   0  0  0  0  0  0  0  0  0  0  0  0
   59.8644  -23.2701    3.8081 C   0  0  2  0  0  0  0  0  0  0  0  0
   60.7301  -22.5432    2.7998 C   0  0  0  0  0  0  0  0  0  0  0  0
   62.0430  -22.3470    3.2835 O   0  0  0  0  0  0  0  0  0  0  0  0
   63.1131  -21.6473    2.3256 P   0  0  0  0  0  0  0  0  0  0  0  0
   63.1400  -22.5036    1.0754 O   0  0  0  0  0  0  0  0  0  0  0  0
   64.3671  -21.6981    3.1597 O   0  0  0  0  0  0  0  0  0  0  0  0
   62.5823  -20.2486    2.1747 O   0  0  0  0  0  0  0  0  0  0  0  0
  2  1  2  0  0  0  0
  2  4  1  0  0  0  0
  3  2  1  0  0  0  0
  4  7  1  0  0  0  0
  4  5  2  0  0  0  0
  5  6  1  0  0  0  0
  5  9  1  0  0  0  0
  7  8  2  0  0  0  0
  8  9  1  0  0  0  0
 10  9  1  6  0  0  0
 10 15  1  0  0  0  0
 11 14  1  1  0  0  0
 11 12  1  0  0  0  0
 11 10  1  0  0  0  0
 12 13  1  1  0  0  0
 12 16  1  0  0  0  0
 16 17  1  6  0  0  0
 16 15  1  0  0  0  0
 18 19  1  0  0  0  0
 18 17  1  0  0  0  0
 19 21  1  0  0  0  0
 20 19  1  0  0  0  0
 22 19  2  0  0  0  0
M  END
>  <CHROM.1>
-178.68154129,153.03409596,71.92201537,-56.50532049,177.53146502,62.39790932
-23.57704504,4.80317503,-0.99732047,0.21677734,-0.86998637

>  <Name>
lig.pdb

>  <RI>
0

>  <Rbt.Current_Directory>
/home/itssahil/PROJECTS/Mol_Feturizer/New_Systems/rnas/4znp

>  <Rbt.Executable>
rbdock ($Id: //depot/dev/client3/rdock/2013.1/src/exe/rbdock.cxx#4 $)

>  <Rbt.Library>
libRbt.so (2013.1, Build901 2013/11/27)

>  <Rbt.Parameter_File>
/export/apps/rDock/src/rDock_2013.1_src/data/scripts/dock_solv.prm

>  <Rbt.Receptor>
prm/blind_docking_100.prm

>  <SCORE>
-18.7751

>  <SCORE.INTER>
-13.0595

>  <SCORE.INTER.CONST>
1

>  <SCORE.INTER.POLAR>
0

>  <SCORE.INTER.ROT>
5

>  <SCORE.INTER.SOLV>
20.1944

>  <SCORE.INTER.VDW>
-22.3711

>  <SCORE.INTER.norm>
-0.593614

>  <SCORE.INTRA>
-5.71562

>  <SCORE.INTRA.DIHEDRAL>
-8.90443

>  <SCORE.INTRA.DIHEDRAL.0>
11.9251

>  <SCORE.INTRA.POLAR>
0

>  <SCORE.INTRA.POLAR.0>
0

>  <SCORE.INTRA.REPUL>
0

>  <SCORE.INTRA.REPUL.0>
0

>  <SCORE.INTRA.SOLV>
0.561231

>  <SCORE.INTRA.SOLV.lig_0>
-40.9823

>  <SCORE.INTRA.VDW>
-1.54401

>  <SCORE.INTRA.VDW.0>
-0.53506

>  <SCORE.INTRA.norm>
-0.259801

>  <SCORE.RESTR>
0

>  <SCORE.RESTR.CAVITY>
0

>  <SCORE.RESTR.norm>
0

>  <SCORE.SYSTEM>
0

>  <SCORE.SYSTEM.CONST>
0

>  <SCORE.SYSTEM.DIHEDRAL>
0

>  <SCORE.SYSTEM.SOLV>
0

>  <SCORE.SYSTEM.norm>
0

>  <SCORE.heavy>
22

>  <SCORE.norm>
-0.853414

>  <RMSD>
12.887

$$$$
lig.pdb
 OpenBabel11021811523D
libRbt.so/2013.1/901 2013/11/27
 22 23  0  0  0  0  0  0  0  0999 V2000
   68.8725  -18.2517    5.9784 O   0  0  0  0  0  0  0  0  0  0  0  0
   68.1399  -17.6929    5.1964 C   0  0  0  0  0  0  0  0  0  0  0  0
   68.0890  -16.3760    5.1013 N   0  0  0  0  0  0  0  0  0  0  0  0
   67.2355  -18.4771    4.3435 C   0  0  0  0  0  0  0  0  0  0  0  0
   66.3606  -17.9186    3.3101 C   0  0  0  0  0  0  0  0  0  0  0  0
   66.2424  -16.6086    3.0046 N   0  0  0  0  0  0  0  0  0  0  0  0
   67.0005  -19.7982    4.3004 N   0  0  0  0  0  0  0  0  0  0  0  0
   66.0898  -20.0428    3.3178 C   0  0  0  0  0  0  0  0  0  0  0  0
   65.6997  -18.8992    2.7053 N   0  0  0  0  0  0  0  0  0  0  0  0
   64.7178  -18.7989    1.5912 C   0  0  1  0  0  0  0  0  0  0  0  0
   65.0910  -19.7843    0.5049 C   0  0  1  0  0  0  0  0  0  0  0  0
   63.7632  -20.3117    0.0262 C   0  0  2  0  0  0  0  0  0  0  0  0
   63.2829  -19.5063   -1.0576 O   0  0  0  0  0  0  0  0  0  0  0  0
   65.8328  -19.1414   -0.5434 O   0  0  0  0  0  0  0  0  0  0  0  0
   63.4203  -19.1814    2.0403 O   0  0  0  0  0  0  0  0  0  0  0  0
   62.8322  -20.1440    1.1987 C   0  0  2  0  0  0  0  0  0  0  0  0
   62.6151  -21.3729    2.0574 C   0  0  0  0  0  0  0  0  0  0  0  0
   63.7347  -21.6429    2.8756 O   0  0  0  0  0  0  0  0  0  0  0  0
   63.6595  -22.8747    3.8904 P   0  0  0  0  0  0  0  0  0  0  0  0
   63.3283  -24.0752    3.0268 O   0  0  0  0  0  0  0  0  0  0  0  0
   62.5635  -22.4447    4.8309 O   0  0  0  0  0  0  0  0  0  0  0  0
   65.0124  -22.8674    4.5465 O   0  0  0  0  0  0  0  0  0  0  0  0
  2  1  2  0  0  0  0
  2  4  1  0  0  0  0
  3  2  1  0  0  0  0
  4  7  1  0  0  0  0
  4  5  2  0  0  0  0
  5  6  1  0  0  0  0
  5  9  1  0  0  0  0
  7  8  2  0  0  0  0
  8  9  1  0  0  0  0
 10  9  1  1  0  0  0
 10 15  1  0  0  0  0
 11 14  1  6  0  0  0
 11 12  1  0  0  0  0
 11 10  1  0  0  0  0
 12 13  1  6  0  0  0
 12 16  1  0  0  0  0
 16 17  1  1  0  0  0
 16 15  1  0  0  0  0
 18 19  1  0  0  0  0
 18 17  1  0  0  0  0
 19 21  1  0  0  0  0
 20 19  1  0  0  0  0
 22 19  2  0  0  0  0
M  END
>  <CHROM.1>
-176.37543873,130.38201882,74.51825060,55.90217447,177.72320680,65.02591033
-20.06847313,2.87426224,-0.16898020,0.81967301,2.23996091

>  <Name>
lig.pdb

>  <RI>
0

>  <Rbt.Current_Directory>
/home/itssahil/PROJECTS/Mol_Feturizer/New_Systems/rnas/4znp

>  <Rbt.Executable>
rbdock ($Id: //depot/dev/client3/rdock/2013.1/src/exe/rbdock.cxx#4 $)

>  <Rbt.Library>
libRbt.so (2013.1, Build901 2013/11/27)

>  <Rbt.Parameter_File>
/export/apps/rDock/src/rDock_2013.1_src/data/scripts/dock_solv.prm

>  <Rbt.Receptor>
prm/blind_docking_100.prm

>  <SCORE>
-14.5226

>  <SCORE.INTER>
-8.93512

>  <SCORE.INTER.CONST>
1

>  <SCORE.INTER.POLAR>
0

>  <SCORE.INTER.ROT>
5

>  <SCORE.INTER.SOLV>
24.1618

>  <SCORE.INTER.VDW>
-20.944

>  <SCORE.INTER.norm>
-0.406142

>  <SCORE.INTRA>
-5.7509

>  <SCORE.INTRA.DIHEDRAL>
-8.65709

>  <SCORE.INTRA.DIHEDRAL.0>
11.9251

>  <SCORE.INTRA.POLAR>
0

>  <SCORE.INTRA.POLAR.0>
0

>  <SCORE.INTRA.REPUL>
0

>  <SCORE.INTRA.REPUL.0>
0

>  <SCORE.INTRA.SOLV>
0.854225

>  <SCORE.INTRA.SOLV.lig_0>
-40.9823

>  <SCORE.INTRA.VDW>
-1.84946

>  <SCORE.INTRA.VDW.0>
-0.53506

>  <SCORE.INTRA.norm>
-0.261404

>  <SCORE.RESTR>
0.163413

>  <SCORE.RESTR.CAVITY>
0.163413

>  <SCORE.RESTR.norm>
0.00742787

>  <SCORE.SYSTEM>
0

>  <SCORE.SYSTEM.CONST>
0

>  <SCORE.SYSTEM.DIHEDRAL>
0

>  <SCORE.SYSTEM.SOLV>
0

>  <SCORE.SYSTEM.norm>
0

>  <SCORE.heavy>
22

>  <SCORE.norm>
-0.660118

>  <RMSD>
12.913

$$$$
lig.pdb
 OpenBabel11021811523D
libRbt.so/2013.1/901 2013/11/27
 22 23  0  0  0  0  0  0  0  0999 V2000
   69.2961  -17.7899    5.4889 O   0  0  0  0  0  0  0  0  0  0  0  0
   68.3981  -17.3322    4.8222 C   0  0  0  0  0  0  0  0  0  0  0  0
   68.2239  -16.0303    4.6792 N   0  0  0  0  0  0  0  0  0  0  0  0
   67.4295  -18.2284    4.1750 C   0  0  0  0  0  0  0  0  0  0  0  0
   66.3520  -17.7964    3.2818 C   0  0  0  0  0  0  0  0  0  0  0  0
   66.0798  -16.5189    2.9396 N   0  0  0  0  0  0  0  0  0  0  0  0
   67.2971  -19.5630    4.2351 N   0  0  0  0  0  0  0  0  0  0  0  0
   66.2574  -19.9302    3.4359 C   0  0  0  0  0  0  0  0  0  0  0  0
   65.6799  -18.8560    2.8462 N   0  0  0  0  0  0  0  0  0  0  0  0
   64.5206  -18.8927    1.9135 C   0  0  1  0  0  0  0  0  0  0  0  0
   64.9364  -19.5678    0.6245 C   0  0  1  0  0  0  0  0  0  0  0  0
   63.7307  -20.3869    0.2424 C   0  0  2  0  0  0  0  0  0  0  0  0
   62.8658  -19.6144   -0.5998 O   0  0  0  0  0  0  0  0  0  0  0  0
   65.2783  -18.5992   -0.3792 O   0  0  0  0  0  0  0  0  0  0  0  0
   63.4742  -19.6935    2.4572 O   0  0  0  0  0  0  0  0  0  0  0  0
   63.0181  -20.6600    1.5414 C   0  0  2  0  0  0  0  0  0  0  0  0
   63.2932  -22.0049    2.1816 C   0  0  0  0  0  0  0  0  0  0  0  0
   62.5424  -22.1836    3.3650 O   0  0  0  0  0  0  0  0  0  0  0  0
   62.8793  -23.4333    4.3017 P   0  0  0  0  0  0  0  0  0  0  0  0
   64.2837  -23.1759    4.8097 O   0  0  0  0  0  0  0  0  0  0  0  0
   62.7500  -24.5907    3.3454 O   0  0  0  0  0  0  0  0  0  0  0  0
   61.7765  -23.4089    5.3234 O   0  0  0  0  0  0  0  0  0  0  0  0
  2  1  2  0  0  0  0
  2  4  1  0  0  0  0
  3  2  1  0  0  0  0
  4  7  1  0  0  0  0
  4  5  2  0  0  0  0
  5  6  1  0  0  0  0
  5  9  1  0  0  0  0
  7  8  2  0  0  0  0
  8  9  1  0  0  0  0
 10  9  1  1  0  0  0
 10 15  1  0  0  0  0
 11 14  1  6  0  0  0
 11 12  1  0  0  0  0
 11 10  1  0  0  0  0
 12 13  1  6  0  0  0
 12 16  1  0  0  0  0
 16 17  1  1  0  0  0
 16 15  1  0  0  0  0
 18 19  1  0  0  0  0
 18 17  1  0  0  0  0
 19 21  1  0  0  0  0
 20 19  1  0  0  0  0
 22 19  2  0  0  0  0
M  END
>  <CHROM.1>
-176.14016738,113.15492454,-177.81418196,65.11987786,-170.05547060,64.82382431
-20.19914126,3.02642312,-0.42168204,0.76639940,2.21344953

>  <Name>
lig.pdb

>  <RI>
0

>  <Rbt.Current_Directory>
/home/itssahil/PROJECTS/Mol_Feturizer/New_Systems/rnas/4znp

>  <Rbt.Executable>
rbdock ($Id: //depot/dev/client3/rdock/2013.1/src/exe/rbdock.cxx#4 $)

>  <Rbt.Library>
libRbt.so (2013.1, Build901 2013/11/27)

>  <Rbt.Parameter_File>
/export/apps/rDock/src/rDock_2013.1_src/data/scripts/dock_solv.prm

>  <Rbt.Receptor>
prm/blind_docking_100.prm

>  <SCORE>
-18.0072

>  <SCORE.INTER>
-12.0632

>  <SCORE.INTER.CONST>
1

>  <SCORE.INTER.POLAR>
0

>  <SCORE.INTER.ROT>
5

>  <SCORE.INTER.SOLV>
20.0023

>  <SCORE.INTER.VDW>
-21.6429

>  <SCORE.INTER.norm>
-0.548327

>  <SCORE.INTRA>
-5.94401

>  <SCORE.INTRA.DIHEDRAL>
-8.88929

>  <SCORE.INTRA.DIHEDRAL.0>
11.9251

>  <SCORE.INTRA.POLAR>
0

>  <SCORE.INTRA.POLAR.0>
0

>  <SCORE.INTRA.REPUL>
0

>  <SCORE.INTRA.REPUL.0>
0

>  <SCORE.INTRA.SOLV>
-0.0785674

>  <SCORE.INTRA.SOLV.lig_0>
-40.9823

>  <SCORE.INTRA.VDW>
-1.46008

>  <SCORE.INTRA.VDW.0>
-0.53506

>  <SCORE.INTRA.norm>
-0.270182

>  <SCORE.RESTR>
0

>  <SCORE.RESTR.CAVITY>
0

>  <SCORE.RESTR.norm>
0

>  <SCORE.SYSTEM>
0

>  <SCORE.SYSTEM.CONST>
0

>  <SCORE.SYSTEM.DIHEDRAL>
0

>  <SCORE.SYSTEM.SOLV>
0

>  <SCORE.SYSTEM.norm>
0

>  <SCORE.heavy>
22

>  <SCORE.norm>
-0.818509

>  <RMSD>
12.974

$$$$
lig.pdb
 OpenBabel11021811523D
libRbt.so/2013.1/901 2013/11/27
 22 23  0  0  0  0  0  0  0  0999 V2000
   63.5366  -28.5969    6.9238 O   0  0  0  0  0  0  0  0  0  0  0  0
   63.4816  -27.5218    7.4730 C   0  0  0  0  0  0  0  0  0  0  0  0
   63.5751  -27.3989    8.7852 N   0  0  0  0  0  0  0  0  0  0  0  0
   63.2610  -26.3013    6.6843 C   0  0  0  0  0  0  0  0  0  0  0  0
   62.5867  -26.2511    5.3851 C   0  0  0  0  0  0  0  0  0  0  0  0
   62.0895  -27.3136    4.7163 N   0  0  0  0  0  0  0  0  0  0  0  0
   63.5963  -25.0257    6.9349 N   0  0  0  0  0  0  0  0  0  0  0  0
   63.1501  -24.2521    5.9067 C   0  0  0  0  0  0  0  0  0  0  0  0
   62.5273  -24.9942    4.9599 N   0  0  0  0  0  0  0  0  0  0  0  0
   61.9213  -24.4735    3.7040 C   0  0  1  0  0  0  0  0  0  0  0  0
   61.0726  -23.2618    4.0227 C   0  0  1  0  0  0  0  0  0  0  0  0
   61.3263  -22.3306    2.8656 C   0  0  2  0  0  0  0  0  0  0  0  0
   60.3616  -22.5659    1.8322 O   0  0  0  0  0  0  0  0  0  0  0  0
   59.6866  -23.6187    4.1421 O   0  0  0  0  0  0  0  0  0  0  0  0
   62.9392  -24.0182    2.8161 O   0  0  0  0  0  0  0  0  0  0  0  0
   62.6881  -22.7149    2.3482 C   0  0  2  0  0  0  0  0  0  0  0  0
   63.8471  -21.8672    2.8306 C   0  0  0  0  0  0  0  0  0  0  0  0
   64.4711  -21.1805    1.7652 O   0  0  0  0  0  0  0  0  0  0  0  0
   63.6658  -20.0090    1.0361 P   0  0  0  0  0  0  0  0  0  0  0  0
   64.6817  -19.3361    0.1349 O   0  0  0  0  0  0  0  0  0  0  0  0
   63.1954  -19.1751    2.1997 O   0  0  0  0  0  0  0  0  0  0  0  0
   62.5365  -20.7337    0.3576 O   0  0  0  0  0  0  0  0  0  0  0  0
  2  1  2  0  0  0  0
  2  4  1  0  0  0  0
  3  2  1  0  0  0  0
  4  7  1  0  0  0  0
  4  5  2  0  0  0  0
  5  6  1  0  0  0  0
  5  9  1  0  0  0  0
  7  8  2  0  0  0  0
  8  9  1  0  0  0  0
 10  9  1  1  0  0  0
 10 15  1  0  0  0  0
 11 14  1  6  0  0  0
 11 12  1  0  0  0  0
 11 10  1  0  0  0  0
 12 13  1  6  0  0  0
 12 16  1  0  0  0  0
 16 17  1  1  0  0  0
 16 15  1  0  0  0  0
 18 19  1  0  0  0  0
 18 17  1  0  0  0  0
 19 21  1  0  0  0  0
 20 19  1  0  0  0  0
 22 19  2  0  0  0  0
M  END
>  <CHROM.1>
25.53021881,133.55192180,-116.44940668,170.36834317,68.63052668,62.78496062
-23.46309466,3.72659975,-1.60518689,-0.27990894,-0.71364987

>  <Name>
lig.pdb

>  <RI>
0

>  <Rbt.Current_Directory>
/home/itssahil/PROJECTS/Mol_Feturizer/New_Systems/rnas/4znp

>  <Rbt.Executable>
rbdock ($Id: //depot/dev/client3/rdock/2013.1/src/exe/rbdock.cxx#4 $)

>  <Rbt.Library>
libRbt.so (2013.1, Build901 2013/11/27)

>  <Rbt.Parameter_File>
/export/apps/rDock/src/rDock_2013.1_src/data/scripts/dock_solv.prm

>  <Rbt.Receptor>
prm/blind_docking_100.prm

>  <SCORE>
-15.1064

>  <SCORE.INTER>
-13.9306

>  <SCORE.INTER.CONST>
1

>  <SCORE.INTER.POLAR>
0

>  <SCORE.INTER.ROT>
5

>  <SCORE.INTER.SOLV>
19.8135

>  <SCORE.INTER.VDW>
-22.8249

>  <SCORE.INTER.norm>
-0.633211

>  <SCORE.INTRA>
-1.17575

>  <SCORE.INTRA.DIHEDRAL>
-1.50885

>  <SCORE.INTRA.DIHEDRAL.0>
11.9251

>  <SCORE.INTRA.POLAR>
0

>  <SCORE.INTRA.POLAR.0>
0

>  <SCORE.INTRA.REPUL>
0

>  <SCORE.INTRA.REPUL.0>
0

>  <SCORE.INTRA.SOLV>
1.53405

>  <SCORE.INTRA.SOLV.lig_0>
-40.9823

>  <SCORE.INTRA.VDW>
-1.18836

>  <SCORE.INTRA.VDW.0>
-0.53506

>  <SCORE.INTRA.norm>
-0.0534434

>  <SCORE.RESTR>
0

>  <SCORE.RESTR.CAVITY>
0

>  <SCORE.RESTR.norm>
0

>  <SCORE.SYSTEM>
0

>  <SCORE.SYSTEM.CONST>
0

>  <SCORE.SYSTEM.DIHEDRAL>
0

>  <SCORE.SYSTEM.SOLV>
0

>  <SCORE.SYSTEM.norm>
0

>  <SCORE.heavy>
22

>  <SCORE.norm>
-0.686655

>  <RMSD>
13.164

$$$$
lig.pdb
 OpenBabel11021811523D
libRbt.so/2013.1/901 2013/11/27
 22 23  0  0  0  0  0  0  0  0999 V2000
   52.4013  -24.1270    5.9923 O   0  0  0  0  0  0  0  0  0  0  0  0
   52.3191  -23.6506    7.0999 C   0  0  0  0  0  0  0  0  0  0  0  0
   52.7276  -24.3007    8.1751 N   0  0  0  0  0  0  0  0  0  0  0  0
   51.7101  -22.3264    7.2898 C   0  0  0  0  0  0  0  0  0  0  0  0
   51.3331  -21.4124    6.2091 C   0  0  0  0  0  0  0  0  0  0  0  0
   51.5065  -21.6417    4.8898 N   0  0  0  0  0  0  0  0  0  0  0  0
   51.3734  -21.6716    8.4124 N   0  0  0  0  0  0  0  0  0  0  0  0
   50.8155  -20.4787    8.0654 C   0  0  0  0  0  0  0  0  0  0  0  0
   50.7827  -20.3172    6.7208 N   0  0  0  0  0  0  0  0  0  0  0  0
   50.2422  -19.1334    5.9985 C   0  0  1  0  0  0  0  0  0  0  0  0
   49.4598  -19.5989    4.7896 C   0  0  1  0  0  0  0  0  0  0  0  0
   48.2827  -18.6597    4.7397 C   0  0  2  0  0  0  0  0  0  0  0  0
   48.6019  -17.5235    3.9265 O   0  0  0  0  0  0  0  0  0  0  0  0
   50.2607  -19.5338    3.5993 O   0  0  0  0  0  0  0  0  0  0  0  0
   49.3134  -18.4335    6.8225 O   0  0  0  0  0  0  0  0  0  0  0  0
   48.0943  -18.1957    6.1606 C   0  0  2  0  0  0  0  0  0  0  0  0
   47.0346  -18.9219    6.9631 C   0  0  0  0  0  0  0  0  0  0  0  0
   45.8076  -18.2215    6.9628 O   0  0  0  0  0  0  0  0  0  0  0  0
   45.7313  -16.8146    7.7160 P   0  0  0  0  0  0  0  0  0  0  0  0
   46.1798  -17.1039    9.1345 O   0  0  0  0  0  0  0  0  0  0  0  0
   44.2755  -16.4544    7.5691 O   0  0  0  0  0  0  0  0  0  0  0  0
   46.6257  -15.9304    6.8920 O   0  0  0  0  0  0  0  0  0  0  0  0
  2  1  2  0  0  0  0
  2  4  1  0  0  0  0
  3  2  1  0  0  0  0
  4  7  1  0  0  0  0
  4  5  2  0  0  0  0
  5  6  1  0  0  0  0
  5  9  1  0  0  0  0
  7  8  2  0  0  0  0
  8  9  1  0  0  0  0
 10  9  1  1  0  0  0
 10 15  1  0  0  0  0
 11 14  1  6  0  0  0
 11 12  1  0  0  0  0
 11 10  1  0  0  0  0
 12 13  1  6  0  0  0
 12 16  1  0  0  0  0
 16 17  1  1  0  0  0
 16 15  1  0  0  0  0
 18 19  1  0  0  0  0
 18 17  1  0  0  0  0
 19 21  1  0  0  0  0
 20 19  1  0  0  0  0
 22 19  2  0  0  0  0
M  END
>  <CHROM.1>
-8.71446090,41.85288038,-96.78071806,-55.90492678,-67.23571240,49.01599353
-19.49143784,6.60534450,0.20919631,-0.74313108,1.96920060

>  <Name>
lig.pdb

>  <RI>
0

>  <Rbt.Current_Directory>
/home/afrankz/demos/rdock_decoys_rna/rnas/4znp

>  <Rbt.Executable>
rbdock ($Id: //depot/dev/client3/rdock/2013.1/src/exe/rbdock.cxx#4 $)

>  <Rbt.Library>
libRbt.so (2013.1, Build901 2013/11/27)

>  <Rbt.Parameter_File>
/export/apps/rDock/src/rDock_2013.1_src/data/scripts/dock_solv.prm

>  <Rbt.Receptor>
prm/blind_docking_60.prm

>  <SCORE>
2.62763

>  <SCORE.INTER>
0.979838

>  <SCORE.INTER.CONST>
1

>  <SCORE.INTER.POLAR>
0

>  <SCORE.INTER.ROT>
5

>  <SCORE.INTER.SOLV>
15.5857

>  <SCORE.INTER.VDW>
-11.4753

>  <SCORE.INTER.norm>
0.0445381

>  <SCORE.INTRA>
-2.5454

>  <SCORE.INTRA.DIHEDRAL>
-5.42298

>  <SCORE.INTRA.DIHEDRAL.0>
11.9251

>  <SCORE.INTRA.POLAR>
0

>  <SCORE.INTRA.POLAR.0>
0

>  <SCORE.INTRA.REPUL>
0

>  <SCORE.INTRA.REPUL.0>
0

>  <SCORE.INTRA.SOLV>
2.0399

>  <SCORE.INTRA.SOLV.lig_0>
-40.9823

>  <SCORE.INTRA.VDW>
-0.853854

>  <SCORE.INTRA.VDW.0>
-0.53506

>  <SCORE.INTRA.norm>
-0.1157

>  <SCORE.RESTR>
4.19319

>  <SCORE.RESTR.CAVITY>
4.19319

>  <SCORE.RESTR.norm>
0.1906

>  <SCORE.SYSTEM>
0

>  <SCORE.SYSTEM.CONST>
0

>  <SCORE.SYSTEM.DIHEDRAL>
0

>  <SCORE.SYSTEM.SOLV>
0

>  <SCORE.SYSTEM.norm>
0

>  <SCORE.heavy>
22

>  <SCORE.norm>
0.119438

>  <RMSD>
13.185

$$$$
lig.pdb
 OpenBabel11021811523D
libRbt.so/2013.1/901 2013/11/27
 22 23  0  0  0  0  0  0  0  0999 V2000
   52.5416  -23.0215    9.1321 O   0  0  0  0  0  0  0  0  0  0  0  0
   51.8135  -22.1555    9.5567 C   0  0  0  0  0  0  0  0  0  0  0  0
   51.5772  -22.0087   10.8484 N   0  0  0  0  0  0  0  0  0  0  0  0
   51.1224  -21.2513    8.6265 C   0  0  0  0  0  0  0  0  0  0  0  0
   51.1867  -21.3393    7.1659 C   0  0  0  0  0  0  0  0  0  0  0  0
   51.9010  -22.2452    6.4640 N   0  0  0  0  0  0  0  0  0  0  0  0
   50.3224  -20.1992    8.8618 N   0  0  0  0  0  0  0  0  0  0  0  0
   49.9059  -19.6977    7.6660 C   0  0  0  0  0  0  0  0  0  0  0  0
   50.4258  -20.3936    6.6266 N   0  0  0  0  0  0  0  0  0  0  0  0
   50.1811  -20.1181    5.1845 C   0  0  1  0  0  0  0  0  0  0  0  0
   48.7836  -20.5690    4.8189 C   0  0  1  0  0  0  0  0  0  0  0  0
   48.3003  -19.5059    3.8667 C   0  0  2  0  0  0  0  0  0  0  0  0
   48.6254  -19.8752    2.5206 O   0  0  0  0  0  0  0  0  0  0  0  0
   48.8021  -21.8729    4.2171 O   0  0  0  0  0  0  0  0  0  0  0  0
   50.2194  -18.7151    4.9361 O   0  0  0  0  0  0  0  0  0  0  0  0
   49.0856  -18.2724    4.2294 C   0  0  2  0  0  0  0  0  0  0  0  0
   48.3873  -17.2819    5.1381 C   0  0  0  0  0  0  0  0  0  0  0  0
   47.9036  -17.9011    6.3122 O   0  0  0  0  0  0  0  0  0  0  0  0
   46.6429  -17.2561    7.0519 P   0  0  0  0  0  0  0  0  0  0  0  0
   46.7601  -17.7079    8.4938 O   0  0  0  0  0  0  0  0  0  0  0  0
   45.4880  -17.8524    6.2894 O   0  0  0  0  0  0  0  0  0  0  0  0
   46.8023  -15.7840    6.7904 O   0  0  0  0  0  0  0  0  0  0  0  0
  2  1  2  0  0  0  0
  2  4  1  0  0  0  0
  3  2  1  0  0  0  0
  4  7  1  0  0  0  0
  4  5  2  0  0  0  0
  5  6  1  0  0  0  0
  5  9  1  0  0  0  0
  7  8  2  0  0  0  0
  8  9  1  0  0  0  0
 10  9  1  1  0  0  0
 10 15  1  0  0  0  0
 11 14  1  6  0  0  0
 11 12  1  0  0  0  0
 11 10  1  0  0  0  0
 12 13  1  6  0  0  0
 12 16  1  0  0  0  0
 16 17  1  1  0  0  0
 16 15  1  0  0  0  0
 18 19  1  0  0  0  0
 18 17  1  0  0  0  0
 19 21  1  0  0  0  0
 20 19  1  0  0  0  0
 22 19  2  0  0  0  0
M  END
>  <CHROM.1>
2.99668910,106.48300609,53.21356632,-155.33934684,-153.25077545,49.17509802
-19.58063336,6.56934592,0.32429664,-0.80682781,1.45280920

>  <Name>
lig.pdb

>  <RI>
0

>  <Rbt.Current_Directory>
/home/afrankz/demos/rdock_decoys_rna/rnas/4znp

>  <Rbt.Executable>
rbdock ($Id: //depot/dev/client3/rdock/2013.1/src/exe/rbdock.cxx#4 $)

>  <Rbt.Library>
libRbt.so (2013.1, Build901 2013/11/27)

>  <Rbt.Parameter_File>
/export/apps/rDock/src/rDock_2013.1_src/data/scripts/dock_solv.prm

>  <Rbt.Receptor>
prm/blind_docking_60.prm

>  <SCORE>
3.81256

>  <SCORE.INTER>
1.67611

>  <SCORE.INTER.CONST>
1

>  <SCORE.INTER.POLAR>
0

>  <SCORE.INTER.ROT>
5

>  <SCORE.INTER.SOLV>
14.7146

>  <SCORE.INTER.VDW>
-10.7208

>  <SCORE.INTER.norm>
0.0761867

>  <SCORE.INTRA>
-3.9405

>  <SCORE.INTRA.DIHEDRAL>
-5.40214

>  <SCORE.INTRA.DIHEDRAL.0>
11.9251

>  <SCORE.INTRA.POLAR>
0

>  <SCORE.INTRA.POLAR.0>
0

>  <SCORE.INTRA.REPUL>
0

>  <SCORE.INTRA.REPUL.0>
0

>  <SCORE.INTRA.SOLV>
0.778788

>  <SCORE.INTRA.SOLV.lig_0>
-40.9823

>  <SCORE.INTRA.VDW>
-1.62883

>  <SCORE.INTRA.VDW.0>
-0.53506

>  <SCORE.INTRA.norm>
-0.179114

>  <SCORE.RESTR>
6.07695

>  <SCORE.RESTR.CAVITY>
6.07695

>  <SCORE.RESTR.norm>
0.276225

>  <SCORE.SYSTEM>
0

>  <SCORE.SYSTEM.CONST>
0

>  <SCORE.SYSTEM.DIHEDRAL>
0

>  <SCORE.SYSTEM.SOLV>
0

>  <SCORE.SYSTEM.norm>
0

>  <SCORE.heavy>
22

>  <SCORE.norm>
0.173298

>  <RMSD>
13.215

$$$$
lig.pdb
 OpenBabel11021811523D
libRbt.so/2013.1/901 2013/11/27
 22 23  0  0  0  0  0  0  0  0999 V2000
   52.0125  -23.5689    7.6293 O   0  0  0  0  0  0  0  0  0  0  0  0
   51.7214  -22.8696    6.6876 C   0  0  0  0  0  0  0  0  0  0  0  0
   52.0377  -23.1963    5.4471 N   0  0  0  0  0  0  0  0  0  0  0  0
   51.0323  -21.5897    6.9048 C   0  0  0  0  0  0  0  0  0  0  0  0
   50.8039  -20.5733    5.8751 C   0  0  0  0  0  0  0  0  0  0  0  0
   51.2072  -20.6534    4.5890 N   0  0  0  0  0  0  0  0  0  0  0  0
   50.4829  -21.0694    8.0138 N   0  0  0  0  0  0  0  0  0  0  0  0
   49.9404  -19.8602    7.7003 C   0  0  0  0  0  0  0  0  0  0  0  0
   50.1280  -19.5544    6.3941 N   0  0  0  0  0  0  0  0  0  0  0  0
   49.6665  -18.3130    5.7149 C   0  0  1  0  0  0  0  0  0  0  0  0
   48.6607  -18.6732    4.6431 C   0  0  1  0  0  0  0  0  0  0  0  0
   47.6364  -17.5713    4.7263 C   0  0  2  0  0  0  0  0  0  0  0  0
   47.9968  -16.5050    3.8391 O   0  0  0  0  0  0  0  0  0  0  0  0
   49.2844  -18.7419    3.3513 O   0  0  0  0  0  0  0  0  0  0  0  0
   48.9755  -17.4734    6.6365 O   0  0  0  0  0  0  0  0  0  0  0  0
   47.7217  -17.0667    6.1433 C   0  0  2  0  0  0  0  0  0  0  0  0
   46.6937  -17.6186    7.1094 C   0  0  0  0  0  0  0  0  0  0  0  0
   45.3942  -17.1499    6.8135 O   0  0  0  0  0  0  0  0  0  0  0  0
   45.0653  -15.6057    7.0575 P   0  0  0  0  0  0  0  0  0  0  0  0
   46.2675  -14.8580    6.5167 O   0  0  0  0  0  0  0  0  0  0  0  0
   44.9003  -15.5489    8.5543 O   0  0  0  0  0  0  0  0  0  0  0  0
   43.7642  -15.4084    6.3303 O   0  0  0  0  0  0  0  0  0  0  0  0
  2  1  2  0  0  0  0
  2  4  1  0  0  0  0
  3  2  1  0  0  0  0
  4  7  1  0  0  0  0
  4  5  2  0  0  0  0
  5  6  1  0  0  0  0
  5  9  1  0  0  0  0
  7  8  2  0  0  0  0
  8  9  1  0  0  0  0
 10  9  1  1  0  0  0
 10 15  1  0  0  0  0
 11 14  1  6  0  0  0
 11 12  1  0  0  0  0
 11 10  1  0  0  0  0
 12 13  1  6  0  0  0
 12 16  1  0  0  0  0
 16 17  1  1  0  0  0
 16 15  1  0  0  0  0
 18 19  1  0  0  0  0
 18 17  1  0  0  0  0
 19 21  1  0  0  0  0
 20 19  1  0  0  0  0
 22 19  2  0  0  0  0
M  END
>  <CHROM.1>
170.59553125,63.90580746,-68.89481273,43.52891308,-69.05354221,48.40091372
-18.51828010,6.25727153,0.27056733,-0.76172205,2.01176588

>  <Name>
lig.pdb

>  <RI>
0

>  <Rbt.Current_Directory>
/home/afrankz/demos/rdock_decoys_rna/rnas/4znp

>  <Rbt.Executable>
rbdock ($Id: //depot/dev/client3/rdock/2013.1/src/exe/rbdock.cxx#4 $)

>  <Rbt.Library>
libRbt.so (2013.1, Build901 2013/11/27)

>  <Rbt.Parameter_File>
/export/apps/rDock/src/rDock_2013.1_src/data/scripts/dock_solv.prm

>  <Rbt.Receptor>
prm/blind_docking_60.prm

>  <SCORE>
1.87946

>  <SCORE.INTER>
2.31598

>  <SCORE.INTER.CONST>
1

>  <SCORE.INTER.POLAR>
0

>  <SCORE.INTER.ROT>
5

>  <SCORE.INTER.SOLV>
15.0235

>  <SCORE.INTER.VDW>
-10.3972

>  <SCORE.INTER.norm>
0.105272

>  <SCORE.INTRA>
-4.12724

>  <SCORE.INTRA.DIHEDRAL>
-8.20888

>  <SCORE.INTRA.DIHEDRAL.0>
11.9251

>  <SCORE.INTRA.POLAR>
0

>  <SCORE.INTRA.POLAR.0>
0

>  <SCORE.INTRA.REPUL>
0

>  <SCORE.INTRA.REPUL.0>
0

>  <SCORE.INTRA.SOLV>
1.31008

>  <SCORE.INTRA.SOLV.lig_0>
-40.9823

>  <SCORE.INTRA.VDW>
-0.677835

>  <SCORE.INTRA.VDW.0>
-0.53506

>  <SCORE.INTRA.norm>
-0.187602

>  <SCORE.RESTR>
3.69072

>  <SCORE.RESTR.CAVITY>
3.69072

>  <SCORE.RESTR.norm>
0.16776

>  <SCORE.SYSTEM>
0

>  <SCORE.SYSTEM.CONST>
0

>  <SCORE.SYSTEM.DIHEDRAL>
0

>  <SCORE.SYSTEM.SOLV>
0

>  <SCORE.SYSTEM.norm>
0

>  <SCORE.heavy>
22

>  <SCORE.norm>
0.0854301

>  <RMSD>
13.276

$$$$
lig.pdb
 OpenBabel11021811523D
libRbt.so/2013.1/901 2013/11/27
 22 23  0  0  0  0  0  0  0  0999 V2000
   68.7090  -10.7160   -3.7588 O   0  0  0  0  0  0  0  0  0  0  0  0
   67.9932   -9.9611   -3.1439 C   0  0  0  0  0  0  0  0  0  0  0  0
   68.3269   -8.7019   -2.9228 N   0  0  0  0  0  0  0  0  0  0  0  0
   66.7265  -10.4441   -2.5761 C   0  0  0  0  0  0  0  0  0  0  0  0
   66.2566  -11.8304   -2.6293 C   0  0  0  0  0  0  0  0  0  0  0  0
   66.9039  -12.8573   -3.2207 N   0  0  0  0  0  0  0  0  0  0  0  0
   65.7566   -9.7888   -1.9186 N   0  0  0  0  0  0  0  0  0  0  0  0
   64.7902  -10.6833   -1.5712 C   0  0  0  0  0  0  0  0  0  0  0  0
   65.0929  -11.9331   -1.9972 N   0  0  0  0  0  0  0  0  0  0  0  0
   64.2600  -13.1493   -1.7910 C   0  0  1  0  0  0  0  0  0  0  0  0
   65.1445  -14.2907   -1.3380 C   0  0  1  0  0  0  0  0  0  0  0  0
   64.3065  -15.0100   -0.3130 C   0  0  2  0  0  0  0  0  0  0  0  0
   63.5370  -16.0380   -0.9495 O   0  0  0  0  0  0  0  0  0  0  0  0
   65.5019  -15.1370   -2.4418 O   0  0  0  0  0  0  0  0  0  0  0  0
   63.3244  -12.9346   -0.7374 O   0  0  0  0  0  0  0  0  0  0  0  0
   63.3624  -13.9644    0.2212 C   0  0  2  0  0  0  0  0  0  0  0  0
   63.7659  -13.3070    1.5249 C   0  0  0  0  0  0  0  0  0  0  0  0
   65.0060  -12.6396    1.4116 O   0  0  0  0  0  0  0  0  0  0  0  0
   65.2432  -11.3172    2.2762 P   0  0  0  0  0  0  0  0  0  0  0  0
   63.8614  -10.7302    2.4830 O   0  0  0  0  0  0  0  0  0  0  0  0
   66.1502  -10.5118    1.3821 O   0  0  0  0  0  0  0  0  0  0  0  0
   65.9513  -11.8255    3.5013 O   0  0  0  0  0  0  0  0  0  0  0  0
  2  1  2  0  0  0  0
  2  4  1  0  0  0  0
  3  2  1  0  0  0  0
  4  7  1  0  0  0  0
  4  5  2  0  0  0  0
  5  6  1  0  0  0  0
  5  9  1  0  0  0  0
  7  8  2  0  0  0  0
  8  9  1  0  0  0  0
 10  9  1  1  0  0  0
 10 15  1  0  0  0  0
 11 14  1  6  0  0  0
 11 12  1  0  0  0  0
 11 10  1  0  0  0  0
 12 13  1  6  0  0  0
 12 16  1  0  0  0  0
 16 17  1  1  0  0  0
 16 15  1  0  0  0  0
 18 19  1  0  0  0  0
 18 17  1  0  0  0  0
 19 21  1  0  0  0  0
 20 19  1  0  0  0  0
 22 19  2  0  0  0  0
M  END
>  <CHROM.1>
3.29592987,45.84832449,60.33284020,-27.56293675,147.43001551,65.42100326
-12.15387470,-0.59798661,0.39962677,-0.96201458,-2.14419896

>  <Name>
lig.pdb

>  <RI>
0

>  <Rbt.Current_Directory>
/home/itssahil/PROJECTS/Mol_Feturizer/New_Systems/rnas/4znp

>  <Rbt.Executable>
rbdock ($Id: //depot/dev/client3/rdock/2013.1/src/exe/rbdock.cxx#4 $)

>  <Rbt.Library>
libRbt.so (2013.1, Build901 2013/11/27)

>  <Rbt.Parameter_File>
/export/apps/rDock/src/rDock_2013.1_src/data/scripts/dock_solv.prm

>  <Rbt.Receptor>
prm/blind_docking_80.prm

>  <SCORE>
-11.8285

>  <SCORE.INTER>
-8.72931

>  <SCORE.INTER.CONST>
1

>  <SCORE.INTER.POLAR>
0

>  <SCORE.INTER.ROT>
5

>  <SCORE.INTER.SOLV>
17.2612

>  <SCORE.INTER.VDW>
-18.5066

>  <SCORE.INTER.norm>
-0.396787

>  <SCORE.INTRA>
-3.12433

>  <SCORE.INTRA.DIHEDRAL>
-3.93648

>  <SCORE.INTRA.DIHEDRAL.0>
11.9251

>  <SCORE.INTRA.POLAR>
0

>  <SCORE.INTRA.POLAR.0>
0

>  <SCORE.INTRA.REPUL>
0

>  <SCORE.INTRA.REPUL.0>
0

>  <SCORE.INTRA.SOLV>
1.5749

>  <SCORE.INTRA.SOLV.lig_0>
-40.9823

>  <SCORE.INTRA.VDW>
-1.94354

>  <SCORE.INTRA.VDW.0>
-0.53506

>  <SCORE.INTRA.norm>
-0.142015

>  <SCORE.RESTR>
0.025103

>  <SCORE.RESTR.CAVITY>
0.025103

>  <SCORE.RESTR.norm>
0.00114105

>  <SCORE.SYSTEM>
0

>  <SCORE.SYSTEM.CONST>
0

>  <SCORE.SYSTEM.DIHEDRAL>
0

>  <SCORE.SYSTEM.SOLV>
0

>  <SCORE.SYSTEM.norm>
0

>  <SCORE.heavy>
22

>  <SCORE.norm>
-0.537661

>  <RMSD>
13.288

$$$$
lig.pdb
 OpenBabel11021811523D
libRbt.so/2013.1/901 2013/11/27
 22 23  0  0  0  0  0  0  0  0999 V2000
   64.1241  -23.0451    5.2983 O   0  0  0  0  0  0  0  0  0  0  0  0
   63.1717  -23.3192    5.9899 C   0  0  0  0  0  0  0  0  0  0  0  0
   62.3281  -22.3974    6.4191 N   0  0  0  0  0  0  0  0  0  0  0  0
   62.9457  -24.7072    6.4172 C   0  0  0  0  0  0  0  0  0  0  0  0
   62.0270  -25.1197    7.4808 C   0  0  0  0  0  0  0  0  0  0  0  0
   61.2728  -24.2899    8.2331 N   0  0  0  0  0  0  0  0  0  0  0  0
   63.4824  -25.8563    5.9767 N   0  0  0  0  0  0  0  0  0  0  0  0
   62.9318  -26.8863    6.6771 C   0  0  0  0  0  0  0  0  0  0  0  0
   62.0377  -26.4432    7.5932 N   0  0  0  0  0  0  0  0  0  0  0  0
   61.2532  -27.2953    8.5279 C   0  0  1  0  0  0  0  0  0  0  0  0
   61.5852  -26.9113    9.9536 C   0  0  1  0  0  0  0  0  0  0  0  0
   60.2618  -27.0028   10.6682 C   0  0  2  0  0  0  0  0  0  0  0  0
   60.0904  -28.3201   11.2062 O   0  0  0  0  0  0  0  0  0  0  0  0
   62.5689  -27.7965   10.5115 O   0  0  0  0  0  0  0  0  0  0  0  0
   59.8583  -27.0486    8.3688 O   0  0  0  0  0  0  0  0  0  0  0  0
   59.2252  -26.7826    9.5972 C   0  0  2  0  0  0  0  0  0  0  0  0
   58.6710  -25.3773    9.4861 C   0  0  0  0  0  0  0  0  0  0  0  0
   57.3574  -25.3733    8.9660 O   0  0  0  0  0  0  0  0  0  0  0  0
   56.6145  -23.9713    8.7790 P   0  0  0  0  0  0  0  0  0  0  0  0
   57.5289  -23.1587    7.8842 O   0  0  0  0  0  0  0  0  0  0  0  0
   56.5080  -23.4766   10.1984 O   0  0  0  0  0  0  0  0  0  0  0  0
   55.2795  -24.3592    8.2062 O   0  0  0  0  0  0  0  0  0  0  0  0
  2  1  2  0  0  0  0
  2  4  1  0  0  0  0
  3  2  1  0  0  0  0
  4  7  1  0  0  0  0
  4  5  2  0  0  0  0
  5  6  1  0  0  0  0
  5  9  1  0  0  0  0
  7  8  2  0  0  0  0
  8  9  1  0  0  0  0
 10  9  1  6  0  0  0
 10 15  1  0  0  0  0
 11 14  1  1  0  0  0
 11 12  1  0  0  0  0
 11 10  1  0  0  0  0
 12 13  1  6  0  0  0
 12 16  1  0  0  0  0
 16 17  1  6  0  0  0
 16 15  1  0  0  0  0
 18 19  1  0  0  0  0
 18 17  1  0  0  0  0
 19 21  1  0  0  0  0
 20 19  1  0  0  0  0
 22 19  2  0  0  0  0
M  END
>  <CHROM.1>
165.46854885,-59.48753267,-152.35304142,56.69139707,-179.97097586,60.19252717
-25.32355884,8.36198624,0.16523703,0.33486726,-0.66786073

>  <Name>
lig.pdb

>  <RI>
0

>  <Rbt.Current_Directory>
/home/itssahil/PROJECTS/Mol_Feturizer/New_Systems/rnas/4znp

>  <Rbt.Executable>
rbdock ($Id: //depot/dev/client3/rdock/2013.1/src/exe/rbdock.cxx#4 $)

>  <Rbt.Library>
libRbt.so (2013.1, Build901 2013/11/27)

>  <Rbt.Parameter_File>
/export/apps/rDock/src/rDock_2013.1_src/data/scripts/dock_solv.prm

>  <Rbt.Receptor>
prm/blind_docking_80.prm

>  <SCORE>
-12.3875

>  <SCORE.INTER>
-7.7856

>  <SCORE.INTER.CONST>
1

>  <SCORE.INTER.POLAR>
0

>  <SCORE.INTER.ROT>
5

>  <SCORE.INTER.SOLV>
21.0276

>  <SCORE.INTER.VDW>
-19.1329

>  <SCORE.INTER.norm>
-0.353891

>  <SCORE.INTRA>
-4.61267

>  <SCORE.INTRA.DIHEDRAL>
-6.58211

>  <SCORE.INTRA.DIHEDRAL.0>
11.9251

>  <SCORE.INTRA.POLAR>
0

>  <SCORE.INTRA.POLAR.0>
0

>  <SCORE.INTRA.REPUL>
0

>  <SCORE.INTRA.REPUL.0>
0

>  <SCORE.INTRA.SOLV>
1.03652

>  <SCORE.INTRA.SOLV.lig_0>
-40.9823

>  <SCORE.INTRA.VDW>
-1.83987

>  <SCORE.INTRA.VDW.0>
-0.53506

>  <SCORE.INTRA.norm>
-0.209667

>  <SCORE.RESTR>
0.0107803

>  <SCORE.RESTR.CAVITY>
0.0107803

>  <SCORE.RESTR.norm>
0.000490012

>  <SCORE.SYSTEM>
0

>  <SCORE.SYSTEM.CONST>
0

>  <SCORE.SYSTEM.DIHEDRAL>
0

>  <SCORE.SYSTEM.SOLV>
0

>  <SCORE.SYSTEM.norm>
0

>  <SCORE.heavy>
22

>  <SCORE.norm>
-0.563067

>  <RMSD>
13.308

$$$$
lig.pdb
 OpenBabel11021811523D
libRbt.so/2013.1/901 2013/11/27
 22 23  0  0  0  0  0  0  0  0999 V2000
   51.9989  -23.1142    7.5935 O   0  0  0  0  0  0  0  0  0  0  0  0
   51.6680  -22.1799    8.2849 C   0  0  0  0  0  0  0  0  0  0  0  0
   51.9786  -22.1116    9.5673 N   0  0  0  0  0  0  0  0  0  0  0  0
   50.8572  -21.0932    7.7174 C   0  0  0  0  0  0  0  0  0  0  0  0
   50.8039  -20.7384    6.2973 C   0  0  0  0  0  0  0  0  0  0  0  0
   51.5020  -21.3401    5.3104 N   0  0  0  0  0  0  0  0  0  0  0  0
   50.0274  -20.2200    8.3101 N   0  0  0  0  0  0  0  0  0  0  0  0
   49.4880  -19.4177    7.3508 C   0  0  0  0  0  0  0  0  0  0  0  0
   49.9539  -19.7335    6.1187 N   0  0  0  0  0  0  0  0  0  0  0  0
   49.5764  -19.0607    4.8458 C   0  0  1  0  0  0  0  0  0  0  0  0
   48.1709  -19.4693    4.4614 C   0  0  1  0  0  0  0  0  0  0  0  0
   47.5677  -18.2048    3.9069 C   0  0  2  0  0  0  0  0  0  0  0  0
   47.7903  -18.1399    2.4926 O   0  0  0  0  0  0  0  0  0  0  0  0
   48.1877  -20.5340    3.4976 O   0  0  0  0  0  0  0  0  0  0  0  0
   49.5396  -17.6472    5.0261 O   0  0  0  0  0  0  0  0  0  0  0  0
   48.3335  -17.0869    4.5656 C   0  0  2  0  0  0  0  0  0  0  0  0
   47.6782  -16.4537    5.7756 C   0  0  0  0  0  0  0  0  0  0  0  0
   46.4262  -15.8839    5.4533 O   0  0  0  0  0  0  0  0  0  0  0  0
   45.5743  -15.2023    6.6205 P   0  0  0  0  0  0  0  0  0  0  0  0
   44.2071  -14.9544    6.0152 O   0  0  0  0  0  0  0  0  0  0  0  0
   46.3754  -13.9604    6.9146 O   0  0  0  0  0  0  0  0  0  0  0  0
   45.6467  -16.2078    7.7360 O   0  0  0  0  0  0  0  0  0  0  0  0
  2  1  2  0  0  0  0
  2  4  1  0  0  0  0
  3  2  1  0  0  0  0
  4  7  1  0  0  0  0
  4  5  2  0  0  0  0
  5  6  1  0  0  0  0
  5  9  1  0  0  0  0
  7  8  2  0  0  0  0
  8  9  1  0  0  0  0
 10  9  1  1  0  0  0
 10 15  1  0  0  0  0
 11 14  1  6  0  0  0
 11 12  1  0  0  0  0
 11 10  1  0  0  0  0
 12 13  1  6  0  0  0
 12 16  1  0  0  0  0
 16 17  1  1  0  0  0
 16 15  1  0  0  0  0
 18 19  1  0  0  0  0
 18 17  1  0  0  0  0
 19 21  1  0  0  0  0
 20 19  1  0  0  0  0
 22 19  2  0  0  0  0
M  END
>  <CHROM.1>
-24.43012642,107.22207885,-60.30693413,-168.94412770,178.47467609,48.52258638
-18.47522030,6.07968084,0.03990577,-0.86678110,1.41891839

>  <Name>
lig.pdb

>  <RI>
0

>  <Rbt.Current_Directory>
/home/afrankz/demos/rdock_decoys_rna/rnas/4znp

>  <Rbt.Executable>
rbdock ($Id: //depot/dev/client3/rdock/2013.1/src/exe/rbdock.cxx#4 $)

>  <Rbt.Library>
libRbt.so (2013.1, Build901 2013/11/27)

>  <Rbt.Parameter_File>
/export/apps/rDock/src/rDock_2013.1_src/data/scripts/dock_solv.prm

>  <Rbt.Receptor>
prm/blind_docking_60.prm

>  <SCORE>
2.93802

>  <SCORE.INTER>
1.72091

>  <SCORE.INTER.CONST>
1

>  <SCORE.INTER.POLAR>
0

>  <SCORE.INTER.ROT>
5

>  <SCORE.INTER.SOLV>
13.9748

>  <SCORE.INTER.VDW>
-10.4443

>  <SCORE.INTER.norm>
0.078223

>  <SCORE.INTRA>
-4.95383

>  <SCORE.INTRA.DIHEDRAL>
-7.49653

>  <SCORE.INTRA.DIHEDRAL.0>
11.9251

>  <SCORE.INTRA.POLAR>
0

>  <SCORE.INTRA.POLAR.0>
0

>  <SCORE.INTRA.REPUL>
0

>  <SCORE.INTRA.REPUL.0>
0

>  <SCORE.INTRA.SOLV>
0.0058546

>  <SCORE.INTRA.SOLV.lig_0>
-40.9823

>  <SCORE.INTRA.VDW>
-1.20849

>  <SCORE.INTRA.VDW.0>
-0.53506

>  <SCORE.INTRA.norm>
-0.225174

>  <SCORE.RESTR>
6.17095

>  <SCORE.RESTR.CAVITY>
6.17095

>  <SCORE.RESTR.norm>
0.280498

>  <SCORE.SYSTEM>
0

>  <SCORE.SYSTEM.CONST>
0

>  <SCORE.SYSTEM.DIHEDRAL>
0

>  <SCORE.SYSTEM.SOLV>
0

>  <SCORE.SYSTEM.norm>
0

>  <SCORE.heavy>
22

>  <SCORE.norm>
0.133546

>  <RMSD>
13.312

$$$$
lig.pdb
 OpenBabel11021811523D
libRbt.so/2013.1/901 2013/11/27
 22 23  0  0  0  0  0  0  0  0999 V2000
   63.9432  -28.9580    6.6574 O   0  0  0  0  0  0  0  0  0  0  0  0
   64.5445  -27.9280    6.8525 C   0  0  0  0  0  0  0  0  0  0  0  0
   65.6095  -27.8746    7.6326 N   0  0  0  0  0  0  0  0  0  0  0  0
   64.0723  -26.6730    6.2506 C   0  0  0  0  0  0  0  0  0  0  0  0
   63.0013  -26.5688    5.2569 C   0  0  0  0  0  0  0  0  0  0  0  0
   62.3087  -27.6046    4.7367 N   0  0  0  0  0  0  0  0  0  0  0  0
   64.4722  -25.4060    6.4431 N   0  0  0  0  0  0  0  0  0  0  0  0
   63.7071  -24.5891    5.6672 C   0  0  0  0  0  0  0  0  0  0  0  0
   62.8029  -25.2931    4.9448 N   0  0  0  0  0  0  0  0  0  0  0  0
   61.8109  -24.7201    3.9945 C   0  0  1  0  0  0  0  0  0  0  0  0
   61.2004  -23.4742    4.5989 C   0  0  1  0  0  0  0  0  0  0  0  0
   61.0658  -22.5353    3.4282 C   0  0  2  0  0  0  0  0  0  0  0  0
   59.7810  -22.7038    2.8157 O   0  0  0  0  0  0  0  0  0  0  0  0
   59.9354  -23.7647    5.2137 O   0  0  0  0  0  0  0  0  0  0  0  0
   62.4599  -24.2990    2.7973 O   0  0  0  0  0  0  0  0  0  0  0  0
   62.1250  -22.9764    2.4517 C   0  0  2  0  0  0  0  0  0  0  0  0
   63.4228  -22.1958    2.4797 C   0  0  0  0  0  0  0  0  0  0  0  0
   63.2064  -20.8149    2.2740 O   0  0  0  0  0  0  0  0  0  0  0  0
   64.4582  -19.8921    1.9078 P   0  0  0  0  0  0  0  0  0  0  0  0
   64.8097  -20.2561    0.4792 O   0  0  0  0  0  0  0  0  0  0  0  0
   65.4735  -20.3102    2.9399 O   0  0  0  0  0  0  0  0  0  0  0  0
   63.9434  -18.4991    2.1426 O   0  0  0  0  0  0  0  0  0  0  0  0
  2  1  2  0  0  0  0
  2  4  1  0  0  0  0
  3  2  1  0  0  0  0
  4  7  1  0  0  0  0
  4  5  2  0  0  0  0
  5  6  1  0  0  0  0
  5  9  1  0  0  0  0
  7  8  2  0  0  0  0
  8  9  1  0  0  0  0
 10  9  1  1  0  0  0
 10 15  1  0  0  0  0
 11 14  1  6  0  0  0
 11 12  1  0  0  0  0
 11 10  1  0  0  0  0
 12 13  1  6  0  0  0
 12 16  1  0  0  0  0
 16 17  1  1  0  0  0
 16 15  1  0  0  0  0
 18 19  1  0  0  0  0
 18 17  1  0  0  0  0
 19 21  1  0  0  0  0
 20 19  1  0  0  0  0
 22 19  2  0  0  0  0
M  END
>  <CHROM.1>
-8.69318115,138.19099833,-56.39591014,72.38420854,-164.90123025,63.16305733
-23.63549843,3.98139486,-1.58285586,-0.13934896,-0.55052663

>  <Name>
lig.pdb

>  <RI>
0

>  <Rbt.Current_Directory>
/home/itssahil/PROJECTS/Mol_Feturizer/New_Systems/rnas/4znp

>  <Rbt.Executable>
rbdock ($Id: //depot/dev/client3/rdock/2013.1/src/exe/rbdock.cxx#4 $)

>  <Rbt.Library>
libRbt.so (2013.1, Build901 2013/11/27)

>  <Rbt.Parameter_File>
/export/apps/rDock/src/rDock_2013.1_src/data/scripts/dock_solv.prm

>  <Rbt.Receptor>
prm/blind_docking_80.prm

>  <SCORE>
-18.4654

>  <SCORE.INTER>
-13.5089

>  <SCORE.INTER.CONST>
1

>  <SCORE.INTER.POLAR>
0

>  <SCORE.INTER.ROT>
5

>  <SCORE.INTER.SOLV>
21.7919

>  <SCORE.INTER.VDW>
-23.2032

>  <SCORE.INTER.norm>
-0.61404

>  <SCORE.INTRA>
-4.95648

>  <SCORE.INTRA.DIHEDRAL>
-7.88872

>  <SCORE.INTRA.DIHEDRAL.0>
11.9251

>  <SCORE.INTRA.POLAR>
0

>  <SCORE.INTRA.POLAR.0>
0

>  <SCORE.INTRA.REPUL>
0

>  <SCORE.INTRA.REPUL.0>
0

>  <SCORE.INTRA.SOLV>
-0.425374

>  <SCORE.INTRA.SOLV.lig_0>
-40.9823

>  <SCORE.INTRA.VDW>
-0.799429

>  <SCORE.INTRA.VDW.0>
-0.53506

>  <SCORE.INTRA.norm>
-0.225294

>  <SCORE.RESTR>
0

>  <SCORE.RESTR.CAVITY>
0

>  <SCORE.RESTR.norm>
0

>  <SCORE.SYSTEM>
0

>  <SCORE.SYSTEM.CONST>
0

>  <SCORE.SYSTEM.DIHEDRAL>
0

>  <SCORE.SYSTEM.SOLV>
0

>  <SCORE.SYSTEM.norm>
0

>  <SCORE.heavy>
22

>  <SCORE.norm>
-0.839335

>  <RMSD>
13.341

$$$$
lig.pdb
 OpenBabel11021811523D
libRbt.so/2013.1/901 2013/11/27
 22 23  0  0  0  0  0  0  0  0999 V2000
   62.9074  -22.3743    1.2309 O   0  0  0  0  0  0  0  0  0  0  0  0
   63.5960  -21.9432    2.1255 C   0  0  0  0  0  0  0  0  0  0  0  0
   64.2961  -20.8300    1.9976 N   0  0  0  0  0  0  0  0  0  0  0  0
   63.7105  -22.6832    3.3903 C   0  0  0  0  0  0  0  0  0  0  0  0
   63.0334  -23.9473    3.6881 C   0  0  0  0  0  0  0  0  0  0  0  0
   62.1949  -24.6041    2.8581 N   0  0  0  0  0  0  0  0  0  0  0  0
   64.4081  -22.4087    4.5040 N   0  0  0  0  0  0  0  0  0  0  0  0
   64.2082  -23.4165    5.3979 C   0  0  0  0  0  0  0  0  0  0  0  0
   63.3742  -24.3622    4.9030 N   0  0  0  0  0  0  0  0  0  0  0  0
   62.9402  -25.5976    5.6107 C   0  0  1  0  0  0  0  0  0  0  0  0
   63.7310  -25.7442    6.8926 C   0  0  1  0  0  0  0  0  0  0  0  0
   62.7208  -26.2676    7.8805 C   0  0  2  0  0  0  0  0  0  0  0  0
   62.7294  -27.7007    7.8708 O   0  0  0  0  0  0  0  0  0  0  0  0
   64.8382  -26.6419    6.7169 O   0  0  0  0  0  0  0  0  0  0  0  0
   61.5738  -25.4888    6.0017 O   0  0  0  0  0  0  0  0  0  0  0  0
   61.3881  -25.7916    7.3636 C   0  0  2  0  0  0  0  0  0  0  0  0
   60.8384  -24.5320    8.0005 C   0  0  0  0  0  0  0  0  0  0  0  0
   61.1305  -24.4746    9.3816 O   0  0  0  0  0  0  0  0  0  0  0  0
   60.3651  -25.4734   10.3661 P   0  0  0  0  0  0  0  0  0  0  0  0
   60.9945  -26.8293   10.1170 O   0  0  0  0  0  0  0  0  0  0  0  0
   58.9364  -25.3400    9.9058 O   0  0  0  0  0  0  0  0  0  0  0  0
   60.5889  -24.8638   11.7222 O   0  0  0  0  0  0  0  0  0  0  0  0
  2  1  2  0  0  0  0
  2  4  1  0  0  0  0
  3  2  1  0  0  0  0
  4  7  1  0  0  0  0
  4  5  2  0  0  0  0
  5  6  1  0  0  0  0
  5  9  1  0  0  0  0
  7  8  2  0  0  0  0
  8  9  1  0  0  0  0
 10  9  1  1  0  0  0
 10 15  1  0  0  0  0
 11 14  1  6  0  0  0
 11 12  1  0  0  0  0
 11 10  1  0  0  0  0
 12 13  1  6  0  0  0
 12 16  1  0  0  0  0
 16 17  1  1  0  0  0
 16 15  1  0  0  0  0
 18 19  1  0  0  0  0
 18 17  1  0  0  0  0
 19 21  1  0  0  0  0
 20 19  1  0  0  0  0
 22 19  2  0  0  0  0
M  END
>  <CHROM.1>
-0.38457586,172.30861764,-36.83714490,73.92350409,-71.15661133,62.30649466
-24.71166460,6.60987938,1.05034121,0.78878439,-0.78607514

>  <Name>
lig.pdb

>  <RI>
0

>  <Rbt.Current_Directory>
/home/itssahil/PROJECTS/Mol_Feturizer/New_Systems/rnas/4znp

>  <Rbt.Executable>
rbdock ($Id: //depot/dev/client3/rdock/2013.1/src/exe/rbdock.cxx#4 $)

>  <Rbt.Library>
libRbt.so (2013.1, Build901 2013/11/27)

>  <Rbt.Parameter_File>
/export/apps/rDock/src/rDock_2013.1_src/data/scripts/dock_solv.prm

>  <Rbt.Receptor>
prm/blind_docking_100.prm

>  <SCORE>
-12.1882

>  <SCORE.INTER>
-9.04202

>  <SCORE.INTER.CONST>
1

>  <SCORE.INTER.POLAR>
0

>  <SCORE.INTER.ROT>
5

>  <SCORE.INTER.SOLV>
20.6035

>  <SCORE.INTER.VDW>
-19.8292

>  <SCORE.INTER.norm>
-0.411001

>  <SCORE.INTRA>
-3.19752

>  <SCORE.INTRA.DIHEDRAL>
-6.86009

>  <SCORE.INTRA.DIHEDRAL.0>
11.9251

>  <SCORE.INTRA.POLAR>
0

>  <SCORE.INTRA.POLAR.0>
0

>  <SCORE.INTRA.REPUL>
0

>  <SCORE.INTRA.REPUL.0>
0

>  <SCORE.INTRA.SOLV>
0.864371

>  <SCORE.INTRA.SOLV.lig_0>
-40.9823

>  <SCORE.INTRA.VDW>
-0.19966

>  <SCORE.INTRA.VDW.0>
-0.53506

>  <SCORE.INTRA.norm>
-0.145342

>  <SCORE.RESTR>
0.0513239

>  <SCORE.RESTR.CAVITY>
0.0513239

>  <SCORE.RESTR.norm>
0.0023329

>  <SCORE.SYSTEM>
0

>  <SCORE.SYSTEM.CONST>
0

>  <SCORE.SYSTEM.DIHEDRAL>
0

>  <SCORE.SYSTEM.SOLV>
0

>  <SCORE.SYSTEM.norm>
0

>  <SCORE.heavy>
22

>  <SCORE.norm>
-0.55401

>  <RMSD>
13.404

$$$$
lig.pdb
 OpenBabel11021811523D
libRbt.so/2013.1/901 2013/11/27
 22 23  0  0  0  0  0  0  0  0999 V2000
   67.1111  -27.5928    6.9156 O   0  0  0  0  0  0  0  0  0  0  0  0
   65.9323  -27.7061    7.1568 C   0  0  0  0  0  0  0  0  0  0  0  0
   65.4132  -28.8360    7.6036 N   0  0  0  0  0  0  0  0  0  0  0  0
   65.0184  -26.5810    6.9136 C   0  0  0  0  0  0  0  0  0  0  0  0
   63.5661  -26.6233    7.0988 C   0  0  0  0  0  0  0  0  0  0  0  0
   62.8561  -27.7001    7.4985 N   0  0  0  0  0  0  0  0  0  0  0  0
   65.2639  -25.3301    6.4924 N   0  0  0  0  0  0  0  0  0  0  0  0
   64.0845  -24.6507    6.4465 C   0  0  0  0  0  0  0  0  0  0  0  0
   63.0446  -25.4336    6.8216 N   0  0  0  0  0  0  0  0  0  0  0  0
   61.6178  -25.0147    6.8865 C   0  0  1  0  0  0  0  0  0  0  0  0
   61.5348  -23.6028    7.4249 C   0  0  1  0  0  0  0  0  0  0  0  0
   60.4323  -22.9729    6.6137 C   0  0  2  0  0  0  0  0  0  0  0  0
   59.1754  -23.1554    7.2778 O   0  0  0  0  0  0  0  0  0  0  0  0
   61.2455  -23.6025    8.8317 O   0  0  0  0  0  0  0  0  0  0  0  0
   61.0560  -24.9701    5.5773 O   0  0  0  0  0  0  0  0  0  0  0  0
   60.4095  -23.7465    5.3211 C   0  0  2  0  0  0  0  0  0  0  0  0
   61.1481  -23.1194    4.1568 C   0  0  0  0  0  0  0  0  0  0  0  0
   62.4480  -22.7059    4.5245 O   0  0  0  0  0  0  0  0  0  0  0  0
   63.5434  -22.5195    3.3765 P   0  0  0  0  0  0  0  0  0  0  0  0
   63.0918  -21.3006    2.5972 O   0  0  0  0  0  0  0  0  0  0  0  0
   63.4462  -23.8248    2.6299 O   0  0  0  0  0  0  0  0  0  0  0  0
   64.8311  -22.3925    4.1423 O   0  0  0  0  0  0  0  0  0  0  0  0
  2  1  2  0  0  0  0
  2  4  1  0  0  0  0
  3  2  1  0  0  0  0
  4  7  1  0  0  0  0
  4  5  2  0  0  0  0
  5  6  1  0  0  0  0
  5  9  1  0  0  0  0
  7  8  2  0  0  0  0
  8  9  1  0  0  0  0
 10  9  1  6  0  0  0
 10 15  1  0  0  0  0
 11 14  1  1  0  0  0
 11 12  1  0  0  0  0
 11 10  1  0  0  0  0
 12 13  1  1  0  0  0
 12 16  1  0  0  0  0
 16 17  1  6  0  0  0
 16 15  1  0  0  0  0
 18 19  1  0  0  0  0
 18 17  1  0  0  0  0
 19 21  1  0  0  0  0
 20 19  1  0  0  0  0
 22 19  2  0  0  0  0
M  END
>  <CHROM.1>
176.55378532,141.28342960,48.76902647,69.55367544,158.28380968,63.01701033
-24.50776969,5.81766311,-0.98197134,0.45505792,-0.82359126

>  <Name>
lig.pdb

>  <RI>
0

>  <Rbt.Current_Directory>
/home/itssahil/PROJECTS/Mol_Feturizer/New_Systems/rnas/4znp

>  <Rbt.Executable>
rbdock ($Id: //depot/dev/client3/rdock/2013.1/src/exe/rbdock.cxx#4 $)

>  <Rbt.Library>
libRbt.so (2013.1, Build901 2013/11/27)

>  <Rbt.Parameter_File>
/export/apps/rDock/src/rDock_2013.1_src/data/scripts/dock_solv.prm

>  <Rbt.Receptor>
prm/blind_docking_100.prm

>  <SCORE>
-16.2597

>  <SCORE.INTER>
-11.773

>  <SCORE.INTER.CONST>
1

>  <SCORE.INTER.POLAR>
0

>  <SCORE.INTER.ROT>
5

>  <SCORE.INTER.SOLV>
18.3387

>  <SCORE.INTER.VDW>
-20.8949

>  <SCORE.INTER.norm>
-0.535135

>  <SCORE.INTRA>
-4.71836

>  <SCORE.INTRA.DIHEDRAL>
-6.74704

>  <SCORE.INTRA.DIHEDRAL.0>
11.9251

>  <SCORE.INTRA.POLAR>
0

>  <SCORE.INTRA.POLAR.0>
0

>  <SCORE.INTRA.REPUL>
0

>  <SCORE.INTRA.REPUL.0>
0

>  <SCORE.INTRA.SOLV>
1.04869

>  <SCORE.INTRA.SOLV.lig_0>
-40.9823

>  <SCORE.INTRA.VDW>
-1.86918

>  <SCORE.INTRA.VDW.0>
-0.53506

>  <SCORE.INTRA.norm>
-0.214471

>  <SCORE.RESTR>
0.231656

>  <SCORE.RESTR.CAVITY>
0.231656

>  <SCORE.RESTR.norm>
0.0105298

>  <SCORE.SYSTEM>
0

>  <SCORE.SYSTEM.CONST>
0

>  <SCORE.SYSTEM.DIHEDRAL>
0

>  <SCORE.SYSTEM.SOLV>
0

>  <SCORE.SYSTEM.norm>
0

>  <SCORE.heavy>
22

>  <SCORE.norm>
-0.739076

>  <RMSD>
13.418

$$$$
lig.pdb
 OpenBabel11021811523D
libRbt.so/2013.1/901 2013/11/27
 22 23  0  0  0  0  0  0  0  0999 V2000
   66.0913  -25.3456    6.9812 O   0  0  0  0  0  0  0  0  0  0  0  0
   65.6032  -26.3833    6.6002 C   0  0  0  0  0  0  0  0  0  0  0  0
   66.2681  -27.5246    6.6321 N   0  0  0  0  0  0  0  0  0  0  0  0
   64.2448  -26.3971    6.0389 C   0  0  0  0  0  0  0  0  0  0  0  0
   63.1853  -25.4451    6.3800 C   0  0  0  0  0  0  0  0  0  0  0  0
   63.2936  -24.4342    7.2687 N   0  0  0  0  0  0  0  0  0  0  0  0
   63.6767  -27.2208    5.1438 N   0  0  0  0  0  0  0  0  0  0  0  0
   62.3977  -26.8065    4.9268 C   0  0  0  0  0  0  0  0  0  0  0  0
   62.0936  -25.7186    5.6746 N   0  0  0  0  0  0  0  0  0  0  0  0
   60.7862  -25.0073    5.6863 C   0  0  1  0  0  0  0  0  0  0  0  0
   60.9418  -23.6859    6.4073 C   0  0  1  0  0  0  0  0  0  0  0  0
   60.0860  -22.7374    5.6084 C   0  0  2  0  0  0  0  0  0  0  0  0
   58.7558  -22.7170    6.1414 O   0  0  0  0  0  0  0  0  0  0  0  0
   60.5123  -23.7891    7.7738 O   0  0  0  0  0  0  0  0  0  0  0  0
   60.3871  -24.6852    4.3564 O   0  0  0  0  0  0  0  0  0  0  0  0
   60.0394  -23.3280    4.2231 C   0  0  2  0  0  0  0  0  0  0  0  0
   61.0107  -22.7447    3.2177 C   0  0  0  0  0  0  0  0  0  0  0  0
   62.2603  -22.4513    3.8080 O   0  0  0  0  0  0  0  0  0  0  0  0
   63.5823  -23.0364    3.1279 P   0  0  0  0  0  0  0  0  0  0  0  0
   63.2881  -24.5051    2.8973 O   0  0  0  0  0  0  0  0  0  0  0  0
   64.6294  -22.7530    4.1738 O   0  0  0  0  0  0  0  0  0  0  0  0
   63.7505  -22.1809    1.9029 O   0  0  0  0  0  0  0  0  0  0  0  0
  2  1  2  0  0  0  0
  2  4  1  0  0  0  0
  3  2  1  0  0  0  0
  4  7  1  0  0  0  0
  4  5  2  0  0  0  0
  5  6  1  0  0  0  0
  5  9  1  0  0  0  0
  7  8  2  0  0  0  0
  8  9  1  0  0  0  0
 10  9  1  6  0  0  0
 10 15  1  0  0  0  0
 11 14  1  1  0  0  0
 11 12  1  0  0  0  0
 11 10  1  0  0  0  0
 12 13  1  1  0  0  0
 12 16  1  0  0  0  0
 16 17  1  6  0  0  0
 16 15  1  0  0  0  0
 18 19  1  0  0  0  0
 18 17  1  0  0  0  0
 19 21  1  0  0  0  0
 20 19  1  0  0  0  0
 22 19  2  0  0  0  0
M  END
>  <CHROM.1>
-27.74854810,12.91755388,38.24749674,-48.66939477,127.36984153,62.62473911
-24.34883291,5.07286404,-0.61276218,0.34917340,-0.90834017

>  <Name>
lig.pdb

>  <RI>
0

>  <Rbt.Current_Directory>
/home/itssahil/PROJECTS/Mol_Feturizer/New_Systems/rnas/4znp

>  <Rbt.Executable>
rbdock ($Id: //depot/dev/client3/rdock/2013.1/src/exe/rbdock.cxx#4 $)

>  <Rbt.Library>
libRbt.so (2013.1, Build901 2013/11/27)

>  <Rbt.Parameter_File>
/export/apps/rDock/src/rDock_2013.1_src/data/scripts/dock_solv.prm

>  <Rbt.Receptor>
prm/blind_docking_100.prm

>  <SCORE>
-9.50317

>  <SCORE.INTER>
-9.7293

>  <SCORE.INTER.CONST>
1

>  <SCORE.INTER.POLAR>
0

>  <SCORE.INTER.ROT>
5

>  <SCORE.INTER.SOLV>
19.1875

>  <SCORE.INTER.VDW>
-19.8154

>  <SCORE.INTER.norm>
-0.442241

>  <SCORE.INTRA>
0.226131

>  <SCORE.INTRA.DIHEDRAL>
1.52912

>  <SCORE.INTRA.DIHEDRAL.0>
11.9251

>  <SCORE.INTRA.POLAR>
0

>  <SCORE.INTRA.POLAR.0>
0

>  <SCORE.INTRA.REPUL>
0

>  <SCORE.INTRA.REPUL.0>
0

>  <SCORE.INTRA.SOLV>
3.09252

>  <SCORE.INTRA.SOLV.lig_0>
-40.9823

>  <SCORE.INTRA.VDW>
-2.08469

>  <SCORE.INTRA.VDW.0>
-0.53506

>  <SCORE.INTRA.norm>
0.0102787

>  <SCORE.RESTR>
0

>  <SCORE.RESTR.CAVITY>
0

>  <SCORE.RESTR.norm>
0

>  <SCORE.SYSTEM>
0

>  <SCORE.SYSTEM.CONST>
0

>  <SCORE.SYSTEM.DIHEDRAL>
0

>  <SCORE.SYSTEM.SOLV>
0

>  <SCORE.SYSTEM.norm>
0

>  <SCORE.heavy>
22

>  <SCORE.norm>
-0.431962

>  <RMSD>
13.441

$$$$
lig.pdb
 OpenBabel11021811523D
libRbt.so/2013.1/901 2013/11/27
 22 23  0  0  0  0  0  0  0  0999 V2000
   64.6114  -29.1609    8.3403 O   0  0  0  0  0  0  0  0  0  0  0  0
   65.1430  -28.3374    7.6334 C   0  0  0  0  0  0  0  0  0  0  0  0
   66.4313  -28.3877    7.3445 N   0  0  0  0  0  0  0  0  0  0  0  0
   64.3647  -27.2101    7.1007 C   0  0  0  0  0  0  0  0  0  0  0  0
   62.9556  -26.9459    7.4007 C   0  0  0  0  0  0  0  0  0  0  0  0
   62.1646  -27.7047    8.1893 N   0  0  0  0  0  0  0  0  0  0  0  0
   64.7200  -26.2173    6.2696 N   0  0  0  0  0  0  0  0  0  0  0  0
   63.6463  -25.3987    6.0912 C   0  0  0  0  0  0  0  0  0  0  0  0
   62.5674  -25.8352    6.7843 N   0  0  0  0  0  0  0  0  0  0  0  0
   61.2299  -25.1830    6.8157 C   0  0  1  0  0  0  0  0  0  0  0  0
   61.3571  -23.8100    7.4394 C   0  0  1  0  0  0  0  0  0  0  0  0
   60.4202  -22.9566    6.6243 C   0  0  2  0  0  0  0  0  0  0  0  0
   59.1175  -22.9585    7.2218 O   0  0  0  0  0  0  0  0  0  0  0  0
   60.9987  -23.8389    8.8298 O   0  0  0  0  0  0  0  0  0  0  0  0
   60.7529  -24.9699    5.4895 O   0  0  0  0  0  0  0  0  0  0  0  0
   60.3354  -23.6415    5.2850 C   0  0  2  0  0  0  0  0  0  0  0  0
   61.2289  -23.0857    4.1954 C   0  0  0  0  0  0  0  0  0  0  0  0
   62.5449  -22.8661    4.6602 O   0  0  0  0  0  0  0  0  0  0  0  0
   63.7033  -22.6239    3.5870 P   0  0  0  0  0  0  0  0  0  0  0  0
   64.9737  -22.4943    4.4031 O   0  0  0  0  0  0  0  0  0  0  0  0
   63.2490  -21.3567    2.9099 O   0  0  0  0  0  0  0  0  0  0  0  0
   63.5988  -23.8233    2.6863 O   0  0  0  0  0  0  0  0  0  0  0  0
  2  1  2  0  0  0  0
  2  4  1  0  0  0  0
  3  2  1  0  0  0  0
  4  7  1  0  0  0  0
  4  5  2  0  0  0  0
  5  6  1  0  0  0  0
  5  9  1  0  0  0  0
  7  8  2  0  0  0  0
  8  9  1  0  0  0  0
 10  9  1  6  0  0  0
 10 15  1  0  0  0  0
 11 14  1  1  0  0  0
 11 12  1  0  0  0  0
 11 10  1  0  0  0  0
 12 13  1  1  0  0  0
 12 16  1  0  0  0  0
 16 17  1  6  0  0  0
 16 15  1  0  0  0  0
 18 19  1  0  0  0  0
 18 17  1  0  0  0  0
 19 21  1  0  0  0  0
 20 19  1  0  0  0  0
 22 19  2  0  0  0  0
M  END
>  <CHROM.1>
2.72499725,117.13882623,46.16659362,-177.29788866,165.40931729,62.76431456
-24.74233329,5.96332109,-1.22439825,0.48095664,-0.73952936

>  <Name>
lig.pdb

>  <RI>
0

>  <Rbt.Current_Directory>
/home/itssahil/PROJECTS/Mol_Feturizer/New_Systems/rnas/4znp

>  <Rbt.Executable>
rbdock ($Id: //depot/dev/client3/rdock/2013.1/src/exe/rbdock.cxx#4 $)

>  <Rbt.Library>
libRbt.so (2013.1, Build901 2013/11/27)

>  <Rbt.Parameter_File>
/export/apps/rDock/src/rDock_2013.1_src/data/scripts/dock_solv.prm

>  <Rbt.Receptor>
prm/blind_docking_80.prm

>  <SCORE>
-14.0279

>  <SCORE.INTER>
-8.45521

>  <SCORE.INTER.CONST>
1

>  <SCORE.INTER.POLAR>
0

>  <SCORE.INTER.ROT>
5

>  <SCORE.INTER.SOLV>
17.2037

>  <SCORE.INTER.VDW>
-18.3047

>  <SCORE.INTER.norm>
-0.384328

>  <SCORE.INTRA>
-5.59039

>  <SCORE.INTRA.DIHEDRAL>
-7.77638

>  <SCORE.INTRA.DIHEDRAL.0>
11.9251

>  <SCORE.INTRA.POLAR>
0

>  <SCORE.INTRA.POLAR.0>
0

>  <SCORE.INTRA.REPUL>
0

>  <SCORE.INTRA.REPUL.0>
0

>  <SCORE.INTRA.SOLV>
0.882546

>  <SCORE.INTRA.SOLV.lig_0>
-40.9823

>  <SCORE.INTRA.VDW>
-2.14347

>  <SCORE.INTRA.VDW.0>
-0.53506

>  <SCORE.INTRA.norm>
-0.254109

>  <SCORE.RESTR>
0.0177066

>  <SCORE.RESTR.CAVITY>
0.0177066

>  <SCORE.RESTR.norm>
0.000804847

>  <SCORE.SYSTEM>
0

>  <SCORE.SYSTEM.CONST>
0

>  <SCORE.SYSTEM.DIHEDRAL>
0

>  <SCORE.SYSTEM.SOLV>
0

>  <SCORE.SYSTEM.norm>
0

>  <SCORE.heavy>
22

>  <SCORE.norm>
-0.637632

>  <RMSD>
13.464

$$$$
lig.pdb
 OpenBabel11021811523D
libRbt.so/2013.1/901 2013/11/27
 22 23  0  0  0  0  0  0  0  0999 V2000
   65.6809  -28.7343    6.8503 O   0  0  0  0  0  0  0  0  0  0  0  0
   64.6887  -28.5136    6.1967 C   0  0  0  0  0  0  0  0  0  0  0  0
   64.2733  -29.3385    5.2518 N   0  0  0  0  0  0  0  0  0  0  0  0
   63.9260  -27.2753    6.4091 C   0  0  0  0  0  0  0  0  0  0  0  0
   62.6899  -26.9193    5.7086 C   0  0  0  0  0  0  0  0  0  0  0  0
   62.0843  -27.6619    4.7572 N   0  0  0  0  0  0  0  0  0  0  0  0
   64.1522  -26.2392    7.2325 N   0  0  0  0  0  0  0  0  0  0  0  0
   63.1417  -25.3388    7.0810 C   0  0  0  0  0  0  0  0  0  0  0  0
   62.2423  -25.7515    6.1559 N   0  0  0  0  0  0  0  0  0  0  0  0
   61.0179  -25.0136    5.7414 C   0  0  1  0  0  0  0  0  0  0  0  0
   61.0960  -23.5898    6.2483 C   0  0  1  0  0  0  0  0  0  0  0  0
   60.5102  -22.7753    5.1242 C   0  0  2  0  0  0  0  0  0  0  0  0
   59.0984  -22.6236    5.3186 O   0  0  0  0  0  0  0  0  0  0  0  0
   60.3620  -23.4364    7.4732 O   0  0  0  0  0  0  0  0  0  0  0  0
   60.9534  -24.9222    4.3204 O   0  0  0  0  0  0  0  0  0  0  0  0
   60.7384  -23.6013    3.8850 C   0  0  2  0  0  0  0  0  0  0  0  0
   61.9498  -23.2331    3.0533 C   0  0  0  0  0  0  0  0  0  0  0  0
   61.8810  -21.8996    2.5919 O   0  0  0  0  0  0  0  0  0  0  0  0
   63.1582  -21.2776    1.8610 P   0  0  0  0  0  0  0  0  0  0  0  0
   64.3097  -21.5077    2.8192 O   0  0  0  0  0  0  0  0  0  0  0  0
   62.7534  -19.8367    1.6857 O   0  0  0  0  0  0  0  0  0  0  0  0
   63.2076  -22.0212    0.5551 O   0  0  0  0  0  0  0  0  0  0  0  0
  2  1  2  0  0  0  0
  2  4  1  0  0  0  0
  3  2  1  0  0  0  0
  4  7  1  0  0  0  0
  4  5  2  0  0  0  0
  5  6  1  0  0  0  0
  5  9  1  0  0  0  0
  7  8  2  0  0  0  0
  8  9  1  0  0  0  0
 10  9  1  6  0  0  0
 10 15  1  0  0  0  0
 11 14  1  1  0  0  0
 11 12  1  0  0  0  0
 11 10  1  0  0  0  0
 12 13  1  1  0  0  0
 12 16  1  0  0  0  0
 16 17  1  1  0  0  0
 16 15  1  0  0  0  0
 18 19  1  0  0  0  0
 18 17  1  0  0  0  0
 19 21  1  0  0  0  0
 20 19  1  0  0  0  0
 22 19  2  0  0  0  0
M  END
>  <CHROM.1>
-178.03655654,-165.63236041,-59.88194247,-53.00275167,172.10061707,62.47212500
-24.32518631,4.60257828,-1.35149420,0.58554863,-0.69707545

>  <Name>
lig.pdb

>  <RI>
0

>  <Rbt.Current_Directory>
/home/itssahil/PROJECTS/Mol_Feturizer/New_Systems/rnas/4znp

>  <Rbt.Executable>
rbdock ($Id: //depot/dev/client3/rdock/2013.1/src/exe/rbdock.cxx#4 $)

>  <Rbt.Library>
libRbt.so (2013.1, Build901 2013/11/27)

>  <Rbt.Parameter_File>
/export/apps/rDock/src/rDock_2013.1_src/data/scripts/dock_solv.prm

>  <Rbt.Receptor>
prm/blind_docking_100.prm

>  <SCORE>
-16.2423

>  <SCORE.INTER>
-11.4068

>  <SCORE.INTER.CONST>
1

>  <SCORE.INTER.POLAR>
0

>  <SCORE.INTER.ROT>
5

>  <SCORE.INTER.SOLV>
22.3474

>  <SCORE.INTER.VDW>
-21.987

>  <SCORE.INTER.norm>
-0.518491

>  <SCORE.INTRA>
-4.83548

>  <SCORE.INTRA.DIHEDRAL>
-9.0998

>  <SCORE.INTRA.DIHEDRAL.0>
11.9251

>  <SCORE.INTRA.POLAR>
0

>  <SCORE.INTRA.POLAR.0>
0

>  <SCORE.INTRA.REPUL>
0

>  <SCORE.INTRA.REPUL.0>
0

>  <SCORE.INTRA.SOLV>
0.372179

>  <SCORE.INTRA.SOLV.lig_0>
-40.9823

>  <SCORE.INTRA.VDW>
-0.471672

>  <SCORE.INTRA.VDW.0>
-0.53506

>  <SCORE.INTRA.norm>
-0.219795

>  <SCORE.RESTR>
0

>  <SCORE.RESTR.CAVITY>
0

>  <SCORE.RESTR.norm>
0

>  <SCORE.SYSTEM>
0

>  <SCORE.SYSTEM.CONST>
0

>  <SCORE.SYSTEM.DIHEDRAL>
0

>  <SCORE.SYSTEM.SOLV>
0

>  <SCORE.SYSTEM.norm>
0

>  <SCORE.heavy>
22

>  <SCORE.norm>
-0.738286

>  <RMSD>
13.482

$$$$
lig.pdb
 OpenBabel11021811523D
libRbt.so/2013.1/901 2013/11/27
 22 23  0  0  0  0  0  0  0  0999 V2000
   47.2274  -13.9398    4.7556 O   0  0  0  0  0  0  0  0  0  0  0  0
   46.7127  -14.4260    5.7350 C   0  0  0  0  0  0  0  0  0  0  0  0
   45.9144  -13.7311    6.5259 N   0  0  0  0  0  0  0  0  0  0  0  0
   47.0012  -15.8189    6.1051 C   0  0  0  0  0  0  0  0  0  0  0  0
   47.6551  -16.8006    5.2369 C   0  0  0  0  0  0  0  0  0  0  0  0
   48.0683  -16.5778    3.9708 N   0  0  0  0  0  0  0  0  0  0  0  0
   46.7566  -16.4903    7.2417 N   0  0  0  0  0  0  0  0  0  0  0  0
   47.2360  -17.7578    7.1060 C   0  0  0  0  0  0  0  0  0  0  0  0
   47.7914  -17.9515    5.8858 N   0  0  0  0  0  0  0  0  0  0  0  0
   48.4093  -19.2157    5.4006 C   0  0  1  0  0  0  0  0  0  0  0  0
   49.7437  -18.9059    4.7576 C   0  0  1  0  0  0  0  0  0  0  0  0
   50.6239  -20.0514    5.1860 C   0  0  2  0  0  0  0  0  0  0  0  0
   50.5550  -21.1056    4.2174 O   0  0  0  0  0  0  0  0  0  0  0  0
   49.6208  -18.8168    3.3295 O   0  0  0  0  0  0  0  0  0  0  0  0
   48.6928  -20.0800    6.4981 O   0  0  0  0  0  0  0  0  0  0  0  0
   50.0212  -20.5441    6.4759 C   0  0  2  0  0  0  0  0  0  0  0  0
   50.6637  -20.0329    7.7488 C   0  0  0  0  0  0  0  0  0  0  0  0
   50.9233  -21.0807    8.6603 O   0  0  0  0  0  0  0  0  0  0  0  0
   52.1759  -22.0349    8.3903 P   0  0  0  0  0  0  0  0  0  0  0  0
   51.9407  -22.6097    7.0079 O   0  0  0  0  0  0  0  0  0  0  0  0
   52.0684  -23.0270    9.5194 O   0  0  0  0  0  0  0  0  0  0  0  0
   53.3542  -21.1143    8.5474 O   0  0  0  0  0  0  0  0  0  0  0  0
  2  1  2  0  0  0  0
  2  4  1  0  0  0  0
  3  2  1  0  0  0  0
  4  7  1  0  0  0  0
  4  5  2  0  0  0  0
  5  6  1  0  0  0  0
  5  9  1  0  0  0  0
  7  8  2  0  0  0  0
  8  9  1  0  0  0  0
 10  9  1  1  0  0  0
 10 15  1  0  0  0  0
 11 14  1  6  0  0  0
 11 12  1  0  0  0  0
 11 10  1  0  0  0  0
 12 13  1  6  0  0  0
 12 16  1  0  0  0  0
 16 17  1  1  0  0  0
 16 15  1  0  0  0  0
 18 19  1  0  0  0  0
 18 17  1  0  0  0  0
 19 21  1  0  0  0  0
 20 19  1  0  0  0  0
 22 19  2  0  0  0  0
M  END
>  <CHROM.1>
-13.62096797,47.63303284,-132.04124969,-57.20399823,76.69908238,49.48776319
-19.02102760,6.42649106,2.87106661,0.92805632,-1.60187004

>  <Name>
lig.pdb

>  <RI>
0

>  <Rbt.Current_Directory>
/home/afrankz/demos/rdock_decoys_rna/rnas/4znp

>  <Rbt.Executable>
rbdock ($Id: //depot/dev/client3/rdock/2013.1/src/exe/rbdock.cxx#4 $)

>  <Rbt.Library>
libRbt.so (2013.1, Build901 2013/11/27)

>  <Rbt.Parameter_File>
/export/apps/rDock/src/rDock_2013.1_src/data/scripts/dock_solv.prm

>  <Rbt.Receptor>
prm/blind_docking_60.prm

>  <SCORE>
-1.07223

>  <SCORE.INTER>
-2.13327

>  <SCORE.INTER.CONST>
1

>  <SCORE.INTER.POLAR>
0

>  <SCORE.INTER.ROT>
5

>  <SCORE.INTER.SOLV>
17.9468

>  <SCORE.INTER.VDW>
-14.3378

>  <SCORE.INTER.norm>
-0.0969669

>  <SCORE.INTRA>
-2.07396

>  <SCORE.INTRA.DIHEDRAL>
-2.88493

>  <SCORE.INTRA.DIHEDRAL.0>
11.9251

>  <SCORE.INTRA.POLAR>
0

>  <SCORE.INTRA.POLAR.0>
0

>  <SCORE.INTRA.REPUL>
0

>  <SCORE.INTRA.REPUL.0>
0

>  <SCORE.INTRA.SOLV>
1.32749

>  <SCORE.INTRA.SOLV.lig_0>
-40.9823

>  <SCORE.INTRA.VDW>
-1.29524

>  <SCORE.INTRA.VDW.0>
-0.53506

>  <SCORE.INTRA.norm>
-0.094271

>  <SCORE.RESTR>
3.13501

>  <SCORE.RESTR.CAVITY>
3.13501

>  <SCORE.RESTR.norm>
0.1425

>  <SCORE.SYSTEM>
0

>  <SCORE.SYSTEM.CONST>
0

>  <SCORE.SYSTEM.DIHEDRAL>
0

>  <SCORE.SYSTEM.SOLV>
0

>  <SCORE.SYSTEM.norm>
0

>  <SCORE.heavy>
22

>  <SCORE.norm>
-0.0487375

>  <RMSD>
13.559

$$$$
lig.pdb
 OpenBabel11021811523D
libRbt.so/2013.1/901 2013/11/27
 22 23  0  0  0  0  0  0  0  0999 V2000
   63.2336  -29.5188   11.0348 O   0  0  0  0  0  0  0  0  0  0  0  0
   62.1368  -29.0199   10.9422 C   0  0  0  0  0  0  0  0  0  0  0  0
   61.1921  -29.2311   11.8414 N   0  0  0  0  0  0  0  0  0  0  0  0
   61.8030  -28.1830    9.7810 C   0  0  0  0  0  0  0  0  0  0  0  0
   62.7241  -27.8523    8.6912 C   0  0  0  0  0  0  0  0  0  0  0  0
   64.0120  -28.2485    8.6036 N   0  0  0  0  0  0  0  0  0  0  0  0
   60.6607  -27.5588    9.4524 N   0  0  0  0  0  0  0  0  0  0  0  0
   60.8427  -26.9246    8.2610 C   0  0  0  0  0  0  0  0  0  0  0  0
   62.0992  -27.1052    7.7881 N   0  0  0  0  0  0  0  0  0  0  0  0
   62.6389  -26.5530    6.5157 C   0  0  1  0  0  0  0  0  0  0  0  0
   61.4898  -26.1310    5.6260 C   0  0  1  0  0  0  0  0  0  0  0  0
   61.9805  -24.8593    4.9838 C   0  0  2  0  0  0  0  0  0  0  0  0
   62.6456  -25.1628    3.7511 O   0  0  0  0  0  0  0  0  0  0  0  0
   61.1845  -27.1479    4.6590 O   0  0  0  0  0  0  0  0  0  0  0  0
   63.3935  -25.3710    6.7708 O   0  0  0  0  0  0  0  0  0  0  0  0
   62.9920  -24.3002    5.9505 C   0  0  2  0  0  0  0  0  0  0  0  0
   62.4912  -23.2207    6.8877 C   0  0  0  0  0  0  0  0  0  0  0  0
   61.5188  -22.4026    6.2702 O   0  0  0  0  0  0  0  0  0  0  0  0
   59.9780  -22.7925    6.4330 P   0  0  0  0  0  0  0  0  0  0  0  0
   59.9371  -23.7489    7.6079 O   0  0  0  0  0  0  0  0  0  0  0  0
   59.6644  -23.4124    5.0958 O   0  0  0  0  0  0  0  0  0  0  0  0
   59.3012  -21.4630    6.6205 O   0  0  0  0  0  0  0  0  0  0  0  0
  2  1  2  0  0  0  0
  2  4  1  0  0  0  0
  3  2  1  0  0  0  0
  4  7  1  0  0  0  0
  4  5  2  0  0  0  0
  5  6  1  0  0  0  0
  5  9  1  0  0  0  0
  7  8  2  0  0  0  0
  8  9  1  0  0  0  0
 10  9  1  1  0  0  0
 10 15  1  0  0  0  0
 11 14  1  6  0  0  0
 11 12  1  0  0  0  0
 11 10  1  0  0  0  0
 12 13  1  6  0  0  0
 12 16  1  0  0  0  0
 16 17  1  1  0  0  0
 16 15  1  0  0  0  0
 18 19  1  0  0  0  0
 18 17  1  0  0  0  0
 19 21  1  0  0  0  0
 20 19  1  0  0  0  0
 22 19  2  0  0  0  0
M  END
>  <CHROM.1>
-1.69340412,163.11359003,-34.21937057,17.43558447,92.19028729,61.60339785
-25.66099097,7.31155525,1.22539645,-0.87296901,2.20686103

>  <Name>
lig.pdb

>  <RI>
0

>  <Rbt.Current_Directory>
/home/itssahil/PROJECTS/Mol_Feturizer/New_Systems/rnas/4znp

>  <Rbt.Executable>
rbdock ($Id: //depot/dev/client3/rdock/2013.1/src/exe/rbdock.cxx#4 $)

>  <Rbt.Library>
libRbt.so (2013.1, Build901 2013/11/27)

>  <Rbt.Parameter_File>
/export/apps/rDock/src/rDock_2013.1_src/data/scripts/dock_solv.prm

>  <Rbt.Receptor>
prm/blind_docking_100.prm

>  <SCORE>
-10.8016

>  <SCORE.INTER>
-10.1842

>  <SCORE.INTER.CONST>
1

>  <SCORE.INTER.POLAR>
0

>  <SCORE.INTER.ROT>
5

>  <SCORE.INTER.SOLV>
14.6372

>  <SCORE.INTER.VDW>
-18.6019

>  <SCORE.INTER.norm>
-0.462918

>  <SCORE.INTRA>
-0.617351

>  <SCORE.INTRA.DIHEDRAL>
-1.53743

>  <SCORE.INTRA.DIHEDRAL.0>
11.9251

>  <SCORE.INTRA.POLAR>
0

>  <SCORE.INTRA.POLAR.0>
0

>  <SCORE.INTRA.REPUL>
0

>  <SCORE.INTRA.REPUL.0>
0

>  <SCORE.INTRA.SOLV>
1.30545

>  <SCORE.INTRA.SOLV.lig_0>
-40.9823

>  <SCORE.INTRA.VDW>
-0.501361

>  <SCORE.INTRA.VDW.0>
-0.53506

>  <SCORE.INTRA.norm>
-0.0280614

>  <SCORE.RESTR>
0

>  <SCORE.RESTR.CAVITY>
0

>  <SCORE.RESTR.norm>
0

>  <SCORE.SYSTEM>
0

>  <SCORE.SYSTEM.CONST>
0

>  <SCORE.SYSTEM.DIHEDRAL>
0

>  <SCORE.SYSTEM.SOLV>
0

>  <SCORE.SYSTEM.norm>
0

>  <SCORE.heavy>
22

>  <SCORE.norm>
-0.49098

>  <RMSD>
13.582

$$$$
lig.pdb
 OpenBabel11021811523D
libRbt.so/2013.1/901 2013/11/27
 22 23  0  0  0  0  0  0  0  0999 V2000
   65.1861  -29.3477    7.5759 O   0  0  0  0  0  0  0  0  0  0  0  0
   64.1626  -28.7530    7.8190 C   0  0  0  0  0  0  0  0  0  0  0  0
   63.5668  -28.8340    8.9955 N   0  0  0  0  0  0  0  0  0  0  0  0
   63.5159  -27.9418    6.7778 C   0  0  0  0  0  0  0  0  0  0  0  0
   62.5132  -26.9030    7.0241 C   0  0  0  0  0  0  0  0  0  0  0  0
   62.0244  -26.5537    8.2334 N   0  0  0  0  0  0  0  0  0  0  0  0
   63.6678  -27.9484    5.4439 N   0  0  0  0  0  0  0  0  0  0  0  0
   62.8603  -26.9889    4.9128 C   0  0  0  0  0  0  0  0  0  0  0  0
   62.1571  -26.3429    5.8735 N   0  0  0  0  0  0  0  0  0  0  0  0
   61.1824  -25.2410    5.6475 C   0  0  1  0  0  0  0  0  0  0  0  0
   61.4425  -24.1306    6.6422 C   0  0  1  0  0  0  0  0  0  0  0  0
   61.2195  -22.8726    5.8435 C   0  0  2  0  0  0  0  0  0  0  0  0
   59.8498  -22.4648    5.9519 O   0  0  0  0  0  0  0  0  0  0  0  0
   60.5556  -24.2268    7.7677 O   0  0  0  0  0  0  0  0  0  0  0  0
   61.3764  -24.6667    4.3574 O   0  0  0  0  0  0  0  0  0  0  0  0
   61.4921  -23.2653    4.4147 C   0  0  2  0  0  0  0  0  0  0  0  0
   62.8736  -22.9382    3.8865 C   0  0  0  0  0  0  0  0  0  0  0  0
   62.8976  -22.9002    2.4744 O   0  0  0  0  0  0  0  0  0  0  0  0
   62.1658  -21.6904    1.7305 P   0  0  0  0  0  0  0  0  0  0  0  0
   60.6970  -21.8539    2.0664 O   0  0  0  0  0  0  0  0  0  0  0  0
   62.5214  -21.9429    0.2881 O   0  0  0  0  0  0  0  0  0  0  0  0
   62.8541  -20.4741    2.2854 O   0  0  0  0  0  0  0  0  0  0  0  0
  2  1  2  0  0  0  0
  2  4  1  0  0  0  0
  3  2  1  0  0  0  0
  4  7  1  0  0  0  0
  4  5  2  0  0  0  0
  5  6  1  0  0  0  0
  5  9  1  0  0  0  0
  7  8  2  0  0  0  0
  8  9  1  0  0  0  0
 10  9  1  1  0  0  0
 10 15  1  0  0  0  0
 11 14  1  1  0  0  0
 11 12  1  0  0  0  0
 11 10  1  0  0  0  0
 12 13  1  6  0  0  0
 12 16  1  0  0  0  0
 16 17  1  1  0  0  0
 16 15  1  0  0  0  0
 18 19  1  0  0  0  0
 18 17  1  0  0  0  0
 19 21  1  0  0  0  0
 20 19  1  0  0  0  0
 22 19  2  0  0  0  0
M  END
>  <CHROM.1>
-162.26399047,46.40493765,-159.43559819,-64.54822247,70.78550259,62.27598957
-24.63917488,4.99592767,-1.31917328,0.81166057,-0.89258709

>  <Name>
lig.pdb

>  <RI>
0

>  <Rbt.Current_Directory>
/home/itssahil/PROJECTS/Mol_Feturizer/New_Systems/rnas/4znp

>  <Rbt.Executable>
rbdock ($Id: //depot/dev/client3/rdock/2013.1/src/exe/rbdock.cxx#4 $)

>  <Rbt.Library>
libRbt.so (2013.1, Build901 2013/11/27)

>  <Rbt.Parameter_File>
/export/apps/rDock/src/rDock_2013.1_src/data/scripts/dock_solv.prm

>  <Rbt.Receptor>
prm/blind_docking_80.prm

>  <SCORE>
-16.769

>  <SCORE.INTER>
-13.3377

>  <SCORE.INTER.CONST>
1

>  <SCORE.INTER.POLAR>
0

>  <SCORE.INTER.ROT>
5

>  <SCORE.INTER.SOLV>
17.2808

>  <SCORE.INTER.VDW>
-21.5854

>  <SCORE.INTER.norm>
-0.60626

>  <SCORE.INTRA>
-3.43128

>  <SCORE.INTRA.DIHEDRAL>
-6.35495

>  <SCORE.INTRA.DIHEDRAL.0>
11.9251

>  <SCORE.INTRA.POLAR>
0

>  <SCORE.INTRA.POLAR.0>
0

>  <SCORE.INTRA.REPUL>
0

>  <SCORE.INTRA.REPUL.0>
0

>  <SCORE.INTRA.SOLV>
1.68136

>  <SCORE.INTRA.SOLV.lig_0>
-40.9823

>  <SCORE.INTRA.VDW>
-1.09449

>  <SCORE.INTRA.VDW.0>
-0.53506

>  <SCORE.INTRA.norm>
-0.155967

>  <SCORE.RESTR>
0

>  <SCORE.RESTR.CAVITY>
0

>  <SCORE.RESTR.norm>
0

>  <SCORE.SYSTEM>
0

>  <SCORE.SYSTEM.CONST>
0

>  <SCORE.SYSTEM.DIHEDRAL>
0

>  <SCORE.SYSTEM.SOLV>
0

>  <SCORE.SYSTEM.norm>
0

>  <SCORE.heavy>
22

>  <SCORE.norm>
-0.762227

>  <RMSD>
13.584

$$$$
lig.pdb
 OpenBabel11021811523D
libRbt.so/2013.1/901 2013/11/27
 22 23  0  0  0  0  0  0  0  0999 V2000
   58.0917  -21.3897    6.0982 O   0  0  0  0  0  0  0  0  0  0  0  0
   58.7755  -22.1676    5.4755 C   0  0  0  0  0  0  0  0  0  0  0  0
   58.6749  -22.2961    4.1644 N   0  0  0  0  0  0  0  0  0  0  0  0
   59.7260  -23.0406    6.1788 C   0  0  0  0  0  0  0  0  0  0  0  0
   60.5925  -24.0304    5.5346 C   0  0  0  0  0  0  0  0  0  0  0  0
   60.6311  -24.2983    4.2117 N   0  0  0  0  0  0  0  0  0  0  0  0
   60.0163  -23.1443    7.4855 N   0  0  0  0  0  0  0  0  0  0  0  0
   60.9882  -24.0859    7.6384 C   0  0  0  0  0  0  0  0  0  0  0  0
   61.3486  -24.6264    6.4497 N   0  0  0  0  0  0  0  0  0  0  0  0
   62.3790  -25.6815    6.2491 C   0  0  1  0  0  0  0  0  0  0  0  0
   63.6613  -25.2661    6.9371 C   0  0  1  0  0  0  0  0  0  0  0  0
   64.1899  -26.5515    7.5191 C   0  0  2  0  0  0  0  0  0  0  0  0
   65.0614  -27.1891    6.5768 O   0  0  0  0  0  0  0  0  0  0  0  0
   64.5783  -24.6712    6.0056 O   0  0  0  0  0  0  0  0  0  0  0  0
   61.9718  -26.8953    6.8756 O   0  0  0  0  0  0  0  0  0  0  0  0
   62.9741  -27.4200    7.7128 C   0  0  2  0  0  0  0  0  0  0  0  0
   62.3852  -27.4390    9.1083 C   0  0  0  0  0  0  0  0  0  0  0  0
   63.3830  -27.6070   10.0942 O   0  0  0  0  0  0  0  0  0  0  0  0
   62.9573  -27.5315   11.6323 P   0  0  0  0  0  0  0  0  0  0  0  0
   62.0027  -28.6915   11.8328 O   0  0  0  0  0  0  0  0  0  0  0  0
   62.3272  -26.1655   11.7205 O   0  0  0  0  0  0  0  0  0  0  0  0
   64.2708  -27.6042   12.3604 O   0  0  0  0  0  0  0  0  0  0  0  0
  2  1  2  0  0  0  0
  2  4  1  0  0  0  0
  3  2  1  0  0  0  0
  4  7  1  0  0  0  0
  4  5  2  0  0  0  0
  5  6  1  0  0  0  0
  5  9  1  0  0  0  0
  7  8  2  0  0  0  0
  8  9  1  0  0  0  0
 10  9  1  1  0  0  0
 10 15  1  0  0  0  0
 11 14  1  6  0  0  0
 11 12  1  0  0  0  0
 11 10  1  0  0  0  0
 12 13  1  6  0  0  0
 12 16  1  0  0  0  0
 16 17  1  1  0  0  0
 16 15  1  0  0  0  0
 18 19  1  0  0  0  0
 18 17  1  0  0  0  0
 19 21  1  0  0  0  0
 20 19  1  0  0  0  0
 22 19  2  0  0  0  0
M  END
>  <CHROM.1>
179.22209119,129.12381582,-46.52982555,62.98866885,175.09437653,61.98491177
-25.54534812,7.94009038,2.14452055,0.60421683,-1.21293873

>  <Name>
lig.pdb

>  <RI>
0

>  <Rbt.Current_Directory>
/home/itssahil/PROJECTS/Mol_Feturizer/New_Systems/rnas/4znp

>  <Rbt.Executable>
rbdock ($Id: //depot/dev/client3/rdock/2013.1/src/exe/rbdock.cxx#4 $)

>  <Rbt.Library>
libRbt.so (2013.1, Build901 2013/11/27)

>  <Rbt.Parameter_File>
/export/apps/rDock/src/rDock_2013.1_src/data/scripts/dock_solv.prm

>  <Rbt.Receptor>
prm/blind_docking_100.prm

>  <SCORE>
-15.0582

>  <SCORE.INTER>
-9.54211

>  <SCORE.INTER.CONST>
1

>  <SCORE.INTER.POLAR>
0

>  <SCORE.INTER.ROT>
5

>  <SCORE.INTER.SOLV>
17.5657

>  <SCORE.INTER.VDW>
-19.15

>  <SCORE.INTER.norm>
-0.433732

>  <SCORE.INTRA>
-5.52639

>  <SCORE.INTRA.DIHEDRAL>
-8.73086

>  <SCORE.INTRA.DIHEDRAL.0>
11.9251

>  <SCORE.INTRA.POLAR>
0

>  <SCORE.INTRA.POLAR.0>
0

>  <SCORE.INTRA.REPUL>
0

>  <SCORE.INTRA.REPUL.0>
0

>  <SCORE.INTRA.SOLV>
-0.0912392

>  <SCORE.INTRA.SOLV.lig_0>
-40.9823

>  <SCORE.INTRA.VDW>
-1.11534

>  <SCORE.INTRA.VDW.0>
-0.53506

>  <SCORE.INTRA.norm>
-0.2512

>  <SCORE.RESTR>
0.0103184

>  <SCORE.RESTR.CAVITY>
0.0103184

>  <SCORE.RESTR.norm>
0.000469018

>  <SCORE.SYSTEM>
0

>  <SCORE.SYSTEM.CONST>
0

>  <SCORE.SYSTEM.DIHEDRAL>
0

>  <SCORE.SYSTEM.SOLV>
0

>  <SCORE.SYSTEM.norm>
0

>  <SCORE.heavy>
22

>  <SCORE.norm>
-0.684463

>  <RMSD>
13.590

$$$$
lig.pdb
 OpenBabel11021811523D
libRbt.so/2013.1/901 2013/11/27
 22 23  0  0  0  0  0  0  0  0999 V2000
   56.8643  -26.4712   10.8728 O   0  0  0  0  0  0  0  0  0  0  0  0
   57.7060  -26.9948   10.1815 C   0  0  0  0  0  0  0  0  0  0  0  0
   57.5228  -28.1822    9.6318 N   0  0  0  0  0  0  0  0  0  0  0  0
   58.9995  -26.3314    9.9648 C   0  0  0  0  0  0  0  0  0  0  0  0
   59.9770  -26.7103    8.9420 C   0  0  0  0  0  0  0  0  0  0  0  0
   59.8432  -27.7300    8.0669 N   0  0  0  0  0  0  0  0  0  0  0  0
   59.5674  -25.2938   10.5998 N   0  0  0  0  0  0  0  0  0  0  0  0
   60.7683  -25.0332   10.0127 C   0  0  0  0  0  0  0  0  0  0  0  0
   61.0213  -25.8913    8.9955 N   0  0  0  0  0  0  0  0  0  0  0  0
   62.2394  -25.8936    8.1402 C   0  0  1  0  0  0  0  0  0  0  0  0
   62.5646  -27.3153    7.7363 C   0  0  1  0  0  0  0  0  0  0  0  0
   63.0266  -27.1865    6.3078 C   0  0  2  0  0  0  0  0  0  0  0  0
   64.4465  -26.9951    6.2719 O   0  0  0  0  0  0  0  0  0  0  0  0
   63.5757  -27.8760    8.5882 O   0  0  0  0  0  0  0  0  0  0  0  0
   61.9927  -25.1867    6.9273 O   0  0  0  0  0  0  0  0  0  0  0  0
   62.3603  -25.9366    5.7944 C   0  0  2  0  0  0  0  0  0  0  0  0
   61.0885  -26.1397    4.9971 C   0  0  0  0  0  0  0  0  0  0  0  0
   60.4916  -24.9091    4.6431 O   0  0  0  0  0  0  0  0  0  0  0  0
   61.3858  -23.8117    3.9024 P   0  0  0  0  0  0  0  0  0  0  0  0
   62.2724  -24.5996    2.9588 O   0  0  0  0  0  0  0  0  0  0  0  0
   62.1042  -23.1574    5.0542 O   0  0  0  0  0  0  0  0  0  0  0  0
   60.3681  -22.9024    3.2715 O   0  0  0  0  0  0  0  0  0  0  0  0
  2  1  2  0  0  0  0
  2  4  1  0  0  0  0
  3  2  1  0  0  0  0
  4  7  1  0  0  0  0
  4  5  2  0  0  0  0
  5  6  1  0  0  0  0
  5  9  1  0  0  0  0
  7  8  2  0  0  0  0
  8  9  1  0  0  0  0
 10  9  1  1  0  0  0
 10 15  1  0  0  0  0
 11 14  1  1  0  0  0
 11 12  1  0  0  0  0
 11 10  1  0  0  0  0
 12 13  1  1  0  0  0
 12 16  1  0  0  0  0
 16 17  1  1  0  0  0
 16 15  1  0  0  0  0
 18 19  1  0  0  0  0
 18 17  1  0  0  0  0
 19 21  1  0  0  0  0
 20 19  1  0  0  0  0
 22 19  2  0  0  0  0
M  END
>  <CHROM.1>
-166.35496757,-32.35935444,175.81770183,38.08728787,52.68276553,60.98807163
-25.77391566,7.07160120,2.04923193,-0.36276139,2.13806919

>  <Name>
lig.pdb

>  <RI>
0

>  <Rbt.Current_Directory>
/home/itssahil/PROJECTS/Mol_Feturizer/New_Systems/rnas/4znp

>  <Rbt.Executable>
rbdock ($Id: //depot/dev/client3/rdock/2013.1/src/exe/rbdock.cxx#4 $)

>  <Rbt.Library>
libRbt.so (2013.1, Build901 2013/11/27)

>  <Rbt.Parameter_File>
/export/apps/rDock/src/rDock_2013.1_src/data/scripts/dock_solv.prm

>  <Rbt.Receptor>
prm/blind_docking_100.prm

>  <SCORE>
-12.2604

>  <SCORE.INTER>
-8.74261

>  <SCORE.INTER.CONST>
1

>  <SCORE.INTER.POLAR>
0

>  <SCORE.INTER.ROT>
5

>  <SCORE.INTER.SOLV>
15.7386

>  <SCORE.INTER.VDW>
-18.008

>  <SCORE.INTER.norm>
-0.397391

>  <SCORE.INTRA>
-3.51784

>  <SCORE.INTRA.DIHEDRAL>
-7.82968

>  <SCORE.INTRA.DIHEDRAL.0>
11.9251

>  <SCORE.INTRA.POLAR>
0

>  <SCORE.INTRA.POLAR.0>
0

>  <SCORE.INTRA.REPUL>
0

>  <SCORE.INTRA.REPUL.0>
0

>  <SCORE.INTRA.SOLV>
2.17942

>  <SCORE.INTRA.SOLV.lig_0>
-40.9823

>  <SCORE.INTRA.VDW>
-0.692707

>  <SCORE.INTRA.VDW.0>
-0.53506

>  <SCORE.INTRA.norm>
-0.159902

>  <SCORE.RESTR>
0

>  <SCORE.RESTR.CAVITY>
0

>  <SCORE.RESTR.norm>
0

>  <SCORE.SYSTEM>
0

>  <SCORE.SYSTEM.CONST>
0

>  <SCORE.SYSTEM.DIHEDRAL>
0

>  <SCORE.SYSTEM.SOLV>
0

>  <SCORE.SYSTEM.norm>
0

>  <SCORE.heavy>
22

>  <SCORE.norm>
-0.557293

>  <RMSD>
13.593

$$$$
lig.pdb
 OpenBabel11021811523D
libRbt.so/2013.1/901 2013/11/27
 22 23  0  0  0  0  0  0  0  0999 V2000
   66.0394  -28.8747    6.5797 O   0  0  0  0  0  0  0  0  0  0  0  0
   65.0869  -28.4581    7.1958 C   0  0  0  0  0  0  0  0  0  0  0  0
   64.8930  -28.7507    8.4696 N   0  0  0  0  0  0  0  0  0  0  0  0
   64.0746  -27.6341    6.5201 C   0  0  0  0  0  0  0  0  0  0  0  0
   62.9624  -26.9543    7.1881 C   0  0  0  0  0  0  0  0  0  0  0  0
   62.6939  -27.0004    8.5106 N   0  0  0  0  0  0  0  0  0  0  0  0
   63.9246  -27.3222    5.2230 N   0  0  0  0  0  0  0  0  0  0  0  0
   62.8422  -26.5052    5.0978 C   0  0  0  0  0  0  0  0  0  0  0  0
   62.2539  -26.2721    6.2955 N   0  0  0  0  0  0  0  0  0  0  0  0
   61.0507  -25.4265    6.5252 C   0  0  1  0  0  0  0  0  0  0  0  0
   61.4536  -24.1765    7.2771 C   0  0  1  0  0  0  0  0  0  0  0  0
   60.6122  -23.0940    6.6521 C   0  0  2  0  0  0  0  0  0  0  0  0
   59.3778  -22.9636    7.3686 O   0  0  0  0  0  0  0  0  0  0  0  0
   61.2044  -24.3172    8.6844 O   0  0  0  0  0  0  0  0  0  0  0  0
   60.5147  -24.9818    5.2815 O   0  0  0  0  0  0  0  0  0  0  0  0
   60.3106  -23.5894    5.2616 C   0  0  2  0  0  0  0  0  0  0  0  0
   61.1972  -23.0529    4.1569 C   0  0  0  0  0  0  0  0  0  0  0  0
   62.5189  -22.8361    4.6065 O   0  0  0  0  0  0  0  0  0  0  0  0
   63.6694  -22.6195    3.5194 P   0  0  0  0  0  0  0  0  0  0  0  0
   63.6288  -23.8615    2.6519 O   0  0  0  0  0  0  0  0  0  0  0  0
   64.8985  -22.4839    4.3806 O   0  0  0  0  0  0  0  0  0  0  0  0
   63.2858  -21.3232    2.8611 O   0  0  0  0  0  0  0  0  0  0  0  0
  2  1  2  0  0  0  0
  2  4  1  0  0  0  0
  3  2  1  0  0  0  0
  4  7  1  0  0  0  0
  4  5  2  0  0  0  0
  5  6  1  0  0  0  0
  5  9  1  0  0  0  0
  7  8  2  0  0  0  0
  8  9  1  0  0  0  0
 10  9  1  6  0  0  0
 10 15  1  0  0  0  0
 11 14  1  1  0  0  0
 11 12  1  0  0  0  0
 11 10  1  0  0  0  0
 12 13  1  1  0  0  0
 12 16  1  0  0  0  0
 16 17  1  6  0  0  0
 16 15  1  0  0  0  0
 18 19  1  0  0  0  0
 18 17  1  0  0  0  0
 19 21  1  0  0  0  0
 20 19  1  0  0  0  0
 22 19  2  0  0  0  0
M  END
>  <CHROM.1>
-172.94342410,69.74559719,33.74415142,-57.42603637,165.20797756,62.70777600
-24.89102306,5.74688486,-1.21595211,0.57485028,-0.71578370

>  <Name>
lig.pdb

>  <RI>
0

>  <Rbt.Current_Directory>
/home/itssahil/PROJECTS/Mol_Feturizer/New_Systems/rnas/4znp

>  <Rbt.Executable>
rbdock ($Id: //depot/dev/client3/rdock/2013.1/src/exe/rbdock.cxx#4 $)

>  <Rbt.Library>
libRbt.so (2013.1, Build901 2013/11/27)

>  <Rbt.Parameter_File>
/export/apps/rDock/src/rDock_2013.1_src/data/scripts/dock_solv.prm

>  <Rbt.Receptor>
prm/blind_docking_100.prm

>  <SCORE>
-11.4592

>  <SCORE.INTER>
-7.04293

>  <SCORE.INTER.CONST>
1

>  <SCORE.INTER.POLAR>
0

>  <SCORE.INTER.ROT>
5

>  <SCORE.INTER.SOLV>
17.3622

>  <SCORE.INTER.VDW>
-17.416

>  <SCORE.INTER.norm>
-0.320133

>  <SCORE.INTRA>
-4.43154

>  <SCORE.INTRA.DIHEDRAL>
-6.12565

>  <SCORE.INTRA.DIHEDRAL.0>
11.9251

>  <SCORE.INTRA.POLAR>
0

>  <SCORE.INTRA.POLAR.0>
0

>  <SCORE.INTRA.REPUL>
0

>  <SCORE.INTRA.REPUL.0>
0

>  <SCORE.INTRA.SOLV>
1.14575

>  <SCORE.INTRA.SOLV.lig_0>
-40.9823

>  <SCORE.INTRA.VDW>
-1.94159

>  <SCORE.INTRA.VDW.0>
-0.53506

>  <SCORE.INTRA.norm>
-0.201434

>  <SCORE.RESTR>
0.0152595

>  <SCORE.RESTR.CAVITY>
0.0152595

>  <SCORE.RESTR.norm>
0.000693613

>  <SCORE.SYSTEM>
0

>  <SCORE.SYSTEM.CONST>
0

>  <SCORE.SYSTEM.DIHEDRAL>
0

>  <SCORE.SYSTEM.SOLV>
0

>  <SCORE.SYSTEM.norm>
0

>  <SCORE.heavy>
22

>  <SCORE.norm>
-0.520873

>  <RMSD>
13.598

$$$$
lig.pdb
 OpenBabel11021811523D
libRbt.so/2013.1/901 2013/11/27
 22 23  0  0  0  0  0  0  0  0999 V2000
   65.8645  -29.0616    6.6747 O   0  0  0  0  0  0  0  0  0  0  0  0
   64.9525  -28.4813    7.2151 C   0  0  0  0  0  0  0  0  0  0  0  0
   64.7982  -28.4849    8.5273 N   0  0  0  0  0  0  0  0  0  0  0  0
   63.9449  -27.7781    6.4086 C   0  0  0  0  0  0  0  0  0  0  0  0
   62.9865  -26.7998    6.9280 C   0  0  0  0  0  0  0  0  0  0  0  0
   62.8754  -26.4175    8.2183 N   0  0  0  0  0  0  0  0  0  0  0  0
   63.6693  -27.8499    5.0966 N   0  0  0  0  0  0  0  0  0  0  0  0
   62.6576  -26.9811    4.8198 C   0  0  0  0  0  0  0  0  0  0  0  0
   62.2405  -26.3324    5.9334 N   0  0  0  0  0  0  0  0  0  0  0  0
   61.1546  -25.3163    5.9944 C   0  0  1  0  0  0  0  0  0  0  0  0
   61.7013  -24.0343    6.5841 C   0  0  1  0  0  0  0  0  0  0  0  0
   61.0254  -22.9526    5.7820 C   0  0  2  0  0  0  0  0  0  0  0  0
   59.8025  -22.5658    6.4215 O   0  0  0  0  0  0  0  0  0  0  0  0
   61.4025  -23.9416    7.9857 O   0  0  0  0  0  0  0  0  0  0  0  0
   60.7116  -24.9872    4.6802 O   0  0  0  0  0  0  0  0  0  0  0  0
   60.6939  -23.5970    4.4611 C   0  0  2  0  0  0  0  0  0  0  0  0
   61.6695  -23.3396    3.3313 C   0  0  0  0  0  0  0  0  0  0  0  0
   61.7198  -21.9706    2.9862 O   0  0  0  0  0  0  0  0  0  0  0  0
   62.6508  -21.5241    1.7670 P   0  0  0  0  0  0  0  0  0  0  0  0
   63.8789  -22.4066    1.8672 O   0  0  0  0  0  0  0  0  0  0  0  0
   62.8878  -20.0663    2.0658 O   0  0  0  0  0  0  0  0  0  0  0  0
   61.7702  -21.7264    0.5652 O   0  0  0  0  0  0  0  0  0  0  0  0
  2  1  2  0  0  0  0
  2  4  1  0  0  0  0
  3  2  1  0  0  0  0
  4  7  1  0  0  0  0
  4  5  2  0  0  0  0
  5  6  1  0  0  0  0
  5  9  1  0  0  0  0
  7  8  2  0  0  0  0
  8  9  1  0  0  0  0
 10  9  1  6  0  0  0
 10 15  1  0  0  0  0
 11 14  1  1  0  0  0
 11 12  1  0  0  0  0
 11 10  1  0  0  0  0
 12 13  1  1  0  0  0
 12 16  1  0  0  0  0
 16 17  1  6  0  0  0
 16 15  1  0  0  0  0
 18 19  1  0  0  0  0
 18 17  1  0  0  0  0
 19 21  1  0  0  0  0
 20 19  1  0  0  0  0
 22 19  2  0  0  0  0
M  END
>  <CHROM.1>
-165.26407938,57.19263913,-63.62935859,-37.25018813,-177.32013782,62.48757554
-24.55514996,4.93451373,-1.26353101,0.73491007,-0.88247776

>  <Name>
lig.pdb

>  <RI>
0

>  <Rbt.Current_Directory>
/home/itssahil/PROJECTS/Mol_Feturizer/New_Systems/rnas/4znp

>  <Rbt.Executable>
rbdock ($Id: //depot/dev/client3/rdock/2013.1/src/exe/rbdock.cxx#4 $)

>  <Rbt.Library>
libRbt.so (2013.1, Build901 2013/11/27)

>  <Rbt.Parameter_File>
/export/apps/rDock/src/rDock_2013.1_src/data/scripts/dock_solv.prm

>  <Rbt.Receptor>
prm/blind_docking_100.prm

>  <SCORE>
-17.2498

>  <SCORE.INTER>
-12.7114

>  <SCORE.INTER.CONST>
1

>  <SCORE.INTER.POLAR>
0

>  <SCORE.INTER.ROT>
5

>  <SCORE.INTER.SOLV>
18.2289

>  <SCORE.INTER.VDW>
-21.4839

>  <SCORE.INTER.norm>
-0.577791

>  <SCORE.INTRA>
-4.53835

>  <SCORE.INTRA.DIHEDRAL>
-7.77789

>  <SCORE.INTRA.DIHEDRAL.0>
11.9251

>  <SCORE.INTRA.POLAR>
0

>  <SCORE.INTRA.POLAR.0>
0

>  <SCORE.INTRA.REPUL>
0

>  <SCORE.INTRA.REPUL.0>
0

>  <SCORE.INTRA.SOLV>
0.64912

>  <SCORE.INTRA.SOLV.lig_0>
-40.9823

>  <SCORE.INTRA.VDW>
-0.973959

>  <SCORE.INTRA.VDW.0>
-0.53506

>  <SCORE.INTRA.norm>
-0.206288

>  <SCORE.RESTR>
0

>  <SCORE.RESTR.CAVITY>
0

>  <SCORE.RESTR.norm>
0

>  <SCORE.SYSTEM>
0

>  <SCORE.SYSTEM.CONST>
0

>  <SCORE.SYSTEM.DIHEDRAL>
0

>  <SCORE.SYSTEM.SOLV>
0

>  <SCORE.SYSTEM.norm>
0

>  <SCORE.heavy>
22

>  <SCORE.norm>
-0.78408

>  <RMSD>
13.602

$$$$
lig.pdb
 OpenBabel11021811523D
libRbt.so/2013.1/901 2013/11/27
 22 23  0  0  0  0  0  0  0  0999 V2000
   64.8663  -28.5814    8.4091 O   0  0  0  0  0  0  0  0  0  0  0  0
   64.9735  -28.5006    7.2081 C   0  0  0  0  0  0  0  0  0  0  0  0
   66.0120  -28.9997    6.5615 N   0  0  0  0  0  0  0  0  0  0  0  0
   63.9528  -27.7925    6.4225 C   0  0  0  0  0  0  0  0  0  0  0  0
   63.0011  -26.8198    6.9642 C   0  0  0  0  0  0  0  0  0  0  0  0
   62.9089  -26.4479    8.2590 N   0  0  0  0  0  0  0  0  0  0  0  0
   63.6575  -27.8542    5.1143 N   0  0  0  0  0  0  0  0  0  0  0  0
   62.6406  -26.9848    4.8598 C   0  0  0  0  0  0  0  0  0  0  0  0
   62.2394  -26.3456    5.9848 N   0  0  0  0  0  0  0  0  0  0  0  0
   61.1532  -25.3316    6.0703 C   0  0  1  0  0  0  0  0  0  0  0  0
   61.5880  -24.2084    6.9865 C   0  0  1  0  0  0  0  0  0  0  0  0
   61.0488  -22.9702    6.3184 C   0  0  2  0  0  0  0  0  0  0  0  0
   59.7348  -22.6839    6.8141 O   0  0  0  0  0  0  0  0  0  0  0  0
   61.0607  -24.3878    8.3102 O   0  0  0  0  0  0  0  0  0  0  0  0
   60.9323  -24.7354    4.7946 O   0  0  0  0  0  0  0  0  0  0  0  0
   60.9439  -23.3296    4.8590 C   0  0  2  0  0  0  0  0  0  0  0  0
   62.0919  -22.8804    3.9787 C   0  0  0  0  0  0  0  0  0  0  0  0
   61.6396  -22.4392    2.7151 O   0  0  0  0  0  0  0  0  0  0  0  0
   62.6736  -21.6949    1.7511 P   0  0  0  0  0  0  0  0  0  0  0  0
   63.9656  -22.4760    1.8832 O   0  0  0  0  0  0  0  0  0  0  0  0
   62.7069  -20.3055    2.3335 O   0  0  0  0  0  0  0  0  0  0  0  0
   61.9925  -21.7379    0.4114 O   0  0  0  0  0  0  0  0  0  0  0  0
  2  1  2  0  0  0  0
  2  4  1  0  0  0  0
  3  2  1  0  0  0  0
  4  7  1  0  0  0  0
  4  5  2  0  0  0  0
  5  6  1  0  0  0  0
  5  9  1  0  0  0  0
  7  8  2  0  0  0  0
  8  9  1  0  0  0  0
 10  9  1  6  0  0  0
 10 15  1  0  0  0  0
 11 14  1  1  0  0  0
 11 12  1  0  0  0  0
 11 10  1  0  0  0  0
 12 13  1  1  0  0  0
 12 16  1  0  0  0  0
 16 17  1  6  0  0  0
 16 15  1  0  0  0  0
 18 19  1  0  0  0  0
 18 17  1  0  0  0  0
 19 21  1  0  0  0  0
 20 19  1  0  0  0  0
 22 19  2  0  0  0  0
M  END
>  <CHROM.1>
19.35536165,41.95143466,-141.33349361,41.47760740,169.53776514,62.51201419
-24.60535014,5.05814546,-1.27873580,0.75817512,-0.90000501

>  <Name>
lig.pdb

>  <RI>
0

>  <Rbt.Current_Directory>
/home/itssahil/PROJECTS/Mol_Feturizer/New_Systems/rnas/4znp

>  <Rbt.Executable>
rbdock ($Id: //depot/dev/client3/rdock/2013.1/src/exe/rbdock.cxx#4 $)

>  <Rbt.Library>
libRbt.so (2013.1, Build901 2013/11/27)

>  <Rbt.Parameter_File>
/export/apps/rDock/src/rDock_2013.1_src/data/scripts/dock_solv.prm

>  <Rbt.Receptor>
prm/blind_docking_100.prm

>  <SCORE>
-15.0161

>  <SCORE.INTER>
-12.6979

>  <SCORE.INTER.CONST>
1

>  <SCORE.INTER.POLAR>
0

>  <SCORE.INTER.ROT>
5

>  <SCORE.INTER.SOLV>
18.5677

>  <SCORE.INTER.VDW>
-21.5878

>  <SCORE.INTER.norm>
-0.577178

>  <SCORE.INTRA>
-2.32171

>  <SCORE.INTRA.DIHEDRAL>
-3.3232

>  <SCORE.INTRA.DIHEDRAL.0>
11.9251

>  <SCORE.INTRA.POLAR>
0

>  <SCORE.INTRA.POLAR.0>
0

>  <SCORE.INTRA.REPUL>
0

>  <SCORE.INTRA.REPUL.0>
0

>  <SCORE.INTRA.SOLV>
0.258776

>  <SCORE.INTRA.SOLV.lig_0>
-40.9823

>  <SCORE.INTRA.VDW>
-0.789496

>  <SCORE.INTRA.VDW.0>
-0.53506

>  <SCORE.INTRA.norm>
-0.105532

>  <SCORE.RESTR>
0.0035255

>  <SCORE.RESTR.CAVITY>
0.0035255

>  <SCORE.RESTR.norm>
0.00016025

>  <SCORE.SYSTEM>
0

>  <SCORE.SYSTEM.CONST>
0

>  <SCORE.SYSTEM.DIHEDRAL>
0

>  <SCORE.SYSTEM.SOLV>
0

>  <SCORE.SYSTEM.norm>
0

>  <SCORE.heavy>
22

>  <SCORE.norm>
-0.68255

>  <RMSD>
13.610

$$$$
lig.pdb
 OpenBabel11021811523D
libRbt.so/2013.1/901 2013/11/27
 22 23  0  0  0  0  0  0  0  0999 V2000
   65.8921  -28.9907    6.6703 O   0  0  0  0  0  0  0  0  0  0  0  0
   64.9588  -28.4437    7.2090 C   0  0  0  0  0  0  0  0  0  0  0  0
   64.7862  -28.4783    8.5185 N   0  0  0  0  0  0  0  0  0  0  0  0
   63.9459  -27.7481    6.4025 C   0  0  0  0  0  0  0  0  0  0  0  0
   62.9811  -26.7761    6.9216 C   0  0  0  0  0  0  0  0  0  0  0  0
   62.8680  -26.3935    8.2116 N   0  0  0  0  0  0  0  0  0  0  0  0
   63.6702  -27.8229    5.0907 N   0  0  0  0  0  0  0  0  0  0  0  0
   62.6524  -26.9614    4.8137 C   0  0  0  0  0  0  0  0  0  0  0  0
   62.2313  -26.3147    5.9270 N   0  0  0  0  0  0  0  0  0  0  0  0
   61.1385  -25.3060    5.9878 C   0  0  1  0  0  0  0  0  0  0  0  0
   61.6774  -24.0188    6.5733 C   0  0  1  0  0  0  0  0  0  0  0  0
   60.9924  -22.9438    5.7699 C   0  0  2  0  0  0  0  0  0  0  0  0
   59.7681  -22.5640    6.4110 O   0  0  0  0  0  0  0  0  0  0  0  0
   61.3807  -23.9249    7.9753 O   0  0  0  0  0  0  0  0  0  0  0  0
   60.6906  -24.9831    4.6737 O   0  0  0  0  0  0  0  0  0  0  0  0
   60.6627  -23.5937    4.4513 C   0  0  2  0  0  0  0  0  0  0  0  0
   61.6343  -23.3322    3.3190 C   0  0  0  0  0  0  0  0  0  0  0  0
   61.6606  -21.9665    2.9580 O   0  0  0  0  0  0  0  0  0  0  0  0
   62.6293  -21.5084    1.7730 P   0  0  0  0  0  0  0  0  0  0  0  0
   62.8902  -20.0371    2.0258 O   0  0  0  0  0  0  0  0  0  0  0  0
   61.7996  -21.8075    0.5511 O   0  0  0  0  0  0  0  0  0  0  0  0
   63.8052  -22.4357    1.9074 O   0  0  0  0  0  0  0  0  0  0  0  0
  2  1  2  0  0  0  0
  2  4  1  0  0  0  0
  3  2  1  0  0  0  0
  4  7  1  0  0  0  0
  4  5  2  0  0  0  0
  5  6  1  0  0  0  0
  5  9  1  0  0  0  0
  7  8  2  0  0  0  0
  8  9  1  0  0  0  0
 10  9  1  6  0  0  0
 10 15  1  0  0  0  0
 11 14  1  1  0  0  0
 11 12  1  0  0  0  0
 11 10  1  0  0  0  0
 12 13  1  1  0  0  0
 12 16  1  0  0  0  0
 16 17  1  6  0  0  0
 16 15  1  0  0  0  0
 18 19  1  0  0  0  0
 18 17  1  0  0  0  0
 19 21  1  0  0  0  0
 20 19  1  0  0  0  0
 22 19  2  0  0  0  0
M  END
>  <CHROM.1>
-163.47632518,57.31689547,-64.44979833,-156.02596392,-179.78219570,62.47134465
-24.54376860,4.92733106,-1.25986072,0.72893027,-0.88618913

>  <Name>
lig.pdb

>  <RI>
0

>  <Rbt.Current_Directory>
/home/itssahil/PROJECTS/Mol_Feturizer/New_Systems/rnas/4znp

>  <Rbt.Executable>
rbdock ($Id: //depot/dev/client3/rdock/2013.1/src/exe/rbdock.cxx#4 $)

>  <Rbt.Library>
libRbt.so (2013.1, Build901 2013/11/27)

>  <Rbt.Parameter_File>
/export/apps/rDock/src/rDock_2013.1_src/data/scripts/dock_solv.prm

>  <Rbt.Receptor>
prm/blind_docking_100.prm

>  <SCORE>
-16.9334

>  <SCORE.INTER>
-12.898

>  <SCORE.INTER.CONST>
1

>  <SCORE.INTER.POLAR>
0

>  <SCORE.INTER.ROT>
5

>  <SCORE.INTER.SOLV>
17.8047

>  <SCORE.INTER.VDW>
-21.4669

>  <SCORE.INTER.norm>
-0.586274

>  <SCORE.INTRA>
-4.03532

>  <SCORE.INTRA.DIHEDRAL>
-7.52098

>  <SCORE.INTRA.DIHEDRAL.0>
11.9251

>  <SCORE.INTRA.POLAR>
0

>  <SCORE.INTRA.POLAR.0>
0

>  <SCORE.INTRA.REPUL>
0

>  <SCORE.INTRA.REPUL.0>
0

>  <SCORE.INTRA.SOLV>
0.80813

>  <SCORE.INTRA.SOLV.lig_0>
-40.9823

>  <SCORE.INTRA.VDW>
-0.678896

>  <SCORE.INTRA.VDW.0>
-0.53506

>  <SCORE.INTRA.norm>
-0.183424

>  <SCORE.RESTR>
0

>  <SCORE.RESTR.CAVITY>
0

>  <SCORE.RESTR.norm>
0

>  <SCORE.SYSTEM>
0

>  <SCORE.SYSTEM.CONST>
0

>  <SCORE.SYSTEM.DIHEDRAL>
0

>  <SCORE.SYSTEM.SOLV>
0

>  <SCORE.SYSTEM.norm>
0

>  <SCORE.heavy>
22

>  <SCORE.norm>
-0.769698

>  <RMSD>
13.610

$$$$
lig.pdb
 OpenBabel11021811523D
libRbt.so/2013.1/901 2013/11/27
 22 23  0  0  0  0  0  0  0  0999 V2000
   62.5196  -22.8487    2.0000 O   0  0  0  0  0  0  0  0  0  0  0  0
   63.1337  -22.3856    2.9322 C   0  0  0  0  0  0  0  0  0  0  0  0
   63.7617  -21.2259    2.8517 N   0  0  0  0  0  0  0  0  0  0  0  0
   63.2375  -23.1352    4.1922 C   0  0  0  0  0  0  0  0  0  0  0  0
   62.6967  -24.4775    4.4181 C   0  0  0  0  0  0  0  0  0  0  0  0
   62.0109  -25.2105    3.5149 N   0  0  0  0  0  0  0  0  0  0  0  0
   63.8078  -22.8049    5.3618 N   0  0  0  0  0  0  0  0  0  0  0  0
   63.6619  -23.8494    6.2235 C   0  0  0  0  0  0  0  0  0  0  0  0
   62.9892  -24.8763    5.6508 N   0  0  0  0  0  0  0  0  0  0  0  0
   62.6535  -26.1704    6.3051 C   0  0  1  0  0  0  0  0  0  0  0  0
   63.6705  -26.4630    7.3869 C   0  0  1  0  0  0  0  0  0  0  0  0
   62.8507  -27.0678    8.4971 C   0  0  2  0  0  0  0  0  0  0  0  0
   62.8032  -28.4921    8.3454 O   0  0  0  0  0  0  0  0  0  0  0  0
   64.6884  -27.3573    6.9109 O   0  0  0  0  0  0  0  0  0  0  0  0
   61.3932  -26.0782    6.9646 O   0  0  0  0  0  0  0  0  0  0  0  0
   61.4622  -26.5171    8.3000 C   0  0  2  0  0  0  0  0  0  0  0  0
   61.0935  -25.3206    9.1526 C   0  0  0  0  0  0  0  0  0  0  0  0
   59.7375  -24.9598    8.9880 O   0  0  0  0  0  0  0  0  0  0  0  0
   58.6162  -25.8744    9.6653 P   0  0  0  0  0  0  0  0  0  0  0  0
   58.9655  -25.8962   11.1399 O   0  0  0  0  0  0  0  0  0  0  0  0
   58.8006  -27.1865    8.9475 O   0  0  0  0  0  0  0  0  0  0  0  0
   57.3328  -25.1895    9.2853 O   0  0  0  0  0  0  0  0  0  0  0  0
  2  1  2  0  0  0  0
  2  4  1  0  0  0  0
  3  2  1  0  0  0  0
  4  7  1  0  0  0  0
  4  5  2  0  0  0  0
  5  6  1  0  0  0  0
  5  9  1  0  0  0  0
  7  8  2  0  0  0  0
  8  9  1  0  0  0  0
 10  9  1  1  0  0  0
 10 15  1  0  0  0  0
 11 14  1  6  0  0  0
 11 12  1  0  0  0  0
 11 10  1  0  0  0  0
 12 13  1  6  0  0  0
 12 16  1  0  0  0  0
 16 17  1  1  0  0  0
 16 15  1  0  0  0  0
 18 19  1  0  0  0  0
 18 17  1  0  0  0  0
 19 21  1  0  0  0  0
 20 19  1  0  0  0  0
 22 19  2  0  0  0  0
M  END
>  <CHROM.1>
3.11927756,153.77244036,-174.39311338,57.00436797,74.39810206,61.64607166
-25.25206741,6.93334420,0.95529423,0.46919837,-0.79274912

>  <Name>
lig.pdb

>  <RI>
0

>  <Rbt.Current_Directory>
/home/itssahil/PROJECTS/Mol_Feturizer/New_Systems/rnas/4znp

>  <Rbt.Executable>
rbdock ($Id: //depot/dev/client3/rdock/2013.1/src/exe/rbdock.cxx#4 $)

>  <Rbt.Library>
libRbt.so (2013.1, Build901 2013/11/27)

>  <Rbt.Parameter_File>
/export/apps/rDock/src/rDock_2013.1_src/data/scripts/dock_solv.prm

>  <Rbt.Receptor>
prm/blind_docking_100.prm

>  <SCORE>
-14.2422

>  <SCORE.INTER>
-9.56799

>  <SCORE.INTER.CONST>
1

>  <SCORE.INTER.POLAR>
0

>  <SCORE.INTER.ROT>
5

>  <SCORE.INTER.SOLV>
18.3812

>  <SCORE.INTER.VDW>
-19.4391

>  <SCORE.INTER.norm>
-0.434909

>  <SCORE.INTRA>
-4.67423

>  <SCORE.INTRA.DIHEDRAL>
-8.32099

>  <SCORE.INTRA.DIHEDRAL.0>
11.9251

>  <SCORE.INTRA.POLAR>
0

>  <SCORE.INTRA.POLAR.0>
0

>  <SCORE.INTRA.REPUL>
0

>  <SCORE.INTRA.REPUL.0>
0

>  <SCORE.INTRA.SOLV>
0.307295

>  <SCORE.INTRA.SOLV.lig_0>
-40.9823

>  <SCORE.INTRA.VDW>
-0.667389

>  <SCORE.INTRA.VDW.0>
-0.53506

>  <SCORE.INTRA.norm>
-0.212465

>  <SCORE.RESTR>
0

>  <SCORE.RESTR.CAVITY>
0

>  <SCORE.RESTR.norm>
0

>  <SCORE.SYSTEM>
0

>  <SCORE.SYSTEM.CONST>
0

>  <SCORE.SYSTEM.DIHEDRAL>
0

>  <SCORE.SYSTEM.SOLV>
0

>  <SCORE.SYSTEM.norm>
0

>  <SCORE.heavy>
22

>  <SCORE.norm>
-0.647374

>  <RMSD>
13.628

$$$$
lig.pdb
 OpenBabel11021811523D
libRbt.so/2013.1/901 2013/11/27
 22 23  0  0  0  0  0  0  0  0999 V2000
   67.3534  -27.3983    7.3360 O   0  0  0  0  0  0  0  0  0  0  0  0
   66.2109  -27.6075    7.0022 C   0  0  0  0  0  0  0  0  0  0  0  0
   65.7480  -28.8306    6.8139 N   0  0  0  0  0  0  0  0  0  0  0  0
   65.2990  -26.4831    6.7488 C   0  0  0  0  0  0  0  0  0  0  0  0
   63.9114  -26.6120    6.2980 C   0  0  0  0  0  0  0  0  0  0  0  0
   63.2765  -27.7736    6.0317 N   0  0  0  0  0  0  0  0  0  0  0  0
   65.4923  -25.1589    6.8568 N   0  0  0  0  0  0  0  0  0  0  0  0
   64.3312  -24.5253    6.5326 C   0  0  0  0  0  0  0  0  0  0  0  0
   63.3601  -25.4078    6.1962 N   0  0  0  0  0  0  0  0  0  0  0  0
   61.9712  -25.0613    5.7885 C   0  0  1  0  0  0  0  0  0  0  0  0
   61.6670  -23.6390    6.2064 C   0  0  1  0  0  0  0  0  0  0  0  0
   60.8549  -23.0934    5.0604 C   0  0  2  0  0  0  0  0  0  0  0  0
   59.4605  -23.3191    5.3025 O   0  0  0  0  0  0  0  0  0  0  0  0
   60.9472  -23.6081    7.4487 O   0  0  0  0  0  0  0  0  0  0  0  0
   61.8519  -25.0881    4.3684 O   0  0  0  0  0  0  0  0  0  0  0  0
   61.2729  -23.9086    3.8643 C   0  0  2  0  0  0  0  0  0  0  0  0
   62.3175  -23.2820    2.9639 C   0  0  0  0  0  0  0  0  0  0  0  0
   61.9295  -21.9944    2.5308 O   0  0  0  0  0  0  0  0  0  0  0  0
   62.8214  -21.2588    1.4281 P   0  0  0  0  0  0  0  0  0  0  0  0
   62.2012  -21.6447    0.1002 O   0  0  0  0  0  0  0  0  0  0  0  0
   64.1878  -21.8395    1.6858 O   0  0  0  0  0  0  0  0  0  0  0  0
   62.7321  -19.8097    1.8193 O   0  0  0  0  0  0  0  0  0  0  0  0
  2  1  2  0  0  0  0
  2  4  1  0  0  0  0
  3  2  1  0  0  0  0
  4  7  1  0  0  0  0
  4  5  2  0  0  0  0
  5  6  1  0  0  0  0
  5  9  1  0  0  0  0
  7  8  2  0  0  0  0
  8  9  1  0  0  0  0
 10  9  1  6  0  0  0
 10 15  1  0  0  0  0
 11 14  1  1  0  0  0
 11 12  1  0  0  0  0
 11 10  1  0  0  0  0
 12 13  1  1  0  0  0
 12 16  1  0  0  0  0
 16 17  1  1  0  0  0
 16 15  1  0  0  0  0
 18 19  1  0  0  0  0
 18 17  1  0  0  0  0
 19 21  1  0  0  0  0
 20 19  1  0  0  0  0
 22 19  2  0  0  0  0
M  END
>  <CHROM.1>
177.86015726,163.24312490,-54.18188955,91.69382490,-172.39175687,63.08216118
-24.15814833,4.65307369,-1.17466345,0.33983786,-0.87314359

>  <Name>
lig.pdb

>  <RI>
0

>  <Rbt.Current_Directory>
/home/itssahil/PROJECTS/Mol_Feturizer/New_Systems/rnas/4znp

>  <Rbt.Executable>
rbdock ($Id: //depot/dev/client3/rdock/2013.1/src/exe/rbdock.cxx#4 $)

>  <Rbt.Library>
libRbt.so (2013.1, Build901 2013/11/27)

>  <Rbt.Parameter_File>
/export/apps/rDock/src/rDock_2013.1_src/data/scripts/dock_solv.prm

>  <Rbt.Receptor>
prm/blind_docking_100.prm

>  <SCORE>
-18.5465

>  <SCORE.INTER>
-15.0403

>  <SCORE.INTER.CONST>
1

>  <SCORE.INTER.POLAR>
0

>  <SCORE.INTER.ROT>
5

>  <SCORE.INTER.SOLV>
19.7359

>  <SCORE.INTER.VDW>
-23.5388

>  <SCORE.INTER.norm>
-0.683649

>  <SCORE.INTRA>
-3.50624

>  <SCORE.INTRA.DIHEDRAL>
-7.72291

>  <SCORE.INTRA.DIHEDRAL.0>
11.9251

>  <SCORE.INTRA.POLAR>
0

>  <SCORE.INTRA.POLAR.0>
0

>  <SCORE.INTRA.REPUL>
0

>  <SCORE.INTRA.REPUL.0>
0

>  <SCORE.INTRA.SOLV>
-0.0782514

>  <SCORE.INTRA.SOLV.lig_0>
-40.9823

>  <SCORE.INTRA.VDW>
0.394341

>  <SCORE.INTRA.VDW.0>
-0.53506

>  <SCORE.INTRA.norm>
-0.159374

>  <SCORE.RESTR>
0

>  <SCORE.RESTR.CAVITY>
0

>  <SCORE.RESTR.norm>
0

>  <SCORE.SYSTEM>
0

>  <SCORE.SYSTEM.CONST>
0

>  <SCORE.SYSTEM.DIHEDRAL>
0

>  <SCORE.SYSTEM.SOLV>
0

>  <SCORE.SYSTEM.norm>
0

>  <SCORE.heavy>
22

>  <SCORE.norm>
-0.843024

>  <RMSD>
13.632

$$$$
lig.pdb
 OpenBabel11021811523D
libRbt.so/2013.1/901 2013/11/27
 22 23  0  0  0  0  0  0  0  0999 V2000
   45.9021  -13.8916    6.7274 O   0  0  0  0  0  0  0  0  0  0  0  0
   45.8976  -15.0989    6.7793 C   0  0  0  0  0  0  0  0  0  0  0  0
   45.1163  -15.7622    7.6132 N   0  0  0  0  0  0  0  0  0  0  0  0
   46.8108  -15.8770    5.9302 C   0  0  0  0  0  0  0  0  0  0  0  0
   47.0631  -17.3136    6.0639 C   0  0  0  0  0  0  0  0  0  0  0  0
   46.5129  -18.1248    6.9926 N   0  0  0  0  0  0  0  0  0  0  0  0
   47.5840  -15.4976    4.9003 N   0  0  0  0  0  0  0  0  0  0  0  0
   48.2330  -16.5946    4.4208 C   0  0  0  0  0  0  0  0  0  0  0  0
   47.9143  -17.7079    5.1236 N   0  0  0  0  0  0  0  0  0  0  0  0
   48.4404  -19.0774    4.8720 C   0  0  1  0  0  0  0  0  0  0  0  0
   49.8283  -18.9789    4.2771 C   0  0  1  0  0  0  0  0  0  0  0  0
   50.5791  -20.1126    4.9262 C   0  0  2  0  0  0  0  0  0  0  0  0
   50.4656  -21.2937    4.1223 O   0  0  0  0  0  0  0  0  0  0  0  0
   49.7872  -19.1000    2.8466 O   0  0  0  0  0  0  0  0  0  0  0  0
   48.5886  -19.7832    6.1014 O   0  0  0  0  0  0  0  0  0  0  0  0
   49.8694  -20.3513    6.2336 C   0  0  2  0  0  0  0  0  0  0  0  0
   50.4892  -19.7047    7.4552 C   0  0  0  0  0  0  0  0  0  0  0  0
   50.6412  -20.6273    8.5143 O   0  0  0  0  0  0  0  0  0  0  0  0
   51.7625  -21.7582    8.3868 P   0  0  0  0  0  0  0  0  0  0  0  0
   51.5038  -22.7000    9.5457 O   0  0  0  0  0  0  0  0  0  0  0  0
   53.0346  -20.9569    8.4889 O   0  0  0  0  0  0  0  0  0  0  0  0
   51.5433  -22.3108    7.0058 O   0  0  0  0  0  0  0  0  0  0  0  0
  2  1  2  0  0  0  0
  2  4  1  0  0  0  0
  3  2  1  0  0  0  0
  4  7  1  0  0  0  0
  4  5  2  0  0  0  0
  5  6  1  0  0  0  0
  5  9  1  0  0  0  0
  7  8  2  0  0  0  0
  8  9  1  0  0  0  0
 10  9  1  1  0  0  0
 10 15  1  0  0  0  0
 11 14  1  6  0  0  0
 11 12  1  0  0  0  0
 11 10  1  0  0  0  0
 12 13  1  6  0  0  0
 12 16  1  0  0  0  0
 16 17  1  1  0  0  0
 16 15  1  0  0  0  0
 18 19  1  0  0  0  0
 18 17  1  0  0  0  0
 19 21  1  0  0  0  0
 20 19  1  0  0  0  0
 22 19  2  0  0  0  0
M  END
>  <CHROM.1>
168.92502326,-150.04094630,-130.38972108,-170.53807468,71.71518234,49.21870670
-19.01828691,6.39216962,2.85835250,0.84650776,-1.49412932

>  <Name>
lig.pdb

>  <RI>
0

>  <Rbt.Current_Directory>
/home/afrankz/demos/rdock_decoys_rna/rnas/4znp

>  <Rbt.Executable>
rbdock ($Id: //depot/dev/client3/rdock/2013.1/src/exe/rbdock.cxx#4 $)

>  <Rbt.Library>
libRbt.so (2013.1, Build901 2013/11/27)

>  <Rbt.Parameter_File>
/export/apps/rDock/src/rDock_2013.1_src/data/scripts/dock_solv.prm

>  <Rbt.Receptor>
prm/blind_docking_60.prm

>  <SCORE>
1.21203

>  <SCORE.INTER>
-0.571724

>  <SCORE.INTER.CONST>
1

>  <SCORE.INTER.POLAR>
0

>  <SCORE.INTER.ROT>
5

>  <SCORE.INTER.SOLV>
14.41

>  <SCORE.INTER.VDW>
-12.1178

>  <SCORE.INTER.norm>
-0.0259874

>  <SCORE.INTRA>
-0.896286

>  <SCORE.INTRA.DIHEDRAL>
-3.49875

>  <SCORE.INTRA.DIHEDRAL.0>
11.9251

>  <SCORE.INTRA.POLAR>
0

>  <SCORE.INTRA.POLAR.0>
0

>  <SCORE.INTRA.REPUL>
0

>  <SCORE.INTRA.REPUL.0>
0

>  <SCORE.INTRA.SOLV>
2.18509

>  <SCORE.INTRA.SOLV.lig_0>
-40.9823

>  <SCORE.INTRA.VDW>
-0.239458

>  <SCORE.INTRA.VDW.0>
-0.53506

>  <SCORE.INTRA.norm>
-0.0407403

>  <SCORE.RESTR>
2.68004

>  <SCORE.RESTR.CAVITY>
2.68004

>  <SCORE.RESTR.norm>
0.12182

>  <SCORE.SYSTEM>
0

>  <SCORE.SYSTEM.CONST>
0

>  <SCORE.SYSTEM.DIHEDRAL>
0

>  <SCORE.SYSTEM.SOLV>
0

>  <SCORE.SYSTEM.norm>
0

>  <SCORE.heavy>
22

>  <SCORE.norm>
0.0550922

>  <RMSD>
13.659

$$$$
lig.pdb
 OpenBabel11021811523D
libRbt.so/2013.1/901 2013/11/27
 22 23  0  0  0  0  0  0  0  0999 V2000
   67.0452  -26.0558    7.3368 O   0  0  0  0  0  0  0  0  0  0  0  0
   66.5015  -27.0858    7.0144 C   0  0  0  0  0  0  0  0  0  0  0  0
   67.1450  -28.2394    6.9854 N   0  0  0  0  0  0  0  0  0  0  0  0
   65.0928  -27.0761    6.5950 C   0  0  0  0  0  0  0  0  0  0  0  0
   64.2619  -25.8765    6.4697 C   0  0  0  0  0  0  0  0  0  0  0  0
   64.6590  -24.6141    6.7381 N   0  0  0  0  0  0  0  0  0  0  0  0
   64.2763  -28.0842    6.2496 N   0  0  0  0  0  0  0  0  0  0  0  0
   63.0638  -27.5623    5.9146 C   0  0  0  0  0  0  0  0  0  0  0  0
   63.0507  -26.2137    6.0413 N   0  0  0  0  0  0  0  0  0  0  0  0
   61.8915  -25.3235    5.7598 C   0  0  1  0  0  0  0  0  0  0  0  0
   61.8475  -24.2176    6.7919 C   0  0  1  0  0  0  0  0  0  0  0  0
   61.4323  -23.0040    6.0012 C   0  0  2  0  0  0  0  0  0  0  0  0
   60.0042  -22.8840    6.0096 O   0  0  0  0  0  0  0  0  0  0  0  0
   60.9190  -24.5280    7.8426 O   0  0  0  0  0  0  0  0  0  0  0  0
   62.0582  -24.6789    4.4995 O   0  0  0  0  0  0  0  0  0  0  0  0
   61.8824  -23.2855    4.5912 C   0  0  2  0  0  0  0  0  0  0  0  0
   63.2033  -22.6696    4.1785 C   0  0  0  0  0  0  0  0  0  0  0  0
   63.4023  -22.7470    2.7820 O   0  0  0  0  0  0  0  0  0  0  0  0
   62.6137  -21.7252    1.8405 P   0  0  0  0  0  0  0  0  0  0  0  0
   62.9989  -20.3490    2.3453 O   0  0  0  0  0  0  0  0  0  0  0  0
   61.1780  -22.1137    2.0826 O   0  0  0  0  0  0  0  0  0  0  0  0
   63.0813  -22.0933    0.4597 O   0  0  0  0  0  0  0  0  0  0  0  0
  2  1  2  0  0  0  0
  2  4  1  0  0  0  0
  3  2  1  0  0  0  0
  4  7  1  0  0  0  0
  4  5  2  0  0  0  0
  5  6  1  0  0  0  0
  5  9  1  0  0  0  0
  7  8  2  0  0  0  0
  8  9  1  0  0  0  0
 10  9  1  1  0  0  0
 10 15  1  0  0  0  0
 11 14  1  1  0  0  0
 11 12  1  0  0  0  0
 11 10  1  0  0  0  0
 12 13  1  6  0  0  0
 12 16  1  0  0  0  0
 16 17  1  1  0  0  0
 16 15  1  0  0  0  0
 18 19  1  0  0  0  0
 18 17  1  0  0  0  0
 19 21  1  0  0  0  0
 20 19  1  0  0  0  0
 22 19  2  0  0  0  0
M  END
>  <CHROM.1>
2.87197453,-38.00678521,-167.53871907,56.59918545,76.78504404,63.17127755
-24.31194451,4.94678970,-1.12939416,0.41058666,-0.90749564

>  <Name>
lig.pdb

>  <RI>
0

>  <Rbt.Current_Directory>
/home/itssahil/PROJECTS/Mol_Feturizer/New_Systems/rnas/4znp

>  <Rbt.Executable>
rbdock ($Id: //depot/dev/client3/rdock/2013.1/src/exe/rbdock.cxx#4 $)

>  <Rbt.Library>
libRbt.so (2013.1, Build901 2013/11/27)

>  <Rbt.Parameter_File>
/export/apps/rDock/src/rDock_2013.1_src/data/scripts/dock_solv.prm

>  <Rbt.Receptor>
prm/blind_docking_100.prm

>  <SCORE>
-19.7995

>  <SCORE.INTER>
-15.3141

>  <SCORE.INTER.CONST>
1

>  <SCORE.INTER.POLAR>
0

>  <SCORE.INTER.ROT>
5

>  <SCORE.INTER.SOLV>
19.3248

>  <SCORE.INTER.VDW>
-23.5844

>  <SCORE.INTER.norm>
-0.696097

>  <SCORE.INTRA>
-4.48533

>  <SCORE.INTRA.DIHEDRAL>
-7.64258

>  <SCORE.INTRA.DIHEDRAL.0>
11.9251

>  <SCORE.INTRA.POLAR>
0

>  <SCORE.INTRA.POLAR.0>
0

>  <SCORE.INTRA.REPUL>
0

>  <SCORE.INTRA.REPUL.0>
0

>  <SCORE.INTRA.SOLV>
1.50918

>  <SCORE.INTRA.SOLV.lig_0>
-40.9823

>  <SCORE.INTRA.VDW>
-1.41864

>  <SCORE.INTRA.VDW.0>
-0.53506

>  <SCORE.INTRA.norm>
-0.203879

>  <SCORE.RESTR>
0

>  <SCORE.RESTR.CAVITY>
0

>  <SCORE.RESTR.norm>
0

>  <SCORE.SYSTEM>
0

>  <SCORE.SYSTEM.CONST>
0

>  <SCORE.SYSTEM.DIHEDRAL>
0

>  <SCORE.SYSTEM.SOLV>
0

>  <SCORE.SYSTEM.norm>
0

>  <SCORE.heavy>
22

>  <SCORE.norm>
-0.899976

>  <RMSD>
13.663

$$$$
lig.pdb
 OpenBabel11021811523D
libRbt.so/2013.1/901 2013/11/27
 22 23  0  0  0  0  0  0  0  0999 V2000
   45.8895  -13.8842    6.6702 O   0  0  0  0  0  0  0  0  0  0  0  0
   45.8848  -15.0909    6.7364 C   0  0  0  0  0  0  0  0  0  0  0  0
   45.0961  -15.7444    7.5710 N   0  0  0  0  0  0  0  0  0  0  0  0
   46.8059  -15.8787    5.9051 C   0  0  0  0  0  0  0  0  0  0  0  0
   47.0566  -17.3137    6.0576 C   0  0  0  0  0  0  0  0  0  0  0  0
   46.4974  -18.1142    6.9902 N   0  0  0  0  0  0  0  0  0  0  0  0
   47.5890  -15.5112    4.8783 N   0  0  0  0  0  0  0  0  0  0  0  0
   48.2423  -16.6137    4.4176 C   0  0  0  0  0  0  0  0  0  0  0  0
   47.9167  -17.7189    5.1300 N   0  0  0  0  0  0  0  0  0  0  0  0
   48.4448  -19.0912    4.8992 C   0  0  1  0  0  0  0  0  0  0  0  0
   49.8392  -18.9997    4.3183 C   0  0  1  0  0  0  0  0  0  0  0  0
   50.5824  -20.1264    4.9880 C   0  0  2  0  0  0  0  0  0  0  0  0
   50.4771  -21.3162    4.1959 O   0  0  0  0  0  0  0  0  0  0  0  0
   49.8136  -19.1364    2.8890 O   0  0  0  0  0  0  0  0  0  0  0  0
   48.5794  -19.7836    6.1378 O   0  0  0  0  0  0  0  0  0  0  0  0
   49.8584  -20.3506    6.2901 C   0  0  2  0  0  0  0  0  0  0  0  0
   50.4652  -19.6909    7.5112 C   0  0  0  0  0  0  0  0  0  0  0  0
   50.6655  -20.6163    8.5597 O   0  0  0  0  0  0  0  0  0  0  0  0
   51.8151  -21.7143    8.3999 P   0  0  0  0  0  0  0  0  0  0  0  0
   53.1141  -20.9429    8.5198 O   0  0  0  0  0  0  0  0  0  0  0  0
   51.5309  -22.2744    7.0301 O   0  0  0  0  0  0  0  0  0  0  0  0
   51.5104  -22.6983    9.4952 O   0  0  0  0  0  0  0  0  0  0  0  0
  2  1  2  0  0  0  0
  2  4  1  0  0  0  0
  3  2  1  0  0  0  0
  4  7  1  0  0  0  0
  4  5  2  0  0  0  0
  5  6  1  0  0  0  0
  5  9  1  0  0  0  0
  7  8  2  0  0  0  0
  8  9  1  0  0  0  0
 10  9  1  1  0  0  0
 10 15  1  0  0  0  0
 11 14  1  6  0  0  0
 11 12  1  0  0  0  0
 11 10  1  0  0  0  0
 12 13  1  6  0  0  0
 12 16  1  0  0  0  0
 16 17  1  1  0  0  0
 16 15  1  0  0  0  0
 18 19  1  0  0  0  0
 18 17  1  0  0  0  0
 19 21  1  0  0  0  0
 20 19  1  0  0  0  0
 22 19  2  0  0  0  0
M  END
>  <CHROM.1>
168.96992931,-149.95760136,-127.51371838,70.94695038,70.79269531,49.22674354
-19.01529361,6.40479185,2.86193242,0.84224352,-1.50403749

>  <Name>
lig.pdb

>  <RI>
0

>  <Rbt.Current_Directory>
/home/afrankz/demos/rdock_decoys_rna/rnas/4znp

>  <Rbt.Executable>
rbdock ($Id: //depot/dev/client3/rdock/2013.1/src/exe/rbdock.cxx#4 $)

>  <Rbt.Library>
libRbt.so (2013.1, Build901 2013/11/27)

>  <Rbt.Parameter_File>
/export/apps/rDock/src/rDock_2013.1_src/data/scripts/dock_solv.prm

>  <Rbt.Receptor>
prm/blind_docking_60.prm

>  <SCORE>
0.788958

>  <SCORE.INTER>
-0.609013

>  <SCORE.INTER.CONST>
1

>  <SCORE.INTER.POLAR>
0

>  <SCORE.INTER.ROT>
5

>  <SCORE.INTER.SOLV>
13.9543

>  <SCORE.INTER.VDW>
-11.9908

>  <SCORE.INTER.norm>
-0.0276824

>  <SCORE.INTRA>
-1.18161

>  <SCORE.INTRA.DIHEDRAL>
-3.36728

>  <SCORE.INTRA.DIHEDRAL.0>
11.9251

>  <SCORE.INTRA.POLAR>
0

>  <SCORE.INTRA.POLAR.0>
0

>  <SCORE.INTRA.REPUL>
0

>  <SCORE.INTRA.REPUL.0>
0

>  <SCORE.INTRA.SOLV>
1.1854

>  <SCORE.INTRA.SOLV.lig_0>
-40.9823

>  <SCORE.INTRA.VDW>
-0.0906776

>  <SCORE.INTRA.VDW.0>
-0.53506

>  <SCORE.INTRA.norm>
-0.0537097

>  <SCORE.RESTR>
2.57958

>  <SCORE.RESTR.CAVITY>
2.57958

>  <SCORE.RESTR.norm>
0.117254

>  <SCORE.SYSTEM>
0

>  <SCORE.SYSTEM.CONST>
0

>  <SCORE.SYSTEM.DIHEDRAL>
0

>  <SCORE.SYSTEM.SOLV>
0

>  <SCORE.SYSTEM.norm>
0

>  <SCORE.heavy>
22

>  <SCORE.norm>
0.0358617

>  <RMSD>
13.668

$$$$
lig.pdb
 OpenBabel11021811523D
libRbt.so/2013.1/901 2013/11/27
 22 23  0  0  0  0  0  0  0  0999 V2000
   56.5310   -6.7380    8.9332 O   0  0  0  0  0  0  0  0  0  0  0  0
   55.4559   -6.1929    9.0197 C   0  0  0  0  0  0  0  0  0  0  0  0
   54.3895   -6.8157    9.4895 N   0  0  0  0  0  0  0  0  0  0  0  0
   55.2915   -4.8084    8.5546 C   0  0  0  0  0  0  0  0  0  0  0  0
   54.4516   -3.7986    9.2029 C   0  0  0  0  0  0  0  0  0  0  0  0
   53.6948   -3.9952   10.3038 N   0  0  0  0  0  0  0  0  0  0  0  0
   55.8260   -4.1704    7.5012 N   0  0  0  0  0  0  0  0  0  0  0  0
   55.3853   -2.8818    7.5079 C   0  0  0  0  0  0  0  0  0  0  0  0
   54.5502   -2.6471    8.5483 N   0  0  0  0  0  0  0  0  0  0  0  0
   53.8864   -1.3512    8.8574 C   0  0  1  0  0  0  0  0  0  0  0  0
   54.8428   -0.2161    8.5628 C   0  0  1  0  0  0  0  0  0  0  0  0
   53.9616    0.8513    7.9675 C   0  0  2  0  0  0  0  0  0  0  0  0
   53.4732    1.7120    9.0042 O   0  0  0  0  0  0  0  0  0  0  0  0
   55.5038    0.2263    9.7586 O   0  0  0  0  0  0  0  0  0  0  0  0
   52.7652   -1.1535    7.9997 O   0  0  0  0  0  0  0  0  0  0  0  0
   52.7952    0.1060    7.3725 C   0  0  2  0  0  0  0  0  0  0  0  0
   52.8702   -0.1696    5.8850 C   0  0  0  0  0  0  0  0  0  0  0  0
   51.5853   -0.2546    5.3039 O   0  0  0  0  0  0  0  0  0  0  0  0
   51.4253    0.0857    3.7512 P   0  0  0  0  0  0  0  0  0  0  0  0
   51.5120   -1.2524    3.0450 O   0  0  0  0  0  0  0  0  0  0  0  0
   52.5893    1.0112    3.5075 O   0  0  0  0  0  0  0  0  0  0  0  0
   50.1034    0.7992    3.6863 O   0  0  0  0  0  0  0  0  0  0  0  0
  2  1  2  0  0  0  0
  2  4  1  0  0  0  0
  3  2  1  0  0  0  0
  4  7  1  0  0  0  0
  4  5  2  0  0  0  0
  5  6  1  0  0  0  0
  5  9  1  0  0  0  0
  7  8  2  0  0  0  0
  8  9  1  0  0  0  0
 10  9  1  6  0  0  0
 10 15  1  0  0  0  0
 11 14  1  1  0  0  0
 11 12  1  0  0  0  0
 11 10  1  0  0  0  0
 12 13  1  1  0  0  0
 12 16  1  0  0  0  0
 16 17  1  6  0  0  0
 16 15  1  0  0  0  0
 18 19  1  0  0  0  0
 18 17  1  0  0  0  0
 19 21  1  0  0  0  0
 20 19  1  0  0  0  0
 22 19  2  0  0  0  0
M  END
>  <CHROM.1>
-142.87450070,142.56181209,-151.55262618,94.66456654,154.07544291,53.58093637
-1.69695774,7.16772249,0.43199727,1.05045625,-2.78566082

>  <Name>
lig.pdb

>  <RI>
0

>  <Rbt.Current_Directory>
/home/afrankz/demos/rdock_decoys_rna/rnas/4znp

>  <Rbt.Executable>
rbdock ($Id: //depot/dev/client3/rdock/2013.1/src/exe/rbdock.cxx#4 $)

>  <Rbt.Library>
libRbt.so (2013.1, Build901 2013/11/27)

>  <Rbt.Parameter_File>
/export/apps/rDock/src/rDock_2013.1_src/data/scripts/dock_solv.prm

>  <Rbt.Receptor>
prm/blind_docking_60.prm

>  <SCORE>
7.96727

>  <SCORE.INTER>
3.5563

>  <SCORE.INTER.CONST>
1

>  <SCORE.INTER.POLAR>
0

>  <SCORE.INTER.ROT>
5

>  <SCORE.INTER.SOLV>
15.5908

>  <SCORE.INTER.VDW>
-9.75941

>  <SCORE.INTER.norm>
0.16165

>  <SCORE.INTRA>
0.501242

>  <SCORE.INTRA.DIHEDRAL>
1.64263

>  <SCORE.INTRA.DIHEDRAL.0>
11.9251

>  <SCORE.INTRA.POLAR>
0

>  <SCORE.INTRA.POLAR.0>
0

>  <SCORE.INTRA.REPUL>
0

>  <SCORE.INTRA.REPUL.0>
0

>  <SCORE.INTRA.SOLV>
-0.385234

>  <SCORE.INTRA.SOLV.lig_0>
-40.9823

>  <SCORE.INTRA.VDW>
-0.127456

>  <SCORE.INTRA.VDW.0>
-0.53506

>  <SCORE.INTRA.norm>
0.0227837

>  <SCORE.RESTR>
3.90973

>  <SCORE.RESTR.CAVITY>
3.90973

>  <SCORE.RESTR.norm>
0.177715

>  <SCORE.SYSTEM>
0

>  <SCORE.SYSTEM.CONST>
0

>  <SCORE.SYSTEM.DIHEDRAL>
0

>  <SCORE.SYSTEM.SOLV>
0

>  <SCORE.SYSTEM.norm>
0

>  <SCORE.heavy>
22

>  <SCORE.norm>
0.362148

>  <RMSD>
13.744

$$$$
lig.pdb
 OpenBabel11021811523D
libRbt.so/2013.1/901 2013/11/27
 22 23  0  0  0  0  0  0  0  0999 V2000
   66.9686  -25.8232    7.3027 O   0  0  0  0  0  0  0  0  0  0  0  0
   66.4802  -26.9094    7.0975 C   0  0  0  0  0  0  0  0  0  0  0  0
   67.1527  -28.0294    7.2954 N   0  0  0  0  0  0  0  0  0  0  0  0
   65.1125  -27.0153    6.5700 C   0  0  0  0  0  0  0  0  0  0  0  0
   64.2527  -25.8791    6.2307 C   0  0  0  0  0  0  0  0  0  0  0  0
   64.5804  -24.5766    6.3701 N   0  0  0  0  0  0  0  0  0  0  0  0
   64.3645  -28.0943    6.2894 N   0  0  0  0  0  0  0  0  0  0  0  0
   63.1667  -27.6730    5.7970 C   0  0  0  0  0  0  0  0  0  0  0  0
   63.0947  -26.3210    5.7531 N   0  0  0  0  0  0  0  0  0  0  0  0
   61.9323  -25.5257    5.2719 C   0  0  1  0  0  0  0  0  0  0  0  0
   61.8673  -24.2214    6.0366 C   0  0  1  0  0  0  0  0  0  0  0  0
   61.4525  -23.2144    4.9954 C   0  0  2  0  0  0  0  0  0  0  0  0
   60.0235  -23.1098    4.9628 O   0  0  0  0  0  0  0  0  0  0  0  0
   60.9285  -24.3040    7.1203 O   0  0  0  0  0  0  0  0  0  0  0  0
   62.1094  -25.1706    3.9029 O   0  0  0  0  0  0  0  0  0  0  0  0
   61.9218  -23.7928    3.6857 C   0  0  2  0  0  0  0  0  0  0  0  0
   63.2429  -23.2686    3.1619 C   0  0  0  0  0  0  0  0  0  0  0  0
   63.2105  -21.8694    2.9695 O   0  0  0  0  0  0  0  0  0  0  0  0
   62.3909  -21.2882    1.7272 P   0  0  0  0  0  0  0  0  0  0  0  0
   60.9396  -21.5976    2.0351 O   0  0  0  0  0  0  0  0  0  0  0  0
   62.9756  -22.0596    0.5723 O   0  0  0  0  0  0  0  0  0  0  0  0
   62.7813  -19.8364    1.7021 O   0  0  0  0  0  0  0  0  0  0  0  0
  2  1  2  0  0  0  0
  2  4  1  0  0  0  0
  3  2  1  0  0  0  0
  4  7  1  0  0  0  0
  4  5  2  0  0  0  0
  5  6  1  0  0  0  0
  5  9  1  0  0  0  0
  7  8  2  0  0  0  0
  8  9  1  0  0  0  0
 10  9  1  1  0  0  0
 10 15  1  0  0  0  0
 11 14  1  1  0  0  0
 11 12  1  0  0  0  0
 11 10  1  0  0  0  0
 12 13  1  6  0  0  0
 12 16  1  0  0  0  0
 16 17  1  1  0  0  0
 16 15  1  0  0  0  0
 18 19  1  0  0  0  0
 18 17  1  0  0  0  0
 19 21  1  0  0  0  0
 20 19  1  0  0  0  0
 22 19  2  0  0  0  0
M  END
>  <CHROM.1>
1.20676572,-30.89616004,-58.86882166,66.98507094,-73.67510459,63.12670117
-24.24176986,4.60914232,-1.15360739,0.15886317,-0.78177224

>  <Name>
lig.pdb

>  <RI>
0

>  <Rbt.Current_Directory>
/home/itssahil/PROJECTS/Mol_Feturizer/New_Systems/rnas/4znp

>  <Rbt.Executable>
rbdock ($Id: //depot/dev/client3/rdock/2013.1/src/exe/rbdock.cxx#4 $)

>  <Rbt.Library>
libRbt.so (2013.1, Build901 2013/11/27)

>  <Rbt.Parameter_File>
/export/apps/rDock/src/rDock_2013.1_src/data/scripts/dock_solv.prm

>  <Rbt.Receptor>
prm/blind_docking_100.prm

>  <SCORE>
-20.0558

>  <SCORE.INTER>
-15.3806

>  <SCORE.INTER.CONST>
1

>  <SCORE.INTER.POLAR>
0

>  <SCORE.INTER.ROT>
5

>  <SCORE.INTER.SOLV>
21.0863

>  <SCORE.INTER.VDW>
-24.2158

>  <SCORE.INTER.norm>
-0.699117

>  <SCORE.INTRA>
-4.67522

>  <SCORE.INTRA.DIHEDRAL>
-8.54121

>  <SCORE.INTRA.DIHEDRAL.0>
11.9251

>  <SCORE.INTRA.POLAR>
0

>  <SCORE.INTRA.POLAR.0>
0

>  <SCORE.INTRA.REPUL>
0

>  <SCORE.INTRA.REPUL.0>
0

>  <SCORE.INTRA.SOLV>
1.66344

>  <SCORE.INTRA.SOLV.lig_0>
-40.9823

>  <SCORE.INTRA.VDW>
-1.23634

>  <SCORE.INTRA.VDW.0>
-0.53506

>  <SCORE.INTRA.norm>
-0.21251

>  <SCORE.RESTR>
0

>  <SCORE.RESTR.CAVITY>
0

>  <SCORE.RESTR.norm>
0

>  <SCORE.SYSTEM>
0

>  <SCORE.SYSTEM.CONST>
0

>  <SCORE.SYSTEM.DIHEDRAL>
0

>  <SCORE.SYSTEM.SOLV>
0

>  <SCORE.SYSTEM.norm>
0

>  <SCORE.heavy>
22

>  <SCORE.norm>
-0.911627

>  <RMSD>
13.762

$$$$
lig.pdb
 OpenBabel11021811523D
libRbt.so/2013.1/901 2013/11/27
 22 23  0  0  0  0  0  0  0  0999 V2000
   57.5457  -25.7968   10.8523 O   0  0  0  0  0  0  0  0  0  0  0  0
   58.5342  -26.4663   10.6655 C   0  0  0  0  0  0  0  0  0  0  0  0
   58.7490  -27.5965   11.3154 N   0  0  0  0  0  0  0  0  0  0  0  0
   59.5664  -26.0107    9.7236 C   0  0  0  0  0  0  0  0  0  0  0  0
   60.8565  -26.6698    9.5076 C   0  0  0  0  0  0  0  0  0  0  0  0
   61.2923  -27.7738   10.1516 N   0  0  0  0  0  0  0  0  0  0  0  0
   59.5867  -24.9582    8.8904 N   0  0  0  0  0  0  0  0  0  0  0  0
   60.7617  -24.9751    8.2020 C   0  0  0  0  0  0  0  0  0  0  0  0
   61.5389  -26.0217    8.5703 N   0  0  0  0  0  0  0  0  0  0  0  0
   62.8851  -26.3424    8.0223 C   0  0  1  0  0  0  0  0  0  0  0  0
   62.9347  -27.8063    7.6417 C   0  0  1  0  0  0  0  0  0  0  0  0
   63.7382  -27.8193    6.3670 C   0  0  2  0  0  0  0  0  0  0  0  0
   65.1283  -27.9907    6.6708 O   0  0  0  0  0  0  0  0  0  0  0  0
   63.5449  -28.5896    8.6793 O   0  0  0  0  0  0  0  0  0  0  0  0
   63.1145  -25.6149    6.8183 O   0  0  0  0  0  0  0  0  0  0  0  0
   63.5422  -26.4502    5.7694 C   0  0  2  0  0  0  0  0  0  0  0  0
   62.4853  -26.3400    4.6900 C   0  0  0  0  0  0  0  0  0  0  0  0
   62.7142  -25.2305    3.8459 O   0  0  0  0  0  0  0  0  0  0  0  0
   62.5380  -23.7621    4.4501 P   0  0  0  0  0  0  0  0  0  0  0  0
   61.2709  -23.8281    5.2790 O   0  0  0  0  0  0  0  0  0  0  0  0
   62.4424  -22.9164    3.2065 O   0  0  0  0  0  0  0  0  0  0  0  0
   63.8231  -23.5375    5.1978 O   0  0  0  0  0  0  0  0  0  0  0  0
  2  1  2  0  0  0  0
  2  4  1  0  0  0  0
  3  2  1  0  0  0  0
  4  7  1  0  0  0  0
  4  5  2  0  0  0  0
  5  6  1  0  0  0  0
  5  9  1  0  0  0  0
  7  8  2  0  0  0  0
  8  9  1  0  0  0  0
 10  9  1  6  0  0  0
 10 15  1  0  0  0  0
 11 14  1  1  0  0  0
 11 12  1  0  0  0  0
 11 10  1  0  0  0  0
 12 13  1  1  0  0  0
 12 16  1  0  0  0  0
 16 17  1  6  0  0  0
 16 15  1  0  0  0  0
 18 19  1  0  0  0  0
 18 17  1  0  0  0  0
 19 21  1  0  0  0  0
 20 19  1  0  0  0  0
 22 19  2  0  0  0  0
M  END
>  <CHROM.1>
174.08153180,49.37296873,-156.79018584,-43.02110377,-68.24724650,61.85095074
-25.86187270,7.22530817,2.21336843,-0.59183297,2.32019096

>  <Name>
lig.pdb

>  <RI>
0

>  <Rbt.Current_Directory>
/home/itssahil/PROJECTS/Mol_Feturizer/New_Systems/rnas/4znp

>  <Rbt.Executable>
rbdock ($Id: //depot/dev/client3/rdock/2013.1/src/exe/rbdock.cxx#4 $)

>  <Rbt.Library>
libRbt.so (2013.1, Build901 2013/11/27)

>  <Rbt.Parameter_File>
/export/apps/rDock/src/rDock_2013.1_src/data/scripts/dock_solv.prm

>  <Rbt.Receptor>
prm/blind_docking_100.prm

>  <SCORE>
-11.5473

>  <SCORE.INTER>
-7.91445

>  <SCORE.INTER.CONST>
1

>  <SCORE.INTER.POLAR>
0

>  <SCORE.INTER.ROT>
5

>  <SCORE.INTER.SOLV>
12.7169

>  <SCORE.INTER.VDW>
-16.4486

>  <SCORE.INTER.norm>
-0.359748

>  <SCORE.INTRA>
-3.6329

>  <SCORE.INTRA.DIHEDRAL>
-6.88969

>  <SCORE.INTRA.DIHEDRAL.0>
11.9251

>  <SCORE.INTRA.POLAR>
0

>  <SCORE.INTRA.POLAR.0>
0

>  <SCORE.INTRA.REPUL>
0

>  <SCORE.INTRA.REPUL.0>
0

>  <SCORE.INTRA.SOLV>
2.93063

>  <SCORE.INTRA.SOLV.lig_0>
-40.9823

>  <SCORE.INTRA.VDW>
-1.65337

>  <SCORE.INTRA.VDW.0>
-0.53506

>  <SCORE.INTRA.norm>
-0.165132

>  <SCORE.RESTR>
0

>  <SCORE.RESTR.CAVITY>
0

>  <SCORE.RESTR.norm>
0

>  <SCORE.SYSTEM>
0

>  <SCORE.SYSTEM.CONST>
0

>  <SCORE.SYSTEM.DIHEDRAL>
0

>  <SCORE.SYSTEM.SOLV>
0

>  <SCORE.SYSTEM.norm>
0

>  <SCORE.heavy>
22

>  <SCORE.norm>
-0.524879

>  <RMSD>
13.808

$$$$
lig.pdb
 OpenBabel11021811523D
libRbt.so/2013.1/901 2013/11/27
 22 23  0  0  0  0  0  0  0  0999 V2000
   47.0449  -15.9117    4.1634 O   0  0  0  0  0  0  0  0  0  0  0  0
   46.5486  -16.0731    5.2533 C   0  0  0  0  0  0  0  0  0  0  0  0
   45.5395  -15.3351    5.6808 N   0  0  0  0  0  0  0  0  0  0  0  0
   47.0930  -17.0858    6.1689 C   0  0  0  0  0  0  0  0  0  0  0  0
   48.4009  -17.7299    6.0273 C   0  0  0  0  0  0  0  0  0  0  0  0
   49.2841  -17.5042    5.0311 N   0  0  0  0  0  0  0  0  0  0  0  0
   46.5703  -17.6339    7.2774 N   0  0  0  0  0  0  0  0  0  0  0  0
   47.4747  -18.5124    7.7923 C   0  0  0  0  0  0  0  0  0  0  0  0
   48.5972  -18.5709    7.0364 N   0  0  0  0  0  0  0  0  0  0  0  0
   49.7856  -19.4255    7.3063 C   0  0  1  0  0  0  0  0  0  0  0  0
   49.3294  -20.8367    7.6069 C   0  0  1  0  0  0  0  0  0  0  0  0
   50.3630  -21.7004    6.9316 C   0  0  2  0  0  0  0  0  0  0  0  0
   51.4252  -21.9933    7.8481 O   0  0  0  0  0  0  0  0  0  0  0  0
   49.2654  -21.0685    9.0228 O   0  0  0  0  0  0  0  0  0  0  0  0
   50.6035  -19.5161    6.1424 O   0  0  0  0  0  0  0  0  0  0  0  0
   50.9121  -20.8499    5.8158 C   0  0  2  0  0  0  0  0  0  0  0  0
   50.3211  -21.0912    4.4422 C   0  0  0  0  0  0  0  0  0  0  0  0
   50.6680  -20.0640    3.5364 O   0  0  0  0  0  0  0  0  0  0  0  0
   49.6330  -19.6837    2.3803 P   0  0  0  0  0  0  0  0  0  0  0  0
   48.4278  -19.1165    3.1033 O   0  0  0  0  0  0  0  0  0  0  0  0
   49.4052  -21.0130    1.7081 O   0  0  0  0  0  0  0  0  0  0  0  0
   50.4119  -18.7312    1.5161 O   0  0  0  0  0  0  0  0  0  0  0  0
  2  1  2  0  0  0  0
  2  4  1  0  0  0  0
  3  2  1  0  0  0  0
  4  7  1  0  0  0  0
  4  5  2  0  0  0  0
  5  6  1  0  0  0  0
  5  9  1  0  0  0  0
  7  8  2  0  0  0  0
  8  9  1  0  0  0  0
 10  9  1  6  0  0  0
 10 15  1  0  0  0  0
 11 14  1  1  0  0  0
 11 12  1  0  0  0  0
 11 10  1  0  0  0  0
 12 13  1  1  0  0  0
 12 16  1  0  0  0  0
 16 17  1  6  0  0  0
 16 15  1  0  0  0  0
 18 19  1  0  0  0  0
 18 17  1  0  0  0  0
 19 21  1  0  0  0  0
 20 19  1  0  0  0  0
 22 19  2  0  0  0  0
M  END
>  <CHROM.1>
15.47347062,-131.60920040,166.71937058,65.42334429,-148.29223701,49.04771910
-19.14735630,5.30162976,-2.96713728,-0.87541265,1.76620925

>  <Name>
lig.pdb

>  <RI>
0

>  <Rbt.Current_Directory>
/home/afrankz/demos/rdock_decoys_rna/rnas/4znp

>  <Rbt.Executable>
rbdock ($Id: //depot/dev/client3/rdock/2013.1/src/exe/rbdock.cxx#4 $)

>  <Rbt.Library>
libRbt.so (2013.1, Build901 2013/11/27)

>  <Rbt.Parameter_File>
/export/apps/rDock/src/rDock_2013.1_src/data/scripts/dock_solv.prm

>  <Rbt.Receptor>
prm/blind_docking_60.prm

>  <SCORE>
7.13814

>  <SCORE.INTER>
1.51505

>  <SCORE.INTER.CONST>
1

>  <SCORE.INTER.POLAR>
0

>  <SCORE.INTER.ROT>
5

>  <SCORE.INTER.SOLV>
12.1603

>  <SCORE.INTER.VDW>
-9.97674

>  <SCORE.INTER.norm>
0.068866

>  <SCORE.INTRA>
-2.81751

>  <SCORE.INTRA.DIHEDRAL>
-4.00939

>  <SCORE.INTRA.DIHEDRAL.0>
11.9251

>  <SCORE.INTRA.POLAR>
0

>  <SCORE.INTRA.POLAR.0>
0

>  <SCORE.INTRA.REPUL>
0

>  <SCORE.INTRA.REPUL.0>
0

>  <SCORE.INTRA.SOLV>
2.10985

>  <SCORE.INTRA.SOLV.lig_0>
-40.9823

>  <SCORE.INTRA.VDW>
-1.86774

>  <SCORE.INTRA.VDW.0>
-0.53506

>  <SCORE.INTRA.norm>
-0.128069

>  <SCORE.RESTR>
8.44061

>  <SCORE.RESTR.CAVITY>
8.44061

>  <SCORE.RESTR.norm>
0.383664

>  <SCORE.SYSTEM>
0

>  <SCORE.SYSTEM.CONST>
0

>  <SCORE.SYSTEM.DIHEDRAL>
0

>  <SCORE.SYSTEM.SOLV>
0

>  <SCORE.SYSTEM.norm>
0

>  <SCORE.heavy>
22

>  <SCORE.norm>
0.324461

>  <RMSD>
13.810

$$$$
lig.pdb
 OpenBabel11021811523D
libRbt.so/2013.1/901 2013/11/27
 22 23  0  0  0  0  0  0  0  0999 V2000
   45.4018  -13.8258    7.0308 O   0  0  0  0  0  0  0  0  0  0  0  0
   46.2606  -14.3283    6.3450 C   0  0  0  0  0  0  0  0  0  0  0  0
   46.9821  -13.6204    5.4940 N   0  0  0  0  0  0  0  0  0  0  0  0
   46.5011  -15.7769    6.4080 C   0  0  0  0  0  0  0  0  0  0  0  0
   47.3023  -16.5380    5.4466 C   0  0  0  0  0  0  0  0  0  0  0  0
   47.9170  -16.0279    4.3579 N   0  0  0  0  0  0  0  0  0  0  0  0
   46.0798  -16.6957    7.2915 N   0  0  0  0  0  0  0  0  0  0  0  0
   46.5910  -17.9059    6.9327 C   0  0  0  0  0  0  0  0  0  0  0  0
   47.3434  -17.8149    5.8100 N   0  0  0  0  0  0  0  0  0  0  0  0
   48.0491  -18.9415    5.1405 C   0  0  1  0  0  0  0  0  0  0  0  0
   49.3199  -18.4263    4.5003 C   0  0  1  0  0  0  0  0  0  0  0  0
   50.3174  -19.5293    4.7427 C   0  0  2  0  0  0  0  0  0  0  0  0
   50.2989  -20.4509    3.6453 O   0  0  0  0  0  0  0  0  0  0  0  0
   49.1246  -18.1650    3.1017 O   0  0  0  0  0  0  0  0  0  0  0  0
   48.4583  -19.9099    6.1031 O   0  0  0  0  0  0  0  0  0  0  0  0
   49.8205  -20.2396    5.9750 C   0  0  2  0  0  0  0  0  0  0  0  0
   50.4721  -19.8391    7.2825 C   0  0  0  0  0  0  0  0  0  0  0  0
   50.5304  -20.9204    8.1899 O   0  0  0  0  0  0  0  0  0  0  0  0
   51.7049  -21.9912    8.0273 P   0  0  0  0  0  0  0  0  0  0  0  0
   52.9587  -21.2706    8.4808 O   0  0  0  0  0  0  0  0  0  0  0  0
   51.6475  -22.3041    6.5544 O   0  0  0  0  0  0  0  0  0  0  0  0
   51.2441  -23.1438    8.8758 O   0  0  0  0  0  0  0  0  0  0  0  0
  2  1  2  0  0  0  0
  2  4  1  0  0  0  0
  3  2  1  0  0  0  0
  4  7  1  0  0  0  0
  4  5  2  0  0  0  0
  5  6  1  0  0  0  0
  5  9  1  0  0  0  0
  7  8  2  0  0  0  0
  8  9  1  0  0  0  0
 10  9  1  1  0  0  0
 10 15  1  0  0  0  0
 11 14  1  6  0  0  0
 11 12  1  0  0  0  0
 11 10  1  0  0  0  0
 12 13  1  6  0  0  0
 12 16  1  0  0  0  0
 16 17  1  1  0  0  0
 16 15  1  0  0  0  0
 18 19  1  0  0  0  0
 18 17  1  0  0  0  0
 19 21  1  0  0  0  0
 20 19  1  0  0  0  0
 22 19  2  0  0  0  0
M  END
>  <CHROM.1>
166.66505400,32.94466183,-148.29299438,72.05804778,81.14829377,49.07409551
-18.82605063,6.29368410,2.81395175,0.89486234,-1.40963473

>  <Name>
lig.pdb

>  <RI>
0

>  <Rbt.Current_Directory>
/home/afrankz/demos/rdock_decoys_rna/rnas/4znp

>  <Rbt.Executable>
rbdock ($Id: //depot/dev/client3/rdock/2013.1/src/exe/rbdock.cxx#4 $)

>  <Rbt.Library>
libRbt.so (2013.1, Build901 2013/11/27)

>  <Rbt.Parameter_File>
/export/apps/rDock/src/rDock_2013.1_src/data/scripts/dock_solv.prm

>  <Rbt.Receptor>
prm/blind_docking_60.prm

>  <SCORE>
-0.782403

>  <SCORE.INTER>
-2.19487

>  <SCORE.INTER.CONST>
1

>  <SCORE.INTER.POLAR>
0

>  <SCORE.INTER.ROT>
5

>  <SCORE.INTER.SOLV>
15.2944

>  <SCORE.INTER.VDW>
-13.4947

>  <SCORE.INTER.norm>
-0.0997666

>  <SCORE.INTRA>
-1.75251

>  <SCORE.INTRA.DIHEDRAL>
-3.84956

>  <SCORE.INTRA.DIHEDRAL.0>
11.9251

>  <SCORE.INTRA.POLAR>
0

>  <SCORE.INTRA.POLAR.0>
0

>  <SCORE.INTRA.REPUL>
0

>  <SCORE.INTRA.REPUL.0>
0

>  <SCORE.INTRA.SOLV>
1.28246

>  <SCORE.INTRA.SOLV.lig_0>
-40.9823

>  <SCORE.INTRA.VDW>
-0.468956

>  <SCORE.INTRA.VDW.0>
-0.53506

>  <SCORE.INTRA.norm>
-0.0796594

>  <SCORE.RESTR>
3.16497

>  <SCORE.RESTR.CAVITY>
3.16497

>  <SCORE.RESTR.norm>
0.143862

>  <SCORE.SYSTEM>
0

>  <SCORE.SYSTEM.CONST>
0

>  <SCORE.SYSTEM.DIHEDRAL>
0

>  <SCORE.SYSTEM.SOLV>
0

>  <SCORE.SYSTEM.norm>
0

>  <SCORE.heavy>
22

>  <SCORE.norm>
-0.0355638

>  <RMSD>
13.842

$$$$
lig.pdb
 OpenBabel11021811523D
libRbt.so/2013.1/901 2013/11/27
 22 23  0  0  0  0  0  0  0  0999 V2000
   59.4088  -21.9217    6.1608 O   0  0  0  0  0  0  0  0  0  0  0  0
   59.8553  -22.8699    5.5590 C   0  0  0  0  0  0  0  0  0  0  0  0
   59.2088  -23.4285    4.5512 N   0  0  0  0  0  0  0  0  0  0  0  0
   61.1345  -23.4670    5.9679 C   0  0  0  0  0  0  0  0  0  0  0  0
   61.5793  -24.8189    5.6217 C   0  0  0  0  0  0  0  0  0  0  0  0
   60.8762  -25.7161    4.8978 N   0  0  0  0  0  0  0  0  0  0  0  0
   62.1383  -22.9647    6.7046 N   0  0  0  0  0  0  0  0  0  0  0  0
   63.1242  -23.9007    6.7860 C   0  0  0  0  0  0  0  0  0  0  0  0
   62.7911  -25.0331    6.1215 N   0  0  0  0  0  0  0  0  0  0  0  0
   63.6330  -26.2551    6.0062 C   0  0  1  0  0  0  0  0  0  0  0  0
   64.7940  -26.1561    6.9718 C   0  0  1  0  0  0  0  0  0  0  0  0
   64.9467  -27.5605    7.4960 C   0  0  2  0  0  0  0  0  0  0  0  0
   65.8682  -28.2881    6.6743 O   0  0  0  0  0  0  0  0  0  0  0  0
   65.9793  -25.6894    6.3087 O   0  0  0  0  0  0  0  0  0  0  0  0
   62.8903  -27.4059    6.4008 O   0  0  0  0  0  0  0  0  0  0  0  0
   63.5811  -28.1804    7.3514 C   0  0  2  0  0  0  0  0  0  0  0  0
   62.7167  -28.1841    8.5953 C   0  0  0  0  0  0  0  0  0  0  0  0
   62.3492  -26.8753    8.9800 O   0  0  0  0  0  0  0  0  0  0  0  0
   61.5214  -26.6811   10.3327 P   0  0  0  0  0  0  0  0  0  0  0  0
   62.4603  -27.1282   11.4351 O   0  0  0  0  0  0  0  0  0  0  0  0
   60.3308  -27.5770   10.1076 O   0  0  0  0  0  0  0  0  0  0  0  0
   61.1537  -25.2234   10.3087 O   0  0  0  0  0  0  0  0  0  0  0  0
  2  1  2  0  0  0  0
  2  4  1  0  0  0  0
  3  2  1  0  0  0  0
  4  7  1  0  0  0  0
  4  5  2  0  0  0  0
  5  6  1  0  0  0  0
  5  9  1  0  0  0  0
  7  8  2  0  0  0  0
  8  9  1  0  0  0  0
 10  9  1  1  0  0  0
 10 15  1  0  0  0  0
 11 14  1  6  0  0  0
 11 12  1  0  0  0  0
 11 10  1  0  0  0  0
 12 13  1  6  0  0  0
 12 16  1  0  0  0  0
 16 17  1  1  0  0  0
 16 15  1  0  0  0  0
 18 19  1  0  0  0  0
 18 17  1  0  0  0  0
 19 21  1  0  0  0  0
 20 19  1  0  0  0  0
 22 19  2  0  0  0  0
M  END
>  <CHROM.1>
160.09907001,-167.96206976,66.40300335,64.88281447,-175.73337727,62.34671791
-25.79992945,7.48496113,2.17963441,0.56937277,-1.01075796

>  <Name>
lig.pdb

>  <RI>
0

>  <Rbt.Current_Directory>
/home/itssahil/PROJECTS/Mol_Feturizer/New_Systems/rnas/4znp

>  <Rbt.Executable>
rbdock ($Id: //depot/dev/client3/rdock/2013.1/src/exe/rbdock.cxx#4 $)

>  <Rbt.Library>
libRbt.so (2013.1, Build901 2013/11/27)

>  <Rbt.Parameter_File>
/export/apps/rDock/src/rDock_2013.1_src/data/scripts/dock_solv.prm

>  <Rbt.Receptor>
prm/blind_docking_100.prm

>  <SCORE>
-15.2034

>  <SCORE.INTER>
-10.1839

>  <SCORE.INTER.CONST>
1

>  <SCORE.INTER.POLAR>
0

>  <SCORE.INTER.ROT>
5

>  <SCORE.INTER.SOLV>
15.572

>  <SCORE.INTER.VDW>
-18.9133

>  <SCORE.INTER.norm>
-0.462907

>  <SCORE.INTRA>
-5.01949

>  <SCORE.INTRA.DIHEDRAL>
-8.05103

>  <SCORE.INTRA.DIHEDRAL.0>
11.9251

>  <SCORE.INTRA.POLAR>
0

>  <SCORE.INTRA.POLAR.0>
0

>  <SCORE.INTRA.REPUL>
0

>  <SCORE.INTRA.REPUL.0>
0

>  <SCORE.INTRA.SOLV>
0.30042

>  <SCORE.INTRA.SOLV.lig_0>
-40.9823

>  <SCORE.INTRA.VDW>
-1.14418

>  <SCORE.INTRA.VDW.0>
-0.53506

>  <SCORE.INTRA.norm>
-0.228158

>  <SCORE.RESTR>
0

>  <SCORE.RESTR.CAVITY>
0

>  <SCORE.RESTR.norm>
0

>  <SCORE.SYSTEM>
0

>  <SCORE.SYSTEM.CONST>
0

>  <SCORE.SYSTEM.DIHEDRAL>
0

>  <SCORE.SYSTEM.SOLV>
0

>  <SCORE.SYSTEM.norm>
0

>  <SCORE.heavy>
22

>  <SCORE.norm>
-0.691065

>  <RMSD>
13.875

$$$$
lig.pdb
 OpenBabel11021811523D
libRbt.so/2013.1/901 2013/11/27
 22 23  0  0  0  0  0  0  0  0999 V2000
   62.0206  -21.4798   -0.4209 O   0  0  0  0  0  0  0  0  0  0  0  0
   62.6170  -21.4552    0.6299 C   0  0  0  0  0  0  0  0  0  0  0  0
   63.8415  -20.9690    0.7303 N   0  0  0  0  0  0  0  0  0  0  0  0
   62.0013  -22.0167    1.8407 C   0  0  0  0  0  0  0  0  0  0  0  0
   62.7026  -22.2636    3.1026 C   0  0  0  0  0  0  0  0  0  0  0  0
   64.0130  -22.0319    3.3316 N   0  0  0  0  0  0  0  0  0  0  0  0
   60.7410  -22.4146    2.0768 N   0  0  0  0  0  0  0  0  0  0  0  0
   60.6577  -22.8413    3.3674 C   0  0  0  0  0  0  0  0  0  0  0  0
   61.8513  -22.7458    4.0009 N   0  0  0  0  0  0  0  0  0  0  0  0
   62.1199  -23.1252    5.4149 C   0  0  1  0  0  0  0  0  0  0  0  0
   60.9570  -23.9354    5.9453 C   0  0  1  0  0  0  0  0  0  0  0  0
   61.6128  -24.9889    6.7999 C   0  0  2  0  0  0  0  0  0  0  0  0
   61.7253  -24.5192    8.1492 O   0  0  0  0  0  0  0  0  0  0  0  0
   60.0518  -23.1103    6.6952 O   0  0  0  0  0  0  0  0  0  0  0  0
   63.2598  -23.9777    5.4896 O   0  0  0  0  0  0  0  0  0  0  0  0
   62.9981  -25.1464    6.2289 C   0  0  2  0  0  0  0  0  0  0  0  0
   63.1951  -26.3012    5.2687 C   0  0  0  0  0  0  0  0  0  0  0  0
   62.9543  -27.5459    5.8921 O   0  0  0  0  0  0  0  0  0  0  0  0
   63.9014  -27.9912    7.0993 P   0  0  0  0  0  0  0  0  0  0  0  0
   63.6088  -29.4640    7.3050 O   0  0  0  0  0  0  0  0  0  0  0  0
   63.4404  -27.0883    8.2142 O   0  0  0  0  0  0  0  0  0  0  0  0
   65.2783  -27.6383    6.6090 O   0  0  0  0  0  0  0  0  0  0  0  0
  2  1  2  0  0  0  0
  2  4  1  0  0  0  0
  3  2  1  0  0  0  0
  4  7  1  0  0  0  0
  4  5  2  0  0  0  0
  5  6  1  0  0  0  0
  5  9  1  0  0  0  0
  7  8  2  0  0  0  0
  8  9  1  0  0  0  0
 10  9  1  6  0  0  0
 10 15  1  0  0  0  0
 11 14  1  1  0  0  0
 11 12  1  0  0  0  0
 11 10  1  0  0  0  0
 12 13  1  1  0  0  0
 12 16  1  0  0  0  0
 16 17  1  6  0  0  0
 16 15  1  0  0  0  0
 18 19  1  0  0  0  0
 18 17  1  0  0  0  0
 19 21  1  0  0  0  0
 20 19  1  0  0  0  0
 22 19  2  0  0  0  0
M  END
>  <CHROM.1>
168.44495349,-166.05972004,-61.79926244,-166.56004910,-63.34344840,62.62299000
-24.53466571,4.94024134,-1.79012278,-0.76262942,2.22190512

>  <Name>
lig.pdb

>  <RI>
0

>  <Rbt.Current_Directory>
/home/itssahil/PROJECTS/Mol_Feturizer/New_Systems/rnas/4znp

>  <Rbt.Executable>
rbdock ($Id: //depot/dev/client3/rdock/2013.1/src/exe/rbdock.cxx#4 $)

>  <Rbt.Library>
libRbt.so (2013.1, Build901 2013/11/27)

>  <Rbt.Parameter_File>
/export/apps/rDock/src/rDock_2013.1_src/data/scripts/dock_solv.prm

>  <Rbt.Receptor>
prm/blind_docking_100.prm

>  <SCORE>
-16.4572

>  <SCORE.INTER>
-12.6894

>  <SCORE.INTER.CONST>
1

>  <SCORE.INTER.POLAR>
0

>  <SCORE.INTER.ROT>
5

>  <SCORE.INTER.SOLV>
17.5517

>  <SCORE.INTER.VDW>
-21.2435

>  <SCORE.INTER.norm>
-0.576793

>  <SCORE.INTRA>
-3.76776

>  <SCORE.INTRA.DIHEDRAL>
-8.76468

>  <SCORE.INTRA.DIHEDRAL.0>
11.9251

>  <SCORE.INTRA.POLAR>
0

>  <SCORE.INTRA.POLAR.0>
0

>  <SCORE.INTRA.REPUL>
0

>  <SCORE.INTRA.REPUL.0>
0

>  <SCORE.INTRA.SOLV>
1.65642

>  <SCORE.INTRA.SOLV.lig_0>
-40.9823

>  <SCORE.INTRA.VDW>
-0.213625

>  <SCORE.INTRA.VDW.0>
-0.53506

>  <SCORE.INTRA.norm>
-0.171262

>  <SCORE.RESTR>
0

>  <SCORE.RESTR.CAVITY>
0

>  <SCORE.RESTR.norm>
0

>  <SCORE.SYSTEM>
0

>  <SCORE.SYSTEM.CONST>
0

>  <SCORE.SYSTEM.DIHEDRAL>
0

>  <SCORE.SYSTEM.SOLV>
0

>  <SCORE.SYSTEM.norm>
0

>  <SCORE.heavy>
22

>  <SCORE.norm>
-0.748054

>  <RMSD>
13.884

$$$$
lig.pdb
 OpenBabel11021811523D
libRbt.so/2013.1/901 2013/11/27
 22 23  0  0  0  0  0  0  0  0999 V2000
   67.5092  -27.7136    7.6947 O   0  0  0  0  0  0  0  0  0  0  0  0
   66.4250  -27.9005    7.1948 C   0  0  0  0  0  0  0  0  0  0  0  0
   65.9746  -29.1140    6.9297 N   0  0  0  0  0  0  0  0  0  0  0  0
   65.5789  -26.7585    6.8204 C   0  0  0  0  0  0  0  0  0  0  0  0
   64.2616  -26.8606    6.1881 C   0  0  0  0  0  0  0  0  0  0  0  0
   63.6438  -28.0100    5.8408 N   0  0  0  0  0  0  0  0  0  0  0  0
   65.7837  -25.4382    6.9516 N   0  0  0  0  0  0  0  0  0  0  0  0
   64.6899  -24.7821    6.4741 C   0  0  0  0  0  0  0  0  0  0  0  0
   63.7543  -25.6458    6.0119 N   0  0  0  0  0  0  0  0  0  0  0  0
   62.4399  -25.2724    5.4217 C   0  0  1  0  0  0  0  0  0  0  0  0
   61.9916  -23.9464    5.9968 C   0  0  1  0  0  0  0  0  0  0  0  0
   61.3612  -23.2406    4.8242 C   0  0  2  0  0  0  0  0  0  0  0  0
   59.9602  -23.5384    4.7740 O   0  0  0  0  0  0  0  0  0  0  0  0
   61.0674  -24.1385    7.0791 O   0  0  0  0  0  0  0  0  0  0  0  0
   62.5693  -25.0684    4.0169 O   0  0  0  0  0  0  0  0  0  0  0  0
   62.0230  -23.8371    3.6092 C   0  0  2  0  0  0  0  0  0  0  0  0
   63.1719  -23.0447    3.0205 C   0  0  0  0  0  0  0  0  0  0  0  0
   62.9192  -22.6751    1.6805 O   0  0  0  0  0  0  0  0  0  0  0  0
   61.8938  -21.4831    1.3976 P   0  0  0  0  0  0  0  0  0  0  0  0
   60.5885  -21.9310    2.0240 O   0  0  0  0  0  0  0  0  0  0  0  0
   61.8889  -21.4191   -0.1080 O   0  0  0  0  0  0  0  0  0  0  0  0
   62.5670  -20.2909    2.0190 O   0  0  0  0  0  0  0  0  0  0  0  0
  2  1  2  0  0  0  0
  2  4  1  0  0  0  0
  3  2  1  0  0  0  0
  4  7  1  0  0  0  0
  4  5  2  0  0  0  0
  5  6  1  0  0  0  0
  5  9  1  0  0  0  0
  7  8  2  0  0  0  0
  8  9  1  0  0  0  0
 10  9  1  1  0  0  0
 10 15  1  0  0  0  0
 11 14  1  1  0  0  0
 11 12  1  0  0  0  0
 11 10  1  0  0  0  0
 12 13  1  6  0  0  0
 12 16  1  0  0  0  0
 16 17  1  1  0  0  0
 16 15  1  0  0  0  0
 18 19  1  0  0  0  0
 18 17  1  0  0  0  0
 19 21  1  0  0  0  0
 20 19  1  0  0  0  0
 22 19  2  0  0  0  0
M  END
>  <CHROM.1>
178.85163355,152.85836440,-120.23277497,-58.83147217,75.49713112,63.13415318
-24.37685423,4.53844109,-1.06705947,0.35748979,-0.93794699

>  <Name>
lig.pdb

>  <RI>
0

>  <Rbt.Current_Directory>
/home/itssahil/PROJECTS/Mol_Feturizer/New_Systems/rnas/4znp

>  <Rbt.Executable>
rbdock ($Id: //depot/dev/client3/rdock/2013.1/src/exe/rbdock.cxx#4 $)

>  <Rbt.Library>
libRbt.so (2013.1, Build901 2013/11/27)

>  <Rbt.Parameter_File>
/export/apps/rDock/src/rDock_2013.1_src/data/scripts/dock_solv.prm

>  <Rbt.Receptor>
prm/blind_docking_100.prm

>  <SCORE>
-18.3554

>  <SCORE.INTER>
-16.3455

>  <SCORE.INTER.CONST>
1

>  <SCORE.INTER.POLAR>
0

>  <SCORE.INTER.ROT>
5

>  <SCORE.INTER.SOLV>
21.6027

>  <SCORE.INTER.VDW>
-25.0312

>  <SCORE.INTER.norm>
-0.742976

>  <SCORE.INTRA>
-2.00988

>  <SCORE.INTRA.DIHEDRAL>
-3.08514

>  <SCORE.INTRA.DIHEDRAL.0>
11.9251

>  <SCORE.INTRA.POLAR>
0

>  <SCORE.INTRA.POLAR.0>
0

>  <SCORE.INTRA.REPUL>
0

>  <SCORE.INTRA.REPUL.0>
0

>  <SCORE.INTRA.SOLV>
1.01231

>  <SCORE.INTRA.SOLV.lig_0>
-40.9823

>  <SCORE.INTRA.VDW>
-0.973467

>  <SCORE.INTRA.VDW.0>
-0.53506

>  <SCORE.INTRA.norm>
-0.0913583

>  <SCORE.RESTR>
0

>  <SCORE.RESTR.CAVITY>
0

>  <SCORE.RESTR.norm>
0

>  <SCORE.SYSTEM>
0

>  <SCORE.SYSTEM.CONST>
0

>  <SCORE.SYSTEM.DIHEDRAL>
0

>  <SCORE.SYSTEM.SOLV>
0

>  <SCORE.SYSTEM.norm>
0

>  <SCORE.heavy>
22

>  <SCORE.norm>
-0.834335

>  <RMSD>
13.889

$$$$
lig.pdb
 OpenBabel11021811523D
libRbt.so/2013.1/901 2013/11/27
 22 23  0  0  0  0  0  0  0  0999 V2000
   66.0506  -29.6950    8.1262 O   0  0  0  0  0  0  0  0  0  0  0  0
   65.0288  -29.0807    7.9288 C   0  0  0  0  0  0  0  0  0  0  0  0
   63.8387  -29.6071    8.1574 N   0  0  0  0  0  0  0  0  0  0  0  0
   65.0816  -27.7196    7.3765 C   0  0  0  0  0  0  0  0  0  0  0  0
   63.9141  -26.8801    7.0983 C   0  0  0  0  0  0  0  0  0  0  0  0
   62.6260  -27.2378    7.2883 N   0  0  0  0  0  0  0  0  0  0  0  0
   66.1298  -26.9626    7.0150 N   0  0  0  0  0  0  0  0  0  0  0  0
   65.6636  -25.7590    6.5807 C   0  0  0  0  0  0  0  0  0  0  0  0
   64.3113  -25.7004    6.6349 N   0  0  0  0  0  0  0  0  0  0  0  0
   63.4730  -24.5369    6.2362 C   0  0  1  0  0  0  0  0  0  0  0  0
   62.4023  -24.9986    5.2716 C   0  0  1  0  0  0  0  0  0  0  0  0
   61.1882  -24.2020    5.6738 C   0  0  2  0  0  0  0  0  0  0  0  0
   61.1411  -22.9787    4.9287 O   0  0  0  0  0  0  0  0  0  0  0  0
   62.7909  -24.7515    3.9113 O   0  0  0  0  0  0  0  0  0  0  0  0
   62.7833  -24.0138    7.3686 O   0  0  0  0  0  0  0  0  0  0  0  0
   61.4040  -23.8710    7.1277 C   0  0  2  0  0  0  0  0  0  0  0  0
   60.7098  -24.7740    8.1262 C   0  0  0  0  0  0  0  0  0  0  0  0
   61.0127  -24.4111    9.4576 O   0  0  0  0  0  0  0  0  0  0  0  0
   60.4812  -25.3417   10.6425 P   0  0  0  0  0  0  0  0  0  0  0  0
   58.9965  -25.4991   10.3822 O   0  0  0  0  0  0  0  0  0  0  0  0
   60.8314  -24.5315   11.8639 O   0  0  0  0  0  0  0  0  0  0  0  0
   61.3240  -26.5804   10.5162 O   0  0  0  0  0  0  0  0  0  0  0  0
  2  1  2  0  0  0  0
  2  4  1  0  0  0  0
  3  2  1  0  0  0  0
  4  7  1  0  0  0  0
  4  5  2  0  0  0  0
  5  6  1  0  0  0  0
  5  9  1  0  0  0  0
  7  8  2  0  0  0  0
  8  9  1  0  0  0  0
 10  9  1  1  0  0  0
 10 15  1  0  0  0  0
 11 14  1  6  0  0  0
 11 12  1  0  0  0  0
 11 10  1  0  0  0  0
 12 13  1  6  0  0  0
 12 16  1  0  0  0  0
 16 17  1  1  0  0  0
 16 15  1  0  0  0  0
 18 19  1  0  0  0  0
 18 17  1  0  0  0  0
 19 21  1  0  0  0  0
 20 19  1  0  0  0  0
 22 19  2  0  0  0  0
M  END
>  <CHROM.1>
-179.86917923,-51.12762877,177.87338783,-51.99290105,-174.14827614,62.58352115
-25.79651097,7.83655890,-0.16916724,-0.70252752,2.14112657

>  <Name>
lig.pdb

>  <RI>
0

>  <Rbt.Current_Directory>
/home/itssahil/PROJECTS/Mol_Feturizer/New_Systems/rnas/4znp

>  <Rbt.Executable>
rbdock ($Id: //depot/dev/client3/rdock/2013.1/src/exe/rbdock.cxx#4 $)

>  <Rbt.Library>
libRbt.so (2013.1, Build901 2013/11/27)

>  <Rbt.Parameter_File>
/export/apps/rDock/src/rDock_2013.1_src/data/scripts/dock_solv.prm

>  <Rbt.Receptor>
prm/blind_docking_100.prm

>  <SCORE>
-18.9907

>  <SCORE.INTER>
-13.2732

>  <SCORE.INTER.CONST>
1

>  <SCORE.INTER.POLAR>
0

>  <SCORE.INTER.ROT>
5

>  <SCORE.INTER.SOLV>
16.1446

>  <SCORE.INTER.VDW>
-21.1637

>  <SCORE.INTER.norm>
-0.603329

>  <SCORE.INTRA>
-5.71764

>  <SCORE.INTRA.DIHEDRAL>
-9.20869

>  <SCORE.INTRA.DIHEDRAL.0>
11.9251

>  <SCORE.INTRA.POLAR>
0

>  <SCORE.INTRA.POLAR.0>
0

>  <SCORE.INTRA.REPUL>
0

>  <SCORE.INTRA.REPUL.0>
0

>  <SCORE.INTRA.SOLV>
1.75301

>  <SCORE.INTRA.SOLV.lig_0>
-40.9823

>  <SCORE.INTRA.VDW>
-1.9898

>  <SCORE.INTRA.VDW.0>
-0.53506

>  <SCORE.INTRA.norm>
-0.259893

>  <SCORE.RESTR>
0.000223663

>  <SCORE.RESTR.CAVITY>
0.000223663

>  <SCORE.RESTR.norm>
1.01665e-05

>  <SCORE.SYSTEM>
0

>  <SCORE.SYSTEM.CONST>
0

>  <SCORE.SYSTEM.DIHEDRAL>
0

>  <SCORE.SYSTEM.SOLV>
0

>  <SCORE.SYSTEM.norm>
0

>  <SCORE.heavy>
22

>  <SCORE.norm>
-0.863212

>  <RMSD>
13.954

$$$$
lig.pdb
 OpenBabel11021811523D
libRbt.so/2013.1/901 2013/11/27
 22 23  0  0  0  0  0  0  0  0999 V2000
   52.4979    2.5388    5.9314 O   0  0  0  0  0  0  0  0  0  0  0  0
   52.4712    1.3578    5.6766 C   0  0  0  0  0  0  0  0  0  0  0  0
   51.7259    0.8671    4.7022 N   0  0  0  0  0  0  0  0  0  0  0  0
   53.2487    0.4105    6.4881 C   0  0  0  0  0  0  0  0  0  0  0  0
   54.0246    0.7642    7.6790 C   0  0  0  0  0  0  0  0  0  0  0  0
   54.1548    2.0067    8.1915 N   0  0  0  0  0  0  0  0  0  0  0  0
   53.4309   -0.9127    6.3529 N   0  0  0  0  0  0  0  0  0  0  0  0
   54.2196   -1.3465    7.3749 C   0  0  0  0  0  0  0  0  0  0  0  0
   54.5805   -0.3278    8.1916 N   0  0  0  0  0  0  0  0  0  0  0  0
   55.4377   -0.4441    9.4028 C   0  0  1  0  0  0  0  0  0  0  0  0
   54.7965   -1.4062   10.3792 C   0  0  1  0  0  0  0  0  0  0  0  0
   55.9636   -2.1670   10.9533 C   0  0  2  0  0  0  0  0  0  0  0  0
   56.4435   -1.5048   12.1302 O   0  0  0  0  0  0  0  0  0  0  0  0
   54.0553   -0.7017   11.3876 O   0  0  0  0  0  0  0  0  0  0  0  0
   56.6998   -1.0122    9.0622 O   0  0  0  0  0  0  0  0  0  0  0  0
   57.0323   -2.0980    9.8936 C   0  0  2  0  0  0  0  0  0  0  0  0
   57.1452   -3.3028    8.9825 C   0  0  0  0  0  0  0  0  0  0  0  0
   55.9580   -3.5141    8.2464 O   0  0  0  0  0  0  0  0  0  0  0  0
   55.7139   -4.9485    7.5864 P   0  0  0  0  0  0  0  0  0  0  0  0
   54.7958   -5.6730    8.5504 O   0  0  0  0  0  0  0  0  0  0  0  0
   57.1131   -5.5014    7.5020 O   0  0  0  0  0  0  0  0  0  0  0  0
   55.1469   -4.6167    6.2340 O   0  0  0  0  0  0  0  0  0  0  0  0
  2  1  2  0  0  0  0
  2  4  1  0  0  0  0
  3  2  1  0  0  0  0
  4  7  1  0  0  0  0
  4  5  2  0  0  0  0
  5  6  1  0  0  0  0
  5  9  1  0  0  0  0
  7  8  2  0  0  0  0
  8  9  1  0  0  0  0
 10  9  1  6  0  0  0
 10 15  1  0  0  0  0
 11 14  1  1  0  0  0
 11 12  1  0  0  0  0
 11 10  1  0  0  0  0
 12 13  1  1  0  0  0
 12 16  1  0  0  0  0
 16 17  1  6  0  0  0
 16 15  1  0  0  0  0
 18 19  1  0  0  0  0
 18 17  1  0  0  0  0
 19 21  1  0  0  0  0
 20 19  1  0  0  0  0
 22 19  2  0  0  0  0
M  END
>  <CHROM.1>
4.06432093,121.71844353,61.43964523,98.49732045,-161.60334260,54.93573460
-1.70590806,8.21826700,2.71996873,-1.01886020,0.69793486

>  <Name>
lig.pdb

>  <RI>
0

>  <Rbt.Current_Directory>
/home/afrankz/demos/rdock_decoys_rna/rnas/4znp

>  <Rbt.Executable>
rbdock ($Id: //depot/dev/client3/rdock/2013.1/src/exe/rbdock.cxx#4 $)

>  <Rbt.Library>
libRbt.so (2013.1, Build901 2013/11/27)

>  <Rbt.Parameter_File>
/export/apps/rDock/src/rDock_2013.1_src/data/scripts/dock_solv.prm

>  <Rbt.Receptor>
prm/blind_docking_60.prm

>  <SCORE>
4.85492

>  <SCORE.INTER>
0.945841

>  <SCORE.INTER.CONST>
1

>  <SCORE.INTER.POLAR>
0

>  <SCORE.INTER.ROT>
5

>  <SCORE.INTER.SOLV>
17.3225

>  <SCORE.INTER.VDW>
-12.0769

>  <SCORE.INTER.norm>
0.0429928

>  <SCORE.INTRA>
-3.75531

>  <SCORE.INTRA.DIHEDRAL>
-6.10778

>  <SCORE.INTRA.DIHEDRAL.0>
11.9251

>  <SCORE.INTRA.POLAR>
0

>  <SCORE.INTRA.POLAR.0>
0

>  <SCORE.INTRA.REPUL>
0

>  <SCORE.INTRA.REPUL.0>
0

>  <SCORE.INTRA.SOLV>
0.653045

>  <SCORE.INTRA.SOLV.lig_0>
-40.9823

>  <SCORE.INTRA.VDW>
-1.02795

>  <SCORE.INTRA.VDW.0>
-0.53506

>  <SCORE.INTRA.norm>
-0.170696

>  <SCORE.RESTR>
7.66439

>  <SCORE.RESTR.CAVITY>
7.66439

>  <SCORE.RESTR.norm>
0.348381

>  <SCORE.SYSTEM>
0

>  <SCORE.SYSTEM.CONST>
0

>  <SCORE.SYSTEM.DIHEDRAL>
0

>  <SCORE.SYSTEM.SOLV>
0

>  <SCORE.SYSTEM.norm>
0

>  <SCORE.heavy>
22

>  <SCORE.norm>
0.220678

>  <RMSD>
14.073

$$$$
lig.pdb
 OpenBabel11021811523D
libRbt.so/2013.1/901 2013/11/27
 22 23  0  0  0  0  0  0  0  0999 V2000
   50.1108   -0.2607    4.8110 O   0  0  0  0  0  0  0  0  0  0  0  0
   51.1629    0.3112    4.6486 C   0  0  0  0  0  0  0  0  0  0  0  0
   51.4214    1.0075    3.5558 N   0  0  0  0  0  0  0  0  0  0  0  0
   52.2217    0.2099    5.6630 C   0  0  0  0  0  0  0  0  0  0  0  0
   52.0545   -0.3726    6.9965 C   0  0  0  0  0  0  0  0  0  0  0  0
   50.9063   -0.8806    7.4936 N   0  0  0  0  0  0  0  0  0  0  0  0
   53.5070    0.5960    5.6272 N   0  0  0  0  0  0  0  0  0  0  0  0
   54.0913    0.2617    6.8111 C   0  0  0  0  0  0  0  0  0  0  0  0
   53.2106   -0.3356    7.6493 N   0  0  0  0  0  0  0  0  0  0  0  0
   53.5105   -0.8275    9.0217 C   0  0  1  0  0  0  0  0  0  0  0  0
   53.0286   -2.2556    9.1580 C   0  0  1  0  0  0  0  0  0  0  0  0
   54.0983   -2.9184    9.9867 C   0  0  2  0  0  0  0  0  0  0  0  0
   53.7676   -2.8172   11.3776 O   0  0  0  0  0  0  0  0  0  0  0  0
   51.7392   -2.3080    9.7882 O   0  0  0  0  0  0  0  0  0  0  0  0
   54.9191   -0.8655    9.2361 O   0  0  0  0  0  0  0  0  0  0  0  0
   55.3451   -2.1128    9.7295 C   0  0  2  0  0  0  0  0  0  0  0  0
   56.2956   -2.6707    8.6904 C   0  0  0  0  0  0  0  0  0  0  0  0
   55.6019   -3.2161    7.5871 O   0  0  0  0  0  0  0  0  0  0  0  0
   55.5965   -4.8024    7.3969 P   0  0  0  0  0  0  0  0  0  0  0  0
   54.8115   -5.3368    8.5780 O   0  0  0  0  0  0  0  0  0  0  0  0
   57.0676   -5.1287    7.4097 O   0  0  0  0  0  0  0  0  0  0  0  0
   54.9810   -4.9873    6.0376 O   0  0  0  0  0  0  0  0  0  0  0  0
  2  1  2  0  0  0  0
  2  4  1  0  0  0  0
  3  2  1  0  0  0  0
  4  7  1  0  0  0  0
  4  5  2  0  0  0  0
  5  6  1  0  0  0  0
  5  9  1  0  0  0  0
  7  8  2  0  0  0  0
  8  9  1  0  0  0  0
 10  9  1  6  0  0  0
 10 15  1  0  0  0  0
 11 14  1  1  0  0  0
 11 12  1  0  0  0  0
 11 10  1  0  0  0  0
 12 13  1  1  0  0  0
 12 16  1  0  0  0  0
 16 17  1  6  0  0  0
 16 15  1  0  0  0  0
 18 19  1  0  0  0  0
 18 17  1  0  0  0  0
 19 21  1  0  0  0  0
 20 19  1  0  0  0  0
 22 19  2  0  0  0  0
M  END
>  <CHROM.1>
-10.05885086,51.22893766,39.71121610,66.23309211,-109.20868601,53.76488047
-2.05949961,7.62935317,-2.67267638,-0.84604033,1.56630009

>  <Name>
lig.pdb

>  <RI>
0

>  <Rbt.Current_Directory>
/home/afrankz/demos/rdock_decoys_rna/rnas/4znp

>  <Rbt.Executable>
rbdock ($Id: //depot/dev/client3/rdock/2013.1/src/exe/rbdock.cxx#4 $)

>  <Rbt.Library>
libRbt.so (2013.1, Build901 2013/11/27)

>  <Rbt.Parameter_File>
/export/apps/rDock/src/rDock_2013.1_src/data/scripts/dock_solv.prm

>  <Rbt.Receptor>
prm/blind_docking_60.prm

>  <SCORE>
3.06072

>  <SCORE.INTER>
-1.32198

>  <SCORE.INTER.CONST>
1

>  <SCORE.INTER.POLAR>
0

>  <SCORE.INTER.ROT>
5

>  <SCORE.INTER.SOLV>
19.4439

>  <SCORE.INTER.VDW>
-14.296

>  <SCORE.INTER.norm>
-0.0600901

>  <SCORE.INTRA>
-1.65262

>  <SCORE.INTRA.DIHEDRAL>
-1.12802

>  <SCORE.INTRA.DIHEDRAL.0>
11.9251

>  <SCORE.INTRA.POLAR>
0

>  <SCORE.INTRA.POLAR.0>
0

>  <SCORE.INTRA.REPUL>
0

>  <SCORE.INTRA.REPUL.0>
0

>  <SCORE.INTRA.SOLV>
1.48241

>  <SCORE.INTRA.SOLV.lig_0>
-40.9823

>  <SCORE.INTRA.VDW>
-1.82981

>  <SCORE.INTRA.VDW.0>
-0.53506

>  <SCORE.INTRA.norm>
-0.075119

>  <SCORE.RESTR>
6.03532

>  <SCORE.RESTR.CAVITY>
6.03532

>  <SCORE.RESTR.norm>
0.274333

>  <SCORE.SYSTEM>
0

>  <SCORE.SYSTEM.CONST>
0

>  <SCORE.SYSTEM.DIHEDRAL>
0

>  <SCORE.SYSTEM.SOLV>
0

>  <SCORE.SYSTEM.norm>
0

>  <SCORE.heavy>
22

>  <SCORE.norm>
0.139123

>  <RMSD>
14.204

$$$$
lig.pdb
 OpenBabel11021811523D
libRbt.so/2013.1/901 2013/11/27
 22 23  0  0  0  0  0  0  0  0999 V2000
   63.8032  -20.7183    0.9621 O   0  0  0  0  0  0  0  0  0  0  0  0
   62.8987  -21.3446    1.4623 C   0  0  0  0  0  0  0  0  0  0  0  0
   61.6909  -21.3805    0.9277 N   0  0  0  0  0  0  0  0  0  0  0  0
   63.1098  -22.0621    2.7275 C   0  0  0  0  0  0  0  0  0  0  0  0
   62.0745  -22.7937    3.4612 C   0  0  0  0  0  0  0  0  0  0  0  0
   60.7788  -22.8994    3.0960 N   0  0  0  0  0  0  0  0  0  0  0  0
   64.2165  -22.2150    3.4720 N   0  0  0  0  0  0  0  0  0  0  0  0
   63.9085  -22.9893    4.5492 C   0  0  0  0  0  0  0  0  0  0  0  0
   62.6030  -23.3509    4.5449 N   0  0  0  0  0  0  0  0  0  0  0  0
   61.9290  -24.1933    5.5703 C   0  0  1  0  0  0  0  0  0  0  0  0
   61.6410  -25.5590    4.9854 C   0  0  1  0  0  0  0  0  0  0  0  0
   61.9121  -26.5038    6.1275 C   0  0  2  0  0  0  0  0  0  0  0  0
   60.7087  -26.7198    6.8753 O   0  0  0  0  0  0  0  0  0  0  0  0
   60.2864  -25.6449    4.5161 O   0  0  0  0  0  0  0  0  0  0  0  0
   62.7992  -24.4151    6.6772 O   0  0  0  0  0  0  0  0  0  0  0  0
   62.8998  -25.7800    7.0053 C   0  0  2  0  0  0  0  0  0  0  0  0
   64.3562  -26.1495    6.8137 C   0  0  0  0  0  0  0  0  0  0  0  0
   64.6137  -27.4812    7.2091 O   0  0  0  0  0  0  0  0  0  0  0  0
   66.1297  -27.9830    7.2605 P   0  0  0  0  0  0  0  0  0  0  0  0
   66.9621  -26.7459    6.9893 O   0  0  0  0  0  0  0  0  0  0  0  0
   66.1575  -29.0214    6.1688 O   0  0  0  0  0  0  0  0  0  0  0  0
   66.2485  -28.5898    8.6310 O   0  0  0  0  0  0  0  0  0  0  0  0
  2  1  2  0  0  0  0
  2  4  1  0  0  0  0
  3  2  1  0  0  0  0
  4  7  1  0  0  0  0
  4  5  2  0  0  0  0
  5  6  1  0  0  0  0
  5  9  1  0  0  0  0
  7  8  2  0  0  0  0
  8  9  1  0  0  0  0
 10  9  1  6  0  0  0
 10 15  1  0  0  0  0
 11 14  1  1  0  0  0
 11 12  1  0  0  0  0
 11 10  1  0  0  0  0
 12 13  1  1  0  0  0
 12 16  1  0  0  0  0
 16 17  1  6  0  0  0
 16 15  1  0  0  0  0
 18 19  1  0  0  0  0
 18 17  1  0  0  0  0
 19 21  1  0  0  0  0
 20 19  1  0  0  0  0
 22 19  2  0  0  0  0
M  END
>  <CHROM.1>
176.66034147,72.94252772,-66.49963255,6.34933843,-171.98138253,63.46332717
-25.03123872,5.20085619,-1.94867570,-0.03724854,2.42221160

>  <Name>
lig.pdb

>  <RI>
0

>  <Rbt.Current_Directory>
/home/itssahil/PROJECTS/Mol_Feturizer/New_Systems/rnas/4znp

>  <Rbt.Executable>
rbdock ($Id: //depot/dev/client3/rdock/2013.1/src/exe/rbdock.cxx#4 $)

>  <Rbt.Library>
libRbt.so (2013.1, Build901 2013/11/27)

>  <Rbt.Parameter_File>
/export/apps/rDock/src/rDock_2013.1_src/data/scripts/dock_solv.prm

>  <Rbt.Receptor>
prm/blind_docking_100.prm

>  <SCORE>
-14.8607

>  <SCORE.INTER>
-11.3017

>  <SCORE.INTER.CONST>
1

>  <SCORE.INTER.POLAR>
0

>  <SCORE.INTER.ROT>
5

>  <SCORE.INTER.SOLV>
18.7658

>  <SCORE.INTER.VDW>
-20.7231

>  <SCORE.INTER.norm>
-0.513714

>  <SCORE.INTRA>
-3.62775

>  <SCORE.INTRA.DIHEDRAL>
-6.73342

>  <SCORE.INTRA.DIHEDRAL.0>
11.9251

>  <SCORE.INTRA.POLAR>
0

>  <SCORE.INTRA.POLAR.0>
0

>  <SCORE.INTRA.REPUL>
0

>  <SCORE.INTRA.REPUL.0>
0

>  <SCORE.INTRA.SOLV>
0.368196

>  <SCORE.INTRA.SOLV.lig_0>
-40.9823

>  <SCORE.INTRA.VDW>
-0.445142

>  <SCORE.INTRA.VDW.0>
-0.53506

>  <SCORE.INTRA.norm>
-0.164898

>  <SCORE.RESTR>
0.0688093

>  <SCORE.RESTR.CAVITY>
0.0688093

>  <SCORE.RESTR.norm>
0.00312769

>  <SCORE.SYSTEM>
0

>  <SCORE.SYSTEM.CONST>
0

>  <SCORE.SYSTEM.DIHEDRAL>
0

>  <SCORE.SYSTEM.SOLV>
0

>  <SCORE.SYSTEM.norm>
0

>  <SCORE.heavy>
22

>  <SCORE.norm>
-0.675485

>  <RMSD>
14.420

$$$$
lig.pdb
 OpenBabel11021811523D
libRbt.so/2013.1/901 2013/11/27
 22 23  0  0  0  0  0  0  0  0999 V2000
   61.6249  -21.3889    0.9463 O   0  0  0  0  0  0  0  0  0  0  0  0
   62.7130  -21.3934    1.4721 C   0  0  0  0  0  0  0  0  0  0  0  0
   63.7491  -20.7650    0.9455 N   0  0  0  0  0  0  0  0  0  0  0  0
   62.9288  -22.1496    2.7138 C   0  0  0  0  0  0  0  0  0  0  0  0
   61.8821  -22.8436    3.4675 C   0  0  0  0  0  0  0  0  0  0  0  0
   60.5711  -22.8742    3.1454 N   0  0  0  0  0  0  0  0  0  0  0  0
   64.0504  -22.3761    3.4160 N   0  0  0  0  0  0  0  0  0  0  0  0
   63.7389  -23.1580    4.4867 C   0  0  0  0  0  0  0  0  0  0  0  0
   62.4169  -23.4518    4.5202 N   0  0  0  0  0  0  0  0  0  0  0  0
   61.7348  -24.2818    5.5503 C   0  0  1  0  0  0  0  0  0  0  0  0
   61.4875  -25.6671    4.9937 C   0  0  1  0  0  0  0  0  0  0  0  0
   61.7492  -26.5775    6.1655 C   0  0  2  0  0  0  0  0  0  0  0  0
   60.5325  -26.7988    6.8899 O   0  0  0  0  0  0  0  0  0  0  0  0
   60.1467  -25.7918    4.4947 O   0  0  0  0  0  0  0  0  0  0  0  0
   62.5820  -24.4584    6.6829 O   0  0  0  0  0  0  0  0  0  0  0  0
   62.7011  -25.8124    7.0478 C   0  0  2  0  0  0  0  0  0  0  0  0
   64.1687  -26.1574    6.9004 C   0  0  0  0  0  0  0  0  0  0  0  0
   64.5054  -27.3261    7.6191 O   0  0  0  0  0  0  0  0  0  0  0  0
   65.8686  -28.0777    7.2593 P   0  0  0  0  0  0  0  0  0  0  0  0
   66.8555  -26.9714    6.9446 O   0  0  0  0  0  0  0  0  0  0  0  0
   65.4629  -28.9238    6.0802 O   0  0  0  0  0  0  0  0  0  0  0  0
   66.1457  -28.9011    8.4864 O   0  0  0  0  0  0  0  0  0  0  0  0
  2  1  2  0  0  0  0
  2  4  1  0  0  0  0
  3  2  1  0  0  0  0
  4  7  1  0  0  0  0
  4  5  2  0  0  0  0
  5  6  1  0  0  0  0
  5  9  1  0  0  0  0
  7  8  2  0  0  0  0
  8  9  1  0  0  0  0
 10  9  1  6  0  0  0
 10 15  1  0  0  0  0
 11 14  1  1  0  0  0
 11 12  1  0  0  0  0
 11 10  1  0  0  0  0
 12 13  1  1  0  0  0
 12 16  1  0  0  0  0
 16 17  1  6  0  0  0
 16 15  1  0  0  0  0
 18 19  1  0  0  0  0
 18 17  1  0  0  0  0
 19 21  1  0  0  0  0
 20 19  1  0  0  0  0
 22 19  2  0  0  0  0
M  END
>  <CHROM.1>
-5.30959947,78.87780447,-80.75232633,36.94427774,162.64273489,63.25898306
-25.10905762,5.20977546,-1.93844861,-0.03972553,2.41826715

>  <Name>
lig.pdb

>  <RI>
0

>  <Rbt.Current_Directory>
/home/itssahil/PROJECTS/Mol_Feturizer/New_Systems/rnas/4znp

>  <Rbt.Executable>
rbdock ($Id: //depot/dev/client3/rdock/2013.1/src/exe/rbdock.cxx#4 $)

>  <Rbt.Library>
libRbt.so (2013.1, Build901 2013/11/27)

>  <Rbt.Parameter_File>
/export/apps/rDock/src/rDock_2013.1_src/data/scripts/dock_solv.prm

>  <Rbt.Receptor>
prm/blind_docking_100.prm

>  <SCORE>
-14.812

>  <SCORE.INTER>
-10.7054

>  <SCORE.INTER.CONST>
1

>  <SCORE.INTER.POLAR>
0

>  <SCORE.INTER.ROT>
5

>  <SCORE.INTER.SOLV>
18.4813

>  <SCORE.INTER.VDW>
-20.2307

>  <SCORE.INTER.norm>
-0.48661

>  <SCORE.INTRA>
-4.1203

>  <SCORE.INTRA.DIHEDRAL>
-5.94589

>  <SCORE.INTRA.DIHEDRAL.0>
11.9251

>  <SCORE.INTRA.POLAR>
0

>  <SCORE.INTRA.POLAR.0>
0

>  <SCORE.INTRA.REPUL>
0

>  <SCORE.INTRA.REPUL.0>
0

>  <SCORE.INTRA.SOLV>
0.083188

>  <SCORE.INTRA.SOLV.lig_0>
-40.9823

>  <SCORE.INTRA.VDW>
-1.18895

>  <SCORE.INTRA.VDW.0>
-0.53506

>  <SCORE.INTRA.norm>
-0.187286

>  <SCORE.RESTR>
0.0137321

>  <SCORE.RESTR.CAVITY>
0.0137321

>  <SCORE.RESTR.norm>
0.000624187

>  <SCORE.SYSTEM>
0

>  <SCORE.SYSTEM.CONST>
0

>  <SCORE.SYSTEM.DIHEDRAL>
0

>  <SCORE.SYSTEM.SOLV>
0

>  <SCORE.SYSTEM.norm>
0

>  <SCORE.heavy>
22

>  <SCORE.norm>
-0.673272

>  <RMSD>
14.439

$$$$
lig.pdb
 OpenBabel11021811523D
libRbt.so/2013.1/901 2013/11/27
 22 23  0  0  0  0  0  0  0  0999 V2000
   59.4376  -29.0454   11.9217 O   0  0  0  0  0  0  0  0  0  0  0  0
   59.0086  -28.4403   10.9676 C   0  0  0  0  0  0  0  0  0  0  0  0
   57.7136  -28.2663   10.7719 N   0  0  0  0  0  0  0  0  0  0  0  0
   59.9322  -27.9083    9.9556 C   0  0  0  0  0  0  0  0  0  0  0  0
   61.3821  -28.1164    9.9494 C   0  0  0  0  0  0  0  0  0  0  0  0
   62.0808  -28.8060   10.8766 N   0  0  0  0  0  0  0  0  0  0  0  0
   59.6993  -27.1560    8.8684 N   0  0  0  0  0  0  0  0  0  0  0  0
   60.8833  -26.9398    8.2312 C   0  0  0  0  0  0  0  0  0  0  0  0
   61.9140  -27.5291    8.8835 N   0  0  0  0  0  0  0  0  0  0  0  0
   63.3425  -27.4942    8.4669 C   0  0  1  0  0  0  0  0  0  0  0  0
   63.6641  -28.7443    7.6769 C   0  0  1  0  0  0  0  0  0  0  0  0
   64.5837  -28.2550    6.5882 C   0  0  2  0  0  0  0  0  0  0  0  0
   65.9455  -28.3446    7.0258 O   0  0  0  0  0  0  0  0  0  0  0  0
   64.2841  -29.7366    8.5096 O   0  0  0  0  0  0  0  0  0  0  0  0
   63.5728  -26.4001    7.5829 O   0  0  0  0  0  0  0  0  0  0  0  0
   64.2324  -26.8012    6.4061 C   0  0  2  0  0  0  0  0  0  0  0  0
   63.2858  -26.4828    5.2672 C   0  0  0  0  0  0  0  0  0  0  0  0
   62.8913  -25.1262    5.2796 O   0  0  0  0  0  0  0  0  0  0  0  0
   61.8085  -24.6361    4.2119 P   0  0  0  0  0  0  0  0  0  0  0  0
   60.6284  -25.5696    4.3928 O   0  0  0  0  0  0  0  0  0  0  0  0
   62.5518  -24.7938    2.9106 O   0  0  0  0  0  0  0  0  0  0  0  0
   61.5903  -23.1935    4.5755 O   0  0  0  0  0  0  0  0  0  0  0  0
  2  1  2  0  0  0  0
  2  4  1  0  0  0  0
  3  2  1  0  0  0  0
  4  7  1  0  0  0  0
  4  5  2  0  0  0  0
  5  6  1  0  0  0  0
  5  9  1  0  0  0  0
  7  8  2  0  0  0  0
  8  9  1  0  0  0  0
 10  9  1  6  0  0  0
 10 15  1  0  0  0  0
 11 14  1  1  0  0  0
 11 12  1  0  0  0  0
 11 10  1  0  0  0  0
 12 13  1  1  0  0  0
 12 16  1  0  0  0  0
 16 17  1  6  0  0  0
 16 15  1  0  0  0  0
 18 19  1  0  0  0  0
 18 17  1  0  0  0  0
 19 21  1  0  0  0  0
 20 19  1  0  0  0  0
 22 19  2  0  0  0  0
M  END
>  <CHROM.1>
3.93596935,84.88565217,172.80638203,54.16150732,-175.59653080,62.05243503
-26.98558996,7.41684279,1.90056233,-0.34091272,2.20060884

>  <Name>
lig.pdb

>  <RI>
0

>  <Rbt.Current_Directory>
/home/itssahil/PROJECTS/Mol_Feturizer/New_Systems/rnas/4znp

>  <Rbt.Executable>
rbdock ($Id: //depot/dev/client3/rdock/2013.1/src/exe/rbdock.cxx#4 $)

>  <Rbt.Library>
libRbt.so (2013.1, Build901 2013/11/27)

>  <Rbt.Parameter_File>
/export/apps/rDock/src/rDock_2013.1_src/data/scripts/dock_solv.prm

>  <Rbt.Receptor>
prm/blind_docking_100.prm

>  <SCORE>
-14.1167

>  <SCORE.INTER>
-8.0322

>  <SCORE.INTER.CONST>
1

>  <SCORE.INTER.POLAR>
0

>  <SCORE.INTER.ROT>
5

>  <SCORE.INTER.SOLV>
11.1383

>  <SCORE.INTER.VDW>
-16.0009

>  <SCORE.INTER.norm>
-0.3651

>  <SCORE.INTRA>
-6.08449

>  <SCORE.INTRA.DIHEDRAL>
-9.13284

>  <SCORE.INTRA.DIHEDRAL.0>
11.9251

>  <SCORE.INTRA.POLAR>
0

>  <SCORE.INTRA.POLAR.0>
0

>  <SCORE.INTRA.REPUL>
0

>  <SCORE.INTRA.REPUL.0>
0

>  <SCORE.INTRA.SOLV>
0.0369942

>  <SCORE.INTRA.SOLV.lig_0>
-40.9823

>  <SCORE.INTRA.VDW>
-1.53656

>  <SCORE.INTRA.VDW.0>
-0.53506

>  <SCORE.INTRA.norm>
-0.276568

>  <SCORE.RESTR>
0

>  <SCORE.RESTR.CAVITY>
0

>  <SCORE.RESTR.norm>
0

>  <SCORE.SYSTEM>
0

>  <SCORE.SYSTEM.CONST>
0

>  <SCORE.SYSTEM.DIHEDRAL>
0

>  <SCORE.SYSTEM.SOLV>
0

>  <SCORE.SYSTEM.norm>
0

>  <SCORE.heavy>
22

>  <SCORE.norm>
-0.641667

>  <RMSD>
14.811

$$$$
lig.pdb
 OpenBabel11021811523D
libRbt.so/2013.1/901 2013/11/27
 22 23  0  0  0  0  0  0  0  0999 V2000
   50.7201    0.1263    2.9758 O   0  0  0  0  0  0  0  0  0  0  0  0
   50.1017   -0.1846    3.9664 C   0  0  0  0  0  0  0  0  0  0  0  0
   48.8229   -0.5137    3.9205 N   0  0  0  0  0  0  0  0  0  0  0  0
   50.7569   -0.1625    5.2819 C   0  0  0  0  0  0  0  0  0  0  0  0
   52.1721    0.1380    5.5106 C   0  0  0  0  0  0  0  0  0  0  0  0
   53.0808    0.4174    4.5518 N   0  0  0  0  0  0  0  0  0  0  0  0
   50.2634   -0.3949    6.5087 N   0  0  0  0  0  0  0  0  0  0  0  0
   51.2655   -0.2281    7.4158 C   0  0  0  0  0  0  0  0  0  0  0  0
   52.4323    0.1033    6.8127 N   0  0  0  0  0  0  0  0  0  0  0  0
   53.7271    0.3581    7.5010 C   0  0  1  0  0  0  0  0  0  0  0  0
   53.4969    0.4133    8.9957 C   0  0  1  0  0  0  0  0  0  0  0  0
   54.7050   -0.2791    9.5714 C   0  0  2  0  0  0  0  0  0  0  0  0
   55.7371    0.6807    9.8316 O   0  0  0  0  0  0  0  0  0  0  0  0
   53.3776    1.7704    9.4504 O   0  0  0  0  0  0  0  0  0  0  0  0
   54.6253   -0.7267    7.2812 O   0  0  0  0  0  0  0  0  0  0  0  0
   55.1765   -1.2084    8.4832 C   0  0  2  0  0  0  0  0  0  0  0  0
   54.7290   -2.6509    8.5996 C   0  0  0  0  0  0  0  0  0  0  0  0
   55.7561   -3.5478    8.2300 O   0  0  0  0  0  0  0  0  0  0  0  0
   55.3865   -5.0883    8.0226 P   0  0  0  0  0  0  0  0  0  0  0  0
   54.3831   -5.4017    9.1143 O   0  0  0  0  0  0  0  0  0  0  0  0
   56.7266   -5.7599    8.1772 O   0  0  0  0  0  0  0  0  0  0  0  0
   54.8817   -5.1369    6.6071 O   0  0  0  0  0  0  0  0  0  0  0  0
  2  1  2  0  0  0  0
  2  4  1  0  0  0  0
  3  2  1  0  0  0  0
  4  7  1  0  0  0  0
  4  5  2  0  0  0  0
  5  6  1  0  0  0  0
  5  9  1  0  0  0  0
  7  8  2  0  0  0  0
  8  9  1  0  0  0  0
 10  9  1  6  0  0  0
 10 15  1  0  0  0  0
 11 14  1  1  0  0  0
 11 12  1  0  0  0  0
 11 10  1  0  0  0  0
 12 13  1  6  0  0  0
 12 16  1  0  0  0  0
 16 17  1  1  0  0  0
 16 15  1  0  0  0  0
 18 19  1  0  0  0  0
 18 17  1  0  0  0  0
 19 21  1  0  0  0  0
 20 19  1  0  0  0  0
 22 19  2  0  0  0  0
M  END
>  <CHROM.1>
-3.94860680,171.40818915,-140.65991917,-38.68880362,-168.51742580,53.49073739
-1.52337772,7.22294131,2.74938453,-0.80194416,0.40455108

>  <Name>
lig.pdb

>  <RI>
0

>  <Rbt.Current_Directory>
/home/afrankz/demos/rdock_decoys_rna/rnas/4znp

>  <Rbt.Executable>
rbdock ($Id: //depot/dev/client3/rdock/2013.1/src/exe/rbdock.cxx#4 $)

>  <Rbt.Library>
libRbt.so (2013.1, Build901 2013/11/27)

>  <Rbt.Parameter_File>
/export/apps/rDock/src/rDock_2013.1_src/data/scripts/dock_solv.prm

>  <Rbt.Receptor>
prm/blind_docking_60.prm

>  <SCORE>
5.60886

>  <SCORE.INTER>
3.13932

>  <SCORE.INTER.CONST>
1

>  <SCORE.INTER.POLAR>
0

>  <SCORE.INTER.ROT>
5

>  <SCORE.INTER.SOLV>
18.5327

>  <SCORE.INTER.VDW>
-11.018

>  <SCORE.INTER.norm>
0.142696

>  <SCORE.INTRA>
-2.49256

>  <SCORE.INTRA.DIHEDRAL>
-4.26015

>  <SCORE.INTRA.DIHEDRAL.0>
11.9251

>  <SCORE.INTRA.POLAR>
0

>  <SCORE.INTRA.POLAR.0>
0

>  <SCORE.INTRA.REPUL>
0

>  <SCORE.INTRA.REPUL.0>
0

>  <SCORE.INTRA.SOLV>
-0.273886

>  <SCORE.INTRA.SOLV.lig_0>
-40.9823

>  <SCORE.INTRA.VDW>
-0.225537

>  <SCORE.INTRA.VDW.0>
-0.53506

>  <SCORE.INTRA.norm>
-0.113298

>  <SCORE.RESTR>
4.9621

>  <SCORE.RESTR.CAVITY>
4.9621

>  <SCORE.RESTR.norm>
0.22555

>  <SCORE.SYSTEM>
0

>  <SCORE.SYSTEM.CONST>
0

>  <SCORE.SYSTEM.DIHEDRAL>
0

>  <SCORE.SYSTEM.SOLV>
0

>  <SCORE.SYSTEM.norm>
0

>  <SCORE.heavy>
22

>  <SCORE.norm>
0.254948

>  <RMSD>
14.843

$$$$
lig.pdb
 OpenBabel11021811523D
libRbt.so/2013.1/901 2013/11/27
 22 23  0  0  0  0  0  0  0  0999 V2000
   60.8958  -23.2619    4.1084 O   0  0  0  0  0  0  0  0  0  0  0  0
   61.8724  -23.6384    4.7125 C   0  0  0  0  0  0  0  0  0  0  0  0
   62.7477  -22.7932    5.2275 N   0  0  0  0  0  0  0  0  0  0  0  0
   62.1419  -25.0761    4.8561 C   0  0  0  0  0  0  0  0  0  0  0  0
   63.3048  -25.6489    5.5379 C   0  0  0  0  0  0  0  0  0  0  0  0
   64.3034  -24.9454    6.1135 N   0  0  0  0  0  0  0  0  0  0  0  0
   61.4463  -26.1430    4.4313 N   0  0  0  0  0  0  0  0  0  0  0  0
   62.0965  -27.2701    4.8330 C   0  0  0  0  0  0  0  0  0  0  0  0
   63.2292  -26.9748    5.5146 N   0  0  0  0  0  0  0  0  0  0  0  0
   64.1792  -27.9626    6.0953 C   0  0  1  0  0  0  0  0  0  0  0  0
   64.9952  -27.2941    7.1804 C   0  0  1  0  0  0  0  0  0  0  0  0
   65.1202  -28.3559    8.2421 C   0  0  2  0  0  0  0  0  0  0  0  0
   66.3047  -29.1308    8.0170 O   0  0  0  0  0  0  0  0  0  0  0  0
   66.2727  -26.8705    6.6793 O   0  0  0  0  0  0  0  0  0  0  0  0
   63.4652  -29.0181    6.7339 O   0  0  0  0  0  0  0  0  0  0  0  0
   63.9199  -29.2453    8.0463 C   0  0  2  0  0  0  0  0  0  0  0  0
   62.7360  -28.9743    8.9515 C   0  0  0  0  0  0  0  0  0  0  0  0
   62.1630  -27.7082    8.6972 O   0  0  0  0  0  0  0  0  0  0  0  0
   60.9252  -27.2368    9.5908 P   0  0  0  0  0  0  0  0  0  0  0  0
   60.5482  -25.8719    9.0505 O   0  0  0  0  0  0  0  0  0  0  0  0
   61.5175  -27.2321   10.9764 O   0  0  0  0  0  0  0  0  0  0  0  0
   59.9203  -28.3391    9.4015 O   0  0  0  0  0  0  0  0  0  0  0  0
  2  1  2  0  0  0  0
  2  4  1  0  0  0  0
  3  2  1  0  0  0  0
  4  7  1  0  0  0  0
  4  5  2  0  0  0  0
  5  6  1  0  0  0  0
  5  9  1  0  0  0  0
  7  8  2  0  0  0  0
  8  9  1  0  0  0  0
 10  9  1  1  0  0  0
 10 15  1  0  0  0  0
 11 14  1  6  0  0  0
 11 12  1  0  0  0  0
 11 10  1  0  0  0  0
 12 13  1  6  0  0  0
 12 16  1  0  0  0  0
 16 17  1  1  0  0  0
 16 15  1  0  0  0  0
 18 19  1  0  0  0  0
 18 17  1  0  0  0  0
 19 21  1  0  0  0  0
 20 19  1  0  0  0  0
 22 19  2  0  0  0  0
M  END
>  <CHROM.1>
178.56895136,21.57425370,65.58373651,-179.13174302,-178.29044737,62.78966493
-26.83322162,7.17440209,1.66268264,0.45177574,-0.87641106

>  <Name>
lig.pdb

>  <RI>
0

>  <Rbt.Current_Directory>
/home/itssahil/PROJECTS/Mol_Feturizer/New_Systems/rnas/4znp

>  <Rbt.Executable>
rbdock ($Id: //depot/dev/client3/rdock/2013.1/src/exe/rbdock.cxx#4 $)

>  <Rbt.Library>
libRbt.so (2013.1, Build901 2013/11/27)

>  <Rbt.Parameter_File>
/export/apps/rDock/src/rDock_2013.1_src/data/scripts/dock_solv.prm

>  <Rbt.Receptor>
prm/blind_docking_100.prm

>  <SCORE>
-12.8375

>  <SCORE.INTER>
-8.00896

>  <SCORE.INTER.CONST>
1

>  <SCORE.INTER.POLAR>
0

>  <SCORE.INTER.ROT>
5

>  <SCORE.INTER.SOLV>
13.8543

>  <SCORE.INTER.VDW>
-16.8907

>  <SCORE.INTER.norm>
-0.364044

>  <SCORE.INTRA>
-4.82856

>  <SCORE.INTRA.DIHEDRAL>
-9.34768

>  <SCORE.INTRA.DIHEDRAL.0>
11.9251

>  <SCORE.INTRA.POLAR>
0

>  <SCORE.INTRA.POLAR.0>
0

>  <SCORE.INTRA.REPUL>
0

>  <SCORE.INTRA.REPUL.0>
0

>  <SCORE.INTRA.SOLV>
1.22696

>  <SCORE.INTRA.SOLV.lig_0>
-40.9823

>  <SCORE.INTRA.VDW>
-0.768195

>  <SCORE.INTRA.VDW.0>
-0.53506

>  <SCORE.INTRA.norm>
-0.21948

>  <SCORE.RESTR>
0

>  <SCORE.RESTR.CAVITY>
0

>  <SCORE.RESTR.norm>
0

>  <SCORE.SYSTEM>
0

>  <SCORE.SYSTEM.CONST>
0

>  <SCORE.SYSTEM.DIHEDRAL>
0

>  <SCORE.SYSTEM.SOLV>
0

>  <SCORE.SYSTEM.norm>
0

>  <SCORE.heavy>
22

>  <SCORE.norm>
-0.583524

>  <RMSD>
15.008

$$$$
lig.pdb
 OpenBabel11021811523D
libRbt.so/2013.1/901 2013/11/27
 22 23  0  0  0  0  0  0  0  0999 V2000
   48.8879   -0.6515    3.4459 O   0  0  0  0  0  0  0  0  0  0  0  0
   49.4262   -0.5838    4.5257 C   0  0  0  0  0  0  0  0  0  0  0  0
   48.7831   -0.8529    5.6481 N   0  0  0  0  0  0  0  0  0  0  0  0
   50.8267   -0.1492    4.6257 C   0  0  0  0  0  0  0  0  0  0  0  0
   51.5979   -0.0794    5.8689 C   0  0  0  0  0  0  0  0  0  0  0  0
   51.1332   -0.3829    7.0999 N   0  0  0  0  0  0  0  0  0  0  0  0
   51.6845    0.2621    3.6783 N   0  0  0  0  0  0  0  0  0  0  0  0
   52.8812    0.5346    4.2684 C   0  0  0  0  0  0  0  0  0  0  0  0
   52.8363    0.3221    5.6055 N   0  0  0  0  0  0  0  0  0  0  0  0
   53.9632    0.5206    6.5575 C   0  0  1  0  0  0  0  0  0  0  0  0
   53.4482    1.1993    7.8082 C   0  0  1  0  0  0  0  0  0  0  0  0
   54.2094    0.5273    8.9214 C   0  0  2  0  0  0  0  0  0  0  0  0
   55.4172    1.2506    9.1896 O   0  0  0  0  0  0  0  0  0  0  0  0
   53.6848    2.6151    7.7625 O   0  0  0  0  0  0  0  0  0  0  0  0
   54.4818   -0.7386    6.9784 O   0  0  0  0  0  0  0  0  0  0  0  0
   54.5729   -0.8308    8.3798 C   0  0  2  0  0  0  0  0  0  0  0  0
   53.6641   -1.9735    8.7833 C   0  0  0  0  0  0  0  0  0  0  0  0
   54.3774   -3.0022    9.4383 O   0  0  0  0  0  0  0  0  0  0  0  0
   55.2580   -4.0018    8.5563 P   0  0  0  0  0  0  0  0  0  0  0  0
   55.6761   -3.1923    7.3452 O   0  0  0  0  0  0  0  0  0  0  0  0
   54.2844   -5.1164    8.2724 O   0  0  0  0  0  0  0  0  0  0  0  0
   56.3523   -4.4234    9.4973 O   0  0  0  0  0  0  0  0  0  0  0  0
  2  1  2  0  0  0  0
  2  4  1  0  0  0  0
  3  2  1  0  0  0  0
  4  7  1  0  0  0  0
  4  5  2  0  0  0  0
  5  6  1  0  0  0  0
  5  9  1  0  0  0  0
  7  8  2  0  0  0  0
  8  9  1  0  0  0  0
 10  9  1  6  0  0  0
 10 15  1  0  0  0  0
 11 14  1  6  0  0  0
 11 12  1  0  0  0  0
 11 10  1  0  0  0  0
 12 13  1  6  0  0  0
 12 16  1  0  0  0  0
 16 17  1  1  0  0  0
 16 15  1  0  0  0  0
 18 19  1  0  0  0  0
 18 17  1  0  0  0  0
 19 21  1  0  0  0  0
 20 19  1  0  0  0  0
 22 19  2  0  0  0  0
M  END
>  <CHROM.1>
-177.45148016,-42.02311279,-122.54892455,28.74419322,-77.07741622,53.26378924
-1.08208892,7.07527614,2.62656800,-0.69344968,-0.03966098

>  <Name>
lig.pdb

>  <RI>
0

>  <Rbt.Current_Directory>
/home/afrankz/demos/rdock_decoys_rna/rnas/4znp

>  <Rbt.Executable>
rbdock ($Id: //depot/dev/client3/rdock/2013.1/src/exe/rbdock.cxx#4 $)

>  <Rbt.Library>
libRbt.so (2013.1, Build901 2013/11/27)

>  <Rbt.Parameter_File>
/export/apps/rDock/src/rDock_2013.1_src/data/scripts/dock_solv.prm

>  <Rbt.Receptor>
prm/blind_docking_60.prm

>  <SCORE>
7.4771

>  <SCORE.INTER>
3.85575

>  <SCORE.INTER.CONST>
1

>  <SCORE.INTER.POLAR>
0

>  <SCORE.INTER.ROT>
5

>  <SCORE.INTER.SOLV>
15.6634

>  <SCORE.INTER.VDW>
-9.58397

>  <SCORE.INTER.norm>
0.175261

>  <SCORE.INTRA>
-0.916696

>  <SCORE.INTRA.DIHEDRAL>
-1.68893

>  <SCORE.INTRA.DIHEDRAL.0>
11.9251

>  <SCORE.INTRA.POLAR>
0

>  <SCORE.INTRA.POLAR.0>
0

>  <SCORE.INTRA.REPUL>
0

>  <SCORE.INTRA.REPUL.0>
0

>  <SCORE.INTRA.SOLV>
1.89936

>  <SCORE.INTRA.SOLV.lig_0>
-40.9823

>  <SCORE.INTRA.VDW>
-1.02191

>  <SCORE.INTRA.VDW.0>
-0.53506

>  <SCORE.INTRA.norm>
-0.041668

>  <SCORE.RESTR>
4.53805

>  <SCORE.RESTR.CAVITY>
4.53805

>  <SCORE.RESTR.norm>
0.206275

>  <SCORE.SYSTEM>
0

>  <SCORE.SYSTEM.CONST>
0

>  <SCORE.SYSTEM.DIHEDRAL>
0

>  <SCORE.SYSTEM.SOLV>
0

>  <SCORE.SYSTEM.norm>
0

>  <SCORE.heavy>
22

>  <SCORE.norm>
0.339868

>  <RMSD>
15.162

$$$$
lig.pdb
 OpenBabel11021811523D
libRbt.so/2013.1/901 2013/11/27
 22 23  0  0  0  0  0  0  0  0999 V2000
   70.2452   -8.6318   -5.6089 O   0  0  0  0  0  0  0  0  0  0  0  0
   69.0390   -8.5588   -5.6221 C   0  0  0  0  0  0  0  0  0  0  0  0
   68.3844   -7.9390   -6.5880 N   0  0  0  0  0  0  0  0  0  0  0  0
   68.2534   -9.1310   -4.5195 C   0  0  0  0  0  0  0  0  0  0  0  0
   66.7904   -9.1742   -4.4645 C   0  0  0  0  0  0  0  0  0  0  0  0
   65.9540   -8.6806   -5.4027 N   0  0  0  0  0  0  0  0  0  0  0  0
   68.6469   -9.7113   -3.3746 N   0  0  0  0  0  0  0  0  0  0  0  0
   67.5390  -10.1033   -2.6863 C   0  0  0  0  0  0  0  0  0  0  0  0
   66.4022   -9.7833   -3.3498 N   0  0  0  0  0  0  0  0  0  0  0  0
   65.0154  -10.0629   -2.8871 C   0  0  1  0  0  0  0  0  0  0  0  0
   64.6693  -11.5054   -3.1860 C   0  0  1  0  0  0  0  0  0  0  0  0
   63.8713  -11.9403   -1.9841 C   0  0  2  0  0  0  0  0  0  0  0  0
   62.4772  -11.6999   -2.2136 O   0  0  0  0  0  0  0  0  0  0  0  0
   63.9206  -11.6150   -4.4066 O   0  0  0  0  0  0  0  0  0  0  0  0
   64.9293   -9.9229   -1.4712 O   0  0  0  0  0  0  0  0  0  0  0  0
   64.3352  -11.0452   -0.8644 C   0  0  2  0  0  0  0  0  0  0  0  0
   65.3856  -11.6254    0.0600 C   0  0  0  0  0  0  0  0  0  0  0  0
   64.9421  -12.8200    0.6702 O   0  0  0  0  0  0  0  0  0  0  0  0
   63.7247  -12.7440    1.7021 P   0  0  0  0  0  0  0  0  0  0  0  0
   62.4803  -12.6969    0.8382 O   0  0  0  0  0  0  0  0  0  0  0  0
   64.0257  -11.4741    2.4553 O   0  0  0  0  0  0  0  0  0  0  0  0
   63.9115  -13.9710    2.5508 O   0  0  0  0  0  0  0  0  0  0  0  0
  2  1  2  0  0  0  0
  2  4  1  0  0  0  0
  3  2  1  0  0  0  0
  4  7  1  0  0  0  0
  4  5  2  0  0  0  0
  5  6  1  0  0  0  0
  5  9  1  0  0  0  0
  7  8  2  0  0  0  0
  8  9  1  0  0  0  0
 10  9  1  1  0  0  0
 10 15  1  0  0  0  0
 11 14  1  6  0  0  0
 11 12  1  0  0  0  0
 11 10  1  0  0  0  0
 12 13  1  6  0  0  0
 12 16  1  0  0  0  0
 16 17  1  1  0  0  0
 16 15  1  0  0  0  0
 18 19  1  0  0  0  0
 18 17  1  0  0  0  0
 19 21  1  0  0  0  0
 20 19  1  0  0  0  0
 22 19  2  0  0  0  0
M  END
>  <CHROM.1>
-176.15943509,100.37481327,-58.14483326,80.60152200,-66.20910316,65.49369141
-10.85303604,-1.96909449,-0.99719013,0.30515873,1.90822806

>  <Name>
lig.pdb

>  <RI>
0

>  <Rbt.Current_Directory>
/home/itssahil/PROJECTS/Mol_Feturizer/New_Systems/rnas/4znp

>  <Rbt.Executable>
rbdock ($Id: //depot/dev/client3/rdock/2013.1/src/exe/rbdock.cxx#4 $)

>  <Rbt.Library>
libRbt.so (2013.1, Build901 2013/11/27)

>  <Rbt.Parameter_File>
/export/apps/rDock/src/rDock_2013.1_src/data/scripts/dock_solv.prm

>  <Rbt.Receptor>
prm/blind_docking_80.prm

>  <SCORE>
-15.2661

>  <SCORE.INTER>
-10.2143

>  <SCORE.INTER.CONST>
1

>  <SCORE.INTER.POLAR>
0

>  <SCORE.INTER.ROT>
5

>  <SCORE.INTER.SOLV>
15.6933

>  <SCORE.INTER.VDW>
-18.974

>  <SCORE.INTER.norm>
-0.464285

>  <SCORE.INTRA>
-5.05185

>  <SCORE.INTRA.DIHEDRAL>
-8.582

>  <SCORE.INTRA.DIHEDRAL.0>
11.9251

>  <SCORE.INTRA.POLAR>
0

>  <SCORE.INTRA.POLAR.0>
0

>  <SCORE.INTRA.REPUL>
0

>  <SCORE.INTRA.REPUL.0>
0

>  <SCORE.INTRA.SOLV>
1.09609

>  <SCORE.INTRA.SOLV.lig_0>
-40.9823

>  <SCORE.INTRA.VDW>
-1.30889

>  <SCORE.INTRA.VDW.0>
-0.53506

>  <SCORE.INTRA.norm>
-0.229629

>  <SCORE.RESTR>
0

>  <SCORE.RESTR.CAVITY>
0

>  <SCORE.RESTR.norm>
0

>  <SCORE.SYSTEM>
0

>  <SCORE.SYSTEM.CONST>
0

>  <SCORE.SYSTEM.DIHEDRAL>
0

>  <SCORE.SYSTEM.SOLV>
0

>  <SCORE.SYSTEM.norm>
0

>  <SCORE.heavy>
22

>  <SCORE.norm>
-0.693915

>  <RMSD>
15.176

$$$$
lig.pdb
 OpenBabel11021811523D
libRbt.so/2013.1/901 2013/11/27
 22 23  0  0  0  0  0  0  0  0999 V2000
   68.4937   -7.6842   -6.3101 O   0  0  0  0  0  0  0  0  0  0  0  0
   69.0311   -8.4172   -5.5137 C   0  0  0  0  0  0  0  0  0  0  0  0
   70.3353   -8.6286   -5.5240 N   0  0  0  0  0  0  0  0  0  0  0  0
   68.2272   -9.1423   -4.5195 C   0  0  0  0  0  0  0  0  0  0  0  0
   66.7649   -9.2256   -4.5209 C   0  0  0  0  0  0  0  0  0  0  0  0
   65.9451   -8.6365   -5.4177 N   0  0  0  0  0  0  0  0  0  0  0  0
   68.6002   -9.8538   -3.4439 N   0  0  0  0  0  0  0  0  0  0  0  0
   67.4823  -10.3550   -2.8490 C   0  0  0  0  0  0  0  0  0  0  0  0
   66.3586   -9.9797   -3.5057 N   0  0  0  0  0  0  0  0  0  0  0  0
   64.9661  -10.3473   -3.1300 C   0  0  1  0  0  0  0  0  0  0  0  0
   64.8407  -11.8548   -3.0867 C   0  0  1  0  0  0  0  0  0  0  0  0
   63.9461  -12.1074   -1.9009 C   0  0  2  0  0  0  0  0  0  0  0  0
   62.5771  -12.1412   -2.3236 O   0  0  0  0  0  0  0  0  0  0  0  0
   64.2828  -12.3622   -4.3090 O   0  0  0  0  0  0  0  0  0  0  0  0
   64.6730   -9.8903   -1.8120 O   0  0  0  0  0  0  0  0  0  0  0  0
   64.1425  -10.9130   -1.0038 C   0  0  2  0  0  0  0  0  0  0  0  0
   65.1206  -11.0924    0.1389 C   0  0  0  0  0  0  0  0  0  0  0  0
   64.7452  -12.1595    0.9853 O   0  0  0  0  0  0  0  0  0  0  0  0
   65.5474  -12.3694    2.3509 P   0  0  0  0  0  0  0  0  0  0  0  0
   66.9820  -12.6168    1.9295 O   0  0  0  0  0  0  0  0  0  0  0  0
   64.8456  -13.5600    2.9516 O   0  0  0  0  0  0  0  0  0  0  0  0
   65.2762  -11.1012    3.1117 O   0  0  0  0  0  0  0  0  0  0  0  0
  2  1  2  0  0  0  0
  2  4  1  0  0  0  0
  3  2  1  0  0  0  0
  4  7  1  0  0  0  0
  4  5  2  0  0  0  0
  5  6  1  0  0  0  0
  5  9  1  0  0  0  0
  7  8  2  0  0  0  0
  8  9  1  0  0  0  0
 10  9  1  1  0  0  0
 10 15  1  0  0  0  0
 11 14  1  6  0  0  0
 11 12  1  0  0  0  0
 11 10  1  0  0  0  0
 12 13  1  6  0  0  0
 12 16  1  0  0  0  0
 16 17  1  1  0  0  0
 16 15  1  0  0  0  0
 18 19  1  0  0  0  0
 18 17  1  0  0  0  0
 19 21  1  0  0  0  0
 20 19  1  0  0  0  0
 22 19  2  0  0  0  0
M  END
>  <CHROM.1>
10.00790684,123.40346301,-58.25027958,-60.43529696,-171.81530368,65.96734944
-10.80664701,-1.81403088,-1.18398073,0.38065301,1.87709782

>  <Name>
lig.pdb

>  <RI>
0

>  <Rbt.Current_Directory>
/home/itssahil/PROJECTS/Mol_Feturizer/New_Systems/rnas/4znp

>  <Rbt.Executable>
rbdock ($Id: //depot/dev/client3/rdock/2013.1/src/exe/rbdock.cxx#4 $)

>  <Rbt.Library>
libRbt.so (2013.1, Build901 2013/11/27)

>  <Rbt.Parameter_File>
/export/apps/rDock/src/rDock_2013.1_src/data/scripts/dock_solv.prm

>  <Rbt.Receptor>
prm/blind_docking_80.prm

>  <SCORE>
-15.5814

>  <SCORE.INTER>
-9.83936

>  <SCORE.INTER.CONST>
1

>  <SCORE.INTER.POLAR>
0

>  <SCORE.INTER.ROT>
5

>  <SCORE.INTER.SOLV>
17.967

>  <SCORE.INTER.VDW>
-19.4819

>  <SCORE.INTER.norm>
-0.447244

>  <SCORE.INTRA>
-5.75173

>  <SCORE.INTRA.DIHEDRAL>
-8.75068

>  <SCORE.INTRA.DIHEDRAL.0>
11.9251

>  <SCORE.INTRA.POLAR>
0

>  <SCORE.INTRA.POLAR.0>
0

>  <SCORE.INTRA.REPUL>
0

>  <SCORE.INTRA.REPUL.0>
0

>  <SCORE.INTRA.SOLV>
-0.160818

>  <SCORE.INTRA.SOLV.lig_0>
-40.9823

>  <SCORE.INTRA.VDW>
-1.29598

>  <SCORE.INTRA.VDW.0>
-0.53506

>  <SCORE.INTRA.norm>
-0.261442

>  <SCORE.RESTR>
0.00970735

>  <SCORE.RESTR.CAVITY>
0.00970735

>  <SCORE.RESTR.norm>
0.000441243

>  <SCORE.SYSTEM>
0

>  <SCORE.SYSTEM.CONST>
0

>  <SCORE.SYSTEM.DIHEDRAL>
0

>  <SCORE.SYSTEM.SOLV>
0

>  <SCORE.SYSTEM.norm>
0

>  <SCORE.heavy>
22

>  <SCORE.norm>
-0.708245

>  <RMSD>
15.202

$$$$
lig.pdb
 OpenBabel11021811523D
libRbt.so/2013.1/901 2013/11/27
 22 23  0  0  0  0  0  0  0  0999 V2000
   65.3930  -29.8407    8.2890 O   0  0  0  0  0  0  0  0  0  0  0  0
   66.2176  -29.1623    7.7231 C   0  0  0  0  0  0  0  0  0  0  0  0
   67.4456  -29.5943    7.4969 N   0  0  0  0  0  0  0  0  0  0  0  0
   65.8837  -27.7945    7.3014 C   0  0  0  0  0  0  0  0  0  0  0  0
   64.5365  -27.2199    7.3042 C   0  0  0  0  0  0  0  0  0  0  0  0
   63.4084  -27.8638    7.6732 N   0  0  0  0  0  0  0  0  0  0  0  0
   66.6667  -26.8052    6.8424 N   0  0  0  0  0  0  0  0  0  0  0  0
   65.8887  -25.7121    6.6087 C   0  0  0  0  0  0  0  0  0  0  0  0
   64.5875  -25.9574    6.8946 N   0  0  0  0  0  0  0  0  0  0  0  0
   63.4670  -24.9877    6.7546 C   0  0  1  0  0  0  0  0  0  0  0  0
   62.7367  -25.2509    5.4556 C   0  0  1  0  0  0  0  0  0  0  0  0
   61.2876  -25.0346    5.8074 C   0  0  2  0  0  0  0  0  0  0  0  0
   60.9301  -23.6665    5.5739 O   0  0  0  0  0  0  0  0  0  0  0  0
   63.1856  -24.3617    4.4210 O   0  0  0  0  0  0  0  0  0  0  0  0
   62.5093  -25.1863    7.7915 O   0  0  0  0  0  0  0  0  0  0  0  0
   61.2013  -25.3080    7.2865 C   0  0  2  0  0  0  0  0  0  0  0  0
   60.7280  -26.6917    7.6812 C   0  0  0  0  0  0  0  0  0  0  0  0
   60.5097  -26.7918    9.0734 O   0  0  0  0  0  0  0  0  0  0  0  0
   59.9771  -28.1770    9.6651 P   0  0  0  0  0  0  0  0  0  0  0  0
   58.7309  -28.4934    8.8627 O   0  0  0  0  0  0  0  0  0  0  0  0
   59.7327  -27.8314   11.1114 O   0  0  0  0  0  0  0  0  0  0  0  0
   61.1478  -29.1037    9.4879 O   0  0  0  0  0  0  0  0  0  0  0  0
  2  1  2  0  0  0  0
  2  4  1  0  0  0  0
  3  2  1  0  0  0  0
  4  7  1  0  0  0  0
  4  5  2  0  0  0  0
  5  6  1  0  0  0  0
  5  9  1  0  0  0  0
  7  8  2  0  0  0  0
  8  9  1  0  0  0  0
 10  9  1  1  0  0  0
 10 15  1  0  0  0  0
 11 14  1  6  0  0  0
 11 12  1  0  0  0  0
 11 10  1  0  0  0  0
 12 13  1  1  0  0  0
 12 16  1  0  0  0  0
 16 17  1  6  0  0  0
 16 15  1  0  0  0  0
 18 19  1  0  0  0  0
 18 17  1  0  0  0  0
 19 21  1  0  0  0  0
 20 19  1  0  0  0  0
 22 19  2  0  0  0  0
M  END
>  <CHROM.1>
-10.79601136,-80.36654775,-172.09239197,-53.57566122,178.74553562,62.73527556
-26.92866876,7.66134800,-0.26425292,-0.27956440,2.47500351

>  <Name>
lig.pdb

>  <RI>
0

>  <Rbt.Current_Directory>
/home/itssahil/PROJECTS/Mol_Feturizer/New_Systems/rnas/4znp

>  <Rbt.Executable>
rbdock ($Id: //depot/dev/client3/rdock/2013.1/src/exe/rbdock.cxx#4 $)

>  <Rbt.Library>
libRbt.so (2013.1, Build901 2013/11/27)

>  <Rbt.Parameter_File>
/export/apps/rDock/src/rDock_2013.1_src/data/scripts/dock_solv.prm

>  <Rbt.Receptor>
prm/blind_docking_100.prm

>  <SCORE>
-11.4801

>  <SCORE.INTER>
-6.0683

>  <SCORE.INTER.CONST>
1

>  <SCORE.INTER.POLAR>
0

>  <SCORE.INTER.ROT>
5

>  <SCORE.INTER.SOLV>
13.9747

>  <SCORE.INTER.VDW>
-15.6371

>  <SCORE.INTER.norm>
-0.275832

>  <SCORE.INTRA>
-5.41181

>  <SCORE.INTRA.DIHEDRAL>
-8.83715

>  <SCORE.INTRA.DIHEDRAL.0>
11.9251

>  <SCORE.INTRA.POLAR>
0

>  <SCORE.INTRA.POLAR.0>
0

>  <SCORE.INTRA.REPUL>
0

>  <SCORE.INTRA.REPUL.0>
0

>  <SCORE.INTRA.SOLV>
1.92273

>  <SCORE.INTRA.SOLV.lig_0>
-40.9823

>  <SCORE.INTRA.VDW>
-1.9546

>  <SCORE.INTRA.VDW.0>
-0.53506

>  <SCORE.INTRA.norm>
-0.245991

>  <SCORE.RESTR>
0

>  <SCORE.RESTR.CAVITY>
0

>  <SCORE.RESTR.norm>
0

>  <SCORE.SYSTEM>
0

>  <SCORE.SYSTEM.CONST>
0

>  <SCORE.SYSTEM.DIHEDRAL>
0

>  <SCORE.SYSTEM.SOLV>
0

>  <SCORE.SYSTEM.norm>
0

>  <SCORE.heavy>
22

>  <SCORE.norm>
-0.521823

>  <RMSD>
15.207

$$$$
lig.pdb
 OpenBabel11021811523D
libRbt.so/2013.1/901 2013/11/27
 22 23  0  0  0  0  0  0  0  0999 V2000
   62.5866  -13.2763    0.3501 O   0  0  0  0  0  0  0  0  0  0  0  0
   63.3317  -12.3769    0.6607 C   0  0  0  0  0  0  0  0  0  0  0  0
   63.5162  -12.0222    1.9200 N   0  0  0  0  0  0  0  0  0  0  0  0
   64.0334  -11.6088   -0.3775 C   0  0  0  0  0  0  0  0  0  0  0  0
   63.9556  -11.8745   -1.8158 C   0  0  0  0  0  0  0  0  0  0  0  0
   63.2487  -12.8691   -2.3940 N   0  0  0  0  0  0  0  0  0  0  0  0
   64.8583  -10.5543   -0.2779 N   0  0  0  0  0  0  0  0  0  0  0  0
   65.2356  -10.1813   -1.5322 C   0  0  0  0  0  0  0  0  0  0  0  0
   64.6826  -10.9802   -2.4761 N   0  0  0  0  0  0  0  0  0  0  0  0
   64.8815  -10.8581   -3.9461 C   0  0  1  0  0  0  0  0  0  0  0  0
   64.2483   -9.5723   -4.4318 C   0  0  1  0  0  0  0  0  0  0  0  0
   65.2131   -9.0671   -5.4730 C   0  0  2  0  0  0  0  0  0  0  0  0
   64.8469   -9.5754   -6.7620 O   0  0  0  0  0  0  0  0  0  0  0  0
   62.9394   -9.8126   -4.9717 O   0  0  0  0  0  0  0  0  0  0  0  0
   66.2701  -10.7518   -4.2497 O   0  0  0  0  0  0  0  0  0  0  0  0
   66.5457   -9.6540   -5.0861 C   0  0  2  0  0  0  0  0  0  0  0  0
   67.4680   -8.7482   -4.2965 C   0  0  0  0  0  0  0  0  0  0  0  0
   67.9253   -7.6615   -5.0749 O   0  0  0  0  0  0  0  0  0  0  0  0
   68.9521   -6.6294   -4.4168 P   0  0  0  0  0  0  0  0  0  0  0  0
   69.7516   -6.0760   -5.5793 O   0  0  0  0  0  0  0  0  0  0  0  0
   69.7277   -7.5115   -3.4728 O   0  0  0  0  0  0  0  0  0  0  0  0
   68.0568   -5.6630   -3.6920 O   0  0  0  0  0  0  0  0  0  0  0  0
  2  1  2  0  0  0  0
  2  4  1  0  0  0  0
  3  2  1  0  0  0  0
  4  7  1  0  0  0  0
  4  5  2  0  0  0  0
  5  6  1  0  0  0  0
  5  9  1  0  0  0  0
  7  8  2  0  0  0  0
  8  9  1  0  0  0  0
 10  9  1  1  0  0  0
 10 15  1  0  0  0  0
 11 14  1  6  0  0  0
 11 12  1  0  0  0  0
 11 10  1  0  0  0  0
 12 13  1  6  0  0  0
 12 16  1  0  0  0  0
 16 17  1  1  0  0  0
 16 15  1  0  0  0  0
 18 19  1  0  0  0  0
 18 17  1  0  0  0  0
 19 21  1  0  0  0  0
 20 19  1  0  0  0  0
 22 19  2  0  0  0  0
M  END
>  <CHROM.1>
-2.72080412,113.69170665,-67.65017087,152.19587801,-177.85309844,65.81597781
-9.62138230,-3.21793094,-2.45616209,-0.67579355,-1.35169450

>  <Name>
lig.pdb

>  <RI>
0

>  <Rbt.Current_Directory>
/home/itssahil/PROJECTS/Mol_Feturizer/New_Systems/rnas/4znp

>  <Rbt.Executable>
rbdock ($Id: //depot/dev/client3/rdock/2013.1/src/exe/rbdock.cxx#4 $)

>  <Rbt.Library>
libRbt.so (2013.1, Build901 2013/11/27)

>  <Rbt.Parameter_File>
/export/apps/rDock/src/rDock_2013.1_src/data/scripts/dock_solv.prm

>  <Rbt.Receptor>
prm/blind_docking_80.prm

>  <SCORE>
-16.2207

>  <SCORE.INTER>
-11.3136

>  <SCORE.INTER.CONST>
1

>  <SCORE.INTER.POLAR>
0

>  <SCORE.INTER.ROT>
5

>  <SCORE.INTER.SOLV>
16.9718

>  <SCORE.INTER.VDW>
-20.133

>  <SCORE.INTER.norm>
-0.514257

>  <SCORE.INTRA>
-4.9071

>  <SCORE.INTRA.DIHEDRAL>
-8.26503

>  <SCORE.INTRA.DIHEDRAL.0>
11.9251

>  <SCORE.INTRA.POLAR>
0

>  <SCORE.INTRA.POLAR.0>
0

>  <SCORE.INTRA.REPUL>
0

>  <SCORE.INTRA.REPUL.0>
0

>  <SCORE.INTRA.SOLV>
-0.215887

>  <SCORE.INTRA.SOLV.lig_0>
-40.9823

>  <SCORE.INTRA.VDW>
-0.66664

>  <SCORE.INTRA.VDW.0>
-0.53506

>  <SCORE.INTRA.norm>
-0.22305

>  <SCORE.RESTR>
0

>  <SCORE.RESTR.CAVITY>
0

>  <SCORE.RESTR.norm>
0

>  <SCORE.SYSTEM>
0

>  <SCORE.SYSTEM.CONST>
0

>  <SCORE.SYSTEM.DIHEDRAL>
0

>  <SCORE.SYSTEM.SOLV>
0

>  <SCORE.SYSTEM.norm>
0

>  <SCORE.heavy>
22

>  <SCORE.norm>
-0.737306

>  <RMSD>
15.224

$$$$
lig.pdb
 OpenBabel11021811523D
libRbt.so/2013.1/901 2013/11/27
 22 23  0  0  0  0  0  0  0  0999 V2000
   65.9156  -10.6132    1.2168 O   0  0  0  0  0  0  0  0  0  0  0  0
   64.7847  -11.0235    1.1021 C   0  0  0  0  0  0  0  0  0  0  0  0
   64.0492  -11.3549    2.1486 N   0  0  0  0  0  0  0  0  0  0  0  0
   64.1999  -11.2105   -0.2333 C   0  0  0  0  0  0  0  0  0  0  0  0
   64.8729  -10.8983   -1.4962 C   0  0  0  0  0  0  0  0  0  0  0  0
   66.1130  -10.3781   -1.6180 N   0  0  0  0  0  0  0  0  0  0  0  0
   62.9965  -11.6763   -0.6037 N   0  0  0  0  0  0  0  0  0  0  0  0
   62.9354  -11.6809   -1.9642 C   0  0  0  0  0  0  0  0  0  0  0  0
   64.0808  -11.2124   -2.5151 N   0  0  0  0  0  0  0  0  0  0  0  0
   64.3560  -11.0795   -3.9718 C   0  0  1  0  0  0  0  0  0  0  0  0
   63.9484   -9.6974   -4.4341 C   0  0  1  0  0  0  0  0  0  0  0  0
   65.0213   -9.3175   -5.4216 C   0  0  2  0  0  0  0  0  0  0  0  0
   64.6343   -9.7249   -6.7400 O   0  0  0  0  0  0  0  0  0  0  0  0
   62.6414   -9.7160   -5.0289 O   0  0  0  0  0  0  0  0  0  0  0  0
   65.7557  -11.1809   -4.2214 O   0  0  0  0  0  0  0  0  0  0  0  0
   66.2308  -10.1150   -5.0081 C   0  0  2  0  0  0  0  0  0  0  0  0
   67.2483   -9.3868   -4.1544 C   0  0  0  0  0  0  0  0  0  0  0  0
   67.5947   -8.1343   -4.7087 O   0  0  0  0  0  0  0  0  0  0  0  0
   68.9183   -7.4078   -4.1863 P   0  0  0  0  0  0  0  0  0  0  0  0
   68.6846   -7.1831   -2.7059 O   0  0  0  0  0  0  0  0  0  0  0  0
   68.9450   -6.1557   -5.0243 O   0  0  0  0  0  0  0  0  0  0  0  0
   70.0125   -8.3694   -4.5589 O   0  0  0  0  0  0  0  0  0  0  0  0
  2  1  2  0  0  0  0
  2  4  1  0  0  0  0
  3  2  1  0  0  0  0
  4  7  1  0  0  0  0
  4  5  2  0  0  0  0
  5  6  1  0  0  0  0
  5  9  1  0  0  0  0
  7  8  2  0  0  0  0
  8  9  1  0  0  0  0
 10  9  1  1  0  0  0
 10 15  1  0  0  0  0
 11 14  1  6  0  0  0
 11 12  1  0  0  0  0
 11 10  1  0  0  0  0
 12 13  1  6  0  0  0
 12 16  1  0  0  0  0
 16 17  1  1  0  0  0
 16 15  1  0  0  0  0
 18 19  1  0  0  0  0
 18 17  1  0  0  0  0
 19 21  1  0  0  0  0
 20 19  1  0  0  0  0
 22 19  2  0  0  0  0
M  END
>  <CHROM.1>
-1.86870896,-88.00100852,-49.44643652,-60.83714982,-163.52995495,65.89291861
-9.68291392,-3.06174880,-2.36878361,-0.52896181,-1.36336602

>  <Name>
lig.pdb

>  <RI>
0

>  <Rbt.Current_Directory>
/home/itssahil/PROJECTS/Mol_Feturizer/New_Systems/rnas/4znp

>  <Rbt.Executable>
rbdock ($Id: //depot/dev/client3/rdock/2013.1/src/exe/rbdock.cxx#4 $)

>  <Rbt.Library>
libRbt.so (2013.1, Build901 2013/11/27)

>  <Rbt.Parameter_File>
/export/apps/rDock/src/rDock_2013.1_src/data/scripts/dock_solv.prm

>  <Rbt.Receptor>
prm/blind_docking_80.prm

>  <SCORE>
-16.0361

>  <SCORE.INTER>
-11.2102

>  <SCORE.INTER.CONST>
1

>  <SCORE.INTER.POLAR>
0

>  <SCORE.INTER.ROT>
5

>  <SCORE.INTER.SOLV>
18.0741

>  <SCORE.INTER.VDW>
-20.4315

>  <SCORE.INTER.norm>
-0.509554

>  <SCORE.INTRA>
-4.8259

>  <SCORE.INTRA.DIHEDRAL>
-7.82677

>  <SCORE.INTRA.DIHEDRAL.0>
11.9251

>  <SCORE.INTRA.POLAR>
0

>  <SCORE.INTRA.POLAR.0>
0

>  <SCORE.INTRA.REPUL>
0

>  <SCORE.INTRA.REPUL.0>
0

>  <SCORE.INTRA.SOLV>
1.20446

>  <SCORE.INTRA.SOLV.lig_0>
-40.9823

>  <SCORE.INTRA.VDW>
-1.51474

>  <SCORE.INTRA.VDW.0>
-0.53506

>  <SCORE.INTRA.norm>
-0.219359

>  <SCORE.RESTR>
0

>  <SCORE.RESTR.CAVITY>
0

>  <SCORE.RESTR.norm>
0

>  <SCORE.SYSTEM>
0

>  <SCORE.SYSTEM.CONST>
0

>  <SCORE.SYSTEM.DIHEDRAL>
0

>  <SCORE.SYSTEM.SOLV>
0

>  <SCORE.SYSTEM.norm>
0

>  <SCORE.heavy>
22

>  <SCORE.norm>
-0.728913

>  <RMSD>
15.249

$$$$
lig.pdb
 OpenBabel11021811523D
libRbt.so/2013.1/901 2013/11/27
 22 23  0  0  0  0  0  0  0  0999 V2000
   49.9473   -0.7412    1.9587 O   0  0  0  0  0  0  0  0  0  0  0  0
   49.9292   -0.6086    3.1598 C   0  0  0  0  0  0  0  0  0  0  0  0
   48.8525   -0.8728    3.8785 N   0  0  0  0  0  0  0  0  0  0  0  0
   51.1143   -0.0976    3.8632 C   0  0  0  0  0  0  0  0  0  0  0  0
   51.2322    0.0450    5.3162 C   0  0  0  0  0  0  0  0  0  0  0  0
   50.2693   -0.2512    6.2154 N   0  0  0  0  0  0  0  0  0  0  0  0
   52.2939    0.3343    3.3895 N   0  0  0  0  0  0  0  0  0  0  0  0
   53.0804    0.6851    4.4446 C   0  0  0  0  0  0  0  0  0  0  0  0
   52.4395    0.5049    5.6243 N   0  0  0  0  0  0  0  0  0  0  0  0
   53.0018    0.7874    6.9732 C   0  0  1  0  0  0  0  0  0  0  0  0
   52.1691    0.0805    8.0206 C   0  0  1  0  0  0  0  0  0  0  0  0
   53.1860   -0.4048    9.0210 C   0  0  2  0  0  0  0  0  0  0  0  0
   53.3782    0.5866   10.0380 O   0  0  0  0  0  0  0  0  0  0  0  0
   51.2097    0.9737    8.6072 O   0  0  0  0  0  0  0  0  0  0  0  0
   54.3157    0.2460    7.0840 O   0  0  0  0  0  0  0  0  0  0  0  0
   54.4658   -0.5447    8.2385 C   0  0  2  0  0  0  0  0  0  0  0  0
   54.7980   -1.9394    7.7495 C   0  0  0  0  0  0  0  0  0  0  0  0
   55.2475   -2.7686    8.8014 O   0  0  0  0  0  0  0  0  0  0  0  0
   55.5756   -4.2989    8.4805 P   0  0  0  0  0  0  0  0  0  0  0  0
   56.5215   -4.7367    9.5806 O   0  0  0  0  0  0  0  0  0  0  0  0
   56.1919   -4.2104    7.1082 O   0  0  0  0  0  0  0  0  0  0  0  0
   54.2193   -4.9477    8.4581 O   0  0  0  0  0  0  0  0  0  0  0  0
  2  1  2  0  0  0  0
  2  4  1  0  0  0  0
  3  2  1  0  0  0  0
  4  7  1  0  0  0  0
  4  5  2  0  0  0  0
  5  6  1  0  0  0  0
  5  9  1  0  0  0  0
  7  8  2  0  0  0  0
  8  9  1  0  0  0  0
 10  9  1  6  0  0  0
 10 15  1  0  0  0  0
 11 14  1  1  0  0  0
 11 12  1  0  0  0  0
 11 10  1  0  0  0  0
 12 13  1  1  0  0  0
 12 16  1  0  0  0  0
 16 17  1  6  0  0  0
 16 15  1  0  0  0  0
 18 19  1  0  0  0  0
 18 17  1  0  0  0  0
 19 21  1  0  0  0  0
 20 19  1  0  0  0  0
 22 19  2  0  0  0  0
M  END
>  <CHROM.1>
-176.94104215,17.61644410,-74.40436133,157.67285118,177.04292655,53.10420229
-1.25396524,6.81850403,-3.01004853,-0.87753022,0.83262980

>  <Name>
lig.pdb

>  <RI>
0

>  <Rbt.Current_Directory>
/home/afrankz/demos/rdock_decoys_rna/rnas/4znp

>  <Rbt.Executable>
rbdock ($Id: //depot/dev/client3/rdock/2013.1/src/exe/rbdock.cxx#4 $)

>  <Rbt.Library>
libRbt.so (2013.1, Build901 2013/11/27)

>  <Rbt.Parameter_File>
/export/apps/rDock/src/rDock_2013.1_src/data/scripts/dock_solv.prm

>  <Rbt.Receptor>
prm/blind_docking_60.prm

>  <SCORE>
4.33816

>  <SCORE.INTER>
2.70978

>  <SCORE.INTER.CONST>
1

>  <SCORE.INTER.POLAR>
0

>  <SCORE.INTER.ROT>
5

>  <SCORE.INTER.SOLV>
14.179

>  <SCORE.INTER.VDW>
-9.85316

>  <SCORE.INTER.norm>
0.123172

>  <SCORE.INTRA>
-3.05344

>  <SCORE.INTRA.DIHEDRAL>
-7.97432

>  <SCORE.INTRA.DIHEDRAL.0>
11.9251

>  <SCORE.INTRA.POLAR>
0

>  <SCORE.INTRA.POLAR.0>
0

>  <SCORE.INTRA.REPUL>
0

>  <SCORE.INTRA.REPUL.0>
0

>  <SCORE.INTRA.SOLV>
0.941059

>  <SCORE.INTRA.SOLV.lig_0>
-40.9823

>  <SCORE.INTRA.VDW>
0.463188

>  <SCORE.INTRA.VDW.0>
-0.53506

>  <SCORE.INTRA.norm>
-0.138793

>  <SCORE.RESTR>
4.68183

>  <SCORE.RESTR.CAVITY>
4.68183

>  <SCORE.RESTR.norm>
0.21281

>  <SCORE.SYSTEM>
0

>  <SCORE.SYSTEM.CONST>
0

>  <SCORE.SYSTEM.DIHEDRAL>
0

>  <SCORE.SYSTEM.SOLV>
0

>  <SCORE.SYSTEM.norm>
0

>  <SCORE.heavy>
22

>  <SCORE.norm>
0.197189

>  <RMSD>
15.266

$$$$
lig.pdb
 OpenBabel11021811523D
libRbt.so/2013.1/901 2013/11/27
 22 23  0  0  0  0  0  0  0  0999 V2000
   49.9483   -2.0601    1.3919 O   0  0  0  0  0  0  0  0  0  0  0  0
   49.7919   -1.4676    2.4336 C   0  0  0  0  0  0  0  0  0  0  0  0
   48.6164   -1.4016    3.0332 N   0  0  0  0  0  0  0  0  0  0  0  0
   50.9177   -0.7530    3.0518 C   0  0  0  0  0  0  0  0  0  0  0  0
   50.9371   -0.2437    4.4249 C   0  0  0  0  0  0  0  0  0  0  0  0
   49.9235   -0.3377    5.3121 N   0  0  0  0  0  0  0  0  0  0  0  0
   52.1169   -0.4124    2.5534 N   0  0  0  0  0  0  0  0  0  0  0  0
   52.8252    0.2219    3.5285 C   0  0  0  0  0  0  0  0  0  0  0  0
   52.1121    0.3226    4.6758 N   0  0  0  0  0  0  0  0  0  0  0  0
   52.5788    0.9568    5.9388 C   0  0  1  0  0  0  0  0  0  0  0  0
   51.7032    0.4958    7.0837 C   0  0  1  0  0  0  0  0  0  0  0  0
   52.6688    0.3212    8.2272 C   0  0  2  0  0  0  0  0  0  0  0  0
   52.7660    1.5420    8.9716 O   0  0  0  0  0  0  0  0  0  0  0  0
   50.6818    1.4624    7.3749 O   0  0  0  0  0  0  0  0  0  0  0  0
   53.8989    0.5201    6.2525 O   0  0  0  0  0  0  0  0  0  0  0  0
   53.9994    0.0490    7.5750 C   0  0  2  0  0  0  0  0  0  0  0  0
   54.4041   -1.4069    7.4703 C   0  0  0  0  0  0  0  0  0  0  0  0
   54.7999   -1.9303    8.7214 O   0  0  0  0  0  0  0  0  0  0  0  0
   55.2522   -3.4606    8.8004 P   0  0  0  0  0  0  0  0  0  0  0  0
   53.9634   -4.2435    8.9524 O   0  0  0  0  0  0  0  0  0  0  0  0
   56.1470   -3.4651   10.0128 O   0  0  0  0  0  0  0  0  0  0  0  0
   56.0184   -3.6628    7.5226 O   0  0  0  0  0  0  0  0  0  0  0  0
  2  1  2  0  0  0  0
  2  4  1  0  0  0  0
  3  2  1  0  0  0  0
  4  7  1  0  0  0  0
  4  5  2  0  0  0  0
  5  6  1  0  0  0  0
  5  9  1  0  0  0  0
  7  8  2  0  0  0  0
  8  9  1  0  0  0  0
 10  9  1  6  0  0  0
 10 15  1  0  0  0  0
 11 14  1  1  0  0  0
 11 12  1  0  0  0  0
 11 10  1  0  0  0  0
 12 13  1  6  0  0  0
 12 16  1  0  0  0  0
 16 17  1  6  0  0  0
 16 15  1  0  0  0  0
 18 19  1  0  0  0  0
 18 17  1  0  0  0  0
 19 21  1  0  0  0  0
 20 19  1  0  0  0  0
 22 19  2  0  0  0  0
M  END
>  <CHROM.1>
-166.50254340,18.24451273,-73.89567663,-84.46118866,179.62127979,52.76819455
-1.04471827,6.30900963,-2.88995015,-0.88481940,0.68204693

>  <Name>
lig.pdb

>  <RI>
0

>  <Rbt.Current_Directory>
/home/afrankz/demos/rdock_decoys_rna/rnas/4znp

>  <Rbt.Executable>
rbdock ($Id: //depot/dev/client3/rdock/2013.1/src/exe/rbdock.cxx#4 $)

>  <Rbt.Library>
libRbt.so (2013.1, Build901 2013/11/27)

>  <Rbt.Parameter_File>
/export/apps/rDock/src/rDock_2013.1_src/data/scripts/dock_solv.prm

>  <Rbt.Receptor>
prm/blind_docking_60.prm

>  <SCORE>
3.3164

>  <SCORE.INTER>
2.43028

>  <SCORE.INTER.CONST>
1

>  <SCORE.INTER.POLAR>
0

>  <SCORE.INTER.ROT>
5

>  <SCORE.INTER.SOLV>
15.1693

>  <SCORE.INTER.VDW>
-10.3696

>  <SCORE.INTER.norm>
0.110467

>  <SCORE.INTRA>
-2.8843

>  <SCORE.INTRA.DIHEDRAL>
-7.28274

>  <SCORE.INTRA.DIHEDRAL.0>
11.9251

>  <SCORE.INTRA.POLAR>
0

>  <SCORE.INTRA.POLAR.0>
0

>  <SCORE.INTRA.REPUL>
0

>  <SCORE.INTRA.REPUL.0>
0

>  <SCORE.INTRA.SOLV>
1.06329

>  <SCORE.INTRA.SOLV.lig_0>
-40.9823

>  <SCORE.INTRA.VDW>
0.225428

>  <SCORE.INTRA.VDW.0>
-0.53506

>  <SCORE.INTRA.norm>
-0.131104

>  <SCORE.RESTR>
3.77041

>  <SCORE.RESTR.CAVITY>
3.77041

>  <SCORE.RESTR.norm>
0.171382

>  <SCORE.SYSTEM>
0

>  <SCORE.SYSTEM.CONST>
0

>  <SCORE.SYSTEM.DIHEDRAL>
0

>  <SCORE.SYSTEM.SOLV>
0

>  <SCORE.SYSTEM.norm>
0

>  <SCORE.heavy>
22

>  <SCORE.norm>
0.150745

>  <RMSD>
15.546

$$$$
lig.pdb
 OpenBabel11021811523D
libRbt.so/2013.1/901 2013/11/27
 22 23  0  0  0  0  0  0  0  0999 V2000
   48.6833   -1.3733    3.2898 O   0  0  0  0  0  0  0  0  0  0  0  0
   49.7238   -1.3741    2.6752 C   0  0  0  0  0  0  0  0  0  0  0  0
   49.8622   -2.0207    1.5313 N   0  0  0  0  0  0  0  0  0  0  0  0
   50.9002   -0.6782    3.2157 C   0  0  0  0  0  0  0  0  0  0  0  0
   51.0163   -0.1609    4.5811 C   0  0  0  0  0  0  0  0  0  0  0  0
   50.0592   -0.2290    5.5311 N   0  0  0  0  0  0  0  0  0  0  0  0
   52.0718   -0.3648    2.6401 N   0  0  0  0  0  0  0  0  0  0  0  0
   52.8527    0.2613    3.5637 C   0  0  0  0  0  0  0  0  0  0  0  0
   52.2157    0.3834    4.7529 N   0  0  0  0  0  0  0  0  0  0  0  0
   52.7737    1.0161    5.9792 C   0  0  1  0  0  0  0  0  0  0  0  0
   51.8435    0.7559    7.1442 C   0  0  1  0  0  0  0  0  0  0  0  0
   52.7767    0.5100    8.3014 C   0  0  2  0  0  0  0  0  0  0  0  0
   53.0531    1.7453    8.9735 O   0  0  0  0  0  0  0  0  0  0  0  0
   50.9749    1.8766    7.3723 O   0  0  0  0  0  0  0  0  0  0  0  0
   54.0168    0.4108    6.3255 O   0  0  0  0  0  0  0  0  0  0  0  0
   54.0514    0.0088    7.6738 C   0  0  2  0  0  0  0  0  0  0  0  0
   54.2391   -1.4942    7.6571 C   0  0  0  0  0  0  0  0  0  0  0  0
   55.5048   -1.8683    8.1610 O   0  0  0  0  0  0  0  0  0  0  0  0
   55.9024   -3.4157    8.1544 P   0  0  0  0  0  0  0  0  0  0  0  0
   57.3539   -3.4499    8.5889 O   0  0  0  0  0  0  0  0  0  0  0  0
   55.6582   -3.8000    6.7179 O   0  0  0  0  0  0  0  0  0  0  0  0
   54.9024   -4.0353    9.0907 O   0  0  0  0  0  0  0  0  0  0  0  0
  2  1  2  0  0  0  0
  2  4  1  0  0  0  0
  3  2  1  0  0  0  0
  4  7  1  0  0  0  0
  4  5  2  0  0  0  0
  5  6  1  0  0  0  0
  5  9  1  0  0  0  0
  7  8  2  0  0  0  0
  8  9  1  0  0  0  0
 10  9  1  6  0  0  0
 10 15  1  0  0  0  0
 11 14  1  1  0  0  0
 11 12  1  0  0  0  0
 11 10  1  0  0  0  0
 12 13  1  6  0  0  0
 12 16  1  0  0  0  0
 16 17  1  6  0  0  0
 16 15  1  0  0  0  0
 18 19  1  0  0  0  0
 18 17  1  0  0  0  0
 19 21  1  0  0  0  0
 20 19  1  0  0  0  0
 22 19  2  0  0  0  0
M  END
>  <CHROM.1>
11.71666927,9.56731002,-129.87151830,173.23840477,-177.19214339,52.99688516
-0.96702848,6.20851953,-2.94234251,-0.76315901,0.73194308

>  <Name>
lig.pdb

>  <RI>
0

>  <Rbt.Current_Directory>
/home/afrankz/demos/rdock_decoys_rna/rnas/4znp

>  <Rbt.Executable>
rbdock ($Id: //depot/dev/client3/rdock/2013.1/src/exe/rbdock.cxx#4 $)

>  <Rbt.Library>
libRbt.so (2013.1, Build901 2013/11/27)

>  <Rbt.Parameter_File>
/export/apps/rDock/src/rDock_2013.1_src/data/scripts/dock_solv.prm

>  <Rbt.Receptor>
prm/blind_docking_60.prm

>  <SCORE>
2.68367

>  <SCORE.INTER>
-0.154845

>  <SCORE.INTER.CONST>
1

>  <SCORE.INTER.POLAR>
0

>  <SCORE.INTER.ROT>
5

>  <SCORE.INTER.SOLV>
16.1748

>  <SCORE.INTER.VDW>
-12.4282

>  <SCORE.INTER.norm>
-0.00703841

>  <SCORE.INTRA>
-1.27214

>  <SCORE.INTRA.DIHEDRAL>
-3.93291

>  <SCORE.INTRA.DIHEDRAL.0>
11.9251

>  <SCORE.INTRA.POLAR>
0

>  <SCORE.INTRA.POLAR.0>
0

>  <SCORE.INTRA.REPUL>
0

>  <SCORE.INTRA.REPUL.0>
0

>  <SCORE.INTRA.SOLV>
0.649078

>  <SCORE.INTRA.SOLV.lig_0>
-40.9823

>  <SCORE.INTRA.VDW>
0.369775

>  <SCORE.INTRA.VDW.0>
-0.53506

>  <SCORE.INTRA.norm>
-0.0578247

>  <SCORE.RESTR>
4.11066

>  <SCORE.RESTR.CAVITY>
4.11066

>  <SCORE.RESTR.norm>
0.186848

>  <SCORE.SYSTEM>
0

>  <SCORE.SYSTEM.CONST>
0

>  <SCORE.SYSTEM.DIHEDRAL>
0

>  <SCORE.SYSTEM.SOLV>
0

>  <SCORE.SYSTEM.norm>
0

>  <SCORE.heavy>
22

>  <SCORE.norm>
0.121985

>  <RMSD>
15.550

$$$$
lig.pdb
 OpenBabel11021811523D
libRbt.so/2013.1/901 2013/11/27
 22 23  0  0  0  0  0  0  0  0999 V2000
   49.2787   -1.6723    2.6510 O   0  0  0  0  0  0  0  0  0  0  0  0
   49.5489   -1.1601    3.7117 C   0  0  0  0  0  0  0  0  0  0  0  0
   48.7046   -1.1645    4.7280 N   0  0  0  0  0  0  0  0  0  0  0  0
   50.8322   -0.4662    3.8900 C   0  0  0  0  0  0  0  0  0  0  0  0
   51.3885   -0.0465    5.1783 C   0  0  0  0  0  0  0  0  0  0  0  0
   50.7992   -0.2165    6.3813 N   0  0  0  0  0  0  0  0  0  0  0  0
   51.7458   -0.0719    2.9886 N   0  0  0  0  0  0  0  0  0  0  0  0
   52.7828    0.5110    3.6517 C   0  0  0  0  0  0  0  0  0  0  0  0
   52.5730    0.5240    4.9899 N   0  0  0  0  0  0  0  0  0  0  0  0
   53.4995    1.0838    6.0115 C   0  0  1  0  0  0  0  0  0  0  0  0
   52.6935    1.6755    7.1474 C   0  0  1  0  0  0  0  0  0  0  0  0
   53.4837    1.3104    8.3773 C   0  0  2  0  0  0  0  0  0  0  0  0
   54.4208    2.3519    8.6796 O   0  0  0  0  0  0  0  0  0  0  0  0
   52.5491    3.0960    6.9935 O   0  0  0  0  0  0  0  0  0  0  0  0
   54.2864    0.0441    6.5873 O   0  0  0  0  0  0  0  0  0  0  0  0
   54.2500    0.0711    7.9939 C   0  0  2  0  0  0  0  0  0  0  0  0
   53.6399   -1.2477    8.4215 C   0  0  0  0  0  0  0  0  0  0  0  0
   54.4909   -2.3366    8.1280 O   0  0  0  0  0  0  0  0  0  0  0  0
   55.7899   -2.5558    9.0320 P   0  0  0  0  0  0  0  0  0  0  0  0
   55.2641   -3.0723   10.3562 O   0  0  0  0  0  0  0  0  0  0  0  0
   56.3819   -1.1709    9.0782 O   0  0  0  0  0  0  0  0  0  0  0  0
   56.6226   -3.5075    8.2186 O   0  0  0  0  0  0  0  0  0  0  0  0
  2  1  2  0  0  0  0
  2  4  1  0  0  0  0
  3  2  1  0  0  0  0
  4  7  1  0  0  0  0
  4  5  2  0  0  0  0
  5  6  1  0  0  0  0
  5  9  1  0  0  0  0
  7  8  2  0  0  0  0
  8  9  1  0  0  0  0
 10  9  1  6  0  0  0
 10 15  1  0  0  0  0
 11 14  1  6  0  0  0
 11 12  1  0  0  0  0
 11 10  1  0  0  0  0
 12 13  1  6  0  0  0
 12 16  1  0  0  0  0
 16 17  1  6  0  0  0
 16 15  1  0  0  0  0
 18 19  1  0  0  0  0
 18 17  1  0  0  0  0
 19 21  1  0  0  0  0
 20 19  1  0  0  0  0
 22 19  2  0  0  0  0
M  END
>  <CHROM.1>
-167.05755461,-33.43266594,-174.44318705,72.74718976,73.99195946,53.19679223
-0.51334612,6.72958770,3.00440657,-0.79165502,0.11044299

>  <Name>
lig.pdb

>  <RI>
0

>  <Rbt.Current_Directory>
/home/afrankz/demos/rdock_decoys_rna/rnas/4znp

>  <Rbt.Executable>
rbdock ($Id: //depot/dev/client3/rdock/2013.1/src/exe/rbdock.cxx#4 $)

>  <Rbt.Library>
libRbt.so (2013.1, Build901 2013/11/27)

>  <Rbt.Parameter_File>
/export/apps/rDock/src/rDock_2013.1_src/data/scripts/dock_solv.prm

>  <Rbt.Receptor>
prm/blind_docking_60.prm

>  <SCORE>
3.89162

>  <SCORE.INTER>
2.71072

>  <SCORE.INTER.CONST>
1

>  <SCORE.INTER.POLAR>
0

>  <SCORE.INTER.ROT>
5

>  <SCORE.INTER.SOLV>
16.1767

>  <SCORE.INTER.VDW>
-10.5184

>  <SCORE.INTER.norm>
0.123214

>  <SCORE.INTRA>
-3.45633

>  <SCORE.INTRA.DIHEDRAL>
-7.56256

>  <SCORE.INTRA.DIHEDRAL.0>
11.9251

>  <SCORE.INTRA.POLAR>
0

>  <SCORE.INTRA.POLAR.0>
0

>  <SCORE.INTRA.REPUL>
0

>  <SCORE.INTRA.REPUL.0>
0

>  <SCORE.INTRA.SOLV>
1.8148

>  <SCORE.INTRA.SOLV.lig_0>
-40.9823

>  <SCORE.INTRA.VDW>
-0.582448

>  <SCORE.INTRA.VDW.0>
-0.53506

>  <SCORE.INTRA.norm>
-0.157106

>  <SCORE.RESTR>
4.63723

>  <SCORE.RESTR.CAVITY>
4.63723

>  <SCORE.RESTR.norm>
0.210783

>  <SCORE.SYSTEM>
0

>  <SCORE.SYSTEM.CONST>
0

>  <SCORE.SYSTEM.DIHEDRAL>
0

>  <SCORE.SYSTEM.SOLV>
0

>  <SCORE.SYSTEM.norm>
0

>  <SCORE.heavy>
22

>  <SCORE.norm>
0.176892

>  <RMSD>
15.563

$$$$
lig.pdb
 OpenBabel11021811523D
libRbt.so/2013.1/901 2013/11/27
 22 23  0  0  0  0  0  0  0  0999 V2000
   48.5993   -1.5486    2.9052 O   0  0  0  0  0  0  0  0  0  0  0  0
   49.6949   -1.6358    2.4026 C   0  0  0  0  0  0  0  0  0  0  0  0
   49.9354   -2.4361    1.3792 N   0  0  0  0  0  0  0  0  0  0  0  0
   50.8225   -0.8717    2.9548 C   0  0  0  0  0  0  0  0  0  0  0  0
   50.8651   -0.2897    4.2982 C   0  0  0  0  0  0  0  0  0  0  0  0
   49.8741   -0.3520    5.2133 N   0  0  0  0  0  0  0  0  0  0  0  0
   52.0039   -0.5395    2.4104 N   0  0  0  0  0  0  0  0  0  0  0  0
   52.7238    0.1569    3.3332 C   0  0  0  0  0  0  0  0  0  0  0  0
   52.0359    0.3075    4.4904 N   0  0  0  0  0  0  0  0  0  0  0  0
   52.5210    1.0155    5.7064 C   0  0  1  0  0  0  0  0  0  0  0  0
   51.6353    0.6582    6.8803 C   0  0  1  0  0  0  0  0  0  0  0  0
   52.5977    0.5382    8.0335 C   0  0  2  0  0  0  0  0  0  0  0  0
   52.7280    1.8048    8.6913 O   0  0  0  0  0  0  0  0  0  0  0  0
   50.6401    1.6693    7.1033 O   0  0  0  0  0  0  0  0  0  0  0  0
   53.8296    0.5670    6.0502 O   0  0  0  0  0  0  0  0  0  0  0  0
   53.9197    0.1865    7.4021 C   0  0  2  0  0  0  0  0  0  0  0  0
   54.2859   -1.2833    7.3990 C   0  0  0  0  0  0  0  0  0  0  0  0
   55.2145   -1.5925    8.4179 O   0  0  0  0  0  0  0  0  0  0  0  0
   55.7215   -3.1012    8.5568 P   0  0  0  0  0  0  0  0  0  0  0  0
   57.0375   -3.0061    9.3024 O   0  0  0  0  0  0  0  0  0  0  0  0
   55.8347   -3.5319    7.1171 O   0  0  0  0  0  0  0  0  0  0  0  0
   54.5884   -3.7842    9.2712 O   0  0  0  0  0  0  0  0  0  0  0  0
  2  1  2  0  0  0  0
  2  4  1  0  0  0  0
  3  2  1  0  0  0  0
  4  7  1  0  0  0  0
  4  5  2  0  0  0  0
  5  6  1  0  0  0  0
  5  9  1  0  0  0  0
  7  8  2  0  0  0  0
  8  9  1  0  0  0  0
 10  9  1  6  0  0  0
 10 15  1  0  0  0  0
 11 14  1  1  0  0  0
 11 12  1  0  0  0  0
 11 10  1  0  0  0  0
 12 13  1  6  0  0  0
 12 16  1  0  0  0  0
 16 17  1  6  0  0  0
 16 15  1  0  0  0  0
 18 19  1  0  0  0  0
 18 17  1  0  0  0  0
 19 21  1  0  0  0  0
 20 19  1  0  0  0  0
 22 19  2  0  0  0  0
M  END
>  <CHROM.1>
18.63223401,15.31867152,-101.26832090,158.24439710,-179.61385794,52.84058728
-0.93121723,6.12967333,-2.84902593,-0.78729403,0.71370654

>  <Name>
lig.pdb

>  <RI>
0

>  <Rbt.Current_Directory>
/home/afrankz/demos/rdock_decoys_rna/rnas/4znp

>  <Rbt.Executable>
rbdock ($Id: //depot/dev/client3/rdock/2013.1/src/exe/rbdock.cxx#4 $)

>  <Rbt.Library>
libRbt.so (2013.1, Build901 2013/11/27)

>  <Rbt.Parameter_File>
/export/apps/rDock/src/rDock_2013.1_src/data/scripts/dock_solv.prm

>  <Rbt.Receptor>
prm/blind_docking_60.prm

>  <SCORE>
2.29415

>  <SCORE.INTER>
-0.908158

>  <SCORE.INTER.CONST>
1

>  <SCORE.INTER.POLAR>
0

>  <SCORE.INTER.ROT>
5

>  <SCORE.INTER.SOLV>
15.3131

>  <SCORE.INTER.VDW>
-12.6431

>  <SCORE.INTER.norm>
-0.0412799

>  <SCORE.INTRA>
-0.971877

>  <SCORE.INTRA.DIHEDRAL>
-3.44141

>  <SCORE.INTRA.DIHEDRAL.0>
11.9251

>  <SCORE.INTRA.POLAR>
0

>  <SCORE.INTRA.POLAR.0>
0

>  <SCORE.INTRA.REPUL>
0

>  <SCORE.INTRA.REPUL.0>
0

>  <SCORE.INTRA.SOLV>
0.558909

>  <SCORE.INTRA.SOLV.lig_0>
-40.9823

>  <SCORE.INTRA.VDW>
0.469373

>  <SCORE.INTRA.VDW.0>
-0.53506

>  <SCORE.INTRA.norm>
-0.0441762

>  <SCORE.RESTR>
4.17419

>  <SCORE.RESTR.CAVITY>
4.17419

>  <SCORE.RESTR.norm>
0.189736

>  <SCORE.SYSTEM>
0

>  <SCORE.SYSTEM.CONST>
0

>  <SCORE.SYSTEM.DIHEDRAL>
0

>  <SCORE.SYSTEM.SOLV>
0

>  <SCORE.SYSTEM.norm>
0

>  <SCORE.heavy>
22

>  <SCORE.norm>
0.10428

>  <RMSD>
15.620

$$$$
lig.pdb
 OpenBabel11021811523D
libRbt.so/2013.1/901 2013/11/27
 22 23  0  0  0  0  0  0  0  0999 V2000
   69.7279   -5.2947   -3.5928 O   0  0  0  0  0  0  0  0  0  0  0  0
   69.0174   -6.0595   -4.2016 C   0  0  0  0  0  0  0  0  0  0  0  0
   68.5370   -5.7693   -5.3978 N   0  0  0  0  0  0  0  0  0  0  0  0
   68.6246   -7.3406   -3.5977 C   0  0  0  0  0  0  0  0  0  0  0  0
   67.6264   -8.2589   -4.1505 C   0  0  0  0  0  0  0  0  0  0  0  0
   66.9111   -8.0560   -5.2777 N   0  0  0  0  0  0  0  0  0  0  0  0
   69.0469   -7.9443   -2.4753 N   0  0  0  0  0  0  0  0  0  0  0  0
   68.3968   -9.1349   -2.3548 C   0  0  0  0  0  0  0  0  0  0  0  0
   67.5323   -9.3354   -3.3782 N   0  0  0  0  0  0  0  0  0  0  0  0
   66.6605  -10.5278   -3.5612 C   0  0  1  0  0  0  0  0  0  0  0  0
   67.3808  -11.7574   -3.0519 C   0  0  1  0  0  0  0  0  0  0  0  0
   66.2939  -12.5612   -2.3864 C   0  0  2  0  0  0  0  0  0  0  0  0
   65.7075  -13.4631   -3.3334 O   0  0  0  0  0  0  0  0  0  0  0  0
   68.0068  -12.4726   -4.1286 O   0  0  0  0  0  0  0  0  0  0  0  0
   65.4827  -10.4051   -2.7678 O   0  0  0  0  0  0  0  0  0  0  0  0
   65.2546  -11.5489   -1.9800 C   0  0  2  0  0  0  0  0  0  0  0  0
   65.3077  -11.0817   -0.5400 C   0  0  0  0  0  0  0  0  0  0  0  0
   65.0830  -12.1450    0.3628 O   0  0  0  0  0  0  0  0  0  0  0  0
   65.0633  -11.8263    1.9282 P   0  0  0  0  0  0  0  0  0  0  0  0
   63.9951  -10.7649    2.0993 O   0  0  0  0  0  0  0  0  0  0  0  0
   66.4737  -11.3562    2.1743 O   0  0  0  0  0  0  0  0  0  0  0  0
   64.7896  -13.1666    2.5522 O   0  0  0  0  0  0  0  0  0  0  0  0
  2  1  2  0  0  0  0
  2  4  1  0  0  0  0
  3  2  1  0  0  0  0
  4  7  1  0  0  0  0
  4  5  2  0  0  0  0
  5  6  1  0  0  0  0
  5  9  1  0  0  0  0
  7  8  2  0  0  0  0
  8  9  1  0  0  0  0
 10  9  1  1  0  0  0
 10 15  1  0  0  0  0
 11 14  1  6  0  0  0
 11 12  1  0  0  0  0
 11 10  1  0  0  0  0
 12 13  1  6  0  0  0
 12 16  1  0  0  0  0
 16 17  1  1  0  0  0
 16 15  1  0  0  0  0
 18 19  1  0  0  0  0
 18 17  1  0  0  0  0
 19 21  1  0  0  0  0
 20 19  1  0  0  0  0
 22 19  2  0  0  0  0
M  END
>  <CHROM.1>
170.98560196,146.18616662,-62.44214826,56.63027655,-178.33819992,66.70627646
-10.19401145,-1.82532444,-0.22365176,1.11888624,0.98448750

>  <Name>
lig.pdb

>  <RI>
0

>  <Rbt.Current_Directory>
/home/itssahil/PROJECTS/Mol_Feturizer/New_Systems/rnas/4znp

>  <Rbt.Executable>
rbdock ($Id: //depot/dev/client3/rdock/2013.1/src/exe/rbdock.cxx#4 $)

>  <Rbt.Library>
libRbt.so (2013.1, Build901 2013/11/27)

>  <Rbt.Parameter_File>
/export/apps/rDock/src/rDock_2013.1_src/data/scripts/dock_solv.prm

>  <Rbt.Receptor>
prm/blind_docking_80.prm

>  <SCORE>
-21.7438

>  <SCORE.INTER>
-16.2682

>  <SCORE.INTER.CONST>
1

>  <SCORE.INTER.POLAR>
0

>  <SCORE.INTER.ROT>
5

>  <SCORE.INTER.SOLV>
18.9336

>  <SCORE.INTER.VDW>
-24.09

>  <SCORE.INTER.norm>
-0.739464

>  <SCORE.INTRA>
-5.47556

>  <SCORE.INTRA.DIHEDRAL>
-9.20394

>  <SCORE.INTRA.DIHEDRAL.0>
11.9251

>  <SCORE.INTRA.POLAR>
0

>  <SCORE.INTRA.POLAR.0>
0

>  <SCORE.INTRA.REPUL>
0

>  <SCORE.INTRA.REPUL.0>
0

>  <SCORE.INTRA.SOLV>
-0.165873

>  <SCORE.INTRA.SOLV.lig_0>
-40.9823

>  <SCORE.INTRA.VDW>
-0.79065

>  <SCORE.INTRA.VDW.0>
-0.53506

>  <SCORE.INTRA.norm>
-0.248889

>  <SCORE.RESTR>
0

>  <SCORE.RESTR.CAVITY>
0

>  <SCORE.RESTR.norm>
0

>  <SCORE.SYSTEM>
0

>  <SCORE.SYSTEM.CONST>
0

>  <SCORE.SYSTEM.DIHEDRAL>
0

>  <SCORE.SYSTEM.SOLV>
0

>  <SCORE.SYSTEM.norm>
0

>  <SCORE.heavy>
22

>  <SCORE.norm>
-0.988353

>  <RMSD>
15.716

$$$$
lig.pdb
 OpenBabel11021811523D
libRbt.so/2013.1/901 2013/11/27
 22 23  0  0  0  0  0  0  0  0999 V2000
   50.9397   -2.0033    0.9697 O   0  0  0  0  0  0  0  0  0  0  0  0
   50.0939   -2.0254    1.8325 C   0  0  0  0  0  0  0  0  0  0  0  0
   48.9753   -2.7162    1.7007 N   0  0  0  0  0  0  0  0  0  0  0  0
   50.2700   -1.2337    3.0583 C   0  0  0  0  0  0  0  0  0  0  0  0
   51.4784   -0.4833    3.4072 C   0  0  0  0  0  0  0  0  0  0  0  0
   52.6076   -0.4248    2.6690 N   0  0  0  0  0  0  0  0  0  0  0  0
   49.4347   -1.0166    4.0867 N   0  0  0  0  0  0  0  0  0  0  0  0
   50.0507   -0.1894    4.9759 C   0  0  0  0  0  0  0  0  0  0  0  0
   51.2971    0.1447    4.5635 N   0  0  0  0  0  0  0  0  0  0  0  0
   52.2475    1.0295    5.2910 C   0  0  1  0  0  0  0  0  0  0  0  0
   51.7139    1.3022    6.6806 C   0  0  1  0  0  0  0  0  0  0  0  0
   52.9451    1.2822    7.5489 C   0  0  2  0  0  0  0  0  0  0  0  0
   53.4920    2.6034    7.6467 O   0  0  0  0  0  0  0  0  0  0  0  0
   51.0296    2.5638    6.7330 O   0  0  0  0  0  0  0  0  0  0  0  0
   53.4975    0.3689    5.4722 O   0  0  0  0  0  0  0  0  0  0  0  0
   53.9271    0.4092    6.8118 C   0  0  2  0  0  0  0  0  0  0  0  0
   54.0087   -1.0330    7.2680 C   0  0  0  0  0  0  0  0  0  0  0  0
   55.0100   -1.2152    8.2479 O   0  0  0  0  0  0  0  0  0  0  0  0
   55.4302   -2.7053    8.6424 P   0  0  0  0  0  0  0  0  0  0  0  0
   55.9472   -3.3206    7.3575 O   0  0  0  0  0  0  0  0  0  0  0  0
   54.1308   -3.2788    9.1456 O   0  0  0  0  0  0  0  0  0  0  0  0
   56.4320   -2.5033    9.7453 O   0  0  0  0  0  0  0  0  0  0  0  0
  2  1  2  0  0  0  0
  2  4  1  0  0  0  0
  3  2  1  0  0  0  0
  4  7  1  0  0  0  0
  4  5  2  0  0  0  0
  5  6  1  0  0  0  0
  5  9  1  0  0  0  0
  7  8  2  0  0  0  0
  8  9  1  0  0  0  0
 10  9  1  6  0  0  0
 10 15  1  0  0  0  0
 11 14  1  6  0  0  0
 11 12  1  0  0  0  0
 11 10  1  0  0  0  0
 12 13  1  6  0  0  0
 12 16  1  0  0  0  0
 16 17  1  1  0  0  0
 16 15  1  0  0  0  0
 18 19  1  0  0  0  0
 18 17  1  0  0  0  0
 19 21  1  0  0  0  0
 20 19  1  0  0  0  0
 22 19  2  0  0  0  0
M  END
>  <CHROM.1>
-6.18276655,-169.22510735,-92.39603447,60.50834255,-168.49530081,52.75122332
-0.78173214,5.88920531,-2.87309841,-0.84931992,0.49702057

>  <Name>
lig.pdb

>  <RI>
0

>  <Rbt.Current_Directory>
/home/afrankz/demos/rdock_decoys_rna/rnas/4znp

>  <Rbt.Executable>
rbdock ($Id: //depot/dev/client3/rdock/2013.1/src/exe/rbdock.cxx#4 $)

>  <Rbt.Library>
libRbt.so (2013.1, Build901 2013/11/27)

>  <Rbt.Parameter_File>
/export/apps/rDock/src/rDock_2013.1_src/data/scripts/dock_solv.prm

>  <Rbt.Receptor>
prm/blind_docking_60.prm

>  <SCORE>
1.41561

>  <SCORE.INTER>
0.568845

>  <SCORE.INTER.CONST>
1

>  <SCORE.INTER.POLAR>
0

>  <SCORE.INTER.ROT>
5

>  <SCORE.INTER.SOLV>
16.4586

>  <SCORE.INTER.VDW>
-12.0403

>  <SCORE.INTER.norm>
0.0258566

>  <SCORE.INTRA>
-3.4678

>  <SCORE.INTRA.DIHEDRAL>
-5.82657

>  <SCORE.INTRA.DIHEDRAL.0>
11.9251

>  <SCORE.INTRA.POLAR>
0

>  <SCORE.INTRA.POLAR.0>
0

>  <SCORE.INTRA.REPUL>
0

>  <SCORE.INTRA.REPUL.0>
0

>  <SCORE.INTRA.SOLV>
-0.335195

>  <SCORE.INTRA.SOLV.lig_0>
-40.9823

>  <SCORE.INTRA.VDW>
-0.38692

>  <SCORE.INTRA.VDW.0>
-0.53506

>  <SCORE.INTRA.norm>
-0.157627

>  <SCORE.RESTR>
4.31457

>  <SCORE.RESTR.CAVITY>
4.31457

>  <SCORE.RESTR.norm>
0.196117

>  <SCORE.SYSTEM>
0

>  <SCORE.SYSTEM.CONST>
0

>  <SCORE.SYSTEM.DIHEDRAL>
0

>  <SCORE.SYSTEM.SOLV>
0

>  <SCORE.SYSTEM.norm>
0

>  <SCORE.heavy>
22

>  <SCORE.norm>
0.0643461

>  <RMSD>
15.742

$$$$
lig.pdb
 OpenBabel11021811523D
libRbt.so/2013.1/901 2013/11/27
 22 23  0  0  0  0  0  0  0  0999 V2000
   49.0289   -2.6829    1.8152 O   0  0  0  0  0  0  0  0  0  0  0  0
   50.0327   -2.0153    1.8992 C   0  0  0  0  0  0  0  0  0  0  0  0
   50.9492   -2.0042    0.9476 N   0  0  0  0  0  0  0  0  0  0  0  0
   50.2876   -1.2154    3.1056 C   0  0  0  0  0  0  0  0  0  0  0  0
   51.5354   -0.5045    3.3940 C   0  0  0  0  0  0  0  0  0  0  0  0
   52.6341   -0.4957    2.6091 N   0  0  0  0  0  0  0  0  0  0  0  0
   49.5042   -0.9558    4.1644 N   0  0  0  0  0  0  0  0  0  0  0  0
   50.1856   -0.1403    5.0161 C   0  0  0  0  0  0  0  0  0  0  0  0
   51.4247    0.1437    4.5480 N   0  0  0  0  0  0  0  0  0  0  0  0
   52.4353    1.0028    5.2233 C   0  0  1  0  0  0  0  0  0  0  0  0
   51.8301    1.5964    6.4769 C   0  0  1  0  0  0  0  0  0  0  0  0
   52.9599    1.5610    7.4732 C   0  0  2  0  0  0  0  0  0  0  0  0
   53.6996    2.7871    7.4127 O   0  0  0  0  0  0  0  0  0  0  0  0
   51.3539    2.9303    6.2391 O   0  0  0  0  0  0  0  0  0  0  0  0
   53.5427    0.2163    5.6556 O   0  0  0  0  0  0  0  0  0  0  0  0
   53.8519    0.4385    7.0105 C   0  0  2  0  0  0  0  0  0  0  0  0
   53.6614   -0.8933    7.7064 C   0  0  0  0  0  0  0  0  0  0  0  0
   54.6984   -1.8000    7.3925 O   0  0  0  0  0  0  0  0  0  0  0  0
   55.2735   -2.7343    8.5540 P   0  0  0  0  0  0  0  0  0  0  0  0
   54.0628   -3.4523    9.1158 O   0  0  0  0  0  0  0  0  0  0  0  0
   55.9076   -1.7316    9.4832 O   0  0  0  0  0  0  0  0  0  0  0  0
   56.2928   -3.5823    7.8450 O   0  0  0  0  0  0  0  0  0  0  0  0
  2  1  2  0  0  0  0
  2  4  1  0  0  0  0
  3  2  1  0  0  0  0
  4  7  1  0  0  0  0
  4  5  2  0  0  0  0
  5  6  1  0  0  0  0
  5  9  1  0  0  0  0
  7  8  2  0  0  0  0
  8  9  1  0  0  0  0
 10  9  1  1  0  0  0
 10 15  1  0  0  0  0
 11 14  1  6  0  0  0
 11 12  1  0  0  0  0
 11 10  1  0  0  0  0
 12 13  1  6  0  0  0
 12 16  1  0  0  0  0
 16 17  1  1  0  0  0
 16 15  1  0  0  0  0
 18 19  1  0  0  0  0
 18 17  1  0  0  0  0
 19 21  1  0  0  0  0
 20 19  1  0  0  0  0
 22 19  2  0  0  0  0
M  END
>  <CHROM.1>
171.95815035,176.60191059,-168.72150373,54.84794740,140.10430445,52.73871900
-0.74958299,5.84969572,-2.98007938,-0.87312348,0.36145295

>  <Name>
lig.pdb

>  <RI>
0

>  <Rbt.Current_Directory>
/home/afrankz/demos/rdock_decoys_rna/rnas/4znp

>  <Rbt.Executable>
rbdock ($Id: //depot/dev/client3/rdock/2013.1/src/exe/rbdock.cxx#4 $)

>  <Rbt.Library>
libRbt.so (2013.1, Build901 2013/11/27)

>  <Rbt.Parameter_File>
/export/apps/rDock/src/rDock_2013.1_src/data/scripts/dock_solv.prm

>  <Rbt.Receptor>
prm/blind_docking_60.prm

>  <SCORE>
2.8337

>  <SCORE.INTER>
0.542673

>  <SCORE.INTER.CONST>
1

>  <SCORE.INTER.POLAR>
0

>  <SCORE.INTER.ROT>
5

>  <SCORE.INTER.SOLV>
17.8426

>  <SCORE.INTER.VDW>
-12.5191

>  <SCORE.INTER.norm>
0.024667

>  <SCORE.INTRA>
-2.14668

>  <SCORE.INTRA.DIHEDRAL>
-3.47836

>  <SCORE.INTRA.DIHEDRAL.0>
11.9251

>  <SCORE.INTRA.POLAR>
0

>  <SCORE.INTRA.POLAR.0>
0

>  <SCORE.INTRA.REPUL>
0

>  <SCORE.INTRA.REPUL.0>
0

>  <SCORE.INTRA.SOLV>
-0.137086

>  <SCORE.INTRA.SOLV.lig_0>
-40.9823

>  <SCORE.INTRA.VDW>
-0.338954

>  <SCORE.INTRA.VDW.0>
-0.53506

>  <SCORE.INTRA.norm>
-0.0975762

>  <SCORE.RESTR>
4.4377

>  <SCORE.RESTR.CAVITY>
4.4377

>  <SCORE.RESTR.norm>
0.201714

>  <SCORE.SYSTEM>
0

>  <SCORE.SYSTEM.CONST>
0

>  <SCORE.SYSTEM.DIHEDRAL>
0

>  <SCORE.SYSTEM.SOLV>
0

>  <SCORE.SYSTEM.norm>
0

>  <SCORE.heavy>
22

>  <SCORE.norm>
0.128805

>  <RMSD>
15.764

$$$$
lig.pdb
 OpenBabel11021811523D
libRbt.so/2013.1/901 2013/11/27
 22 23  0  0  0  0  0  0  0  0999 V2000
   53.6518  -12.4288   -1.2567 O   0  0  0  0  0  0  0  0  0  0  0  0
   53.8989  -11.8718   -2.3003 C   0  0  0  0  0  0  0  0  0  0  0  0
   53.9612  -10.5554   -2.3951 N   0  0  0  0  0  0  0  0  0  0  0  0
   54.0978  -12.6574   -3.5265 C   0  0  0  0  0  0  0  0  0  0  0  0
   53.9190  -14.1072   -3.6336 C   0  0  0  0  0  0  0  0  0  0  0  0
   53.5668  -14.9320   -2.6241 N   0  0  0  0  0  0  0  0  0  0  0  0
   54.4656  -12.2753   -4.7598 N   0  0  0  0  0  0  0  0  0  0  0  0
   54.4866  -13.3743   -5.5639 C   0  0  0  0  0  0  0  0  0  0  0  0
   54.1478  -14.4953   -4.8830 N   0  0  0  0  0  0  0  0  0  0  0  0
   54.0699  -15.8691   -5.4505 C   0  0  1  0  0  0  0  0  0  0  0  0
   55.4036  -16.5612   -5.2709 C   0  0  1  0  0  0  0  0  0  0  0  0
   55.0294  -17.9801   -4.9287 C   0  0  2  0  0  0  0  0  0  0  0  0
   54.9386  -18.7610   -6.1270 O   0  0  0  0  0  0  0  0  0  0  0  0
   56.1937  -16.4788   -6.4674 O   0  0  0  0  0  0  0  0  0  0  0  0
   53.1214  -16.6493   -4.7271 O   0  0  0  0  0  0  0  0  0  0  0  0
   53.6575  -17.8831   -4.3134 C   0  0  2  0  0  0  0  0  0  0  0  0
   53.6060  -17.8745   -2.7995 C   0  0  0  0  0  0  0  0  0  0  0  0
   54.1621  -19.0519   -2.2512 O   0  0  0  0  0  0  0  0  0  0  0  0
   55.7483  -19.2381   -2.2922 P   0  0  0  0  0  0  0  0  0  0  0  0
   56.3013  -17.8455   -2.5202 O   0  0  0  0  0  0  0  0  0  0  0  0
   55.9264  -20.1910   -3.4458 O   0  0  0  0  0  0  0  0  0  0  0  0
   56.0573  -19.8788   -0.9675 O   0  0  0  0  0  0  0  0  0  0  0  0
  2  1  2  0  0  0  0
  2  4  1  0  0  0  0
  3  2  1  0  0  0  0
  4  7  1  0  0  0  0
  4  5  2  0  0  0  0
  5  6  1  0  0  0  0
  5  9  1  0  0  0  0
  7  8  2  0  0  0  0
  8  9  1  0  0  0  0
 10  9  1  1  0  0  0
 10 15  1  0  0  0  0
 11 14  1  6  0  0  0
 11 12  1  0  0  0  0
 11 10  1  0  0  0  0
 12 13  1  6  0  0  0
 12 16  1  0  0  0  0
 16 17  1  1  0  0  0
 16 15  1  0  0  0  0
 18 19  1  0  0  0  0
 18 17  1  0  0  0  0
 19 21  1  0  0  0  0
 20 19  1  0  0  0  0
 22 19  2  0  0  0  0
M  END
>  <CHROM.1>
5.07165941,-87.60865430,-60.09998698,18.56117302,73.13403020,54.65937309
-16.25421770,-3.65224280,2.98717865,1.36250830,-1.44890043

>  <Name>
lig.pdb

>  <RI>
0

>  <Rbt.Current_Directory>
/home/afrankz/demos/rdock_decoys_rna/rnas/4znp

>  <Rbt.Executable>
rbdock ($Id: //depot/dev/client3/rdock/2013.1/src/exe/rbdock.cxx#4 $)

>  <Rbt.Library>
libRbt.so (2013.1, Build901 2013/11/27)

>  <Rbt.Parameter_File>
/export/apps/rDock/src/rDock_2013.1_src/data/scripts/dock_solv.prm

>  <Rbt.Receptor>
prm/blind_docking_60.prm

>  <SCORE>
-0.399267

>  <SCORE.INTER>
-3.11511

>  <SCORE.INTER.CONST>
1

>  <SCORE.INTER.POLAR>
0

>  <SCORE.INTER.ROT>
5

>  <SCORE.INTER.SOLV>
14.5092

>  <SCORE.INTER.VDW>
-13.8465

>  <SCORE.INTER.norm>
-0.141596

>  <SCORE.INTRA>
-2.40616

>  <SCORE.INTRA.DIHEDRAL>
-6.69662

>  <SCORE.INTRA.DIHEDRAL.0>
11.9251

>  <SCORE.INTRA.POLAR>
0

>  <SCORE.INTRA.POLAR.0>
0

>  <SCORE.INTRA.REPUL>
0

>  <SCORE.INTRA.REPUL.0>
0

>  <SCORE.INTRA.SOLV>
2.78198

>  <SCORE.INTRA.SOLV.lig_0>
-40.9823

>  <SCORE.INTRA.VDW>
-0.44884

>  <SCORE.INTRA.VDW.0>
-0.53506

>  <SCORE.INTRA.norm>
-0.109371

>  <SCORE.RESTR>
5.12201

>  <SCORE.RESTR.CAVITY>
5.12201

>  <SCORE.RESTR.norm>
0.232819

>  <SCORE.SYSTEM>
0

>  <SCORE.SYSTEM.CONST>
0

>  <SCORE.SYSTEM.DIHEDRAL>
0

>  <SCORE.SYSTEM.SOLV>
0

>  <SCORE.SYSTEM.norm>
0

>  <SCORE.heavy>
22

>  <SCORE.norm>
-0.0181485

>  <RMSD>
15.936

$$$$
lig.pdb
 OpenBabel11021811523D
libRbt.so/2013.1/901 2013/11/27
 22 23  0  0  0  0  0  0  0  0999 V2000
   53.3524  -13.1595   -1.8969 O   0  0  0  0  0  0  0  0  0  0  0  0
   53.8598  -12.6283   -2.8566 C   0  0  0  0  0  0  0  0  0  0  0  0
   54.3421  -11.3994   -2.8046 N   0  0  0  0  0  0  0  0  0  0  0  0
   53.9159  -13.3326   -4.1454 C   0  0  0  0  0  0  0  0  0  0  0  0
   54.4338  -14.6888   -4.3398 C   0  0  0  0  0  0  0  0  0  0  0  0
   54.9505  -15.4784   -3.3739 N   0  0  0  0  0  0  0  0  0  0  0  0
   53.5378  -12.9415   -5.3728 N   0  0  0  0  0  0  0  0  0  0  0  0
   53.7708  -13.9635   -6.2423 C   0  0  0  0  0  0  0  0  0  0  0  0
   54.3124  -15.0356   -5.6162 N   0  0  0  0  0  0  0  0  0  0  0  0
   54.6929  -16.3214   -6.2622 C   0  0  1  0  0  0  0  0  0  0  0  0
   55.9860  -16.8225   -5.6564 C   0  0  1  0  0  0  0  0  0  0  0  0
   55.7875  -18.3135   -5.5677 C   0  0  2  0  0  0  0  0  0  0  0  0
   56.2643  -18.9392   -6.7657 O   0  0  0  0  0  0  0  0  0  0  0  0
   57.1114  -16.4698   -6.4760 O   0  0  0  0  0  0  0  0  0  0  0  0
   53.7156  -17.3214   -5.9858 O   0  0  0  0  0  0  0  0  0  0  0  0
   54.2950  -18.5034   -5.4878 C   0  0  2  0  0  0  0  0  0  0  0  0
   53.7219  -18.6966   -4.0990 C   0  0  0  0  0  0  0  0  0  0  0  0
   54.2067  -17.7260   -3.1940 O   0  0  0  0  0  0  0  0  0  0  0  0
   54.1008  -18.0221   -1.6276 P   0  0  0  0  0  0  0  0  0  0  0  0
   55.1724  -19.0574   -1.3505 O   0  0  0  0  0  0  0  0  0  0  0  0
   52.6847  -18.5195   -1.4935 O   0  0  0  0  0  0  0  0  0  0  0  0
   54.2932  -16.6675   -1.0042 O   0  0  0  0  0  0  0  0  0  0  0  0
  2  1  2  0  0  0  0
  2  4  1  0  0  0  0
  3  2  1  0  0  0  0
  4  7  1  0  0  0  0
  4  5  2  0  0  0  0
  5  6  1  0  0  0  0
  5  9  1  0  0  0  0
  7  8  2  0  0  0  0
  8  9  1  0  0  0  0
 10  9  1  1  0  0  0
 10 15  1  0  0  0  0
 11 14  1  6  0  0  0
 11 12  1  0  0  0  0
 11 10  1  0  0  0  0
 12 13  1  6  0  0  0
 12 16  1  0  0  0  0
 16 17  1  1  0  0  0
 16 15  1  0  0  0  0
 18 19  1  0  0  0  0
 18 17  1  0  0  0  0
 19 21  1  0  0  0  0
 20 19  1  0  0  0  0
 22 19  2  0  0  0  0
M  END
>  <CHROM.1>
-51.52044226,-38.34471664,48.31735994,74.03544610,-160.83280485,54.46511537
-16.28148597,-3.98487166,2.03495693,1.24279144,-0.43699789

>  <Name>
lig.pdb

>  <RI>
0

>  <Rbt.Current_Directory>
/home/afrankz/demos/rdock_decoys_rna/rnas/4znp

>  <Rbt.Executable>
rbdock ($Id: //depot/dev/client3/rdock/2013.1/src/exe/rbdock.cxx#4 $)

>  <Rbt.Library>
libRbt.so (2013.1, Build901 2013/11/27)

>  <Rbt.Parameter_File>
/export/apps/rDock/src/rDock_2013.1_src/data/scripts/dock_solv.prm

>  <Rbt.Receptor>
prm/blind_docking_60.prm

>  <SCORE>
4.78258

>  <SCORE.INTER>
-0.997238

>  <SCORE.INTER.CONST>
1

>  <SCORE.INTER.POLAR>
0

>  <SCORE.INTER.ROT>
5

>  <SCORE.INTER.SOLV>
15.8624

>  <SCORE.INTER.VDW>
-12.8856

>  <SCORE.INTER.norm>
-0.045329

>  <SCORE.INTRA>
0.469289

>  <SCORE.INTRA.DIHEDRAL>
-0.265893

>  <SCORE.INTRA.DIHEDRAL.0>
11.9251

>  <SCORE.INTRA.POLAR>
0

>  <SCORE.INTRA.POLAR.0>
0

>  <SCORE.INTRA.REPUL>
0

>  <SCORE.INTRA.REPUL.0>
0

>  <SCORE.INTRA.SOLV>
3.24951

>  <SCORE.INTRA.SOLV.lig_0>
-40.9823

>  <SCORE.INTRA.VDW>
-1.02252

>  <SCORE.INTRA.VDW.0>
-0.53506

>  <SCORE.INTRA.norm>
0.0213313

>  <SCORE.RESTR>
5.31053

>  <SCORE.RESTR.CAVITY>
5.31053

>  <SCORE.RESTR.norm>
0.241388

>  <SCORE.SYSTEM>
0

>  <SCORE.SYSTEM.CONST>
0

>  <SCORE.SYSTEM.DIHEDRAL>
0

>  <SCORE.SYSTEM.SOLV>
0

>  <SCORE.SYSTEM.norm>
0

>  <SCORE.heavy>
22

>  <SCORE.norm>
0.21739

>  <RMSD>
16.122

$$$$
lig.pdb
 OpenBabel11021811523D
libRbt.so/2013.1/901 2013/11/27
 22 23  0  0  0  0  0  0  0  0999 V2000
   63.1252  -11.5085   -1.7268 O   0  0  0  0  0  0  0  0  0  0  0  0
   63.4737  -11.0524   -2.7903 C   0  0  0  0  0  0  0  0  0  0  0  0
   62.6656  -11.0118   -3.8348 N   0  0  0  0  0  0  0  0  0  0  0  0
   64.8474  -10.5605   -2.9671 C   0  0  0  0  0  0  0  0  0  0  0  0
   65.3868  -10.0036   -4.2098 C   0  0  0  0  0  0  0  0  0  0  0  0
   64.7123   -9.8793   -5.3729 N   0  0  0  0  0  0  0  0  0  0  0  0
   65.8737  -10.5030   -2.1035 N   0  0  0  0  0  0  0  0  0  0  0  0
   66.9398   -9.9398   -2.7368 C   0  0  0  0  0  0  0  0  0  0  0  0
   66.6466   -9.6271   -4.0218 N   0  0  0  0  0  0  0  0  0  0  0  0
   67.5771   -9.0000   -4.9998 C   0  0  1  0  0  0  0  0  0  0  0  0
   66.9502   -7.7362   -5.5476 C   0  0  1  0  0  0  0  0  0  0  0  0
   68.1082   -6.7783   -5.6560 C   0  0  2  0  0  0  0  0  0  0  0  0
   68.7055   -6.8832   -6.9546 O   0  0  0  0  0  0  0  0  0  0  0  0
   66.3222   -7.9788   -6.8161 O   0  0  0  0  0  0  0  0  0  0  0  0
   68.7778   -8.5931   -4.3484 O   0  0  0  0  0  0  0  0  0  0  0  0
   69.1037   -7.2531   -4.6296 C   0  0  2  0  0  0  0  0  0  0  0  0
   69.0838   -6.5301   -3.2987 C   0  0  0  0  0  0  0  0  0  0  0  0
   69.9791   -5.4373   -3.2844 O   0  0  0  0  0  0  0  0  0  0  0  0
   69.9030   -4.4037   -2.0685 P   0  0  0  0  0  0  0  0  0  0  0  0
   71.3124   -3.8661   -1.9215 O   0  0  0  0  0  0  0  0  0  0  0  0
   69.4341   -5.2799   -0.9358 O   0  0  0  0  0  0  0  0  0  0  0  0
   68.8497   -3.4255   -2.5095 O   0  0  0  0  0  0  0  0  0  0  0  0
  2  1  2  0  0  0  0
  2  4  1  0  0  0  0
  3  2  1  0  0  0  0
  4  7  1  0  0  0  0
  4  5  2  0  0  0  0
  5  6  1  0  0  0  0
  5  9  1  0  0  0  0
  7  8  2  0  0  0  0
  8  9  1  0  0  0  0
 10  9  1  1  0  0  0
 10 15  1  0  0  0  0
 11 14  1  6  0  0  0
 11 12  1  0  0  0  0
 11 10  1  0  0  0  0
 12 13  1  6  0  0  0
 12 16  1  0  0  0  0
 16 17  1  1  0  0  0
 16 15  1  0  0  0  0
 18 19  1  0  0  0  0
 18 17  1  0  0  0  0
 19 21  1  0  0  0  0
 20 19  1  0  0  0  0
 22 19  2  0  0  0  0
M  END
>  <CHROM.1>
179.22230823,56.19793846,-91.32679064,150.83888404,169.08655492,67.40608951
-7.75343985,-3.65777103,2.94150640,-0.80516057,-1.69758472

>  <Name>
lig.pdb

>  <RI>
0

>  <Rbt.Current_Directory>
/home/itssahil/PROJECTS/Mol_Feturizer/New_Systems/rnas/4znp

>  <Rbt.Executable>
rbdock ($Id: //depot/dev/client3/rdock/2013.1/src/exe/rbdock.cxx#4 $)

>  <Rbt.Library>
libRbt.so (2013.1, Build901 2013/11/27)

>  <Rbt.Parameter_File>
/export/apps/rDock/src/rDock_2013.1_src/data/scripts/dock_solv.prm

>  <Rbt.Receptor>
prm/blind_docking_80.prm

>  <SCORE>
-19.3225

>  <SCORE.INTER>
-16.8888

>  <SCORE.INTER.CONST>
1

>  <SCORE.INTER.POLAR>
0

>  <SCORE.INTER.ROT>
5

>  <SCORE.INTER.SOLV>
18.2687

>  <SCORE.INTER.VDW>
-24.2821

>  <SCORE.INTER.norm>
-0.767671

>  <SCORE.INTRA>
-2.58547

>  <SCORE.INTRA.DIHEDRAL>
-5.00953

>  <SCORE.INTRA.DIHEDRAL.0>
11.9251

>  <SCORE.INTRA.POLAR>
0

>  <SCORE.INTRA.POLAR.0>
0

>  <SCORE.INTRA.REPUL>
0

>  <SCORE.INTRA.REPUL.0>
0

>  <SCORE.INTRA.SOLV>
0.61673

>  <SCORE.INTRA.SOLV.lig_0>
-40.9823

>  <SCORE.INTRA.VDW>
-0.389075

>  <SCORE.INTRA.VDW.0>
-0.53506

>  <SCORE.INTRA.norm>
-0.117522

>  <SCORE.RESTR>
0.151758

>  <SCORE.RESTR.CAVITY>
0.151758

>  <SCORE.RESTR.norm>
0.0068981

>  <SCORE.SYSTEM>
0

>  <SCORE.SYSTEM.CONST>
0

>  <SCORE.SYSTEM.DIHEDRAL>
0

>  <SCORE.SYSTEM.SOLV>
0

>  <SCORE.SYSTEM.norm>
0

>  <SCORE.heavy>
22

>  <SCORE.norm>
-0.878294

>  <RMSD>
16.679

$$$$
lig.pdb
 OpenBabel11021811523D
libRbt.so/2013.1/901 2013/11/27
 22 23  0  0  0  0  0  0  0  0999 V2000
   63.3758  -11.0004   -1.1659 O   0  0  0  0  0  0  0  0  0  0  0  0
   64.5251  -10.7644   -1.4554 C   0  0  0  0  0  0  0  0  0  0  0  0
   65.5260  -11.0481   -0.6410 N   0  0  0  0  0  0  0  0  0  0  0  0
   64.8438  -10.1021   -2.7282 C   0  0  0  0  0  0  0  0  0  0  0  0
   66.1968   -9.8143   -3.2097 C   0  0  0  0  0  0  0  0  0  0  0  0
   67.3415  -10.0953   -2.5509 N   0  0  0  0  0  0  0  0  0  0  0  0
   64.0394   -9.6299   -3.6938 N   0  0  0  0  0  0  0  0  0  0  0  0
   64.8147   -9.1230   -4.6921 C   0  0  0  0  0  0  0  0  0  0  0  0
   66.1335   -9.2383   -4.4049 N   0  0  0  0  0  0  0  0  0  0  0  0
   67.2565   -8.7883   -5.2719 C   0  0  1  0  0  0  0  0  0  0  0  0
   66.9191   -7.4388   -5.8678 C   0  0  1  0  0  0  0  0  0  0  0  0
   68.2301   -6.6965   -5.8424 C   0  0  2  0  0  0  0  0  0  0  0  0
   68.9343   -6.9119   -7.0719 O   0  0  0  0  0  0  0  0  0  0  0  0
   66.3964   -7.5775   -7.1982 O   0  0  0  0  0  0  0  0  0  0  0  0
   68.4338   -8.5911   -4.4929 O   0  0  0  0  0  0  0  0  0  0  0  0
   69.0142   -7.3297   -4.7224 C   0  0  2  0  0  0  0  0  0  0  0  0
   68.9788   -6.6052   -3.3926 C   0  0  0  0  0  0  0  0  0  0  0  0
   69.8520   -5.4946   -3.3793 O   0  0  0  0  0  0  0  0  0  0  0  0
   69.8013   -4.4983   -2.1314 P   0  0  0  0  0  0  0  0  0  0  0  0
   71.1997   -3.9226   -2.0316 O   0  0  0  0  0  0  0  0  0  0  0  0
   69.4099   -5.4198   -1.0051 O   0  0  0  0  0  0  0  0  0  0  0  0
   68.7011   -3.5405   -2.4960 O   0  0  0  0  0  0  0  0  0  0  0  0
  2  1  2  0  0  0  0
  2  4  1  0  0  0  0
  3  2  1  0  0  0  0
  4  7  1  0  0  0  0
  4  5  2  0  0  0  0
  5  6  1  0  0  0  0
  5  9  1  0  0  0  0
  7  8  2  0  0  0  0
  8  9  1  0  0  0  0
 10  9  1  1  0  0  0
 10 15  1  0  0  0  0
 11 14  1  6  0  0  0
 11 12  1  0  0  0  0
 11 10  1  0  0  0  0
 12 13  1  6  0  0  0
 12 16  1  0  0  0  0
 16 17  1  1  0  0  0
 16 15  1  0  0  0  0
 18 19  1  0  0  0  0
 18 17  1  0  0  0  0
 19 21  1  0  0  0  0
 20 19  1  0  0  0  0
 22 19  2  0  0  0  0
M  END
>  <CHROM.1>
-177.42323137,-137.56367894,-78.65439701,151.51628884,171.89296183,67.48675224
-7.61124596,-3.53065011,3.14032811,-0.83625105,-1.59750213

>  <Name>
lig.pdb

>  <RI>
0

>  <Rbt.Current_Directory>
/home/itssahil/PROJECTS/Mol_Feturizer/New_Systems/rnas/4znp

>  <Rbt.Executable>
rbdock ($Id: //depot/dev/client3/rdock/2013.1/src/exe/rbdock.cxx#4 $)

>  <Rbt.Library>
libRbt.so (2013.1, Build901 2013/11/27)

>  <Rbt.Parameter_File>
/export/apps/rDock/src/rDock_2013.1_src/data/scripts/dock_solv.prm

>  <Rbt.Receptor>
prm/blind_docking_80.prm

>  <SCORE>
-21.4536

>  <SCORE.INTER>
-18.3026

>  <SCORE.INTER.CONST>
1

>  <SCORE.INTER.POLAR>
0

>  <SCORE.INTER.ROT>
5

>  <SCORE.INTER.SOLV>
20.8979

>  <SCORE.INTER.VDW>
-26.101

>  <SCORE.INTER.norm>
-0.831937

>  <SCORE.INTRA>
-3.32712

>  <SCORE.INTRA.DIHEDRAL>
-6.95351

>  <SCORE.INTRA.DIHEDRAL.0>
11.9251

>  <SCORE.INTRA.POLAR>
0

>  <SCORE.INTRA.POLAR.0>
0

>  <SCORE.INTRA.REPUL>
0

>  <SCORE.INTRA.REPUL.0>
0

>  <SCORE.INTRA.SOLV>
0.676465

>  <SCORE.INTRA.SOLV.lig_0>
-40.9823

>  <SCORE.INTRA.VDW>
-0.188595

>  <SCORE.INTRA.VDW.0>
-0.53506

>  <SCORE.INTRA.norm>
-0.151233

>  <SCORE.RESTR>
0.176147

>  <SCORE.RESTR.CAVITY>
0.176147

>  <SCORE.RESTR.norm>
0.00800667

>  <SCORE.SYSTEM>
0

>  <SCORE.SYSTEM.CONST>
0

>  <SCORE.SYSTEM.DIHEDRAL>
0

>  <SCORE.SYSTEM.SOLV>
0

>  <SCORE.SYSTEM.norm>
0

>  <SCORE.heavy>
22

>  <SCORE.norm>
-0.975163

>  <RMSD>
16.697

$$$$
lig.pdb
 OpenBabel11021811523D
libRbt.so/2013.1/901 2013/11/27
 22 23  0  0  0  0  0  0  0  0999 V2000
   63.4002  -11.0287   -1.4046 O   0  0  0  0  0  0  0  0  0  0  0  0
   64.5487  -10.7809   -1.6875 C   0  0  0  0  0  0  0  0  0  0  0  0
   65.5493  -11.0692   -0.8742 N   0  0  0  0  0  0  0  0  0  0  0  0
   64.8665  -10.0986   -2.9499 C   0  0  0  0  0  0  0  0  0  0  0  0
   66.2171   -9.7630   -3.4066 C   0  0  0  0  0  0  0  0  0  0  0  0
   67.3594  -10.0113   -2.7306 N   0  0  0  0  0  0  0  0  0  0  0  0
   64.0631   -9.6456   -3.9255 N   0  0  0  0  0  0  0  0  0  0  0  0
   64.8378   -9.1059   -4.9070 C   0  0  0  0  0  0  0  0  0  0  0  0
   66.1547   -9.1801   -4.5984 N   0  0  0  0  0  0  0  0  0  0  0  0
   67.2765   -8.6868   -5.4432 C   0  0  1  0  0  0  0  0  0  0  0  0
   66.9193   -7.3283   -6.0062 C   0  0  1  0  0  0  0  0  0  0  0  0
   68.2161   -6.5632   -5.9494 C   0  0  2  0  0  0  0  0  0  0  0  0
   68.9345   -6.7330   -7.1779 O   0  0  0  0  0  0  0  0  0  0  0  0
   66.4105   -7.4411   -7.3445 O   0  0  0  0  0  0  0  0  0  0  0  0
   68.4433   -8.4889   -4.6487 O   0  0  0  0  0  0  0  0  0  0  0  0
   69.0022   -7.2115   -4.8397 C   0  0  2  0  0  0  0  0  0  0  0  0
   68.9423   -6.5234   -3.4915 C   0  0  0  0  0  0  0  0  0  0  0  0
   69.8736   -5.4647   -3.4034 O   0  0  0  0  0  0  0  0  0  0  0  0
   69.8104   -4.4956   -2.1348 P   0  0  0  0  0  0  0  0  0  0  0  0
   71.2157   -3.9474   -1.9891 O   0  0  0  0  0  0  0  0  0  0  0  0
   69.3761   -5.4347   -1.0393 O   0  0  0  0  0  0  0  0  0  0  0  0
   68.7360   -3.5104   -2.5035 O   0  0  0  0  0  0  0  0  0  0  0  0
  2  1  2  0  0  0  0
  2  4  1  0  0  0  0
  3  2  1  0  0  0  0
  4  7  1  0  0  0  0
  4  5  2  0  0  0  0
  5  6  1  0  0  0  0
  5  9  1  0  0  0  0
  7  8  2  0  0  0  0
  8  9  1  0  0  0  0
 10  9  1  1  0  0  0
 10 15  1  0  0  0  0
 11 14  1  6  0  0  0
 11 12  1  0  0  0  0
 11 10  1  0  0  0  0
 12 13  1  6  0  0  0
 12 16  1  0  0  0  0
 16 17  1  1  0  0  0
 16 15  1  0  0  0  0
 18 19  1  0  0  0  0
 18 17  1  0  0  0  0
 19 21  1  0  0  0  0
 20 19  1  0  0  0  0
 22 19  2  0  0  0  0
M  END
>  <CHROM.1>
-179.15767026,-136.11724382,-83.46074629,154.31329928,171.44840039,67.49701150
-7.56285228,-3.65640330,3.13310461,-0.83865827,-1.56333665

>  <Name>
lig.pdb

>  <RI>
0

>  <Rbt.Current_Directory>
/home/itssahil/PROJECTS/Mol_Feturizer/New_Systems/rnas/4znp

>  <Rbt.Executable>
rbdock ($Id: //depot/dev/client3/rdock/2013.1/src/exe/rbdock.cxx#4 $)

>  <Rbt.Library>
libRbt.so (2013.1, Build901 2013/11/27)

>  <Rbt.Parameter_File>
/export/apps/rDock/src/rDock_2013.1_src/data/scripts/dock_solv.prm

>  <Rbt.Receptor>
prm/blind_docking_80.prm

>  <SCORE>
-21.3767

>  <SCORE.INTER>
-18.3122

>  <SCORE.INTER.CONST>
1

>  <SCORE.INTER.POLAR>
0

>  <SCORE.INTER.ROT>
5

>  <SCORE.INTER.SOLV>
20.954

>  <SCORE.INTER.VDW>
-26.1262

>  <SCORE.INTER.norm>
-0.832374

>  <SCORE.INTRA>
-3.22456

>  <SCORE.INTRA.DIHEDRAL>
-6.5304

>  <SCORE.INTRA.DIHEDRAL.0>
11.9251

>  <SCORE.INTRA.POLAR>
0

>  <SCORE.INTRA.POLAR.0>
0

>  <SCORE.INTRA.REPUL>
0

>  <SCORE.INTRA.REPUL.0>
0

>  <SCORE.INTRA.SOLV>
0.689589

>  <SCORE.INTRA.SOLV.lig_0>
-40.9823

>  <SCORE.INTRA.VDW>
-0.304155

>  <SCORE.INTRA.VDW.0>
-0.53506

>  <SCORE.INTRA.norm>
-0.146571

>  <SCORE.RESTR>
0.160119

>  <SCORE.RESTR.CAVITY>
0.160119

>  <SCORE.RESTR.norm>
0.00727814

>  <SCORE.SYSTEM>
0

>  <SCORE.SYSTEM.CONST>
0

>  <SCORE.SYSTEM.DIHEDRAL>
0

>  <SCORE.SYSTEM.SOLV>
0

>  <SCORE.SYSTEM.norm>
0

>  <SCORE.heavy>
22

>  <SCORE.norm>
-0.971666

>  <RMSD>
16.825

$$$$
lig.pdb
 OpenBabel11021811523D
libRbt.so/2013.1/901 2013/11/27
 22 23  0  0  0  0  0  0  0  0999 V2000
   65.8789  -10.9138   -0.6823 O   0  0  0  0  0  0  0  0  0  0  0  0
   64.9734  -10.5921   -1.4151 C   0  0  0  0  0  0  0  0  0  0  0  0
   63.7065  -10.7650   -1.0821 N   0  0  0  0  0  0  0  0  0  0  0  0
   65.2626  -10.0287   -2.7414 C   0  0  0  0  0  0  0  0  0  0  0  0
   66.6042   -9.8174   -3.2900 C   0  0  0  0  0  0  0  0  0  0  0  0
   67.7644  -10.0888   -2.6547 N   0  0  0  0  0  0  0  0  0  0  0  0
   64.4362   -9.5984   -3.7080 N   0  0  0  0  0  0  0  0  0  0  0  0
   65.1875   -9.1857   -4.7663 C   0  0  0  0  0  0  0  0  0  0  0  0
   66.5123   -9.3227   -4.5192 N   0  0  0  0  0  0  0  0  0  0  0  0
   67.6142   -8.9688   -5.4552 C   0  0  1  0  0  0  0  0  0  0  0  0
   67.0943   -8.0031   -6.4979 C   0  0  1  0  0  0  0  0  0  0  0  0
   68.2355   -7.0394   -6.6963 C   0  0  2  0  0  0  0  0  0  0  0  0
   69.0880   -7.5063   -7.7495 O   0  0  0  0  0  0  0  0  0  0  0  0
   66.7436   -8.6902   -7.7093 O   0  0  0  0  0  0  0  0  0  0  0  0
   68.6495   -8.2778   -4.7606 O   0  0  0  0  0  0  0  0  0  0  0  0
   69.0062   -7.0770   -5.4022 C   0  0  2  0  0  0  0  0  0  0  0  0
   68.7028   -5.9695   -4.4144 C   0  0  0  0  0  0  0  0  0  0  0  0
   69.8329   -5.6437   -3.6315 O   0  0  0  0  0  0  0  0  0  0  0  0
   69.6020   -4.9854   -2.1942 P   0  0  0  0  0  0  0  0  0  0  0  0
   70.9849   -4.5898   -1.7168 O   0  0  0  0  0  0  0  0  0  0  0  0
   68.9619   -6.1137   -1.4273 O   0  0  0  0  0  0  0  0  0  0  0  0
   68.6388   -3.8657   -2.4756 O   0  0  0  0  0  0  0  0  0  0  0  0
  2  1  2  0  0  0  0
  2  4  1  0  0  0  0
  3  2  1  0  0  0  0
  4  7  1  0  0  0  0
  4  5  2  0  0  0  0
  5  6  1  0  0  0  0
  5  9  1  0  0  0  0
  7  8  2  0  0  0  0
  8  9  1  0  0  0  0
 10  9  1  1  0  0  0
 10 15  1  0  0  0  0
 11 14  1  6  0  0  0
 11 12  1  0  0  0  0
 11 10  1  0  0  0  0
 12 13  1  6  0  0  0
 12 16  1  0  0  0  0
 16 17  1  1  0  0  0
 16 15  1  0  0  0  0
 18 19  1  0  0  0  0
 18 17  1  0  0  0  0
 19 21  1  0  0  0  0
 20 19  1  0  0  0  0
 22 19  2  0  0  0  0
M  END
>  <CHROM.1>
0.42786235,-159.56188015,-149.19355702,-172.31037651,-155.08286456,67.63192769
-7.79876750,-3.76950771,3.10100765,-0.85450270,-1.69584381

>  <Name>
lig.pdb

>  <RI>
0

>  <Rbt.Current_Directory>
/home/itssahil/PROJECTS/Mol_Feturizer/New_Systems/rnas/4znp

>  <Rbt.Executable>
rbdock ($Id: //depot/dev/client3/rdock/2013.1/src/exe/rbdock.cxx#4 $)

>  <Rbt.Library>
libRbt.so (2013.1, Build901 2013/11/27)

>  <Rbt.Parameter_File>
/export/apps/rDock/src/rDock_2013.1_src/data/scripts/dock_solv.prm

>  <Rbt.Receptor>
prm/blind_docking_80.prm

>  <SCORE>
-18.9291

>  <SCORE.INTER>
-16.5685

>  <SCORE.INTER.CONST>
1

>  <SCORE.INTER.POLAR>
0

>  <SCORE.INTER.ROT>
5

>  <SCORE.INTER.SOLV>
21.0877

>  <SCORE.INTER.VDW>
-25.0083

>  <SCORE.INTER.norm>
-0.753116

>  <SCORE.INTRA>
-2.36055

>  <SCORE.INTRA.DIHEDRAL>
-4.03534

>  <SCORE.INTRA.DIHEDRAL.0>
11.9251

>  <SCORE.INTRA.POLAR>
0

>  <SCORE.INTRA.POLAR.0>
0

>  <SCORE.INTRA.REPUL>
0

>  <SCORE.INTRA.REPUL.0>
0

>  <SCORE.INTRA.SOLV>
0.215021

>  <SCORE.INTRA.SOLV.lig_0>
-40.9823

>  <SCORE.INTRA.VDW>
-0.450388

>  <SCORE.INTRA.VDW.0>
-0.53506

>  <SCORE.INTRA.norm>
-0.107298

>  <SCORE.RESTR>
0

>  <SCORE.RESTR.CAVITY>
0

>  <SCORE.RESTR.norm>
0

>  <SCORE.SYSTEM>
0

>  <SCORE.SYSTEM.CONST>
0

>  <SCORE.SYSTEM.DIHEDRAL>
0

>  <SCORE.SYSTEM.SOLV>
0

>  <SCORE.SYSTEM.norm>
0

>  <SCORE.heavy>
22

>  <SCORE.norm>
-0.860413

>  <RMSD>
16.943

$$$$
lig.pdb
 OpenBabel11021811523D
libRbt.so/2013.1/901 2013/11/27
 22 23  0  0  0  0  0  0  0  0999 V2000
   63.6572  -10.6320   -0.7454 O   0  0  0  0  0  0  0  0  0  0  0  0
   64.6861  -10.8757   -1.3307 C   0  0  0  0  0  0  0  0  0  0  0  0
   65.6682  -11.5577   -0.7686 N   0  0  0  0  0  0  0  0  0  0  0  0
   64.8949  -10.3724   -2.6958 C   0  0  0  0  0  0  0  0  0  0  0  0
   66.0861  -10.6230   -3.5104 C   0  0  0  0  0  0  0  0  0  0  0  0
   67.1682  -11.3316   -3.1227 N   0  0  0  0  0  0  0  0  0  0  0  0
   64.1098   -9.6150   -3.4783 N   0  0  0  0  0  0  0  0  0  0  0  0
   64.7370   -9.4346   -4.6736 C   0  0  0  0  0  0  0  0  0  0  0  0
   65.9419  -10.0529   -4.7014 N   0  0  0  0  0  0  0  0  0  0  0  0
   66.8909  -10.0606   -5.8480 C   0  0  1  0  0  0  0  0  0  0  0  0
   66.8444   -8.7182   -6.5452 C   0  0  1  0  0  0  0  0  0  0  0  0
   68.2814   -8.4543   -6.9136 C   0  0  2  0  0  0  0  0  0  0  0  0
   68.5503   -8.9726   -8.2225 O   0  0  0  0  0  0  0  0  0  0  0  0
   65.9856   -8.7627   -7.6954 O   0  0  0  0  0  0  0  0  0  0  0  0
   68.2287  -10.2151   -5.3810 O   0  0  0  0  0  0  0  0  0  0  0  0
   69.0901   -9.2367   -5.9117 C   0  0  2  0  0  0  0  0  0  0  0  0
   69.6163   -8.4555   -4.7254 C   0  0  0  0  0  0  0  0  0  0  0  0
   68.6254   -7.6133   -4.1733 O   0  0  0  0  0  0  0  0  0  0  0  0
   68.4833   -6.1270   -4.7418 P   0  0  0  0  0  0  0  0  0  0  0  0
   69.7141   -5.9158   -5.6006 O   0  0  0  0  0  0  0  0  0  0  0  0
   68.4397   -5.3067   -3.4785 O   0  0  0  0  0  0  0  0  0  0  0  0
   67.1593   -6.1524   -5.4538 O   0  0  0  0  0  0  0  0  0  0  0  0
  2  1  2  0  0  0  0
  2  4  1  0  0  0  0
  3  2  1  0  0  0  0
  4  7  1  0  0  0  0
  4  5  2  0  0  0  0
  5  6  1  0  0  0  0
  5  9  1  0  0  0  0
  7  8  2  0  0  0  0
  8  9  1  0  0  0  0
 10  9  1  1  0  0  0
 10 15  1  0  0  0  0
 11 14  1  6  0  0  0
 11 12  1  0  0  0  0
 11 10  1  0  0  0  0
 12 13  1  6  0  0  0
 12 16  1  0  0  0  0
 16 17  1  1  0  0  0
 16 15  1  0  0  0  0
 18 19  1  0  0  0  0
 18 17  1  0  0  0  0
 19 21  1  0  0  0  0
 20 19  1  0  0  0  0
 22 19  2  0  0  0  0
M  END
>  <CHROM.1>
-178.83362900,-143.07045749,45.14099703,-11.37839647,-89.54275417,67.08402430
-8.78988602,-4.58549805,-2.88697558,-0.92423507,-2.05715613

>  <Name>
lig.pdb

>  <RI>
0

>  <Rbt.Current_Directory>
/home/itssahil/PROJECTS/Mol_Feturizer/New_Systems/rnas/4znp

>  <Rbt.Executable>
rbdock ($Id: //depot/dev/client3/rdock/2013.1/src/exe/rbdock.cxx#4 $)

>  <Rbt.Library>
libRbt.so (2013.1, Build901 2013/11/27)

>  <Rbt.Parameter_File>
/export/apps/rDock/src/rDock_2013.1_src/data/scripts/dock_solv.prm

>  <Rbt.Receptor>
prm/blind_docking_80.prm

>  <SCORE>
-13.9146

>  <SCORE.INTER>
-13.1264

>  <SCORE.INTER.CONST>
1

>  <SCORE.INTER.POLAR>
0

>  <SCORE.INTER.ROT>
5

>  <SCORE.INTER.SOLV>
17.0349

>  <SCORE.INTER.VDW>
-21.3625

>  <SCORE.INTER.norm>
-0.596653

>  <SCORE.INTRA>
-0.788225

>  <SCORE.INTRA.DIHEDRAL>
-3.03172

>  <SCORE.INTRA.DIHEDRAL.0>
11.9251

>  <SCORE.INTRA.POLAR>
0

>  <SCORE.INTRA.POLAR.0>
0

>  <SCORE.INTRA.REPUL>
0

>  <SCORE.INTRA.REPUL.0>
0

>  <SCORE.INTRA.SOLV>
3.60692

>  <SCORE.INTRA.SOLV.lig_0>
-40.9823

>  <SCORE.INTRA.VDW>
-1.07583

>  <SCORE.INTRA.VDW.0>
-0.53506

>  <SCORE.INTRA.norm>
-0.0358284

>  <SCORE.RESTR>
0

>  <SCORE.RESTR.CAVITY>
0

>  <SCORE.RESTR.norm>
0

>  <SCORE.SYSTEM>
0

>  <SCORE.SYSTEM.CONST>
0

>  <SCORE.SYSTEM.DIHEDRAL>
0

>  <SCORE.SYSTEM.SOLV>
0

>  <SCORE.SYSTEM.norm>
0

>  <SCORE.heavy>
22

>  <SCORE.norm>
-0.632481

>  <RMSD>
17.069

$$$$
lig.pdb
 OpenBabel11021811523D
libRbt.so/2013.1/901 2013/11/27
 22 23  0  0  0  0  0  0  0  0999 V2000
   69.6804   -5.3845   -1.4338 O   0  0  0  0  0  0  0  0  0  0  0  0
   69.2261   -4.8436   -2.4144 C   0  0  0  0  0  0  0  0  0  0  0  0
   69.1069   -3.5305   -2.4993 N   0  0  0  0  0  0  0  0  0  0  0  0
   68.7434   -5.6500   -3.5444 C   0  0  0  0  0  0  0  0  0  0  0  0
   68.5064   -7.0948   -3.5047 C   0  0  0  0  0  0  0  0  0  0  0  0
   68.7138   -7.8960   -2.4377 N   0  0  0  0  0  0  0  0  0  0  0  0
   68.4243   -5.2947   -4.7991 N   0  0  0  0  0  0  0  0  0  0  0  0
   68.0028   -6.4036   -5.4679 C   0  0  0  0  0  0  0  0  0  0  0  0
   68.0450   -7.5052   -4.6807 N   0  0  0  0  0  0  0  0  0  0  0  0
   67.6565   -8.8829   -5.0887 C   0  0  1  0  0  0  0  0  0  0  0  0
   68.8113   -9.8261   -4.8294 C   0  0  1  0  0  0  0  0  0  0  0  0
   68.1449  -11.0814   -4.3290 C   0  0  2  0  0  0  0  0  0  0  0  0
   67.8585  -11.9517   -5.4310 O   0  0  0  0  0  0  0  0  0  0  0  0
   69.5724  -10.0522   -6.0261 O   0  0  0  0  0  0  0  0  0  0  0  0
   66.5779   -9.3510   -4.2830 O   0  0  0  0  0  0  0  0  0  0  0  0
   66.8418  -10.6185   -3.7311 C   0  0  2  0  0  0  0  0  0  0  0  0
   66.8285  -10.4307   -2.2281 C   0  0  0  0  0  0  0  0  0  0  0  0
   65.5376  -10.1079   -1.7533 O   0  0  0  0  0  0  0  0  0  0  0  0
   64.4036  -11.2324   -1.7998 P   0  0  0  0  0  0  0  0  0  0  0  0
   63.8635  -11.1870   -3.2151 O   0  0  0  0  0  0  0  0  0  0  0  0
   63.4452  -10.7610   -0.7368 O   0  0  0  0  0  0  0  0  0  0  0  0
   65.1365  -12.4818   -1.3964 O   0  0  0  0  0  0  0  0  0  0  0  0
  2  1  2  0  0  0  0
  2  4  1  0  0  0  0
  3  2  1  0  0  0  0
  4  7  1  0  0  0  0
  4  5  2  0  0  0  0
  5  6  1  0  0  0  0
  5  9  1  0  0  0  0
  7  8  2  0  0  0  0
  8  9  1  0  0  0  0
 10  9  1  1  0  0  0
 10 15  1  0  0  0  0
 11 14  1  6  0  0  0
 11 12  1  0  0  0  0
 11 10  1  0  0  0  0
 12 13  1  6  0  0  0
 12 16  1  0  0  0  0
 16 17  1  1  0  0  0
 16 15  1  0  0  0  0
 18 19  1  0  0  0  0
 18 17  1  0  0  0  0
 19 21  1  0  0  0  0
 20 19  1  0  0  0  0
 22 19  2  0  0  0  0
M  END
>  <CHROM.1>
13.01348991,-54.62329127,-174.94927680,-82.88026080,69.43730012,67.18121856
-8.94939583,-3.32041083,0.62283065,0.79375876,0.57001394

>  <Name>
lig.pdb

>  <RI>
0

>  <Rbt.Current_Directory>
/home/itssahil/PROJECTS/Mol_Feturizer/New_Systems/rnas/4znp

>  <Rbt.Executable>
rbdock ($Id: //depot/dev/client3/rdock/2013.1/src/exe/rbdock.cxx#4 $)

>  <Rbt.Library>
libRbt.so (2013.1, Build901 2013/11/27)

>  <Rbt.Parameter_File>
/export/apps/rDock/src/rDock_2013.1_src/data/scripts/dock_solv.prm

>  <Rbt.Receptor>
prm/blind_docking_80.prm

>  <SCORE>
-21.9417

>  <SCORE.INTER>
-17.4914

>  <SCORE.INTER.CONST>
1

>  <SCORE.INTER.POLAR>
0

>  <SCORE.INTER.ROT>
5

>  <SCORE.INTER.SOLV>
18.4906

>  <SCORE.INTER.VDW>
-24.7578

>  <SCORE.INTER.norm>
-0.795062

>  <SCORE.INTRA>
-4.45127

>  <SCORE.INTRA.DIHEDRAL>
-7.61644

>  <SCORE.INTRA.DIHEDRAL.0>
11.9251

>  <SCORE.INTRA.POLAR>
0

>  <SCORE.INTRA.POLAR.0>
0

>  <SCORE.INTRA.REPUL>
0

>  <SCORE.INTRA.REPUL.0>
0

>  <SCORE.INTRA.SOLV>
2.21582

>  <SCORE.INTRA.SOLV.lig_0>
-40.9823

>  <SCORE.INTRA.VDW>
-1.75096

>  <SCORE.INTRA.VDW.0>
-0.53506

>  <SCORE.INTRA.norm>
-0.20233

>  <SCORE.RESTR>
0.000955261

>  <SCORE.RESTR.CAVITY>
0.000955261

>  <SCORE.RESTR.norm>
4.3421e-05

>  <SCORE.SYSTEM>
0

>  <SCORE.SYSTEM.CONST>
0

>  <SCORE.SYSTEM.DIHEDRAL>
0

>  <SCORE.SYSTEM.SOLV>
0

>  <SCORE.SYSTEM.norm>
0

>  <SCORE.heavy>
22

>  <SCORE.norm>
-0.997349

>  <RMSD>
17.306

$$$$
lig.pdb
 OpenBabel11021811523D
libRbt.so/2013.1/901 2013/11/27
 22 23  0  0  0  0  0  0  0  0999 V2000
   66.4473  -13.3045   -3.2301 O   0  0  0  0  0  0  0  0  0  0  0  0
   66.5623  -12.3916   -2.4465 C   0  0  0  0  0  0  0  0  0  0  0  0
   66.0742  -12.4540   -1.2204 N   0  0  0  0  0  0  0  0  0  0  0  0
   67.2231  -11.1450   -2.8584 C   0  0  0  0  0  0  0  0  0  0  0  0
   67.7266  -10.8665   -4.2054 C   0  0  0  0  0  0  0  0  0  0  0  0
   67.6759  -11.7154   -5.2542 N   0  0  0  0  0  0  0  0  0  0  0  0
   67.5105  -10.0353   -2.1595 N   0  0  0  0  0  0  0  0  0  0  0  0
   68.1088   -9.1418   -2.9951 C   0  0  0  0  0  0  0  0  0  0  0  0
   68.2381   -9.6414   -4.2476 N   0  0  0  0  0  0  0  0  0  0  0  0
   68.8465   -8.9360   -5.4084 C   0  0  1  0  0  0  0  0  0  0  0  0
   67.7521   -8.2968   -6.2353 C   0  0  1  0  0  0  0  0  0  0  0  0
   68.3457   -6.9787   -6.6602 C   0  0  2  0  0  0  0  0  0  0  0  0
   69.0188   -7.1313   -7.9162 O   0  0  0  0  0  0  0  0  0  0  0  0
   67.4012   -9.1237   -7.3559 O   0  0  0  0  0  0  0  0  0  0  0  0
   69.6747   -7.8668   -4.9582 O   0  0  0  0  0  0  0  0  0  0  0  0
   69.3690   -6.6539   -5.6031 C   0  0  2  0  0  0  0  0  0  0  0  0
   68.9211   -5.7023   -4.5130 C   0  0  0  0  0  0  0  0  0  0  0  0
   69.9679   -5.4128   -3.6096 O   0  0  0  0  0  0  0  0  0  0  0  0
   69.5920   -4.9867   -2.1164 P   0  0  0  0  0  0  0  0  0  0  0  0
   68.9599   -6.2203   -1.5034 O   0  0  0  0  0  0  0  0  0  0  0  0
   68.6488   -3.8335   -2.3433 O   0  0  0  0  0  0  0  0  0  0  0  0
   70.9082   -4.5447   -1.5394 O   0  0  0  0  0  0  0  0  0  0  0  0
  2  1  2  0  0  0  0
  2  4  1  0  0  0  0
  3  2  1  0  0  0  0
  4  7  1  0  0  0  0
  4  5  2  0  0  0  0
  5  6  1  0  0  0  0
  5  9  1  0  0  0  0
  7  8  2  0  0  0  0
  8  9  1  0  0  0  0
 10  9  1  1  0  0  0
 10 15  1  0  0  0  0
 11 14  1  6  0  0  0
 11 12  1  0  0  0  0
 11 10  1  0  0  0  0
 12 13  1  6  0  0  0
 12 16  1  0  0  0  0
 16 17  1  1  0  0  0
 16 15  1  0  0  0  0
 18 19  1  0  0  0  0
 18 17  1  0  0  0  0
 19 21  1  0  0  0  0
 20 19  1  0  0  0  0
 22 19  2  0  0  0  0
M  END
>  <CHROM.1>
2.97775989,84.08044844,-177.20783768,66.30463259,-153.91600107,68.42790641
-8.18298370,-3.91648630,3.01425345,-1.19469405,-1.63771265

>  <Name>
lig.pdb

>  <RI>
0

>  <Rbt.Current_Directory>
/home/itssahil/PROJECTS/Mol_Feturizer/New_Systems/rnas/4znp

>  <Rbt.Executable>
rbdock ($Id: //depot/dev/client3/rdock/2013.1/src/exe/rbdock.cxx#4 $)

>  <Rbt.Library>
libRbt.so (2013.1, Build901 2013/11/27)

>  <Rbt.Parameter_File>
/export/apps/rDock/src/rDock_2013.1_src/data/scripts/dock_solv.prm

>  <Rbt.Receptor>
prm/blind_docking_80.prm

>  <SCORE>
-22.2565

>  <SCORE.INTER>
-17.4616

>  <SCORE.INTER.CONST>
1

>  <SCORE.INTER.POLAR>
0

>  <SCORE.INTER.ROT>
5

>  <SCORE.INTER.SOLV>
20.2411

>  <SCORE.INTER.VDW>
-25.3215

>  <SCORE.INTER.norm>
-0.79371

>  <SCORE.INTRA>
-4.82985

>  <SCORE.INTRA.DIHEDRAL>
-6.51233

>  <SCORE.INTRA.DIHEDRAL.0>
11.9251

>  <SCORE.INTRA.POLAR>
0

>  <SCORE.INTRA.POLAR.0>
0

>  <SCORE.INTRA.REPUL>
0

>  <SCORE.INTRA.REPUL.0>
0

>  <SCORE.INTRA.SOLV>
0.251546

>  <SCORE.INTRA.SOLV.lig_0>
-40.9823

>  <SCORE.INTRA.VDW>
-1.69946

>  <SCORE.INTRA.VDW.0>
-0.53506

>  <SCORE.INTRA.norm>
-0.219539

>  <SCORE.RESTR>
0.034978

>  <SCORE.RESTR.CAVITY>
0.034978

>  <SCORE.RESTR.norm>
0.00158991

>  <SCORE.SYSTEM>
0

>  <SCORE.SYSTEM.CONST>
0

>  <SCORE.SYSTEM.DIHEDRAL>
0

>  <SCORE.SYSTEM.SOLV>
0

>  <SCORE.SYSTEM.norm>
0

>  <SCORE.heavy>
22

>  <SCORE.norm>
-1.01166

>  <RMSD>
17.348

$$$$
lig.pdb
 OpenBabel11021811523D
libRbt.so/2013.1/901 2013/11/27
 22 23  0  0  0  0  0  0  0  0999 V2000
   74.3707   -8.4743   36.0166 O   0  0  0  0  0  0  0  0  0  0  0  0
   73.2473   -8.7136   36.3922 C   0  0  0  0  0  0  0  0  0  0  0  0
   72.1945   -8.5345   35.6142 N   0  0  0  0  0  0  0  0  0  0  0  0
   73.0125   -9.1780   37.7668 C   0  0  0  0  0  0  0  0  0  0  0  0
   74.0611   -9.4434   38.7545 C   0  0  0  0  0  0  0  0  0  0  0  0
   75.3890   -9.3203   38.5428 N   0  0  0  0  0  0  0  0  0  0  0  0
   71.8688   -9.4554   38.4128 N   0  0  0  0  0  0  0  0  0  0  0  0
   72.1724   -9.8297   39.6866 C   0  0  0  0  0  0  0  0  0  0  0  0
   73.5095   -9.8186   39.9030 N   0  0  0  0  0  0  0  0  0  0  0  0
   74.1884  -10.1727   41.1794 C   0  0  1  0  0  0  0  0  0  0  0  0
   74.6716  -11.6050   41.1086 C   0  0  1  0  0  0  0  0  0  0  0  0
   76.0066  -11.5691   41.8064 C   0  0  2  0  0  0  0  0  0  0  0  0
   75.8322  -11.8396   43.2029 O   0  0  0  0  0  0  0  0  0  0  0  0
   73.7448  -12.4953   41.7496 O   0  0  0  0  0  0  0  0  0  0  0  0
   75.3545   -9.3725   41.3572 O   0  0  0  0  0  0  0  0  0  0  0  0
   76.4903  -10.1510   41.6484 C   0  0  2  0  0  0  0  0  0  0  0  0
   77.4678   -9.9030   40.5182 C   0  0  0  0  0  0  0  0  0  0  0  0
   78.6813  -10.5993   40.7148 O   0  0  0  0  0  0  0  0  0  0  0  0
   79.8933  -10.3196   39.7121 P   0  0  0  0  0  0  0  0  0  0  0  0
   80.1101   -8.8206   39.7669 O   0  0  0  0  0  0  0  0  0  0  0  0
   79.3501  -10.8372   38.4053 O   0  0  0  0  0  0  0  0  0  0  0  0
   80.9990  -11.1822   40.2543 O   0  0  0  0  0  0  0  0  0  0  0  0
  2  1  2  0  0  0  0
  2  4  1  0  0  0  0
  3  2  1  0  0  0  0
  4  7  1  0  0  0  0
  4  5  2  0  0  0  0
  5  6  1  0  0  0  0
  5  9  1  0  0  0  0
  7  8  2  0  0  0  0
  8  9  1  0  0  0  0
 10  9  1  6  0  0  0
 10 15  1  0  0  0  0
 11 14  1  1  0  0  0
 11 12  1  0  0  0  0
 11 10  1  0  0  0  0
 12 13  1  1  0  0  0
 12 16  1  0  0  0  0
 16 17  1  6  0  0  0
 16 15  1  0  0  0  0
 18 19  1  0  0  0  0
 18 17  1  0  0  0  0
 19 21  1  0  0  0  0
 20 19  1  0  0  0  0
 22 19  2  0  0  0  0
M  END
>  <CHROM.1>
-2.75680365,-81.42314989,-64.04450752,55.27199687,-172.83584068,75.93087152
-10.11378882,39.70307720,-2.76329894,-0.00992314,2.02082519

>  <Name>
lig.pdb

>  <RI>
0

>  <Rbt.Current_Directory>
/home/itssahil/PROJECTS/Mol_Feturizer/New_Systems/rnas/4znp

>  <Rbt.Executable>
rbdock ($Id: //depot/dev/client3/rdock/2013.1/src/exe/rbdock.cxx#4 $)

>  <Rbt.Library>
libRbt.so (2013.1, Build901 2013/11/27)

>  <Rbt.Parameter_File>
/export/apps/rDock/src/rDock_2013.1_src/data/scripts/dock_solv.prm

>  <Rbt.Receptor>
prm/blind_docking_100.prm

>  <SCORE>
-13.7194

>  <SCORE.INTER>
-8.02558

>  <SCORE.INTER.CONST>
1

>  <SCORE.INTER.POLAR>
0

>  <SCORE.INTER.ROT>
5

>  <SCORE.INTER.SOLV>
16.238

>  <SCORE.INTER.VDW>
-17.6964

>  <SCORE.INTER.norm>
-0.364799

>  <SCORE.INTRA>
-5.69882

>  <SCORE.INTRA.DIHEDRAL>
-9.12732

>  <SCORE.INTRA.DIHEDRAL.0>
11.9251

>  <SCORE.INTRA.POLAR>
0

>  <SCORE.INTRA.POLAR.0>
0

>  <SCORE.INTRA.REPUL>
0

>  <SCORE.INTRA.REPUL.0>
0

>  <SCORE.INTRA.SOLV>
0.904526

>  <SCORE.INTRA.SOLV.lig_0>
-40.9823

>  <SCORE.INTRA.VDW>
-1.58743

>  <SCORE.INTRA.VDW.0>
-0.53506

>  <SCORE.INTRA.norm>
-0.259037

>  <SCORE.RESTR>
0.0049611

>  <SCORE.RESTR.CAVITY>
0.0049611

>  <SCORE.RESTR.norm>
0.000225505

>  <SCORE.SYSTEM>
0

>  <SCORE.SYSTEM.CONST>
0

>  <SCORE.SYSTEM.DIHEDRAL>
0

>  <SCORE.SYSTEM.SOLV>
0

>  <SCORE.SYSTEM.norm>
0

>  <SCORE.heavy>
22

>  <SCORE.norm>
-0.623611

>  <RMSD>
34.421

$$$$
lig.pdb
 OpenBabel11021811523D
libRbt.so/2013.1/901 2013/11/27
 22 23  0  0  0  0  0  0  0  0999 V2000
   80.1027  -12.0777   40.1424 O   0  0  0  0  0  0  0  0  0  0  0  0
   79.6959  -11.3145   39.2983 C   0  0  0  0  0  0  0  0  0  0  0  0
   80.4572  -10.9015   38.3006 N   0  0  0  0  0  0  0  0  0  0  0  0
   78.3295  -10.7798   39.3845 C   0  0  0  0  0  0  0  0  0  0  0  0
   77.3369  -11.1691   40.3887 C   0  0  0  0  0  0  0  0  0  0  0  0
   77.5231  -12.0845   41.3639 N   0  0  0  0  0  0  0  0  0  0  0  0
   77.6959   -9.8725   38.6244 N   0  0  0  0  0  0  0  0  0  0  0  0
   76.4412   -9.6927   39.1224 C   0  0  0  0  0  0  0  0  0  0  0  0
   76.2180  -10.4776   40.2037 N   0  0  0  0  0  0  0  0  0  0  0  0
   74.9574  -10.5356   40.9929 C   0  0  1  0  0  0  0  0  0  0  0  0
   74.6730   -9.1714   41.5829 C   0  0  1  0  0  0  0  0  0  0  0  0
   73.1773   -9.0330   41.4645 C   0  0  2  0  0  0  0  0  0  0  0  0
   72.5481   -9.5285   42.6531 O   0  0  0  0  0  0  0  0  0  0  0  0
   75.1221   -9.0936   42.9448 O   0  0  0  0  0  0  0  0  0  0  0  0
   73.8543  -10.8332   40.1406 O   0  0  0  0  0  0  0  0  0  0  0  0
   72.7941   -9.9235   40.3112 C   0  0  2  0  0  0  0  0  0  0  0  0
   72.6123   -9.2380   38.9728 C   0  0  0  0  0  0  0  0  0  0  0  0
   73.8520   -8.9686   38.3511 O   0  0  0  0  0  0  0  0  0  0  0  0
   73.8493   -8.2909   36.9042 P   0  0  0  0  0  0  0  0  0  0  0  0
   72.9207   -9.1502   36.0699 O   0  0  0  0  0  0  0  0  0  0  0  0
   75.3039   -8.3634   36.5170 O   0  0  0  0  0  0  0  0  0  0  0  0
   73.4001   -6.8829   37.1808 O   0  0  0  0  0  0  0  0  0  0  0  0
  2  1  2  0  0  0  0
  2  4  1  0  0  0  0
  3  2  1  0  0  0  0
  4  7  1  0  0  0  0
  4  5  2  0  0  0  0
  5  6  1  0  0  0  0
  5  9  1  0  0  0  0
  7  8  2  0  0  0  0
  8  9  1  0  0  0  0
 10  9  1  6  0  0  0
 10 15  1  0  0  0  0
 11 14  1  1  0  0  0
 11 12  1  0  0  0  0
 11 10  1  0  0  0  0
 12 13  1  1  0  0  0
 12 16  1  0  0  0  0
 16 17  1  6  0  0  0
 16 15  1  0  0  0  0
 18 19  1  0  0  0  0
 18 17  1  0  0  0  0
 19 21  1  0  0  0  0
 20 19  1  0  0  0  0
 22 19  2  0  0  0  0
M  END
>  <CHROM.1>
-4.58432065,119.82440301,78.83893607,-51.56516777,177.95444781,75.41523163
-9.75548139,39.41440391,-0.34096799,0.35057092,-1.27621228

>  <Name>
lig.pdb

>  <RI>
0

>  <Rbt.Current_Directory>
/home/itssahil/PROJECTS/Mol_Feturizer/New_Systems/rnas/4znp

>  <Rbt.Executable>
rbdock ($Id: //depot/dev/client3/rdock/2013.1/src/exe/rbdock.cxx#4 $)

>  <Rbt.Library>
libRbt.so (2013.1, Build901 2013/11/27)

>  <Rbt.Parameter_File>
/export/apps/rDock/src/rDock_2013.1_src/data/scripts/dock_solv.prm

>  <Rbt.Receptor>
prm/blind_docking_100.prm

>  <SCORE>
-14.7201

>  <SCORE.INTER>
-9.13972

>  <SCORE.INTER.CONST>
1

>  <SCORE.INTER.POLAR>
0

>  <SCORE.INTER.ROT>
5

>  <SCORE.INTER.SOLV>
18.8802

>  <SCORE.INTER.VDW>
-19.3199

>  <SCORE.INTER.norm>
-0.415442

>  <SCORE.INTRA>
-5.65459

>  <SCORE.INTRA.DIHEDRAL>
-8.13848

>  <SCORE.INTRA.DIHEDRAL.0>
11.9251

>  <SCORE.INTRA.POLAR>
0

>  <SCORE.INTRA.POLAR.0>
0

>  <SCORE.INTRA.REPUL>
0

>  <SCORE.INTRA.REPUL.0>
0

>  <SCORE.INTRA.SOLV>
0.525215

>  <SCORE.INTRA.SOLV.lig_0>
-40.9823

>  <SCORE.INTRA.VDW>
-1.84796

>  <SCORE.INTRA.VDW.0>
-0.53506

>  <SCORE.INTRA.norm>
-0.257027

>  <SCORE.RESTR>
0.0742003

>  <SCORE.RESTR.CAVITY>
0.0742003

>  <SCORE.RESTR.norm>
0.00337274

>  <SCORE.SYSTEM>
0

>  <SCORE.SYSTEM.CONST>
0

>  <SCORE.SYSTEM.DIHEDRAL>
0

>  <SCORE.SYSTEM.SOLV>
0

>  <SCORE.SYSTEM.norm>
0

>  <SCORE.heavy>
22

>  <SCORE.norm>
-0.669096

>  <RMSD>
34.439

$$$$
