@<TRIPOS>MOLECULE
4znp_rdock.pdb
 1574 1764 0 0 0
SMALL
GASTEIGER

@<TRIPOS>ATOM
      1    P.3     69.4390  -21.0160   41.6970 Pac     1  G1          0.3942
      2  OP1       70.7050  -21.2050   40.9340 O.3     1  G1         -0.1425
      3  OP2       69.4840  -20.9570   43.1820 O.3     1  G1         -0.1425
      4  O5'       68.6690  -19.7180   41.1660 O.3     1  G1         -0.2926
      5  C5'       69.2650  -18.8180   40.2370 C.3     1  G1          0.1829
      6  C4'       69.6860  -17.5340   40.9130 C.3     1  G1          0.1774
      7  O4'       70.4660  -17.8780   42.0890 O.3     1  G1         -0.3307
      8  C3'       70.5950  -16.5960   40.1070 C.3     1  G1          0.1860
      9  O3'       69.8930  -15.6960   39.2500 O.3     1  G1         -0.3112
     10  C2'       71.4060  -15.8870   41.1900 C.3     1  G1          0.2309
     11  O2'       70.6770  -14.8100   41.7650 O.3     1  G1         -0.2156
     12  C1'       71.5600  -16.9960   42.2320 C.3     1  G1          0.2408
     13   N9       72.8140  -17.7730   42.0720 N.ar    1  G1         -0.2693
     14   C8       72.9630  -19.1470   41.9900 C.ar    1  G1          0.1817
     15   N7       74.2070  -19.5360   41.8410 N.ar    1  G1         -0.2173
     16   C5       74.9350  -18.3470   41.8270 C.ar    1  G1          0.1748
     17   C6       76.3380  -18.1050   41.6960 C.ar    1  G1          0.3023
     18   O6       77.2700  -18.9200   41.5560 O.2     1  G1         -0.2633
     19   N.1      76.6180  -16.7380   41.7430 N.ar    1  G1         -0.1709
     20   C.2      75.6790  -15.7400   41.8900 C.ar    1  G1          0.2606
     21   N.2      76.1010  -14.4700   41.9190 N.pl3   1  G1         -0.0859
     22   N.3      74.3880  -15.9540   42.0130 N.ar    1  G1         -0.1918
     23   C4       74.0860  -17.2630   41.9760 C.ar    1  G1          0.1723
     24    P.3     70.4590  -15.2950   37.7850 P.3     2  G2          0.2141
     25  OP1       69.4590  -14.3940   37.1610 O.3     2  G2         -0.4373
     26  OP2       70.8900  -16.5280   37.0720 O.2     2  G2         -0.5172
     27  O5'       71.7350  -14.3760   38.0600 O.3     2  G2         -0.3114
     28  C5'       71.6710  -12.9710   37.8560 C.3     2  G2          0.1812
     29  C4'       73.0370  -12.3560   37.6510 C.3     2  G2          0.1773
     30  O4'       73.9660  -12.8270   38.6600 O.3     2  G2         -0.3307
     31  C3'       73.7430  -12.6760   36.3500 C.3     2  G2          0.1860
     32  O3'       73.2500  -11.9410   35.2530 O.3     2  G2         -0.3112
     33  C2'       75.1960  -12.3700   36.6860 C.3     2  G2          0.2309
     34  O2'       75.4140  -10.9670   36.7120 O.3     2  G2         -0.2156
     35  C1'       75.2750  -12.8880   38.1190 C.3     2  G2          0.2408
     36   N9       75.7550  -14.2870   38.1910 N.ar    2  G2         -0.2693
     37   C8       74.9570  -15.4070   38.2720 C.ar    2  G2          0.1817
     38   N7       75.6220  -16.5300   38.3380 N.ar    2  G2         -0.2173
     39   C5       76.9530  -16.1410   38.3070 C.ar    2  G2          0.1748
     40   C6       78.1290  -16.9430   38.3500 C.ar    2  G2          0.3023
     41   O6       78.2250  -18.1820   38.4250 O.2     2  G2         -0.2633
     42   N.1      79.2710  -16.1420   38.2920 N.ar    2  G2         -0.1709
     43   C.2      79.2750  -14.7640   38.2060 C.ar    2  G2          0.2606
     44   N.2      80.4850  -14.1780   38.1610 N.pl3   2  G2         -0.0859
     45   N.3      78.1780  -14.0130   38.1650 N.ar    2  G2         -0.1918
     46   C4       77.0550  -14.7590   38.2180 C.ar    2  G2          0.1723
     47    P.3     73.6060  -12.4160   33.7650 P.3     3  G3          0.2141
     48  OP1       72.5930  -11.8380   32.8490 O.2     3  G3         -0.5172
     49  OP2       73.8740  -13.8780   33.7340 O.3     3  G3         -0.4373
     50  O5'       74.9890  -11.7060   33.4900 O.3     3  G3         -0.3114
     51  C5'       75.8060  -12.1880   32.4520 C.3     3  G3          0.1812
     52  C4'       77.2610  -11.9330   32.7120 C.3     3  G3          0.1773
     53  O4'       77.6400  -12.3780   34.0420 O.3     3  G3         -0.3307
     54  C3'       78.1760  -12.7130   31.8030 C.3     3  G3          0.1860
     55  O3'       78.2560  -12.1600   30.5070 O.3     3  G3         -0.3112
     56  C2'       79.4760  -12.7430   32.5900 C.3     3  G3          0.2309
     57  O2'       80.1330  -11.4890   32.5190 O.3     3  G3         -0.2156
     58  C1'       78.9440  -12.9320   34.0070 C.3     3  G3          0.2408
     59   N9       78.8510  -14.3600   34.3670 N.ar    3  G3         -0.2693
     60   C8       77.6940  -15.0350   34.6600 C.ar    3  G3          0.1817
     61   N7       77.8890  -16.2930   34.9430 N.ar    3  G3         -0.2173
     62   C5       79.2600  -16.4670   34.8320 C.ar    3  G3          0.1748
     63   C6       80.0490  -17.6320   35.0290 C.ar    3  G3          0.3023
     64   O6       79.6740  -18.7690   35.3500 O.2     3  G3         -0.2633
     65   N.1      81.4010  -17.3700   34.8090 N.ar    3  G3         -0.1709
     66   C.2      81.9230  -16.1490   34.4500 C.ar    3  G3          0.2606
     67   N.2      83.2520  -16.0960   34.2870 N.pl3   3  G3         -0.0859
     68   N.3      81.1930  -15.0560   34.2680 N.ar    3  G3         -0.1918
     69   C4       79.8750  -15.2810   34.4740 C.ar    3  G3          0.1723
     70    P.3     78.1200  -13.1400   29.2470 P.3     4  A4          0.2141
     71  OP1       78.1050  -12.3190   28.0100 O.2     4  A4         -0.5172
     72  OP2       77.0060  -14.0980   29.5050 O.3     4  A4         -0.4373
     73  O5'       79.4870  -13.9490   29.3070 O.3     4  A4         -0.3114
     74  C5'       80.7410  -13.2870   29.4740 C.3     4  A4          0.1812
     75  C4'       81.8520  -14.1410   28.9420 C.3     4  A4          0.1773
     76  O4'       82.1790  -15.1480   29.9410 O.3     4  A4         -0.3307
     77  C3'       81.4360  -14.8960   27.6900 C.3     4  A4          0.1860
     78  O3'       82.5240  -15.0710   26.7970 O.3     4  A4         -0.3112
     79  C2'       80.9770  -16.2380   28.2400 C.3     4  A4          0.2309
     80  O2'       81.0070  -17.3160   27.3290 O.3     4  A4         -0.2156
     81  C1'       81.9090  -16.4380   29.4290 C.3     4  A4          0.2408
     82   N9       81.2360  -17.2170   30.4580 N.ar    4  A4         -0.2693
     83   C8       79.9810  -16.9670   30.9470 C.ar    4  A4          0.1816
     84   N7       79.5740  -17.8560   31.8130 N.ar    4  A4         -0.2193
     85   C5       80.6240  -18.7610   31.8730 C.ar    4  A4          0.1518
     86   C6       80.8110  -19.9390   32.6130 C.ar    4  A4          0.1919
     87   N6       79.9120  -20.4200   33.4720 N.pl3   4  A4         -0.1054
     88   N.1      81.9730  -20.6090   32.4390 N.ar    4  A4         -0.2040
     89   C.2      82.8810  -20.1220   31.5780 C.ar    4  A4          0.2016
     90   N.3      82.8220  -19.0260   30.8250 N.ar    4  A4         -0.2048
     91   C4       81.6540  -18.3870   31.0270 C.ar    4  A4          0.1692
     92    P.3     82.2250  -15.7350   25.3680 P.3     5  U5          0.2141
     93  OP1       82.9750  -14.9730   24.3360 O.2     5  U5         -0.5172
     94  OP2       80.7450  -15.8890   25.2330 O.3     5  U5         -0.4373
     95  O5'       82.8160  -17.2050   25.5430 O.3     5  U5         -0.3114
     96  C5'       83.9660  -17.4070   26.3440 C.3     5  U5          0.1812
     97  C4'       84.2620  -18.8650   26.5570 C.3     5  U5          0.1773
     98  O4'       83.8440  -19.2720   27.8830 O.3     5  U5         -0.3307
     99  C3'       83.5650  -19.8660   25.6530 C.3     5  U5          0.1860
    100  O3'       84.0870  -19.9260   24.3330 O.3     5  U5         -0.3112
    101  C2'       83.7230  -21.1580   26.4480 C.3     5  U5          0.2309
    102  O2'       85.0420  -21.6750   26.3390 O.3     5  U5         -0.2156
    103  C1'       83.5440  -20.6550   27.8770 C.3     5  U5          0.2420
    104   N.1      82.1650  -20.8800   28.3550 N.ar    5  U5         -0.2534
    105   C.2      81.9430  -22.0640   29.0270 C.ar    5  U5          0.3546
    106   O.2      82.8300  -22.8810   29.2450 O.2     5  U5         -0.2443
    107   N.3      80.6470  -22.2440   29.4500 N.ar    5  U5         -0.1530
    108   C4       79.5740  -21.3940   29.2600 C.ar    5  U5          0.2846
    109   O4       78.4630  -21.7080   29.7040 O.2     5  U5         -0.2650
    110   C5       79.8930  -20.2000   28.5390 C.ar    5  U5          0.0814
    111   C6       81.1440  -20.0020   28.1210 C.ar    5  U5          0.0870
    112    P.3     83.2180  -20.5760   23.1370 P.3     6  A6          0.2141
    113  OP1       83.8520  -20.1930   21.8510 O.2     6  A6         -0.5172
    114  OP2       81.7830  -20.2540   23.3330 O.3     6  A6         -0.4373
    115  O5'       83.3860  -22.1510   23.3390 O.3     6  A6         -0.3114
    116  C5'       84.6700  -22.7350   23.5170 C.3     6  A6          0.1812
    117  C4'       84.5720  -24.0990   24.1550 C.3     6  A6          0.1773
    118  O4'       84.0910  -24.0010   25.5170 O.3     6  A6         -0.3307
    119  C3'       83.5970  -25.0460   23.4920 C.3     6  A6          0.1860
    120  O3'       84.1390  -25.6330   22.3330 O.3     6  A6         -0.3112
    121  C2'       83.2730  -26.0400   24.6030 C.3     6  A6          0.2309
    122  O2'       84.2790  -27.0360   24.7170 O.3     6  A6         -0.2156
    123  C1'       83.3230  -25.1450   25.8410 C.3     6  A6          0.2408
    124   N9       81.9720  -24.7300   26.2740 N.ar    6  A6         -0.2693
    125   C8       81.3130  -23.5430   26.0480 C.ar    6  A6          0.1816
    126   N7       80.1050  -23.4950   26.5690 N.ar    6  A6         -0.2193
    127   C5       79.9490  -24.7370   27.1790 C.ar    6  A6          0.1518
    128   C6       78.8900  -25.3230   27.9090 C.ar    6  A6          0.1919
    129   N6       77.7300  -24.7040   28.1600 N.pl3   6  A6         -0.1054
    130   N.1      79.0580  -26.5840   28.3830 N.ar    6  A6         -0.2040
    131   C.2      80.2180  -27.2050   28.1300 C.ar    6  A6          0.2016
    132   N.3      81.2860  -26.7630   27.4590 N.ar    6  A6         -0.2048
    133   C4       81.0890  -25.5070   27.0020 C.ar    6  A6          0.1692
    134    P.3     83.1580  -26.0990   21.1590 P.3     7  C7          0.2141
    135  OP1       83.9220  -26.0200   19.8840 O.2     7  C7         -0.5172
    136  OP2       81.8840  -25.3330   21.3050 O.3     7  C7         -0.4373
    137  O5'       82.8500  -27.6190   21.5300 O.3     7  C7         -0.3114
    138  C5'       81.5340  -28.1240   21.3980 C.3     7  C7          0.1812
    139  C4'       81.2140  -29.1540   22.4470 C.3     7  C7          0.1773
    140  O4'       81.1270  -28.5290   23.7600 O.3     7  C7         -0.3307
    141  C3'       79.8610  -29.8230   22.2970 C.3     7  C7          0.1860
    142  O3'       79.7890  -30.7780   21.2560 O.3     7  C7         -0.3112
    143  C2'       79.6130  -30.3540   23.6970 C.3     7  C7          0.2309
    144  O2'       80.4550  -31.4650   23.9700 O.3     7  C7         -0.2156
    145  C1'       80.1130  -29.1710   24.5230 C.3     7  C7          0.2420
    146   N.1      79.0250  -28.1940   24.8040 N.ar    7  C7         -0.2535
    147   C.2      77.9040  -28.5520   25.5980 C.ar    7  C7          0.3532
    148   O.2      77.7960  -29.6960   26.0780 O.2     7  C7         -0.2443
    149   N.3      76.9280  -27.6370   25.8360 N.ar    7  C7         -0.1739
    150   C4       77.0290  -26.4050   25.3300 C.ar    7  C7          0.1759
    151   N.4      76.0500  -25.5400   25.5980 N.pl3   7  C7         -0.1070
    152   C5       78.1420  -26.0100   24.5280 C.ar    7  C7          0.0566
    153   C6       79.1020  -26.9210   24.2960 C.ar    7  C7          0.0850
    154    P.3     78.8210  -30.4750   20.0090 P.3     8  A8          0.2141
    155  OP1       79.4250  -31.1130   18.8130 O.2     8  A8         -0.5172
    156  OP2       78.5370  -29.0120   19.9760 O.3     8  A8         -0.4373
    157  O5'       77.4590  -31.2170   20.3940 O.3     8  A8         -0.3114
    158  C5'       77.4790  -32.5100   20.9870 C.3     8  A8          0.1812
    159  C4'       76.4260  -32.6670   22.0620 C.3     8  A8          0.1773
    160  O4'       76.6150  -31.6800   23.1110 O.3     8  A8         -0.3307
    161  C3'       74.9780  -32.4650   21.6440 C.3     8  A8          0.1860
    162  O3'       74.4320  -33.5700   20.9520 O.3     8  A8         -0.3112
    163  C2'       74.2970  -32.1840   22.9740 C.3     8  A8          0.2309
    164  O2'       74.1410  -33.3870   23.7170 O.3     8  A8         -0.2156
    165  C1'       75.3590  -31.3290   23.6660 C.3     8  A8          0.2408
    166   N9       75.1260  -29.8770   23.4790 N.ar    8  A8         -0.2693
    167   C8       75.9140  -28.9550   22.8210 C.ar    8  A8          0.1816
    168   N7       75.4490  -27.7280   22.8360 N.ar    8  A8         -0.2193
    169   C5       74.2700  -27.8470   23.5630 C.ar    8  A8          0.1518
    170   C6       73.2920  -26.9040   23.9410 C.ar    8  A8          0.1919
    171   N6       73.3580  -25.6050   23.6290 N.pl3   8  A8         -0.1054
    172   N.1      72.2260  -27.3440   24.6570 N.ar    8  A8         -0.2040
    173   C.2      72.1620  -28.6460   24.9720 C.ar    8  A8          0.2016
    174   N.3      73.0190  -29.6260   24.6830 N.ar    8  A8         -0.2048
    175   C4       74.0610  -29.1560   23.9670 C.ar    8  A8          0.1692
    176    P.3     73.9700  -33.3900   19.4280 P.3     9  G9          0.2141
    177  OP1       73.5690  -34.7420   18.9380 O.3     9  G9         -0.4373
    178  OP2       75.0490  -32.6180   18.7440 O.2     9  G9         -0.5172
    179  O5'       72.6590  -32.4810   19.5250 O.3     9  G9         -0.3114
    180  C5'       71.3730  -33.0720   19.4420 C.3     9  G9          0.1812
    181  C4'       70.4750  -32.6530   20.5780 C.3     9  G9          0.1773
    182  O4'       71.2020  -31.8420   21.5310 O.3     9  G9         -0.3307
    183  C3'       69.3040  -31.7780   20.1780 C.3     9  G9          0.1860
    184  O3'       68.2360  -32.5100   19.6350 O.3     9  G9         -0.3112
    185  C2'       68.9580  -31.0560   21.4650 C.3     9  G9          0.2309
    186  O2'       68.1760  -31.8770   22.3180 O.3     9  G9         -0.2156
    187  C1'       70.3460  -30.8560   22.0720 C.3     9  G9          0.2408
    188   N9       70.9020  -29.5320   21.7390 N.ar    9  G9         -0.2693
    189   C8       72.1240  -29.2750   21.1670 C.ar    9  G9          0.1817
    190   N7       72.3420  -27.9990   21.0060 N.ar    9  G9         -0.2173
    191   C5       71.1940  -27.3760   21.5060 C.ar    9  G9          0.1748
    192   C6       70.8410  -25.9940   21.6100 C.ar    9  G9          0.3023
    193   O6       71.5080  -25.0040   21.2660 O.2     9  G9         -0.2633
    194   N.1      69.5850  -25.8060   22.1730 N.ar    9  G9         -0.1709
    195   C.2      68.7660  -26.8210   22.6080 C.ar    9  G9          0.2606
    196   N.2      67.5700  -26.4750   23.1370 N.pl3   9  G9         -0.0859
    197   N.3      69.0880  -28.1060   22.5190 N.ar    9  G9         -0.1918
    198   C4       70.3020  -28.3140   21.9640 C.ar    9  G9          0.1723
    199    P.3     67.7840  -32.1640   18.1460 P.3    10  G10         0.2141
    200  OP1       66.7170  -33.1250   17.7470 O.3    10  G10        -0.4373
    201  OP2       69.0470  -32.0030   17.3610 O.2    10  G10        -0.5172
    202  O5'       67.1350  -30.7130   18.2900 O.3    10  G10        -0.3114
    203  C5'       66.0240  -30.4780   19.1500 C.3    10  G10         0.1812
    204  C4'       65.8840  -29.0080   19.4730 C.3    10  G10         0.1773
    205  O4'       67.0710  -28.5600   20.1670 O.3    10  G10        -0.3307
    206  C3'       65.8000  -28.0780   18.2750 C.3    10  G10         0.1860
    207  O3'       64.5080  -27.9920   17.7200 O.3    10  G10        -0.3112
    208  C2'       66.3240  -26.7710   18.8380 C.3    10  G10         0.2309
    209  O2'       65.3640  -26.1850   19.7100 O.3    10  G10        -0.2156
    210  C1'       67.4550  -27.2840   19.6970 C.3    10  G10         0.2408
    211   N9       68.7080  -27.4470   18.9460 N.ar   10  G10        -0.2693
    212   C8       69.2380  -28.6230   18.4550 C.ar   10  G10         0.1817
    213   N7       70.3900  -28.4690   17.8520 N.ar   10  G10        -0.2173
    214   C5       70.6430  -27.0990   17.9600 C.ar   10  G10         0.1748
    215   C6       71.7510  -26.3250   17.4910 C.ar   10  G10         0.3023
    216   O6       72.7700  -26.6860   16.8600 O.2    10  G10        -0.2633
    217   N.1      71.5830  -24.9850   17.8300 N.ar   10  G10        -0.1709
    218   C.2      70.4990  -24.4600   18.5100 C.ar   10  G10         0.2606
    219   N.2      70.5440  -23.1260   18.7210 N.pl3  10  G10        -0.0859
    220   N.3      69.4590  -25.1690   18.9520 N.ar   10  G10        -0.1918
    221   C4       69.6070  -26.4660   18.6400 C.ar   10  G10         0.1723
    222    P.3     64.3090  -28.3370   16.1690 P.3    11  A11         0.2141
    223  OP1       64.1440  -29.8190   16.0500 O.3    11  A11        -0.4373
    224  OP2       65.3730  -27.5800   15.4170 O.2    11  A11        -0.5172
    225  O5'       62.8560  -27.7730   15.8590 O.3    11  A11        -0.3114
    226  C5'       61.7720  -28.0520   16.7370 C.3    11  A11         0.1812
    227  C4'       61.2590  -26.7760   17.3660 C.3    11  A11         0.1773
    228  O4'       62.3640  -26.0810   17.9990 O.3    11  A11        -0.3307
    229  C3'       60.7030  -25.7380   16.4070 C.3    11  A11         0.1860
    230  O3'       59.3890  -25.9940   15.9530 O.3    11  A11        -0.3112
    231  C2'       60.8170  -24.4550   17.1970 C.3    11  A11         0.2309
    232  O2'       59.7240  -24.3530   18.0920 O.3    11  A11        -0.2156
    233  C1'       62.1030  -24.6960   17.9990 C.3    11  A11         0.2408
    234   N9       63.2740  -23.9440   17.4910 N.ar   11  A11        -0.2693
    235   C8       64.4450  -24.3530   16.8900 C.ar   11  A11         0.1816
    236   N7       65.2830  -23.3600   16.5890 N.ar   11  A11        -0.2193
    237   C5       64.6240  -22.2200   17.0370 C.ar   11  A11         0.1518
    238   C6       64.9490  -20.8290   17.0370 C.ar   11  A11         0.1919
    239   N6       66.0970  -20.2940   16.5490 N.pl3  11  A11        -0.1054
    240   N.1      64.0230  -19.9690   17.5700 N.ar   11  A11        -0.2040
    241   C.2      62.8810  -20.4700   18.0760 C.ar   11  A11         0.2016
    242   N.3      62.4750  -21.7480   18.1370 N.ar   11  A11        -0.2048
    243   C4       63.3930  -22.5750   17.5920 C.ar   11  A11         0.1692
    244    P.3     59.1020  -25.8150   14.3810 P.3    12  C12         0.2141
    245  OP1       57.6360  -25.9040   14.1070 O.3    12  C12        -0.4373
    246  OP2       60.1350  -26.5690   13.5940 O.2    12  C12        -0.5172
    247  O5'       59.5160  -24.3070   14.1230 O.3    12  C12        -0.3114
    248  C5'       58.6180  -23.2490   14.4200 C.3    12  C12         0.1812
    249  C4'       59.3110  -21.9330   14.2790 C.3    12  C12         0.1773
    250  O4'       60.5650  -22.0100   15.0210 O.3    12  C12        -0.3307
    251  C3'       59.7600  -21.5830   12.8820 C.3    12  C12         0.1860
    252  O3'       58.7220  -21.1070   12.0200 O.3    12  C12        -0.3112
    253  C2'       60.9180  -20.6110   13.1230 C.3    12  C12         0.2309
    254  O2'       60.4580  -19.3160   13.4690 O.3    12  C12        -0.2156
    255  C1'       61.5500  -21.2490   14.3640 C.3    12  C12         0.2420
    256   N.1      62.6950  -22.1280   14.0100 N.ar   12  C12        -0.2535
    257   C.2      63.8680  -21.4920   13.7060 C.ar   12  C12         0.3532
    258   O.2      63.8520  -20.2630   13.7710 O.2    12  C12        -0.2443
    259   N.3      64.9690  -22.1920   13.3690 N.ar   12  C12        -0.1739
    260   C4       64.9180  -23.5080   13.3150 C.ar   12  C12         0.1759
    261   N.4      66.0330  -24.1330   12.9590 N.pl3  12  C12        -0.1070
    262   C5       63.7220  -24.2080   13.6020 C.ar   12  C12         0.0566
    263   C6       62.6400  -23.4860   13.9460 C.ar   12  C12         0.0850
    264    P.3     58.9200  -21.2370   10.4290 P.3    13  U13         0.2141
    265  OP1       57.9110  -20.4120    9.7060 O.2    13  U13        -0.5172
    266  OP2       59.0370  -22.6860   10.1250 O.3    13  U13        -0.4373
    267  O5'       60.4000  -20.7100   10.2320 O.3    13  U13        -0.3114
    268  C5'       60.9970  -20.6380    8.9630 C.3    13  U13         0.1812
    269  C4'       62.3380  -19.9860    9.1000 C.3    13  U13         0.1773
    270  O4'       63.0940  -20.6610   10.1290 O.3    13  U13        -0.3307
    271  C3'       63.2180  -20.0250    7.8690 C.3    13  U13         0.1860
    272  O3'       62.9070  -18.9320    7.0240 O.3    13  U13        -0.3112
    273  C2'       64.6400  -19.9990    8.4440 C.3    13  U13         0.2309
    274  O2'       65.0960  -18.6820    8.7140 O.3    13  U13        -0.2156
    275  C1'       64.4510  -20.7450    9.7810 C.3    13  U13         0.2420
    276   N.1      64.8360  -22.1810    9.7380 N.ar   13  U13        -0.2534
    277   C.2      66.1340  -22.5410    9.4590 C.ar   13  U13         0.3546
    278   O.2      67.0020  -21.7240    9.2070 O.2    13  U13        -0.2443
    279   N.3      66.4010  -23.8920    9.4510 N.ar   13  U13        -0.1530
    280   C4       65.5390  -24.9370    9.7180 C.ar   13  U13         0.2846
    281   O4       65.9540  -26.1110    9.6690 O.2    13  U13        -0.2650
    282   C5       64.2110  -24.4950   10.0250 C.ar   13  U13         0.0814
    283   C6       63.9230  -23.1820   10.0220 C.ar   13  U13         0.0870
    284    P.3     63.4900  -18.8050    5.5430 P.3    14  G14         0.2141
    285  OP1       64.2840  -20.0240    5.2100 O.2    14  G14        -0.5172
    286  OP2       64.1030  -17.4480    5.3500 O.3    14  G14        -0.4373
    287  O5'       62.1600  -18.8210    4.6820 O.3    14  G14        -0.3114
    288  C5'       61.2770  -19.9100    4.7800 C.3    14  G14         0.1812
    289  C4'       59.8780  -19.4780    4.4960 C.3    14  G14         0.1773
    290  O4'       59.3380  -18.7910    5.6420 O.3    14  G14        -0.3307
    291  C3'       59.7280  -18.4750    3.3890 C.3    14  G14         0.1860
    292  O3'       59.8240  -19.0650    2.1180 O.3    14  G14        -0.3112
    293  C2'       58.3680  -17.8980    3.6930 C.3    14  G14         0.2309
    294  O2'       57.3710  -18.8740    3.4380 O.3    14  G14        -0.2156
    295  C1'       58.4510  -17.7880    5.2050 C.3    14  G14         0.2408
    296   N9       58.9160  -16.4550    5.6710 N.ar   14  G14        -0.2693
    297   C8       60.0870  -16.1490    6.3300 C.ar   14  G14         0.1817
    298   N7       60.2230  -14.8870    6.6220 N.ar   14  G14        -0.2173
    299   C5       59.0690  -14.3210    6.1250 C.ar   14  G14         0.1748
    300   C6       58.6610  -12.9710    6.1540 C.ar   14  G14         0.3023
    301   O6       59.2690  -12.0030    6.6500 O.2    14  G14        -0.2633
    302   N.1      57.4180  -12.8070    5.5390 N.ar   14  G14        -0.1709
    303   C.2      56.6670  -13.8110    4.9810 C.ar   14  G14         0.2606
    304   N.2      55.4900  -13.4460    4.4500 N.pl3  14  G14        -0.0859
    305   N.3      57.0510  -15.0740    4.9470 N.ar   14  G14        -0.1918
    306   C4       58.2490  -15.2580    5.5410 C.ar   14  G14         0.1723
    307    P.3     60.3020  -18.1880    0.8580 P.3    15  G15         0.2141
    308  OP1       60.3380  -19.1530   -0.2600 O.2    15  G15        -0.5172
    309  OP2       61.4800  -17.3650    1.1830 O.3    15  G15        -0.4373
    310  O5'       59.1090  -17.1750    0.5640 O.3    15  G15        -0.3114
    311  C5'       57.8470  -17.6320    0.0890 C.3    15  G15         0.1812
    312  C4'       56.9440  -16.4670   -0.2080 C.3    15  G15         0.1773
    313  O4'       56.6400  -15.7730    1.0230 O.3    15  G15        -0.3307
    314  C3'       57.5510  -15.3870   -1.0810 C.3    15  G15         0.1860
    315  O3'       57.5320  -15.6890   -2.4580 O.3    15  G15        -0.3112
    316  C2'       56.7320  -14.1670   -0.7260 C.3    15  G15         0.2309
    317  O2'       55.4860  -14.1890   -1.3990 O.3    15  G15        -0.2156
    318  C1'       56.4720  -14.4000    0.7590 C.3    15  G15         0.2408
    319   N9       57.3640  -13.5960    1.6100 N.ar   15  G15        -0.2693
    320   C8       58.4380  -13.9900    2.3770 C.ar   15  G15         0.1817
    321   N7       58.9960  -12.9790    3.0070 N.ar   15  G15        -0.2173
    322   C5       58.2290  -11.8640    2.6300 C.ar   15  G15         0.1748
    323   C6       58.3230  -10.4890    2.9930 C.ar   15  G15         0.3023
    324   O6       59.1220   -9.9080    3.7330 O.2    15  G15        -0.2633
    325   N.1      57.3490   -9.7290    2.3790 N.ar   15  G15        -0.1709
    326   C.2      56.4040  -10.1960    1.5280 C.ar   15  G15         0.2606
    327   N.2      55.5950   -9.2300    1.0870 N.pl3  15  G15        -0.0859
    328   N.3      56.2720  -11.4680    1.1830 N.ar   15  G15        -0.1918
    329   C4       57.2170  -12.2340    1.7670 C.ar   15  G15         0.1723
    330    P.3     58.8380  -15.3620   -3.3290 P.3    16  C16         0.2141
    331  OP1       58.8580  -16.1730   -4.5650 O.2    16  C16        -0.5172
    332  OP2       60.0040  -15.5210   -2.4210 O.3    16  C16        -0.4373
    333  O5'       58.6520  -13.8240   -3.6930 O.3    16  C16        -0.3114
    334  C5'       57.4570  -13.3910   -4.3130 C.3    16  C16         0.1812
    335  C4'       57.2180  -11.9180   -4.1130 C.3    16  C16         0.1773
    336  O4'       56.9960  -11.6020   -2.7170 O.3    16  C16        -0.3307
    337  C3'       58.3410  -10.9860   -4.5110 C.3    16  C16         0.1860
    338  O3'       58.4650  -10.8540   -5.9020 O.3    16  C16        -0.3112
    339  C2'       57.9520   -9.7070   -3.7800 C.3    16  C16         0.2309
    340  O2'       56.9120   -9.0360   -4.4780 O.3    16  C16        -0.2156
    341  C1'       57.3860  -10.2630   -2.4600 C.3    16  C16         0.2420
    342   N.1      58.4190  -10.2890   -1.4160 N.ar   16  C16        -0.2535
    343   C.2      58.7580   -9.1300   -0.7130 C.ar   16  C16         0.3532
    344   O.2      58.1520   -8.0990   -0.9370 O.2    16  C16        -0.2443
    345   N.3      59.7310   -9.1440    0.2100 N.ar   16  C16        -0.1739
    346   C4       60.3550  -10.2890    0.4410 C.ar   16  C16         0.1759
    347   N.4      61.3100  -10.2750    1.3520 N.pl3  16  C16        -0.1070
    348   C5       60.0450  -11.4980   -0.2450 C.ar   16  C16         0.0566
    349   C6       59.0780  -11.4580   -1.1690 C.ar   16  C16         0.0850
    350    P.3     59.9090  -10.5380   -6.5500 P.3    17  G17         0.2141
    351  OP1       59.6900  -10.5700   -8.0140 O.2    17  G17        -0.5172
    352  OP2       60.9630  -11.4450   -6.0180 O.3    17  G17        -0.4373
    353  O5'       60.2430   -9.0490   -6.0460 O.3    17  G17        -0.3114
    354  C5'       59.5540   -7.9390   -6.5900 C.3    17  G17         0.1812
    355  C4'       59.8540   -6.6700   -5.8480 C.3    17  G17         0.1773
    356  O4'       59.4950   -6.8280   -4.4490 O.3    17  G17        -0.3307
    357  C3'       61.3000   -6.2280   -5.7950 C.3    17  G17         0.1860
    358  O3'       61.7700   -5.6310   -6.9940 O.3    17  G17        -0.3112
    359  C2'       61.3180   -5.3070   -4.5840 C.3    17  G17         0.2309
    360  O2'       60.7610   -4.0480   -4.8950 O.3    17  G17        -0.2156
    361  C1'       60.3530   -6.0390   -3.6480 C.3    17  G17         0.2408
    362   N9       61.1090   -6.9180   -2.7430 N.ar   17  G17        -0.2693
    363   C8       61.2930   -8.2790   -2.8000 C.ar   17  G17         0.1817
    364   N7       62.0820   -8.7160   -1.8480 N.ar   17  G17        -0.2173
    365   C5       62.4410   -7.5690   -1.1440 C.ar   17  G17         0.1748
    366   C6       63.2700   -7.3940   -0.0070 C.ar   17  G17         0.3023
    367   O6       63.8620   -8.2600    0.6280 O.2    17  G17        -0.2633
    368   N.1      63.3520   -6.0590    0.3840 N.ar   17  G17        -0.1709
    369   C.2      62.6930   -5.0420   -0.2480 C.ar   17  G17         0.2606
    370   N.2      62.8620   -3.8360    0.2550 N.pl3  17  G17        -0.0859
    371   N.3      61.9330   -5.1670   -1.3130 N.ar   17  G17        -0.1918
    372   C4       61.8530   -6.4530   -1.6980 C.ar   17  G17         0.1723
    373    P.3     63.2230   -6.0560   -7.5650 P.3    18  G18         0.2141
    374  OP1       63.3460   -5.5600   -8.9540 O.2    18  G18        -0.5172
    375  OP2       63.5050   -7.4850   -7.2640 O.3    18  G18        -0.4373
    376  O5'       64.2270   -5.1690   -6.7140 O.3    18  G18        -0.3114
    377  C5'       63.9810   -3.7820   -6.6090 C.3    18  G18         0.1812
    378  C4'       64.7380   -3.1500   -5.4840 C.3    18  G18         0.1773
    379  O4'       64.2780   -3.6780   -4.2180 O.3    18  G18        -0.3307
    380  C3'       66.2170   -3.4080   -5.4440 C.3    18  G18         0.1860
    381  O3'       66.9330   -2.6500   -6.4110 O.3    18  G18        -0.3112
    382  C2'       66.5480   -3.0460   -4.0030 C.3    18  G18         0.2309
    383  O2'       66.5280   -1.6390   -3.8550 O.3    18  G18        -0.2156
    384  C1'       65.3180   -3.5930   -3.2770 C.3    18  G18         0.2408
    385   N9       65.5590   -4.9330   -2.6990 N.ar   18  G18        -0.2693
    386   C8       65.2320   -6.1410   -3.2680 C.ar   18  G18         0.1817
    387   N7       65.5860   -7.1540   -2.5200 N.ar   18  G18        -0.2173
    388   C5       66.1840   -6.5870   -1.3850 C.ar   18  G18         0.1748
    389   C6       66.7710   -7.1950   -0.2310 C.ar   18  G18         0.3023
    390   O6       66.8790   -8.4070    0.0400 O.2    18  G18        -0.2633
    391   N.1      67.2610   -6.2520    0.6560 N.ar   18  G18        -0.1709
    392   C.2      67.1820   -4.8930    0.4670 C.ar   18  G18         0.2606
    393   N.2      67.6750   -4.1170    1.4500 N.pl3  18  G18        -0.0859
    394   N.3      66.6490   -4.3110   -0.6000 N.ar   18  G18        -0.1918
    395   C4       66.1750   -5.2130   -1.4890 C.ar   18  G18         0.1723
    396    P.3     67.8400   -3.3800   -7.5320 P.3    19  A19         0.2141
    397  OP1       68.1000   -2.3430   -8.5670 O.2    19  A19        -0.5172
    398  OP2       67.2410   -4.7010   -7.8740 O.3    19  A19        -0.4373
    399  O5'       69.2650   -3.5940   -6.8530 O.3    19  A19        -0.3114
    400  C5'       70.0120   -2.4740   -6.4200 C.3    19  A19         0.1812
    401  C4'       71.4210   -2.8290   -6.0000 C.3    19  A19         0.1773
    402  O4'       71.4290   -3.7010   -4.8650 O.3    19  A19        -0.3307
    403  C3'       72.2980   -3.5330   -7.0190 C.3    19  A19         0.1860
    404  O3'       72.9210   -2.5860   -7.8670 O.3    19  A19        -0.3112
    405  C2'       73.3120   -4.3210   -6.1640 C.3    19  A19         0.2309
    406  O2'       74.5740   -3.6780   -6.1150 O.3    19  A19        -0.2156
    407  C1'       72.6950   -4.2730   -4.7680 C.3    19  A19         0.2408
    408   N9       72.6890   -5.5570   -4.0540 N.ar   19  A19        -0.2693
    409   C8       72.3260   -6.7990   -4.4710 C.ar   19  A19         0.1816
    410   N7       72.5280   -7.6910   -3.5190 N.ar   19  A19        -0.2193
    411   C5       73.0710   -7.0010   -2.4350 C.ar   19  A19         0.1518
    412   C6       73.4990   -7.3880   -1.1350 C.ar   19  A19         0.1919
    413   N6       73.4420   -8.6380   -0.6670 N.pl3  19  A19        -0.1054
    414   N.1      73.9850   -6.4270   -0.3120 N.ar   19  A19        -0.2040
    415   C.2      74.0390   -5.1690   -0.7820 C.ar   19  A19         0.2016
    416   N.3      73.6720   -4.6880   -1.9650 N.ar   19  A19        -0.2048
    417   C4       73.1770   -5.6670   -2.7580 C.ar   19  A19         0.1692
    418    P.3     73.2130   -2.9290   -9.4050 P.3    20  U20         0.2141
    419  OP1       74.1850   -1.8950   -9.8640 O.3    20  U20        -0.4373
    420  OP2       71.8900   -3.0200  -10.0880 O.2    20  U20        -0.5172
    421  O5'       73.9230   -4.3730   -9.3470 O.3    20  U20        -0.3114
    422  C5'       74.3490   -5.0250  -10.5360 C.3    20  U20         0.1812
    423  C4'       75.1210   -6.2850  -10.2500 C.3    20  U20         0.1773
    424  O4'       76.5010   -5.9500  -10.0000 O.3    20  U20        -0.3307
    425  C3'       74.6770   -7.0530   -9.0170 C.3    20  U20         0.1860
    426  O3'       73.6040   -7.9410   -9.2850 O.3    20  U20        -0.3112
    427  C2'       75.9460   -7.7600   -8.5590 C.3    20  U20         0.2309
    428  O2'       76.1170   -9.0080   -9.2180 O.3    20  U20        -0.2156
    429  C1'       77.0380   -6.7960   -9.0150 C.3    20  U20         0.2420
    430   N.1      77.5040   -5.9500   -7.9160 N.ar   20  U20        -0.2534
    431   C.2      78.3050   -6.5410   -6.9750 C.ar   20  U20         0.3546
    432   O.2      78.6430   -7.7000   -7.0080 O.2    20  U20        -0.2443
    433   N.3      78.7020   -5.7000   -5.9810 N.ar   20  U20        -0.1530
    434   C4       78.3630   -4.3710   -5.8590 C.ar   20  U20         0.2846
    435   O4       78.8150   -3.7740   -4.8970 O.2    20  U20        -0.2650
    436   C5       77.5170   -3.8240   -6.8740 C.ar   20  U20         0.0814
    437   C6       77.1200   -4.6270   -7.8590 C.ar   20  U20         0.0870
    438    P.3     72.4840   -8.1810   -8.1580 P.3    21  U21         0.2141
    439  OP1       71.3930   -9.0540   -8.7010 O.2    21  U21        -0.5172
    440  OP2       72.1380   -6.8100   -7.6600 O.3    21  U21        -0.4373
    441  O5'       73.2850   -8.9520   -6.9990 O.3    21  U21        -0.3114
    442  C5'       73.8970  -10.2060   -7.2380 C.3    21  U21         0.1812
    443  C4'       74.6830  -10.6680   -6.0470 C.3    21  U21         0.1773
    444  O4'       75.7530   -9.7440   -5.7690 O.3    21  U21        -0.3307
    445  C3'       73.9420  -10.7610   -4.7230 C.3    21  U21         0.1860
    446  O3'       73.1460  -11.9210   -4.6340 O.3    21  U21        -0.3112
    447  C2'       75.0740  -10.7130   -3.6910 C.3    21  U21         0.2309
    448  O2'       75.6650  -11.9930   -3.5120 O.3    21  U21        -0.2156
    449  C1'       76.0990   -9.8150   -4.3980 C.3    21  U21         0.2420
    450   N.1      76.2410   -8.4370   -3.8390 N.ar   21  U21        -0.2534
    451   C.2      76.8940   -8.3040   -2.6280 C.ar   21  U21         0.3546
    452   O.2      77.2930   -9.2670   -2.0090 O.2    21  U21        -0.2443
    453   N.3      77.0700   -7.0270   -2.1490 N.ar   21  U21        -0.1530
    454   C4       76.6780   -5.8560   -2.7820 C.ar   21  U21         0.2846
    455   O4       76.9170   -4.7560   -2.2490 O.2    21  U21        -0.2650
    456   C5       76.0130   -6.0700   -4.0430 C.ar   21  U21         0.0814
    457   C6       75.8280   -7.3090   -4.5160 C.ar   21  U21         0.0870
    458    P.3     71.7480  -11.8620   -3.8720 P.3    22  A22         0.2141
    459  OP1       70.7160  -12.6720   -4.5750 O.2    22  A22        -0.5172
    460  OP2       71.4390  -10.4570   -3.5540 O.3    22  A22        -0.4373
    461  O5'       72.0730  -12.6300   -2.5260 O.3    22  A22        -0.3114
    462  C5'       72.5920  -11.9280   -1.4120 C.3    22  A22         0.1812
    463  C4'       71.7840  -12.2380   -0.1860 C.3    22  A22         0.1773
    464  O4'       71.8410  -11.0990    0.7080 O.3    22  A22        -0.3307
    465  C3'       70.3110  -12.5070   -0.4430 C.3    22  A22         0.1860
    466  O3'       69.8630  -13.4410    0.5400 O.3    22  A22        -0.3112
    467  C2'       69.6730  -11.1470   -0.1910 C.3    22  A22         0.2309
    468  O2'       68.3050  -11.2280    0.1800 O.3    22  A22        -0.2156
    469  C1'       70.5470  -10.5990    0.9440 C.3    22  A22         0.2408
    470   N9       70.6990   -9.1390    1.0120 N.ar   22  A22        -0.2693
    471   C8       70.3440   -8.1540    0.1160 C.ar   22  A22         0.1816
    472   N7       70.6490   -6.9180    0.4810 N.ar   22  A22        -0.2193
    473   C5       71.2770   -7.1100    1.7060 C.ar   22  A22         0.1518
    474   C6       71.8580   -6.1970    2.6230 C.ar   22  A22         0.1919
    475   N6       71.8870   -4.8910    2.4120 N.pl3  22  A22        -0.1054
    476   N.1      72.3940   -6.6850    3.7690 N.ar   22  A22        -0.2040
    477   C.2      72.3560   -8.0180    3.9440 C.ar   22  A22         0.2016
    478   N.3      71.8480   -8.9750    3.1480 N.ar   22  A22        -0.2048
    479   C4       71.3100   -8.4620    2.0340 C.ar   22  A22         0.1692
    480    P.3     68.8760  -14.6560    0.1550 P.3    23  G23         0.2141
    481  OP1       68.2230  -14.3420   -1.1590 O.2    23  G23        -0.5172
    482  OP2       68.0710  -14.9830    1.3660 O.3    23  G23        -0.4373
    483  O5'       69.8490  -15.8760   -0.1580 O.3    23  G23        -0.3114
    484  C5'       70.3820  -16.0230   -1.4630 C.3    23  G23         0.1812
    485  C4'       70.9410  -17.3990   -1.7030 C.3    23  G23         0.1773
    486  O4'       71.2080  -18.0890   -0.4530 O.3    23  G23        -0.3307
    487  C3'       70.0400  -18.3880   -2.4140 C.3    23  G23         0.1860
    488  O3'       69.6620  -18.0830   -3.7630 O.3    23  G23        -0.3112
    489  C2'       70.7960  -19.6790   -2.1310 C.3    23  G23         0.2309
    490  O2'       72.0910  -19.6650   -2.7270 O.3    23  G23        -0.2156
    491  C1'       71.0280  -19.4900   -0.6440 C.3    23  G23         0.2408
    492   N9       69.8420  -19.9530    0.1040 N.ar   23  G23        -0.2693
    493   C8       68.8120  -19.1850    0.5780 C.ar   23  G23         0.1817
    494   N7       67.8770  -19.8810    1.1830 N.ar   23  G23        -0.2173
    495   C5       68.2900  -21.1940    1.1010 C.ar   23  G23         0.1748
    496   C6       67.6690  -22.3860    1.5890 C.ar   23  G23         0.3023
    497   O6       66.6030  -22.4950    2.2030 O.2    23  G23        -0.2633
    498   N.1      68.3950  -23.5390    1.2950 N.ar   23  G23        -0.1709
    499   C.2      69.5800  -23.5000    0.6060 C.ar   23  G23         0.2606
    500   N.2      70.1750  -24.6770    0.3960 N.pl3  23  G23        -0.0859
    501   N.3      70.1700  -22.3900    0.1630 N.ar   23  G23        -0.1918
    502   C4       69.4910  -21.2600    0.4330 C.ar   23  G23         0.1723
    503    P.3     70.5410  -18.5300   -5.0260 P.3    24  U24         0.2141
    504  OP1       71.9690  -18.2500   -4.6690 O.3    24  U24        -0.4373
    505  OP2       70.0450  -17.8150   -6.2300 O.2    24  U24        -0.5172
    506  O5'       70.2750  -20.1100   -5.1190 O.3    24  U24        -0.3114
    507  C5'       71.3240  -20.9810   -5.5210 C.3    24  U24         0.1812
    508  C4'       70.9910  -22.4390   -5.3370 C.3    24  U24         0.1773
    509  O4'       70.7810  -22.7630   -3.9370 O.3    24  U24        -0.3307
    510  C3'       69.7340  -22.9460   -5.9940 C.3    24  U24         0.1860
    511  O3'       69.8540  -23.0860   -7.3880 O.3    24  U24        -0.3112
    512  C2'       69.4970  -24.2590   -5.2620 C.3    24  U24         0.2309
    513  O2'       70.3850  -25.2690   -5.7280 O.3    24  U24        -0.2156
    514  C1'       69.9100  -23.8740   -3.8410 C.3    24  U24         0.2420
    515   N.1      68.7420  -23.4890   -3.0270 N.ar   24  U24        -0.2534
    516   C.2      67.9350  -24.4820   -2.4730 C.ar   24  U24         0.3546
    517   O.2      68.1360  -25.6920   -2.6020 O.2    24  U24        -0.2443
    518   N.3      66.8610  -24.0180   -1.7390 N.ar   24  U24        -0.1530
    519   C4       66.5250  -22.6980   -1.5220 C.ar   24  U24         0.2846
    520   O4       65.5340  -22.4000   -0.8400 O.2    24  U24        -0.2650
    521   C5       67.4230  -21.7600   -2.1390 C.ar   24  U24         0.0814
    522   C6       68.4720  -22.1650   -2.8550 C.ar   24  U24         0.0870
    523    P.3     68.5600  -22.8400   -8.2950 P.3    25  G25         0.2141
    524  OP1       69.0770  -22.8180   -9.6960 O.2    25  G25        -0.5172
    525  OP2       67.8610  -21.6160   -7.7850 O.3    25  G25        -0.4373
    526  O5'       67.6610  -24.1430   -8.0290 O.3    25  G25        -0.3114
    527  C5'       68.1270  -25.4260   -8.4250 C.3    25  G25         0.1812
    528  C4'       67.2890  -26.5590   -7.8730 C.3    25  G25         0.1773
    529  O4'       67.3930  -26.6210   -6.4280 O.3    25  G25        -0.3307
    530  C3'       65.7860  -26.5060   -8.1170 C.3    25  G25         0.1860
    531  O3'       65.4130  -26.8800   -9.4250 O.3    25  G25        -0.3112
    532  C2'       65.2690  -27.4580   -7.0620 C.3    25  G25         0.2309
    533  O2'       65.5630  -28.7780   -7.4570 O.3    25  G25        -0.2156
    534  C1'       66.1750  -27.1090   -5.8830 C.3    25  G25         0.2408
    535   N9       65.5560  -26.0590   -5.0510 N.ar   25  G25        -0.2693
    536   C8       65.7820  -24.7090   -5.1320 C.ar   25  G25         0.1817
    537   N7       65.0730  -23.9890   -4.3060 N.ar   25  G25        -0.2173
    538   C5       64.3240  -24.9450   -3.6560 C.ar   25  G25         0.1748
    539   C6       63.3630  -24.7470   -2.6340 C.ar   25  G25         0.3023
    540   O6       63.0350  -23.6500   -2.1430 O.2    25  G25        -0.2633
    541   N.1      62.7900  -25.9580   -2.2130 N.ar   25  G25        -0.1709
    542   C.2      63.1330  -27.1970   -2.7120 C.ar   25  G25         0.2606
    543   N.2      62.4810  -28.2240   -2.1590 N.pl3  25  G25        -0.0859
    544   N.3      64.0490  -27.3940   -3.6670 N.ar   25  G25        -0.1918
    545   C4       64.5970  -26.2280   -4.0930 C.ar   25  G25         0.1723
    546    P.3     64.1070  -26.2220  -10.1070 P.3    26  G26         0.2141
    547  OP1       64.0880  -26.7580  -11.4900 O.2    26  G26        -0.5172
    548  OP2       64.0850  -24.7420   -9.9580 O.3    26  G26        -0.4373
    549  O5'       62.8860  -26.8290   -9.2640 O.3    26  G26        -0.3114
    550  C5'       62.6020  -28.2140   -9.3190 C.3    26  G26         0.1812
    551  C4'       61.5770  -28.6540   -8.3050 C.3    26  G26         0.1773
    552  O4'       62.0490  -28.3990   -6.9440 O.3    26  G26        -0.3307
    553  C3'       60.2070  -27.9950   -8.3540 C.3    26  G26         0.1860
    554  O3'       59.3870  -28.5050   -9.3960 O.3    26  G26        -0.3112
    555  C2'       59.6640  -28.2860   -6.9540 C.3    26  G26         0.2309
    556  O2'       59.1940  -29.6300   -6.8400 O.3    26  G26        -0.2156
    557  C1'       60.9410  -28.1120   -6.1060 C.3    26  G26         0.2408
    558   N9       61.0360  -26.7050   -5.6470 N.ar   26  G26        -0.2693
    559   C8       61.7910  -25.6990   -6.2170 C.ar   26  G26         0.1817
    560   N7       61.6280  -24.5350   -5.6490 N.ar   26  G26        -0.2173
    561   C5       60.6880  -24.7920   -4.6480 C.ar   26  G26         0.1748
    562   C6       60.1110  -23.9040   -3.6930 C.ar   26  G26         0.3023
    563   O6       60.3510  -22.6890   -3.5700 O.2    26  G26        -0.2633
    564   N.1      59.1970  -24.5350   -2.8360 N.ar   26  G26        -0.1709
    565   C.2      58.8710  -25.8660   -2.9030 C.ar   26  G26         0.2606
    566   N.2      57.9660  -26.2690   -1.9890 N.pl3  26  G26        -0.0859
    567   N.3      59.3990  -26.7160   -3.7950 N.ar   26  G26        -0.1918
    568   C4       60.2970  -26.1170   -4.6320 C.ar   26  G26         0.1723
    569    P.3     58.4000  -27.5570  -10.2570 P.3    27  G27         0.2141
    570  OP1       58.1330  -28.3070  -11.5090 O.2    27  G27        -0.5172
    571  OP2       58.8770  -26.1650  -10.4080 O.3    27  G27        -0.4373
    572  O5'       57.0630  -27.4990   -9.4070 O.3    27  G27        -0.3114
    573  C5'       56.2560  -28.6460   -9.2700 C.3    27  G27         0.1812
    574  C4'       55.4250  -28.5830   -8.0210 C.3    27  G27         0.1773
    575  O4'       56.2770  -28.4440   -6.8540 O.3    27  G27        -0.3307
    576  C3'       54.4460  -27.4240   -7.8810 C.3    27  G27         0.1860
    577  O3'       53.2570  -27.5840   -8.6220 O.3    27  G27        -0.3112
    578  C2'       54.1710  -27.4590   -6.3960 C.3    27  G27         0.2309
    579  O2'       53.3680  -28.5870   -6.0870 O.3    27  G27        -0.2156
    580  C1'       55.5730  -27.7250   -5.8510 C.3    27  G27         0.2408
    581   N9       56.2140  -26.4250   -5.6090 N.ar   27  G27        -0.2693
    582   C8       57.2090  -25.8130   -6.3260 C.ar   27  G27         0.1817
    583   N7       57.4820  -24.6290   -5.8620 N.ar   27  G27        -0.2173
    584   C5       56.6090  -24.4520   -4.7900 C.ar   27  G27         0.1748
    585   C6       56.4410  -23.3530   -3.9080 C.ar   27  G27         0.3023
    586   O6       57.0690  -22.2760   -3.8980 O.2    27  G27        -0.2633
    587   N.1      55.4330  -23.5870   -2.9730 N.ar   27  G27        -0.1709
    588   C.2      54.6880  -24.7300   -2.8820 C.ar   27  G27         0.2606
    589   N.2      53.7630  -24.7660   -1.8970 N.pl3  27  G27        -0.0859
    590   N.3      54.8390  -25.7490   -3.7120 N.ar   27  G27        -0.1918
    591   C4       55.8050  -25.5420   -4.6310 C.ar   27  G27         0.1723
    592    P.3     53.1400  -27.1400  -10.1700 P.3    28  A28         0.2141
    593  OP1       52.5080  -28.3010  -10.8740 O.2    28  A28        -0.5172
    594  OP2       54.4070  -26.5690  -10.7080 O.3    28  A28        -0.4373
    595  O5'       52.0870  -25.9520  -10.1310 O.3    28  A28        -0.3114
    596  C5'       52.4640  -24.6680   -9.6640 C.3    28  A28         0.1812
    597  C4'       51.2580  -23.9110   -9.1780 C.3    28  A28         0.1773
    598  O4'       50.0990  -24.7560   -9.3710 O.3    28  A28        -0.3307
    599  C3'       51.2490  -23.5840   -7.6930 C.3    28  A28         0.1860
    600  O3'       51.9370  -22.3710   -7.3710 O.3    28  A28        -0.3112
    601  C2'       49.7660  -23.5740   -7.3470 C.3    28  A28         0.2309
    602  O2'       49.1820  -22.3440   -7.7440 O.3    28  A28        -0.2156
    603  C1'       49.2360  -24.6650   -8.2670 C.3    28  A28         0.2408
    604   N9       49.1570  -26.0050   -7.6430 N.ar   28  A28        -0.2693
    605   C8       49.8510  -27.1310   -8.0460 C.ar   28  A28         0.1816
    606   N7       49.5820  -28.2130   -7.3550 N.ar   28  A28        -0.2193
    607   C5       48.6330  -27.7670   -6.4510 C.ar   28  A28         0.1518
    608   C6       47.9520  -28.4360   -5.4300 C.ar   28  A28         0.1919
    609   N6       48.1340  -29.7300   -5.1830 N.pl3  28  A28        -0.1054
    610   N.1      47.0710  -27.7340   -4.6770 N.ar   28  A28        -0.2040
    611   C.2      46.8970  -26.4300   -4.9590 C.ar   28  A28         0.2016
    612   N.3      47.4850  -25.6740   -5.8940 N.ar   28  A28        -0.2048
    613   C4       48.3500  -26.4180   -6.6120 C.ar   28  A28         0.1692
    614    P.3     53.1180  -22.3950   -6.2760 P.3    29  A29         0.2141
    615  OP1       53.8150  -21.0830   -6.2110 O.3    29  A29        -0.4373
    616  OP2       54.0110  -23.5500   -6.6220 O.2    29  A29        -0.5172
    617  O5'       52.3180  -22.6840   -4.9260 O.3    29  A29        -0.3114
    618  C5'       51.5850  -21.6600   -4.2890 C.3    29  A29         0.1812
    619  C4'       50.6590  -22.1700   -3.2060 C.3    29  A29         0.1773
    620  O4'       49.9350  -23.3660   -3.5910 O.3    29  A29        -0.3307
    621  C3'       51.2360  -22.5830   -1.8720 C.3    29  A29         0.1860
    622  O3'       51.8000  -21.5340   -1.1260 O.3    29  A29        -0.3112
    623  C2'       50.0250  -23.2420   -1.2080 C.3    29  A29         0.2309
    624  O2'       49.1380  -22.2530   -0.7020 O.3    29  A29        -0.2156
    625  C1'       49.3510  -23.9190   -2.4160 C.3    29  A29         0.2408
    626   N9       49.3810  -25.4080   -2.3820 N.ar   29  A29        -0.2693
    627   C8       48.6210  -26.2560   -1.5600 C.ar   29  A29         0.1816
    628   N7       48.8090  -27.5570   -1.6990 N.ar   29  A29        -0.2193
    629   C5       49.7730  -27.5670   -2.6910 C.ar   29  A29         0.1518
    630   C6       50.4320  -28.6460   -3.3040 C.ar   29  A29         0.1919
    631   N6       50.1970  -29.9230   -2.9890 N.pl3  29  A29        -0.1054
    632   N.1      51.3540  -28.3280   -4.2550 N.ar   29  A29        -0.2040
    633   C.2      51.5620  -27.0140   -4.5420 C.ar   29  A29         0.2016
    634   N.3      51.0270  -25.9000   -4.0480 N.ar   29  A29        -0.2048
    635   C4       50.1370  -26.2670   -3.1150 C.ar   29  A29         0.1692
    636    P.3     53.3150  -21.7040   -0.6190 P.3    30  A30         0.2141
    637  OP1       54.2470  -21.7210   -1.8030 O.2    30  A30        -0.5172
    638  OP2       53.3360  -22.8040    0.3800 O.3    30  A30        -0.4373
    639  O5'       53.5800  -20.3450    0.1480 O.3    30  A30        -0.3114
    640  C5'       52.9400  -20.0830    1.3730 C.3    30  A30         0.1812
    641  C4'       53.7210  -19.0610    2.1170 C.3    30  A30         0.1773
    642  O4'       53.4280  -17.7440    1.6000 O.3    30  A30        -0.3307
    643  C3'       53.4390  -18.9680    3.5960 C.3    30  A30         0.1860
    644  O3'       54.1700  -19.9750    4.2700 O.3    30  A30        -0.3112
    645  C2'       53.8890  -17.5420    3.9280 C.3    30  A30         0.2309
    646  O2'       55.2940  -17.4930    4.1290 O.3    30  A30        -0.2156
    647  C1'       53.5720  -16.7910    2.6250 C.3    30  A30         0.2408
    648   N9       52.3410  -15.9900    2.6930 N.ar   30  A30        -0.2693
    649   C8       51.0580  -16.3990    2.8890 C.ar   30  A30         0.1816
    650   N7       50.2000  -15.4130    2.8710 N.ar   30  A30        -0.2193
    651   C5       50.9690  -14.2830    2.6380 C.ar   30  A30         0.1518
    652   C6       50.6900  -12.9080    2.5030 C.ar   30  A30         0.1919
    653   N6       49.4790  -12.3680    2.6010 N.pl3  30  A30        -0.1054
    654   N.1      51.7080  -12.0500    2.2980 N.ar   30  A30        -0.2040
    655   C.2      52.9380  -12.5340    2.2120 C.ar   30  A30         0.2016
    656   N.3      53.3170  -13.8100    2.3140 N.ar   30  A30        -0.2048
    657   C4       52.2840  -14.6400    2.5230 C.ar   30  A30         0.1692
    658    P.3     54.2430  -20.0990    5.8770 P.3    31  C31         0.2141
    659  OP1       53.0440  -19.4900    6.5310 O.3    31  C31        -0.4373
    660  OP2       55.6110  -19.6370    6.2430 O.2    31  C31        -0.5172
    661  O5'       54.2510  -21.6760    6.1070 O.3    31  C31        -0.3114
    662  C5'       55.3810  -22.4320    5.6920 C.3    31  C31         0.1812
    663  C4'       55.0510  -23.5260    4.7080 C.3    31  C31         0.1773
    664  O4'       54.9340  -22.9860    3.3730 O.3    31  C31        -0.3307
    665  C3'       56.1120  -24.6080    4.5720 C.3    31  C31         0.1860
    666  O3'       55.9950  -25.5800    5.5920 O.3    31  C31        -0.3112
    667  C2'       55.8620  -25.1740    3.1750 C.3    31  C31         0.2309
    668  O2'       54.8390  -26.1560    3.1930 O.3    31  C31        -0.2156
    669  C1'       55.3460  -23.9500    2.4200 C.3    31  C31         0.2420
    670   N.1      56.3580  -23.3550    1.5200 N.ar   31  C31        -0.2535
    671   C.2      56.7990  -24.0740    0.4130 C.ar   31  C31         0.3532
    672   O.2      56.3460  -25.2030    0.2010 O.2    31  C31        -0.2443
    673   N.3      57.7260  -23.5290   -0.4170 N.ar   31  C31        -0.1739
    674   C4       58.1940  -22.2970   -0.1750 C.ar   31  C31         0.1759
    675   N.4      59.0980  -21.7960   -1.0120 N.pl3  31  C31        -0.1070
    676   C5       57.7630  -21.5270    0.9480 C.ar   31  C31         0.0566
    677   C6       56.8440  -22.0970    1.7550 C.ar   31  C31         0.0850
    678    P.3     57.2630  -26.3900    6.1380 P.3    32  C32         0.2141
    679  OP1       56.6650  -27.1920    7.2510 O.3    32  C32        -0.4373
    680  OP2       58.4060  -25.4800    6.3440 O.2    32  C32        -0.5172
    681  O5'       57.7240  -27.3450    4.9390 O.3    32  C32        -0.3114
    682  C5'       57.0340  -28.5600    4.6690 C.3    32  C32         0.1812
    683  C4'       57.7490  -29.3790    3.6220 C.3    32  C32         0.1773
    684  O4'       57.6850  -28.6980    2.3460 O.3    32  C32        -0.3307
    685  C3'       59.2300  -29.5970    3.8430 C.3    32  C32         0.1860
    686  O3'       59.4780  -30.6380    4.7700 O.3    32  C32        -0.3112
    687  C2'       59.7540  -29.8570    2.4210 C.3    32  C32         0.2309
    688  O2'       59.4670  -31.1730    1.9700 O.3    32  C32        -0.2156
    689  C1'       58.8660  -28.9290    1.6080 C.3    32  C32         0.2420
    690   N.1      59.5070  -27.6360    1.2690 N.ar   32  C32        -0.2535
    691   C.2      60.3630  -27.6620    0.1790 C.ar   32  C32         0.3532
    692   O.2      60.5500  -28.7500   -0.3770 O.2    32  C32        -0.2443
    693   N.3      60.9770  -26.5330   -0.2380 N.ar   32  C32        -0.1739
    694   C4       60.7490  -25.3860    0.3990 C.ar   32  C32         0.1759
    695   N.4      61.4000  -24.3100   -0.0420 N.pl3  32  C32        -0.1070
    696   C5       59.8500  -25.3250    1.5140 C.ar   32  C32         0.0566
    697   C6       59.2540  -26.4630    1.9210 C.ar   32  C32         0.0850
    698    P.3     60.8300  -30.6710    5.6410 P.3    33  A33         0.2141
    699  OP1       60.7400  -31.9750    6.3520 O.2    33  A33        -0.5172
    700  OP2       61.0220  -29.4420    6.4460 O.3    33  A33        -0.4373
    701  O5'       61.9850  -30.8710    4.5670 O.3    33  A33        -0.3114
    702  C5'       62.2050  -32.1820    4.0770 C.3    33  A33         0.1812
    703  C4'       63.2110  -32.2160    2.9750 C.3    33  A33         0.1773
    704  O4'       62.8480  -31.2590    1.9580 O.3    33  A33        -0.3307
    705  C3'       64.5920  -31.7880    3.3710 C.3    33  A33         0.1860
    706  O3'       65.2820  -32.7870    4.0930 O.3    33  A33        -0.3112
    707  C2'       65.2190  -31.3570    2.0420 C.3    33  A33         0.2309
    708  O2'       65.6470  -32.4640    1.2730 O.3    33  A33        -0.2156
    709  C1'       64.0130  -30.7580    1.3360 C.3    33  A33         0.2408
    710   N9       63.9590  -29.2760    1.3630 N.ar   33  A33        -0.2693
    711   C8       63.1060  -28.5190    2.1380 C.ar   33  A33         0.1816
    712   N7       63.2210  -27.2220    1.9350 N.ar   33  A33        -0.2193
    713   C5       64.1820  -27.1280    0.9460 C.ar   33  A33         0.1518
    714   C6       64.7270  -26.0120    0.2990 C.ar   33  A33         0.1919
    715   N6       64.3580  -24.7620    0.5700 N.pl3  33  A33        -0.1054
    716   N.1      65.6790  -26.2280   -0.6330 N.ar   33  A33        -0.2040
    717   C.2      66.0100  -27.5030   -0.8850 C.ar   33  A33         0.2016
    718   N.3      65.5540  -28.6360   -0.3340 N.ar   33  A33        -0.2048
    719   C4       64.6440  -28.3740    0.5890 C.ar   33  A33         0.1692
    720    P.3     66.0680  -32.3630    5.4230 P.3    34  C34         0.2141
    721  OP1       66.5100  -33.6500    6.0500 O.2    34  C34        -0.5172
    722  OP2       65.1870  -31.4850    6.2520 O.3    34  C34        -0.4373
    723  O5'       67.3370  -31.5820    4.8270 O.3    34  C34        -0.3114
    724  C5'       68.2240  -32.2950    3.9860 C.3    34  C34         0.1812
    725  C4'       69.0980  -31.4100    3.1480 C.3    34  C34         0.1773
    726  O4'       68.3060  -30.6500    2.2120 O.3    34  C34        -0.3307
    727  C3'       69.9030  -30.3630    3.8800 C.3    34  C34         0.1860
    728  O3'       71.0480  -30.9110    4.4920 O.3    34  C34        -0.3112
    729  C2'       70.2250  -29.3760    2.7720 C.3    34  C34         0.2309
    730  O2'       71.2700  -29.8690    1.9500 O.3    34  C34        -0.2156
    731  C1'       68.9130  -29.3950    1.9840 C.3    34  C34         0.2420
    732   N.1      67.9890  -28.3160    2.4550 N.ar   34  C34        -0.2535
    733   C.2      68.1420  -27.0120    1.9400 C.ar   34  C34         0.3532
    734   O.2      69.0170  -26.8200    1.0840 O.2    34  C34        -0.2443
    735   N.3      67.3460  -26.0000    2.3670 N.ar   34  C34        -0.1739
    736   C4       66.4070  -26.2610    3.2860 C.ar   34  C34         0.1759
    737   N.4      65.6200  -25.2530    3.6910 N.pl3  34  C34        -0.1070
    738   C5       66.2190  -27.5740    3.8190 C.ar   34  C34         0.0566
    739   C6       67.0160  -28.5550    3.3910 C.ar   34  C34         0.0850
    740    P.3     71.6530  -30.2210    5.8030 P.3    35  G35         0.2141
    741  OP1       72.8410  -31.0330    6.2110 O.2    35  G35        -0.5172
    742  OP2       70.5510  -30.0620    6.7970 O.3    35  G35        -0.4373
    743  O5'       72.1130  -28.7770    5.2770 O.3    35  G35        -0.3114
    744  C5'       73.3240  -28.5820    4.5750 C.3    35  G35         0.1812
    745  C4'       73.3730  -27.2110    3.9470 C.3    35  G35         0.1773
    746  O4'       72.1010  -26.9300    3.3140 O.3    35  G35        -0.3307
    747  C3'       73.5710  -26.0180    4.8670 C.3    35  G35         0.1860
    748  O3'       74.9170  -25.7940    5.2090 O.3    35  G35        -0.3112
    749  C2'       73.0040  -24.8670    4.0450 C.3    35  G35         0.2309
    750  O2'       73.9160  -24.4730    3.0320 O.3    35  G35        -0.2156
    751  C1'       71.8180  -25.5410    3.3840 C.3    35  G35         0.2408
    752   N9       70.5840  -25.3390    4.1590 N.ar   35  G35        -0.2693
    753   C8       69.7950  -26.2650    4.8170 C.ar   35  G35         0.1817
    754   N7       68.7580  -25.7350    5.4110 N.ar   35  G35        -0.2173
    755   C5       68.8900  -24.3690    5.1020 C.ar   35  G35         0.1748
    756   C6       68.0840  -23.2510    5.4300 C.ar   35  G35         0.3023
    757   O6       67.0400  -23.2680    6.1030 O.2    35  G35        -0.2633
    758   N.1      68.5860  -22.0540    4.8980 N.ar   35  G35        -0.1709
    759   C.2      69.7300  -21.9220    4.1420 C.ar   35  G35         0.2606
    760   N.2      70.1030  -20.6960    3.6970 N.pl3  35  G35        -0.0859
    761   N.3      70.4880  -22.9620    3.8450 N.ar   35  G35        -0.1918
    762   C4       70.0110  -24.1220    4.3460 C.ar   35  G35         0.1723
    763    P.3     75.2840  -25.3080    6.6890 P.3    36  U36         0.2141
    764  OP1       76.7710  -25.2200    6.6770 O.2    36  U36        -0.5172
    765  OP2       74.5040  -26.1930    7.6390 O.3    36  U36        -0.4373
    766  O5'       74.7430  -23.8060    6.7840 O.3    36  U36        -0.3114
    767  C5'       75.3860  -22.7330    6.1060 C.3    36  U36         0.1812
    768  C4'       74.5640  -21.4560    6.1620 C.3    36  U36         0.1773
    769  O4'       73.2160  -21.7100    5.6770 O.3    36  U36        -0.3307
    770  C3'       74.3260  -20.8380    7.5300 C.3    36  U36         0.1860
    771  O3'       75.4280  -20.0840    8.0200 O.3    36  U36        -0.3112
    772  C2'       73.0800  -20.0020    7.2800 C.3    36  U36         0.2309
    773  O2'       73.4090  -18.8890    6.4580 O.3    36  U36        -0.2156
    774  C1'       72.2900  -20.9450    6.4040 C.3    36  U36         0.2420
    775   N.1      71.4350  -21.8790    7.1600 N.ar   36  U36        -0.2534
    776   C.2      70.2700  -21.4410    7.7620 C.ar   36  U36         0.3546
    777   O.2      69.9000  -20.2710    7.7780 O.2    36  U36        -0.2443
    778   N.3      69.5430  -22.4220    8.3780 N.ar   36  U36        -0.1530
    779   C4       69.8490  -23.7460    8.4620 C.ar   36  U36         0.2846
    780   O4       69.1020  -24.5260    9.0540 O.2    36  U36        -0.2650
    781   C5       71.0470  -24.1050    7.8050 C.ar   36  U36         0.0814
    782   C6       71.7690  -23.1910    7.1830 C.ar   36  U36         0.0870
    783    P.3     75.7880  -20.1640    9.5790 P.3    37  G37         0.2141
    784  OP1       77.2520  -19.8510    9.6320 O.2    37  G37        -0.5172
    785  OP2       75.1510  -21.4010   10.1260 O.3    37  G37        -0.4373
    786  O5'       74.9010  -19.0340   10.2950 O.3    37  G37        -0.3114
    787  C5'       74.5990  -17.7760    9.6860 C.3    37  G37         0.1812
    788  C4'       73.3080  -17.2040   10.2260 C.3    37  G37         0.1773
    789  O4'       72.1740  -17.9440    9.6990 O.3    37  G37        -0.3307
    790  C3'       73.1190  -17.3030   11.7290 C.3    37  G37         0.1860
    791  O3'       73.8250  -16.3140   12.4590 O.3    37  G37        -0.3112
    792  C2'       71.6020  -17.2230   11.8860 C.3    37  G37         0.2309
    793  O2'       71.1530  -15.8950   11.7500 O.3    37  G37        -0.2156
    794  C1'       71.1310  -17.9800   10.6600 C.3    37  G37         0.2408
    795   N9       70.7580  -19.3820   10.9430 N.ar   37  G37        -0.2693
    796   C8       71.5260  -20.4540   10.6340 C.ar   37  G37         0.1817
    797   N7       70.9430  -21.5770   10.9470 N.ar   37  G37        -0.2173
    798   C5       69.7150  -21.2430   11.4900 C.ar   37  G37         0.1748
    799   C6       68.6610  -22.0840   12.0030 C.ar   37  G37         0.3023
    800   O6       68.6010  -23.3300   12.0820 O.2    37  G37        -0.2633
    801   N.1      67.5830  -21.3260   12.4600 N.ar   37  G37        -0.1709
    802   C.2      67.5560  -19.9470   12.4380 C.ar   37  G37         0.2606
    803   N.2      66.4450  -19.3780   12.9280 N.pl3  37  G37        -0.0859
    804   N.3      68.5380  -19.1720   11.9660 N.ar   37  G37        -0.1918
    805   C4       69.5890  -19.8760   11.4920 C.ar   37  G37         0.1723
    806    P.3     74.0240  -16.4520   14.0520 P.3    38  G38         0.2141
    807  OP1       74.2500  -15.0610   14.5880 O.3    38  G38        -0.4373
    808  OP2       75.0150  -17.5430   14.2910 O.2    38  G38        -0.5172
    809  O5'       72.6150  -16.9570   14.6090 O.3    38  G38        -0.3114
    810  C5'       71.7930  -16.0840   15.3680 C.3    38  G38         0.1812
    811  C4'       70.4990  -16.7620   15.7130 C.3    38  G38         0.1773
    812  O4'       70.1950  -17.7020   14.6570 O.3    38  G38        -0.3307
    813  C3'       70.5330  -17.6140   16.9630 C.3    38  G38         0.1860
    814  O3'       70.3400  -16.8560   18.1470 O.3    38  G38        -0.3112
    815  C2'       69.4640  -18.6790   16.6860 C.3    38  G38         0.2309
    816  O2'       68.1440  -18.2000   16.8910 O.3    38  G38        -0.2156
    817  C1'       69.6430  -18.8870   15.1940 C.3    38  G38         0.2408
    818   N9       70.5460  -20.0150   14.8760 N.ar   38  G38        -0.2693
    819   C8       71.8330  -19.9330   14.3800 C.ar   38  G38         0.1817
    820   N7       72.3690  -21.1110   14.1570 N.ar   38  G38        -0.2173
    821   C5       71.3810  -22.0210   14.5280 C.ar   38  G38         0.1748
    822   C6       71.3890  -23.4420   14.5170 C.ar   38  G38         0.3023
    823   O6       72.3130  -24.2120   14.1640 O.2    38  G38        -0.2633
    824   N.1      70.1570  -23.9440   14.9740 N.ar   38  G38        -0.1709
    825   C.2      69.0690  -23.1970   15.3920 C.ar   38  G38         0.2606
    826   N.2      67.9660  -23.8730   15.7960 N.pl3  38  G38        -0.0859
    827   N.3      69.0800  -21.8690   15.4100 N.ar   38  G38        -0.1918
    828   C4       70.2480  -21.3600   14.9690 C.ar   38  G38         0.1723
    829    P.3     71.5970  -16.2360   18.9580 P.3    39  A39         0.2141
    830  OP1       71.8790  -14.8830   18.3780 O.2    39  A39        -0.5172
    831  OP2       72.7280  -17.2170   18.9750 O.3    39  A39        -0.4373
    832  O5'       71.0340  -16.1680   20.4600 O.3    39  A39        -0.3114
    833  C5'       70.0850  -15.1860   20.8650 C.3    39  A39         0.1812
    834  C4'       68.6720  -15.7170   21.0300 C.3    39  A39         0.1773
    835  O4'       68.3280  -16.6650   19.9960 O.3    39  A39        -0.3307
    836  C3'       68.3130  -16.4780   22.2850 C.3    39  A39         0.1860
    837  O3'       68.2620  -15.6910   23.4590 O.3    39  A39        -0.3112
    838  C2'       66.9680  -17.0910   21.9000 C.3    39  A39         0.2309
    839  O2'       65.9330  -16.1150   21.9420 O.3    39  A39        -0.2156
    840  C1'       67.2180  -17.4350   20.4320 C.3    39  A39         0.2408
    841   N9       67.4440  -18.8810   20.2010 N.ar   39  A39        -0.2693
    842   C8       68.6020  -19.4790   19.7800 C.ar   39  A39         0.1816
    843   N7       68.5150  -20.7830   19.6350 N.ar   39  A39        -0.2193
    844   C5       67.2070  -21.0700   19.9850 C.ar   39  A39         0.1518
    845   C6       66.5180  -22.3020   20.0340 C.ar   39  A39         0.1919
    846   N6       67.1070  -23.4670   19.7060 N.pl3  39  A39        -0.1054
    847   N.1      65.2130  -22.2780   20.4300 N.ar   39  A39        -0.2040
    848   C.2      64.6790  -21.0720   20.7370 C.ar   39  A39         0.2016
    849   N.3      65.2340  -19.8430   20.7210 N.ar   39  A39        -0.2048
    850   C4       66.5280  -19.9090   20.3320 C.ar   39  A39         0.1692
    851    P.3     68.7810  -16.3280   24.8380 P.3    40  C40         0.2141
    852  OP1       68.4150  -15.3480   25.9160 O.3    40  C40        -0.4373
    853  OP2       70.2100  -16.6950   24.6060 O.2    40  C40        -0.5172
    854  O5'       67.9130  -17.6640   25.0030 O.3    40  C40        -0.3114
    855  C5'       66.6270  -17.6150   25.6030 C.3    40  C40         0.1812
    856  C4'       65.8670  -18.8900   25.3700 C.3    40  C40         0.1773
    857  O4'       66.1600  -19.3570   24.0400 O.3    40  C40        -0.3307
    858  C3'       66.2410  -20.0630   26.2620 C.3    40  C40         0.1860
    859  O3'       65.6050  -20.0190   27.5250 O.3    40  C40        -0.3112
    860  C2'       65.8760  -21.2740   25.4040 C.3    40  C40         0.2309
    861  O2'       64.4760  -21.5250   25.4140 O.3    40  C40        -0.2156
    862  C1'       66.2400  -20.7670   24.0180 C.3    40  C40         0.2420
    863   N.1      67.6070  -21.1250   23.5810 N.ar   40  C40        -0.2535
    864   C.2      67.8860  -22.4050   23.1300 C.ar   40  C40         0.3532
    865   O.2      66.9730  -23.2380   23.1710 O.2    40  C40        -0.2443
    866   N.3      69.1340  -22.6890   22.6950 N.ar   40  C40        -0.1739
    867   C4       70.0670  -21.7340   22.6760 C.ar   40  C40         0.1759
    868   N.4      71.2890  -22.0170   22.2390 N.pl3  40  C40        -0.1070
    869   C5       69.8040  -20.4170   23.1060 C.ar   40  C40         0.0566
    870   C6       68.5670  -20.1580   23.5390 C.ar   40  C40         0.0850
    871    P.3     66.4960  -20.1990   28.8450 P.3    41  U41         0.2141
    872  OP1       65.7810  -19.4900   29.9440 O.3    41  U41        -0.4373
    873  OP2       67.8940  -19.8290   28.4870 O.2    41  U41        -0.5172
    874  O5'       66.4850  -21.7780   29.0850 O.3    41  U41        -0.3114
    875  C5'       65.2670  -22.5110   29.0370 C.3    41  U41         0.1812
    876  C4'       65.4980  -23.9830   28.7820 C.3    41  U41         0.1773
    877  O4'       65.8610  -24.2040   27.3940 O.3    41  U41        -0.3307
    878  C3'       66.6290  -24.6490   29.5530 C.3    41  U41         0.1860
    879  O3'       66.3130  -24.9380   30.9040 O.3    41  U41        -0.3112
    880  C2'       66.9230  -25.8840   28.7030 C.3    41  U41         0.2309
    881  O2'       65.9590  -26.9120   28.9030 O.3    41  U41        -0.2156
    882  C1'       66.7320  -25.3190   27.2990 C.3    41  U41         0.2420
    883   N.1      68.0160  -24.8820   26.7250 N.ar   41  U41        -0.2534
    884   C.2      68.8190  -25.8990   26.2730 C.ar   41  U41         0.3546
    885   O.2      68.4810  -27.0650   26.3380 O.2    41  U41        -0.2443
    886   N.3      70.0170  -25.5010   25.7410 N.ar   41  U41        -0.1530
    887   C4       70.4680  -24.2030   25.6340 C.ar   41  U41         0.2846
    888   O4       71.5770  -24.0050   25.1370 O.2    41  U41        -0.2650
    889   C5       69.5690  -23.1980   26.1370 C.ar   41  U41         0.0814
    890   C6       68.3920  -23.5590   26.6600 C.ar   41  U41         0.0870
    891    P.3     67.4800  -24.9920   32.0050 P.3    42  G42         0.2141
    892  OP1       66.7620  -24.9840   33.3100 O.3    42  G42        -0.4373
    893  OP2       68.4830  -23.9280   31.6960 O.2    42  G42        -0.5172
    894  O5'       68.1610  -26.4260   31.7900 O.3    42  G42        -0.3114
    895  C5'       67.4100  -27.6220   31.9460 C.3    42  G42         0.1812
    896  C4'       68.1790  -28.8270   31.4720 C.3    42  G42         0.1773
    897  O4'       68.4160  -28.7280   30.0440 O.3    42  G42        -0.3307
    898  C3'       69.5750  -29.0010   32.0520 C.3    42  G42         0.1860
    899  O3'       69.5980  -29.5450   33.3550 O.3    42  G42        -0.3112
    900  C2'       70.2570  -29.8570   30.9960 C.3    42  G42         0.2309
    901  O2'       69.7880  -31.2020   31.0490 O.3    42  G42        -0.2156
    902  C1'       69.7150  -29.2040   29.7340 C.3    42  G42         0.2408
    903   N9       70.5280  -28.0330   29.3650 N.ar   42  G42        -0.2693
    904   C8       70.1670  -26.7240   29.5830 C.ar   42  G42         0.1817
    905   N7       71.0510  -25.8590   29.1700 N.ar   42  G42        -0.2173
    906   C5       72.0680  -26.6490   28.6520 C.ar   42  G42         0.1748
    907   C6       73.3030  -26.2590   28.0640 C.ar   42  G42         0.3023
    908   O6       73.7310  -25.1120   27.8880 O.2    42  G42        -0.2633
    909   N.1      74.0620  -27.3610   27.6670 N.ar   42  G42        -0.1709
    910   C.2      73.6750  -28.6760   27.8190 C.ar   42  G42         0.2606
    911   N.2      74.5540  -29.5850   27.3600 N.pl3  42  G42        -0.0859
    912   N.3      72.5190  -29.0590   28.3710 N.ar   42  G42        -0.1918
    913   C4       71.7680  -27.9990   28.7640 C.ar   42  G42         0.1723
    914    P.3     70.6120  -28.9230   34.4360 P.3    43  U43         0.2141
    915  OP1       70.2850  -29.5860   35.7210 O.3    43  U43        -0.4373
    916  OP2       70.5520  -27.4420   34.3420 O.2    43  U43        -0.5172
    917  O5'       72.0560  -29.3910   33.9280 O.3    43  U43        -0.3114
    918  C5'       72.3300  -30.7720   33.7360 C.3    43  U43         0.1812
    919  C4'       73.5890  -31.0050   32.9400 C.3    43  U43         0.1773
    920  O4'       73.5240  -30.2930   31.6810 O.3    43  U43        -0.3307
    921  C3'       74.8860  -30.5150   33.5620 C.3    43  U43         0.1860
    922  O3'       75.3920  -31.3770   34.5650 O.3    43  U43        -0.3112
    923  C2'       75.8070  -30.3880   32.3550 C.3    43  U43         0.2309
    924  O2'       76.3280  -31.6530   31.9740 O.3    43  U43        -0.2156
    925  C1'       74.8300  -29.9210   31.2770 C.3    43  U43         0.2420
    926   N.1      74.8900  -28.4550   31.0830 N.ar   43  U43        -0.2534
    927   C.2      75.9600  -27.9690   30.3420 C.ar   43  U43         0.3546
    928   O.2      76.8310  -28.6750   29.8550 O.2    43  U43        -0.2443
    929   N.3      75.9780  -26.6100   30.1800 N.ar   43  U43        -0.1530
    930   C4       75.0640  -25.7060   30.6760 C.ar   43  U43         0.2846
    931   O4       75.2370  -24.5080   30.4360 O.2    43  U43        -0.2650
    932   C5       73.9880  -26.2810   31.4320 C.ar   43  U43         0.0814
    933   C6       73.9380  -27.6090   31.6070 C.ar   43  U43         0.0870
    934    P.3     76.3710  -30.7920   35.7000 P.3    44  A44         0.2141
    935  OP1       76.6580  -31.8890   36.6500 O.3    44  A44        -0.4373
    936  OP2       75.8380  -29.4850   36.1720 O.2    44  A44        -0.5172
    937  O5'       77.7280  -30.4860   34.9370 O.3    44  A44        -0.3114
    938  C5'       78.9730  -30.7170   35.5690 C.3    44  A44         0.1812
    939  C4'       80.0840  -30.5950   34.5710 C.3    44  A44         0.1773
    940  O4'       79.5110  -30.2130   33.2940 O.3    44  A44        -0.3307
    941  C3'       81.1110  -29.5130   34.8640 C.3    44  A44         0.1860
    942  O3'       82.1290  -29.9540   35.7400 O.3    44  A44        -0.3112
    943  C2'       81.6170  -29.1510   33.4780 C.3    44  A44         0.2309
    944  O2'       82.5320  -30.1310   33.0080 O.3    44  A44        -0.2156
    945  C1'       80.3320  -29.2590   32.6630 C.3    44  A44         0.2408
    946   N9       79.5930  -27.9820   32.6350 N.ar   44  A44        -0.2693
    947   C8       78.3590  -27.7160   33.1840 C.ar   44  A44         0.1816
    948   N7       77.9530  -26.4810   32.9990 N.ar   44  A44        -0.2193
    949   C5       78.9860  -25.8950   32.2780 C.ar   44  A44         0.1518
    950   C6       79.1730  -24.5960   31.7670 C.ar   44  A44         0.1919
    951   N6       78.2860  -23.6070   31.9070 N.pl3  44  A44        -0.1054
    952   N.1      80.3230  -24.3440   31.0950 N.ar   44  A44        -0.2040
    953   C.2      81.2210  -25.3300   30.9480 C.ar   44  A44         0.2016
    954   N.3      81.1570  -26.5880   31.3830 N.ar   44  A44        -0.2048
    955   C4       80.0020  -26.8090   32.0440 C.ar   44  A44         0.1692
    956    P.3     82.6770  -28.9820   36.8880 P.3    45  U45         0.2141
    957  OP1       83.5210  -29.8160   37.7750 O.3    45  U45        -0.4373
    958  OP2       81.5340  -28.2200   37.4520 O.2    45  U45        -0.5172
    959  O5'       83.6370  -27.9700   36.1240 O.3    45  U45        -0.3114
    960  C5'       84.7730  -28.4380   35.4190 C.3    45  U45         0.1812
    961  C4'       85.4260  -27.3220   34.6480 C.3    45  U45         0.1773
    962  O4'       84.5810  -26.9420   33.5270 O.3    45  U45        -0.3307
    963  C3'       85.6050  -26.0190   35.4090 C.3    45  U45         0.1860
    964  O3'       86.6880  -26.0010   36.3080 O.3    45  U45        -0.3112
    965  C2'       85.6930  -24.9980   34.2890 C.3    45  U45         0.2309
    966  O2'       86.9480  -25.0680   33.6300 O.3    45  U45        -0.2156
    967  C1'       84.6180  -25.5350   33.3520 C.3    45  U45         0.2420
    968   N.1      83.2900  -24.9850   33.7190 N.ar   45  U45        -0.2534
    969   C.2      83.0240  -23.6700   33.3800 C.ar   45  U45         0.3546
    970   O.2      83.8210  -22.9620   32.7850 O.2    45  U45        -0.2443
    971   N.3      81.7780  -23.2200   33.7610 N.ar   45  U45        -0.1530
    972   C4       80.7900  -23.9200   34.4390 C.ar   45  U45         0.2846
    973   O4       79.7140  -23.3720   34.7120 O.2    45  U45        -0.2650
    974   C5       81.1480  -25.2700   34.7600 C.ar   45  U45         0.0814
    975   C6       82.3490  -25.7360   34.3990 C.ar   45  U45         0.0870
    976    P.3     86.4390  -25.4060   37.7750 P.3    46  C46         0.2141
    977  OP1       86.4970  -26.5270   38.7460 O.3    46  C46        -0.4373
    978  OP2       85.2340  -24.5340   37.7400 O.2    46  C46        -0.5172
    979  O5'       87.6670  -24.4340   37.9970 O.3    46  C46        -0.3114
    980  C5'       87.4390  -23.0600   38.2210 C.3    46  C46         0.1812
    981  C4'       87.8860  -22.2270   37.0500 C.3    46  C46         0.1773
    982  O4'       87.0560  -22.5080   35.8890 O.3    46  C46        -0.3307
    983  C3'       87.7250  -20.7360   37.2640 C.3    46  C46         0.1860
    984  O3'       88.7740  -20.1660   38.0070 O.3    46  C46        -0.3112
    985  C2'       87.5740  -20.2040   35.8530 C.3    46  C46         0.2309
    986  O2'       88.8220  -20.1780   35.1770 O.3    46  C46        -0.2156
    987  C1'       86.7060  -21.2970   35.2440 C.3    46  C46         0.2420
    988   N.1      85.2680  -21.0700   35.5240 N.ar   46  C46        -0.2535
    989   C.2      84.6290  -19.8360   35.3200 C.ar   46  C46         0.3532
    990   O.2      85.2470  -18.8520   34.8900 O.2    46  C46        -0.2443
    991   N.3      83.3060  -19.7360   35.6090 N.ar   46  C46        -0.1739
    992   C4       82.6170  -20.7840   36.0740 C.ar   46  C46         0.1759
    993   N.4      81.3160  -20.6220   36.3440 N.pl3  46  C46        -0.1070
    994   C5       83.2440  -22.0460   36.2910 C.ar   46  C46         0.0566
    995   C6       84.5470  -22.1330   36.0010 C.ar   46  C46         0.0850
    996    P.3     88.4220  -19.5040   39.4180 P.3    47  C47         0.2141
    997  OP1       89.7070  -19.2160   40.1020 O.3    47  C47        -0.4373
    998  OP2       87.3900  -20.3490   40.0780 O.2    47  C47        -0.5172
    999  O5'       87.7040  -18.1410   39.0110 O.3    47  C47        -0.3114
   1000  C5'       88.1960  -17.3340   37.9480 C.3    47  C47         0.1812
   1001  C4'       87.2550  -16.1940   37.6840 C.3    47  C47         0.1773
   1002  O4'       86.1110  -16.6780   36.9400 O.3    47  C47        -0.3307
   1003  C3'       86.6500  -15.5710   38.9290 C.3    47  C47         0.1860
   1004  O3'       87.5110  -14.6230   39.5390 O.3    47  C47        -0.3112
   1005  C2'       85.3390  -14.9890   38.4170 C.3    47  C47         0.2309
   1006  O2'       85.5530  -13.7590   37.7460 O.3    47  C47        -0.2156
   1007  C1'       84.9370  -16.0290   37.3790 C.3    47  C47         0.2420
   1008   N.1      84.0180  -17.0470   37.9310 N.ar   47  C47        -0.2535
   1009   C.2      82.6690  -16.7240   38.1190 C.ar   47  C47         0.3532
   1010   O.2      82.2670  -15.5850   37.8310 O.2    47  C47        -0.2443
   1011   N.3      81.8360  -17.6700   38.6120 N.ar   47  C47        -0.1739
   1012   C4       82.2960  -18.8910   38.9090 C.ar   47  C47         0.1759
   1013   N.4      81.4310  -19.7880   39.4020 N.pl3  47  C47        -0.1070
   1014   C5       83.6670  -19.2400   38.7290 C.ar   47  C47         0.0566
   1015   C6       84.4820  -18.2980   38.2360 C.ar   47  C47         0.0850
   1016    P.3     87.6570  -14.5560   41.1400 P.3    48  G48         0.2141
   1017  OP1       89.0830  -14.3150   41.4480 O.2    48  G48        -0.5172
   1018  OP2       87.0020  -15.7590   41.7210 O.3    48  G48        -0.4373
   1019  O5'       86.8280  -13.2490   41.5370 O.3    48  G48        -0.3114
   1020  C5'       86.6490  -12.1730   40.6080 C.3    48  G48         0.1812
   1021  C4'       85.4270  -11.3290   40.9130 C.3    48  G48         0.1773
   1022  O4'       84.2340  -12.0760   40.5670 O.3    48  G48        -0.3307
   1023  C3'       85.2680  -10.9120   42.3690 C.3    48  G48         0.1860
   1024  O3'       84.6650   -9.6220   42.4580 O.3    48  G48        -0.3112
   1025  C2'       84.3340  -11.9750   42.9400 C.3    48  G48         0.2309
   1026  O2'       83.5310  -11.5310   44.0120 O.3    48  G48        -0.2156
   1027  C1'       83.4870  -12.3920   41.7290 C.3    48  G48         0.2408
   1028   N9       83.2840  -13.8440   41.7010 N.ar   48  G48        -0.2693
   1029   C8       84.3070  -14.7620   41.7390 C.ar   48  G48         0.1817
   1030   N7       83.9370  -16.0070   41.7150 N.ar   48  G48        -0.2173
   1031   C5       82.5590  -15.9160   41.6650 C.ar   48  G48         0.1748
   1032   C6       81.6010  -16.9580   41.6160 C.ar   48  G48         0.3023
   1033   O6       81.7760  -18.1880   41.6340 O.2    48  G48        -0.2633
   1034   N.1      80.3190  -16.4310   41.5770 N.ar   48  G48        -0.1709
   1035   C.2      80.0240  -15.0920   41.5800 C.ar   48  G48         0.2606
   1036   N.2      78.7290  -14.7990   41.5320 N.pl3  48  G48        -0.0859
   1037   N.3      80.8980  -14.1070   41.6140 N.ar   48  G48        -0.1918
   1038   C4       82.1400  -14.5930   41.6560 C.ar   48  G48         0.1723
   1039    P.3     85.5750   -8.3210   42.7320 P.3    49  A49         0.2141
   1040  OP1       86.9940   -8.7510   42.6910 O.2    49  A49        -0.5172
   1041  OP2       85.0560   -7.6090   43.9310 O.3    49  A49        -0.4373
   1042  O5'       85.3200   -7.4080   41.4530 O.3    49  A49        -0.3114
   1043  C5'       84.5480   -7.8950   40.3580 C.3    49  A49         0.1812
   1044  C4'       83.2430   -7.1540   40.2200 C.3    49  A49         0.1773
   1045  O4'       82.2930   -7.6380   41.2190 O.3    49  A49        -0.3307
   1046  C3'       83.3520   -5.6480   40.4410 C.3    49  A49         0.1860
   1047  O3'       82.4440   -4.8870   39.6100 O.3    49  A49        -0.3112
   1048  C2'       82.9440   -5.5080   41.9090 C.3    49  A49         0.2309
   1049  O2'       82.5200   -4.2180   42.2970 O.3    49  A49        -0.2156
   1050  C1'       81.8260   -6.5410   41.9810 C.3    49  A49         0.2408
   1051   N9       81.4320   -6.9690   43.3340 N.ar   49  A49        -0.2693
   1052   C8       81.8910   -6.4910   44.5410 C.ar   49  A49         0.1816
   1053   N7       81.3110   -7.0510   45.5810 N.ar   49  A49        -0.2193
   1054   C5       80.3930   -7.9440   45.0360 C.ar   49  A49         0.1518
   1055   C6       79.4640   -8.8420   45.6160 C.ar   49  A49         0.1919
   1056   N6       79.2940   -9.0010   46.9350 N.pl3  49  A49        -0.1054
   1057   N.1      78.6990   -9.5840   44.7770 N.ar   49  A49        -0.2040
   1058   C.2      78.8590   -9.4330   43.4530 C.ar   49  A49         0.2016
   1059   N.3      79.6930   -8.6270   42.7950 N.ar   49  A49        -0.2048
   1060   C4       80.4450   -7.8940   43.6490 C.ar   49  A49         0.1692
   1061    P.3     81.2990   -5.4980   38.6270 P.3    50  A50         0.2141
   1062  OP1       81.6210   -6.7850   37.9560 O.3    50  A50        -0.4373
   1063  OP2       80.9820   -4.3600   37.7300 O.2    50  A50        -0.5172
   1064  O5'       79.9980   -5.6680   39.5460 O.3    50  A50        -0.3114
   1065  C5'       78.7830   -4.9850   39.2300 C.3    50  A50         0.1812
   1066  C4'       77.5450   -5.7410   39.6710 C.3    50  A50         0.1773
   1067  O4'       77.2260   -5.4200   41.0510 O.3    50  A50        -0.3307
   1068  C3'       76.2640   -5.4040   38.9250 C.3    50  A50         0.1860
   1069  O3'       76.1650   -6.0380   37.6660 O.3    50  A50        -0.3112
   1070  C2'       75.1820   -5.8230   39.9110 C.3    50  A50         0.2309
   1071  O2'       75.0340   -7.2370   39.9020 O.3    50  A50        -0.2156
   1072  C1'       75.8200   -5.4170   41.2380 C.3    50  A50         0.2408
   1073   N9       75.3880   -4.0830   41.7450 N.ar   50  A50        -0.2693
   1074   C8       75.8350   -2.8040   41.4510 C.ar   50  A50         0.1816
   1075   N7       75.2360   -1.8400   42.1330 N.ar   50  A50        -0.2193
   1076   C5       74.3260   -2.5140   42.9520 C.ar   50  A50         0.1518
   1077   C6       73.3690   -2.1160   43.9280 C.ar   50  A50         0.1919
   1078   N6       73.0950   -0.8840   44.3420 N.pl3  50  A50        -0.1054
   1079   N.1      72.6410   -3.0680   44.5400 N.ar   50  A50        -0.2040
   1080   C.2      72.8480   -4.3380   44.2010 C.ar   50  A50         0.2016
   1081   N.3      73.7040   -4.8500   43.3220 N.ar   50  A50        -0.2048
   1082   C4       74.4220   -3.8850   42.7180 C.ar   50  A50         0.1692
   1083    P.3     76.3130   -5.1660   36.3230 P.3    51  A51         0.2141
   1084  OP1       76.7100   -6.1160   35.2510 O.2    51  A51        -0.5172
   1085  OP2       77.1650   -3.9820   36.6260 O.3    51  A51        -0.4373
   1086  O5'       74.8320   -4.6440   36.0170 O.3    51  A51        -0.3114
   1087  C5'       74.3260   -3.4460   36.6070 C.3    51  A51         0.1812
   1088  C4'       73.3950   -3.7480   37.7560 C.3    51  A51         0.1773
   1089  O4'       73.2840   -2.5780   38.6210 O.3    51  A51        -0.3307
   1090  C3'       71.9550   -4.1430   37.3870 C.3    51  A51         0.1860
   1091  O3'       71.4790   -5.1240   38.3220 O.3    51  A51        -0.3112
   1092  C2'       71.2080   -2.8350   37.6080 C.3    51  A51         0.2309
   1093  O2'       69.8160   -2.9520   37.8130 O.3    51  A51        -0.2156
   1094  C1'       71.9190   -2.3170   38.8440 C.3    51  A51         0.2408
   1095   N9       71.6880   -0.9040   39.0890 N.ar   51  A51        -0.2693
   1096   C8       72.3610    0.2330   38.7260 C.ar   51  A51         0.1816
   1097   N7       71.7470    1.3100   39.1620 N.ar   51  A51        -0.2193
   1098   C5       70.6160    0.8270   39.8310 C.ar   51  A51         0.1518
   1099   C6       69.5420    1.4150   40.5240 C.ar   51  A51         0.1919
   1100   N6       69.4160    2.7140   40.6700 N.pl3  51  A51        -0.1054
   1101   N.1      68.5800    0.6390   41.0740 N.ar   51  A51        -0.2040
   1102   C.2      68.6890   -0.6860   40.9370 C.ar   51  A51         0.2016
   1103   N.3      69.6460   -1.3650   40.3100 N.ar   51  A51        -0.2048
   1104   C4       70.5780   -0.5390   39.7870 C.ar   51  A51         0.1692
   1105    P.3     70.0680   -5.8910   38.1220 P.3    52  A52         0.2141
   1106  OP1       69.3200   -5.8320   39.4070 O.3    52  A52        -0.4373
   1107  OP2       70.3500   -7.2080   37.4910 O.2    52  A52        -0.5172
   1108  O5'       69.2530   -4.9780   37.0980 O.3    52  A52        -0.3114
   1109  C5'       68.0790   -5.4440   36.4540 C.3    52  A52         0.1812
   1110  C4'       66.8640   -5.3630   37.3480 C.3    52  A52         0.1773
   1111  O4'       67.0990   -4.4950   38.4910 O.3    52  A52        -0.3307
   1112  C3'       65.6150   -4.7840   36.7160 C.3    52  A52         0.1860
   1113  O3'       64.9680   -5.6790   35.8240 O.3    52  A52        -0.3112
   1114  C2'       64.7860   -4.3970   37.9410 C.3    52  A52         0.2309
   1115  O2'       64.1600   -5.5340   38.5140 O.3    52  A52        -0.2156
   1116  C1'       65.8750   -3.9070   38.9010 C.3    52  A52         0.2408
   1117   N9       66.0020   -2.4320   38.8830 N.ar   52  A52        -0.2693
   1118   C8       66.7740   -1.6900   38.0220 C.ar   52  A52         0.1816
   1119   N7       66.6960   -0.3940   38.2050 N.ar   52  A52        -0.2193
   1120   C5       65.8090   -0.2630   39.2650 C.ar   52  A52         0.1518
   1121   C6       65.3200    0.8750   39.9320 C.ar   52  A52         0.1919
   1122   N6       65.6760    2.1230   39.6070 N.pl3  52  A52        -0.1054
   1123   N.1      64.4500    0.6760   40.9480 N.ar   52  A52        -0.2040
   1124   C.2      64.1040   -0.5810   41.2610 C.ar   52  A52         0.2016
   1125   N.3      64.4980   -1.7290   40.7080 N.ar   52  A52        -0.2048
   1126   C4       65.3640   -1.5060   39.6970 C.ar   52  A52         0.1692
   1127    P.3     65.0130   -5.4360   34.2290 P.3    53  A53         0.2141
   1128  OP1       66.0810   -6.2970   33.6610 O.2    53  A53        -0.5172
   1129  OP2       65.0670   -3.9850   33.9250 O.3    53  A53        -0.4373
   1130  O5'       63.6010   -5.9900   33.7360 O.3    53  A53        -0.3114
   1131  C5'       62.5310   -6.1700   34.6560 C.3    53  A53         0.1812
   1132  C4'       61.5520   -5.0250   34.5910 C.3    53  A53         0.1773
   1133  O4'       61.8080   -4.0640   35.6480 O.3    53  A53        -0.3307
   1134  C3'       61.6080   -4.2000   33.3210 C.3    53  A53         0.1860
   1135  O3'       60.9230   -4.8380   32.2560 O.3    53  A53        -0.3112
   1136  C2'       60.9950   -2.8670   33.7530 C.3    53  A53         0.2309
   1137  O2'       59.5770   -2.9370   33.7190 O.3    53  A53        -0.2156
   1138  C1'       61.4410   -2.7660   35.2190 C.3    53  A53         0.2408
   1139   N9       62.5710   -1.8300   35.4520 N.ar   53  A53        -0.2693
   1140   C8       63.8530   -2.1830   35.7620 C.ar   53  A53         0.1816
   1141   N7       64.6940   -1.2000   35.9480 N.ar   53  A53        -0.2193
   1142   C5       63.9160   -0.0780   35.7660 C.ar   53  A53         0.1518
   1143   C6       64.2390    1.2900   35.8330 C.ar   53  A53         0.1919
   1144   N6       65.4610    1.7600   36.1120 N.pl3  53  A53        -0.1054
   1145   N.1      63.2440    2.1700   35.5990 N.ar   53  A53        -0.2040
   1146   C.2      62.0250    1.6860   35.3220 C.ar   53  A53         0.2016
   1147   N.3      61.6020    0.4220   35.2310 N.ar   53  A53        -0.2048
   1148   C4       62.6060   -0.4410   35.4670 C.ar   53  A53         0.1692
   1149    P.3     61.6060   -4.9920   30.8080 P.3    54  A54         0.2141
   1150  OP1       61.5820   -6.4280   30.4200 O.2    54  A54        -0.5172
   1151  OP2       62.9020   -4.2580   30.8120 O.3    54  A54        -0.4373
   1152  O5'       60.5730   -4.2430   29.8560 O.3    54  A54        -0.3114
   1153  C5'       59.5610   -3.4170   30.4100 C.3    54  A54         0.1812
   1154  C4'       59.7960   -1.9680   30.0740 C.3    54  A54         0.1773
   1155  O4'       60.4270   -1.2700   31.1730 O.3    54  A54        -0.3307
   1156  C3'       60.7180   -1.6970   28.9020 C.3    54  A54         0.1860
   1157  O3'       60.0710   -1.8960   27.6590 O.3    54  A54        -0.3112
   1158  C2'       61.1420   -0.2490   29.1370 C.3    54  A54         0.2309
   1159  O2'       60.1590    0.6380   28.6270 O.3    54  A54        -0.2156
   1160  C1'       61.1350   -0.1550   30.6720 C.3    54  A54         0.2408
   1161   N9       62.4880   -0.0900   31.2650 N.ar   54  A54        -0.2693
   1162   C8       63.3790   -1.1030   31.4930 C.ar   54  A54         0.1816
   1163   N7       64.5050   -0.7010   32.0370 N.ar   54  A54        -0.2193
   1164   C5       64.3530    0.6700   32.1750 C.ar   54  A54         0.1518
   1165   C6       65.1970    1.6790   32.6850 C.ar   54  A54         0.1919
   1166   N6       66.4190    1.4540   33.1760 N.pl3  54  A54        -0.1054
   1167   N.1      64.7420    2.9510   32.6810 N.ar   54  A54        -0.2040
   1168   C.2      63.5190    3.1820   32.1940 C.ar   54  A54         0.2016
   1169   N.3      62.6390    2.3170   31.6880 N.ar   54  A54        -0.2048
   1170   C4       63.1170    1.0590   31.7020 C.ar   54  A54         0.1692
   1171    P.3     60.5460   -3.0630   26.6690 P.3    55  A55         0.2141
   1172  OP1       61.5160   -3.9550   27.3480 O.3    55  A55        -0.4373
   1173  OP2       60.9680   -2.3990   25.4090 O.2    55  A55        -0.5172
   1174  O5'       59.2150   -3.9070   26.4430 O.3    55  A55        -0.3114
   1175  C5'       57.9610   -3.4140   26.8770 C.3    55  A55         0.1812
   1176  C4'       56.9100   -3.5930   25.8140 C.3    55  A55         0.1773
   1177  O4'       56.0110   -2.4650   25.8350 O.3    55  A55        -0.3307
   1178  C3'       57.4080   -3.6400   24.3780 C.3    55  A55         0.1860
   1179  O3'       57.8540   -4.9280   24.0120 O.3    55  A55        -0.3112
   1180  C2'       56.1970   -3.1810   23.5700 C.3    55  A55         0.2309
   1181  O2'       55.3090   -4.2670   23.3370 O.3    55  A55        -0.2156
   1182  C1'       55.5270   -2.2020   24.5340 C.3    55  A55         0.2408
   1183   N9       55.7480   -0.7740   24.2060 N.ar   55  A55        -0.2693
   1184   C8       54.7480    0.1210   23.9120 C.ar   55  A55         0.1816
   1185   N7       55.1580    1.3390   23.6770 N.ar   55  A55        -0.2193
   1186   C5       56.5260    1.2500   23.8330 C.ar   55  A55         0.1518
   1187   C6       57.5240    2.2220   23.7110 C.ar   55  A55         0.1919
   1188   N6       57.2660    3.4900   23.3970 N.pl3  55  A55        -0.1054
   1189   N.1      58.7970    1.8350   23.9240 N.ar   55  A55        -0.2040
   1190   C.2      59.0310    0.5520   24.2340 C.ar   55  A55         0.2016
   1191   N.3      58.1700   -0.4550   24.3790 N.ar   55  A55        -0.2048
   1192   C4       56.9130   -0.0380   24.1610 C.ar   55  A55         0.1692
   1193    P.3     58.4260   -5.1970   22.5370 P.3    56  G56         0.2141
   1194  OP1       58.8120   -3.8990   21.9180 O.3    56  G56        -0.4373
   1195  OP2       57.4650   -6.0850   21.8270 O.2    56  G56        -0.5172
   1196  O5'       59.7660   -6.0070   22.8230 O.3    56  G56        -0.3114
   1197  C5'       60.7810   -5.4340   23.6330 C.3    56  G56         0.1812
   1198  C4'       61.3150   -6.4060   24.6560 C.3    56  G56         0.1773
   1199  O4'       60.2320   -7.0980   25.3220 O.3    56  G56        -0.3307
   1200  C3'       62.1870   -7.5220   24.1250 C.3    56  G56         0.1860
   1201  O3'       63.5050   -7.0880   23.8880 O.3    56  G56        -0.3112
   1202  C2'       62.1040   -8.5610   25.2200 C.3    56  G56         0.2309
   1203  O2'       62.9920   -8.2170   26.2720 O.3    56  G56        -0.2156
   1204  C1'       60.6610   -8.3860   25.7040 C.3    56  G56         0.2408
   1205   N9       59.7280   -9.3780   25.1350 N.ar   56  G56        -0.2693
   1206   C8       58.4520   -9.1180   24.6830 C.ar   56  G56         0.1817
   1207   N7       57.8280  -10.1800   24.2460 N.ar   56  G56        -0.2173
   1208   C5       58.7450  -11.2070   24.4310 C.ar   56  G56         0.1748
   1209   C6       58.6340  -12.5910   24.1450 C.ar   56  G56         0.3023
   1210   O6       57.6590  -13.1730   23.6550 O.2    56  G56        -0.2633
   1211   N.1      59.7900  -13.2970   24.4850 N.ar   56  G56        -0.1709
   1212   C.2      60.9210  -12.7230   25.0300 C.ar   56  G56         0.2606
   1213   N.2      61.9710  -13.5150   25.3000 N.pl3  56  G56        -0.0859
   1214   N.3      61.0270  -11.4360   25.3050 N.ar   56  G56        -0.1918
   1215   C4       59.9160  -10.7350   24.9860 C.ar   56  G56         0.1723
   1216    P.3     64.0340   -7.0250   22.3750 P.3    57  C57         0.2141
   1217  OP1       65.2430   -6.1560   22.2380 O.3    57  C57        -0.4373
   1218  OP2       62.8230   -6.7660   21.5400 O.2    57  C57        -0.5172
   1219  O5'       64.5550   -8.5050   22.1310 O.3    57  C57        -0.3114
   1220  C5'       65.6670   -8.9870   22.8620 C.3    57  C57         0.1812
   1221  C4'       65.7540  -10.4840   22.8010 C.3    57  C57         0.1773
   1222  O4'       64.5850  -11.0760   23.4160 O.3    57  C57        -0.3307
   1223  C3'       65.7580  -11.0890   21.4210 C.3    57  C57         0.1860
   1224  O3'       67.0000  -10.9600   20.7670 O.3    57  C57        -0.3112
   1225  C2'       65.3530  -12.5190   21.7130 C.3    57  C57         0.2309
   1226  O2'       66.4250  -13.2010   22.3430 O.3    57  C57        -0.2156
   1227  C1'       64.2850  -12.2950   22.7720 C.3    57  C57         0.2420
   1228   N.1      62.9230  -12.2150   22.2070 N.ar   57  C57        -0.2535
   1229   C.2      62.2720  -13.4110   21.8870 C.ar   57  C57         0.3532
   1230   O.2      62.8590  -14.4880   22.0670 O.2    57  C57        -0.2443
   1231   N.3      61.0190  -13.3780   21.3860 N.ar   57  C57        -0.1739
   1232   C4       60.4160  -12.2090   21.2170 C.ar   57  C57         0.1759
   1233   N.4      59.1770  -12.2230   20.7280 N.pl3  57  C57        -0.1070
   1234   C5       61.0590  -10.9740   21.5370 C.ar   57  C57         0.0566
   1235   C6       62.3040  -11.0170   22.0290 C.ar   57  C57         0.0850
   1236    P.3     67.0260  -10.6210   19.1980 P.3    58  C58         0.2141
   1237  OP1       68.4120  -10.2770   18.7620 O.2    58  C58        -0.5172
   1238  OP2       65.8360   -9.7680   18.9170 O.3    58  C58        -0.4373
   1239  O5'       66.6760  -12.0170   18.5410 O.3    58  C58        -0.3114
   1240  C5'       67.3870  -13.1900   18.8970 C.3    58  C58         0.1812
   1241  C4'       66.9640  -14.3090   17.9970 C.3    58  C58         0.1773
   1242  O4'       65.7170  -14.8740   18.4460 O.3    58  C58        -0.3307
   1243  C3'       66.6680  -13.8380   16.5990 C.3    58  C58         0.1860
   1244  O3'       67.8510  -13.6850   15.8530 O.3    58  C58        -0.3112
   1245  C2'       65.7050  -14.8910   16.0770 C.3    58  C58         0.2309
   1246  O2'       66.4170  -16.0130   15.6050 O.3    58  C58        -0.2156
   1247  C1'       64.9490  -15.2910   17.3430 C.3    58  C58         0.2420
   1248   N.1      63.6100  -14.6700   17.4400 N.ar   58  C58        -0.2535
   1249   C.2      62.4910  -15.3420   16.8870 C.ar   58  C58         0.3532
   1250   O.2      62.6300  -16.4410   16.3110 O.2    58  C58        -0.2443
   1251   N.3      61.2690  -14.7790   16.9940 N.ar   58  C58        -0.1739
   1252   C4       61.1450  -13.6010   17.6010 C.ar   58  C58         0.1759
   1253   N.4      59.9160  -13.1040   17.6660 N.pl3  58  C58        -0.1070
   1254   C5       62.2500  -12.9080   18.1720 C.ar   58  C58         0.0566
   1255   C6       63.4580  -13.4720   18.0810 C.ar   58  C58         0.0850
   1256    P.3     67.8140  -12.7910   14.5330 P.3    59  G59         0.2141
   1257  OP1       69.2020  -12.4050   14.1650 O.2    59  G59        -0.5172
   1258  OP2       66.6810  -11.8030   14.6530 O.3    59  G59        -0.4373
   1259  O5'       67.3570  -13.8590   13.4690 O.3    59  G59        -0.3114
   1260  C5'       68.1850  -14.9650   13.1790 C.3    59  G59         0.1812
   1261  C4'       67.6800  -15.6610   11.9550 C.3    59  G59         0.1773
   1262  O4'       66.4500  -16.3750   12.2980 O.3    59  G59        -0.3307
   1263  C3'       67.3260  -14.7360   10.7750 C.3    59  G59         0.1860
   1264  O3'       67.5760  -15.4190    9.5700 O.3    59  G59        -0.3112
   1265  C2'       65.8220  -14.6590   10.8670 C.3    59  G59         0.2309
   1266  O2'       65.2090  -14.3760    9.6340 O.3    59  G59        -0.2156
   1267  C1'       65.5020  -16.0810   11.3150 C.3    59  G59         0.2408
   1268   N9       64.1350  -16.3170   11.7590 N.ar   59  G59        -0.2693
   1269   C8       63.4080  -17.4040   11.3410 C.ar   59  G59         0.1817
   1270   N7       62.1760  -17.4020   11.7680 N.ar   59  G59        -0.2173
   1271   C5       62.0900  -16.2210   12.4970 C.ar   59  G59         0.1748
   1272   C6       60.9920  -15.6880   13.1950 C.ar   59  G59         0.3023
   1273   O6       59.8610  -16.1790   13.2760 O.2    59  G59        -0.2633
   1274   N.1      61.3140  -14.4750   13.7910 N.ar   59  G59        -0.1709
   1275   C.2      62.5310  -13.8700   13.7350 C.ar   59  G59         0.2606
   1276   N.2      62.6480  -12.7200   14.3920 N.pl3  59  G59        -0.0859
   1277   N.3      63.5620  -14.3450   13.0770 N.ar   59  G59        -0.1918
   1278   C4       63.2800  -15.5240   12.4890 C.ar   59  G59         0.1723
   1279    P.3     68.8040  -15.0730    8.6090 P.3    60  A60         0.2141
   1280  OP1       68.9240  -16.2940    7.7490 O.2    60  A60        -0.5172
   1281  OP2       69.9430  -14.6230    9.4180 O.3    60  A60        -0.4373
   1282  O5'       68.3180  -13.8560    7.6880 O.3    60  A60        -0.3114
   1283  C5'       69.2270  -12.8540    7.2380 C.3    60  A60         0.1812
   1284  C4'       68.5930  -11.4710    7.1930 C.3    60  A60         0.1773
   1285  O4'       67.5500  -11.4430    6.1820 O.3    60  A60        -0.3307
   1286  C3'       67.9410  -10.9860    8.4800 C.3    60  A60         0.1860
   1287  O3'       68.0760   -9.5710    8.5630 O.3    60  A60        -0.3112
   1288  C2'       66.4830  -11.3220    8.2620 C.3    60  A60         0.2309
   1289  O2'       65.6120  -10.5100    9.0120 O.3    60  A60        -0.2156
   1290  C1'       66.3260  -11.0740    6.7680 C.3    60  A60         0.2408
   1291   N9       65.2520  -11.8560    6.1480 N.ar   60  A60        -0.2693
   1292   C8       65.1020  -13.2030    6.0390 C.ar   60  A60         0.1816
   1293   N7       63.9970  -13.5540    5.4310 N.ar   60  A60        -0.2193
   1294   C5       63.3580  -12.3730    5.1340 C.ar   60  A60         0.1518
   1295   C6       62.1250  -12.0540    4.5120 C.ar   60  A60         0.1919
   1296   N6       61.2480  -12.9520    4.0270 N.pl3  60  A60        -0.1054
   1297   N.1      61.8130  -10.7400    4.4120 N.ar   60  A60        -0.2040
   1298   C.2      62.6600   -9.8330    4.8830 C.ar   60  A60         0.2016
   1299   N.3      63.8250  -10.0030    5.4710 N.ar   60  A60        -0.2048
   1300   C4       64.1280  -11.3140    5.5700 C.ar   60  A60         0.1692
   1301    P.3     69.1650   -8.9120    9.5630 P.3    61  C61         0.2141
   1302  OP1       70.5650   -9.2980    9.2210 O.2    61  C61        -0.5172
   1303  OP2       68.5930   -9.1840   10.9130 O.3    61  C61        -0.4373
   1304  O5'       69.1030   -7.3450    9.2640 O.3    61  C61        -0.3114
   1305  C5'       70.2780   -6.5660    9.3630 C.3    61  C61         0.1812
   1306  C4'       70.2940   -5.4340    8.3720 C.3    61  C61         0.1773
   1307  O4'       70.8220   -5.8990    7.1080 O.3    61  C61        -0.3307
   1308  C3'       68.9440   -4.8480    8.0200 C.3    61  C61         0.1860
   1309  O3'       68.5510   -3.8740    8.9420 O.3    61  C61        -0.3112
   1310  C2'       69.1780   -4.2600    6.6450 C.3    61  C61         0.2309
   1311  O2'       69.8540   -3.0300    6.7690 O.3    61  C61        -0.2156
   1312  C1'       70.1510   -5.2630    6.0450 C.3    61  C61         0.2420
   1313   N.1      69.4880   -6.3090    5.2330 N.ar   61  C61        -0.2535
   1314   C.2      68.9540   -5.9550    4.0060 C.ar   61  C61         0.3532
   1315   O.2      69.0150   -4.7640    3.6700 O.2    61  C61        -0.2443
   1316   N.3      68.3800   -6.8970    3.2280 N.ar   61  C61        -0.1739
   1317   C4       68.3390   -8.1450    3.6660 C.ar   61  C61         0.1759
   1318   N.4      67.7560   -9.0650    2.8940 N.pl3  61  C61        -0.1070
   1319   C5       68.8900   -8.5300    4.9180 C.ar   61  C61         0.0566
   1320   C6       69.4540   -7.5940    5.6690 C.ar   61  C61         0.0850
   1321    P.3     67.0040   -3.6600    9.2930 P.3    62  C62         0.2141
   1322  OP1       67.0670   -2.7250   10.4380 O.3    62  C62        -0.4373
   1323  OP2       66.2600   -4.9340    9.3740 O.2    62  C62        -0.5172
   1324  O5'       66.4000   -2.8820    8.0480 O.3    62  C62        -0.3114
   1325  C5'       66.9240   -1.6320    7.6350 C.3    62  C62         0.1812
   1326  C4'       66.2780   -1.2120    6.3490 C.3    62  C62         0.1773
   1327  O4'       66.7790   -2.0550    5.2900 O.3    62  C62        -0.3307
   1328  C3'       64.7710   -1.4160    6.2880 C.3    62  C62         0.1860
   1329  O3'       64.0470   -0.3730    6.8920 O.3    62  C62        -0.3112
   1330  C2'       64.5070   -1.5520    4.7950 C.3    62  C62         0.2309
   1331  O2'       64.4450   -0.2810    4.1570 O.3    62  C62        -0.2156
   1332  C1'       65.7690   -2.2730    4.3270 C.3    62  C62         0.2420
   1333   N.1      65.5560   -3.7120    4.1730 N.ar   62  C62        -0.2535
   1334   C.2      64.8570   -4.1110    3.0320 C.ar   62  C62         0.3532
   1335   O.2      64.4940   -3.2130    2.2540 O.2    62  C62        -0.2443
   1336   N.3      64.5980   -5.4280    2.7970 N.ar   62  C62        -0.1739
   1337   C4       65.0390   -6.3220    3.6710 C.ar   62  C62         0.1759
   1338   N.4      64.8000   -7.6010    3.4170 N.pl3  62  C62        -0.1070
   1339   C5       65.7700   -5.9220    4.8430 C.ar   62  C62         0.0566
   1340   C6       66.0120   -4.6140    5.0700 C.ar   62  C62         0.0850
   1341    P.3     62.6280   -0.6760    7.5840 P.3    63  G63         0.2141
   1342  OP1       62.3540    0.5070    8.4750 O.3    63  G63        -0.4373
   1343  OP2       62.7040   -2.0550    8.1510 O.2    63  G63        -0.5172
   1344  O5'       61.5930   -0.7800    6.3680 O.3    63  G63        -0.3114
   1345  C5'       61.3630    0.3120    5.4810 C.3    63  G63         0.1812
   1346  C4'       60.5340   -0.1090    4.2870 C.3    63  G63         0.1773
   1347  O4'       61.2890   -1.0240    3.4530 O.3    63  G63        -0.3307
   1348  C3'       59.2850   -0.8840    4.6100 C.3    63  G63         0.1860
   1349  O3'       58.2290   -0.0660    5.0340 O.3    63  G63        -0.3112
   1350  C2'       59.0020   -1.6600    3.3300 C.3    63  G63         0.2309
   1351  O2'       58.3200   -0.8730    2.3760 O.3    63  G63        -0.2156
   1352  C1'       60.4120   -1.9330    2.8160 C.3    63  G63         0.2408
   1353   N9       60.8350   -3.3120    3.1110 N.ar   63  G63        -0.2693
   1354   C8       61.6110   -3.7390    4.1500 C.ar   63  G63         0.1817
   1355   N7       61.7960   -5.0460    4.1380 N.ar   63  G63        -0.2173
   1356   C5       61.0890   -5.4920    3.0160 C.ar   63  G63         0.1748
   1357   C6       60.9060   -6.8060    2.4800 C.ar   63  G63         0.3023
   1358   O6       61.3410   -7.8920    2.8910 O.2    63  G63        -0.2633
   1359   N.1      60.1130   -6.7680    1.3340 N.ar   63  G63        -0.1709
   1360   C.2      59.5710   -5.6360    0.7970 C.ar   63  G63         0.2606
   1361   N.2      58.8250   -5.8080   -0.2950 N.pl3  63  G63        -0.0859
   1362   N.3      59.7310   -4.4250    1.2800 N.ar   63  G63        -0.1918
   1363   C4       60.4940   -4.4240    2.3790 C.ar   63  G63         0.1723
   1364    P.3     57.3030   -0.6020    6.2220 P.3    64  C64         0.2141
   1365  OP1       56.6700    0.5830    6.8630 O.2    64  C64        -0.5172
   1366  OP2       58.1190   -1.5410    7.0680 O.3    64  C64        -0.4373
   1367  O5'       56.1880   -1.4190    5.4220 O.3    64  C64        -0.3114
   1368  C5'       55.6330   -0.8580    4.2490 C.3    64  C64         0.1812
   1369  C4'       54.9660   -1.8970    3.3910 C.3    64  C64         0.1773
   1370  O4'       55.9520   -2.6440    2.6490 O.3    64  C64        -0.3307
   1371  C3'       54.1820   -2.9600    4.1180 C.3    64  C64         0.1860
   1372  O3'       52.9120   -2.5030    4.5170 O.3    64  C64        -0.3112
   1373  C2'       54.1330   -4.0820    3.0970 C.3    64  C64         0.2309
   1374  O2'       53.1770   -3.8040    2.0970 O.3    64  C64        -0.2156
   1375  C1'       55.5130   -3.9720    2.4680 C.3    64  C64         0.2420
   1376   N.1      56.4650   -4.9000    3.1280 N.ar   64  C64        -0.2535
   1377   C.2      56.5620   -6.2310    2.6790 C.ar   64  C64         0.3532
   1378   O.2      55.8870   -6.6180    1.7160 O.2    64  C64        -0.2443
   1379   N.3      57.4040   -7.0750    3.3000 N.ar   64  C64        -0.1739
   1380   C4       58.1220   -6.6500    4.3250 C.ar   64  C64         0.1759
   1381   N.4      58.9320   -7.5150    4.9030 N.pl3  64  C64        -0.1070
   1382   C5       58.0490   -5.3150    4.8000 C.ar   64  C64         0.0566
   1383   C6       57.2100   -4.4760    4.1960 C.ar   64  C64         0.0850
   1384    P.3     52.0680   -3.3210    5.6060 P.3    65  C65         0.2141
   1385  OP1       50.7580   -2.6340    5.7860 O.2    65  C65        -0.5172
   1386  OP2       52.9010   -3.5050    6.8200 O.3    65  C65        -0.4373
   1387  O5'       51.7920   -4.7140    4.8720 O.3    65  C65        -0.3114
   1388  C5'       51.7180   -5.9170    5.6170 C.3    65  C65         0.1812
   1389  C4'       51.7010   -7.1190    4.7200 C.3    65  C65         0.1773
   1390  O4'       53.0030   -7.2980    4.1070 O.3    65  C65        -0.3307
   1391  C3'       51.4520   -8.4290    5.4360 C.3    65  C65         0.1860
   1392  O3'       50.0900   -8.6570    5.6770 O.3    65  C65        -0.3112
   1393  C2'       52.0760   -9.4380    4.4940 C.3    65  C65         0.2309
   1394  O2'       51.2250   -9.6150    3.3690 O.3    65  C65        -0.2156
   1395  C1'       53.3250   -8.6800    4.0490 C.3    65  C65         0.2420
   1396   N.1      54.4980   -8.9230    4.9380 N.ar   65  C65        -0.2535
   1397   C.2      55.2840  -10.0850    4.8690 C.ar   65  C65         0.3532
   1398   O.2      54.9900  -10.9810    4.0690 O.2    65  C65        -0.2443
   1399   N.3      56.3570  -10.2250    5.6830 N.ar   65  C65        -0.1739
   1400   C4       56.6750   -9.2790    6.5650 C.ar   65  C65         0.1759
   1401   N.4      57.7340   -9.4730    7.3570 N.pl3  65  C65        -0.1070
   1402   C5       55.9150   -8.0910    6.6670 C.ar   65  C65         0.0566
   1403   C6       54.8700   -7.9620    5.8430 C.ar   65  C65         0.0850
   1404    P.3     49.6330   -9.2140    7.1100 P.3    66  U66         0.2141
   1405  OP1       48.1830   -8.8710    7.1960 O.2    66  U66        -0.5172
   1406  OP2       50.5680   -8.7080    8.1760 O.3    66  U66        -0.4373
   1407  O5'       49.8340  -10.7920    6.9640 O.3    66  U66        -0.3114
   1408  C5'       49.3370  -11.4840    5.8320 C.3    66  U66         0.1812
   1409  C4'       49.8780  -12.8860    5.7690 C.3    66  U66         0.1773
   1410  O4'       51.2380  -12.8350    5.2870 O.3    66  U66        -0.3307
   1411  C3'       50.0000  -13.6260    7.0900 C.3    66  U66         0.1860
   1412  O3'       48.7880  -14.1730    7.5600 O.3    66  U66        -0.3112
   1413  C2'       51.0680  -14.6620    6.7840 C.3    66  U66         0.2309
   1414  O2'       50.5590  -15.7270    5.9840 O.3    66  U66        -0.2156
   1415  C1'       52.0110  -13.8360    5.9220 C.3    66  U66         0.2420
   1416   N.1      53.0510  -13.1910    6.7510 N.ar   66  U66        -0.2534
   1417   C.2      54.1090  -13.9850    7.1110 C.ar   66  U66         0.3546
   1418   O.2      54.2310  -15.1460    6.7550 O.2    66  U66        -0.2443
   1419   N.3      55.0310  -13.3560    7.8950 N.ar   66  U66        -0.1530
   1420   C4       55.0040  -12.0660    8.3510 C.ar   66  U66         0.2846
   1421   O4       55.9440  -11.6660    9.0430 O.2    66  U66        -0.2650
   1422   C5       53.8630  -11.3180    7.9410 C.ar   66  U66         0.0814
   1423   C6       52.9480  -11.8930    7.1750 C.ar   66  U66         0.0870
   1424    P.3     48.5300  -14.3070    9.1420 P.3    67  G67         0.2141
   1425  OP1       47.1420  -14.8150    9.1850 O.2    67  G67        -0.5172
   1426  OP2       48.9420  -13.1120    9.9260 O.3    67  G67        -0.4373
   1427  O5'       49.5360  -15.4470    9.6230 O.3    67  G67        -0.3114
   1428  C5'       49.4970  -16.7460    9.0580 C.3    67  G67         0.1812
   1429  C4'       50.7250  -17.5440    9.4270 C.3    67  G67         0.1773
   1430  O4'       51.9370  -16.8580    9.0320 O.3    67  G67        -0.3307
   1431  C3'       50.9550  -17.8160   10.9020 C.3    67  G67         0.1860
   1432  O3'       50.1060  -18.8160   11.4090 O.3    67  G67        -0.3112
   1433  C2'       52.4110  -18.2280   10.9020 C.3    67  G67         0.2309
   1434  O2'       52.5270  -19.5240   10.3300 O.3    67  G67        -0.2156
   1435  C1'       52.9890  -17.2450    9.8940 C.3    67  G67         0.2408
   1436   N9       53.6150  -16.0600   10.5100 N.ar   67  G67        -0.2693
   1437   C8       53.2160  -14.7520   10.6020 C.ar   67  G67         0.1817
   1438   N7       54.1040  -13.9710   11.1890 N.ar   67  G67        -0.2173
   1439   C5       55.1650  -14.8170   11.4790 C.ar   67  G67         0.1748
   1440   C6       56.4290  -14.5980   12.1060 C.ar   67  G67         0.3023
   1441   O6       56.9540  -13.5720   12.5820 O.2    67  G67        -0.2633
   1442   N.1      57.1680  -15.7710   12.1780 N.ar   67  G67        -0.1709
   1443   C.2      56.7590  -16.9810   11.7200 C.ar   67  G67         0.2606
   1444   N.2      57.6210  -17.9740   11.8720 N.pl3  67  G67        -0.0859
   1445   N.3      55.6080  -17.2060   11.1430 N.ar   67  G67        -0.1918
   1446   C4       54.8660  -16.0910   11.0600 C.ar   67  G67         0.1723
   1447    P.3     49.9320  -19.0080   12.9930 P.3    68  G68         0.2141
   1448  OP1       48.7080  -19.8400   13.1040 O.2    68  G68        -0.5172
   1449  OP2       50.1110  -17.7390   13.7660 O.3    68  G68        -0.4373
   1450  O5'       51.1550  -19.9300   13.4000 O.3    68  G68        -0.3114
   1451  C5'       51.9710  -19.5670   14.4930 C.3    68  G68         0.1812
   1452  C4'       53.3630  -20.0790   14.2900 C.3    68  G68         0.1773
   1453  O4'       54.1400  -19.1240   13.5250 O.3    68  G68        -0.3307
   1454  C3'       54.1760  -20.2750   15.5520 C.3    68  G68         0.1860
   1455  O3'       53.8380  -21.4790   16.2280 O.3    68  G68        -0.3112
   1456  C2'       55.5910  -20.2460   15.0070 C.3    68  G68         0.2309
   1457  O2'       55.8480  -21.4380   14.2720 O.3    68  G68        -0.2156
   1458  C1'       55.4720  -19.1090   13.9970 C.3    68  G68         0.2408
   1459   N9       55.7710  -17.7790   14.5980 N.ar   68  G68        -0.2693
   1460   C8       54.9030  -16.7220   14.7340 C.ar   68  G68         0.1817
   1461   N7       55.4260  -15.6790   15.3110 N.ar   68  G68        -0.2173
   1462   C5       56.7370  -16.0570   15.5860 C.ar   68  G68         0.1748
   1463   C6       57.8170  -15.3340   16.2020 C.ar   68  G68         0.3023
   1464   O6       57.8360  -14.1740   16.6520 O.2    68  G68        -0.2633
   1465   N.1      58.9900  -16.0840   16.2730 N.ar   68  G68        -0.1709
   1466   C.2      59.1210  -17.3640   15.8110 C.ar   68  G68         0.2606
   1467   N.2      60.3320  -17.9080   15.9760 N.pl3  68  G68        -0.0859
   1468   N.3      58.1340  -18.0430   15.2360 N.ar   68  G68        -0.1918
   1469   C4       56.9700  -17.3420   15.1460 C.ar   68  G68         0.1723
   1470    P.3     53.3860  -21.4790   17.7750 P.3    69  G69         0.2141
   1471  OP1       52.1340  -22.2770   17.8860 O.2    69  G69        -0.5172
   1472  OP2       53.4430  -20.1090   18.3420 O.3    69  G69        -0.4373
   1473  O5'       54.5320  -22.3300   18.4600 O.3    69  G69        -0.3114
   1474  C5'       55.4140  -21.7200   19.3790 C.3    69  G69         0.1812
   1475  C4'       56.8480  -21.9260   18.9850 C.3    69  G69         0.1773
   1476  O4'       57.1910  -20.9500   17.9710 O.3    69  G69        -0.3307
   1477  C3'       57.8310  -21.6680   20.1150 C.3    69  G69         0.1860
   1478  O3'       58.0370  -22.8020   20.9350 O.3    69  G69        -0.3112
   1479  C2'       59.0650  -21.1500   19.3940 C.3    69  G69         0.2309
   1480  O2'       59.7870  -22.2240   18.8230 O.3    69  G69        -0.2156
   1481  C1'       58.4290  -20.3420   18.2700 C.3    69  G69         0.2408
   1482   N9       58.1280  -18.9490   18.6620 N.ar   69  G69        -0.2693
   1483   C8       56.8840  -18.3610   18.5350 C.ar   69  G69         0.1817
   1484   N7       56.8360  -17.1210   18.9330 N.ar   69  G69        -0.2173
   1485   C5       58.1400  -16.8660   19.3580 C.ar   69  G69         0.1748
   1486   C6       58.7110  -15.6750   19.8900 C.ar   69  G69         0.3023
   1487   O6       58.1550  -14.5780   20.1000 O.2    69  G69        -0.2633
   1488   N.1      60.0660  -15.8310   20.1770 N.ar   69  G69        -0.1709
   1489   C.2      60.7880  -16.9740   19.9790 C.ar   69  G69         0.2606
   1490   N.2      62.0900  -16.9120   20.3270 N.pl3  69  G69        -0.0859
   1491   N.3      60.2660  -18.0950   19.4930 N.ar   69  G69        -0.1918
   1492   C4       58.9520  -17.9760   19.1980 C.ar   69  G69         0.1723
   1493    P.3     57.5610  -22.7450   22.4720 P.3    70  C70         0.2141
   1494  OP1       57.4890  -24.1550   22.9620 O.3    70  C70        -0.4373
   1495  OP2       56.3400  -21.8850   22.5940 O.2    70  C70        -0.5172
   1496  O5'       58.7640  -21.9710   23.1710 O.3    70  C70        -0.3114
   1497  C5'       60.0870  -22.3390   22.8690 C.3    70  C70         0.1812
   1498  C4'       61.0160  -21.1900   23.0870 C.3    70  C70         0.1773
   1499  O4'       60.6280  -20.0940   22.2400 O.3    70  C70        -0.3307
   1500  C3'       61.0190  -20.5800   24.4740 C.3    70  C70         0.1860
   1501  O3'       61.7540  -21.3470   25.4030 O.3    70  C70        -0.3112
   1502  C2'       61.6090  -19.2040   24.2020 C.3    70  C70         0.2309
   1503  O2'       63.0080  -19.2990   23.9730 O.3    70  C70        -0.2156
   1504  C1'       60.9670  -18.8720   22.8610 C.3    70  C70         0.2420
   1505   N.1      59.7460  -18.0510   22.9560 N.ar   70  C70        -0.2535
   1506   C.2      59.8150  -16.7150   23.3690 C.ar   70  C70         0.3532
   1507   O.2      60.9090  -16.2330   23.7170 O.2    70  C70        -0.2443
   1508   N.3      58.6740  -15.9920   23.3900 N.ar   70  C70        -0.1739
   1509   C4       57.5200  -16.5450   23.0000 C.ar   70  C70         0.1759
   1510   N.4      56.4060  -15.7980   23.0320 N.pl3  70  C70        -0.1070
   1511   C5       57.4460  -17.8970   22.5620 C.ar   70  C70         0.0566
   1512   C6       58.5710  -18.6060   22.5440 C.ar   70  C70         0.0850
   1513    P.3     61.0260  -21.9870   26.6870 P.3    71  A71         0.2141
   1514  OP1       61.8050  -23.2150   27.0240 O.3    71  A71        -0.4373
   1515  OP2       59.5590  -22.1110   26.4690 O.2    71  A71        -0.5172
   1516  O5'       61.2510  -20.8750   27.8010 O.3    71  A71        -0.3114
   1517  C5'       62.5600  -20.4160   28.0970 C.3    71  A71         0.1812
   1518  C4'       62.5640  -18.9380   28.3850 C.3    71  A71         0.1773
   1519  O4'       62.0640  -18.2110   27.2320 O.3    71  A71        -0.3307
   1520  C3'       61.6500  -18.4700   29.5050 C.3    71  A71         0.1860
   1521  O3'       62.1210  -18.7450   30.8100 O.3    71  A71        -0.3112
   1522  C2'       61.4880  -16.9960   29.1800 C.3    71  A71         0.2309
   1523  O2'       62.6860  -16.2910   29.4830 O.3    71  A71        -0.2156
   1524  C1'       61.3430  -17.0690   27.6620 C.3    71  A71         0.2408
   1525   N9       59.9350  -17.2290   27.2570 N.ar   71  A71        -0.2693
   1526   C8       59.2500  -18.3820   26.9470 C.ar   71  A71         0.1816
   1527   N7       57.9950  -18.1780   26.6080 N.ar   71  A71        -0.2193
   1528   C5       57.8520  -16.8010   26.7140 C.ar   71  A71         0.1518
   1529   C6       56.7570  -15.9430   26.4980 C.ar   71  A71         0.1919
   1530   N6       55.5460  -16.3710   26.1060 N.pl3  71  A71        -0.1054
   1531   N.1      56.9660  -14.6120   26.6880 N.ar   71  A71        -0.2040
   1532   C.2      58.1820  -14.1840   27.0680 C.ar   71  A71         0.2016
   1533   N.3      59.2840  -14.8920   27.3040 N.ar   71  A71        -0.2048
   1534   C4       59.0400  -16.2030   27.1090 C.ar   71  A71         0.1692
   1535    P.3     61.0590  -18.9960   31.9960 P.3    72  U72         0.2141
   1536  OP1       60.6200  -17.6450   32.4650 O.2    72  U72        -0.5172
   1537  OP2       61.6940  -19.9780   32.9070 O.3    72  U72        -0.4373
   1538  O5'       59.8120  -19.7440   31.3190 O.3    72  U72        -0.3114
   1539  C5'       59.9230  -21.0820   30.8270 C.3    72  U72         0.1812
   1540  C4'       58.6190  -21.8390   30.9090 C.3    72  U72         0.1773
   1541  O4'       57.5080  -20.8970   30.9560 O.3    72  U72        -0.3307
   1542  C3'       58.3230  -22.7920   29.7420 C.3    72  U72         0.1860
   1543  O3'       57.6840  -23.9740   30.2480 O.3    72  U72        -0.3112
   1544  C2'       57.3340  -21.9850   28.8870 C.3    72  U72         0.2309
   1545  O2'       56.4760  -22.7530   28.0580 O.3    72  U72        -0.2156
   1546  C1'       56.5550  -21.2370   29.9670 C.3    72  U72         0.2420
   1547   N.1      55.8230  -20.0300   29.5200 N.ar   72  U72        -0.2534
   1548   C.2      56.3640  -18.7400   29.6130 C.ar   72  U72         0.3546
   1549   O.2      57.4940  -18.4680   30.0160 O.2    72  U72        -0.2443
   1550   N.3      55.5180  -17.7330   29.1810 N.ar   72  U72        -0.1530
   1551   C4       54.2250  -17.8630   28.6920 C.ar   72  U72         0.2846
   1552   O4       53.6030  -16.8540   28.3430 O.2    72  U72        -0.2650
   1553   C5       53.7310  -19.2100   28.6410 C.ar   72  U72         0.0814
   1554   C6       54.5300  -20.2050   29.0510 C.ar   72  U72         0.0870
   1555    P.3     58.2410  -25.4510   29.8980 P.3    73  C73         0.2141
   1556  OP1       57.9540  -25.7860   28.4760 O.2    73  C73        -0.5172
   1557  OP2       57.7250  -26.3650   30.9560 O.3    73  C73        -0.4373
   1558  O5'       59.8220  -25.3430   30.0850 O.3    73  C73        -0.3114
   1559  C5'       60.4040  -25.5940   31.3590 C.3    73  C73         0.1813
   1560  C4'       61.6520  -26.4470   31.2810 C.3    73  C73         0.1801
   1561  O4'       61.3260  -27.8460   31.0090 O.3    73  C73        -0.3306
   1562  C3'       62.6910  -26.0390   30.2310 C.3    73  C73         0.2161
   1563  O3'       63.9840  -26.2160   30.8080 O.3    73  C73        -0.2175
   1564  C2'       62.4820  -27.0870   29.1330 C.3    73  C73         0.2338
   1565  O2'       63.5880  -27.2780   28.2700 O.3    73  C73        -0.2155
   1566  C1'       62.1790  -28.3190   29.9810 C.3    73  C73         0.2421
   1567   N.1      61.5590  -29.4650   29.2890 N.ar   73  C73        -0.2535
   1568   C.2      62.3510  -30.6220   29.1470 C.ar   73  C73         0.3532
   1569   O.2      63.5190  -30.6330   29.5920 O.2    73  C73        -0.2443
   1570   N.3      61.8170  -31.6990   28.5190 N.ar   73  C73        -0.1739
   1571   C4       60.5580  -31.6620   28.0570 C.ar   73  C73         0.1759
   1572   N.4      60.0760  -32.7550   27.4500 N.pl3  73  C73        -0.1070
   1573   C5       59.7330  -30.5020   28.1960 C.ar   73  C73         0.0566
   1574   C6       60.2700  -29.4360   28.8140 C.ar   73  C73         0.0850
@<TRIPOS>BOND
     1   570   569    2
     2   547   546    2
     3   593   592    2
     4   594   592    1
     5   422   423    1
     6   422   421    1
     7   571   569    1
     8   569   572    1
     9   569   554    1
    10   423   424    1
    11   423   425    1
    12   592   595    1
    13   592   577    1
    14   595   596    1
    15   546   548    1
    16   546   531    1
    17   546   549    1
    18   420   418    2
    19   424   429    1
    20   419   418    1
    21   524   523    2
    22   596   597    1
    23   531   530    1
    24   572   573    1
    25   418   421    1
    26   418   404    1
    27   554   553    1
    28   598   597    1
    29   598   603    1
    30   550   549    1
    31   550   551    1
    32   426   425    1
    33   426   438    1
    34   573   574    1
    35   428   427    1
    36   597   599    1
    37   425   427    1
    38   429   427    1
    39   429   430    1
    40   374   373    2
    41   439   438    2
    42   577   576    1
    43   397   396    2
    44   527   526    1
    45   527   528    1
    46   553   551    1
    47   553   555    1
    48   551   552    1
    49   523   526    1
    50   523   525    1
    51   523   511    1
    52   603   604    1
    53   603   601    1
    54   438   440    1
    55   438   441    1
    56   530   528    1
    57   530   532    1
    58   605   604   ar
    59   605   606   ar
    60   574   576    1
    61   574   575    1
    62   351   350    2
    63   430   437   ar
    64   430   431   ar
    65   576   578    1
    66   398   396    1
    67   528   529    1
    68   404   403    1
    69   437   436   ar
    70   602   601    1
    71   599   600    1
    72   599   601    1
    73   604   613   ar
    74   373   375    1
    75   373   358    1
    76   373   376    1
    77   396   399    1
    78   396   381    1
    79   533   532    1
    80   511   510    1
    81   600   614    1
    82   606   607   ar
    83   442   441    1
    84   442   443    1
    85   532   534    1
    86   403   405    1
    87   403   401    1
    88   432   431    2
    89   358   357    1
    90   431   433   ar
    91   555   556    1
    92   555   557    1
    93   552   557    1
    94   436   434   ar
    95   575   580    1
    96   399   400    1
    97   376   377    1
    98   616   614    2
    99   613   607   ar
   100   613   612   ar
   101   377   378    1
   102   354   353    1
   103   354   355    1
   104   350   353    1
   105   350   352    1
   106   350   338    1
   107   607   608   ar
   108   529   534    1
   109   400   401    1
   110   381   380    1
   111   578   579    1
   112   578   580    1
   113   582   583   ar
   114   582   581   ar
   115   614   615    1
   116   614   617    1
   117   505   503    2
   118   559   560   ar
   119   559   558   ar
   120   405   406    1
   121   405   407    1
   122   557   558    1
   123   443   444    1
   124   443   445    1
   125   401   402    1
   126   510   508    1
   127   510   512    1
   128   433   434   ar
   129   338   337    1
   130   612   611   ar
   131   534   535    1
   132   583   584   ar
   133   434   435    2
   134   580   581    1
   135   355   357    1
   136   355   356    1
   137   357   359    1
   138   444   449    1
   139   513   512    1
   140   560   561   ar
   141   558   568   ar
   142   581   591   ar
   143   507   508    1
   144   507   506    1
   145   378   380    1
   146   378   379    1
   147   380   382    1
   148   608   609    1
   149   608   610   ar
   150   508   509    1
   151   512   514    1
   152   536   535   ar
   153   536   537   ar
   154   506   503    1
   155   535   545   ar
   156   503   504    1
   157   503   488    1
   158   611   610   ar
   159   617   618    1
   160   360   359    1
   161   402   407    1
   162   584   591   ar
   163   584   585   ar
   164   407   408    1
   165   445   446    1
   166   445   447    1
   167   561   568   ar
   168   561   562   ar
   169   446   458    1
   170   568   567   ar
   171   591   590   ar
   172   359   361    1
   173   459   458    2
   174   331   330    2
   175   633   632   ar
   176   633   634   ar
   177   457   456   ar
   178   457   450   ar
   179   337   335    1
   180   337   339    1
   181   340   339    1
   182   409   408   ar
   183   409   410   ar
   184   356   361    1
   185   449   450    1
   186   449   447    1
   187   334   335    1
   188   334   333    1
   189   537   538   ar
   190   618   619    1
   191   632   630   ar
   192   379   384    1
   193   335   336    1
   194   545   544   ar
   195   545   538   ar
   196   408   417   ar
   197   634   635   ar
   198   456   454   ar
   199   382   383    1
   200   382   384    1
   201   509   514    1
   202   585   586    2
   203   585   587   ar
   204   458   460    1
   205   458   461    1
   206   514   515    1
   207   450   451   ar
   208   567   565   ar
   209   339   341    1
   210   488   487    1
   211   590   588   ar
   212   562   563    2
   213   562   564   ar
   214   333   330    1
   215   447   448    1
   216   544   542   ar
   217   538   539   ar
   218   361   362    1
   219   620   619    1
   220   620   625    1
   221   410   411   ar
   222   330   315    1
   223   330   332    1
   224   630   631    1
   225   630   629   ar
   226   384   385    1
   227   386   385   ar
   228   386   387   ar
   229   619   621    1
   230   635   629   ar
   231   635   626   ar
   232   515   522   ar
   233   515   516   ar
   234   587   588   ar
   235   565   564   ar
   236   565   566    1
   237   588   589    1
   238   522   521   ar
   239   363   362   ar
   240   363   364   ar
   241   454   455    2
   242   454   453   ar
   243   417   411   ar
   244   417   416   ar
   245   362   372   ar
   246   490   489    1
   247   336   341    1
   248   542   541   ar
   249   542   543    1
   250   385   395   ar
   251   629   628   ar
   252   539   541   ar
   253   539   540    2
   254   451   453   ar
   255   451   452    2
   256   517   516    2
   257   461   462    1
   258   387   388   ar
   259   516   518   ar
   260   341   342    1
   261   315   314    1
   262   411   412   ar
   263   625   626    1
   264   625   623    1
   265   487   489    1
   266   487   485    1
   267   626   627   ar
   268   521   519   ar
   269   489   491    1
   270   416   415   ar
   271   621   623    1
   272   621   622    1
   273   364   365   ar
   274   637   636    2
   275   518   519   ar
   276   485   484    1
   277   485   486    1
   278   628   627   ar
   279   372   371   ar
   280   372   365   ar
   281   519   520    2
   282   395   388   ar
   283   395   394   ar
   284   484   483    1
   285   342   349   ar
   286   342   343   ar
   287   462   463    1
   288   317   316    1
   289   388   389   ar
   290   371   369   ar
   291   623   624    1
   292   349   348   ar
   293   481   480    2
   294   365   366   ar
   295   412   413    1
   296   412   414   ar
   297   622   636    1
   298   314   316    1
   299   314   312    1
   300   675   674    1
   301   344   343    2
   302   717   716   ar
   303   717   718   ar
   304   415   414   ar
   305   316   318    1
   306   343   345   ar
   307   491   486    1
   308   491   492    1
   309   716   714   ar
   310   636   639    1
   311   636   638    1
   312   394   392   ar
   313   465   467    1
   314   465   463    1
   315   465   466    1
   316   673   674   ar
   317   673   671   ar
   318   692   691    2
   319   718   719   ar
   320  1361  1360    1
   321   308   307    2
   322   369   370    1
   323   369   368   ar
   324   348   346   ar
   325   693   691   ar
   326   693   694   ar
   327   389   390    2
   328   389   391   ar
   329   312   311    1
   330   312   313    1
   331   467   468    1
   332   467   469    1
   333   463   464    1
   334   674   676   ar
   335   483   480    1
   336   695   694    1
   337   366   368   ar
   338   366   367    2
   339   311   310    1
   340   492   502   ar
   341   492   493   ar
   342   471   472   ar
   343   471   470   ar
   344   639   640    1
   345   480   466    1
   346   480   482    1
   347   501   502   ar
   348   501   499   ar
   349   691   690   ar
   350   672   671    2
   351   345   346   ar
   352   714   715    1
   353   714   713   ar
   354   500   499    1
   355   694   696   ar
   356   671   670   ar
   357   502   495   ar
   358   346   347    1
   359   392   391   ar
   360   392   393    1
   361   472   473   ar
   362   310   307    1
   363   493   494   ar
   364   719   713   ar
   365   719   710   ar
   366   499   498   ar
   367   464   469    1
   368   318   313    1
   369   318   319    1
   370  1360  1362   ar
   371  1360  1359   ar
   372   307   309    1
   373   307   292    1
   374   469   470    1
   375   713   712   ar
   376   676   677   ar
   377   470   479   ar
   378   734   733    2
   379   327   326    1
   380   495   494   ar
   381   495   496   ar
   382   328   326   ar
   383   328   329   ar
   384   690   689    1
   385   690   697   ar
   386   708   707    1
   387  1362  1363   ar
   388   498   496   ar
   389  1359  1357   ar
   390   709   710    1
   391   709   704    1
   392   709   707    1
   393   710   711   ar
   394   640   641    1
   395   696   697   ar
   396   670   677   ar
   397   670   669    1
   398   326   325   ar
   399   496   497    2
   400   642   641    1
   401   642   647    1
   402   689   684    1
   403   689   687    1
   404   319   329   ar
   405   319   320   ar
   406   473   479   ar
   407   473   474   ar
   408  1378  1377    2
   409   329   322   ar
   410   712   711   ar
   411   733   735   ar
   412   733   732   ar
   413   730   729    1
   414   704   703    1
   415   688   687    1
   416   731   726    1
   417   731   732    1
   418   731   729    1
   419   479   478   ar
   420   707   705    1
   421  1374  1373    1
   422   641   643    1
   423   292   291    1
   424   726   725    1
   425   655   654   ar
   426   655   656   ar
   427  1335  1334    2
   428   654   652   ar
   429   656   657   ar
   430   684   683    1
   431   735   736   ar
   432  1351  1350    1
   433   320   321   ar
   434  1363  1356   ar
   435  1363  1353   ar
   436   325   323   ar
   437   475   474    1
   438   669   667    1
   439   669   664    1
   440   687   685    1
   441   732   739   ar
   442  1375  1370    1
   443  1375  1373    1
   444  1375  1376    1
   445  1357  1358    2
   446  1357  1356   ar
   447   652   653    1
   448   652   651   ar
   449   657   651   ar
   450   657   648   ar
   451   474   476   ar
   452   647   648    1
   453   647   645    1
   454   322   323   ar
   455   322   321   ar
   456   651   650   ar
   457  1370  1369    1
   458  1377  1376   ar
   459  1377  1379   ar
   460   648   649   ar
   461   729   727    1
   462  1336  1334   ar
   463  1336  1337   ar
   464  1352  1353    1
   465  1352  1350    1
   466  1352  1347    1
   467   650   649   ar
   468  1318  1317    1
   469   703   705    1
   470   703   702    1
   471   323   324    2
   472  1356  1355   ar
   473   750   749    1
   474  1334  1333   ar
   475  1373  1371    1
   476  1353  1354   ar
   477  1376  1383   ar
   478   725   727    1
   479   725   724    1
   480   478   477   ar
   481   667   668    1
   482   667   665    1
   483  1316  1317   ar
   484  1316  1314   ar
   485   736   737    1
   486   736   738   ar
   487  1379  1380   ar
   488   746   751    1
   489   746   745    1
   490  1350  1348    1
   491  1394  1393    1
   492   705   706    1
   493   664   663    1
   494   751   749    1
   495   751   752    1
   496   291   293    1
   497   291   289    1
   498  1369  1371    1
   499  1369  1368    1
   500   739   738   ar
   501  1338  1337    1
   502   294   293    1
   503  1347  1346    1
   504   643   645    1
   505   643   644    1
   506   683   685    1
   507   683   682    1
   508  1317  1319   ar
   509  1315  1314    2
   510  1337  1339   ar
   511   293   295    1
   512   760   759    1
   513   476   477   ar
   514   685   686    1
   515   761   759   ar
   516   761   762   ar
   517   727   728    1
   518   645   646    1
   519   745   744    1
   520   745   747    1
   521   724   723    1
   522  1314  1313   ar
   523  1296  1295    1
   524   749   747    1
   525  1395  1390    1
   526  1395  1393    1
   527  1395  1396    1
   528  1398  1397    2
   529   702   701    1
   530   706   720    1
   531  1390  1389    1
   532  1371  1372    1
   533  1355  1354   ar
   534   759   758   ar
   535  1331  1330    1
   536   752   762   ar
   537   752   753   ar
   538  1333  1332    1
   539  1333  1340   ar
   540  1383  1382   ar
   541  1368  1367    1
   542   644   658    1
   543  1346  1348    1
   544  1346  1345    1
   545  1380  1382   ar
   546  1380  1381    1
   547  1332  1330    1
   548  1332  1327    1
   549   762   755   ar
   550  1297  1295   ar
   551  1297  1298   ar
   552   304   303    1
   553   728   740    1
   554  1393  1391    1
   555   289   288    1
   556   289   290    1
   557  1295  1294   ar
   558  1372  1384    1
   559   701   698    1
   560   665   663    1
   561   665   666    1
   562   744   743    1
   563  1348  1349    1
   564   682   681    1
   565   287   288    1
   566   287   284    1
   567   663   662    1
   568  1389  1391    1
   569  1389  1388    1
   570   686   698    1
   571  1330  1328    1
   572   753   754   ar
   573   723   720    1
   574  1339  1340   ar
   575   747   748    1
   576  1397  1396   ar
   577  1397  1399   ar
   578  1387  1384    1
   579  1387  1388    1
   580  1298  1299   ar
   581   758   756   ar
   582  1319  1320   ar
   583  1396  1403   ar
   584   681   678    1
   585   305   303   ar
   586   305   306   ar
   587   303   302   ar
   588  1349  1364    1
   589   755   754   ar
   590   755   756   ar
   591  1294  1293   ar
   592  1294  1300   ar
   593   295   290    1
   594   295   296    1
   595   748   763    1
   596   285   284    2
   597  1313  1320   ar
   598  1313  1312    1
   599   743   740    1
   600  1410  1409    1
   601  1410  1415    1
   602  1327  1326    1
   603   286   284    1
   604  1367  1364    1
   605   720   721    2
   606   720   722    1
   607   756   757    2
   608  1293  1292   ar
   609  1391  1392    1
   610  1299  1300   ar
   611  1345  1344    1
   612   302   300   ar
   613   306   296   ar
   614   306   299   ar
   615   284   272    1
   616  1300  1291   ar
   617   666   678    1
   618  1384  1385    2
   619  1384  1386    1
   620   698   699    2
   621   698   700    1
   622   296   297   ar
   623  1392  1404    1
   624   769   768    1
   625   769   774    1
   626  1399  1400   ar
   627   662   661    1
   628  1409  1408    1
   629  1409  1411    1
   630   740   741    2
   631   740   742    1
   632  1408  1407    1
   633  1403  1402   ar
   634   658   661    1
   635   658   660    2
   636   658   659    1
   637  1415  1416    1
   638  1415  1413    1
   639  1414  1413    1
   640  1292  1291   ar
   641  1312  1310    1
   642  1312  1307    1
   643   767   768    1
   644   767   766    1
   645   299   300   ar
   646   299   298   ar
   647   678   680    2
   648   678   679    1
   649  1291  1290    1
   650   300   301    2
   651   768   770    1
   652  1285  1290    1
   653  1285  1284    1
   654  1364  1365    2
   655  1364  1366    1
   656  1328  1326    1
   657  1328  1329    1
   658   297   298   ar
   659  1326  1325    1
   660  1344  1341    1
   661   774   775    1
   662   774   772    1
   663   773   772    1
   664  1400  1402   ar
   665  1400  1401    1
   666  1310  1311    1
   667  1310  1308    1
   668   764   763    2
   669   763   766    1
   670   763   765    1
   671  1416  1417   ar
   672  1416  1423   ar
   673  1418  1417    2
   674  1290  1288    1
   675  1413  1411    1
   676  1329  1341    1
   677  1407  1404    1
   678   272   271    1
   679  1411  1412    1
   680  1307  1306    1
   681  1404  1405    2
   682  1404  1406    1
   683  1417  1419   ar
   684   775   782   ar
   685   775   776   ar
   686  1423  1422   ar
   687   782   781   ar
   688  1284  1283    1
   689  1284  1286    1
   690  1283  1282    1
   691   772   770    1
   692   770   771    1
   693  1412  1424    1
   694  1341  1343    2
   695  1341  1342    1
   696  1325  1324    1
   697  1282  1279    1
   698  1280  1279    2
   699   776   777    2
   700   776   778   ar
   701   781   779   ar
   702   271   273    1
   703   271   269    1
   704  1419  1420   ar
   705  1422  1420   ar
   706  1308  1306    1
   707  1308  1309    1
   708   771   783    1
   709  1324  1321    1
   710  1288  1286    1
   711  1288  1289    1
   712  1420  1421    2
   713  1306  1305    1
   714   778   779   ar
   715   273   274    1
   716   273   275    1
   717   779   780    2
   718  1286  1287    1
   719  1287  1301    1
   720  1279  1281    1
   721  1279  1264    1
   722  1309  1321    1
   723   268   269    1
   724   268   267    1
   725  1430  1429    1
   726  1430  1435    1
   727  1428  1429    1
   728  1428  1427    1
   729   269   270    1
   730  1424  1425    2
   731  1424  1427    1
   732  1424  1426    1
   733   278   277    2
   734  1302  1301    2
   735  1304  1305    1
   736  1304  1301    1
   737  1321  1323    2
   738  1321  1322    1
   739  1429  1431    1
   740   279   277   ar
   741   279   280   ar
   742   277   276   ar
   743  1301  1303    1
   744  1264  1263    1
   745   783   784    2
   746   783   785    1
   747   783   786    1
   748  1266  1265    1
   749   281   280    2
   750   787   788    1
   751   787   786    1
   752   789   788    1
   753   789   794    1
   754   265   264    2
   755   280   282   ar
   756   276   275    1
   757   276   283   ar
   758   275   270    1
   759  1435  1436    1
   760  1435  1433    1
   761   283   282   ar
   762   266   264    1
   763   788   790    1
   764   267   264    1
   765  1434  1433    1
   766   264   252    1
   767  1436  1437   ar
   768  1436  1446   ar
   769  1437  1438   ar
   770   796   795   ar
   771   796   797   ar
   772   794   795    1
   773   794   792    1
   774  1263  1265    1
   775  1263  1261    1
   776  1265  1267    1
   777  1431  1433    1
   778  1431  1432    1
   779   795   805   ar
   780   797   798   ar
   781  1446  1445   ar
   782  1446  1439   ar
   783  1445  1443   ar
   784  1438  1439   ar
   785  1267  1268    1
   786  1267  1262    1
   787  1269  1268   ar
   788  1269  1270   ar
   789  1432  1447    1
   790  1439  1440   ar
   791   798   805   ar
   792   798   799   ar
   793   805   804   ar
   794  1443  1444    1
   795  1443  1442   ar
   796   790   792    1
   797   790   791    1
   798   793   792    1
   799  1268  1278   ar
   800  1270  1271   ar
   801  1261  1262    1
   802  1261  1260    1
   803   804   802   ar
   804   799   800    2
   805   799   801   ar
   806   252   251    1
   807  1440  1442   ar
   808  1440  1441    2
   809   802   801   ar
   810   802   803    1
   811   791   806    1
   812  1278  1271   ar
   813  1278  1277   ar
   814  1271  1272   ar
   815   251   253    1
   816   251   249    1
   817   261   260    1
   818  1447  1448    2
   819  1447  1450    1
   820  1447  1449    1
   821  1277  1275   ar
   822   253   254    1
   823   253   255    1
   824  1260  1259    1
   825  1272  1273    2
   826  1272  1274   ar
   827   260   259   ar
   828   260   262   ar
   829   259   257   ar
   830  1450  1451    1
   831  1259  1256    1
   832  1453  1458    1
   833  1453  1452    1
   834   246   244    2
   835   262   263   ar
   836   257   258    2
   837   257   256   ar
   838  1275  1274   ar
   839  1275  1276    1
   840   263   256   ar
   841  1458  1459    1
   842  1458  1456    1
   843   256   255    1
   844   806   808    2
   845   806   807    1
   846   806   809    1
   847   245   244    1
   848   247   244    1
   849   247   248    1
   850   820   819   ar
   851   820   821   ar
   852   823   822    2
   853  1257  1256    2
   854  1457  1456    1
   855   249   248    1
   856   249   250    1
   857  1452  1451    1
   858  1452  1454    1
   859   255   250    1
   860   819   818   ar
   861   244   230    1
   862   822   821   ar
   863   822   824   ar
   864   821   828   ar
   865  1256  1258    1
   866  1256  1244    1
   867  1459  1460   ar
   868  1459  1469   ar
   869   809   810    1
   870   812   817    1
   871   812   811    1
   872  1460  1461   ar
   873   818   828   ar
   874   818   817    1
   875   828   827   ar
   876   824   825   ar
   877  1456  1454    1
   878  1469  1468   ar
   879  1469  1462   ar
   880   817   815    1
   881  1468  1466   ar
   882  1461  1462   ar
   883   810   811    1
   884   825   827   ar
   885   825   826    1
   886   224   222    2
   887  1454  1455    1
   888  1462  1463   ar
   889  1246  1245    1
   890   811   813    1
   891  1466  1467    1
   892  1466  1465   ar
   893  1244  1243    1
   894   225   222    1
   895   225   226    1
   896   230   229    1
   897   223   222    1
   898  1245  1243    1
   899  1245  1247    1
   900   222   207    1
   901  1463  1465   ar
   902  1463  1464    2
   903  1455  1470    1
   904  1250  1249    2
   905   229   231    1
   906   229   227    1
   907   239   238    1
   908   236   235   ar
   909   236   237   ar
   910  1243  1241    1
   911   815   816    1
   912   815   813    1
   913   226   227    1
   914   216   215    2
   915  1249  1251   ar
   916  1249  1248   ar
   917   235   234   ar
   918   813   814    1
   919  1251  1252   ar
   920   237   238   ar
   921   237   243   ar
   922   238   240   ar
   923   231   233    1
   924   231   232    1
   925  1247  1248    1
   926  1247  1242    1
   927   201   199    2
   928   227   228    1
   929  1248  1255   ar
   930   234   243   ar
   931   234   233    1
   932   215   217   ar
   933   215   214   ar
   934   240   241   ar
   935   243   242   ar
   936  1252  1253    1
   937  1252  1254   ar
   938   207   206    1
   939   200   199    1
   940  1470  1471    2
   941  1470  1472    1
   942  1470  1473    1
   943   217   218   ar
   944   213   214   ar
   945   213   212   ar
   946   214   221   ar
   947  1476  1481    1
   948  1476  1475    1
   949  1241  1242    1
   950  1241  1240    1
   951   228   233    1
   952   241   242   ar
   953  1255  1254   ar
   954   199   202    1
   955   199   184    1
   956   814   829    1
   957  1481  1482    1
   958  1481  1479    1
   959   206   208    1
   960   206   204    1
   961   202   203    1
   962   830   829    2
   963   212   211   ar
   964  1473  1474    1
   965   218   219    1
   966   218   220   ar
   967  1483  1482   ar
   968  1483  1484   ar
   969  1239  1240    1
   970  1239  1236    1
   971   221   211   ar
   972   221   220   ar
   973  1482  1492   ar
   974   178   176    2
   975  1237  1236    2
   976   155   154    2
   977  1480  1479    1
   978   208   210    1
   979   208   209    1
   980  1238  1236    1
   981  1484  1485   ar
   982   177   176    1
   983   211   210    1
   984   829   831    1
   985   829   832    1
   986  1475  1474    1
   987  1475  1477    1
   988   203   204    1
   989  1236  1224    1
   990  1492  1485   ar
   991  1492  1491   ar
   992  1485  1486   ar
   993  1479  1477    1
   994   176   179    1
   995   176   162    1
   996   180   179    1
   997   180   181    1
   998   204   205    1
   999  1491  1489   ar
  1000   184   183    1
  1001   843   842   ar
  1002   843   844   ar
  1003   210   205    1
  1004   846   845    1
  1005   842   841   ar
  1006   135   134    2
  1007  1486  1487    2
  1008  1486  1488   ar
  1009   156   154    1
  1010  1489  1488   ar
  1011  1489  1490    1
  1012   844   845   ar
  1013   844   850   ar
  1014   835   840    1
  1015   835   834    1
  1016   154   157    1
  1017   154   142    1
  1018   845   847   ar
  1019  1477  1478    1
  1020   183   181    1
  1021   183   185    1
  1022   841   850   ar
  1023   841   840    1
  1024   850   849   ar
  1025   157   158    1
  1026   847   848   ar
  1027   840   838    1
  1028   832   833    1
  1029   181   182    1
  1030   849   848   ar
  1031  1233  1232    1
  1032  1224  1223    1
  1033   833   834    1
  1034  1478  1493    1
  1035   162   161    1
  1036   158   159    1
  1037   190   189   ar
  1038   190   191   ar
  1039   834   836    1
  1040   134   136    1
  1041   134   137    1
  1042   134   120    1
  1043   189   188   ar
  1044  1232  1231   ar
  1045  1232  1234   ar
  1046   142   141    1
  1047   193   192    2
  1048  1231  1229   ar
  1049   138   137    1
  1050   138   139    1
  1051  1223  1225    1
  1052  1223  1221    1
  1053   185   187    1
  1054   185   186    1
  1055   191   192   ar
  1056   191   198   ar
  1057   182   187    1
  1058  1234  1235   ar
  1059  1218  1216    2
  1060   192   194   ar
  1061   161   159    1
  1062   161   163    1
  1063  1225  1226    1
  1064  1225  1227    1
  1065   188   198   ar
  1066   188   187    1
  1067  1195  1193    2
  1068   113   112    2
  1069  1229  1230    2
  1070  1229  1228   ar
  1071   838   839    1
  1072   838   836    1
  1073  1194  1193    1
  1074   198   197   ar
  1075  1235  1228   ar
  1076   159   160    1
  1077  1219  1216    1
  1078  1219  1220    1
  1079   194   195   ar
  1080  1228  1227    1
  1081  1217  1216    1
  1082   868   867    1
  1083  1499  1504    1
  1084  1499  1498    1
  1085   836   837    1
  1086   141   139    1
  1087   141   143    1
  1088   120   119    1
  1089  1216  1201    1
  1090   139   140    1
  1091  1493  1495    2
  1092  1493  1494    1
  1093  1493  1496    1
  1094   197   195   ar
  1095  1193  1196    1
  1096  1193  1179    1
  1097  1512  1511   ar
  1098  1512  1505   ar
  1099  1511  1509   ar
  1100   195   196    1
  1101   867   866   ar
  1102   867   869   ar
  1103   866   864   ar
  1104  1227  1222    1
  1105  1221  1220    1
  1106  1221  1222    1
  1107   167   168   ar
  1108   167   166   ar
  1109  1196  1197    1
  1110   168   169   ar
  1111  1504  1505    1
  1112  1504  1502    1
  1113  1497  1498    1
  1114  1497  1496    1
  1115  1505  1506   ar
  1116   163   165    1
  1117   163   164    1
  1118  1509  1510    1
  1119  1509  1508   ar
  1120  1498  1500    1
  1121   869   870   ar
  1122   160   165    1
  1123   864   865    2
  1124   864   863   ar
  1125   112   114    1
  1126   112   115    1
  1127   112   100    1
  1128  1181  1180    1
  1129   115   116    1
  1130  1506  1508   ar
  1131  1506  1507    2
  1132  1188  1187    1
  1133   837   851    1
  1134   166   165    1
  1135   166   175   ar
  1136   119   117    1
  1137   119   121    1
  1138   116   117    1
  1139   870   863   ar
  1140   169   170   ar
  1141   169   175   ar
  1142  1180  1178    1
  1143  1180  1182    1
  1144   863   862    1
  1145   171   170    1
  1146  1197  1198    1
  1147  1210  1209    2
  1148  1185  1186   ar
  1149  1185  1184   ar
  1150   143   144    1
  1151   143   145    1
  1152  1187  1186   ar
  1153  1187  1189   ar
  1154   140   145    1
  1155  1186  1192   ar
  1156  1201  1200    1
  1157  1184  1183   ar
  1158  1189  1190   ar
  1159   170   172   ar
  1160   175   174   ar
  1161  1503  1502    1
  1162  1179  1178    1
  1163   862   857    1
  1164   862   860    1
  1165   857   856    1
  1166  1200  1198    1
  1167  1200  1202    1
  1168  1209  1208   ar
  1169  1209  1211   ar
  1170   117   118    1
  1171  1192  1183   ar
  1172  1192  1191   ar
  1173  1502  1500    1
  1174  1183  1182    1
  1175  1190  1191   ar
  1176  1207  1208   ar
  1177  1207  1206   ar
  1178   153   152   ar
  1179   153   146   ar
  1180   100    99    1
  1181    93    92    2
  1182  1178  1176    1
  1183  1208  1215   ar
  1184  1500  1501    1
  1185  1211  1212   ar
  1186   145   146    1
  1187   152   150   ar
  1188  1182  1177    1
  1189   121   122    1
  1190   121   123    1
  1191   853   851    2
  1192  1198  1199    1
  1193   172   173   ar
  1194   174   173   ar
  1195  1206  1205   ar
  1196   146   147   ar
  1197   851   854    1
  1198   851   852    1
  1199  1215  1205   ar
  1200  1215  1214   ar
  1201   854   855    1
  1202  1212  1213    1
  1203  1212  1214   ar
  1204  1205  1204    1
  1205   888   887    2
  1206  1202  1204    1
  1207  1202  1203    1
  1208    94    92    1
  1209  1199  1204    1
  1210   150   151    1
  1211   150   149   ar
  1212    92    95    1
  1213    92    78    1
  1214   856   855    1
  1215   856   858    1
  1216  1501  1513    1
  1217   860   861    1
  1218   860   858    1
  1219  1173  1171    2
  1220   118   123    1
  1221    95    96    1
  1222   147   149   ar
  1223   147   148    2
  1224   887   886   ar
  1225   887   889   ar
  1226    99   101    1
  1227    99    97    1
  1228   886   884   ar
  1229  1176  1177    1
  1230  1176  1175    1
  1231   123   124    1
  1232   125   124   ar
  1233   125   126   ar
  1234  1530  1529    1
  1235   889   890   ar
  1236   858   859    1
  1237   884   885    2
  1238   884   883   ar
  1239   124   133   ar
  1240   102   101    1
  1241    96    97    1
  1242  1174  1171    1
  1243  1174  1175    1
  1244   101   103    1
  1245  1515  1513    2
  1246  1529  1531   ar
  1247  1529  1528   ar
  1248    97    98    1
  1249   126   127   ar
  1250  1527  1528   ar
  1251  1527  1526   ar
  1252   890   883   ar
  1253  1171  1172    1
  1254  1171  1157    1
  1255  1513  1514    1
  1256  1513  1516    1
  1257  1531  1532   ar
  1258  1528  1534   ar
  1259   883   882    1
  1260    78    77    1
  1261  1526  1525   ar
  1262   133   127   ar
  1263   133   132   ar
  1264  1532  1533   ar
  1265  1534  1525   ar
  1266  1534  1533   ar
  1267   127   128   ar
  1268  1519  1524    1
  1269  1519  1518    1
  1270  1525  1524    1
  1271   882   877    1
  1272   882   880    1
  1273    80    79    1
  1274   911   910    1
  1275   877   876    1
  1276  1572  1571    1
  1277   132   131   ar
  1278   859   871    1
  1279  1157  1156    1
  1280  1524  1522    1
  1281   909   910   ar
  1282   909   907   ar
  1283    77    79    1
  1284    77    75    1
  1285  1516  1517    1
  1286   910   912   ar
  1287   103    98    1
  1288   103   104    1
  1289   908   907    2
  1290   128   129    1
  1291   128   130   ar
  1292    71    70    2
  1293  1571  1573   ar
  1294  1571  1570   ar
  1295  1545  1544    1
  1296   907   906   ar
  1297  1517  1518    1
  1298   111   104   ar
  1299   111   110   ar
  1300   131   130   ar
  1301  1573  1574   ar
  1302    79    81    1
  1303  1565  1564    1
  1304  1552  1551    2
  1305   104   105   ar
  1306   912   913   ar
  1307  1518  1520    1
  1308  1556  1555    2
  1309   873   871    2
  1310  1570  1568   ar
  1311   110   108   ar
  1312  1159  1158    1
  1313  1553  1551   ar
  1314  1553  1554   ar
  1315   906   913   ar
  1316   906   905   ar
  1317  1551  1550   ar
  1318   880   881    1
  1319   880   878    1
  1320   913   903   ar
  1321   876   875    1
  1322   876   878    1
  1323  1574  1567   ar
  1324   871   874    1
  1325   871   872    1
  1326  1544  1542    1
  1327  1544  1546    1
  1328  1156  1158    1
  1329  1156  1154    1
  1330    75    74    1
  1331    75    76    1
  1332   105   106    2
  1333   105   107   ar
  1334   875   874    1
  1335  1554  1547   ar
  1336  1564  1566    1
  1337  1564  1562    1
  1338  1158  1160    1
  1339  1568  1567   ar
  1340  1568  1569    2
  1341   905   904   ar
  1342  1522  1523    1
  1343  1522  1520    1
  1344  1550  1548   ar
  1345    70    73    1
  1346    70    72    1
  1347    70    55    1
  1348   108   107   ar
  1349   108   109    2
  1350  1567  1566    1
  1351    73    74    1
  1352   903   904   ar
  1353   903   902    1
  1354    81    76    1
  1355    81    82    1
  1356  1520  1521    1
  1357  1547  1548   ar
  1358  1547  1546    1
  1359   878   879    1
  1360  1548  1549    2
  1361   902   897    1
  1362   902   900    1
  1363  1542  1543    1
  1364  1542  1540    1
  1365   928   927    2
  1366  1152  1153    1
  1367  1152  1149    1
  1368  1555  1558    1
  1369  1555  1543    1
  1370  1555  1557    1
  1371  1546  1541    1
  1372  1566  1561    1
  1373   897   896    1
  1374  1154  1153    1
  1375  1154  1155    1
  1376  1558  1559    1
  1377   929   927   ar
  1378   929   930   ar
  1379  1562  1563    1
  1380  1562  1560    1
  1381   927   926   ar
  1382  1150  1149    2
  1383   931   930    2
  1384    82    83   ar
  1385    82    91   ar
  1386    55    54    1
  1387  1160  1155    1
  1388  1160  1161    1
  1389   930   932   ar
  1390  1149  1151    1
  1391  1149  1135    1
  1392  1521  1535    1
  1393    90    91   ar
  1394    90    89   ar
  1395  1539  1540    1
  1396  1539  1538    1
  1397   879   891    1
  1398  1540  1541    1
  1399    83    84   ar
  1400   953   952   ar
  1401   953   954   ar
  1402   900   901    1
  1403   900   898    1
  1404  1561  1560    1
  1405    91    85   ar
  1406   926   925    1
  1407   926   933   ar
  1408   952   950   ar
  1409  1161  1162   ar
  1410  1161  1170   ar
  1411   925   920    1
  1412   925   923    1
  1413  1560  1559    1
  1414  1538  1535    1
  1415   954   955   ar
  1416   932   933   ar
  1417   896   895    1
  1418   896   898    1
  1419  1162  1163   ar
  1420    89    88   ar
  1421   920   919    1
  1422  1169  1170   ar
  1423  1169  1168   ar
  1424   893   891    2
  1425  1170  1164   ar
  1426   950   951    1
  1427   950   949   ar
  1428   894   895    1
  1429   894   891    1
  1430    54    56    1
  1431    54    52    1
  1432    84    85   ar
  1433    85    86   ar
  1434   924   923    1
  1435  1535  1536    2
  1436  1535  1537    1
  1437   891   892    1
  1438  1163  1164   ar
  1439   955   949   ar
  1440   955   946   ar
  1441   898   899    1
  1442  1164  1165   ar
  1443  1168  1167   ar
  1444  1135  1134    1
  1445   949   948   ar
  1446   923   921    1
  1447    88    86   ar
  1448    51    52    1
  1449    51    50    1
  1450    57    56    1
  1451    56    58    1
  1452    86    87    1
  1453   946   945    1
  1454   946   947   ar
  1455   945   940    1
  1456   945   943    1
  1457  1167  1165   ar
  1458  1165  1166    1
  1459    52    53    1
  1460   970   969    2
  1461    48    47    2
  1462   919   921    1
  1463   919   918    1
  1464   948   947   ar
  1465   944   943    1
  1466   940   939    1
  1467  1134  1136    1
  1468  1134  1132    1
  1469   967   962    1
  1470   967   968    1
  1471   967   965    1
  1472   899   914    1
  1473   969   968   ar
  1474   969   971   ar
  1475   943   941    1
  1476    50    47    1
  1477   962   961    1
  1478   921   922    1
  1479   966   965    1
  1480  1128  1127    2
  1481   968   975   ar
  1482  1137  1136    1
  1483    49    47    1
  1484   918   917    1
  1485  1130  1127    1
  1486  1130  1131    1
  1487  1136  1138    1
  1488   971   972   ar
  1489    47    32    1
  1490  1129  1127    1
  1491   917   914    1
  1492    58    53    1
  1493    58    59    1
  1494  1127  1113    1
  1495    68    66   ar
  1496    68    69   ar
  1497    67    66    1
  1498   965   963    1
  1499   916   914    2
  1500    59    69   ar
  1501    59    60   ar
  1502   975   974   ar
  1503   914   915    1
  1504   972   973    2
  1505   972   974   ar
  1506    66    65   ar
  1507    69    62   ar
  1508   922   934    1
  1509   939   941    1
  1510   939   938    1
  1511  1132  1131    1
  1512  1132  1133    1
  1513   961   963    1
  1514   961   960    1
  1515    60    61   ar
  1516    65    63   ar
  1517    62    61   ar
  1518    62    63   ar
  1519   941   942    1
  1520   990   989    2
  1521   937   938    1
  1522   937   934    1
  1523    63    64    2
  1524   986   985    1
  1525  1138  1139    1
  1526  1138  1133    1
  1527  1147  1146   ar
  1528  1147  1148   ar
  1529   987   988    1
  1530   987   985    1
  1531   987   982    1
  1532  1084  1083    2
  1533    32    31    1
  1534   989   988   ar
  1535   989   991   ar
  1536  1146  1145   ar
  1537   963   964    1
  1538   960   959    1
  1539  1139  1148   ar
  1540  1139  1140   ar
  1541  1148  1142   ar
  1542   988   995   ar
  1543  1145  1143   ar
  1544   991   992   ar
  1545   934   936    2
  1546   934   935    1
  1547   942   956    1
  1548  1140  1141   ar
  1549  1142  1143   ar
  1550  1142  1141   ar
  1551  1113  1112    1
  1552  1143  1144    1
  1553   985   983    1
  1554   982   981    1
  1555   995   994   ar
  1556  1086  1083    1
  1557  1086  1087    1
  1558   992   994   ar
  1559   992   993    1
  1560   959   956    1
  1561   964   976    1
  1562  1083  1085    1
  1563  1083  1069    1
  1564    31    33    1
  1565    31    29    1
  1566  1109  1108    1
  1567  1109  1110    1
  1568  1087  1088    1
  1569    33    34    1
  1570    33    35    1
  1571  1112  1110    1
  1572  1112  1114    1
  1573   956   958    2
  1574   956   957    1
  1575  1002  1007    1
  1576  1002  1001    1
  1577   981   983    1
  1578   981   980    1
  1579    26    24    2
  1580  1108  1105    1
  1581    25    24    1
  1582   983   984    1
  1583  1110  1111    1
  1584  1007  1008    1
  1585  1007  1005    1
  1586  1090  1092    1
  1587  1090  1088    1
  1588  1090  1091    1
  1589  1107  1105    2
  1590  1092  1093    1
  1591  1092  1094    1
  1592    29    28    1
  1593    29    30    1
  1594  1069  1068    1
  1595  1001  1000    1
  1596  1001  1003    1
  1597  1063  1061    2
  1598   978   976    2
  1599  1006  1005    1
  1600  1088  1089    1
  1601   976   979    1
  1602   976   977    1
  1603    24    27    1
  1604    24     9    1
  1605  1010  1009    2
  1606    28    27    1
  1607  1008  1009   ar
  1608  1008  1015   ar
  1609  1114  1115    1
  1610  1114  1116    1
  1611  1000   999    1
  1612  1062  1061    1
  1613   979   980    1
  1614   984   996    1
  1615  1118  1119   ar
  1616  1118  1117   ar
  1617    35    36    1
  1618    35    30    1
  1619  1009  1011   ar
  1620  1105  1091    1
  1621  1105  1106    1
  1622    44    43    1
  1623    45    43   ar
  1624    45    46   ar
  1625    36    46   ar
  1626    36    37   ar
  1627  1119  1120   ar
  1628    43    42   ar
  1629    46    39   ar
  1630  1015  1014   ar
  1631    37    38   ar
  1632    42    40   ar
  1633    39    38   ar
  1634    39    40   ar
  1635    40    41    2
  1636  1005  1003    1
  1637  1111  1116    1
  1638  1011  1012   ar
  1639  1089  1094    1
  1640  1061  1064    1
  1641  1061  1047    1
  1642  1096  1095   ar
  1643  1096  1097   ar
  1644  1014  1012   ar
  1645  1094  1095    1
  1646  1117  1116    1
  1647  1117  1126   ar
  1648  1012  1013    1
  1649  1068  1066    1
  1650  1068  1070    1
  1651  1003  1004    1
  1652   999   996    1
  1653  1095  1104   ar
  1654  1097  1098   ar
  1655  1065  1064    1
  1656  1065  1066    1
  1657     9     8    1
  1658  1120  1126   ar
  1659  1120  1121   ar
  1660   996   998    2
  1661   996   997    1
  1662  1004  1016    1
  1663  1122  1121    1
  1664  1047  1046    1
  1665  1066  1067    1
  1666  1126  1125   ar
  1667  1104  1098   ar
  1668  1104  1103   ar
  1669  1098  1099   ar
  1670  1071  1070    1
  1671  1070  1072    1
  1672  1121  1123   ar
  1673     8     6    1
  1674     8    10    1
  1675  1044  1043    1
  1676  1044  1046    1
  1677  1044  1045    1
  1678     5     6    1
  1679     5     4    1
  1680  1103  1102   ar
  1681  1043  1042    1
  1682  1046  1048    1
  1683  1099  1100    1
  1684  1099  1101   ar
  1685  1022  1021    1
  1686  1022  1027    1
  1687  1020  1021    1
  1688  1020  1019    1
  1689  1125  1124   ar
  1690     6     7    1
  1691  1021  1023    1
  1692     2     1    1
  1693  1102  1101   ar
  1694  1123  1124   ar
  1695  1067  1072    1
  1696  1016  1017    2
  1697  1016  1019    1
  1698  1016  1018    1
  1699     4     1    1
  1700    10    11    1
  1701    10    12    1
  1702  1045  1050    1
  1703  1072  1073    1
  1704  1074  1073   ar
  1705  1074  1075   ar
  1706  1042  1039    1
  1707  1036  1035    1
  1708    18    17    2
  1709  1034  1035   ar
  1710  1034  1032   ar
  1711  1035  1037   ar
  1712  1037  1038   ar
  1713  1032  1033    2
  1714  1032  1031   ar
  1715  1038  1031   ar
  1716  1038  1028   ar
  1717  1031  1030   ar
  1718    17    19   ar
  1719    17    16   ar
  1720     1     3    1
  1721  1028  1027    1
  1722  1028  1029   ar
  1723  1030  1029   ar
  1724  1027  1025    1
  1725    19    20   ar
  1726  1073  1082   ar
  1727    16    15   ar
  1728    16    23   ar
  1729    15    14   ar
  1730    20    21    1
  1731    20    22   ar
  1732  1048  1050    1
  1733  1048  1049    1
  1734    23    22   ar
  1735    23    13   ar
  1736  1050  1051    1
  1737    14    13   ar
  1738    13    12    1
  1739     7    12    1
  1740  1075  1076   ar
  1741  1023  1024    1
  1742  1023  1025    1
  1743  1024  1039    1
  1744  1040  1039    2
  1745  1082  1076   ar
  1746  1082  1081   ar
  1747  1039  1041    1
  1748  1059  1058   ar
  1749  1059  1060   ar
  1750  1025  1026    1
  1751  1076  1077   ar
  1752  1081  1080   ar
  1753  1051  1060   ar
  1754  1051  1052   ar
  1755  1058  1057   ar
  1756  1060  1054   ar
  1757  1077  1078    1
  1758  1077  1079   ar
  1759  1080  1079   ar
  1760  1052  1053   ar
  1761  1057  1055   ar
  1762  1054  1053   ar
  1763  1054  1055   ar
  1764  1055  1056    1
