lig.pdb
 OpenBabel03051820513D

 14 15  0  0  0  0  0  0  0  0999 V2000
  -31.1260   18.7770  -17.7160 N   0  0  0  0  0  0  0  0  0  0  0  0
  -30.3750   18.1440  -18.6680 C   0  0  0  0  0  0  0  0  0  0  0  0
  -29.7310   17.0920  -18.2220 N   0  0  0  0  0  0  0  0  0  0  0  0
  -30.0820   17.0300  -16.8840 C   0  0  0  0  0  0  0  0  0  0  0  0
  -29.7340   16.1380  -15.8530 C   0  0  0  0  0  0  0  0  0  0  0  0
  -28.9110   15.0990  -16.0290 N   0  0  0  0  0  0  0  0  0  0  0  0
  -30.2620   16.3580  -14.6290 N   0  0  0  0  0  0  0  0  0  0  0  0
  -31.0820   17.4010  -14.4590 C   0  0  0  0  0  0  0  0  0  0  0  0
  -31.4830   18.3060  -15.3510 N   0  0  0  0  0  0  0  0  0  0  0  0
  -30.9420   18.0610  -16.5550 C   0  0  0  0  0  0  0  0  0  0  0  0
  -30.3250   18.4340  -19.5500 H   0  0  0  0  0  0  0  0  0  0  0  0
  -28.7250   14.5810  -15.3670 H   0  0  0  0  0  0  0  0  0  0  0  0
  -28.5690   14.9480  -16.8030 H   0  0  0  0  0  0  0  0  0  0  0  0
  -31.4190   17.5100  -13.5990 H   0  0  0  0  0  0  0  0  0  0  0  0
  1 10  1  0  0  0  0
  2  3  2  0  0  0  0
  2  1  1  0  0  0  0
  3  4  1  0  0  0  0
  4 10  2  0  0  0  0
  4  5  1  0  0  0  0
  5  7  2  0  0  0  0
  6  5  1  0  0  0  0
  6 12  1  0  0  0  0
  7  8  1  0  0  0  0
  8 14  1  0  0  0  0
  9  8  2  0  0  0  0
 10  9  1  0  0  0  0
 11  2  1  0  0  0  0
 13  6  1  0  0  0  0
M  END
$$$$
